
  -OEChem-04052315383D

 82 90  0     1  0  0  0  0  0999 V2000
  -29.4672  -33.9674   26.0575 C   0  0  0  0  0  0  0  0  0  0  0  0
  -29.6188  -32.8719   25.2135 C   0  0  0  0  0  0  0  0  0  0  0  0
  -24.6252   -9.0147   21.3673 C   0  0  0  0  0  0  0  0  0  0  0  0
  -23.3766  -10.8879   22.2444 C   0  0  0  0  0  0  0  0  0  0  0  0
  -28.2412  -34.2032   26.6783 C   0  0  0  0  0  0  0  0  0  0  0  0
  -28.5449  -32.0108   24.9908 C   0  0  0  0  0  0  0  0  0  0  0  0
  -27.2104  -29.0574   19.7944 C   0  0  0  0  0  0  0  0  0  0  0  0
  -27.8372  -20.4031   20.0854 C   0  0  0  0  0  0  0  0  0  0  0  0
  -28.2619  -19.0861   20.2607 C   0  0  0  0  0  0  0  0  0  0  0  0
  -24.0847   -8.1918   22.3553 C   0  0  0  0  0  0  0  0  0  0  0  0
  -22.8361  -10.0649   23.2324 C   0  0  0  0  0  0  0  0  0  0  0  0
  -27.4532  -27.7523   19.3684 C   0  0  0  0  0  0  0  0  0  0  0  0
  -21.1762   -6.5642   22.9251 C   0  0  0  0  0  0  0  0  0  0  0  0
  -20.7078   -5.3086   22.5382 C   0  0  0  0  0  0  0  0  0  0  0  0
  -25.2408  -27.1127   20.0866 C   0  0  0  0  0  0  0  0  0  0  0  0
  -25.8207  -19.9178   21.3245 C   0  0  0  0  0  0  0  0  0  0  0  0
  -22.2843   -4.2583   24.0377 C   0  0  0  0  0  0  0  0  0  0  0  0
  -24.2712  -10.3628   21.3118 C   0  0  0  0  0  0  0  0  0  0  0  0
  -24.3028  -11.4627   19.0103 C   0  0  0  0  0  0  0  0  0  0  0  0
  -27.1489  -33.3500   26.4555 C   0  0  0  0  0  0  0  0  0  0  0  0
  -25.9829  -29.3980   20.3807 C   0  0  0  0  0  0  0  0  0  0  0  0
  -27.3036  -32.2346   25.6103 C   0  0  0  0  0  0  0  0  0  0  0  0
  -24.9840  -28.4234   20.5169 C   0  0  0  0  0  0  0  0  0  0  0  0
  -26.6166  -20.8190   20.6174 C   0  0  0  0  0  0  0  0  0  0  0  0
  -27.4660  -18.1849   20.9679 C   0  0  0  0  0  0  0  0  0  0  0  0
  -23.1901   -8.7168   23.2878 C   0  0  0  0  0  0  0  0  0  0  0  0
  -26.4694  -26.7790   19.5171 C   0  0  0  0  0  0  0  0  0  0  0  0
  -22.1988   -6.6668   23.8683 C   0  0  0  0  0  0  0  0  0  0  0  0
  -21.2617   -4.1557   23.0945 C   0  0  0  0  0  0  0  0  0  0  0  0
  -26.2454  -18.6007   21.4998 C   0  0  0  0  0  0  0  0  0  0  0  0
  -22.7528   -5.5139   24.4246 C   0  0  0  0  0  0  0  0  0  0  0  0
  -24.8296  -11.2135   20.2918 C   0  0  0  0  0  0  0  0  0  0  0  0
  -25.1979  -12.3304   18.4338 C   0  0  0  0  0  0  0  0  0  0  0  0
  -23.1108  -10.9552   18.3960 C   0  0  0  0  0  0  0  0  0  0  0  0
  -25.0829  -30.4916   23.2264 C   0  0  0  0  0  0  0  0  0  0  0  0
  -22.1752  -30.6797   21.8008 C   0  0  0  0  0  0  0  0  0  0  0  0
  -26.8471  -23.1760   19.7659 C   0  0  0  0  0  0  0  0  0  0  0  0
  -20.0783  -29.5848   19.3409 C   0  0  0  0  0  0  0  0  0  0  0  0
  -29.0837  -16.2754   20.6792 C   0  0  0  0  0  0  0  0  0  0  0  0
  -25.8571  -33.6187   27.1860 C   0  0  0  0  0  0  0  0  0  0  0  0
  -25.7269  -30.8165   20.8106 C   0  0  0  0  0  0  0  0  0  0  0  0
  -23.6420  -28.7425   21.1214 C   0  0  0  0  0  0  0  0  0  0  0  0
  -24.6608  -32.8708   26.6031 C   0  0  0  0  0  0  0  0  0  0  0  0
  -29.8307  -13.5400   18.5259 C   0  0  0  0  0  0  0  0  0  0  0  0
  -25.0179  -31.4102   26.3463 C   0  0  0  0  0  0  0  0  0  0  0  0
  -28.5825  -12.6587   18.6130 C   0  0  0  0  0  0  0  0  0  0  0  0
  -30.1620  -14.1884   19.8688 C   0  0  0  0  0  0  0  0  0  0  0  0
  -27.8074  -14.0446   20.5791 C   0  0  0  0  0  0  0  0  0  0  0  0
  -26.1549  -31.2918   25.3243 C   0  0  1  0  0  0  0  0  0  0  0  0
  -24.6291  -30.9327   21.8636 C   0  0  1  0  0  0  0  0  0  0  0  0
  -27.3964  -13.4214   19.2351 C   0  0  2  0  0  0  0  0  0  0  0  0
  -17.7523  -29.8963   18.4521 C   0  0  0  0  0  0  0  0  0  0  0  0
  -21.0714  -29.0300   24.1181 C   0  0  0  0  0  0  0  0  0  0  0  0
  -19.0360  -28.5747   22.7331 C   0  0  0  0  0  0  0  0  0  0  0  0
  -19.6003  -30.9152   23.3859 C   0  0  0  0  0  0  0  0  0  0  0  0
  -21.0811  -30.5085   16.7141 C   0  0  0  0  0  0  0  0  0  0  0  0
  -26.0374  -24.4587   19.8089 C   0  0  0  0  0  0  0  0  0  1  0  0
  -21.0019  -29.7439   21.6379 C   0  0  1  0  0  0  0  0  0  0  0  0
  -19.2045  -30.3371   18.3535 C   0  0  2  0  0  0  0  0  0  0  0  0
  -20.2033  -29.5592   22.9591 C   0  0  0  0  0  0  0  0  0  0  0  0
  -25.9711  -11.8698   20.5165 N   0  0  0  0  0  0  0  0  0  0  0  0
  -26.1688  -12.5398   19.3684 N   0  0  0  0  0  0  0  0  0  0  0  0
  -23.4420  -30.1421   21.5322 N   0  0  0  0  0  0  0  0  0  0  0  0
  -28.9930  -14.8963   20.3953 N   0  0  0  0  0  0  0  0  0  0  0  0
  -25.2413  -12.9269   17.2236 N   0  0  0  0  0  0  0  0  0  0  0  0
  -22.3047  -10.0736   19.1291 N   0  0  0  0  0  0  0  0  0  0  0  0
  -26.1853  -22.1549   20.4391 N   0  0  0  0  0  0  0  0  0  0  0  0
  -27.8999  -16.8475   21.1438 N   0  0  0  0  0  0  0  0  0  0  0  0
  -25.6524  -31.4980   23.9829 N   0  0  0  0  0  0  0  0  0  0  0  0
  -20.2112  -30.2696   20.5303 N   0  0  0  0  0  0  0  0  0  0  0  0
  -19.6744  -30.0985   16.9595 N   0  3  0  0  0  0  0  0  0  0  0  0
  -22.7792  -11.2612   17.2256 O   0  0  0  0  0  0  0  0  0  0  0  0
  -24.9266  -29.3248   23.5669 O   0  0  0  0  0  0  0  0  0  0  0  0
  -21.9746  -31.8467   22.1465 O   0  0  0  0  0  0  0  0  0  0  0  0
  -27.9319  -23.1198   19.1960 O   0  0  0  0  0  0  0  0  0  0  0  0
  -20.5887  -28.4966   19.0842 O   0  0  0  0  0  0  0  0  0  0  0  0
  -30.1266  -16.9085   20.4960 O   0  0  0  0  0  0  0  0  0  0  0  0
  -22.6623   -7.9141   24.2519 O   0  0  0  0  0  0  0  0  0  0  0  0
  -26.7040  -25.5042   19.1027 O   0  0  0  0  0  0  0  0  0  1  0  0
  -20.8107   -2.9501   22.7240 F   0  0  0  0  0  0  0  0  0  0  0  0
  -25.4715  -17.7428   22.1800 F   0  0  0  0  0  0  0  0  0  0  0  0
  -23.7346   -5.6062   25.3320 F   0  0  0  0  0  0  0  0  0  0  0  0
  1  2  1  0  0  0  0
  1  5  2  0  0  0  0
  2  6  2  0  0  0  0
  3 10  2  0  0  0  0
  3 18  1  0  0  0  0
  4 11  1  0  0  0  0
  4 18  2  0  0  0  0
  5 20  1  0  0  0  0
  6 22  1  0  0  0  0
  7 12  2  0  0  0  0
  7 21  1  0  0  0  0
  8  9  2  0  0  0  0
  8 24  1  0  0  0  0
  9 25  1  0  0  0  0
 10 26  1  0  0  0  0
 11 26  2  0  0  0  0
 12 27  1  0  0  0  0
 13 14  2  0  0  0  0
 13 28  1  0  0  0  0
 14 29  1  0  0  0  0
 15 23  1  0  0  0  0
 15 27  2  0  0  0  0
 16 24  2  0  0  0  0
 16 30  1  0  0  0  0
 17 29  2  0  0  0  0
 17 31  1  0  0  0  0
 18 32  1  0  0  0  0
 19 32  1  0  0  0  0
 19 33  2  0  0  0  0
 19 34  1  0  0  0  0
 20 22  2  0  0  0  0
 20 40  1  0  0  0  0
 21 23  2  0  0  0  0
 21 41  1  0  0  0  0
 22 49  1  0  0  0  0
 23 42  1  0  0  0  0
 24 67  1  0  0  0  0
 25 30  2  0  0  0  0
 25 68  1  0  0  0  0
 26 78  1  0  0  0  0
 27 79  1  0  0  0  0
 28 31  2  0  0  0  0
 28 78  1  0  0  0  0
 29 80  1  0  0  0  0
 30 81  1  0  0  0  0
 31 82  1  0  0  0  0
 32 61  2  0  0  0  0
 33 62  1  0  0  0  0
 33 65  1  0  0  0  0
 34 66  1  0  0  0  0
 34 72  2  0  0  0  0
 35 50  1  0  0  0  0
 35 69  1  0  0  0  0
 35 73  2  0  0  0  0
 36 58  1  0  0  0  0
 36 63  1  0  0  0  0
 36 74  2  0  0  0  0
 37 57  1  0  0  0  0
 37 67  1  0  0  0  0
 37 75  2  0  0  0  0
 38 59  1  0  0  0  0
 38 70  1  0  0  0  0
 38 76  2  0  0  0  0
 39 64  1  0  0  0  0
 39 68  1  0  0  0  0
 39 77  2  0  0  0  0
 40 43  1  0  0  0  0
 41 50  1  0  0  0  0
 42 63  1  0  0  0  0
 43 45  1  0  0  0  0
 44 46  1  0  0  0  0
 44 47  1  0  0  0  0
 45 49  1  0  0  0  0
 46 51  1  0  0  0  0
 47 64  1  0  0  0  0
 48 51  1  0  0  0  0
 48 64  1  0  0  0  0
 49 69  1  0  0  0  0
 50 63  1  0  0  0  0
 51 62  1  0  0  0  0
 52 59  1  0  0  0  0
 53 60  1  0  0  0  0
 54 60  1  0  0  0  0
 55 60  1  0  0  0  0
 56 71  1  0  0  0  0
 57 79  1  0  0  0  0
 58 60  1  0  0  0  0
 58 70  1  0  0  0  0
 59 71  1  0  0  0  0
 61 62  1  0  0  0  0
M  CHG  1  71   1
M  ISO  4  39 100  57 101  68 100  79 101
M  END
> <Batch ID>
0009

> <Smiles>
CNC(C)C(=O)NC(C(=O)N1Cc2cc([101O:1][101CH2:1]C(=O)Nc3ccc([100NH:0][100C:0](=O)N4CCCC(n5nc(-c6ccc(Oc7ccc(F)cc7F)cc6)c(C(N)=O)c5N)C4)c(F)c3)ccc2CC1C(=O)NC1CCCc2ccccc21)C(C)(C)C

> <Shape>
0.309

> <Color>
0.101

> <Negative vol penalty>
0.000

$$$$

  -OEChem-04052315383D

 86 94  0     1  0  0  0  0  0999 V2000
  -28.3054  -34.9350   28.2877 C   0  0  0  0  0  0  0  0  0  0  0  0
  -28.0739  -33.6356   27.8479 C   0  0  0  0  0  0  0  0  0  0  0  0
  -24.2088   -9.4066   19.8173 C   0  0  0  0  0  0  0  0  0  0  0  0
  -24.5906   -9.6427   22.1913 C   0  0  0  0  0  0  0  0  0  0  0  0
  -30.0510  -19.7842   24.3189 C   0  0  0  0  0  0  0  0  0  0  0  0
  -27.4705  -35.9704   27.8695 C   0  0  0  0  0  0  0  0  0  0  0  0
  -27.0067  -33.3706   26.9904 C   0  0  0  0  0  0  0  0  0  0  0  0
  -28.2999  -30.3130   23.1663 C   0  0  0  0  0  0  0  0  0  0  0  0
  -29.9162  -18.7661   23.3750 C   0  0  0  0  0  0  0  0  0  0  0  0
  -23.8737   -8.0656   20.0046 C   0  0  0  0  0  0  0  0  0  0  0  0
  -24.2554   -8.3017   22.3785 C   0  0  0  0  0  0  0  0  0  0  0  0
  -28.4031  -28.9513   23.4469 C   0  0  0  0  0  0  0  0  0  0  0  0
  -21.4397   -6.4421   22.5628 C   0  0  0  0  0  0  0  0  0  0  0  0
  -20.5847   -6.1309   23.6200 C   0  0  0  0  0  0  0  0  0  0  0  0
  -27.6515  -19.8472   24.5936 C   0  0  0  0  0  0  0  0  0  0  0  0
  -26.2122  -28.5966   22.5017 C   0  0  0  0  0  0  0  0  0  0  0  0
  -22.2938   -4.7242   24.5881 C   0  0  0  0  0  0  0  0  0  0  0  0
  -24.5674  -10.1951   20.9107 C   0  0  0  0  0  0  0  0  0  0  0  0
  -28.9186  -20.3247   24.9282 C   0  0  0  0  0  0  0  0  0  0  0  0
  -24.0443  -12.6866   20.7479 C   0  0  0  0  0  0  0  0  0  0  0  0
  -26.3983  -35.7195   26.9988 C   0  0  0  0  0  0  0  0  0  0  0  0
  -27.1455  -30.8293   22.5602 C   0  0  0  0  0  0  0  0  0  0  0  0
  -26.1558  -34.4034   26.5612 C   0  0  0  0  0  0  0  0  0  0  0  0
  -26.0979  -29.9648   22.2122 C   0  0  0  0  0  0  0  0  0  0  0  0
  -28.6490  -18.2886   23.0403 C   0  0  0  0  0  0  0  0  0  0  0  0
  -23.8969   -7.5132   21.2852 C   0  0  0  0  0  0  0  0  0  0  0  0
  -27.3581  -28.0933   23.1172 C   0  0  0  0  0  0  0  0  0  0  0  0
  -22.7218   -5.8942   22.5182 C   0  0  0  0  0  0  0  0  0  0  0  0
  -27.5166  -18.8292   23.6496 C   0  0  0  0  0  0  0  0  0  0  0  0
  -21.0117   -5.2720   24.6327 C   0  0  0  0  0  0  0  0  0  0  0  0
  -23.1488   -5.0353   23.5309 C   0  0  0  0  0  0  0  0  0  0  0  0
  -24.9143  -11.5803   20.7178 C   0  0  0  0  0  0  0  0  0  0  0  0
  -24.8564  -13.7686   20.5106 C   0  0  0  0  0  0  0  0  0  0  0  0
  -29.0622  -21.4088   25.9338 C   0  0  0  0  0  0  0  0  0  0  0  0
  -22.6287  -12.7323   20.9706 C   0  0  0  0  0  0  0  0  0  0  0  0
  -24.9179  -32.9333   23.4054 C   0  0  0  0  0  0  0  0  0  0  0  0
  -23.8901  -32.4811   20.3622 C   0  0  0  0  0  0  0  0  0  0  0  0
  -23.7720  -30.4609   17.6141 C   0  0  0  0  0  0  0  0  0  0  0  0
  -29.5599  -16.6149   21.3925 C   0  0  0  0  0  0  0  0  0  0  0  0
  -25.4946  -36.8633   26.6117 C   0  0  0  0  0  0  0  0  0  0  0  0
  -27.0608  -32.2965   22.2399 C   0  0  0  0  0  0  0  0  0  0  0  0
  -24.8457  -30.4660   21.5417 C   0  0  0  0  0  0  0  0  0  0  0  0
  -24.6110  -36.5598   25.4045 C   0  0  0  0  0  0  0  0  0  0  0  0
  -29.6766  -13.9967   18.9824 C   0  0  0  0  0  0  0  0  0  0  0  0
  -23.9632  -35.1864   25.5489 C   0  0  0  0  0  0  0  0  0  0  0  0
  -28.3765  -13.2257   19.2215 C   0  0  0  0  0  0  0  0  0  0  0  0
  -30.2809  -14.5085   20.2888 C   0  0  0  0  0  0  0  0  0  0  0  0
  -28.0672  -14.5205   21.3698 C   0  0  0  0  0  0  0  0  0  0  0  0
  -25.0233  -34.0801   25.6110 C   0  0  1  0  0  0  0  0  0  0  0  0
  -25.6263  -32.7930   22.0878 C   0  0  1  0  0  0  0  0  0  0  0  0
  -27.3870  -14.0409   20.0771 C   0  0  2  0  0  0  0  0  0  0  0  0
  -22.8255  -30.3461   15.2928 C   0  0  0  0  0  0  0  0  0  0  0  0
  -21.1375  -31.8512   21.5182 C   0  0  0  0  0  0  0  0  0  0  0  0
  -20.5184  -30.8429   19.3118 C   0  0  0  0  0  0  0  0  0  0  0  0
  -21.1040  -33.2636   19.4546 C   0  0  0  0  0  0  0  0  0  0  0  0
  -26.4657  -30.2995   16.3988 C   0  0  0  0  0  0  0  0  0  0  0  0
  -25.7607  -17.2942   24.1148 C   0  0  0  0  0  0  0  0  0  0  0  0
  -28.5150  -24.6616   26.3404 C   0  0  0  0  0  0  0  0  0  0  0  0
  -27.7116  -25.0891   25.1117 C   0  0  0  0  0  0  0  0  0  0  0  0
  -27.9771  -23.3826   26.9743 C   0  0  0  0  0  0  0  0  0  0  0  0
  -28.2424  -26.3893   24.5209 C   0  0  0  0  0  0  0  0  0  1  0  0
  -22.9301  -31.5308   19.6880 C   0  0  1  0  0  0  0  0  0  0  0  0
  -24.0212  -30.7447   16.1438 C   0  0  2  0  0  0  0  0  0  0  0  0
  -21.4452  -31.8627   20.0076 C   0  0  0  0  0  0  0  0  0  0  0  0
  -26.1819  -11.9274   20.4799 N   0  0  0  0  0  0  0  0  0  0  0  0
  -26.1144  -13.2641   20.3583 N   0  0  0  0  0  0  0  0  0  0  0  0
  -24.8077  -31.9095   21.2549 N   0  0  0  0  0  0  0  0  0  0  0  0
  -29.2876  -15.2751   21.0440 N   0  0  0  0  0  0  0  0  0  0  0  0
  -24.6100  -15.0927   20.4192 N   0  0  0  0  0  0  0  0  0  0  0  0
  -21.9491  -11.5279   21.1989 N   0  0  0  0  0  0  0  0  0  0  0  0
  -28.5286  -17.2527   22.0811 N   0  0  0  0  0  0  0  0  0  0  0  0
  -27.9799  -22.2716   26.0626 N   0  0  0  0  0  0  0  0  0  0  0  0
  -25.5372  -33.7977   24.2879 N   0  0  0  0  0  0  0  0  0  0  0  0
  -23.2566  -31.5610   18.2664 N   0  0  0  0  0  0  0  0  0  0  0  0
  -25.2123  -29.9879   15.6648 N   0  3  0  0  0  0  0  0  0  0  0  0
  -30.1082  -21.5015   26.5709 O   0  0  0  0  0  0  0  0  0  0  0  0
  -21.9828  -13.8074   20.9509 O   0  0  0  0  0  0  0  0  0  0  0  0
  -23.8850  -32.3051   23.6060 O   0  0  0  0  0  0  0  0  0  0  0  0
  -23.8326  -33.6852   20.1007 O   0  0  0  0  0  0  0  0  0  0  0  0
  -24.0072  -29.3711   18.1313 O   0  0  0  0  0  0  0  0  0  0  0  0
  -30.6184  -17.1650   21.0777 O   0  0  0  0  0  0  0  0  0  0  0  0
  -23.5697   -6.2048   21.4683 O   0  0  0  0  0  0  0  0  0  0  0  0
  -26.2694  -18.3764   23.3380 O   0  0  0  0  0  0  0  0  0  0  0  0
  -27.4560  -26.7638   23.3905 O   0  0  0  0  0  0  0  0  0  1  0  0
  -20.1911   -4.9745   25.6487 F   0  0  0  0  0  0  0  0  0  0  0  0
  -24.3797   -4.5069   23.4941 F   0  0  0  0  0  0  0  0  0  0  0  0
  1  2  1  0  0  0  0
  1  6  2  0  0  0  0
  2  7  2  0  0  0  0
  3 10  2  0  0  0  0
  3 18  1  0  0  0  0
  4 11  1  0  0  0  0
  4 18  2  0  0  0  0
  5  9  2  0  0  0  0
  5 19  1  0  0  0  0
  6 21  1  0  0  0  0
  7 23  1  0  0  0  0
  8 12  2  0  0  0  0
  8 22  1  0  0  0  0
  9 25  1  0  0  0  0
 10 26  1  0  0  0  0
 11 26  2  0  0  0  0
 12 27  1  0  0  0  0
 13 14  2  0  0  0  0
 13 28  1  0  0  0  0
 14 30  1  0  0  0  0
 15 19  2  0  0  0  0
 15 29  1  0  0  0  0
 16 24  1  0  0  0  0
 16 27  2  0  0  0  0
 17 30  2  0  0  0  0
 17 31  1  0  0  0  0
 18 32  1  0  0  0  0
 19 34  1  0  0  0  0
 20 32  1  0  0  0  0
 20 33  2  0  0  0  0
 20 35  1  0  0  0  0
 21 23  2  0  0  0  0
 21 40  1  0  0  0  0
 22 24  2  0  0  0  0
 22 41  1  0  0  0  0
 23 49  1  0  0  0  0
 24 42  1  0  0  0  0
 25 29  2  0  0  0  0
 25 71  1  0  0  0  0
 26 82  1  0  0  0  0
 27 84  1  0  0  0  0
 28 31  2  0  0  0  0
 28 82  1  0  0  0  0
 29 83  1  0  0  0  0
 30 85  1  0  0  0  0
 31 86  1  0  0  0  0
 32 65  2  0  0  0  0
 33 66  1  0  0  0  0
 33 69  1  0  0  0  0
 34 72  1  0  0  0  0
 34 76  2  0  0  0  0
 35 70  1  0  0  0  0
 35 77  2  0  0  0  0
 36 50  1  0  0  0  0
 36 73  1  0  0  0  0
 36 78  2  0  0  0  0
 37 62  1  0  0  0  0
 37 67  1  0  0  0  0
 37 79  2  0  0  0  0
 38 63  1  0  0  0  0
 38 74  1  0  0  0  0
 38 80  2  0  0  0  0
 39 68  1  0  0  0  0
 39 71  1  0  0  0  0
 39 81  2  0  0  0  0
 40 43  1  0  0  0  0
 41 50  1  0  0  0  0
 42 67  1  0  0  0  0
 43 45  1  0  0  0  0
 44 46  1  0  0  0  0
 44 47  1  0  0  0  0
 45 49  1  0  0  0  0
 46 51  1  0  0  0  0
 47 68  1  0  0  0  0
 48 51  1  0  0  0  0
 48 68  1  0  0  0  0
 49 73  1  0  0  0  0
 50 67  1  0  0  0  0
 51 66  1  0  0  0  0
 52 63  1  0  0  0  0
 53 64  1  0  0  0  0
 54 64  1  0  0  0  0
 55 64  1  0  0  0  0
 56 75  1  0  0  0  0
 57 83  1  0  0  0  0
 58 59  1  0  0  0  0
 58 60  1  0  0  0  0
 59 61  1  0  0  0  0
 60 72  1  0  0  0  0
 61 84  1  0  0  0  0
 62 64  1  0  0  0  0
 62 74  1  0  0  0  0
 63 75  1  0  0  0  0
 65 66  1  0  0  0  0
M  CHG  1  75   1
M  ISO  4  39 100  61 101  71 100  84 101
M  END
> <Batch ID>
0009

> <Smiles>
CNC(C)C(=O)NC(C(=O)N1Cc2cc([101O:1][101CH2:1]CCCNC(=O)c3ccc([100NH:0][100C:0](=O)N4CCCC(n5nc(-c6ccc(Oc7ccc(F)cc7F)cc6)c(C(N)=O)c5N)C4)c(OC)c3)ccc2CC1C(=O)NC1CCCc2ccccc21)C(C)(C)C

> <Shape>
0.228

> <Color>
0.133

> <Negative vol penalty>
0.000

$$$$

  -OEChem-04052315383D

 81 89  0     1  0  0  0  0  0999 V2000
  -31.8150  -33.9272   23.9279 C   0  0  0  0  0  0  0  0  0  0  0  0
  -31.5391  -32.8345   23.1123 C   0  0  0  0  0  0  0  0  0  0  0  0
  -27.0500  -10.8914   21.5132 C   0  0  0  0  0  0  0  0  0  0  0  0
  -25.9071  -11.5920   19.5032 C   0  0  0  0  0  0  0  0  0  0  0  0
  -30.9921  -34.2075   25.0179 C   0  0  0  0  0  0  0  0  0  0  0  0
  -30.4406  -32.0207   23.3869 C   0  0  0  0  0  0  0  0  0  0  0  0
  -26.8579  -29.1749   19.3161 C   0  0  0  0  0  0  0  0  0  0  0  0
  -25.9452  -10.1194   21.8723 C   0  0  0  0  0  0  0  0  0  0  0  0
  -24.8023  -10.8199   19.8623 C   0  0  0  0  0  0  0  0  0  0  0  0
  -26.8369  -27.8651   18.8391 C   0  0  0  0  0  0  0  0  0  0  0  0
  -25.6201  -21.3151   16.3631 C   0  0  0  0  0  0  0  0  0  0  0  0
  -22.1757  -11.0614   21.9774 C   0  0  0  0  0  0  0  0  0  0  0  0
  -25.8037  -20.0113   15.9027 C   0  0  0  0  0  0  0  0  0  0  0  0
  -20.9124  -11.6384   21.8485 C   0  0  0  0  0  0  0  0  0  0  0  0
  -25.1328  -27.3106   20.4540 C   0  0  0  0  0  0  0  0  0  0  0  0
  -27.1565  -20.8903   18.1787 C   0  0  0  0  0  0  0  0  0  0  0  0
  -20.2751   -9.8973   20.2995 C   0  0  0  0  0  0  0  0  0  0  0  0
  -27.0310  -11.6277   20.3286 C   0  0  0  0  0  0  0  0  0  0  0  0
  -29.2781  -12.0208   19.1869 C   0  0  0  0  0  0  0  0  0  0  0  0
  -29.8774  -33.4024   25.3004 C   0  0  0  0  0  0  0  0  0  0  0  0
  -26.0228  -29.5604   20.3747 C   0  0  0  0  0  0  0  0  0  0  0  0
  -29.6027  -32.2897   24.4825 C   0  0  0  0  0  0  0  0  0  0  0  0
  -25.1432  -28.6266   20.9409 C   0  0  0  0  0  0  0  0  0  0  0  0
  -27.3401  -19.5865   17.7182 C   0  0  0  0  0  0  0  0  0  0  0  0
  -24.8214  -10.0836   21.0469 C   0  0  0  0  0  0  0  0  0  0  0  0
  -25.9764  -26.9319   19.4099 C   0  0  0  0  0  0  0  0  0  0  0  0
  -26.2965  -21.7546   17.5011 C   0  0  0  0  0  0  0  0  0  0  0  0
  -22.4888   -9.9023   21.2672 C   0  0  0  0  0  0  0  0  0  0  0  0
  -19.9621  -11.0564   21.0096 C   0  0  0  0  0  0  0  0  0  0  0  0
  -26.6637  -19.1470   16.5802 C   0  0  0  0  0  0  0  0  0  0  0  0
  -21.5385   -9.3203   20.4283 C   0  0  0  0  0  0  0  0  0  0  0  0
  -28.1717  -12.4259   19.9574 C   0  0  0  0  0  0  0  0  0  0  0  0
  -30.0769  -13.1361   19.1204 C   0  0  0  0  0  0  0  0  0  0  0  0
  -29.5586  -10.7501   18.5850 C   0  0  0  0  0  0  0  0  0  0  0  0
  -26.4962  -30.6628   23.3182 C   0  0  0  0  0  0  0  0  0  0  0  0
  -23.2685  -30.9846   23.2975 C   0  0  0  0  0  0  0  0  0  0  0  0
  -20.2671  -30.0009   22.0049 C   0  0  0  0  0  0  0  0  0  0  0  0
  -28.9589  -18.9900   19.5539 C   0  0  0  0  0  0  0  0  0  0  0  0
  -29.0442  -33.7172   26.5175 C   0  0  0  0  0  0  0  0  0  0  0  0
  -26.0382  -30.9840   20.8599 C   0  0  0  0  0  0  0  0  0  0  0  0
  -24.2122  -28.9951   22.0659 C   0  0  0  0  0  0  0  0  0  0  0  0
  -27.6837  -33.0250   26.5200 C   0  0  0  0  0  0  0  0  0  0  0  0
  -31.1945  -17.0937   21.5747 C   0  0  0  0  0  0  0  0  0  0  0  0
  -27.8327  -31.5535   26.1471 C   0  0  0  0  0  0  0  0  0  0  0  0
  -30.7777  -15.6443   21.3145 C   0  0  0  0  0  0  0  0  0  0  0  0
  -29.9906  -18.0337   21.6024 C   0  0  0  0  0  0  0  0  0  0  0  0
  -28.6974  -16.5056   20.1665 C   0  0  0  0  0  0  0  0  0  0  0  0
  -28.4061  -31.3979   24.7334 C   0  0  1  0  0  0  0  0  0  0  0  0
  -25.5136  -31.1354   22.2844 C   0  0  1  0  0  0  0  0  0  0  0  0
  -29.8822  -15.5311   20.0651 C   0  0  2  0  0  0  0  0  0  0  0  0
  -17.8011  -30.4168   22.2134 C   0  0  0  0  0  0  0  0  0  0  0  0
  -23.2152  -29.3597   25.8796 C   0  0  0  0  0  0  0  0  0  0  0  0
  -20.7632  -29.0023   25.5220 C   0  0  0  0  0  0  0  0  0  0  0  0
  -21.6515  -31.3111   25.8425 C   0  0  0  0  0  0  0  0  0  0  0  0
  -20.0647  -30.9076   19.1949 C   0  0  0  0  0  0  0  0  0  0  0  0
  -27.1702  -25.1365   18.4062 C   0  0  0  0  0  0  0  0  0  1  0  0
  -27.2138  -23.6371   18.6283 C   0  0  0  0  0  0  0  0  0  0  0  0
  -22.1035  -30.0997   23.6699 C   0  0  1  0  0  0  0  0  0  0  0  0
  -19.0827  -30.7981   21.4889 C   0  0  2  0  0  0  0  0  0  0  0  0
  -21.9522  -29.9354   25.2086 C   0  0  0  0  0  0  0  0  0  0  0  0
  -28.2566  -13.6990   20.3522 N   0  0  0  0  0  0  0  0  0  0  0  0
  -29.4260  -14.1036   19.8278 N   0  0  0  0  0  0  0  0  0  0  0  0
  -24.2689  -30.3977   22.5097 N   0  0  0  0  0  0  0  0  0  0  0  0
  -29.1912  -17.8742   20.3857 N   0  0  0  0  0  0  0  0  0  0  0  0
  -31.2657  -13.3738   18.5265 N   0  0  0  0  0  0  0  0  0  0  0  0
  -28.6311   -9.7126   18.7516 N   0  0  0  0  0  0  0  0  0  0  0  0
  -28.2136  -18.7104   18.4090 N   0  0  0  0  0  0  0  0  0  0  0  0
  -27.3791  -31.6375   23.7422 N   0  0  0  0  0  0  0  0  0  0  0  0
  -20.9322  -30.6682   23.0116 N   0  0  0  0  0  0  0  0  0  0  0  0
  -18.8892  -30.5537   20.0316 N   0  3  0  0  0  0  0  0  0  0  0  0
  -30.6086  -10.5361   17.9330 O   0  0  0  0  0  0  0  0  0  0  0  0
  -26.4554  -29.5003   23.7037 O   0  0  0  0  0  0  0  0  0  0  0  0
  -23.2866  -32.1555   23.6851 O   0  0  0  0  0  0  0  0  0  0  0  0
  -20.5695  -28.8951   21.5619 O   0  0  0  0  0  0  0  0  0  0  0  0
  -29.4125  -20.1053   19.8226 O   0  0  0  0  0  0  0  0  0  0  0  0
  -23.7432   -9.3302   21.3969 O   0  0  0  0  0  0  0  0  0  0  0  0
  -25.9545  -25.6525   18.9467 O   0  0  0  0  0  0  0  0  0  1  0  0
  -26.1159  -23.0353   17.9532 O   0  0  0  0  0  0  0  0  0  0  0  0
  -18.7484  -11.6098   20.8872 F   0  0  0  0  0  0  0  0  0  0  0  0
  -26.8320  -17.8958   16.1289 F   0  0  0  0  0  0  0  0  0  0  0  0
  -21.8330   -8.2061   19.7445 F   0  0  0  0  0  0  0  0  0  0  0  0
  1  2  1  0  0  0  0
  1  5  2  0  0  0  0
  2  6  2  0  0  0  0
  3  8  2  0  0  0  0
  3 18  1  0  0  0  0
  4  9  1  0  0  0  0
  4 18  2  0  0  0  0
  5 20  1  0  0  0  0
  6 22  1  0  0  0  0
  7 10  2  0  0  0  0
  7 21  1  0  0  0  0
  8 25  1  0  0  0  0
  9 25  2  0  0  0  0
 10 26  1  0  0  0  0
 11 13  2  0  0  0  0
 11 27  1  0  0  0  0
 12 14  2  0  0  0  0
 12 28  1  0  0  0  0
 13 30  1  0  0  0  0
 14 29  1  0  0  0  0
 15 23  1  0  0  0  0
 15 26  2  0  0  0  0
 16 24  1  0  0  0  0
 16 27  2  0  0  0  0
 17 29  2  0  0  0  0
 17 31  1  0  0  0  0
 18 32  1  0  0  0  0
 19 32  1  0  0  0  0
 19 33  2  0  0  0  0
 19 34  1  0  0  0  0
 20 22  2  0  0  0  0
 20 39  1  0  0  0  0
 21 23  2  0  0  0  0
 21 40  1  0  0  0  0
 22 48  1  0  0  0  0
 23 41  1  0  0  0  0
 24 30  2  0  0  0  0
 24 67  1  0  0  0  0
 25 76  1  0  0  0  0
 26 77  1  0  0  0  0
 27 78  1  0  0  0  0
 28 31  2  0  0  0  0
 28 76  1  0  0  0  0
 29 79  1  0  0  0  0
 30 80  1  0  0  0  0
 31 81  1  0  0  0  0
 32 61  2  0  0  0  0
 33 62  1  0  0  0  0
 33 65  1  0  0  0  0
 34 66  1  0  0  0  0
 34 71  2  0  0  0  0
 35 49  1  0  0  0  0
 35 68  1  0  0  0  0
 35 72  2  0  0  0  0
 36 58  1  0  0  0  0
 36 63  1  0  0  0  0
 36 73  2  0  0  0  0
 37 59  1  0  0  0  0
 37 69  1  0  0  0  0
 37 74  2  0  0  0  0
 38 64  1  0  0  0  0
 38 67  1  0  0  0  0
 38 75  2  0  0  0  0
 39 42  1  0  0  0  0
 40 49  1  0  0  0  0
 41 63  1  0  0  0  0
 42 44  1  0  0  0  0
 43 45  1  0  0  0  0
 43 46  1  0  0  0  0
 44 48  1  0  0  0  0
 45 50  1  0  0  0  0
 46 64  1  0  0  0  0
 47 50  1  0  0  0  0
 47 64  1  0  0  0  0
 48 68  1  0  0  0  0
 49 63  1  0  0  0  0
 50 62  1  0  0  0  0
 51 59  1  0  0  0  0
 52 60  1  0  0  0  0
 53 60  1  0  0  0  0
 54 60  1  0  0  0  0
 55 70  1  0  0  0  0
 56 57  1  0  0  0  0
 56 77  1  0  0  0  0
 57 78  1  0  0  0  0
 58 60  1  0  0  0  0
 58 69  1  0  0  0  0
 59 70  1  0  0  0  0
 61 62  1  0  0  0  0
M  CHG  1  70   1
M  ISO  4  38 100  56 101  67 100  77 101
M  END
> <Batch ID>
0009

> <Smiles>
CNC(C)C(=O)NC(C(=O)N1Cc2cc([101O:1][101CH2:1]COc3ccc(F)c([100NH:0][100C:0](=O)N4CCCC(n5nc(-c6ccc(Oc7ccc(F)cc7F)cc6)c(C(N)=O)c5N)C4)c3)ccc2CC1C(=O)NC1CCCc2ccccc21)C(C)(C)C

> <Shape>
0.268

> <Color>
0.087

> <Negative vol penalty>
0.000

$$$$

  -OEChem-04052315383D

 85 93  0     1  0  0  0  0  0999 V2000
  -23.6351  -30.8047   20.2921 C   0  0  0  0  0  0  0  0  0  0  0  0
  -23.7982  -29.4302   20.4316 C   0  0  0  0  0  0  0  0  0  0  0  0
  -22.9671   -9.8606   20.0459 C   0  0  0  0  0  0  0  0  0  0  0  0
  -23.6148  -10.0622   22.3647 C   0  0  0  0  0  0  0  0  0  0  0  0
  -24.3852  -31.6779   21.0787 C   0  0  0  0  0  0  0  0  0  0  0  0
  -24.7122  -28.9280   21.3572 C   0  0  0  0  0  0  0  0  0  0  0  0
  -24.1650  -23.8015   24.6626 C   0  0  0  0  0  0  0  0  0  0  0  0
  -22.1719   -8.7597   20.3638 C   0  0  0  0  0  0  0  0  0  0  0  0
  -22.8195   -8.9613   22.6826 C   0  0  0  0  0  0  0  0  0  0  0  0
  -24.6791  -22.5167   24.4929 C   0  0  0  0  0  0  0  0  0  0  0  0
  -23.0198   -5.5941   22.4536 C   0  0  0  0  0  0  0  0  0  0  0  0
  -23.5633   -4.6233   23.2949 C   0  0  0  0  0  0  0  0  0  0  0  0
  -26.5061  -23.0589   25.9718 C   0  0  0  0  0  0  0  0  0  0  0  0
  -31.8199  -18.4457   23.9436 C   0  0  0  0  0  0  0  0  0  0  0  0
  -32.0494  -16.5422   22.4736 C   0  0  0  0  0  0  0  0  0  0  0  0
  -29.8703  -17.5078   22.8683 C   0  0  0  0  0  0  0  0  0  0  0  0
  -21.7884   -5.0101   24.8878 C   0  0  0  0  0  0  0  0  0  0  0  0
  -23.6887  -10.5119   21.0464 C   0  0  0  0  0  0  0  0  0  0  0  0
  -24.1247  -13.0026   20.7089 C   0  0  0  0  0  0  0  0  0  0  0  0
  -25.3019  -31.1861   22.0213 C   0  0  0  0  0  0  0  0  0  0  0  0
  -24.8247  -24.7297   25.4809 C   0  0  0  0  0  0  0  0  0  0  0  0
  -25.4762  -29.7955   22.1563 C   0  0  0  0  0  0  0  0  0  0  0  0
  -25.9970  -24.3540   26.1523 C   0  0  0  0  0  0  0  0  0  0  0  0
  -32.6228  -17.4893   23.3221 C   0  0  0  0  0  0  0  0  0  0  0  0
  -30.4436  -18.4549   23.7168 C   0  0  0  0  0  0  0  0  0  0  0  0
  -30.6731  -16.5514   22.2467 C   0  0  0  0  0  0  0  0  0  0  0  0
  -22.0980   -8.3100   21.6821 C   0  0  0  0  0  0  0  0  0  0  0  0
  -25.8513  -22.1461   25.1453 C   0  0  0  0  0  0  0  0  0  0  0  0
  -21.8607   -6.2729   22.8294 C   0  0  0  0  0  0  0  0  0  0  0  0
  -22.9476   -4.3313   24.5120 C   0  0  0  0  0  0  0  0  0  0  0  0
  -21.2450   -5.9809   24.0465 C   0  0  0  0  0  0  0  0  0  0  0  0
  -24.5108  -11.6488   20.7186 C   0  0  0  0  0  0  0  0  0  0  0  0
  -25.2589  -13.6805   20.3341 C   0  0  0  0  0  0  0  0  0  0  0  0
  -22.8544  -13.5944   21.0119 C   0  0  0  0  0  0  0  0  0  0  0  0
  -26.1892  -27.5620   25.0122 C   0  0  0  0  0  0  0  0  0  0  0  0
  -26.4814  -27.5201   28.2426 C   0  0  0  0  0  0  0  0  0  0  0  0
  -28.2518  -19.5779   24.2352 C   0  0  0  0  0  0  0  0  0  0  0  0
  -26.6600  -25.6810   31.1118 C   0  0  0  0  0  0  0  0  0  0  0  0
  -30.7437  -14.5706   20.6918 C   0  0  0  0  0  0  0  0  0  0  0  0
  -26.1244  -32.1695   22.8157 C   0  0  0  0  0  0  0  0  0  0  0  0
  -24.2428  -26.1031   25.6747 C   0  0  0  0  0  0  0  0  0  0  0  0
  -26.7322  -25.3067   27.0580 C   0  0  0  0  0  0  0  0  0  0  0  0
  -26.8003  -31.5517   24.0370 C   0  0  0  0  0  0  0  0  0  0  0  0
  -29.6609  -11.9778   18.5050 C   0  0  0  0  0  0  0  0  0  0  0  0
  -27.4700  -30.2323   23.6662 C   0  0  0  0  0  0  0  0  0  0  0  0
  -28.1928  -11.7725   18.8851 C   0  0  0  0  0  0  0  0  0  0  0  0
  -30.5242  -12.2917   19.7256 C   0  0  0  0  0  0  0  0  0  0  0  0
  -28.5794  -13.2020   20.9331 C   0  0  0  0  0  0  0  0  0  0  0  0
  -26.4399  -29.2120   23.1668 C   0  0  1  0  0  0  0  0  0  0  0  0
  -25.2757  -27.1316   26.1248 C   0  0  1  0  0  0  0  0  0  0  0  0
  -27.6592  -12.9474   19.7280 C   0  0  2  0  0  0  0  0  0  0  0  0
  -26.9365  -25.9250   33.5940 C   0  0  0  0  0  0  0  0  0  0  0  0
  -29.4587  -28.0637   27.8551 C   0  0  0  0  0  0  0  0  0  0  0  0
  -29.8251  -27.3596   30.2296 C   0  0  0  0  0  0  0  0  0  0  0  0
  -28.3993  -29.3432   29.7246 C   0  0  0  0  0  0  0  0  0  0  0  0
  -24.0286  -24.4357   31.6442 C   0  0  0  0  0  0  0  0  0  0  0  0
  -27.7715  -20.7446   25.0783 C   0  0  0  0  0  0  0  0  0  1  0  0
  -27.5249  -27.0263   29.2153 C   0  0  1  0  0  0  0  0  0  0  0  0
  -25.9465  -25.8214   32.4443 C   0  0  2  0  0  0  0  0  0  0  0  0
  -34.0943  -17.4790   23.5661 C   0  0  0  0  0  0  0  0  0  0  0  0
  -28.7895  -27.9306   29.2377 C   0  0  0  0  0  0  0  0  0  0  0  0
  -25.7903  -11.4751   20.3768 N   0  0  0  0  0  0  0  0  0  0  0  0
  -26.2180  -12.7286   20.1488 N   0  0  0  0  0  0  0  0  0  0  0  0
  -26.1269  -26.6401   27.2102 N   0  0  0  0  0  0  0  0  0  0  0  0
  -29.9601  -13.4178   20.4729 N   0  0  0  0  0  0  0  0  0  0  0  0
  -25.5194  -14.9919   20.1480 N   0  0  0  0  0  0  0  0  0  0  0  0
  -21.7959  -12.7527   21.3799 N   0  0  0  0  0  0  0  0  0  0  0  0
  -29.6295  -19.4253   24.3477 N   0  0  0  0  0  0  0  0  0  0  0  0
  -30.0905  -15.5885   21.3859 N   0  0  0  0  0  0  0  0  0  0  0  0
  -25.7181  -28.6357   24.2810 N   0  0  0  0  0  0  0  0  0  0  0  0
  -26.8549  -26.9040   30.5055 N   0  0  0  0  0  0  0  0  0  0  0  0
  -25.0660  -24.6438   32.6870 N   0  3  0  0  0  0  0  0  0  0  0  0
  -22.6592  -14.8315   20.9418 O   0  0  0  0  0  0  0  0  0  0  0  0
  -27.2441  -26.9652   24.8316 O   0  0  0  0  0  0  0  0  0  0  0  0
  -25.9935  -28.6424   28.3973 O   0  0  0  0  0  0  0  0  0  0  0  0
  -27.4736  -18.9036   23.5687 O   0  0  0  0  0  0  0  0  0  0  0  0
  -27.0129  -24.5954   30.6563 O   0  0  0  0  0  0  0  0  0  0  0  0
  -31.8994  -14.6596   20.2693 O   0  0  0  0  0  0  0  0  0  0  0  0
  -21.3219   -7.2359   21.9927 O   0  0  0  0  0  0  0  0  0  0  0  0
  -26.3556  -20.8929   24.9809 O   0  0  0  0  0  0  0  0  0  1  0  0
  -23.4688   -3.3979   25.3191 F   0  0  0  0  0  0  0  0  0  0  0  0
  -20.1305   -6.6290   24.4124 F   0  0  0  0  0  0  0  0  0  0  0  0
  -34.5148  -18.4608   24.4174 F   0  0  0  0  0  0  0  0  0  0  0  0
  -34.5493  -16.3136   24.1140 F   0  0  0  0  0  0  0  0  0  0  0  0
  -34.8173  -17.6524   22.4216 F   0  0  0  0  0  0  0  0  0  0  0  0
  1  2  1  0  0  0  0
  1  5  2  0  0  0  0
  2  6  2  0  0  0  0
  3  8  2  0  0  0  0
  3 18  1  0  0  0  0
  4  9  1  0  0  0  0
  4 18  2  0  0  0  0
  5 20  1  0  0  0  0
  6 22  1  0  0  0  0
  7 10  2  0  0  0  0
  7 21  1  0  0  0  0
  8 27  1  0  0  0  0
  9 27  2  0  0  0  0
 10 28  1  0  0  0  0
 11 12  2  0  0  0  0
 11 29  1  0  0  0  0
 12 30  1  0  0  0  0
 13 23  1  0  0  0  0
 13 28  2  0  0  0  0
 14 24  1  0  0  0  0
 14 25  2  0  0  0  0
 15 24  2  0  0  0  0
 15 26  1  0  0  0  0
 16 25  1  0  0  0  0
 16 26  2  0  0  0  0
 17 30  2  0  0  0  0
 17 31  1  0  0  0  0
 18 32  1  0  0  0  0
 19 32  1  0  0  0  0
 19 33  2  0  0  0  0
 19 34  1  0  0  0  0
 20 22  2  0  0  0  0
 20 40  1  0  0  0  0
 21 23  2  0  0  0  0
 21 41  1  0  0  0  0
 22 49  1  0  0  0  0
 23 42  1  0  0  0  0
 24 60  1  0  0  0  0
 25 68  1  0  0  0  0
 26 69  1  0  0  0  0
 27 79  1  0  0  0  0
 28 80  1  0  0  0  0
 29 31  2  0  0  0  0
 29 79  1  0  0  0  0
 30 81  1  0  0  0  0
 31 82  1  0  0  0  0
 32 62  2  0  0  0  0
 33 63  1  0  0  0  0
 33 66  1  0  0  0  0
 34 67  1  0  0  0  0
 34 73  2  0  0  0  0
 35 50  1  0  0  0  0
 35 70  1  0  0  0  0
 35 74  2  0  0  0  0
 36 58  1  0  0  0  0
 36 64  1  0  0  0  0
 36 75  2  0  0  0  0
 37 57  1  0  0  0  0
 37 68  1  0  0  0  0
 37 76  2  0  0  0  0
 38 59  1  0  0  0  0
 38 71  1  0  0  0  0
 38 77  2  0  0  0  0
 39 65  1  0  0  0  0
 39 69  1  0  0  0  0
 39 78  2  0  0  0  0
 40 43  1  0  0  0  0
 41 50  1  0  0  0  0
 42 64  1  0  0  0  0
 43 45  1  0  0  0  0
 44 46  1  0  0  0  0
 44 47  1  0  0  0  0
 45 49  1  0  0  0  0
 46 51  1  0  0  0  0
 47 65  1  0  0  0  0
 48 51  1  0  0  0  0
 48 65  1  0  0  0  0
 49 70  1  0  0  0  0
 50 64  1  0  0  0  0
 51 63  1  0  0  0  0
 52 59  1  0  0  0  0
 53 61  1  0  0  0  0
 54 61  1  0  0  0  0
 55 61  1  0  0  0  0
 56 72  1  0  0  0  0
 57 80  1  0  0  0  0
 58 61  1  0  0  0  0
 58 71  1  0  0  0  0
 59 72  1  0  0  0  0
 60 83  1  0  0  0  0
 60 84  1  0  0  0  0
 60 85  1  0  0  0  0
 62 63  1  0  0  0  0
M  CHG  1  72   1
M  ISO  4  39 100  57 101  69 100  80 101
M  END
> <Batch ID>
0009

> <Smiles>
CNC(C)C(=O)NC(C(=O)N1Cc2cc([101O:1][101CH2:1]C(=O)Nc3cc([100NH:0][100C:0](=O)N4CCCC(n5nc(-c6ccc(Oc7ccc(F)cc7F)cc6)c(C(N)=O)c5N)C4)cc(C(F)(F)F)c3)ccc2CC1C(=O)NC1CCCc2ccccc21)C(C)(C)C

> <Shape>
0.236

> <Color>
0.213

> <Negative vol penalty>
0.000

$$$$

  -OEChem-04052315383D

 83 91  0     1  0  0  0  0  0999 V2000
  -30.8402  -31.8042   24.9253 C   0  0  0  0  0  0  0  0  0  0  0  0
  -30.3471  -30.6731   24.2827 C   0  0  0  0  0  0  0  0  0  0  0  0
  -24.6260   -8.9690   21.3580 C   0  0  0  0  0  0  0  0  0  0  0  0
  -23.3460  -10.8347   22.2054 C   0  0  0  0  0  0  0  0  0  0  0  0
  -29.9675  -32.6580   25.5987 C   0  0  0  0  0  0  0  0  0  0  0  0
  -28.9812  -30.3946   24.3141 C   0  0  0  0  0  0  0  0  0  0  0  0
  -27.1746  -29.0189   19.7876 C   0  0  0  0  0  0  0  0  0  0  0  0
  -28.2109  -19.0664   20.3086 C   0  0  0  0  0  0  0  0  0  0  0  0
  -27.7786  -20.3797   20.1246 C   0  0  0  0  0  0  0  0  0  0  0  0
  -24.0710   -8.1439   22.3361 C   0  0  0  0  0  0  0  0  0  0  0  0
  -22.7909  -10.0096   23.1835 C   0  0  0  0  0  0  0  0  0  0  0  0
  -27.4244  -27.7115   19.3729 C   0  0  0  0  0  0  0  0  0  0  0  0
  -21.1630   -6.4964   22.8484 C   0  0  0  0  0  0  0  0  0  0  0  0
  -20.7117   -5.2368   22.4542 C   0  0  0  0  0  0  0  0  0  0  0  0
  -25.1947  -27.0796   20.0427 C   0  0  0  0  0  0  0  0  0  0  0  0
  -26.1747  -18.5643   21.5082 C   0  0  0  0  0  0  0  0  0  0  0  0
  -22.2641   -4.2005   23.9882 C   0  0  0  0  0  0  0  0  0  0  0  0
  -24.2636  -10.3144   21.2927 C   0  0  0  0  0  0  0  0  0  0  0  0
  -24.3353  -11.4104   18.9902 C   0  0  0  0  0  0  0  0  0  0  0  0
  -28.5890  -32.3950   25.6302 C   0  0  0  0  0  0  0  0  0  0  0  0
  -25.9347  -29.3646   20.3439 C   0  0  0  0  0  0  0  0  0  0  0  0
  -28.0894  -31.2449   24.9896 C   0  0  0  0  0  0  0  0  0  0  0  0
  -24.9308  -28.3927   20.4612 C   0  0  0  0  0  0  0  0  0  0  0  0
  -27.4089  -18.1587   21.0004 C   0  0  0  0  0  0  0  0  0  0  0  0
  -26.5444  -20.7854   20.6324 C   0  0  0  0  0  0  0  0  0  0  0  0
  -23.1534   -8.6642   23.2489 C   0  0  0  0  0  0  0  0  0  0  0  0
  -26.4354  -26.7409   19.5031 C   0  0  0  0  0  0  0  0  0  0  0  0
  -22.1649   -6.6080   23.8124 C   0  0  0  0  0  0  0  0  0  0  0  0
  -25.7424  -19.8777   21.3242 C   0  0  0  0  0  0  0  0  0  0  0  0
  -21.2622   -4.0889   23.0241 C   0  0  0  0  0  0  0  0  0  0  0  0
  -22.7154   -5.4601   24.3823 C   0  0  0  0  0  0  0  0  0  0  0  0
  -24.8371  -11.1673   20.2829 C   0  0  0  0  0  0  0  0  0  0  0  0
  -25.2360  -12.2835   18.4308 C   0  0  0  0  0  0  0  0  0  0  0  0
  -23.1600  -10.8933   18.3522 C   0  0  0  0  0  0  0  0  0  0  0  0
  -24.9716  -30.4725   23.1633 C   0  0  0  0  0  0  0  0  0  0  0  0
  -22.0980  -30.6602   21.6702 C   0  0  0  0  0  0  0  0  0  0  0  0
  -26.7995  -23.1383   19.7762 C   0  0  0  0  0  0  0  0  0  0  0  0
  -20.0560  -29.5588   19.1674 C   0  0  0  0  0  0  0  0  0  0  0  0
  -29.0458  -16.2604   20.7491 C   0  0  0  0  0  0  0  0  0  0  0  0
  -27.6908  -33.3215   26.4109 C   0  0  0  0  0  0  0  0  0  0  0  0
  -25.6718  -30.7855   20.7617 C   0  0  0  0  0  0  0  0  0  0  0  0
  -23.5759  -28.7171   21.0333 C   0  0  0  0  0  0  0  0  0  0  0  0
  -26.2098  -33.1564   26.0796 C   0  0  0  0  0  0  0  0  0  0  0  0
  -29.8570  -13.5266   18.6170 C   0  0  0  0  0  0  0  0  0  0  0  0
  -25.8286  -31.6796   26.0599 C   0  0  0  0  0  0  0  0  0  0  0  0
  -28.6137  -12.6365   18.6798 C   0  0  0  0  0  0  0  0  0  0  0  0
  -30.1557  -14.1797   19.9654 C   0  0  0  0  0  0  0  0  0  0  0  0
  -27.7879  -14.0202   20.6267 C   0  0  0  0  0  0  0  0  0  0  0  0
  -26.6110  -30.9222   24.9802 C   0  0  1  0  0  0  0  0  0  0  0  0
  -24.5503  -30.9086   21.7885 C   0  0  1  0  0  0  0  0  0  0  0  0
  -27.4094  -13.3918   19.2756 C   0  0  2  0  0  0  0  0  0  0  0  0
  -17.7518  -29.8712   18.2239 C   0  0  0  0  0  0  0  0  0  0  0  0
  -20.9375  -29.0229   23.9686 C   0  0  0  0  0  0  0  0  0  0  0  0
  -18.9337  -28.5658   22.5390 C   0  0  0  0  0  0  0  0  0  0  0  0
  -19.4877  -30.9080   23.1945 C   0  0  0  0  0  0  0  0  0  0  0  0
  -21.1210  -30.4690   16.5604 C   0  0  0  0  0  0  0  0  0  0  0  0
  -24.5204  -20.7681   23.1599 C   0  0  0  0  0  0  0  0  0  0  0  0
  -25.9918  -24.4227   19.7950 C   0  0  0  0  0  0  0  0  0  1  0  0
  -20.9267  -29.7261   21.4844 C   0  0  1  0  0  0  0  0  0  0  0  0
  -19.2068  -30.3086   18.1569 C   0  0  2  0  0  0  0  0  0  0  0  0
  -20.0975  -29.5488   22.7876 C   0  0  0  0  0  0  0  0  0  0  0  0
  -25.9688  -11.8322   20.5301 N   0  0  0  0  0  0  0  0  0  0  0  0
  -26.1857  -12.5015   19.3851 N   0  0  0  0  0  0  0  0  0  0  0  0
  -23.3695  -30.1189   21.4332 N   0  0  0  0  0  0  0  0  0  0  0  0
  -28.9709  -14.8801   20.4660 N   0  0  0  0  0  0  0  0  0  0  0  0
  -25.3003  -12.8782   17.2206 N   0  0  0  0  0  0  0  0  0  0  0  0
  -22.3451  -10.0073   19.0700 N   0  0  0  0  0  0  0  0  0  0  0  0
  -26.1202  -22.1214   20.4384 N   0  0  0  0  0  0  0  0  0  0  0  0
  -27.8485  -16.8248   21.1879 N   0  0  0  0  0  0  0  0  0  0  0  0
  -26.0450  -31.1779   23.6730 N   0  0  0  0  0  0  0  0  0  0  0  0
  -20.1629  -30.2486   20.3565 N   0  0  0  0  0  0  0  0  0  0  0  0
  -19.7082  -30.0630   16.7751 N   0  3  0  0  0  0  0  0  0  0  0  0
  -22.8507  -11.1948   17.1746 O   0  0  0  0  0  0  0  0  0  0  0  0
  -24.3667  -29.5643   23.7209 O   0  0  0  0  0  0  0  0  0  0  0  0
  -21.8919  -31.8291   22.0061 O   0  0  0  0  0  0  0  0  0  0  0  0
  -27.8970  -23.0773   19.2317 O   0  0  0  0  0  0  0  0  0  0  0  0
  -20.5699  -28.4685   18.9273 O   0  0  0  0  0  0  0  0  0  0  0  0
  -30.0878  -16.9006   20.5865 O   0  0  0  0  0  0  0  0  0  0  0  0
  -22.6114   -7.8593   24.2033 O   0  0  0  0  0  0  0  0  0  0  0  0
  -24.5338  -20.2540   21.8300 O   0  0  0  0  0  0  0  0  0  0  0  0
  -26.6767  -25.4638   19.0998 O   0  0  0  0  0  0  0  0  0  1  0  0
  -20.8276   -2.8794   22.6466 F   0  0  0  0  0  0  0  0  0  0  0  0
  -23.6774   -5.5611   25.3098 F   0  0  0  0  0  0  0  0  0  0  0  0
  1  2  1  0  0  0  0
  1  5  2  0  0  0  0
  2  6  2  0  0  0  0
  3 10  2  0  0  0  0
  3 18  1  0  0  0  0
  4 11  1  0  0  0  0
  4 18  2  0  0  0  0
  5 20  1  0  0  0  0
  6 22  1  0  0  0  0
  7 12  2  0  0  0  0
  7 21  1  0  0  0  0
  8  9  2  0  0  0  0
  8 24  1  0  0  0  0
  9 25  1  0  0  0  0
 10 26  1  0  0  0  0
 11 26  2  0  0  0  0
 12 27  1  0  0  0  0
 13 14  2  0  0  0  0
 13 28  1  0  0  0  0
 14 30  1  0  0  0  0
 15 23  1  0  0  0  0
 15 27  2  0  0  0  0
 16 24  2  0  0  0  0
 16 29  1  0  0  0  0
 17 30  2  0  0  0  0
 17 31  1  0  0  0  0
 18 32  1  0  0  0  0
 19 32  1  0  0  0  0
 19 33  2  0  0  0  0
 19 34  1  0  0  0  0
 20 22  2  0  0  0  0
 20 40  1  0  0  0  0
 21 23  2  0  0  0  0
 21 41  1  0  0  0  0
 22 49  1  0  0  0  0
 23 42  1  0  0  0  0
 24 69  1  0  0  0  0
 25 29  2  0  0  0  0
 25 68  1  0  0  0  0
 26 79  1  0  0  0  0
 27 81  1  0  0  0  0
 28 31  2  0  0  0  0
 28 79  1  0  0  0  0
 29 80  1  0  0  0  0
 30 82  1  0  0  0  0
 31 83  1  0  0  0  0
 32 62  2  0  0  0  0
 33 63  1  0  0  0  0
 33 66  1  0  0  0  0
 34 67  1  0  0  0  0
 34 73  2  0  0  0  0
 35 50  1  0  0  0  0
 35 70  1  0  0  0  0
 35 74  2  0  0  0  0
 36 59  1  0  0  0  0
 36 64  1  0  0  0  0
 36 75  2  0  0  0  0
 37 58  1  0  0  0  0
 37 68  1  0  0  0  0
 37 76  2  0  0  0  0
 38 60  1  0  0  0  0
 38 71  1  0  0  0  0
 38 77  2  0  0  0  0
 39 65  1  0  0  0  0
 39 69  1  0  0  0  0
 39 78  2  0  0  0  0
 40 43  1  0  0  0  0
 41 50  1  0  0  0  0
 42 64  1  0  0  0  0
 43 45  1  0  0  0  0
 44 46  1  0  0  0  0
 44 47  1  0  0  0  0
 45 49  1  0  0  0  0
 46 51  1  0  0  0  0
 47 65  1  0  0  0  0
 48 51  1  0  0  0  0
 48 65  1  0  0  0  0
 49 70  1  0  0  0  0
 50 64  1  0  0  0  0
 51 63  1  0  0  0  0
 52 60  1  0  0  0  0
 53 61  1  0  0  0  0
 54 61  1  0  0  0  0
 55 61  1  0  0  0  0
 56 72  1  0  0  0  0
 57 80  1  0  0  0  0
 58 81  1  0  0  0  0
 59 61  1  0  0  0  0
 59 71  1  0  0  0  0
 60 72  1  0  0  0  0
 62 63  1  0  0  0  0
M  CHG  1  72   1
M  ISO  4  39 100  58 101  69 100  81 101
M  END
> <Batch ID>
0009

> <Smiles>
CNC(C)C(=O)NC(C(=O)N1Cc2cc([101O:1][101CH2:1]C(=O)Nc3ccc([100NH:0][100C:0](=O)N4CCCC(n5nc(-c6ccc(Oc7ccc(F)cc7F)cc6)c(C(N)=O)c5N)C4)cc3OC)ccc2CC1C(=O)NC1CCCc2ccccc21)C(C)(C)C

> <Shape>
0.304

> <Color>
0.100

> <Negative vol penalty>
0.000

$$$$

  -OEChem-04052315383D

 81 89  0     1  0  0  0  0  0999 V2000
  -24.5738  -32.0556   29.0851 C   0  0  0  0  0  0  0  0  0  0  0  0
  -25.3302  -31.2090   28.2810 C   0  0  0  0  0  0  0  0  0  0  0  0
  -24.5838   -8.9930   21.5609 C   0  0  0  0  0  0  0  0  0  0  0  0
  -23.9301  -10.7076   23.1324 C   0  0  0  0  0  0  0  0  0  0  0  0
  -23.2505  -32.3371   28.7479 C   0  0  0  0  0  0  0  0  0  0  0  0
  -24.7634  -30.6426   27.1398 C   0  0  0  0  0  0  0  0  0  0  0  0
  -27.5845  -29.4338   21.8402 C   0  0  0  0  0  0  0  0  0  0  0  0
  -26.0332  -20.6131   19.0839 C   0  0  0  0  0  0  0  0  0  0  0  0
  -28.3128  -21.0359   19.7633 C   0  0  0  0  0  0  0  0  0  0  0  0
  -26.2893  -19.2420   19.0780 C   0  0  0  0  0  0  0  0  0  0  0  0
  -28.5689  -19.6648   19.7575 C   0  0  0  0  0  0  0  0  0  0  0  0
  -24.1521   -8.0111   22.4525 C   0  0  0  0  0  0  0  0  0  0  0  0
  -23.4983   -9.7257   24.0241 C   0  0  0  0  0  0  0  0  0  0  0  0
  -28.1273  -28.2632   21.3122 C   0  0  0  0  0  0  0  0  0  0  0  0
  -22.8900   -5.0635   24.1653 C   0  0  0  0  0  0  0  0  0  0  0  0
  -22.1309   -4.0112   23.6535 C   0  0  0  0  0  0  0  0  0  0  0  0
  -26.0782  -27.8657   20.1028 C   0  0  0  0  0  0  0  0  0  0  0  0
  -20.4569   -5.5836   22.9034 C   0  0  0  0  0  0  0  0  0  0  0  0
  -24.4729  -10.3413   21.9008 C   0  0  0  0  0  0  0  0  0  0  0  0
  -24.1598  -11.9867   19.9767 C   0  0  0  0  0  0  0  0  0  0  0  0
  -22.6702  -31.7815   27.5968 C   0  0  0  0  0  0  0  0  0  0  0  0
  -26.2784  -29.8242   21.5115 C   0  0  0  0  0  0  0  0  0  0  0  0
  -23.4307  -30.9159   26.7877 C   0  0  0  0  0  0  0  0  0  0  0  0
  -25.5221  -29.0431   20.6259 C   0  0  0  0  0  0  0  0  0  0  0  0
  -27.0450  -21.5101   19.4265 C   0  0  0  0  0  0  0  0  0  0  0  0
  -27.5571  -18.7678   19.4148 C   0  0  0  0  0  0  0  0  0  0  0  0
  -23.6093   -8.3774   23.6841 C   0  0  0  0  0  0  0  0  0  0  0  0
  -27.3731  -27.4774   20.4456 C   0  0  0  0  0  0  0  0  0  0  0  0
  -22.4325   -6.3759   24.0463 C   0  0  0  0  0  0  0  0  0  0  0  0
  -20.9144   -4.2712   23.0225 C   0  0  0  0  0  0  0  0  0  0  0  0
  -21.2160   -6.6359   23.4154 C   0  0  0  0  0  0  0  0  0  0  0  0
  -24.9192  -11.3560   20.9804 C   0  0  0  0  0  0  0  0  0  0  0  0
  -25.0349  -12.8643   19.3845 C   0  0  0  0  0  0  0  0  0  0  0  0
  -22.7863  -11.7963   19.6123 C   0  0  0  0  0  0  0  0  0  0  0  0
  -23.5940  -30.2814   23.1513 C   0  0  0  0  0  0  0  0  0  0  0  0
  -22.4912  -31.3523   20.2948 C   0  0  0  0  0  0  0  0  0  0  0  0
  -27.6711  -23.9268   19.7453 C   0  0  0  0  0  0  0  0  0  0  0  0
  -22.7599  -31.3303   16.8927 C   0  0  0  0  0  0  0  0  0  0  0  0
  -29.0196  -16.7391   19.7174 C   0  0  0  0  0  0  0  0  0  0  0  0
  -21.2216  -32.0776   27.2989 C   0  0  0  0  0  0  0  0  0  0  0  0
  -25.7170  -31.1037   22.0684 C   0  0  0  0  0  0  0  0  0  0  0  0
  -24.1224  -29.4288   20.2255 C   0  0  0  0  0  0  0  0  0  0  0  0
  -20.8113  -31.7344   25.8692 C   0  0  0  0  0  0  0  0  0  0  0  0
  -30.0527  -13.3346   19.8560 C   0  0  0  0  0  0  0  0  0  0  0  0
  -21.3270  -30.3517   25.4832 C   0  0  0  0  0  0  0  0  0  0  0  0
  -28.7467  -12.5682   20.0783 C   0  0  0  0  0  0  0  0  0  0  0  0
  -30.0634  -14.6660   20.6050 C   0  0  0  0  0  0  0  0  0  0  0  0
  -27.6023  -14.7679   20.5667 C   0  0  0  0  0  0  0  0  0  0  0  0
  -22.8590  -30.3018   25.5283 C   0  0  1  0  0  0  0  0  0  0  0  0
  -24.1918  -31.1363   22.0699 C   0  0  1  0  0  0  0  0  0  0  0  0
  -27.5182  -13.4498   19.7799 C   0  0  2  0  0  0  0  0  0  0  0  0
  -21.6939  -32.2743   14.8264 C   0  0  0  0  0  0  0  0  0  0  0  0
  -20.1808  -29.3813   20.5893 C   0  0  0  0  0  0  0  0  0  0  0  0
  -19.7107  -29.6750   18.1478 C   0  0  0  0  0  0  0  0  0  0  0  0
  -19.5309  -31.6242   19.6941 C   0  0  0  0  0  0  0  0  0  0  0  0
  -25.2535  -32.7114   16.0967 C   0  0  0  0  0  0  0  0  0  0  0  0
  -26.9897  -25.2775   19.6276 C   0  0  0  0  0  0  0  0  0  1  0  0
  -21.8158  -30.7173   19.1034 C   0  0  1  0  0  0  0  0  0  0  0  0
  -22.7785  -32.4579   15.8765 C   0  0  2  0  0  0  0  0  0  0  0  0
  -20.3352  -30.3409   19.3925 C   0  0  0  0  0  0  0  0  0  0  0  0
  -26.1797  -11.7955   21.0261 N   0  0  0  0  0  0  0  0  0  0  0  0
  -26.2191  -12.7116   20.0437 N   0  0  0  0  0  0  0  0  0  0  0  0
  -23.6156  -30.6853   20.8015 N   0  0  0  0  0  0  0  0  0  0  0  0
  -28.8721  -15.4491   20.2696 N   0  0  0  0  0  0  0  0  0  0  0  0
  -24.8991  -13.7439   18.3695 N   0  0  0  0  0  0  0  0  0  0  0  0
  -22.0305  -10.8547   20.3240 N   0  0  0  0  0  0  0  0  0  0  0  0
  -26.7856  -22.9012   19.4322 N   0  0  0  0  0  0  0  0  0  0  0  0
  -27.8175  -17.3750   19.4089 N   0  0  0  0  0  0  0  0  0  0  0  0
  -23.4201  -30.9370   24.3552 N   0  0  0  0  0  0  0  0  0  0  0  0
  -21.9901  -31.6463   17.9922 N   0  0  0  0  0  0  0  0  0  0  0  0
  -24.0977  -32.5106   15.1853 N   0  3  0  0  0  0  0  0  0  0  0  0
  -22.2497  -12.4303   18.6723 O   0  0  0  0  0  0  0  0  0  0  0  0
  -23.3101  -29.1138   22.9107 O   0  0  0  0  0  0  0  0  0  0  0  0
  -22.0422  -32.4053   20.7544 O   0  0  0  0  0  0  0  0  0  0  0  0
  -28.8478  -23.8276   20.0773 O   0  0  0  0  0  0  0  0  0  0  0  0
  -23.3647  -30.2734   16.7261 O   0  0  0  0  0  0  0  0  0  0  0  0
  -30.1309  -17.2316   19.5066 O   0  0  0  0  0  0  0  0  0  0  0  0
  -23.1877   -7.4196   24.5544 O   0  0  0  0  0  0  0  0  0  0  0  0
  -27.9002  -26.3340   19.9294 O   0  0  0  0  0  0  0  0  0  1  0  0
  -20.1862   -3.2608   22.5296 F   0  0  0  0  0  0  0  0  0  0  0  0
  -20.7719   -7.8947   23.2970 F   0  0  0  0  0  0  0  0  0  0  0  0
  1  2  1  0  0  0  0
  1  5  2  0  0  0  0
  2  6  2  0  0  0  0
  3 12  2  0  0  0  0
  3 19  1  0  0  0  0
  4 13  1  0  0  0  0
  4 19  2  0  0  0  0
  5 21  1  0  0  0  0
  6 23  1  0  0  0  0
  7 14  2  0  0  0  0
  7 22  1  0  0  0  0
  8 10  2  0  0  0  0
  8 25  1  0  0  0  0
  9 11  1  0  0  0  0
  9 25  2  0  0  0  0
 10 26  1  0  0  0  0
 11 26  2  0  0  0  0
 12 27  1  0  0  0  0
 13 27  2  0  0  0  0
 14 28  1  0  0  0  0
 15 16  2  0  0  0  0
 15 29  1  0  0  0  0
 16 30  1  0  0  0  0
 17 24  1  0  0  0  0
 17 28  2  0  0  0  0
 18 30  2  0  0  0  0
 18 31  1  0  0  0  0
 19 32  1  0  0  0  0
 20 32  1  0  0  0  0
 20 33  2  0  0  0  0
 20 34  1  0  0  0  0
 21 23  2  0  0  0  0
 21 40  1  0  0  0  0
 22 24  2  0  0  0  0
 22 41  1  0  0  0  0
 23 49  1  0  0  0  0
 24 42  1  0  0  0  0
 25 67  1  0  0  0  0
 26 68  1  0  0  0  0
 27 78  1  0  0  0  0
 28 79  1  0  0  0  0
 29 31  2  0  0  0  0
 29 78  1  0  0  0  0
 30 80  1  0  0  0  0
 31 81  1  0  0  0  0
 32 61  2  0  0  0  0
 33 62  1  0  0  0  0
 33 65  1  0  0  0  0
 34 66  1  0  0  0  0
 34 72  2  0  0  0  0
 35 50  1  0  0  0  0
 35 69  1  0  0  0  0
 35 73  2  0  0  0  0
 36 58  1  0  0  0  0
 36 63  1  0  0  0  0
 36 74  2  0  0  0  0
 37 57  1  0  0  0  0
 37 67  1  0  0  0  0
 37 75  2  0  0  0  0
 38 59  1  0  0  0  0
 38 70  1  0  0  0  0
 38 76  2  0  0  0  0
 39 64  1  0  0  0  0
 39 68  1  0  0  0  0
 39 77  2  0  0  0  0
 40 43  1  0  0  0  0
 41 50  1  0  0  0  0
 42 63  1  0  0  0  0
 43 45  1  0  0  0  0
 44 46  1  0  0  0  0
 44 47  1  0  0  0  0
 45 49  1  0  0  0  0
 46 51  1  0  0  0  0
 47 64  1  0  0  0  0
 48 51  1  0  0  0  0
 48 64  1  0  0  0  0
 49 69  1  0  0  0  0
 50 63  1  0  0  0  0
 51 62  1  0  0  0  0
 52 59  1  0  0  0  0
 53 60  1  0  0  0  0
 54 60  1  0  0  0  0
 55 60  1  0  0  0  0
 56 71  1  0  0  0  0
 57 79  1  0  0  0  0
 58 60  1  0  0  0  0
 58 70  1  0  0  0  0
 59 71  1  0  0  0  0
 61 62  1  0  0  0  0
M  CHG  1  71   1
M  ISO  4  39 100  57 101  68 100  79 101
M  END
> <Batch ID>
0009

> <Smiles>
CNC(C)C(=O)NC(C(=O)N1Cc2cc([101O:1][101CH2:1]C(=O)Nc3ccc([100NH:0][100C:0](=O)N4CCCC(n5nc(-c6ccc(Oc7ccc(F)cc7F)cc6)c(C(N)=O)c5N)C4)cc3)ccc2CC1C(=O)NC1CCCc2ccccc21)C(C)(C)C

> <Shape>
0.258

> <Color>
0.118

> <Negative vol penalty>
0.000

$$$$

  -OEChem-04052315383D

 91 99  0     1  0  0  0  0  0999 V2000
  -24.5734  -23.1567   16.6703 C   0  0  0  0  0  0  0  0  0  0  0  0
  -24.6395  -23.2515   18.0566 C   0  0  0  0  0  0  0  0  0  0  0  0
  -23.0804   -9.8581   19.9449 C   0  0  0  0  0  0  0  0  0  0  0  0
  -23.8368   -9.8761   22.2394 C   0  0  0  0  0  0  0  0  0  0  0  0
  -25.6600  -22.6560   15.9544 C   0  0  0  0  0  0  0  0  0  0  0  0
  -25.7919  -22.8446   18.7281 C   0  0  0  0  0  0  0  0  0  0  0  0
  -28.1706  -25.3274   23.7959 C   0  0  0  0  0  0  0  0  0  0  0  0
  -32.6557  -17.4942   23.4189 C   0  0  0  0  0  0  0  0  0  0  0  0
  -32.0494  -16.6135   22.5231 C   0  0  0  0  0  0  0  0  0  0  0  0
  -22.3389   -8.7042   20.1984 C   0  0  0  0  0  0  0  0  0  0  0  0
  -23.0953   -8.7222   22.4929 C   0  0  0  0  0  0  0  0  0  0  0  0
  -28.0919  -24.9703   25.1413 C   0  0  0  0  0  0  0  0  0  0  0  0
  -21.1148   -5.9857   23.8375 C   0  0  0  0  0  0  0  0  0  0  0  0
  -20.3569   -5.9451   25.0077 C   0  0  0  0  0  0  0  0  0  0  0  0
  -30.1926  -23.8003   24.9474 C   0  0  0  0  0  0  0  0  0  0  0  0
  -30.4871  -18.3671   24.0287 C   0  0  0  0  0  0  0  0  0  0  0  0
  -19.1088   -7.8764   24.2665 C   0  0  0  0  0  0  0  0  0  0  0  0
  -23.8294  -10.4440   20.9654 C   0  0  0  0  0  0  0  0  0  0  0  0
  -24.1654  -12.9695   20.8357 C   0  0  0  0  0  0  0  0  0  0  0  0
  -26.8299  -22.2517   16.6165 C   0  0  0  0  0  0  0  0  0  0  0  0
  -29.2573  -24.9138   23.0121 C   0  0  0  0  0  0  0  0  0  0  0  0
  -26.8946  -22.3367   18.0205 C   0  0  0  0  0  0  0  0  0  0  0  0
  -30.2840  -24.1557   23.5929 C   0  0  0  0  0  0  0  0  0  0  0  0
  -31.8745  -18.3710   24.1717 C   0  0  0  0  0  0  0  0  0  0  0  0
  -30.6619  -16.6097   22.3801 C   0  0  0  0  0  0  0  0  0  0  0  0
  -29.8807  -17.4865   23.1329 C   0  0  0  0  0  0  0  0  0  0  0  0
  -22.3463   -8.1362   21.4724 C   0  0  0  0  0  0  0  0  0  0  0  0
  -29.1016  -24.2042   25.7165 C   0  0  0  0  0  0  0  0  0  0  0  0
  -20.8699   -6.9718   22.8818 C   0  0  0  0  0  0  0  0  0  0  0  0
  -19.3539   -6.8903   25.2222 C   0  0  0  0  0  0  0  0  0  0  0  0
  -19.8668   -7.9171   23.0962 C   0  0  0  0  0  0  0  0  0  0  0  0
  -24.5960  -11.6357   20.7040 C   0  0  0  0  0  0  0  0  0  0  0  0
  -25.2563  -13.7201   20.4711 C   0  0  0  0  0  0  0  0  0  0  0  0
  -22.8930  -13.4839   21.2507 C   0  0  0  0  0  0  0  0  0  0  0  0
  -29.5947  -23.0975   20.4254 C   0  0  0  0  0  0  0  0  0  0  0  0
  -32.6792  -24.0843   20.6119 C   0  0  0  0  0  0  0  0  0  0  0  0
  -27.4384  -21.7191   28.2951 C   0  0  0  0  0  0  0  0  0  0  0  0
  -35.2258  -25.2832   22.5417 C   0  0  0  0  0  0  0  0  0  0  0  0
  -30.7197  -14.7795   20.6499 C   0  0  0  0  0  0  0  0  0  0  0  0
  -27.9609  -21.6727   15.8039 C   0  0  0  0  0  0  0  0  0  0  0  0
  -29.3406  -25.3299   21.5690 C   0  0  0  0  0  0  0  0  0  0  0  0
  -31.4819  -23.7035   22.7998 C   0  0  0  0  0  0  0  0  0  0  0  0
  -29.2858  -21.6132   16.5598 C   0  0  0  0  0  0  0  0  0  0  0  0
  -29.6147  -12.3535   18.2897 C   0  0  0  0  0  0  0  0  0  0  0  0
  -29.0772  -21.0412   17.9584 C   0  0  0  0  0  0  0  0  0  0  0  0
  -28.1751  -12.0602   18.7182 C   0  0  0  0  0  0  0  0  0  0  0  0
  -30.5274  -12.5893   19.4918 C   0  0  0  0  0  0  0  0  0  0  0  0
  -28.6166  -13.3148   20.8672 C   0  0  0  0  0  0  0  0  0  0  0  0
  -28.1366  -21.9286   18.7827 C   0  0  1  0  0  0  0  0  0  0  0  0
  -30.2375  -24.4197   20.7356 C   0  0  1  0  0  0  0  0  0  0  0  0
  -27.6460  -13.1345   19.6886 C   0  0  2  0  0  0  0  0  0  0  0  0
  -37.6404  -25.9560   22.4210 C   0  0  0  0  0  0  0  0  0  0  0  0
  -33.4927  -21.1443   20.5464 C   0  0  0  0  0  0  0  0  0  0  0  0
  -35.7563  -21.8242   21.3722 C   0  0  0  0  0  0  0  0  0  0  0  0
  -34.9325  -22.6560   19.1695 C   0  0  0  0  0  0  0  0  0  0  0  0
  -27.6689  -16.6292   23.8630 C   0  0  0  0  0  0  0  0  0  0  0  0
  -34.6129  -28.0606   23.3598 C   0  0  0  0  0  0  0  0  0  0  0  0
  -28.8945  -22.0350   28.5994 C   0  0  0  0  0  0  0  0  0  0  0  0
  -26.4344  -21.1954   24.4148 C   0  0  0  0  0  0  0  0  0  0  0  0
  -26.6324  -19.7879   23.8466 C   0  0  0  0  0  0  0  0  0  0  0  0
  -25.5049  -21.1738   25.6331 C   0  0  0  0  0  0  0  0  0  0  0  0
  -27.5499  -19.7494   22.6189 C   0  0  0  0  0  0  0  0  0  0  0  0
  -26.0525  -20.3173   26.7706 C   0  0  0  0  0  0  0  0  0  0  0  0
  -27.8176  -18.3548   22.0606 C   0  0  0  0  0  0  0  0  0  0  0  0
  -29.6368  -22.6204   27.4079 C   0  0  0  0  0  0  0  0  0  1  0  0
  -33.9245  -23.5764   21.2976 C   0  0  1  0  0  0  0  0  0  0  0  0
  -36.1981  -26.4293   22.3280 C   0  0  2  0  0  0  0  0  0  0  0  0
  -34.5031  -22.3069   20.6112 C   0  0  0  0  0  0  0  0  0  0  0  0
  -25.8618  -11.5412   20.2881 N   0  0  0  0  0  0  0  0  0  0  0  0
  -26.2358  -12.8252   20.1552 N   0  0  0  0  0  0  0  0  0  0  0  0
  -31.5145  -24.1304   21.3912 N   0  0  0  0  0  0  0  0  0  0  0  0
  -29.9646  -13.6224   20.3642 N   0  0  0  0  0  0  0  0  0  0  0  0
  -32.4880  -19.2608   25.0778 N   0  0  0  0  0  0  0  0  0  0  0  0
  -25.4636  -15.0518   20.3931 N   0  0  0  0  0  0  0  0  0  0  0  0
  -21.8828  -12.5737   21.5900 N   0  0  0  0  0  0  0  0  0  0  0  0
  -30.0689  -15.7063   21.4636 N   0  0  0  0  0  0  0  0  0  0  0  0
  -28.8399  -23.0967   19.2679 N   0  0  0  0  0  0  0  0  0  0  0  0
  -27.3231  -20.7970   27.2648 N   0  0  0  0  0  0  0  0  0  0  0  0
  -34.8505  -24.7026   21.3487 N   0  0  0  0  0  0  0  0  0  0  0  0
  -28.4811  -17.4990   23.0049 N   0  0  3  0  0  0  0  0  0  0  0  0
  -35.9839  -27.4885   23.3543 N   0  3  0  0  0  0  0  0  0  0  0  0
  -22.6538  -14.7142   21.3027 O   0  0  0  0  0  0  0  0  0  0  0  0
  -29.7718  -22.1479   21.1795 O   0  0  0  0  0  0  0  0  0  0  0  0
  -32.7392  -24.4343   19.4306 O   0  0  0  0  0  0  0  0  0  0  0  0
  -26.4983  -22.2285   28.8988 O   0  0  0  0  0  0  0  0  0  0  0  0
  -34.8408  -24.9352   23.6559 O   0  0  0  0  0  0  0  0  0  0  0  0
  -31.8491  -14.9490   20.1833 O   0  0  0  0  0  0  0  0  0  0  0  0
  -21.6227   -7.0104   21.7201 O   0  0  0  0  0  0  0  0  0  0  0  0
  -29.0269  -23.8537   27.0293 O   0  0  0  0  0  0  0  0  0  1  0  0
  -18.6250   -6.8502   26.3453 F   0  0  0  0  0  0  0  0  0  0  0  0
  -19.6260   -8.8660   22.1812 F   0  0  0  0  0  0  0  0  0  0  0  0
  1  2  1  0  0  0  0
  1  5  2  0  0  0  0
  2  6  2  0  0  0  0
  3 10  2  0  0  0  0
  3 18  1  0  0  0  0
  4 11  1  0  0  0  0
  4 18  2  0  0  0  0
  5 20  1  0  0  0  0
  6 22  1  0  0  0  0
  7 12  2  0  0  0  0
  7 21  1  0  0  0  0
  8  9  2  0  0  0  0
  8 24  1  0  0  0  0
  9 25  1  0  0  0  0
 10 27  1  0  0  0  0
 11 27  2  0  0  0  0
 12 28  1  0  0  0  0
 13 14  2  0  0  0  0
 13 29  1  0  0  0  0
 14 30  1  0  0  0  0
 15 23  1  0  0  0  0
 15 28  2  0  0  0  0
 16 24  2  0  0  0  0
 16 26  1  0  0  0  0
 17 30  2  0  0  0  0
 17 31  1  0  0  0  0
 18 32  1  0  0  0  0
 19 32  1  0  0  0  0
 19 33  2  0  0  0  0
 19 34  1  0  0  0  0
 20 22  2  0  0  0  0
 20 40  1  0  0  0  0
 21 23  2  0  0  0  0
 21 41  1  0  0  0  0
 22 49  1  0  0  0  0
 23 42  1  0  0  0  0
 24 73  1  0  0  0  0
 25 26  2  0  0  0  0
 25 76  1  0  0  0  0
 26 80  1  0  0  0  0
 27 88  1  0  0  0  0
 28 89  1  0  0  0  0
 29 31  2  0  0  0  0
 29 88  1  0  0  0  0
 30 90  1  0  0  0  0
 31 91  1  0  0  0  0
 32 69  2  0  0  0  0
 33 70  1  0  0  0  0
 33 74  1  0  0  0  0
 34 75  1  0  0  0  0
 34 82  2  0  0  0  0
 35 50  1  0  0  0  0
 35 77  1  0  0  0  0
 35 83  2  0  0  0  0
 36 66  1  0  0  0  0
 36 71  1  0  0  0  0
 36 84  2  0  0  0  0
 37 58  1  0  0  0  0
 37 78  1  0  0  0  0
 37 85  2  0  0  0  0
 38 67  1  0  0  0  0
 38 79  1  0  0  0  0
 38 86  2  0  0  0  0
 39 72  1  0  0  0  0
 39 76  1  0  0  0  0
 39 87  2  0  0  0  0
 40 43  1  0  0  0  0
 41 50  1  0  0  0  0
 42 71  1  0  0  0  0
 43 45  1  0  0  0  0
 44 46  1  0  0  0  0
 44 47  1  0  0  0  0
 45 49  1  0  0  0  0
 46 51  1  0  0  0  0
 47 72  1  0  0  0  0
 48 51  1  0  0  0  0
 48 72  1  0  0  0  0
 49 77  1  0  0  0  0
 50 71  1  0  0  0  0
 51 70  1  0  0  0  0
 52 67  1  0  0  0  0
 53 68  1  0  0  0  0
 54 68  1  0  0  0  0
 55 68  1  0  0  0  0
 56 80  1  0  0  0  0
 57 81  1  0  0  0  0
 58 65  1  0  0  0  0
 59 60  1  0  0  0  0
 59 61  1  0  0  0  0
 60 62  1  0  0  0  0
 61 63  1  0  0  0  0
 62 64  1  0  0  0  0
 63 78  1  0  0  0  0
 64 80  1  0  0  0  0
 65 89  1  0  0  0  0
 66 68  1  0  0  0  0
 66 79  1  0  0  0  0
 67 81  1  0  0  0  0
 69 70  1  0  0  0  0
M  CHG  1  81   1
M  ISO  4  39 100  65 101  76 100  89 101
M  END
> <Batch ID>
0009

> <Smiles>
CNC(C)C(=O)NC(C(=O)N1Cc2cc([101O:1][101CH2:1]CC(=O)NCCCCCCN(C)c3cc(N)ccc3[100NH:0][100C:0](=O)N3CCCC(n4nc(-c5ccc(Oc6ccc(F)cc6F)cc5)c(C(N)=O)c4N)C3)ccc2CC1C(=O)NC1CCCc2ccccc21)C(C)(C)C

> <Shape>
0.196

> <Color>
0.180

> <Negative vol penalty>
0.000

$$$$

  -OEChem-04052315383D

 82 90  0     1  0  0  0  0  0999 V2000
  -24.5381  -32.0498   29.0889 C   0  0  0  0  0  0  0  0  0  0  0  0
  -25.2960  -31.2010   28.2887 C   0  0  0  0  0  0  0  0  0  0  0  0
  -24.5931   -8.9874   21.5671 C   0  0  0  0  0  0  0  0  0  0  0  0
  -23.9124  -10.7040   23.1250 C   0  0  0  0  0  0  0  0  0  0  0  0
  -23.2195  -32.3406   28.7414 C   0  0  0  0  0  0  0  0  0  0  0  0
  -24.7355  -30.6417   27.1409 C   0  0  0  0  0  0  0  0  0  0  0  0
  -27.5943  -29.4318   21.8617 C   0  0  0  0  0  0  0  0  0  0  0  0
  -28.2880  -21.0361   19.7648 C   0  0  0  0  0  0  0  0  0  0  0  0
  -28.5347  -19.6632   19.7597 C   0  0  0  0  0  0  0  0  0  0  0  0
  -24.1596   -8.0063   22.4588 C   0  0  0  0  0  0  0  0  0  0  0  0
  -23.4788   -9.7229   24.0166 C   0  0  0  0  0  0  0  0  0  0  0  0
  -28.1342  -28.2594   21.3347 C   0  0  0  0  0  0  0  0  0  0  0  0
  -22.9012   -5.0572   24.1718 C   0  0  0  0  0  0  0  0  0  0  0  0
  -22.1543   -3.9976   23.6572 C   0  0  0  0  0  0  0  0  0  0  0  0
  -26.0932  -27.8786   20.1066 C   0  0  0  0  0  0  0  0  0  0  0  0
  -26.0111  -20.6295   19.0669 C   0  0  0  0  0  0  0  0  0  0  0  0
  -20.4769   -5.5552   22.8844 C   0  0  0  0  0  0  0  0  0  0  0  0
  -24.4696  -10.3363   21.9003 C   0  0  0  0  0  0  0  0  0  0  0  0
  -24.1638  -11.9715   19.9662 C   0  0  0  0  0  0  0  0  0  0  0  0
  -22.6456  -31.7923   27.5836 C   0  0  0  0  0  0  0  0  0  0  0  0
  -26.2934  -29.8313   21.5231 C   0  0  0  0  0  0  0  0  0  0  0  0
  -23.4076  -30.9244   26.7783 C   0  0  0  0  0  0  0  0  0  0  0  0
  -25.5400  -29.0578   20.6287 C   0  0  0  0  0  0  0  0  0  0  0  0
  -26.2578  -19.2566   19.0617 C   0  0  0  0  0  0  0  0  0  0  0  0
  -27.0262  -21.5192   19.4184 C   0  0  0  0  0  0  0  0  0  0  0  0
  -27.5196  -18.7735   19.4082 C   0  0  0  0  0  0  0  0  0  0  0  0
  -23.6024   -8.3740   23.6835 C   0  0  0  0  0  0  0  0  0  0  0  0
  -27.3826  -27.4811   20.4592 C   0  0  0  0  0  0  0  0  0  0  0  0
  -22.4359   -6.3659   24.0429 C   0  0  0  0  0  0  0  0  0  0  0  0
  -20.9422   -4.2466   23.0134 C   0  0  0  0  0  0  0  0  0  0  0  0
  -21.2238   -6.6149   23.3991 C   0  0  0  0  0  0  0  0  0  0  0  0
  -24.9178  -11.3503   20.9799 C   0  0  0  0  0  0  0  0  0  0  0  0
  -25.0385  -12.8526   19.3788 C   0  0  0  0  0  0  0  0  0  0  0  0
  -22.7952  -11.7701   19.5894 C   0  0  0  0  0  0  0  0  0  0  0  0
  -23.5981  -30.3002   23.1414 C   0  0  0  0  0  0  0  0  0  0  0  0
  -22.5265  -31.3870   20.2790 C   0  0  0  0  0  0  0  0  0  0  0  0
  -27.6645  -23.9309   19.7502 C   0  0  0  0  0  0  0  0  0  0  0  0
  -22.8241  -31.3739   16.8793 C   0  0  0  0  0  0  0  0  0  0  0  0
  -28.9931  -16.7562   19.7335 C   0  0  0  0  0  0  0  0  0  0  0  0
  -21.2015  -32.0983   27.2743 C   0  0  0  0  0  0  0  0  0  0  0  0
  -25.7354  -31.1126   22.0793 C   0  0  0  0  0  0  0  0  0  0  0  0
  -24.1461  -29.4535   20.2175 C   0  0  0  0  0  0  0  0  0  0  0  0
  -20.8013  -31.7621   25.8400 C   0  0  0  0  0  0  0  0  0  0  0  0
  -30.0481  -13.3595   19.8965 C   0  0  0  0  0  0  0  0  0  0  0  0
  -21.3117  -30.3774   25.4541 C   0  0  0  0  0  0  0  0  0  0  0  0
  -28.7454  -12.5851   20.1095 C   0  0  0  0  0  0  0  0  0  0  0  0
  -30.0425  -14.6941   20.6399 C   0  0  0  0  0  0  0  0  0  0  0  0
  -27.5812  -14.7789   20.5775 C   0  0  0  0  0  0  0  0  0  0  0  0
  -22.8429  -30.3179   25.5121 C   0  0  1  0  0  0  0  0  0  0  0  0
  -24.2104  -31.1548   22.0679 C   0  0  1  0  0  0  0  0  0  0  0  0
  -27.5138  -13.4569   19.7955 C   0  0  2  0  0  0  0  0  0  0  0  0
  -25.1515  -18.3263   18.6830 C   0  0  0  0  0  0  0  0  0  0  0  0
  -21.7817  -32.3309   14.8069 C   0  0  0  0  0  0  0  0  0  0  0  0
  -20.2014  -29.4295   20.5476 C   0  0  0  0  0  0  0  0  0  0  0  0
  -19.7540  -29.7337   18.1031 C   0  0  0  0  0  0  0  0  0  0  0  0
  -19.5731  -31.6792   19.6539 C   0  0  0  0  0  0  0  0  0  0  0  0
  -25.3330  -32.7418   16.1090 C   0  0  0  0  0  0  0  0  0  0  0  0
  -26.9925  -25.2862   19.6310 C   0  0  0  0  0  0  0  0  0  1  0  0
  -21.8573  -30.7599   19.0799 C   0  0  1  0  0  0  0  0  0  0  0  0
  -22.8584  -32.5045   15.8668 C   0  0  2  0  0  0  0  0  0  0  0  0
  -20.3720  -30.3918   19.3552 C   0  0  0  0  0  0  0  0  0  0  0  0
  -26.1747  -11.7986   21.0358 N   0  0  0  0  0  0  0  0  0  0  0  0
  -26.2173  -12.7109   20.0499 N   0  0  0  0  0  0  0  0  0  0  0  0
  -23.6423  -30.7114   20.7932 N   0  0  0  0  0  0  0  0  0  0  0  0
  -28.8492  -15.4676   20.2898 N   0  0  0  0  0  0  0  0  0  0  0  0
  -24.9065  -13.7270   18.3588 N   0  0  0  0  0  0  0  0  0  0  0  0
  -22.0391  -10.8263   20.2978 N   0  0  0  0  0  0  0  0  0  0  0  0
  -26.7753  -22.9119   19.4263 N   0  0  0  0  0  0  0  0  0  0  0  0
  -27.7897  -17.3825   19.4107 N   0  0  0  0  0  0  0  0  0  0  0  0
  -23.4179  -30.9532   24.3458 N   0  0  0  0  0  0  0  0  0  0  0  0
  -22.0469  -31.6913   17.9731 N   0  0  0  0  0  0  0  0  0  0  0  0
  -24.1838  -32.5511   15.1871 N   0  3  0  0  0  0  0  0  0  0  0  0
  -22.2633  -12.3964   18.6416 O   0  0  0  0  0  0  0  0  0  0  0  0
  -23.3090  -29.1352   22.8947 O   0  0  0  0  0  0  0  0  0  0  0  0
  -22.0801  -32.4413   20.7381 O   0  0  0  0  0  0  0  0  0  0  0  0
  -28.8377  -23.8233   20.0920 O   0  0  0  0  0  0  0  0  0  0  0  0
  -23.4237  -30.3138   16.7145 O   0  0  0  0  0  0  0  0  0  0  0  0
  -30.1029  -17.2555   19.5313 O   0  0  0  0  0  0  0  0  0  0  0  0
  -23.1790   -7.4169   24.5537 O   0  0  0  0  0  0  0  0  0  0  0  0
  -27.9070  -26.3360   19.9439 O   0  0  0  0  0  0  0  0  0  1  0  0
  -20.2258   -3.2290   22.5179 F   0  0  0  0  0  0  0  0  0  0  0  0
  -20.7723   -7.8701   23.2711 F   0  0  0  0  0  0  0  0  0  0  0  0
  1  2  1  0  0  0  0
  1  5  2  0  0  0  0
  2  6  2  0  0  0  0
  3 10  2  0  0  0  0
  3 18  1  0  0  0  0
  4 11  1  0  0  0  0
  4 18  2  0  0  0  0
  5 20  1  0  0  0  0
  6 22  1  0  0  0  0
  7 12  2  0  0  0  0
  7 21  1  0  0  0  0
  8  9  2  0  0  0  0
  8 25  1  0  0  0  0
  9 26  1  0  0  0  0
 10 27  1  0  0  0  0
 11 27  2  0  0  0  0
 12 28  1  0  0  0  0
 13 14  2  0  0  0  0
 13 29  1  0  0  0  0
 14 30  1  0  0  0  0
 15 23  1  0  0  0  0
 15 28  2  0  0  0  0
 16 24  1  0  0  0  0
 16 25  2  0  0  0  0
 17 30  2  0  0  0  0
 17 31  1  0  0  0  0
 18 32  1  0  0  0  0
 19 32  1  0  0  0  0
 19 33  2  0  0  0  0
 19 34  1  0  0  0  0
 20 22  2  0  0  0  0
 20 40  1  0  0  0  0
 21 23  2  0  0  0  0
 21 41  1  0  0  0  0
 22 49  1  0  0  0  0
 23 42  1  0  0  0  0
 24 26  2  0  0  0  0
 24 52  1  0  0  0  0
 25 68  1  0  0  0  0
 26 69  1  0  0  0  0
 27 79  1  0  0  0  0
 28 80  1  0  0  0  0
 29 31  2  0  0  0  0
 29 79  1  0  0  0  0
 30 81  1  0  0  0  0
 31 82  1  0  0  0  0
 32 62  2  0  0  0  0
 33 63  1  0  0  0  0
 33 66  1  0  0  0  0
 34 67  1  0  0  0  0
 34 73  2  0  0  0  0
 35 50  1  0  0  0  0
 35 70  1  0  0  0  0
 35 74  2  0  0  0  0
 36 59  1  0  0  0  0
 36 64  1  0  0  0  0
 36 75  2  0  0  0  0
 37 58  1  0  0  0  0
 37 68  1  0  0  0  0
 37 76  2  0  0  0  0
 38 60  1  0  0  0  0
 38 71  1  0  0  0  0
 38 77  2  0  0  0  0
 39 65  1  0  0  0  0
 39 69  1  0  0  0  0
 39 78  2  0  0  0  0
 40 43  1  0  0  0  0
 41 50  1  0  0  0  0
 42 64  1  0  0  0  0
 43 45  1  0  0  0  0
 44 46  1  0  0  0  0
 44 47  1  0  0  0  0
 45 49  1  0  0  0  0
 46 51  1  0  0  0  0
 47 65  1  0  0  0  0
 48 51  1  0  0  0  0
 48 65  1  0  0  0  0
 49 70  1  0  0  0  0
 50 64  1  0  0  0  0
 51 63  1  0  0  0  0
 53 60  1  0  0  0  0
 54 61  1  0  0  0  0
 55 61  1  0  0  0  0
 56 61  1  0  0  0  0
 57 72  1  0  0  0  0
 58 80  1  0  0  0  0
 59 61  1  0  0  0  0
 59 71  1  0  0  0  0
 60 72  1  0  0  0  0
 62 63  1  0  0  0  0
M  CHG  1  72   1
M  ISO  4  39 100  58 101  69 100  80 101
M  END
> <Batch ID>
0009

> <Smiles>
CNC(C)C(=O)NC(C(=O)N1Cc2cc([101O:1][101CH2:1]C(=O)Nc3ccc([100NH:0][100C:0](=O)N4CCCC(n5nc(-c6ccc(Oc7ccc(F)cc7F)cc6)c(C(N)=O)c5N)C4)c(C)c3)ccc2CC1C(=O)NC1CCCc2ccccc21)C(C)(C)C

> <Shape>
0.257

> <Color>
0.117

> <Negative vol penalty>
0.000

$$$$

  -OEChem-04052315383D

 82 90  0     1  0  0  0  0  0999 V2000
  -24.5381  -32.0498   29.0889 C   0  0  0  0  0  0  0  0  0  0  0  0
  -25.2960  -31.2010   28.2887 C   0  0  0  0  0  0  0  0  0  0  0  0
  -24.5931   -8.9874   21.5671 C   0  0  0  0  0  0  0  0  0  0  0  0
  -23.9124  -10.7040   23.1250 C   0  0  0  0  0  0  0  0  0  0  0  0
  -23.2195  -32.3406   28.7414 C   0  0  0  0  0  0  0  0  0  0  0  0
  -24.7355  -30.6417   27.1409 C   0  0  0  0  0  0  0  0  0  0  0  0
  -27.5943  -29.4318   21.8617 C   0  0  0  0  0  0  0  0  0  0  0  0
  -28.2880  -21.0361   19.7648 C   0  0  0  0  0  0  0  0  0  0  0  0
  -28.5347  -19.6632   19.7597 C   0  0  0  0  0  0  0  0  0  0  0  0
  -24.1596   -8.0063   22.4588 C   0  0  0  0  0  0  0  0  0  0  0  0
  -23.4788   -9.7229   24.0166 C   0  0  0  0  0  0  0  0  0  0  0  0
  -28.1342  -28.2594   21.3347 C   0  0  0  0  0  0  0  0  0  0  0  0
  -22.9012   -5.0572   24.1718 C   0  0  0  0  0  0  0  0  0  0  0  0
  -22.1543   -3.9976   23.6572 C   0  0  0  0  0  0  0  0  0  0  0  0
  -26.0932  -27.8786   20.1066 C   0  0  0  0  0  0  0  0  0  0  0  0
  -26.0111  -20.6295   19.0669 C   0  0  0  0  0  0  0  0  0  0  0  0
  -20.4769   -5.5552   22.8844 C   0  0  0  0  0  0  0  0  0  0  0  0
  -24.4696  -10.3363   21.9003 C   0  0  0  0  0  0  0  0  0  0  0  0
  -24.1638  -11.9715   19.9662 C   0  0  0  0  0  0  0  0  0  0  0  0
  -22.6456  -31.7923   27.5836 C   0  0  0  0  0  0  0  0  0  0  0  0
  -26.2934  -29.8313   21.5231 C   0  0  0  0  0  0  0  0  0  0  0  0
  -23.4076  -30.9244   26.7783 C   0  0  0  0  0  0  0  0  0  0  0  0
  -25.5400  -29.0578   20.6287 C   0  0  0  0  0  0  0  0  0  0  0  0
  -26.2578  -19.2566   19.0617 C   0  0  0  0  0  0  0  0  0  0  0  0
  -27.0262  -21.5192   19.4184 C   0  0  0  0  0  0  0  0  0  0  0  0
  -27.5196  -18.7735   19.4082 C   0  0  0  0  0  0  0  0  0  0  0  0
  -23.6024   -8.3740   23.6835 C   0  0  0  0  0  0  0  0  0  0  0  0
  -27.3826  -27.4811   20.4592 C   0  0  0  0  0  0  0  0  0  0  0  0
  -22.4359   -6.3659   24.0429 C   0  0  0  0  0  0  0  0  0  0  0  0
  -20.9422   -4.2466   23.0134 C   0  0  0  0  0  0  0  0  0  0  0  0
  -21.2238   -6.6149   23.3991 C   0  0  0  0  0  0  0  0  0  0  0  0
  -24.9178  -11.3503   20.9799 C   0  0  0  0  0  0  0  0  0  0  0  0
  -25.0385  -12.8526   19.3788 C   0  0  0  0  0  0  0  0  0  0  0  0
  -22.7952  -11.7701   19.5894 C   0  0  0  0  0  0  0  0  0  0  0  0
  -23.5981  -30.3002   23.1414 C   0  0  0  0  0  0  0  0  0  0  0  0
  -22.5265  -31.3870   20.2790 C   0  0  0  0  0  0  0  0  0  0  0  0
  -27.6645  -23.9309   19.7502 C   0  0  0  0  0  0  0  0  0  0  0  0
  -22.8241  -31.3739   16.8793 C   0  0  0  0  0  0  0  0  0  0  0  0
  -28.9931  -16.7562   19.7335 C   0  0  0  0  0  0  0  0  0  0  0  0
  -21.2015  -32.0983   27.2743 C   0  0  0  0  0  0  0  0  0  0  0  0
  -25.7354  -31.1126   22.0793 C   0  0  0  0  0  0  0  0  0  0  0  0
  -24.1461  -29.4535   20.2175 C   0  0  0  0  0  0  0  0  0  0  0  0
  -20.8013  -31.7621   25.8400 C   0  0  0  0  0  0  0  0  0  0  0  0
  -30.0481  -13.3595   19.8965 C   0  0  0  0  0  0  0  0  0  0  0  0
  -21.3117  -30.3774   25.4541 C   0  0  0  0  0  0  0  0  0  0  0  0
  -28.7454  -12.5851   20.1095 C   0  0  0  0  0  0  0  0  0  0  0  0
  -30.0425  -14.6941   20.6399 C   0  0  0  0  0  0  0  0  0  0  0  0
  -27.5812  -14.7789   20.5775 C   0  0  0  0  0  0  0  0  0  0  0  0
  -22.8429  -30.3179   25.5121 C   0  0  1  0  0  0  0  0  0  0  0  0
  -24.2104  -31.1548   22.0679 C   0  0  1  0  0  0  0  0  0  0  0  0
  -27.5138  -13.4569   19.7955 C   0  0  2  0  0  0  0  0  0  0  0  0
  -25.1515  -18.3263   18.6830 C   0  0  0  0  0  0  0  0  0  0  0  0
  -21.7817  -32.3309   14.8069 C   0  0  0  0  0  0  0  0  0  0  0  0
  -20.2014  -29.4295   20.5476 C   0  0  0  0  0  0  0  0  0  0  0  0
  -19.7540  -29.7337   18.1031 C   0  0  0  0  0  0  0  0  0  0  0  0
  -19.5731  -31.6792   19.6539 C   0  0  0  0  0  0  0  0  0  0  0  0
  -25.3330  -32.7418   16.1090 C   0  0  0  0  0  0  0  0  0  0  0  0
  -26.9925  -25.2862   19.6310 C   0  0  0  0  0  0  0  0  0  1  0  0
  -21.8573  -30.7599   19.0799 C   0  0  1  0  0  0  0  0  0  0  0  0
  -22.8584  -32.5045   15.8668 C   0  0  2  0  0  0  0  0  0  0  0  0
  -20.3720  -30.3918   19.3552 C   0  0  0  0  0  0  0  0  0  0  0  0
  -26.1747  -11.7986   21.0358 N   0  0  0  0  0  0  0  0  0  0  0  0
  -26.2173  -12.7109   20.0499 N   0  0  0  0  0  0  0  0  0  0  0  0
  -23.6423  -30.7114   20.7932 N   0  0  0  0  0  0  0  0  0  0  0  0
  -28.8492  -15.4676   20.2898 N   0  0  0  0  0  0  0  0  0  0  0  0
  -24.9065  -13.7270   18.3588 N   0  0  0  0  0  0  0  0  0  0  0  0
  -22.0391  -10.8263   20.2978 N   0  0  0  0  0  0  0  0  0  0  0  0
  -26.7753  -22.9119   19.4263 N   0  0  0  0  0  0  0  0  0  0  0  0
  -27.7897  -17.3825   19.4107 N   0  0  0  0  0  0  0  0  0  0  0  0
  -23.4179  -30.9532   24.3458 N   0  0  0  0  0  0  0  0  0  0  0  0
  -22.0469  -31.6913   17.9731 N   0  0  0  0  0  0  0  0  0  0  0  0
  -24.1838  -32.5511   15.1871 N   0  3  0  0  0  0  0  0  0  0  0  0
  -22.2633  -12.3964   18.6416 O   0  0  0  0  0  0  0  0  0  0  0  0
  -23.3090  -29.1352   22.8947 O   0  0  0  0  0  0  0  0  0  0  0  0
  -22.0801  -32.4413   20.7381 O   0  0  0  0  0  0  0  0  0  0  0  0
  -28.8377  -23.8233   20.0920 O   0  0  0  0  0  0  0  0  0  0  0  0
  -23.4237  -30.3138   16.7145 O   0  0  0  0  0  0  0  0  0  0  0  0
  -30.1029  -17.2555   19.5313 O   0  0  0  0  0  0  0  0  0  0  0  0
  -23.1790   -7.4169   24.5537 O   0  0  0  0  0  0  0  0  0  0  0  0
  -27.9070  -26.3360   19.9439 O   0  0  0  0  0  0  0  0  0  1  0  0
  -20.2258   -3.2290   22.5179 F   0  0  0  0  0  0  0  0  0  0  0  0
  -20.7723   -7.8701   23.2711 F   0  0  0  0  0  0  0  0  0  0  0  0
  1  2  1  0  0  0  0
  1  5  2  0  0  0  0
  2  6  2  0  0  0  0
  3 10  2  0  0  0  0
  3 18  1  0  0  0  0
  4 11  1  0  0  0  0
  4 18  2  0  0  0  0
  5 20  1  0  0  0  0
  6 22  1  0  0  0  0
  7 12  2  0  0  0  0
  7 21  1  0  0  0  0
  8  9  2  0  0  0  0
  8 25  1  0  0  0  0
  9 26  1  0  0  0  0
 10 27  1  0  0  0  0
 11 27  2  0  0  0  0
 12 28  1  0  0  0  0
 13 14  2  0  0  0  0
 13 29  1  0  0  0  0
 14 30  1  0  0  0  0
 15 23  1  0  0  0  0
 15 28  2  0  0  0  0
 16 24  1  0  0  0  0
 16 25  2  0  0  0  0
 17 30  2  0  0  0  0
 17 31  1  0  0  0  0
 18 32  1  0  0  0  0
 19 32  1  0  0  0  0
 19 33  2  0  0  0  0
 19 34  1  0  0  0  0
 20 22  2  0  0  0  0
 20 40  1  0  0  0  0
 21 23  2  0  0  0  0
 21 41  1  0  0  0  0
 22 49  1  0  0  0  0
 23 42  1  0  0  0  0
 24 26  2  0  0  0  0
 24 52  1  0  0  0  0
 25 68  1  0  0  0  0
 26 69  1  0  0  0  0
 27 79  1  0  0  0  0
 28 80  1  0  0  0  0
 29 31  2  0  0  0  0
 29 79  1  0  0  0  0
 30 81  1  0  0  0  0
 31 82  1  0  0  0  0
 32 62  2  0  0  0  0
 33 63  1  0  0  0  0
 33 66  1  0  0  0  0
 34 67  1  0  0  0  0
 34 73  2  0  0  0  0
 35 50  1  0  0  0  0
 35 70  1  0  0  0  0
 35 74  2  0  0  0  0
 36 59  1  0  0  0  0
 36 64  1  0  0  0  0
 36 75  2  0  0  0  0
 37 58  1  0  0  0  0
 37 68  1  0  0  0  0
 37 76  2  0  0  0  0
 38 60  1  0  0  0  0
 38 71  1  0  0  0  0
 38 77  2  0  0  0  0
 39 65  1  0  0  0  0
 39 69  1  0  0  0  0
 39 78  2  0  0  0  0
 40 43  1  0  0  0  0
 41 50  1  0  0  0  0
 42 64  1  0  0  0  0
 43 45  1  0  0  0  0
 44 46  1  0  0  0  0
 44 47  1  0  0  0  0
 45 49  1  0  0  0  0
 46 51  1  0  0  0  0
 47 65  1  0  0  0  0
 48 51  1  0  0  0  0
 48 65  1  0  0  0  0
 49 70  1  0  0  0  0
 50 64  1  0  0  0  0
 51 63  1  0  0  0  0
 53 60  1  0  0  0  0
 54 61  1  0  0  0  0
 55 61  1  0  0  0  0
 56 61  1  0  0  0  0
 57 72  1  0  0  0  0
 58 80  1  0  0  0  0
 59 61  1  0  0  0  0
 59 71  1  0  0  0  0
 60 72  1  0  0  0  0
 62 63  1  0  0  0  0
M  CHG  1  72   1
M  ISO  4  39 100  58 101  69 100  80 101
M  END
> <Batch ID>
0009

> <Smiles>
CNC(C)C(=O)NC(C(=O)N1Cc2cc([101O:1][101CH2:1]C(=O)Nc3ccc([100NH:0][100C:0](=O)N4CCCC(n5nc(-c6ccc(Oc7ccc(F)cc7F)cc6)c(C(N)=O)c5N)C4)c(C)c3)ccc2CC1C(=O)NC1CCCc2ccccc21)C(C)(C)C

> <Shape>
0.257

> <Color>
0.117

> <Negative vol penalty>
0.000

$$$$

  -OEChem-04052315383D

 82 89  0     1  0  0  0  0  0999 V2000
  -17.9449  -28.3007   26.1464 C   0  0  0  0  0  0  0  0  0  0  0  0
  -18.8310  -27.2799   25.8176 C   0  0  0  0  0  0  0  0  0  0  0  0
  -27.7661  -17.1274   19.5141 C   0  0  0  0  0  0  0  0  0  0  0  0
  -27.4502  -17.1267   21.9094 C   0  0  0  0  0  0  0  0  0  0  0  0
  -17.7098  -29.3361   25.2428 C   0  0  0  0  0  0  0  0  0  0  0  0
  -19.4818  -27.2934   24.5844 C   0  0  0  0  0  0  0  0  0  0  0  0
  -24.4106  -26.1991   24.9768 C   0  0  0  0  0  0  0  0  0  0  0  0
  -28.4388  -18.3461   19.6032 C   0  0  0  0  0  0  0  0  0  0  0  0
  -28.1229  -18.3453   21.9985 C   0  0  0  0  0  0  0  0  0  0  0  0
  -24.7543  -24.8573   25.1353 C   0  0  0  0  0  0  0  0  0  0  0  0
  -29.9251  -21.6351   19.1597 C   0  0  0  0  0  0  0  0  0  0  0  0
  -29.5976  -22.6275   18.2358 C   0  0  0  0  0  0  0  0  0  0  0  0
  -25.2900  -24.7233   22.7871 C   0  0  0  0  0  0  0  0  0  0  0  0
  -27.3137  -22.6072   19.0237 C   0  0  0  0  0  0  0  0  0  0  0  0
  -27.2717  -16.5177   20.6672 C   0  0  0  0  0  0  0  0  0  0  0  0
  -27.1377  -13.9703   20.6496 C   0  0  0  0  0  0  0  0  0  0  0  0
  -18.3653  -29.3674   24.0019 C   0  0  0  0  0  0  0  0  0  0  0  0
  -24.4938  -26.8112   23.7179 C   0  0  0  0  0  0  0  0  0  0  0  0
  -19.2542  -28.3295   23.6628 C   0  0  0  0  0  0  0  0  0  0  0  0
  -24.9493  -26.0737   22.6157 C   0  0  0  0  0  0  0  0  0  0  0  0
  -28.6172  -18.9550   20.8454 C   0  0  0  0  0  0  0  0  0  0  0  0
  -25.1913  -24.1184   24.0398 C   0  0  0  0  0  0  0  0  0  0  0  0
  -28.9469  -21.1287   20.0155 C   0  0  0  0  0  0  0  0  0  0  0  0
  -28.2919  -23.1135   18.1678 C   0  0  0  0  0  0  0  0  0  0  0  0
  -27.6412  -21.6148   19.9475 C   0  0  0  0  0  0  0  0  0  0  0  0
  -26.5763  -15.2591   20.5758 C   0  0  0  0  0  0  0  0  0  0  0  0
  -26.0675  -13.1210   20.5090 C   0  0  0  0  0  0  0  0  0  0  0  0
  -28.5045  -13.5761   20.8293 C   0  0  0  0  0  0  0  0  0  0  0  0
  -20.6376  -15.3642   23.3580 C   0  0  0  0  0  0  0  0  0  0  0  0
  -21.1334  -15.5440   24.7597 C   0  0  0  0  0  0  0  0  0  0  0  0
  -22.4080  -28.1738   21.7439 C   0  0  0  0  0  0  0  0  0  0  0  0
  -25.0788  -28.9151   20.0587 C   0  0  0  0  0  0  0  0  0  0  0  0
  -28.3319  -28.1946   19.3206 C   0  0  0  0  0  0  0  0  0  0  0  0
  -20.1947  -13.9499   21.6121 C   0  0  0  0  0  0  0  0  0  0  0  0
  -18.0432  -30.4824   23.0386 C   0  0  0  0  0  0  0  0  0  0  0  0
  -24.1449  -28.2667   23.5688 C   0  0  0  0  0  0  0  0  0  0  0  0
  -25.0757  -26.6895   21.2470 C   0  0  0  0  0  0  0  0  0  0  0  0
  -19.0571  -30.6206   21.9059 C   0  0  0  0  0  0  0  0  0  0  0  0
  -21.7338  -12.8344   18.5241 C   0  0  0  0  0  0  0  0  0  0  0  0
  -19.3722  -29.2558   21.3019 C   0  0  0  0  0  0  0  0  0  0  0  0
  -23.1923  -13.2576   18.6919 C   0  0  0  0  0  0  0  0  0  0  0  0
  -20.7846  -13.8206   19.1967 C   0  0  0  0  0  0  0  0  0  0  0  0
  -22.5456  -14.4686   20.8223 C   0  0  0  0  0  0  0  0  0  0  0  0
  -19.9981  -28.3221   22.3450 C   0  0  1  0  0  0  0  0  0  0  0  0
  -23.7775  -28.6497   22.1385 C   0  0  1  0  0  0  0  0  0  0  0  0
  -23.5325  -13.4821   20.1755 C   0  0  2  0  0  0  0  0  0  0  0  0
  -20.1879  -16.6003   22.6340 C   0  0  0  0  0  0  0  0  0  0  0  0
  -30.2393  -28.9543   17.8776 C   0  0  0  0  0  0  0  0  0  0  0  0
  -23.7561  -27.6206   17.6329 C   0  0  0  0  0  0  0  0  0  0  0  0
  -26.0034  -27.5518   16.5315 C   0  0  0  0  0  0  0  0  0  0  0  0
  -24.9827  -29.7443   17.1430 C   0  0  0  0  0  0  0  0  0  0  0  0
  -30.0265  -28.7895   21.6729 C   0  0  0  0  0  0  0  0  0  0  0  0
  -23.9278  -18.3044   25.4695 C   0  0  0  0  0  0  0  0  0  0  0  0
  -23.9941  -19.7800   25.8681 C   0  0  0  0  0  0  0  0  0  0  0  0
  -23.2095  -17.4724   26.5320 C   0  0  0  0  0  0  0  0  0  0  0  0
  -24.7401  -20.6063   24.8164 C   0  0  0  0  0  0  0  0  0  0  0  0
  -23.1772  -15.9968   26.1526 C   0  0  0  0  0  0  0  0  0  0  0  0
  -24.8478  -22.0753   25.2076 C   0  0  0  0  0  0  0  0  0  1  0  0
  -25.8766  -28.2411   18.9687 C   0  0  1  0  0  0  0  0  0  0  0  0
  -29.5645  -29.0764   19.2350 C   0  0  2  0  0  0  0  0  0  0  0  0
  -25.1505  -28.2770   17.5943 C   0  0  0  0  0  0  0  0  0  0  0  0
  -25.2522  -15.2356   20.4016 N   0  0  0  0  0  0  0  0  0  0  0  0
  -20.6559  -14.1546   22.8943 N   0  0  0  0  0  0  0  0  0  0  0  0
  -24.9728  -13.9215   20.3648 N   0  0  0  0  0  0  0  0  0  0  0  0
  -24.7167  -28.1141   21.1510 N   0  0  0  0  0  0  0  0  0  0  0  0
  -21.1570  -14.0493   20.5930 N   0  0  0  0  0  0  0  0  0  0  0  0
  -25.9655  -11.7749   20.4959 N   0  0  0  0  0  0  0  0  0  0  0  0
  -29.4773  -14.5769   20.9571 N   0  0  0  0  0  0  0  0  0  0  0  0
  -22.4815  -15.7840   24.9006 N   0  0  0  0  0  0  0  0  0  0  0  0
  -21.3921  -28.6537   22.5483 N   0  0  0  0  0  0  0  0  0  0  0  0
  -27.1883  -28.8797   18.9685 N   0  0  0  0  0  0  0  0  0  0  0  0
  -30.5495  -28.6932   20.2857 N   0  3  0  0  0  0  0  0  0  0  0  0
  -28.8549  -12.3720   20.8586 O   0  0  0  0  0  0  0  0  0  0  0  0
  -20.3082  -15.4716   25.6595 O   0  0  0  0  0  0  0  0  0  0  0  0
  -22.2822  -27.4276   20.7799 O   0  0  0  0  0  0  0  0  0  0  0  0
  -24.7936  -30.1102   19.9485 O   0  0  0  0  0  0  0  0  0  0  0  0
  -28.3793  -27.0148   19.6617 O   0  0  0  0  0  0  0  0  0  0  0  0
  -19.0166  -13.6714   21.3828 O   0  0  0  0  0  0  0  0  0  0  0  0
  -29.2738  -20.1441   20.9327 O   0  0  0  0  0  0  0  0  0  0  0  0
  -25.5293  -22.7984   24.1928 O   0  0  0  0  0  0  0  0  0  1  0  0
  -27.9779  -24.0676   17.2816 F   0  0  0  0  0  0  0  0  0  0  0  0
  -26.6975  -21.1330   20.7679 F   0  0  0  0  0  0  0  0  0  0  0  0
  1  2  1  0  0  0  0
  1  5  2  0  0  0  0
  2  6  2  0  0  0  0
  3  8  2  0  0  0  0
  3 15  1  0  0  0  0
  4  9  1  0  0  0  0
  4 15  2  0  0  0  0
  5 17  1  0  0  0  0
  6 19  1  0  0  0  0
  7 10  2  0  0  0  0
  7 18  1  0  0  0  0
  8 21  1  0  0  0  0
  9 21  2  0  0  0  0
 10 22  1  0  0  0  0
 11 12  2  0  0  0  0
 11 23  1  0  0  0  0
 12 24  1  0  0  0  0
 13 20  1  0  0  0  0
 13 22  2  0  0  0  0
 14 24  2  0  0  0  0
 14 25  1  0  0  0  0
 15 26  1  0  0  0  0
 16 26  1  0  0  0  0
 16 27  2  0  0  0  0
 16 28  1  0  0  0  0
 17 19  2  0  0  0  0
 17 35  1  0  0  0  0
 18 20  2  0  0  0  0
 18 36  1  0  0  0  0
 19 44  1  0  0  0  0
 20 37  1  0  0  0  0
 21 79  1  0  0  0  0
 22 80  1  0  0  0  0
 23 25  2  0  0  0  0
 23 79  1  0  0  0  0
 24 81  1  0  0  0  0
 25 82  1  0  0  0  0
 26 62  2  0  0  0  0
 27 64  1  0  0  0  0
 27 67  1  0  0  0  0
 28 68  1  0  0  0  0
 28 73  2  0  0  0  0
 29 30  1  0  0  0  0
 29 47  1  0  0  0  0
 29 63  2  0  0  0  0
 30 69  1  0  0  0  0
 30 74  2  0  0  0  0
 31 45  1  0  0  0  0
 31 70  1  0  0  0  0
 31 75  2  0  0  0  0
 32 59  1  0  0  0  0
 32 65  1  0  0  0  0
 32 76  2  0  0  0  0
 33 60  1  0  0  0  0
 33 71  1  0  0  0  0
 33 77  2  0  0  0  0
 34 63  1  0  0  0  0
 34 66  1  0  0  0  0
 34 78  2  0  0  0  0
 35 38  1  0  0  0  0
 36 45  1  0  0  0  0
 37 65  1  0  0  0  0
 38 40  1  0  0  0  0
 39 41  1  0  0  0  0
 39 42  1  0  0  0  0
 40 44  1  0  0  0  0
 41 46  1  0  0  0  0
 42 66  1  0  0  0  0
 43 46  1  0  0  0  0
 43 66  1  0  0  0  0
 44 70  1  0  0  0  0
 45 65  1  0  0  0  0
 46 64  1  0  0  0  0
 48 60  1  0  0  0  0
 49 61  1  0  0  0  0
 50 61  1  0  0  0  0
 51 61  1  0  0  0  0
 52 72  1  0  0  0  0
 53 54  1  0  0  0  0
 53 55  1  0  0  0  0
 54 56  1  0  0  0  0
 55 57  1  0  0  0  0
 56 58  1  0  0  0  0
 57 69  1  0  0  0  0
 58 80  1  0  0  0  0
 59 61  1  0  0  0  0
 59 71  1  0  0  0  0
 60 72  1  0  0  0  0
 62 64  1  0  0  0  0
M  CHG  1  72   1
M  ISO  4  34 100  58 101  63 100  80 101
M  END
> <Batch ID>
0009

> <Smiles>
C=C([100NH:0][100C:0](=O)N1CCCC(n2nc(-c3ccc(Oc4ccc(F)cc4F)cc3)c(C(N)=O)c2N)C1)C(=O)NCCCCC[101CH2:1][101O:1]c1ccc2c(c1)CN(C(=O)C(NC(=O)C(C)NC)C(C)(C)C)C(C(=O)NC1CCCc3ccccc31)C2

> <Shape>
0.205

> <Color>
0.075

> <Negative vol penalty>
0.000

$$$$

  -OEChem-04052315383D

 83 91  0     1  0  0  0  0  0999 V2000
  -28.4012  -13.1501   17.7335 C   0  0  0  0  0  0  0  0  0  0  0  0
  -27.8586  -14.4166   17.5414 C   0  0  0  0  0  0  0  0  0  0  0  0
  -29.2102  -24.6515   19.5822 C   0  0  0  0  0  0  0  0  0  0  0  0
  -27.4583  -23.3942   20.6718 C   0  0  0  0  0  0  0  0  0  0  0  0
  -27.8096  -12.2693   18.6379 C   0  0  0  0  0  0  0  0  0  0  0  0
  -26.7232  -14.8026   18.2529 C   0  0  0  0  0  0  0  0  0  0  0  0
  -25.4103  -20.4125   20.3292 C   0  0  0  0  0  0  0  0  0  0  0  0
  -30.1518  -23.7217   20.0232 C   0  0  0  0  0  0  0  0  0  0  0  0
  -28.3999  -22.4644   21.1128 C   0  0  0  0  0  0  0  0  0  0  0  0
  -24.6004  -21.4317   19.8301 C   0  0  0  0  0  0  0  0  0  0  0  0
  -30.2926  -19.5650   22.2217 C   0  0  0  0  0  0  0  0  0  0  0  0
  -29.9786  -18.2121   22.0931 C   0  0  0  0  0  0  0  0  0  0  0  0
  -22.7964  -20.6832   21.2460 C   0  0  0  0  0  0  0  0  0  0  0  0
  -19.8186  -29.2555   23.3625 C   0  0  0  0  0  0  0  0  0  0  0  0
  -18.3119  -27.0554   22.5426 C   0  0  0  0  0  0  0  0  0  0  0  0
  -29.7848  -18.4844   19.7004 C   0  0  0  0  0  0  0  0  0  0  0  0
  -27.8635  -24.4877   19.9065 C   0  0  0  0  0  0  0  0  0  0  0  0
  -26.1635  -25.4163   18.2466 C   0  0  0  0  0  0  0  0  0  0  0  0
  -26.6720  -12.6482   19.3680 C   0  0  0  0  0  0  0  0  0  0  0  0
  -24.9151  -19.5128   21.2840 C   0  0  0  0  0  0  0  0  0  0  0  0
  -26.1149  -13.9255   19.1669 C   0  0  0  0  0  0  0  0  0  0  0  0
  -23.6029  -19.6551   21.7575 C   0  0  0  0  0  0  0  0  0  0  0  0
  -18.5965  -28.9797   23.9756 C   0  0  0  0  0  0  0  0  0  0  0  0
  -20.2874  -28.4313   22.3395 C   0  0  0  0  0  0  0  0  0  0  0  0
  -17.8431  -27.8797   23.5656 C   0  0  0  0  0  0  0  0  0  0  0  0
  -29.7467  -22.6282   20.7885 C   0  0  0  0  0  0  0  0  0  0  0  0
  -23.2923  -21.5654   20.2863 C   0  0  0  0  0  0  0  0  0  0  0  0
  -30.3526  -20.3777   21.0896 C   0  0  0  0  0  0  0  0  0  0  0  0
  -19.5341  -27.3313   21.9295 C   0  0  0  0  0  0  0  0  0  0  0  0
  -29.7247  -17.6717   20.8325 C   0  0  0  0  0  0  0  0  0  0  0  0
  -30.0987  -19.8374   19.8289 C   0  0  0  0  0  0  0  0  0  0  0  0
  -26.8904  -25.4482   19.4517 C   0  0  0  0  0  0  0  0  0  0  0  0
  -25.3796  -26.5434   18.2885 C   0  0  0  0  0  0  0  0  0  0  0  0
  -26.1940  -24.4540   17.1842 C   0  0  0  0  0  0  0  0  0  0  0  0
  -24.4376  -16.3715   21.3708 C   0  0  0  0  0  0  0  0  0  0  0  0
  -23.6951  -16.9628   24.4726 C   0  0  0  0  0  0  0  0  0  0  0  0
  -22.6309  -19.1982   26.8215 C   0  0  0  0  0  0  0  0  0  0  0  0
  -22.3916  -29.7801   22.0243 C   0  0  0  0  0  0  0  0  0  0  0  0
  -26.0397  -11.6446   20.2995 C   0  0  0  0  0  0  0  0  0  0  0  0
  -25.8100  -18.4353   21.8321 C   0  0  0  0  0  0  0  0  0  0  0  0
  -23.0300  -18.7277   22.7968 C   0  0  0  0  0  0  0  0  0  0  0  0
  -25.0589  -12.2667   21.2901 C   0  0  0  0  0  0  0  0  0  0  0  0
  -25.5567  -30.8211   20.7690 C   0  0  0  0  0  0  0  0  0  0  0  0
  -24.1195  -13.2332   20.5758 C   0  0  0  0  0  0  0  0  0  0  0  0
  -26.1536  -29.5396   20.1830 C   0  0  0  0  0  0  0  0  0  0  0  0
  -24.7562  -30.5442   22.0403 C   0  0  0  0  0  0  0  0  0  0  0  0
  -24.3193  -28.2279   21.3239 C   0  0  0  0  0  0  0  0  0  0  0  0
  -24.8986  -14.3900   19.9383 C   0  0  1  0  0  0  0  0  0  0  0  0
  -25.0374  -17.2602   22.4234 C   0  0  1  0  0  0  0  0  0  0  0  0
  -25.0804  -28.4475   20.0063 C   0  0  2  0  0  0  0  0  0  0  0  0
  -18.1176  -29.8797   25.0680 C   0  0  0  0  0  0  0  0  0  0  0  0
  -22.0848  -19.3789   29.2642 C   0  0  0  0  0  0  0  0  0  0  0  0
  -21.0565  -15.5094   23.9878 C   0  0  0  0  0  0  0  0  0  0  0  0
  -20.1861  -16.5300   26.1018 C   0  0  0  0  0  0  0  0  0  0  0  0
  -22.1468  -14.9896   26.1777 C   0  0  0  0  0  0  0  0  0  0  0  0
  -24.7318  -21.2362   27.2591 C   0  0  0  0  0  0  0  0  0  0  0  0
  -21.2501  -24.5447   20.3638 C   0  0  0  0  0  0  0  0  0  0  0  0
  -21.4979  -23.0770   20.6750 C   0  0  0  0  0  0  0  0  0  1  0  0
  -20.1740  -25.1417   21.2570 C   0  0  0  0  0  0  0  0  0  0  0  0
  -22.4320  -17.3127   25.2216 C   0  0  1  0  0  0  0  0  0  0  0  0
  -23.1620  -19.5378   28.2025 C   0  0  2  0  0  0  0  0  0  0  0  0
  -21.4652  -16.1019   25.3512 C   0  0  0  0  0  0  0  0  0  0  0  0
  -26.5948  -26.5113   20.2043 N   0  0  0  0  0  0  0  0  0  0  0  0
  -25.6734  -27.1580   19.4701 N   0  0  0  0  0  0  0  0  0  0  0  0
  -23.9424  -17.6862   23.2972 N   0  0  0  0  0  0  0  0  0  0  0  0
  -23.7561  -29.5025   21.7961 N   0  0  0  0  0  0  0  0  0  0  0  0
  -16.6042  -27.5846   24.1759 N   0  0  0  0  0  0  0  0  0  0  0  0
  -24.4745  -27.0587   17.4296 N   0  0  0  0  0  0  0  0  0  0  0  0
  -27.0567  -23.3557   17.3022 N   0  0  0  0  0  0  0  0  0  0  0  0
  -21.5308  -28.7243   21.7263 N   0  0  0  0  0  0  0  0  0  0  0  0
  -25.2764  -15.3597   20.9440 N   0  0  0  0  0  0  0  0  0  0  0  0
  -22.8572  -17.8771   26.4979 N   0  0  0  0  0  0  0  0  0  0  0  0
  -23.6523  -20.9447   28.2373 N   0  3  0  0  0  0  0  0  0  0  0  0
  -25.4896  -24.5734   16.1531 O   0  0  0  0  0  0  0  0  0  0  0  0
  -23.2976  -16.5868   20.9761 O   0  0  0  0  0  0  0  0  0  0  0  0
  -24.4389  -16.0852   24.9179 O   0  0  0  0  0  0  0  0  0  0  0  0
  -22.0679  -20.0215   26.1033 O   0  0  0  0  0  0  0  0  0  0  0  0
  -22.0122  -30.8829   22.4267 O   0  0  0  0  0  0  0  0  0  0  0  0
  -30.6652  -21.7206   21.2188 O   0  0  0  0  0  0  0  0  0  0  0  0
  -22.4994  -22.5588   19.8004 O   0  0  0  0  0  0  0  0  0  1  0  0
  -19.9761  -26.5095   20.9256 O   0  0  0  0  0  0  0  0  0  0  0  0
  -29.4247  -16.3722   20.7090 F   0  0  0  0  0  0  0  0  0  0  0  0
  -30.1560  -20.6129   18.7376 F   0  0  0  0  0  0  0  0  0  0  0  0
  1  2  1  0  0  0  0
  1  5  2  0  0  0  0
  2  6  2  0  0  0  0
  3  8  2  0  0  0  0
  3 17  1  0  0  0  0
  4  9  1  0  0  0  0
  4 17  2  0  0  0  0
  5 19  1  0  0  0  0
  6 21  1  0  0  0  0
  7 10  2  0  0  0  0
  7 20  1  0  0  0  0
  8 26  1  0  0  0  0
  9 26  2  0  0  0  0
 10 27  1  0  0  0  0
 11 12  2  0  0  0  0
 11 28  1  0  0  0  0
 12 30  1  0  0  0  0
 13 22  1  0  0  0  0
 13 27  2  0  0  0  0
 14 23  2  0  0  0  0
 14 24  1  0  0  0  0
 15 25  2  0  0  0  0
 15 29  1  0  0  0  0
 16 30  2  0  0  0  0
 16 31  1  0  0  0  0
 17 32  1  0  0  0  0
 18 32  1  0  0  0  0
 18 33  2  0  0  0  0
 18 34  1  0  0  0  0
 19 21  2  0  0  0  0
 19 39  1  0  0  0  0
 20 22  2  0  0  0  0
 20 40  1  0  0  0  0
 21 48  1  0  0  0  0
 22 41  1  0  0  0  0
 23 25  1  0  0  0  0
 23 51  1  0  0  0  0
 24 29  2  0  0  0  0
 24 70  1  0  0  0  0
 25 67  1  0  0  0  0
 26 79  1  0  0  0  0
 27 80  1  0  0  0  0
 28 31  2  0  0  0  0
 28 79  1  0  0  0  0
 29 81  1  0  0  0  0
 30 82  1  0  0  0  0
 31 83  1  0  0  0  0
 32 63  2  0  0  0  0
 33 64  1  0  0  0  0
 33 68  1  0  0  0  0
 34 69  1  0  0  0  0
 34 74  2  0  0  0  0
 35 49  1  0  0  0  0
 35 71  1  0  0  0  0
 35 75  2  0  0  0  0
 36 60  1  0  0  0  0
 36 65  1  0  0  0  0
 36 76  2  0  0  0  0
 37 61  1  0  0  0  0
 37 72  1  0  0  0  0
 37 77  2  0  0  0  0
 38 66  1  0  0  0  0
 38 70  1  0  0  0  0
 38 78  2  0  0  0  0
 39 42  1  0  0  0  0
 40 49  1  0  0  0  0
 41 65  1  0  0  0  0
 42 44  1  0  0  0  0
 43 45  1  0  0  0  0
 43 46  1  0  0  0  0
 44 48  1  0  0  0  0
 45 50  1  0  0  0  0
 46 66  1  0  0  0  0
 47 50  1  0  0  0  0
 47 66  1  0  0  0  0
 48 71  1  0  0  0  0
 49 65  1  0  0  0  0
 50 64  1  0  0  0  0
 52 61  1  0  0  0  0
 53 62  1  0  0  0  0
 54 62  1  0  0  0  0
 55 62  1  0  0  0  0
 56 73  1  0  0  0  0
 57 58  1  0  0  0  0
 57 59  1  0  0  0  0
 58 80  1  0  0  0  0
 59 81  1  0  0  0  0
 60 62  1  0  0  0  0
 60 72  1  0  0  0  0
 61 73  1  0  0  0  0
 63 64  1  0  0  0  0
M  CHG  1  73   1
M  ISO  4  38 100  58 101  70 100  80 101
M  END
> <Batch ID>
0009

> <Smiles>
CNC(C)C(=O)NC(C(=O)N1Cc2cc([101O:1][101CH2:1]CCOc3cc(N)c(C)cc3[100NH:0][100C:0](=O)N3CCCC(n4nc(-c5ccc(Oc6ccc(F)cc6F)cc5)c(C(N)=O)c4N)C3)ccc2CC1C(=O)NC1CCCc2ccccc21)C(C)(C)C

> <Shape>
0.232

> <Color>
0.059

> <Negative vol penalty>
0.000

$$$$

  -OEChem-04052315383D

 82 90  0     1  0  0  0  0  0999 V2000
  -29.4609  -33.9616   26.0651 C   0  0  0  0  0  0  0  0  0  0  0  0
  -29.6130  -32.8665   25.2207 C   0  0  0  0  0  0  0  0  0  0  0  0
  -24.6254   -9.0141   21.3663 C   0  0  0  0  0  0  0  0  0  0  0  0
  -23.3749  -10.8876   22.2399 C   0  0  0  0  0  0  0  0  0  0  0  0
  -28.2344  -34.1977   26.6847 C   0  0  0  0  0  0  0  0  0  0  0  0
  -28.5389  -32.0061   24.9963 C   0  0  0  0  0  0  0  0  0  0  0  0
  -27.2088  -29.0561   19.7969 C   0  0  0  0  0  0  0  0  0  0  0  0
  -28.2583  -19.0882   20.2571 C   0  0  0  0  0  0  0  0  0  0  0  0
  -27.8311  -20.4045   20.0827 C   0  0  0  0  0  0  0  0  0  0  0  0
  -24.0837   -8.1918   22.3542 C   0  0  0  0  0  0  0  0  0  0  0  0
  -22.8332  -10.0653   23.2279 C   0  0  0  0  0  0  0  0  0  0  0  0
  -27.4513  -27.7511   19.3704 C   0  0  0  0  0  0  0  0  0  0  0  0
  -21.1749   -6.5638   22.9211 C   0  0  0  0  0  0  0  0  0  0  0  0
  -20.7074   -5.3078   22.5345 C   0  0  0  0  0  0  0  0  0  0  0  0
  -25.2378  -27.1124   20.0857 C   0  0  0  0  0  0  0  0  0  0  0  0
  -26.2425  -18.5979   21.4954 C   0  0  0  0  0  0  0  0  0  0  0  0
  -22.2821   -4.2592   24.0373 C   0  0  0  0  0  0  0  0  0  0  0  0
  -24.2711  -10.3620   21.3092 C   0  0  0  0  0  0  0  0  0  0  0  0
  -24.3057  -11.4600   19.0068 C   0  0  0  0  0  0  0  0  0  0  0  0
  -27.1420  -33.3453   26.4602 C   0  0  0  0  0  0  0  0  0  0  0  0
  -25.9808  -29.3971   20.3819 C   0  0  0  0  0  0  0  0  0  0  0  0
  -27.2970  -32.2302   25.6146 C   0  0  0  0  0  0  0  0  0  0  0  0
  -24.9812  -28.4230   20.5164 C   0  0  0  0  0  0  0  0  0  0  0  0
  -27.4640  -18.1849   20.9633 C   0  0  0  0  0  0  0  0  0  0  0  0
  -26.6097  -20.8176   20.6148 C   0  0  0  0  0  0  0  0  0  0  0  0
  -23.1876   -8.7174   23.2850 C   0  0  0  0  0  0  0  0  0  0  0  0
  -26.4669  -26.7783   19.5174 C   0  0  0  0  0  0  0  0  0  0  0  0
  -22.1961   -6.6675   23.8657 C   0  0  0  0  0  0  0  0  0  0  0  0
  -21.2610   -4.1555   23.0926 C   0  0  0  0  0  0  0  0  0  0  0  0
  -25.8153  -19.9143   21.3211 C   0  0  0  0  0  0  0  0  0  0  0  0
  -22.7496   -5.5153   24.4238 C   0  0  0  0  0  0  0  0  0  0  0  0
  -24.8308  -11.2121   20.2892 C   0  0  0  0  0  0  0  0  0  0  0  0
  -25.2014  -12.3274   18.4309 C   0  0  0  0  0  0  0  0  0  0  0  0
  -23.1148  -10.9516   18.3912 C   0  0  0  0  0  0  0  0  0  0  0  0
  -25.0781  -30.4896   23.2271 C   0  0  0  0  0  0  0  0  0  0  0  0
  -22.1722  -30.6800   21.7983 C   0  0  0  0  0  0  0  0  0  0  0  0
  -26.8424  -23.1750   19.7648 C   0  0  0  0  0  0  0  0  0  0  0  0
  -20.0775  -29.5876   19.3354 C   0  0  0  0  0  0  0  0  0  0  0  0
  -29.0827  -16.2756   20.6787 C   0  0  0  0  0  0  0  0  0  0  0  0
  -25.8494  -33.6143   27.1893 C   0  0  0  0  0  0  0  0  0  0  0  0
  -25.7250  -30.8155   20.8123 C   0  0  0  0  0  0  0  0  0  0  0  0
  -23.6386  -28.7425   21.1196 C   0  0  0  0  0  0  0  0  0  0  0  0
  -24.6534  -32.8673   26.6047 C   0  0  0  0  0  0  0  0  0  0  0  0
  -29.8337  -13.5387   18.5288 C   0  0  0  0  0  0  0  0  0  0  0  0
  -25.0100  -31.4067   26.3474 C   0  0  0  0  0  0  0  0  0  0  0  0
  -28.5857  -12.6570   18.6148 C   0  0  0  0  0  0  0  0  0  0  0  0
  -30.1628  -14.1883   19.8717 C   0  0  0  0  0  0  0  0  0  0  0  0
  -27.8072  -14.0443   20.5786 C   0  0  0  0  0  0  0  0  0  0  0  0
  -26.1482  -31.2882   25.3267 C   0  0  1  0  0  0  0  0  0  0  0  0
  -24.6261  -30.9318   21.8641 C   0  0  1  0  0  0  0  0  0  0  0  0
  -27.3984  -13.4199   19.2345 C   0  0  2  0  0  0  0  0  0  0  0  0
  -17.7527  -29.9008   18.4441 C   0  0  0  0  0  0  0  0  0  0  0  0
  -21.0648  -29.0297   24.1135 C   0  0  0  0  0  0  0  0  0  0  0  0
  -19.0308  -28.5762   22.7259 C   0  0  0  0  0  0  0  0  0  0  0  0
  -19.5956  -30.9161   23.3806 C   0  0  0  0  0  0  0  0  0  0  0  0
  -21.0837  -30.5122   16.7103 C   0  0  0  0  0  0  0  0  0  0  0  0
  -26.0333  -24.4580   19.8076 C   0  0  0  0  0  0  0  0  0  1  0  0
  -20.9985  -29.7450   21.6336 C   0  0  1  0  0  0  0  0  0  0  0  0
  -19.2052  -30.3408   18.3474 C   0  0  2  0  0  0  0  0  0  0  0  0
  -20.1983  -29.5600   22.9538 C   0  0  0  0  0  0  0  0  0  0  0  0
  -25.9716  -11.8689   20.5151 N   0  0  0  0  0  0  0  0  0  0  0  0
  -26.1709  -12.5380   19.3668 N   0  0  0  0  0  0  0  0  0  0  0  0
  -23.4389  -30.1419   21.5309 N   0  0  0  0  0  0  0  0  0  0  0  0
  -28.9928  -14.8963   20.3958 N   0  0  0  0  0  0  0  0  0  0  0  0
  -25.2465  -12.9230   17.2202 N   0  0  0  0  0  0  0  0  0  0  0  0
  -22.3079  -10.0704   19.1238 N   0  0  0  0  0  0  0  0  0  0  0  0
  -26.1792  -22.1538   20.4367 N   0  0  0  0  0  0  0  0  0  0  0  0
  -27.8980  -16.8478   21.1411 N   0  0  0  0  0  0  0  0  0  0  0  0
  -25.6472  -31.4953   23.9848 N   0  0  0  0  0  0  0  0  0  0  0  0
  -20.2094  -30.2717   20.5253 N   0  0  0  0  0  0  0  0  0  0  0  0
  -19.6766  -30.1028   16.9539 N   0  3  0  0  0  0  0  0  0  0  0  0
  -22.7849  -11.2565   17.2200 O   0  0  0  0  0  0  0  0  0  0  0  0
  -24.9208  -29.3228   23.5668 O   0  0  0  0  0  0  0  0  0  0  0  0
  -21.9717  -31.8470   22.1444 O   0  0  0  0  0  0  0  0  0  0  0  0
  -27.9277  -23.1185   19.1961 O   0  0  0  0  0  0  0  0  0  0  0  0
  -20.5876  -28.4993   19.0788 O   0  0  0  0  0  0  0  0  0  0  0  0
  -30.1257  -16.9089   20.4965 O   0  0  0  0  0  0  0  0  0  0  0  0
  -22.6586   -7.9153   24.2490 O   0  0  0  0  0  0  0  0  0  0  0  0
  -26.7013  -25.5036   19.1026 O   0  0  0  0  0  0  0  0  0  1  0  0
  -20.8108   -2.9494   22.7225 F   0  0  0  0  0  0  0  0  0  0  0  0
  -24.6401  -20.3006   21.8382 F   0  0  0  0  0  0  0  0  0  0  0  0
  -23.7300   -5.6086   25.3326 F   0  0  0  0  0  0  0  0  0  0  0  0
  1  2  1  0  0  0  0
  1  5  2  0  0  0  0
  2  6  2  0  0  0  0
  3 10  2  0  0  0  0
  3 18  1  0  0  0  0
  4 11  1  0  0  0  0
  4 18  2  0  0  0  0
  5 20  1  0  0  0  0
  6 22  1  0  0  0  0
  7 12  2  0  0  0  0
  7 21  1  0  0  0  0
  8  9  2  0  0  0  0
  8 24  1  0  0  0  0
  9 25  1  0  0  0  0
 10 26  1  0  0  0  0
 11 26  2  0  0  0  0
 12 27  1  0  0  0  0
 13 14  2  0  0  0  0
 13 28  1  0  0  0  0
 14 29  1  0  0  0  0
 15 23  1  0  0  0  0
 15 27  2  0  0  0  0
 16 24  2  0  0  0  0
 16 30  1  0  0  0  0
 17 29  2  0  0  0  0
 17 31  1  0  0  0  0
 18 32  1  0  0  0  0
 19 32  1  0  0  0  0
 19 33  2  0  0  0  0
 19 34  1  0  0  0  0
 20 22  2  0  0  0  0
 20 40  1  0  0  0  0
 21 23  2  0  0  0  0
 21 41  1  0  0  0  0
 22 49  1  0  0  0  0
 23 42  1  0  0  0  0
 24 68  1  0  0  0  0
 25 30  2  0  0  0  0
 25 67  1  0  0  0  0
 26 78  1  0  0  0  0
 27 79  1  0  0  0  0
 28 31  2  0  0  0  0
 28 78  1  0  0  0  0
 29 80  1  0  0  0  0
 30 81  1  0  0  0  0
 31 82  1  0  0  0  0
 32 61  2  0  0  0  0
 33 62  1  0  0  0  0
 33 65  1  0  0  0  0
 34 66  1  0  0  0  0
 34 72  2  0  0  0  0
 35 50  1  0  0  0  0
 35 69  1  0  0  0  0
 35 73  2  0  0  0  0
 36 58  1  0  0  0  0
 36 63  1  0  0  0  0
 36 74  2  0  0  0  0
 37 57  1  0  0  0  0
 37 67  1  0  0  0  0
 37 75  2  0  0  0  0
 38 59  1  0  0  0  0
 38 70  1  0  0  0  0
 38 76  2  0  0  0  0
 39 64  1  0  0  0  0
 39 68  1  0  0  0  0
 39 77  2  0  0  0  0
 40 43  1  0  0  0  0
 41 50  1  0  0  0  0
 42 63  1  0  0  0  0
 43 45  1  0  0  0  0
 44 46  1  0  0  0  0
 44 47  1  0  0  0  0
 45 49  1  0  0  0  0
 46 51  1  0  0  0  0
 47 64  1  0  0  0  0
 48 51  1  0  0  0  0
 48 64  1  0  0  0  0
 49 69  1  0  0  0  0
 50 63  1  0  0  0  0
 51 62  1  0  0  0  0
 52 59  1  0  0  0  0
 53 60  1  0  0  0  0
 54 60  1  0  0  0  0
 55 60  1  0  0  0  0
 56 71  1  0  0  0  0
 57 79  1  0  0  0  0
 58 60  1  0  0  0  0
 58 70  1  0  0  0  0
 59 71  1  0  0  0  0
 61 62  1  0  0  0  0
M  CHG  1  71   1
M  ISO  4  39 100  57 101  68 100  79 101
M  END
> <Batch ID>
0009

> <Smiles>
CNC(C)C(=O)NC(C(=O)N1Cc2cc([101O:1][101CH2:1]C(=O)Nc3ccc([100NH:0][100C:0](=O)N4CCCC(n5nc(-c6ccc(Oc7ccc(F)cc7F)cc6)c(C(N)=O)c5N)C4)cc3F)ccc2CC1C(=O)NC1CCCc2ccccc21)C(C)(C)C

> <Shape>
0.309

> <Color>
0.101

> <Negative vol penalty>
0.000

$$$$

  -OEChem-04052315383D

 82 90  0     1  0  0  0  0  0999 V2000
  -39.3964  -28.9430   21.8906 C   0  0  0  0  0  0  0  0  0  0  0  0
  -38.3722  -28.2573   22.5358 C   0  0  0  0  0  0  0  0  0  0  0  0
  -23.0070   -9.8885   19.9649 C   0  0  0  0  0  0  0  0  0  0  0  0
  -23.7378   -9.9140   22.2676 C   0  0  0  0  0  0  0  0  0  0  0  0
  -39.2260  -29.3716   20.5748 C   0  0  0  0  0  0  0  0  0  0  0  0
  -37.1765  -28.0006   21.8658 C   0  0  0  0  0  0  0  0  0  0  0  0
  -35.5522  -23.2518   22.5407 C   0  0  0  0  0  0  0  0  0  0  0  0
  -32.6297  -17.4393   23.5072 C   0  0  0  0  0  0  0  0  0  0  0  0
  -32.0404  -16.5521   22.6065 C   0  0  0  0  0  0  0  0  0  0  0  0
  -22.2463   -8.7473   20.2189 C   0  0  0  0  0  0  0  0  0  0  0  0
  -22.9771   -8.7728   22.5216 C   0  0  0  0  0  0  0  0  0  0  0  0
  -34.9279  -22.9586   23.7523 C   0  0  0  0  0  0  0  0  0  0  0  0
  -23.2354   -5.4411   22.0073 C   0  0  0  0  0  0  0  0  0  0  0  0
  -23.8294   -4.4173   22.7451 C   0  0  0  0  0  0  0  0  0  0  0  0
  -32.7744  -23.1502   22.6822 C   0  0  0  0  0  0  0  0  0  0  0  0
  -30.4510  -18.3240   24.0615 C   0  0  0  0  0  0  0  0  0  0  0  0
  -22.1088   -4.6313   24.4275 C   0  0  0  0  0  0  0  0  0  0  0  0
  -23.7528  -10.4719   20.9892 C   0  0  0  0  0  0  0  0  0  0  0  0
  -24.1262  -12.9912   20.8438 C   0  0  0  0  0  0  0  0  0  0  0  0
  -38.0312  -29.1116   19.8852 C   0  0  0  0  0  0  0  0  0  0  0  0
  -34.7907  -23.5076   21.3912 C   0  0  0  0  0  0  0  0  0  0  0  0
  -36.9894  -28.4273   20.5400 C   0  0  0  0  0  0  0  0  0  0  0  0
  -33.3915  -23.4440   21.4566 C   0  0  0  0  0  0  0  0  0  0  0  0
  -31.8350  -18.3252   24.2348 C   0  0  0  0  0  0  0  0  0  0  0  0
  -30.6564  -16.5510   22.4332 C   0  0  0  0  0  0  0  0  0  0  0  0
  -22.2313   -8.1894   21.4972 C   0  0  0  0  0  0  0  0  0  0  0  0
  -33.5387  -22.9106   23.8238 C   0  0  0  0  0  0  0  0  0  0  0  0
  -22.0780   -6.0602   22.4796 C   0  0  0  0  0  0  0  0  0  0  0  0
  -23.2661   -4.0124   23.9552 C   0  0  0  0  0  0  0  0  0  0  0  0
  -29.8616  -17.4369   23.1607 C   0  0  0  0  0  0  0  0  0  0  0  0
  -21.5147   -5.6552   23.6897 C   0  0  0  0  0  0  0  0  0  0  0  0
  -24.5392  -11.6504   20.7273 C   0  0  0  0  0  0  0  0  0  0  0  0
  -25.2318  -13.7234   20.4857 C   0  0  0  0  0  0  0  0  0  0  0  0
  -22.8568  -13.5269   21.2403 C   0  0  0  0  0  0  0  0  0  0  0  0
  -34.4288  -25.9973   19.4485 C   0  0  0  0  0  0  0  0  0  0  0  0
  -32.6381  -23.9044   17.7352 C   0  0  0  0  0  0  0  0  0  0  0  0
  -30.7454  -21.0649   17.6969 C   0  0  0  0  0  0  0  0  0  0  0  0
  -30.7074  -14.7065   20.7181 C   0  0  0  0  0  0  0  0  0  0  0  0
  -37.8754  -29.6360   18.4797 C   0  0  0  0  0  0  0  0  0  0  0  0
  -35.4799  -23.7962   20.0858 C   0  0  0  0  0  0  0  0  0  0  0  0
  -32.5291  -23.6908   20.2468 C   0  0  0  0  0  0  0  0  0  0  0  0
  -36.7195  -28.9958   17.7154 C   0  0  0  0  0  0  0  0  0  0  0  0
  -29.5944  -12.2778   18.3644 C   0  0  0  0  0  0  0  0  0  0  0  0
  -35.4640  -28.9567   18.5808 C   0  0  0  0  0  0  0  0  0  0  0  0
  -28.1460  -12.0084   18.7789 C   0  0  0  0  0  0  0  0  0  0  0  0
  -30.4968  -12.5102   19.5749 C   0  0  0  0  0  0  0  0  0  0  0  0
  -28.5813  -13.2735   20.9229 C   0  0  0  0  0  0  0  0  0  0  0  0
  -35.6871  -28.1081   19.8385 C   0  0  1  0  0  0  0  0  0  0  0  0
  -34.5944  -24.5462   19.0956 C   0  0  1  0  0  0  0  0  0  0  0  0
  -27.6215  -13.0977   19.7349 C   0  0  2  0  0  0  0  0  0  0  0  0
  -29.3819  -19.6270   16.1572 C   0  0  0  0  0  0  0  0  0  0  0  0
  -30.3855  -25.9611   17.8133 C   0  0  0  0  0  0  0  0  0  0  0  0
  -28.8006  -24.1483   17.1275 C   0  0  0  0  0  0  0  0  0  0  0  0
  -30.6694  -24.8079   15.6124 C   0  0  0  0  0  0  0  0  0  0  0  0
  -32.4886  -18.7178   18.1566 C   0  0  0  0  0  0  0  0  0  0  0  0
  -32.6187  -21.0152   26.7581 C   0  0  0  0  0  0  0  0  0  0  0  0
  -31.6773  -20.1554   25.9232 C   0  0  0  0  0  0  0  0  0  0  0  0
  -33.6314  -21.7804   25.9143 C   0  0  0  0  0  0  0  0  0  1  0  0
  -31.1818  -23.5069   17.7188 C   0  0  1  0  0  0  0  0  0  0  0  0
  -30.7531  -19.8616   16.7714 C   0  0  2  0  0  0  0  0  0  0  0  0
  -30.2752  -24.6032   17.0914 C   0  0  0  0  0  0  0  0  0  0  0  0
  -25.8081  -11.5347   20.3264 N   0  0  0  0  0  0  0  0  0  0  0  0
  -26.2019  -12.8121   20.1878 N   0  0  0  0  0  0  0  0  0  0  0  0
  -33.2497  -23.9752   18.9949 N   0  0  0  0  0  0  0  0  0  0  0  0
  -29.9391  -13.5580   20.4328 N   0  0  0  0  0  0  0  0  0  0  0  0
  -25.4590  -15.0513   20.3997 N   0  0  0  0  0  0  0  0  0  0  0  0
  -21.8299  -12.6338   21.5753 N   0  0  0  0  0  0  0  0  0  0  0  0
  -30.0608  -15.6488   21.5171 N   0  0  0  0  0  0  0  0  0  0  0  0
  -32.4207  -19.2063   25.1303 N   0  0  0  0  0  0  0  0  0  0  0  0
  -35.6174  -26.6989   19.5163 N   0  0  0  0  0  0  0  0  0  0  0  0
  -31.1182  -22.2177   17.0388 N   0  0  0  0  0  0  0  0  0  0  0  0
  -31.1490  -18.6351   17.5197 N   0  3  0  0  0  0  0  0  0  0  0  0
  -22.6345  -14.7608   21.2800 O   0  0  0  0  0  0  0  0  0  0  0  0
  -33.3058  -26.4474   19.6433 O   0  0  0  0  0  0  0  0  0  0  0  0
  -33.2136  -24.1364   16.6691 O   0  0  0  0  0  0  0  0  0  0  0  0
  -30.4357  -20.9902   18.8839 O   0  0  0  0  0  0  0  0  0  0  0  0
  -31.8442  -14.8563   20.2630 O   0  0  0  0  0  0  0  0  0  0  0  0
  -21.4890   -7.0760   21.7455 O   0  0  0  0  0  0  0  0  0  0  0  0
  -32.9268  -22.6252   25.0054 O   0  0  0  0  0  0  0  0  0  1  0  0
  -23.8359   -3.0281   24.6629 F   0  0  0  0  0  0  0  0  0  0  0  0
  -28.5304  -17.4447   23.0017 F   0  0  0  0  0  0  0  0  0  0  0  0
  -20.4022   -6.2454   24.1480 F   0  0  0  0  0  0  0  0  0  0  0  0
  1  2  1  0  0  0  0
  1  5  2  0  0  0  0
  2  6  2  0  0  0  0
  3 10  2  0  0  0  0
  3 18  1  0  0  0  0
  4 11  1  0  0  0  0
  4 18  2  0  0  0  0
  5 20  1  0  0  0  0
  6 22  1  0  0  0  0
  7 12  2  0  0  0  0
  7 21  1  0  0  0  0
  8  9  2  0  0  0  0
  8 24  1  0  0  0  0
  9 25  1  0  0  0  0
 10 26  1  0  0  0  0
 11 26  2  0  0  0  0
 12 27  1  0  0  0  0
 13 14  2  0  0  0  0
 13 28  1  0  0  0  0
 14 29  1  0  0  0  0
 15 23  1  0  0  0  0
 15 27  2  0  0  0  0
 16 24  2  0  0  0  0
 16 30  1  0  0  0  0
 17 29  2  0  0  0  0
 17 31  1  0  0  0  0
 18 32  1  0  0  0  0
 19 32  1  0  0  0  0
 19 33  2  0  0  0  0
 19 34  1  0  0  0  0
 20 22  2  0  0  0  0
 20 39  1  0  0  0  0
 21 23  2  0  0  0  0
 21 40  1  0  0  0  0
 22 48  1  0  0  0  0
 23 41  1  0  0  0  0
 24 69  1  0  0  0  0
 25 30  2  0  0  0  0
 25 68  1  0  0  0  0
 26 78  1  0  0  0  0
 27 79  1  0  0  0  0
 28 31  2  0  0  0  0
 28 78  1  0  0  0  0
 29 80  1  0  0  0  0
 30 81  1  0  0  0  0
 31 82  1  0  0  0  0
 32 62  2  0  0  0  0
 33 63  1  0  0  0  0
 33 66  1  0  0  0  0
 34 67  1  0  0  0  0
 34 73  2  0  0  0  0
 35 49  1  0  0  0  0
 35 70  1  0  0  0  0
 35 74  2  0  0  0  0
 36 59  1  0  0  0  0
 36 64  1  0  0  0  0
 36 75  2  0  0  0  0
 37 60  1  0  0  0  0
 37 71  1  0  0  0  0
 37 76  2  0  0  0  0
 38 65  1  0  0  0  0
 38 68  1  0  0  0  0
 38 77  2  0  0  0  0
 39 42  1  0  0  0  0
 40 49  1  0  0  0  0
 41 64  1  0  0  0  0
 42 44  1  0  0  0  0
 43 45  1  0  0  0  0
 43 46  1  0  0  0  0
 44 48  1  0  0  0  0
 45 50  1  0  0  0  0
 46 65  1  0  0  0  0
 47 50  1  0  0  0  0
 47 65  1  0  0  0  0
 48 70  1  0  0  0  0
 49 64  1  0  0  0  0
 50 63  1  0  0  0  0
 51 60  1  0  0  0  0
 52 61  1  0  0  0  0
 53 61  1  0  0  0  0
 54 61  1  0  0  0  0
 55 72  1  0  0  0  0
 56 57  1  0  0  0  0
 56 58  1  0  0  0  0
 57 69  1  0  0  0  0
 58 79  1  0  0  0  0
 59 61  1  0  0  0  0
 59 71  1  0  0  0  0
 60 72  1  0  0  0  0
 62 63  1  0  0  0  0
M  CHG  1  72   1
M  ISO  4  38 100  58 101  68 100  79 101
M  END
> <Batch ID>
0009

> <Smiles>
CNC(C)C(=O)NC(C(=O)N1Cc2cc([101O:1][101CH2:1]CCNc3ccc([100NH:0][100C:0](=O)N4CCCC(n5nc(-c6ccc(Oc7ccc(F)cc7F)cc6)c(C(N)=O)c5N)C4)c(F)c3)ccc2CC1C(=O)NC1CCCc2ccccc21)C(C)(C)C

> <Shape>
0.207

> <Color>
0.204

> <Negative vol penalty>
0.000

$$$$

  -OEChem-04052315383D

 82 90  0     1  0  0  0  0  0999 V2000
  -18.0559  -25.2788   21.6922 C   0  0  0  0  0  0  0  0  0  0  0  0
  -19.3124  -24.7971   22.0453 C   0  0  0  0  0  0  0  0  0  0  0  0
  -23.7189   -9.8738   21.6223 C   0  0  0  0  0  0  0  0  0  0  0  0
  -24.2642  -11.0080   23.6847 C   0  0  0  0  0  0  0  0  0  0  0  0
  -17.9327  -26.5379   21.1062 C   0  0  0  0  0  0  0  0  0  0  0  0
  -20.4466  -25.5739   21.8116 C   0  0  0  0  0  0  0  0  0  0  0  0
  -25.4882  -25.8638   25.2762 C   0  0  0  0  0  0  0  0  0  0  0  0
  -31.4390  -20.0003   21.4728 C   0  0  0  0  0  0  0  0  0  0  0  0
  -29.0957  -20.5665   21.6335 C   0  0  0  0  0  0  0  0  0  0  0  0
  -31.0996  -18.7177   21.0424 C   0  0  0  0  0  0  0  0  0  0  0  0
  -28.7564  -19.2838   21.2030 C   0  0  0  0  0  0  0  0  0  0  0  0
  -23.1738   -8.8150   22.3487 C   0  0  0  0  0  0  0  0  0  0  0  0
  -23.7191   -9.9492   24.4111 C   0  0  0  0  0  0  0  0  0  0  0  0
  -26.7341  -25.2467   25.1728 C   0  0  0  0  0  0  0  0  0  0  0  0
  -24.3015   -6.1234   24.0540 C   0  0  0  0  0  0  0  0  0  0  0  0
  -24.6318   -4.8279   23.6565 C   0  0  0  0  0  0  0  0  0  0  0  0
  -27.6045  -27.2036   24.0628 C   0  0  0  0  0  0  0  0  0  0  0  0
  -22.2954   -4.3517   23.2670 C   0  0  0  0  0  0  0  0  0  0  0  0
  -24.2641  -10.9702   22.2903 C   0  0  0  0  0  0  0  0  0  0  0  0
  -24.1591  -13.2156   21.0842 C   0  0  0  0  0  0  0  0  0  0  0  0
  -19.0650  -27.3345   20.8740 C   0  0  0  0  0  0  0  0  0  0  0  0
  -25.2878  -27.1533   24.7631 C   0  0  0  0  0  0  0  0  0  0  0  0
  -20.3385  -26.8443   21.2207 C   0  0  0  0  0  0  0  0  0  0  0  0
  -26.3557  -27.8359   24.1632 C   0  0  0  0  0  0  0  0  0  0  0  0
  -30.4370  -20.9247   21.7684 C   0  0  0  0  0  0  0  0  0  0  0  0
  -29.7583  -18.3595   20.9074 C   0  0  0  0  0  0  0  0  0  0  0  0
  -23.1739   -8.8528   23.7430 C   0  0  0  0  0  0  0  0  0  0  0  0
  -27.7917  -25.9155   24.5635 C   0  0  0  0  0  0  0  0  0  0  0  0
  -22.9681   -6.5331   24.0580 C   0  0  0  0  0  0  0  0  0  0  0  0
  -23.6288   -3.9420   23.2630 C   0  0  0  0  0  0  0  0  0  0  0  0
  -21.9651   -5.6473   23.6645 C   0  0  0  0  0  0  0  0  0  0  0  0
  -24.8278  -12.0639   21.5406 C   0  0  0  0  0  0  0  0  0  0  0  0
  -25.1274  -13.9388   20.4315 C   0  0  0  0  0  0  0  0  0  0  0  0
  -22.7857  -13.5977   21.2367 C   0  0  0  0  0  0  0  0  0  0  0  0
  -23.4280  -28.4073   22.5109 C   0  0  0  0  0  0  0  0  0  0  0  0
  -24.6307  -31.2066   23.6244 C   0  0  0  0  0  0  0  0  0  0  0  0
  -29.9171  -23.2650   22.5409 C   0  0  0  0  0  0  0  0  0  0  0  0
  -27.1510  -32.8340   25.2511 C   0  0  0  0  0  0  0  0  0  0  0  0
  -30.2835  -16.0196   20.1357 C   0  0  0  0  0  0  0  0  0  0  0  0
  -18.8866  -28.6692   20.1947 C   0  0  0  0  0  0  0  0  0  0  0  0
  -23.9449  -27.8155   24.9064 C   0  0  0  0  0  0  0  0  0  0  0  0
  -26.1980  -29.2296   23.6145 C   0  0  0  0  0  0  0  0  0  0  0  0
  -20.1008  -29.5855   20.3239 C   0  0  0  0  0  0  0  0  0  0  0  0
  -29.8265  -12.6588   19.0525 C   0  0  0  0  0  0  0  0  0  0  0  0
  -21.3830  -28.8193   20.0148 C   0  0  0  0  0  0  0  0  0  0  0  0
  -28.4303  -12.2992   19.5657 C   0  0  0  0  0  0  0  0  0  0  0  0
  -30.5787  -13.5543   20.0353 C   0  0  0  0  0  0  0  0  0  0  0  0
  -28.4610  -14.4045   20.9635 C   0  0  0  0  0  0  0  0  0  0  0  0
  -21.5900  -27.6675   21.0058 C   0  0  1  0  0  0  0  0  0  0  0  0
  -23.7167  -28.9299   23.8898 C   0  0  1  0  0  0  0  0  0  0  0  0
  -27.6402  -13.5567   19.9780 C   0  0  2  0  0  0  0  0  0  0  0  0
  -27.8708  -35.1264   25.9754 C   0  0  0  0  0  0  0  0  0  0  0  0
  -25.4357  -31.8581   20.7543 C   0  0  0  0  0  0  0  0  0  0  0  0
  -26.9465  -33.6392   21.6561 C   0  0  0  0  0  0  0  0  0  0  0  0
  -24.4851  -33.7850   22.0341 C   0  0  0  0  0  0  0  0  0  0  0  0
  -27.1326  -32.0636   28.1085 C   0  0  0  0  0  0  0  0  0  0  0  0
  -30.7058  -24.5000   22.9613 C   0  0  0  0  0  0  0  0  0  0  0  0
  -29.8179  -25.6751   23.3417 C   0  0  0  0  0  0  0  0  0  1  0  0
  -25.8330  -32.0590   23.2975 C   0  0  1  0  0  0  0  0  0  0  0  0
  -27.1306  -33.8583   26.3713 C   0  0  2  0  0  0  0  0  0  0  0  0
  -25.6778  -32.8083   21.9440 C   0  0  0  0  0  0  0  0  0  0  0  0
  -26.1208  -12.0518   21.2060 N   0  0  0  0  0  0  0  0  0  0  0  0
  -26.2724  -13.2047   20.5323 N   0  0  0  0  0  0  0  0  0  0  0  0
  -24.8640  -29.8321   23.7730 N   0  0  0  0  0  0  0  0  0  0  0  0
  -29.7712  -14.7273   20.3769 N   0  0  0  0  0  0  0  0  0  0  0  0
  -25.1024  -15.1246   19.7868 N   0  0  0  0  0  0  0  0  0  0  0  0
  -21.9268  -12.7384   21.9355 N   0  0  0  0  0  0  0  0  0  0  0  0
  -30.7811  -22.2260   22.2056 N   0  0  0  0  0  0  0  0  0  0  0  0
  -29.4132  -17.0566   20.4702 N   0  0  0  0  0  0  0  0  0  0  0  0
  -22.0885  -28.1703   22.2681 N   0  0  0  0  0  0  0  0  0  0  0  0
  -26.0363  -32.9356   24.4459 N   0  0  0  0  0  0  0  0  0  0  0  0
  -27.7742  -33.3010   27.5945 N   0  3  0  0  0  0  0  0  0  0  0  0
  -22.3296  -14.6615   20.7531 O   0  0  0  0  0  0  0  0  0  0  0  0
  -24.3520  -28.2336   21.7249 O   0  0  0  0  0  0  0  0  0  0  0  0
  -23.5264  -31.7417   23.7506 O   0  0  0  0  0  0  0  0  0  0  0  0
  -28.6909  -23.2493   22.5204 O   0  0  0  0  0  0  0  0  0  0  0  0
  -28.0663  -32.0273   25.1028 O   0  0  0  0  0  0  0  0  0  0  0  0
  -31.4005  -16.1930   19.6416 O   0  0  0  0  0  0  0  0  0  0  0  0
  -22.6419   -7.8200   24.4521 O   0  0  0  0  0  0  0  0  0  0  0  0
  -29.0087  -25.3153   24.4607 O   0  0  0  0  0  0  0  0  0  1  0  0
  -23.9463   -2.6984   22.8799 F   0  0  0  0  0  0  0  0  0  0  0  0
  -20.6825   -6.0355   23.6652 F   0  0  0  0  0  0  0  0  0  0  0  0
  1  2  1  0  0  0  0
  1  5  2  0  0  0  0
  2  6  2  0  0  0  0
  3 12  2  0  0  0  0
  3 19  1  0  0  0  0
  4 13  1  0  0  0  0
  4 19  2  0  0  0  0
  5 21  1  0  0  0  0
  6 23  1  0  0  0  0
  7 14  2  0  0  0  0
  7 22  1  0  0  0  0
  8 10  2  0  0  0  0
  8 25  1  0  0  0  0
  9 11  1  0  0  0  0
  9 25  2  0  0  0  0
 10 26  1  0  0  0  0
 11 26  2  0  0  0  0
 12 27  1  0  0  0  0
 13 27  2  0  0  0  0
 14 28  1  0  0  0  0
 15 16  2  0  0  0  0
 15 29  1  0  0  0  0
 16 30  1  0  0  0  0
 17 24  1  0  0  0  0
 17 28  2  0  0  0  0
 18 30  2  0  0  0  0
 18 31  1  0  0  0  0
 19 32  1  0  0  0  0
 20 32  1  0  0  0  0
 20 33  2  0  0  0  0
 20 34  1  0  0  0  0
 21 23  2  0  0  0  0
 21 40  1  0  0  0  0
 22 24  2  0  0  0  0
 22 41  1  0  0  0  0
 23 49  1  0  0  0  0
 24 42  1  0  0  0  0
 25 68  1  0  0  0  0
 26 69  1  0  0  0  0
 27 79  1  0  0  0  0
 28 80  1  0  0  0  0
 29 31  2  0  0  0  0
 29 79  1  0  0  0  0
 30 81  1  0  0  0  0
 31 82  1  0  0  0  0
 32 62  2  0  0  0  0
 33 63  1  0  0  0  0
 33 66  1  0  0  0  0
 34 67  1  0  0  0  0
 34 73  2  0  0  0  0
 35 50  1  0  0  0  0
 35 70  1  0  0  0  0
 35 74  2  0  0  0  0
 36 59  1  0  0  0  0
 36 64  1  0  0  0  0
 36 75  2  0  0  0  0
 37 57  1  0  0  0  0
 37 68  1  0  0  0  0
 37 76  2  0  0  0  0
 38 60  1  0  0  0  0
 38 71  1  0  0  0  0
 38 77  2  0  0  0  0
 39 65  1  0  0  0  0
 39 69  1  0  0  0  0
 39 78  2  0  0  0  0
 40 43  1  0  0  0  0
 41 50  1  0  0  0  0
 42 64  1  0  0  0  0
 43 45  1  0  0  0  0
 44 46  1  0  0  0  0
 44 47  1  0  0  0  0
 45 49  1  0  0  0  0
 46 51  1  0  0  0  0
 47 65  1  0  0  0  0
 48 51  1  0  0  0  0
 48 65  1  0  0  0  0
 49 70  1  0  0  0  0
 50 64  1  0  0  0  0
 51 63  1  0  0  0  0
 52 60  1  0  0  0  0
 53 61  1  0  0  0  0
 54 61  1  0  0  0  0
 55 61  1  0  0  0  0
 56 72  1  0  0  0  0
 57 58  1  0  0  0  0
 58 80  1  0  0  0  0
 59 61  1  0  0  0  0
 59 71  1  0  0  0  0
 60 72  1  0  0  0  0
 62 63  1  0  0  0  0
M  CHG  1  72   1
M  ISO  4  39 100  58 101  69 100  80 101
M  END
> <Batch ID>
0009

> <Smiles>
CNC(C)C(=O)NC(C(=O)N1Cc2cc([101O:1][101CH2:1]CC(=O)Nc3ccc([100NH:0][100C:0](=O)N4CCCC(n5nc(-c6ccc(Oc7ccc(F)cc7F)cc6)c(C(N)=O)c5N)C4)cc3)ccc2CC1C(=O)NC1CCCc2ccccc21)C(C)(C)C

> <Shape>
0.282

> <Color>
0.134

> <Negative vol penalty>
0.000

$$$$

  -OEChem-04052315383D

 84 92  0     1  0  0  0  0  0999 V2000
  -28.8145  -15.1871   25.2140 C   0  0  0  0  0  0  0  0  0  0  0  0
  -28.8010  -16.0491   24.3782 C   0  0  0  0  0  0  0  0  0  0  0  0
  -30.4736  -30.5373   14.6232 C   0  0  0  0  0  0  0  0  0  0  0  0
  -31.1031  -29.7168   15.5538 C   0  0  0  0  0  0  0  0  0  0  0  0
  -22.9179  -10.0673   19.9723 C   0  0  0  0  0  0  0  0  0  0  0  0
  -23.7235   -9.9437   22.2467 C   0  0  0  0  0  0  0  0  0  0  0  0
  -29.1092  -30.8005   14.7379 C   0  0  0  0  0  0  0  0  0  0  0  0
  -30.3688  -29.1600   16.6003 C   0  0  0  0  0  0  0  0  0  0  0  0
  -31.1988  -23.6590   19.1609 C   0  0  0  0  0  0  0  0  0  0  0  0
  -32.7694  -18.0986   22.1227 C   0  0  0  0  0  0  0  0  0  0  0  0
  -32.1733  -16.9297   21.6497 C   0  0  0  0  0  0  0  0  0  0  0  0
  -22.1115   -8.9518   20.1972 C   0  0  0  0  0  0  0  0  0  0  0  0
  -22.9170   -8.8281   22.4717 C   0  0  0  0  0  0  0  0  0  0  0  0
  -31.8558  -23.2544   20.3220 C   0  0  0  0  0  0  0  0  0  0  0  0
  -22.9965   -5.5178   21.7885 C   0  0  0  0  0  0  0  0  0  0  0  0
  -23.5639   -4.4318   22.4549 C   0  0  0  0  0  0  0  0  0  0  0  0
  -29.7590  -23.2913   21.5142 C   0  0  0  0  0  0  0  0  0  0  0  0
  -30.7729  -18.6060   23.3851 C   0  0  0  0  0  0  0  0  0  0  0  0
  -21.9111   -4.6420   24.2046 C   0  0  0  0  0  0  0  0  0  0  0  0
  -23.7240  -10.5633   20.9970 C   0  0  0  0  0  0  0  0  0  0  0  0
  -24.2143  -13.0665   20.9604 C   0  0  0  0  0  0  0  0  0  0  0  0
  -28.3558  -30.2388   15.7807 C   0  0  0  0  0  0  0  0  0  0  0  0
  -29.8163  -23.8937   19.1703 C   0  0  0  0  0  0  0  0  0  0  0  0
  -28.9934  -29.4170   16.7297 C   0  0  0  0  0  0  0  0  0  0  0  0
  -29.0863  -23.6963   20.3511 C   0  0  0  0  0  0  0  0  0  0  0  0
  -30.1768  -17.4370   22.9120 C   0  0  0  0  0  0  0  0  0  0  0  0
  -32.0693  -18.9368   22.9905 C   0  0  0  0  0  0  0  0  0  0  0  0
  -30.8770  -16.5989   22.0443 C   0  0  0  0  0  0  0  0  0  0  0  0
  -22.1109   -8.3321   21.4469 C   0  0  0  0  0  0  0  0  0  0  0  0
  -31.1364  -23.0733   21.4996 C   0  0  0  0  0  0  0  0  0  0  0  0
  -21.8865   -6.1661   22.3301 C   0  0  0  0  0  0  0  0  0  0  0  0
  -23.0212   -3.9938   23.6629 C   0  0  0  0  0  0  0  0  0  0  0  0
  -21.3438   -5.7281   23.5381 C   0  0  0  0  0  0  0  0  0  0  0  0
  -24.5578  -11.7153   20.7650 C   0  0  0  0  0  0  0  0  0  0  0  0
  -25.3418  -13.7630   20.5998 C   0  0  0  0  0  0  0  0  0  0  0  0
  -22.9859  -13.6406   21.4262 C   0  0  0  0  0  0  0  0  0  0  0  0
  -27.9669  -26.4233   18.6369 C   0  0  0  0  0  0  0  0  0  0  0  0
  -25.5765  -24.2509   18.9362 C   0  0  0  0  0  0  0  0  0  0  0  0
  -24.5268  -21.2511   20.1796 C   0  0  0  0  0  0  0  0  0  0  0  0
  -30.8634  -14.4757   20.6885 C   0  0  0  0  0  0  0  0  0  0  0  0
  -26.8933  -30.5902   15.8906 C   0  0  0  0  0  0  0  0  0  0  0  0
  -29.1181  -24.3040   17.9028 C   0  0  0  0  0  0  0  0  0  0  0  0
  -27.5973  -23.9154   20.4090 C   0  0  0  0  0  0  0  0  0  0  0  0
  -26.1108  -29.6593   16.8133 C   0  0  0  0  0  0  0  0  0  0  0  0
  -29.5580  -12.2222   18.2605 C   0  0  0  0  0  0  0  0  0  0  0  0
  -26.8686  -29.4412   18.1191 C   0  0  0  0  0  0  0  0  0  0  0  0
  -28.1125  -12.0006   18.7117 C   0  0  0  0  0  0  0  0  0  0  0  0
  -30.5095  -12.3514   19.4487 C   0  0  0  0  0  0  0  0  0  0  0  0
  -28.6780  -13.1355   20.8979 C   0  0  0  0  0  0  0  0  0  0  0  0
  -28.2258  -28.7744   17.8646 C   0  0  1  0  0  0  0  0  0  0  0  0
  -27.7901  -25.0114   18.1542 C   0  0  1  0  0  0  0  0  0  0  0  0
  -27.6727  -13.0642   19.7369 C   0  0  2  0  0  0  0  0  0  0  0  0
  -22.5097  -19.7625   20.2918 C   0  0  0  0  0  0  0  0  0  0  0  0
  -24.3456  -26.0819   21.0439 C   0  0  0  0  0  0  0  0  0  0  0  0
  -22.9168  -24.1612   21.7774 C   0  0  0  0  0  0  0  0  0  0  0  0
  -22.7011  -25.0604   19.4606 C   0  0  0  0  0  0  0  0  0  0  0  0
  -34.0285  -20.4592   23.0535 C   0  0  0  0  0  0  0  0  0  0  0  0
  -25.9216  -19.0595   18.7618 C   0  0  0  0  0  0  0  0  0  0  0  0
  -28.7875  -17.1068   23.3525 C   0  0  0  0  0  0  0  0  0  0  0  0
  -31.9659  -21.0074   24.3550 C   0  0  0  0  0  0  0  0  0  0  0  0
  -31.0242  -21.9018   23.5663 C   0  0  0  0  0  0  0  0  0  1  0  0
  -24.7521  -23.7199   20.0839 C   0  0  1  0  0  0  0  0  0  0  0  0
  -23.7838  -20.0967   19.5318 C   0  0  2  0  0  0  0  0  0  0  0  0
  -23.7073  -24.7535   20.5912 C   0  0  0  0  0  0  0  0  0  0  0  0
  -25.8058  -11.5604   20.3151 N   0  0  0  0  0  0  0  0  0  0  0  0
  -26.2564  -12.8233   20.2246 N   0  0  0  0  0  0  0  0  0  0  0  0
  -26.9611  -24.3221   19.1451 N   0  0  0  0  0  0  0  0  0  0  0  0
  -30.0314  -13.3800   20.3751 N   0  0  0  0  0  0  0  0  0  0  0  0
  -25.6302  -15.0814   20.5701 N   0  0  0  0  0  0  0  0  0  0  0  0
  -21.9283  -12.7810   21.7533 N   0  0  0  0  0  0  0  0  0  0  0  0
  -30.2895  -15.4062   21.5542 N   0  0  0  0  0  0  0  0  0  0  0  0
  -28.0554  -27.3577   17.6227 N   0  0  0  0  0  0  0  0  0  0  0  0
  -24.1735  -22.4623   19.6232 N   0  0  0  0  0  0  0  0  0  0  0  0
  -32.6685  -20.1108   23.4660 N   0  0  3  0  0  0  0  0  0  0  0  0
  -24.6442  -18.8803   19.4989 N   0  3  0  0  0  0  0  0  0  0  0  0
  -22.8251  -14.8801   21.5332 O   0  0  0  0  0  0  0  0  0  0  0  0
  -28.0176  -26.6485   19.8404 O   0  0  0  0  0  0  0  0  0  0  0  0
  -25.0136  -24.5835   17.8902 O   0  0  0  0  0  0  0  0  0  0  0  0
  -25.3366  -21.0946   21.0907 O   0  0  0  0  0  0  0  0  0  0  0  0
  -31.9908  -14.5946   20.2019 O   0  0  0  0  0  0  0  0  0  0  0  0
  -21.3239   -7.2437   21.6669 O   0  0  0  0  0  0  0  0  0  0  0  0
  -31.7754  -22.6790   22.6346 O   0  0  0  0  0  0  0  0  0  1  0  0
  -23.5652   -2.9499   24.3020 F   0  0  0  0  0  0  0  0  0  0  0  0
  -20.2768   -6.3461   24.0628 F   0  0  0  0  0  0  0  0  0  0  0  0
  1  2  3  0  0  0  0
  2 59  1  0  0  0  0
  3  4  1  0  0  0  0
  3  7  2  0  0  0  0
  4  8  2  0  0  0  0
  5 12  2  0  0  0  0
  5 20  1  0  0  0  0
  6 13  1  0  0  0  0
  6 20  2  0  0  0  0
  7 22  1  0  0  0  0
  8 24  1  0  0  0  0
  9 14  2  0  0  0  0
  9 23  1  0  0  0  0
 10 11  2  0  0  0  0
 10 27  1  0  0  0  0
 11 28  1  0  0  0  0
 12 29  1  0  0  0  0
 13 29  2  0  0  0  0
 14 30  1  0  0  0  0
 15 16  2  0  0  0  0
 15 31  1  0  0  0  0
 16 32  1  0  0  0  0
 17 25  1  0  0  0  0
 17 30  2  0  0  0  0
 18 26  1  0  0  0  0
 18 27  2  0  0  0  0
 19 32  2  0  0  0  0
 19 33  1  0  0  0  0
 20 34  1  0  0  0  0
 21 34  1  0  0  0  0
 21 35  2  0  0  0  0
 21 36  1  0  0  0  0
 22 24  2  0  0  0  0
 22 41  1  0  0  0  0
 23 25  2  0  0  0  0
 23 42  1  0  0  0  0
 24 50  1  0  0  0  0
 25 43  1  0  0  0  0
 26 28  2  0  0  0  0
 26 59  1  0  0  0  0
 27 74  1  0  0  0  0
 28 71  1  0  0  0  0
 29 81  1  0  0  0  0
 30 82  1  0  0  0  0
 31 33  2  0  0  0  0
 31 81  1  0  0  0  0
 32 83  1  0  0  0  0
 33 84  1  0  0  0  0
 34 65  2  0  0  0  0
 35 66  1  0  0  0  0
 35 69  1  0  0  0  0
 36 70  1  0  0  0  0
 36 76  2  0  0  0  0
 37 51  1  0  0  0  0
 37 72  1  0  0  0  0
 37 77  2  0  0  0  0
 38 62  1  0  0  0  0
 38 67  1  0  0  0  0
 38 78  2  0  0  0  0
 39 63  1  0  0  0  0
 39 73  1  0  0  0  0
 39 79  2  0  0  0  0
 40 68  1  0  0  0  0
 40 71  1  0  0  0  0
 40 80  2  0  0  0  0
 41 44  1  0  0  0  0
 42 51  1  0  0  0  0
 43 67  1  0  0  0  0
 44 46  1  0  0  0  0
 45 47  1  0  0  0  0
 45 48  1  0  0  0  0
 46 50  1  0  0  0  0
 47 52  1  0  0  0  0
 48 68  1  0  0  0  0
 49 52  1  0  0  0  0
 49 68  1  0  0  0  0
 50 72  1  0  0  0  0
 51 67  1  0  0  0  0
 52 66  1  0  0  0  0
 53 63  1  0  0  0  0
 54 64  1  0  0  0  0
 55 64  1  0  0  0  0
 56 64  1  0  0  0  0
 57 74  1  0  0  0  0
 58 75  1  0  0  0  0
 60 61  1  0  0  0  0
 60 74  1  0  0  0  0
 61 82  1  0  0  0  0
 62 64  1  0  0  0  0
 62 73  1  0  0  0  0
 63 75  1  0  0  0  0
 65 66  1  0  0  0  0
M  CHG  1  75   1
M  ISO  4  40 100  61 101  71 100  82 101
M  END
> <Batch ID>
0009

> <Smiles>
C#CCc1cc(N(C)C[101CH2:1][101O:1]c2ccc3c(c2)CN(C(=O)C(NC(=O)C(C)NC)C(C)(C)C)C(C(=O)NC2CCCc4ccccc42)C3)ccc1[100NH:0][100C:0](=O)N1CCCC(n2nc(-c3ccc(Oc4ccc(F)cc4F)cc3)c(C(N)=O)c2N)C1

> <Shape>
0.230

> <Color>
0.215

> <Negative vol penalty>
0.000

$$$$

  -OEChem-04052315383D

 82 90  0     1  0  0  0  0  0999 V2000
  -40.1408  -23.5651   19.7448 C   0  0  0  0  0  0  0  0  0  0  0  0
  -38.7805  -23.3514   19.9429 C   0  0  0  0  0  0  0  0  0  0  0  0
  -23.0929   -9.8327   19.9523 C   0  0  0  0  0  0  0  0  0  0  0  0
  -23.8438   -9.8724   22.2484 C   0  0  0  0  0  0  0  0  0  0  0  0
  -40.6600  -24.8571   19.8164 C   0  0  0  0  0  0  0  0  0  0  0  0
  -37.9387  -24.4295   20.2137 C   0  0  0  0  0  0  0  0  0  0  0  0
  -33.6399  -24.2567   17.5424 C   0  0  0  0  0  0  0  0  0  0  0  0
  -22.3615   -8.6737   20.2115 C   0  0  0  0  0  0  0  0  0  0  0  0
  -23.1123   -8.7134   22.5076 C   0  0  0  0  0  0  0  0  0  0  0  0
  -32.6495  -23.3813   17.9858 C   0  0  0  0  0  0  0  0  0  0  0  0
  -19.8912   -7.8845   23.1062 C   0  0  0  0  0  0  0  0  0  0  0  0
  -19.1303   -7.8480   24.2746 C   0  0  0  0  0  0  0  0  0  0  0  0
  -31.4943  -25.2253   19.0270 C   0  0  0  0  0  0  0  0  0  0  0  0
  -29.6092  -19.3520   22.2922 C   0  0  0  0  0  0  0  0  0  0  0  0
  -31.0791  -17.7436   20.5502 C   0  0  0  0  0  0  0  0  0  0  0  0
  -20.3911   -5.9328   25.0360 C   0  0  0  0  0  0  0  0  0  0  0  0
  -23.8341  -10.4321   20.9707 C   0  0  0  0  0  0  0  0  0  0  0  0
  -24.1472  -12.9596   20.8256 C   0  0  0  0  0  0  0  0  0  0  0  0
  -39.8226  -25.9528   20.0786 C   0  0  0  0  0  0  0  0  0  0  0  0
  -33.5705  -25.6235   17.8478 C   0  0  0  0  0  0  0  0  0  0  0  0
  -38.4473  -25.7373   20.2902 C   0  0  0  0  0  0  0  0  0  0  0  0
  -32.4837  -26.1164   18.5842 C   0  0  0  0  0  0  0  0  0  0  0  0
  -29.4431  -17.9673   22.3138 C   0  0  0  0  0  0  0  0  0  0  0  0
  -30.1781  -17.1630   21.4428 C   0  0  0  0  0  0  0  0  0  0  0  0
  -22.3711   -8.1140   21.4891 C   0  0  0  0  0  0  0  0  0  0  0  0
  -31.5780  -23.8651   18.7307 C   0  0  0  0  0  0  0  0  0  0  0  0
  -20.9021   -6.9451   22.9026 C   0  0  0  0  0  0  0  0  0  0  0  0
  -30.5101  -19.9326   21.3995 C   0  0  0  0  0  0  0  0  0  0  0  0
  -19.3802   -6.8722   25.2395 C   0  0  0  0  0  0  0  0  0  0  0  0
  -31.2451  -19.1284   20.5285 C   0  0  0  0  0  0  0  0  0  0  0  0
  -21.1521   -5.9693   23.8675 C   0  0  0  0  0  0  0  0  0  0  0  0
  -24.5904  -11.6290   20.7035 C   0  0  0  0  0  0  0  0  0  0  0  0
  -25.2321  -13.7179   20.4587 C   0  0  0  0  0  0  0  0  0  0  0  0
  -22.8692  -13.4650   21.2344 C   0  0  0  0  0  0  0  0  0  0  0  0
  -35.3933  -27.6527   19.4798 C   0  0  0  0  0  0  0  0  0  0  0  0
  -33.2922  -29.8468   18.3423 C   0  0  0  0  0  0  0  0  0  0  0  0
  -30.1727  -30.5143   17.1301 C   0  0  0  0  0  0  0  0  0  0  0  0
  -30.6851  -14.8286   20.6430 C   0  0  0  0  0  0  0  0  0  0  0  0
  -40.4373  -27.3253   20.1932 C   0  0  0  0  0  0  0  0  0  0  0  0
  -34.6330  -26.5590   17.3394 C   0  0  0  0  0  0  0  0  0  0  0  0
  -32.3521  -27.5783   18.9215 C   0  0  0  0  0  0  0  0  0  0  0  0
  -39.4172  -28.4581   20.1136 C   0  0  0  0  0  0  0  0  0  0  0  0
  -29.6079  -12.3775   18.2959 C   0  0  0  0  0  0  0  0  0  0  0  0
  -38.2188  -28.1613   21.0095 C   0  0  0  0  0  0  0  0  0  0  0  0
  -28.1700  -12.0737   18.7231 C   0  0  0  0  0  0  0  0  0  0  0  0
  -30.5156  -12.6294   19.4986 C   0  0  0  0  0  0  0  0  0  0  0  0
  -28.5950  -13.3460   20.8650 C   0  0  0  0  0  0  0  0  0  0  0  0
  -37.4980  -26.8841   20.5616 C   0  0  1  0  0  0  0  0  0  0  0  0
  -34.7287  -27.8498   18.1467 C   0  0  1  0  0  0  0  0  0  0  0  0
  -27.6289  -13.1493   19.6854 C   0  0  2  0  0  0  0  0  0  0  0  0
  -28.4710  -17.3727   23.2804 C   0  0  0  0  0  0  0  0  0  0  0  0
  -28.7365  -32.4071   16.3224 C   0  0  0  0  0  0  0  0  0  0  0  0
  -32.8730  -30.7555   21.2247 C   0  0  0  0  0  0  0  0  0  0  0  0
  -30.7966  -31.9375   20.4766 C   0  0  0  0  0  0  0  0  0  0  0  0
  -33.0144  -32.6125   19.5556 C   0  0  0  0  0  0  0  0  0  0  0  0
  -29.8833  -29.3025   14.4455 C   0  0  0  0  0  0  0  0  0  0  0  0
  -29.9498  -23.3476   20.3851 C   0  0  0  0  0  0  0  0  0  1  0  0
  -29.5196  -22.0712   21.0818 C   0  0  0  0  0  0  0  0  0  0  0  0
  -31.9828  -30.4232   18.8240 C   0  0  1  0  0  0  0  0  0  0  0  0
  -29.7101  -31.3094   15.9225 C   0  0  2  0  0  0  0  0  0  0  0  0
  -32.1699  -31.4043   20.0157 C   0  0  0  0  0  0  0  0  0  0  0  0
  -25.8579  -11.5435   20.2910 N   0  0  0  0  0  0  0  0  0  0  0  0
  -26.2204  -12.8300   20.1507 N   0  0  0  0  0  0  0  0  0  0  0  0
  -33.4196  -28.4520   18.4071 N   0  0  0  0  0  0  0  0  0  0  0  0
  -29.9413  -13.6627   20.3630 N   0  0  0  0  0  0  0  0  0  0  0  0
  -25.4273  -15.0509   20.3725 N   0  0  0  0  0  0  0  0  0  0  0  0
  -21.8666  -12.5477   21.5773 N   0  0  0  0  0  0  0  0  0  0  0  0
  -30.0239  -15.7545   21.4493 N   0  0  0  0  0  0  0  0  0  0  0  0
  -36.6772  -27.1482   19.3993 N   0  0  0  0  0  0  0  0  0  0  0  0
  -31.3440  -31.0180   17.6551 N   0  0  0  0  0  0  0  0  0  0  0  0
  -29.0326  -30.4148   14.9418 N   0  3  0  0  0  0  0  0  0  0  0  0
  -22.6186  -14.6933   21.2779 O   0  0  0  0  0  0  0  0  0  0  0  0
  -34.7868  -27.9388   20.5055 O   0  0  0  0  0  0  0  0  0  0  0  0
  -34.1670  -30.6055   17.9172 O   0  0  0  0  0  0  0  0  0  0  0  0
  -29.5546  -29.5458   17.5665 O   0  0  0  0  0  0  0  0  0  0  0  0
  -31.8139  -15.0055   20.1779 O   0  0  0  0  0  0  0  0  0  0  0  0
  -21.6573   -6.9832   21.7425 O   0  0  0  0  0  0  0  0  0  0  0  0
  -30.6103  -23.0127   19.1653 O   0  0  0  0  0  0  0  0  0  1  0  0
  -30.6724  -21.2929   21.3792 O   0  0  0  0  0  0  0  0  0  0  0  0
  -18.6504   -6.8382   26.3622 F   0  0  0  0  0  0  0  0  0  0  0  0
  -32.1123  -19.6804   19.6687 F   0  0  0  0  0  0  0  0  0  0  0  0
  -22.1226   -5.0650   23.6781 F   0  0  0  0  0  0  0  0  0  0  0  0
  1  2  1  0  0  0  0
  1  5  2  0  0  0  0
  2  6  2  0  0  0  0
  3  8  2  0  0  0  0
  3 17  1  0  0  0  0
  4  9  1  0  0  0  0
  4 17  2  0  0  0  0
  5 19  1  0  0  0  0
  6 21  1  0  0  0  0
  7 10  2  0  0  0  0
  7 20  1  0  0  0  0
  8 25  1  0  0  0  0
  9 25  2  0  0  0  0
 10 26  1  0  0  0  0
 11 12  2  0  0  0  0
 11 27  1  0  0  0  0
 12 29  1  0  0  0  0
 13 22  1  0  0  0  0
 13 26  2  0  0  0  0
 14 23  2  0  0  0  0
 14 28  1  0  0  0  0
 15 24  2  0  0  0  0
 15 30  1  0  0  0  0
 16 29  2  0  0  0  0
 16 31  1  0  0  0  0
 17 32  1  0  0  0  0
 18 32  1  0  0  0  0
 18 33  2  0  0  0  0
 18 34  1  0  0  0  0
 19 21  2  0  0  0  0
 19 39  1  0  0  0  0
 20 22  2  0  0  0  0
 20 40  1  0  0  0  0
 21 48  1  0  0  0  0
 22 41  1  0  0  0  0
 23 24  1  0  0  0  0
 23 51  1  0  0  0  0
 24 68  1  0  0  0  0
 25 77  1  0  0  0  0
 26 78  1  0  0  0  0
 27 31  2  0  0  0  0
 27 77  1  0  0  0  0
 28 30  2  0  0  0  0
 28 79  1  0  0  0  0
 29 80  1  0  0  0  0
 30 81  1  0  0  0  0
 31 82  1  0  0  0  0
 32 62  2  0  0  0  0
 33 63  1  0  0  0  0
 33 66  1  0  0  0  0
 34 67  1  0  0  0  0
 34 72  2  0  0  0  0
 35 49  1  0  0  0  0
 35 69  1  0  0  0  0
 35 73  2  0  0  0  0
 36 59  1  0  0  0  0
 36 64  1  0  0  0  0
 36 74  2  0  0  0  0
 37 60  1  0  0  0  0
 37 70  1  0  0  0  0
 37 75  2  0  0  0  0
 38 65  1  0  0  0  0
 38 68  1  0  0  0  0
 38 76  2  0  0  0  0
 39 42  1  0  0  0  0
 40 49  1  0  0  0  0
 41 64  1  0  0  0  0
 42 44  1  0  0  0  0
 43 45  1  0  0  0  0
 43 46  1  0  0  0  0
 44 48  1  0  0  0  0
 45 50  1  0  0  0  0
 46 65  1  0  0  0  0
 47 50  1  0  0  0  0
 47 65  1  0  0  0  0
 48 69  1  0  0  0  0
 49 64  1  0  0  0  0
 50 63  1  0  0  0  0
 52 60  1  0  0  0  0
 53 61  1  0  0  0  0
 54 61  1  0  0  0  0
 55 61  1  0  0  0  0
 56 71  1  0  0  0  0
 57 58  1  0  0  0  0
 57 78  1  0  0  0  0
 58 79  1  0  0  0  0
 59 61  1  0  0  0  0
 59 70  1  0  0  0  0
 60 71  1  0  0  0  0
 62 63  1  0  0  0  0
M  CHG  1  71   1
M  ISO  4  38 100  57 101  68 100  78 101
M  END
> <Batch ID>
0009

> <Smiles>
CNC(C)C(=O)NC(C(=O)N1Cc2cc([101O:1][101CH2:1]COc3cc(C)c([100NH:0][100C:0](=O)N4CCCC(n5nc(-c6ccc(Oc7ccc(F)cc7F)cc6)c(C(N)=O)c5N)C4)cc3F)ccc2CC1C(=O)NC1CCCc2ccccc21)C(C)(C)C

> <Shape>
0.213

> <Color>
0.197

> <Negative vol penalty>
0.000

$$$$

  -OEChem-04052315383D

 83 91  0     1  0  0  0  0  0999 V2000
  -30.8515  -31.8179   24.9125 C   0  0  0  0  0  0  0  0  0  0  0  0
  -30.3588  -30.6859   24.2712 C   0  0  0  0  0  0  0  0  0  0  0  0
  -24.6249   -8.9677   21.3589 C   0  0  0  0  0  0  0  0  0  0  0  0
  -23.3467  -10.8314   22.2130 C   0  0  0  0  0  0  0  0  0  0  0  0
  -29.9790  -32.6705   25.5875 C   0  0  0  0  0  0  0  0  0  0  0  0
  -28.9933  -30.4053   24.3055 C   0  0  0  0  0  0  0  0  0  0  0  0
  -27.1795  -29.0256   19.7831 C   0  0  0  0  0  0  0  0  0  0  0  0
  -27.7948  -20.3729   20.1270 C   0  0  0  0  0  0  0  0  0  0  0  0
  -28.2153  -19.0566   20.3168 C   0  0  0  0  0  0  0  0  0  0  0  0
  -24.0726   -8.1406   22.3369 C   0  0  0  0  0  0  0  0  0  0  0  0
  -22.7943  -10.0044   23.1910 C   0  0  0  0  0  0  0  0  0  0  0  0
  -27.4304  -27.7184   19.3683 C   0  0  0  0  0  0  0  0  0  0  0  0
  -21.1664   -6.4914   22.8536 C   0  0  0  0  0  0  0  0  0  0  0  0
  -20.7144   -5.2325   22.4583 C   0  0  0  0  0  0  0  0  0  0  0  0
  -25.2031  -27.0833   20.0428 C   0  0  0  0  0  0  0  0  0  0  0  0
  -25.7527  -19.8935   21.3257 C   0  0  0  0  0  0  0  0  0  0  0  0
  -22.2710   -4.1937   23.9863 C   0  0  0  0  0  0  0  0  0  0  0  0
  -24.2620  -10.3131   21.2969 C   0  0  0  0  0  0  0  0  0  0  0  0
  -24.3275  -11.4134   18.9963 C   0  0  0  0  0  0  0  0  0  0  0  0
  -28.6009  -32.4054   25.6219 C   0  0  0  0  0  0  0  0  0  0  0  0
  -25.9402  -29.3696   20.3419 C   0  0  0  0  0  0  0  0  0  0  0  0
  -28.1017  -31.2545   24.9827 C   0  0  0  0  0  0  0  0  0  0  0  0
  -24.9381  -28.3962   20.4616 C   0  0  0  0  0  0  0  0  0  0  0  0
  -26.5635  -20.7914   20.6315 C   0  0  0  0  0  0  0  0  0  0  0  0
  -27.4045  -18.1587   21.0111 C   0  0  0  0  0  0  0  0  0  0  0  0
  -23.1573   -8.6590   23.2529 C   0  0  0  0  0  0  0  0  0  0  0  0
  -26.4431  -26.7464   19.5008 C   0  0  0  0  0  0  0  0  0  0  0  0
  -22.1708   -6.6016   23.8153 C   0  0  0  0  0  0  0  0  0  0  0  0
  -26.1732  -18.5771   21.5156 C   0  0  0  0  0  0  0  0  0  0  0  0
  -21.2667   -4.0836   23.0246 C   0  0  0  0  0  0  0  0  0  0  0  0
  -22.7231   -5.4527   24.3816 C   0  0  0  0  0  0  0  0  0  0  0  0
  -24.8327  -11.1681   20.2872 C   0  0  0  0  0  0  0  0  0  0  0  0
  -25.2265  -12.2878   18.4362 C   0  0  0  0  0  0  0  0  0  0  0  0
  -23.1507  -10.8972   18.3604 C   0  0  0  0  0  0  0  0  0  0  0  0
  -24.9813  -30.4768   23.1630 C   0  0  0  0  0  0  0  0  0  0  0  0
  -22.1043  -30.6598   21.6758 C   0  0  0  0  0  0  0  0  0  0  0  0
  -26.8133  -23.1444   19.7741 C   0  0  0  0  0  0  0  0  0  0  0  0
  -20.0588  -29.5546   19.1776 C   0  0  0  0  0  0  0  0  0  0  0  0
  -29.0413  -16.2613   20.7520 C   0  0  0  0  0  0  0  0  0  0  0  0
  -27.7029  -33.3308   26.4041 C   0  0  0  0  0  0  0  0  0  0  0  0
  -25.6761  -30.7901   20.7598 C   0  0  0  0  0  0  0  0  0  0  0  0
  -23.5838  -28.7187   21.0363 C   0  0  0  0  0  0  0  0  0  0  0  0
  -26.2215  -33.1634   26.0760 C   0  0  0  0  0  0  0  0  0  0  0  0
  -29.8477  -13.5317   18.6128 C   0  0  0  0  0  0  0  0  0  0  0  0
  -25.8425  -31.6859   26.0575 C   0  0  0  0  0  0  0  0  0  0  0  0
  -28.6048  -12.6412   18.6771 C   0  0  0  0  0  0  0  0  0  0  0  0
  -30.1497  -14.1824   19.9615 C   0  0  0  0  0  0  0  0  0  0  0  0
  -27.7837  -14.0211   20.6287 C   0  0  0  0  0  0  0  0  0  0  0  0
  -26.6237  -30.9295   24.9764 C   0  0  1  0  0  0  0  0  0  0  0  0
  -24.5565  -30.9119   21.7890 C   0  0  1  0  0  0  0  0  0  0  0  0
  -27.4019  -13.3950   19.2775 C   0  0  2  0  0  0  0  0  0  0  0  0
  -17.7522  -29.8632   18.2387 C   0  0  0  0  0  0  0  0  0  0  0  0
  -20.9511  -29.0214   23.9771 C   0  0  0  0  0  0  0  0  0  0  0  0
  -18.9450  -28.5608   22.5518 C   0  0  0  0  0  0  0  0  0  0  0  0
  -19.4969  -30.9040   23.2055 C   0  0  0  0  0  0  0  0  0  0  0  0
  -21.1170  -30.4656   16.5681 C   0  0  0  0  0  0  0  0  0  0  0  0
  -24.4208  -16.9718   21.4281 C   0  0  0  0  0  0  0  0  0  0  0  0
  -26.0037  -24.4276   19.7942 C   0  0  0  0  0  0  0  0  0  1  0  0
  -20.9341  -29.7238   21.4927 C   0  0  1  0  0  0  0  0  0  0  0  0
  -19.2064  -30.3028   18.1686 C   0  0  2  0  0  0  0  0  0  0  0  0
  -20.1078  -29.5457   22.7976 C   0  0  0  0  0  0  0  0  0  0  0  0
  -25.9649  -11.8327   20.5327 N   0  0  0  0  0  0  0  0  0  0  0  0
  -26.1786  -12.5043   19.3884 N   0  0  0  0  0  0  0  0  0  0  0  0
  -23.3761  -30.1203   21.4364 N   0  0  0  0  0  0  0  0  0  0  0  0
  -28.9660  -14.8816   20.4665 N   0  0  0  0  0  0  0  0  0  0  0  0
  -25.2876  -12.8848   17.2270 N   0  0  0  0  0  0  0  0  0  0  0  0
  -22.3379  -10.0096   19.0787 N   0  0  0  0  0  0  0  0  0  0  0  0
  -26.1368  -22.1267   20.4380 N   0  0  0  0  0  0  0  0  0  0  0  0
  -27.8450  -16.8246   21.1950 N   0  0  0  0  0  0  0  0  0  0  0  0
  -26.0547  -31.1839   23.6703 N   0  0  0  0  0  0  0  0  0  0  0  0
  -20.1671  -30.2449   20.3663 N   0  0  0  0  0  0  0  0  0  0  0  0
  -19.7053  -30.0575   16.7859 N   0  3  0  0  0  0  0  0  0  0  0  0
  -22.8382  -11.2008   17.1841 O   0  0  0  0  0  0  0  0  0  0  0  0
  -24.3790  -29.5678   23.7221 O   0  0  0  0  0  0  0  0  0  0  0  0
  -21.8972  -31.8285   22.0118 O   0  0  0  0  0  0  0  0  0  0  0  0
  -27.9097  -23.0850   19.2274 O   0  0  0  0  0  0  0  0  0  0  0  0
  -20.5739  -28.4650   18.9367 O   0  0  0  0  0  0  0  0  0  0  0  0
  -30.0827  -16.9021   20.5879 O   0  0  0  0  0  0  0  0  0  0  0  0
  -22.6180   -7.8522   24.2073 O   0  0  0  0  0  0  0  0  0  0  0  0
  -25.3649  -17.7154   22.1954 O   0  0  0  0  0  0  0  0  0  0  0  0
  -26.6856  -25.4696   19.0973 O   0  0  0  0  0  0  0  0  0  1  0  0
  -20.8314   -2.8748   22.6460 F   0  0  0  0  0  0  0  0  0  0  0  0
  -23.6874   -5.5522   25.3068 F   0  0  0  0  0  0  0  0  0  0  0  0
  1  2  1  0  0  0  0
  1  5  2  0  0  0  0
  2  6  2  0  0  0  0
  3 10  2  0  0  0  0
  3 18  1  0  0  0  0
  4 11  1  0  0  0  0
  4 18  2  0  0  0  0
  5 20  1  0  0  0  0
  6 22  1  0  0  0  0
  7 12  2  0  0  0  0
  7 21  1  0  0  0  0
  8  9  2  0  0  0  0
  8 24  1  0  0  0  0
  9 25  1  0  0  0  0
 10 26  1  0  0  0  0
 11 26  2  0  0  0  0
 12 27  1  0  0  0  0
 13 14  2  0  0  0  0
 13 28  1  0  0  0  0
 14 30  1  0  0  0  0
 15 23  1  0  0  0  0
 15 27  2  0  0  0  0
 16 24  2  0  0  0  0
 16 29  1  0  0  0  0
 17 30  2  0  0  0  0
 17 31  1  0  0  0  0
 18 32  1  0  0  0  0
 19 32  1  0  0  0  0
 19 33  2  0  0  0  0
 19 34  1  0  0  0  0
 20 22  2  0  0  0  0
 20 40  1  0  0  0  0
 21 23  2  0  0  0  0
 21 41  1  0  0  0  0
 22 49  1  0  0  0  0
 23 42  1  0  0  0  0
 24 68  1  0  0  0  0
 25 29  2  0  0  0  0
 25 69  1  0  0  0  0
 26 79  1  0  0  0  0
 27 81  1  0  0  0  0
 28 31  2  0  0  0  0
 28 79  1  0  0  0  0
 29 80  1  0  0  0  0
 30 82  1  0  0  0  0
 31 83  1  0  0  0  0
 32 62  2  0  0  0  0
 33 63  1  0  0  0  0
 33 66  1  0  0  0  0
 34 67  1  0  0  0  0
 34 73  2  0  0  0  0
 35 50  1  0  0  0  0
 35 70  1  0  0  0  0
 35 74  2  0  0  0  0
 36 59  1  0  0  0  0
 36 64  1  0  0  0  0
 36 75  2  0  0  0  0
 37 58  1  0  0  0  0
 37 68  1  0  0  0  0
 37 76  2  0  0  0  0
 38 60  1  0  0  0  0
 38 71  1  0  0  0  0
 38 77  2  0  0  0  0
 39 65  1  0  0  0  0
 39 69  1  0  0  0  0
 39 78  2  0  0  0  0
 40 43  1  0  0  0  0
 41 50  1  0  0  0  0
 42 64  1  0  0  0  0
 43 45  1  0  0  0  0
 44 46  1  0  0  0  0
 44 47  1  0  0  0  0
 45 49  1  0  0  0  0
 46 51  1  0  0  0  0
 47 65  1  0  0  0  0
 48 51  1  0  0  0  0
 48 65  1  0  0  0  0
 49 70  1  0  0  0  0
 50 64  1  0  0  0  0
 51 63  1  0  0  0  0
 52 60  1  0  0  0  0
 53 61  1  0  0  0  0
 54 61  1  0  0  0  0
 55 61  1  0  0  0  0
 56 72  1  0  0  0  0
 57 80  1  0  0  0  0
 58 81  1  0  0  0  0
 59 61  1  0  0  0  0
 59 71  1  0  0  0  0
 60 72  1  0  0  0  0
 62 63  1  0  0  0  0
M  CHG  1  72   1
M  ISO  4  39 100  58 101  69 100  81 101
M  END
> <Batch ID>
0009

> <Smiles>
CNC(C)C(=O)NC(C(=O)N1Cc2cc([101O:1][101CH2:1]C(=O)Nc3ccc([100NH:0][100C:0](=O)N4CCCC(n5nc(-c6ccc(Oc7ccc(F)cc7F)cc6)c(C(N)=O)c5N)C4)c(OC)c3)ccc2CC1C(=O)NC1CCCc2ccccc21)C(C)(C)C

> <Shape>
0.306

> <Color>
0.100

> <Negative vol penalty>
0.000

$$$$

  -OEChem-04052315383D

 86 94  0     1  0  0  0  0  0999 V2000
  -22.3949  -35.0709   14.8915 C   0  0  0  0  0  0  0  0  0  0  0  0
  -23.0942  -33.8832   15.0812 C   0  0  0  0  0  0  0  0  0  0  0  0
  -23.2106   -9.5850   21.5751 C   0  0  0  0  0  0  0  0  0  0  0  0
  -23.7634  -10.7890   23.5955 C   0  0  0  0  0  0  0  0  0  0  0  0
  -22.6078  -36.1486   15.7500 C   0  0  0  0  0  0  0  0  0  0  0  0
  -24.0076  -33.7731   16.1291 C   0  0  0  0  0  0  0  0  0  0  0  0
  -25.2185  -28.7697   19.4466 C   0  0  0  0  0  0  0  0  0  0  0  0
  -22.5244   -8.6337   22.3298 C   0  0  0  0  0  0  0  0  0  0  0  0
  -23.0771   -9.8377   24.3502 C   0  0  0  0  0  0  0  0  0  0  0  0
  -26.2363  -27.8196   19.3737 C   0  0  0  0  0  0  0  0  0  0  0  0
  -23.2838   -5.9582   24.2506 C   0  0  0  0  0  0  0  0  0  0  0  0
  -23.5001   -4.6136   23.9488 C   0  0  0  0  0  0  0  0  0  0  0  0
  -27.4682  -29.0183   21.0663 C   0  0  0  0  0  0  0  0  0  0  0  0
  -31.0618  -19.8743   21.4938 C   0  0  0  0  0  0  0  0  0  0  0  0
  -21.1501   -4.3464   23.4555 C   0  0  0  0  0  0  0  0  0  0  0  0
  -23.8302  -10.6627   22.2080 C   0  0  0  0  0  0  0  0  0  0  0  0
  -24.0160  -12.8260   20.8689 C   0  0  0  0  0  0  0  0  0  0  0  0
  -23.5172  -36.0484   16.8147 C   0  0  0  0  0  0  0  0  0  0  0  0
  -25.3231  -29.8590   20.3235 C   0  0  0  0  0  0  0  0  0  0  0  0
  -24.2338  -34.8510   17.0018 C   0  0  0  0  0  0  0  0  0  0  0  0
  -26.4492  -29.9794   21.1502 C   0  0  0  0  0  0  0  0  0  0  0  0
  -29.9038  -19.7776   20.7223 C   0  0  0  0  0  0  0  0  0  0  0  0
  -30.1121  -17.3706   20.7111 C   0  0  0  0  0  0  0  0  0  0  0  0
  -22.4576   -8.7600   23.7174 C   0  0  0  0  0  0  0  0  0  0  0  0
  -27.3626  -27.9454   20.1816 C   0  0  0  0  0  0  0  0  0  0  0  0
  -22.0007   -6.4968   24.1549 C   0  0  0  0  0  0  0  0  0  0  0  0
  -22.4333   -3.8078   23.5513 C   0  0  0  0  0  0  0  0  0  0  0  0
  -31.7451  -18.7191   21.8738 C   0  0  0  0  0  0  0  0  0  0  0  0
  -20.9339   -5.6909   23.7573 C   0  0  0  0  0  0  0  0  0  0  0  0
  -31.2702  -17.4673   21.4825 C   0  0  0  0  0  0  0  0  0  0  0  0
  -29.4289  -18.5258   20.3310 C   0  0  0  0  0  0  0  0  0  0  0  0
  -24.5398  -11.6454   21.4290 C   0  0  0  0  0  0  0  0  0  0  0  0
  -25.0848  -13.4071   20.2312 C   0  0  0  0  0  0  0  0  0  0  0  0
  -22.6827  -13.3506   20.9205 C   0  0  0  0  0  0  0  0  0  0  0  0
  -25.4374  -33.0164   19.9748 C   0  0  0  0  0  0  0  0  0  0  0  0
  -25.3049  -32.9882   23.2158 C   0  0  0  0  0  0  0  0  0  0  0  0
  -29.6010  -22.2774   20.6769 C   0  0  0  0  0  0  0  0  0  0  0  0
  -25.8618  -31.2906   26.1235 C   0  0  0  0  0  0  0  0  0  0  0  0
  -30.4345  -14.9460   20.1083 C   0  0  0  0  0  0  0  0  0  0  0  0
  -23.7485  -37.2561   17.6879 C   0  0  0  0  0  0  0  0  0  0  0  0
  -24.2044  -30.8607   20.4094 C   0  0  0  0  0  0  0  0  0  0  0  0
  -26.6005  -31.1193   22.1230 C   0  0  0  0  0  0  0  0  0  0  0  0
  -24.4576  -36.9320   19.0003 C   0  0  0  0  0  0  0  0  0  0  0  0
  -29.6928  -11.5845   19.1987 C   0  0  0  0  0  0  0  0  0  0  0  0
  -25.6556  -36.0218   18.7492 C   0  0  0  0  0  0  0  0  0  0  0  0
  -28.2430  -11.3978   19.6518 C   0  0  0  0  0  0  0  0  0  0  0  0
  -30.4816  -12.4622   20.1688 C   0  0  0  0  0  0  0  0  0  0  0  0
  -28.4172  -13.5746   20.9239 C   0  0  0  0  0  0  0  0  0  0  0  0
  -25.2147  -34.6844   18.1421 C   0  0  1  0  0  0  0  0  0  0  0  0
  -24.6507  -32.2084   20.9678 C   0  0  1  0  0  0  0  0  0  0  0  0
  -27.5653  -12.7508   19.9444 C   0  0  2  0  0  0  0  0  0  0  0  0
  -25.6922  -31.5417   28.6146 C   0  0  0  0  0  0  0  0  0  0  0  0
  -27.8112  -34.7285   23.2086 C   0  0  0  0  0  0  0  0  0  0  0  0
  -28.1297  -34.1581   25.6255 C   0  0  0  0  0  0  0  0  0  0  0  0
  -26.0869  -35.3895   24.8952 C   0  0  0  0  0  0  0  0  0  0  0  0
  -23.9398  -29.0501   26.3349 C   0  0  0  0  0  0  0  0  0  0  0  0
  -28.6092  -23.2677   20.0826 C   0  0  0  0  0  0  0  0  0  0  0  0
  -28.9607  -24.7160   20.4046 C   0  0  0  0  0  0  0  0  0  0  0  0
  -27.9831  -25.6884   19.7609 C   0  0  0  0  0  0  0  0  0  1  0  0
  -26.3254  -32.9375   24.3271 C   0  0  1  0  0  0  0  0  0  0  0  0
  -24.9904  -31.0771   27.3480 C   0  0  2  0  0  0  0  0  0  0  0  0
  -27.0866  -34.2829   24.4945 C   0  0  0  0  0  0  0  0  0  0  0  0
  -25.8401  -11.4845   21.1697 N   0  0  0  0  0  0  0  0  0  0  0  0
  -26.1424  -12.5715   20.4397 N   0  0  0  0  0  0  0  0  0  0  0  0
  -25.4826  -32.0764   22.1656 N   0  0  0  0  0  0  0  0  0  0  0  0
  -29.7815  -13.7285   20.3950 N   0  0  0  0  0  0  0  0  0  0  0  0
  -25.2136  -14.5460   19.5181 N   0  0  0  0  0  0  0  0  0  0  0  0
  -21.7064  -12.6265   21.6183 N   0  0  0  0  0  0  0  0  0  0  0  0
  -29.2387  -20.9720   20.3566 N   0  0  0  0  0  0  0  0  0  0  0  0
  -29.6587  -16.0829   20.3317 N   0  0  0  0  0  0  0  0  0  0  0  0
  -24.6611  -33.8231   19.1649 N   0  0  0  0  0  0  0  0  0  0  0  0
  -25.6076  -32.5045   25.5211 N   0  0  0  0  0  0  0  0  0  0  0  0
  -24.6547  -29.6330   27.4995 N   0  3  0  0  0  0  0  0  0  0  0  0
  -22.3626  -14.4212   20.3506 O   0  0  0  0  0  0  0  0  0  0  0  0
  -26.6584  -32.9164   19.9466 O   0  0  0  0  0  0  0  0  0  0  0  0
  -24.3800  -33.8018   23.2808 O   0  0  0  0  0  0  0  0  0  0  0  0
  -30.5674  -22.6414   21.3387 O   0  0  0  0  0  0  0  0  0  0  0  0
  -26.6883  -30.4648   25.7419 O   0  0  0  0  0  0  0  0  0  0  0  0
  -31.5870  -14.9765   19.6692 O   0  0  0  0  0  0  0  0  0  0  0  0
  -21.7878   -7.8320   24.4541 O   0  0  0  0  0  0  0  0  0  0  0  0
  -28.3578  -27.0198   20.1120 O   0  0  0  0  0  0  0  0  0  1  0  0
  -22.6413   -2.5170   23.2600 F   0  0  0  0  0  0  0  0  0  0  0  0
  -32.8572  -18.8119   22.6146 F   0  0  0  0  0  0  0  0  0  0  0  0
  -19.6991   -6.2031   23.6624 F   0  0  0  0  0  0  0  0  0  0  0  0
  -31.9365  -16.3648   21.8546 F   0  0  0  0  0  0  0  0  0  0  0  0
  -27.9878  -18.4062   19.3711 Cl  0  0  0  0  0  0  0  0  0  0  0  0
  1  2  1  0  0  0  0
  1  5  2  0  0  0  0
  2  6  2  0  0  0  0
  3  8  2  0  0  0  0
  3 16  1  0  0  0  0
  4  9  1  0  0  0  0
  4 16  2  0  0  0  0
  5 18  1  0  0  0  0
  6 20  1  0  0  0  0
  7 10  2  0  0  0  0
  7 19  1  0  0  0  0
  8 24  1  0  0  0  0
  9 24  2  0  0  0  0
 10 25  1  0  0  0  0
 11 12  2  0  0  0  0
 11 26  1  0  0  0  0
 12 27  1  0  0  0  0
 13 21  1  0  0  0  0
 13 25  2  0  0  0  0
 14 22  1  0  0  0  0
 14 28  2  0  0  0  0
 15 27  2  0  0  0  0
 15 29  1  0  0  0  0
 16 32  1  0  0  0  0
 17 32  1  0  0  0  0
 17 33  2  0  0  0  0
 17 34  1  0  0  0  0
 18 20  2  0  0  0  0
 18 40  1  0  0  0  0
 19 21  2  0  0  0  0
 19 41  1  0  0  0  0
 20 49  1  0  0  0  0
 21 42  1  0  0  0  0
 22 31  2  0  0  0  0
 22 69  1  0  0  0  0
 23 30  2  0  0  0  0
 23 31  1  0  0  0  0
 23 70  1  0  0  0  0
 24 80  1  0  0  0  0
 25 81  1  0  0  0  0
 26 29  2  0  0  0  0
 26 80  1  0  0  0  0
 27 82  1  0  0  0  0
 28 30  1  0  0  0  0
 28 83  1  0  0  0  0
 29 84  1  0  0  0  0
 30 85  1  0  0  0  0
 31 86  1  0  0  0  0
 32 63  2  0  0  0  0
 33 64  1  0  0  0  0
 33 67  1  0  0  0  0
 34 68  1  0  0  0  0
 34 74  2  0  0  0  0
 35 50  1  0  0  0  0
 35 71  1  0  0  0  0
 35 75  2  0  0  0  0
 36 60  1  0  0  0  0
 36 65  1  0  0  0  0
 36 76  2  0  0  0  0
 37 57  1  0  0  0  0
 37 69  1  0  0  0  0
 37 77  2  0  0  0  0
 38 61  1  0  0  0  0
 38 72  1  0  0  0  0
 38 78  2  0  0  0  0
 39 66  1  0  0  0  0
 39 70  1  0  0  0  0
 39 79  2  0  0  0  0
 40 43  1  0  0  0  0
 41 50  1  0  0  0  0
 42 65  1  0  0  0  0
 43 45  1  0  0  0  0
 44 46  1  0  0  0  0
 44 47  1  0  0  0  0
 45 49  1  0  0  0  0
 46 51  1  0  0  0  0
 47 66  1  0  0  0  0
 48 51  1  0  0  0  0
 48 66  1  0  0  0  0
 49 71  1  0  0  0  0
 50 65  1  0  0  0  0
 51 64  1  0  0  0  0
 52 61  1  0  0  0  0
 53 62  1  0  0  0  0
 54 62  1  0  0  0  0
 55 62  1  0  0  0  0
 56 73  1  0  0  0  0
 57 58  1  0  0  0  0
 58 59  1  0  0  0  0
 59 81  1  0  0  0  0
 60 62  1  0  0  0  0
 60 72  1  0  0  0  0
 61 73  1  0  0  0  0
 63 64  1  0  0  0  0
M  CHG  1  73   1
M  ISO  4  39 100  59 101  70 100  81 101
M  END
> <Batch ID>
0009

> <Smiles>
CNC(C)C(=O)NC(C(=O)N1Cc2cc([101O:1][101CH2:1]CCC(=O)Nc3cc(F)c(F)c([100NH:0][100C:0](=O)N4CCCC(n5nc(-c6ccc(Oc7ccc(F)cc7F)cc6)c(C(N)=O)c5N)C4)c3Cl)ccc2CC1C(=O)NC1CCCc2ccccc21)C(C)(C)C

> <Shape>
0.345

> <Color>
0.163

> <Negative vol penalty>
0.000

$$$$

  -OEChem-04052315383D

 82 90  0     1  0  0  0  0  0999 V2000
  -28.1325  -36.8221   19.6325 C   0  0  0  0  0  0  0  0  0  0  0  0
  -28.2619  -35.5246   19.1475 C   0  0  0  0  0  0  0  0  0  0  0  0
  -24.5480   -9.2768   21.4475 C   0  0  0  0  0  0  0  0  0  0  0  0
  -22.7154  -10.6260   20.6363 C   0  0  0  0  0  0  0  0  0  0  0  0
  -27.8332  -37.0357   20.9774 C   0  0  0  0  0  0  0  0  0  0  0  0
  -28.0933  -34.4400   20.0074 C   0  0  0  0  0  0  0  0  0  0  0  0
  -25.6543  -28.9940   18.6296 C   0  0  0  0  0  0  0  0  0  0  0  0
  -23.6891   -8.1848   21.5718 C   0  0  0  0  0  0  0  0  0  0  0  0
  -21.8564   -9.5340   20.7606 C   0  0  0  0  0  0  0  0  0  0  0  0
  -26.2268  -27.7648   18.3055 C   0  0  0  0  0  0  0  0  0  0  0  0
  -21.3392   -7.0996   23.7455 C   0  0  0  0  0  0  0  0  0  0  0  0
  -21.4164   -6.3452   24.9162 C   0  0  0  0  0  0  0  0  0  0  0  0
  -26.0232  -27.0701   20.6066 C   0  0  0  0  0  0  0  0  0  0  0  0
  -26.0570  -20.6912   21.2366 C   0  0  0  0  0  0  0  0  0  0  0  0
  -26.0967  -20.8010   18.4493 C   0  0  0  0  0  0  0  0  0  0  0  0
  -21.9778   -4.3869   23.6173 C   0  0  0  0  0  0  0  0  0  0  0  0
  -24.0611  -10.4974   20.9798 C   0  0  0  0  0  0  0  0  0  0  0  0
  -25.7104  -11.9841   19.7238 C   0  0  0  0  0  0  0  0  0  0  0  0
  -27.6513  -35.9530   21.8521 C   0  0  0  0  0  0  0  0  0  0  0  0
  -25.2713  -29.2750   19.9490 C   0  0  0  0  0  0  0  0  0  0  0  0
  -27.7926  -34.6393   21.3656 C   0  0  0  0  0  0  0  0  0  0  0  0
  -25.4437  -28.3026   20.9443 C   0  0  0  0  0  0  0  0  0  0  0  0
  -25.8608  -21.9081   20.5837 C   0  0  0  0  0  0  0  0  0  0  0  0
  -26.2731  -19.5292   20.4958 C   0  0  0  0  0  0  0  0  0  0  0  0
  -22.3433   -8.3134   21.2283 C   0  0  0  0  0  0  0  0  0  0  0  0
  -26.4140  -26.8037   19.2946 C   0  0  0  0  0  0  0  0  0  0  0  0
  -21.5812   -6.4976   22.5106 C   0  0  0  0  0  0  0  0  0  0  0  0
  -25.8807  -21.9630   19.1901 C   0  0  0  0  0  0  0  0  0  0  0  0
  -21.7358   -4.9889   24.8521 C   0  0  0  0  0  0  0  0  0  0  0  0
  -21.9005   -5.1413   22.4466 C   0  0  0  0  0  0  0  0  0  0  0  0
  -26.2929  -19.5841   19.1022 C   0  0  0  0  0  0  0  0  0  0  0  0
  -24.9478  -11.6259   20.8516 C   0  0  0  0  0  0  0  0  0  0  0  0
  -26.3772  -13.1219   20.1075 C   0  0  0  0  0  0  0  0  0  0  0  0
  -25.8074  -11.3454   18.4439 C   0  0  0  0  0  0  0  0  0  0  0  0
  -26.1314  -31.4272   22.1243 C   0  0  0  0  0  0  0  0  0  0  0  0
  -23.6877  -30.1237   23.8129 C   0  0  0  0  0  0  0  0  0  0  0  0
  -21.6652  -27.4328   24.3741 C   0  0  0  0  0  0  0  0  0  0  0  0
  -26.4735  -18.1146   22.5707 C   0  0  0  0  0  0  0  0  0  0  0  0
  -27.3756  -36.2344   23.3080 C   0  0  0  0  0  0  0  0  0  0  0  0
  -24.6306  -30.5957   20.2771 C   0  0  0  0  0  0  0  0  0  0  0  0
  -25.0309  -28.5473   22.3720 C   0  0  0  0  0  0  0  0  0  0  0  0
  -26.8426  -35.0249   24.0718 C   0  0  0  0  0  0  0  0  0  0  0  0
  -26.8832  -15.2647   24.6654 C   0  0  0  0  0  0  0  0  0  0  0  0
  -27.6714  -33.7846   23.7531 C   0  0  0  0  0  0  0  0  0  0  0  0
  -26.4789  -14.0935   23.7671 C   0  0  0  0  0  0  0  0  0  0  0  0
  -26.0240  -16.5010   24.4062 C   0  0  0  0  0  0  0  0  0  0  0  0
  -25.5549  -15.7577   22.1048 C   0  0  0  0  0  0  0  0  0  0  0  0
  -27.5925  -33.4365   22.2618 C   0  0  1  0  0  0  0  0  0  0  0  0
  -24.7502  -30.9678   21.7518 C   0  0  1  0  0  0  0  0  0  0  0  0
  -26.4349  -14.5099   22.2838 C   0  0  2  0  0  0  0  0  0  0  0  0
  -25.6324  -23.1425   21.3922 C   0  0  0  0  0  0  0  0  0  0  0  0
  -19.7874  -26.6525   25.8448 C   0  0  0  0  0  0  0  0  0  0  0  0
  -25.6588  -29.7071   26.1044 C   0  0  0  0  0  0  0  0  0  0  0  0
  -24.0226  -28.1133   27.1296 C   0  0  0  0  0  0  0  0  0  0  0  0
  -23.3956  -30.5062   26.8073 C   0  0  0  0  0  0  0  0  0  0  0  0
  -19.8518  -27.0697   22.0635 C   0  0  0  0  0  0  0  0  0  0  0  0
  -26.7538  -25.1098   17.6602 C   0  0  0  0  0  0  0  0  0  1  0  0
  -26.7490  -23.5937   17.6925 C   0  0  0  0  0  0  0  0  0  0  0  0
  -23.5545  -28.9845   24.7945 C   0  0  1  0  0  0  0  0  0  0  0  0
  -20.1594  -27.3195   24.5297 C   0  0  2  0  0  0  0  0  0  0  0  0
  -24.1676  -29.3236   26.1825 C   0  0  0  0  0  0  0  0  0  0  0  0
  -25.1140  -12.4679   21.8751 N   0  0  0  0  0  0  0  0  0  0  0  0
  -25.9888  -13.3664   21.3919 N   0  0  0  0  0  0  0  0  0  0  0  0
  -24.4147  -29.8564   22.6442 N   0  0  0  0  0  0  0  0  0  0  0  0
  -26.0331  -16.8385   22.9812 N   0  0  0  0  0  0  0  0  0  0  0  0
  -27.2521  -13.9271   19.4682 N   0  0  0  0  0  0  0  0  0  0  0  0
  -25.0545  -10.1852   18.2173 N   0  0  0  0  0  0  0  0  0  0  0  0
  -26.4690  -18.3095   21.1899 N   0  0  0  0  0  0  0  0  0  0  0  0
  -26.3362  -32.7840   21.9609 N   0  0  0  0  0  0  0  0  0  0  0  0
  -22.1365  -28.6440   24.8346 N   0  0  0  0  0  0  0  0  0  0  0  0
  -19.5826  -26.5155   23.4153 N   0  3  0  0  0  0  0  0  0  0  0  0
  -26.5526  -11.7811   17.5337 O   0  0  0  0  0  0  0  0  0  0  0  0
  -26.9503  -30.6114   22.5312 O   0  0  0  0  0  0  0  0  0  0  0  0
  -23.1599  -31.2085   24.0702 O   0  0  0  0  0  0  0  0  0  0  0  0
  -22.3548  -26.5350   23.8957 O   0  0  0  0  0  0  0  0  0  0  0  0
  -26.8544  -18.9619   23.3825 O   0  0  0  0  0  0  0  0  0  0  0  0
  -21.5049   -7.2480   21.3493 O   0  0  0  0  0  0  0  0  0  0  0  0
  -26.9732  -25.6033   18.9810 O   0  0  0  0  0  0  0  0  0  1  0  0
  -25.6907  -23.1502   18.5331 O   0  0  0  0  0  0  0  0  0  0  0  0
  -21.8114   -4.2650   25.9766 F   0  0  0  0  0  0  0  0  0  0  0  0
  -22.1353   -4.5577   21.2633 F   0  0  0  0  0  0  0  0  0  0  0  0
  -26.5571  -18.1695   18.1461 Cl  0  0  0  0  0  0  0  0  0  0  0  0
  1  2  1  0  0  0  0
  1  5  2  0  0  0  0
  2  6  2  0  0  0  0
  3  8  2  0  0  0  0
  3 17  1  0  0  0  0
  4  9  1  0  0  0  0
  4 17  2  0  0  0  0
  5 19  1  0  0  0  0
  6 21  1  0  0  0  0
  7 10  2  0  0  0  0
  7 20  1  0  0  0  0
  8 25  1  0  0  0  0
  9 25  2  0  0  0  0
 10 26  1  0  0  0  0
 11 12  2  0  0  0  0
 11 27  1  0  0  0  0
 12 29  1  0  0  0  0
 13 22  1  0  0  0  0
 13 26  2  0  0  0  0
 14 23  1  0  0  0  0
 14 24  2  0  0  0  0
 15 28  1  0  0  0  0
 15 31  2  0  0  0  0
 16 29  2  0  0  0  0
 16 30  1  0  0  0  0
 17 32  1  0  0  0  0
 18 32  1  0  0  0  0
 18 33  2  0  0  0  0
 18 34  1  0  0  0  0
 19 21  2  0  0  0  0
 19 39  1  0  0  0  0
 20 22  2  0  0  0  0
 20 40  1  0  0  0  0
 21 48  1  0  0  0  0
 22 41  1  0  0  0  0
 23 28  2  0  0  0  0
 23 51  1  0  0  0  0
 24 31  1  0  0  0  0
 24 68  1  0  0  0  0
 25 77  1  0  0  0  0
 26 78  1  0  0  0  0
 27 30  2  0  0  0  0
 27 77  1  0  0  0  0
 28 79  1  0  0  0  0
 29 80  1  0  0  0  0
 30 81  1  0  0  0  0
 31 82  1  0  0  0  0
 32 62  2  0  0  0  0
 33 63  1  0  0  0  0
 33 66  1  0  0  0  0
 34 67  1  0  0  0  0
 34 72  2  0  0  0  0
 35 49  1  0  0  0  0
 35 69  1  0  0  0  0
 35 73  2  0  0  0  0
 36 59  1  0  0  0  0
 36 64  1  0  0  0  0
 36 74  2  0  0  0  0
 37 60  1  0  0  0  0
 37 70  1  0  0  0  0
 37 75  2  0  0  0  0
 38 65  1  0  0  0  0
 38 68  1  0  0  0  0
 38 76  2  0  0  0  0
 39 42  1  0  0  0  0
 40 49  1  0  0  0  0
 41 64  1  0  0  0  0
 42 44  1  0  0  0  0
 43 45  1  0  0  0  0
 43 46  1  0  0  0  0
 44 48  1  0  0  0  0
 45 50  1  0  0  0  0
 46 65  1  0  0  0  0
 47 50  1  0  0  0  0
 47 65  1  0  0  0  0
 48 69  1  0  0  0  0
 49 64  1  0  0  0  0
 50 63  1  0  0  0  0
 52 60  1  0  0  0  0
 53 61  1  0  0  0  0
 54 61  1  0  0  0  0
 55 61  1  0  0  0  0
 56 71  1  0  0  0  0
 57 58  1  0  0  0  0
 57 78  1  0  0  0  0
 58 79  1  0  0  0  0
 59 61  1  0  0  0  0
 59 70  1  0  0  0  0
 60 71  1  0  0  0  0
 62 63  1  0  0  0  0
M  CHG  1  71   1
M  ISO  4  38 100  57 101  68 100  78 101
M  END
> <Batch ID>
0009

> <Smiles>
CNC(C)C(=O)NC(C(=O)N1Cc2cc([101O:1][101CH2:1]COc3cc(Cl)c([100NH:0][100C:0](=O)N4CCCC(n5nc(-c6ccc(Oc7ccc(F)cc7F)cc6)c(C(N)=O)c5N)C4)cc3C)ccc2CC1C(=O)NC1CCCc2ccccc21)C(C)(C)C

> <Shape>
0.236

> <Color>
0.104

> <Negative vol penalty>
0.000

$$$$

  -OEChem-04052315383D

 82 90  0     1  0  0  0  0  0999 V2000
  -29.4672  -33.9674   26.0575 C   0  0  0  0  0  0  0  0  0  0  0  0
  -29.6188  -32.8719   25.2135 C   0  0  0  0  0  0  0  0  0  0  0  0
  -24.6252   -9.0147   21.3673 C   0  0  0  0  0  0  0  0  0  0  0  0
  -23.3766  -10.8879   22.2444 C   0  0  0  0  0  0  0  0  0  0  0  0
  -28.2412  -34.2032   26.6783 C   0  0  0  0  0  0  0  0  0  0  0  0
  -28.5449  -32.0108   24.9908 C   0  0  0  0  0  0  0  0  0  0  0  0
  -27.2104  -29.0574   19.7944 C   0  0  0  0  0  0  0  0  0  0  0  0
  -27.8372  -20.4031   20.0854 C   0  0  0  0  0  0  0  0  0  0  0  0
  -28.2619  -19.0861   20.2607 C   0  0  0  0  0  0  0  0  0  0  0  0
  -24.0847   -8.1918   22.3553 C   0  0  0  0  0  0  0  0  0  0  0  0
  -22.8361  -10.0649   23.2324 C   0  0  0  0  0  0  0  0  0  0  0  0
  -27.4532  -27.7523   19.3684 C   0  0  0  0  0  0  0  0  0  0  0  0
  -21.1762   -6.5642   22.9251 C   0  0  0  0  0  0  0  0  0  0  0  0
  -20.7078   -5.3086   22.5382 C   0  0  0  0  0  0  0  0  0  0  0  0
  -25.2408  -27.1127   20.0866 C   0  0  0  0  0  0  0  0  0  0  0  0
  -25.8207  -19.9178   21.3245 C   0  0  0  0  0  0  0  0  0  0  0  0
  -22.2843   -4.2583   24.0377 C   0  0  0  0  0  0  0  0  0  0  0  0
  -24.2712  -10.3628   21.3118 C   0  0  0  0  0  0  0  0  0  0  0  0
  -24.3028  -11.4627   19.0103 C   0  0  0  0  0  0  0  0  0  0  0  0
  -27.1489  -33.3500   26.4555 C   0  0  0  0  0  0  0  0  0  0  0  0
  -25.9829  -29.3980   20.3807 C   0  0  0  0  0  0  0  0  0  0  0  0
  -27.3036  -32.2346   25.6103 C   0  0  0  0  0  0  0  0  0  0  0  0
  -24.9840  -28.4234   20.5169 C   0  0  0  0  0  0  0  0  0  0  0  0
  -26.6166  -20.8190   20.6174 C   0  0  0  0  0  0  0  0  0  0  0  0
  -27.4660  -18.1849   20.9679 C   0  0  0  0  0  0  0  0  0  0  0  0
  -23.1901   -8.7168   23.2878 C   0  0  0  0  0  0  0  0  0  0  0  0
  -26.4694  -26.7790   19.5171 C   0  0  0  0  0  0  0  0  0  0  0  0
  -22.1988   -6.6668   23.8683 C   0  0  0  0  0  0  0  0  0  0  0  0
  -21.2617   -4.1557   23.0945 C   0  0  0  0  0  0  0  0  0  0  0  0
  -26.2454  -18.6007   21.4998 C   0  0  0  0  0  0  0  0  0  0  0  0
  -22.7528   -5.5139   24.4246 C   0  0  0  0  0  0  0  0  0  0  0  0
  -24.8296  -11.2135   20.2918 C   0  0  0  0  0  0  0  0  0  0  0  0
  -25.1979  -12.3304   18.4338 C   0  0  0  0  0  0  0  0  0  0  0  0
  -23.1108  -10.9552   18.3960 C   0  0  0  0  0  0  0  0  0  0  0  0
  -25.0829  -30.4916   23.2264 C   0  0  0  0  0  0  0  0  0  0  0  0
  -22.1752  -30.6797   21.8008 C   0  0  0  0  0  0  0  0  0  0  0  0
  -26.8471  -23.1760   19.7659 C   0  0  0  0  0  0  0  0  0  0  0  0
  -20.0783  -29.5848   19.3409 C   0  0  0  0  0  0  0  0  0  0  0  0
  -29.0837  -16.2754   20.6792 C   0  0  0  0  0  0  0  0  0  0  0  0
  -25.8571  -33.6187   27.1860 C   0  0  0  0  0  0  0  0  0  0  0  0
  -25.7269  -30.8165   20.8106 C   0  0  0  0  0  0  0  0  0  0  0  0
  -23.6420  -28.7425   21.1214 C   0  0  0  0  0  0  0  0  0  0  0  0
  -24.6608  -32.8708   26.6031 C   0  0  0  0  0  0  0  0  0  0  0  0
  -29.8307  -13.5400   18.5259 C   0  0  0  0  0  0  0  0  0  0  0  0
  -25.0179  -31.4102   26.3463 C   0  0  0  0  0  0  0  0  0  0  0  0
  -28.5825  -12.6587   18.6130 C   0  0  0  0  0  0  0  0  0  0  0  0
  -30.1620  -14.1884   19.8688 C   0  0  0  0  0  0  0  0  0  0  0  0
  -27.8074  -14.0446   20.5791 C   0  0  0  0  0  0  0  0  0  0  0  0
  -26.1549  -31.2918   25.3243 C   0  0  1  0  0  0  0  0  0  0  0  0
  -24.6291  -30.9327   21.8636 C   0  0  1  0  0  0  0  0  0  0  0  0
  -27.3964  -13.4214   19.2351 C   0  0  2  0  0  0  0  0  0  0  0  0
  -17.7523  -29.8963   18.4521 C   0  0  0  0  0  0  0  0  0  0  0  0
  -21.0714  -29.0300   24.1181 C   0  0  0  0  0  0  0  0  0  0  0  0
  -19.0360  -28.5747   22.7331 C   0  0  0  0  0  0  0  0  0  0  0  0
  -19.6003  -30.9152   23.3859 C   0  0  0  0  0  0  0  0  0  0  0  0
  -21.0811  -30.5085   16.7141 C   0  0  0  0  0  0  0  0  0  0  0  0
  -26.0374  -24.4587   19.8089 C   0  0  0  0  0  0  0  0  0  1  0  0
  -21.0019  -29.7439   21.6379 C   0  0  1  0  0  0  0  0  0  0  0  0
  -19.2045  -30.3371   18.3535 C   0  0  2  0  0  0  0  0  0  0  0  0
  -20.2033  -29.5592   22.9591 C   0  0  0  0  0  0  0  0  0  0  0  0
  -25.9711  -11.8698   20.5165 N   0  0  0  0  0  0  0  0  0  0  0  0
  -26.1688  -12.5398   19.3684 N   0  0  0  0  0  0  0  0  0  0  0  0
  -23.4420  -30.1421   21.5322 N   0  0  0  0  0  0  0  0  0  0  0  0
  -28.9930  -14.8963   20.3953 N   0  0  0  0  0  0  0  0  0  0  0  0
  -25.2413  -12.9269   17.2236 N   0  0  0  0  0  0  0  0  0  0  0  0
  -22.3047  -10.0736   19.1291 N   0  0  0  0  0  0  0  0  0  0  0  0
  -26.1853  -22.1549   20.4391 N   0  0  0  0  0  0  0  0  0  0  0  0
  -27.8999  -16.8475   21.1438 N   0  0  0  0  0  0  0  0  0  0  0  0
  -25.6524  -31.4980   23.9829 N   0  0  0  0  0  0  0  0  0  0  0  0
  -20.2112  -30.2696   20.5303 N   0  0  0  0  0  0  0  0  0  0  0  0
  -19.6744  -30.0985   16.9595 N   0  3  0  0  0  0  0  0  0  0  0  0
  -22.7792  -11.2612   17.2256 O   0  0  0  0  0  0  0  0  0  0  0  0
  -24.9266  -29.3248   23.5669 O   0  0  0  0  0  0  0  0  0  0  0  0
  -21.9746  -31.8467   22.1465 O   0  0  0  0  0  0  0  0  0  0  0  0
  -27.9319  -23.1198   19.1960 O   0  0  0  0  0  0  0  0  0  0  0  0
  -20.5887  -28.4966   19.0842 O   0  0  0  0  0  0  0  0  0  0  0  0
  -30.1266  -16.9085   20.4960 O   0  0  0  0  0  0  0  0  0  0  0  0
  -22.6623   -7.9141   24.2519 O   0  0  0  0  0  0  0  0  0  0  0  0
  -26.7040  -25.5042   19.1027 O   0  0  0  0  0  0  0  0  0  1  0  0
  -20.8107   -2.9501   22.7240 F   0  0  0  0  0  0  0  0  0  0  0  0
  -25.4715  -17.7428   22.1800 F   0  0  0  0  0  0  0  0  0  0  0  0
  -23.7346   -5.6062   25.3320 F   0  0  0  0  0  0  0  0  0  0  0  0
  1  2  1  0  0  0  0
  1  5  2  0  0  0  0
  2  6  2  0  0  0  0
  3 10  2  0  0  0  0
  3 18  1  0  0  0  0
  4 11  1  0  0  0  0
  4 18  2  0  0  0  0
  5 20  1  0  0  0  0
  6 22  1  0  0  0  0
  7 12  2  0  0  0  0
  7 21  1  0  0  0  0
  8  9  2  0  0  0  0
  8 24  1  0  0  0  0
  9 25  1  0  0  0  0
 10 26  1  0  0  0  0
 11 26  2  0  0  0  0
 12 27  1  0  0  0  0
 13 14  2  0  0  0  0
 13 28  1  0  0  0  0
 14 29  1  0  0  0  0
 15 23  1  0  0  0  0
 15 27  2  0  0  0  0
 16 24  2  0  0  0  0
 16 30  1  0  0  0  0
 17 29  2  0  0  0  0
 17 31  1  0  0  0  0
 18 32  1  0  0  0  0
 19 32  1  0  0  0  0
 19 33  2  0  0  0  0
 19 34  1  0  0  0  0
 20 22  2  0  0  0  0
 20 40  1  0  0  0  0
 21 23  2  0  0  0  0
 21 41  1  0  0  0  0
 22 49  1  0  0  0  0
 23 42  1  0  0  0  0
 24 67  1  0  0  0  0
 25 30  2  0  0  0  0
 25 68  1  0  0  0  0
 26 78  1  0  0  0  0
 27 79  1  0  0  0  0
 28 31  2  0  0  0  0
 28 78  1  0  0  0  0
 29 80  1  0  0  0  0
 30 81  1  0  0  0  0
 31 82  1  0  0  0  0
 32 61  2  0  0  0  0
 33 62  1  0  0  0  0
 33 65  1  0  0  0  0
 34 66  1  0  0  0  0
 34 72  2  0  0  0  0
 35 50  1  0  0  0  0
 35 69  1  0  0  0  0
 35 73  2  0  0  0  0
 36 58  1  0  0  0  0
 36 63  1  0  0  0  0
 36 74  2  0  0  0  0
 37 57  1  0  0  0  0
 37 67  1  0  0  0  0
 37 75  2  0  0  0  0
 38 59  1  0  0  0  0
 38 70  1  0  0  0  0
 38 76  2  0  0  0  0
 39 64  1  0  0  0  0
 39 68  1  0  0  0  0
 39 77  2  0  0  0  0
 40 43  1  0  0  0  0
 41 50  1  0  0  0  0
 42 63  1  0  0  0  0
 43 45  1  0  0  0  0
 44 46  1  0  0  0  0
 44 47  1  0  0  0  0
 45 49  1  0  0  0  0
 46 51  1  0  0  0  0
 47 64  1  0  0  0  0
 48 51  1  0  0  0  0
 48 64  1  0  0  0  0
 49 69  1  0  0  0  0
 50 63  1  0  0  0  0
 51 62  1  0  0  0  0
 52 59  1  0  0  0  0
 53 60  1  0  0  0  0
 54 60  1  0  0  0  0
 55 60  1  0  0  0  0
 56 71  1  0  0  0  0
 57 79  1  0  0  0  0
 58 60  1  0  0  0  0
 58 70  1  0  0  0  0
 59 71  1  0  0  0  0
 61 62  1  0  0  0  0
M  CHG  1  71   1
M  ISO  4  39 100  57 101  68 100  79 101
M  END
> <Batch ID>
0009

> <Smiles>
CNC(C)C(=O)NC(C(=O)N1Cc2cc([101O:1][101CH2:1]C(=O)Nc3ccc([100NH:0][100C:0](=O)N4CCCC(n5nc(-c6ccc(Oc7ccc(F)cc7F)cc6)c(C(N)=O)c5N)C4)c(F)c3)ccc2CC1C(=O)NC1CCCc2ccccc21)C(C)(C)C

> <Shape>
0.309

> <Color>
0.101

> <Negative vol penalty>
0.000

$$$$

  -OEChem-04052315383D

 83 91  0     1  0  0  0  0  0999 V2000
  -38.1823  -32.1409   16.6626 C   0  0  0  0  0  0  0  0  0  0  0  0
  -38.1978  -30.9186   17.3268 C   0  0  0  0  0  0  0  0  0  0  0  0
  -23.0157   -9.8699   20.0161 C   0  0  0  0  0  0  0  0  0  0  0  0
  -23.7035  -10.0097   22.3279 C   0  0  0  0  0  0  0  0  0  0  0  0
  -37.1582  -33.0542   16.9095 C   0  0  0  0  0  0  0  0  0  0  0  0
  -37.1896  -30.6093   18.2390 C   0  0  0  0  0  0  0  0  0  0  0  0
  -34.7590  -25.0908   19.3090 C   0  0  0  0  0  0  0  0  0  0  0  0
  -32.5686  -17.5979   23.3600 C   0  0  0  0  0  0  0  0  0  0  0  0
  -31.9967  -16.6665   22.4934 C   0  0  0  0  0  0  0  0  0  0  0  0
  -22.2508   -8.7417   20.3119 C   0  0  0  0  0  0  0  0  0  0  0  0
  -22.9385   -8.8815   22.6237 C   0  0  0  0  0  0  0  0  0  0  0  0
  -34.9963  -24.1371   20.2979 C   0  0  0  0  0  0  0  0  0  0  0  0
  -23.2072   -5.5289   22.2793 C   0  0  0  0  0  0  0  0  0  0  0  0
  -23.7877   -4.5434   23.0777 C   0  0  0  0  0  0  0  0  0  0  0  0
  -33.1371  -25.0014   21.5690 C   0  0  0  0  0  0  0  0  0  0  0  0
  -30.3793  -18.5059   23.8289 C   0  0  0  0  0  0  0  0  0  0  0  0
  -22.0359   -4.8382   24.7152 C   0  0  0  0  0  0  0  0  0  0  0  0
  -23.7422  -10.5039   21.0241 C   0  0  0  0  0  0  0  0  0  0  0  0
  -24.1176  -13.0134   20.7614 C   0  0  0  0  0  0  0  0  0  0  0  0
  -36.1317  -32.7520   17.8181 C   0  0  0  0  0  0  0  0  0  0  0  0
  -33.7140  -26.0155   19.4480 C   0  0  0  0  0  0  0  0  0  0  0  0
  -36.1514  -31.5199   18.4993 C   0  0  0  0  0  0  0  0  0  0  0  0
  -32.8871  -25.9642   20.5792 C   0  0  0  0  0  0  0  0  0  0  0  0
  -31.7599  -18.5176   24.0278 C   0  0  0  0  0  0  0  0  0  0  0  0
  -30.6161  -16.6549   22.2944 C   0  0  0  0  0  0  0  0  0  0  0  0
  -22.2121   -8.2475   21.6157 C   0  0  0  0  0  0  0  0  0  0  0  0
  -34.1871  -24.0941   21.4295 C   0  0  0  0  0  0  0  0  0  0  0  0
  -22.0411   -6.1691   22.6989 C   0  0  0  0  0  0  0  0  0  0  0  0
  -23.2020   -4.1980   24.2956 C   0  0  0  0  0  0  0  0  0  0  0  0
  -29.8074  -17.5746   22.9621 C   0  0  0  0  0  0  0  0  0  0  0  0
  -21.4554   -5.8237   23.9169 C   0  0  0  0  0  0  0  0  0  0  0  0
  -24.5331  -11.6690   20.7190 C   0  0  0  0  0  0  0  0  0  0  0  0
  -25.2295  -13.7283   20.3883 C   0  0  0  0  0  0  0  0  0  0  0  0
  -22.8409  -13.5666   21.1074 C   0  0  0  0  0  0  0  0  0  0  0  0
  -33.5338  -29.1823   19.6552 C   0  0  0  0  0  0  0  0  0  0  0  0
  -30.3417  -28.6190   19.5299 C   0  0  0  0  0  0  0  0  0  0  0  0
  -33.5025  -21.2952   23.6307 C   0  0  0  0  0  0  0  0  0  0  0  0
  -27.7608  -26.4459   20.0432 C   0  0  0  0  0  0  0  0  0  0  0  0
  -30.6995  -14.7282   20.6736 C   0  0  0  0  0  0  0  0  0  0  0  0
  -35.0715  -33.7904   18.0874 C   0  0  0  0  0  0  0  0  0  0  0  0
  -33.4546  -27.0209   18.3597 C   0  0  0  0  0  0  0  0  0  0  0  0
  -31.7395  -26.9214   20.7667 C   0  0  0  0  0  0  0  0  0  0  0  0
  -33.8365  -33.2321   18.7897 C   0  0  0  0  0  0  0  0  0  0  0  0
  -29.6312  -12.1850   18.4223 C   0  0  0  0  0  0  0  0  0  0  0  0
  -34.2442  -32.3421   19.9595 C   0  0  0  0  0  0  0  0  0  0  0  0
  -28.1754  -11.9347   18.8226 C   0  0  0  0  0  0  0  0  0  0  0  0
  -30.5109  -12.4779   19.6364 C   0  0  0  0  0  0  0  0  0  0  0  0
  -28.5704  -13.3046   20.9093 C   0  0  0  0  0  0  0  0  0  0  0  0
  -35.0620  -31.1377   19.4776 C   0  0  1  0  0  0  0  0  0  0  0  0
  -32.6832  -28.2434   18.8473 C   0  0  1  0  0  0  0  0  0  0  0  0
  -27.6329  -13.0692   19.7138 C   0  0  2  0  0  0  0  0  0  0  0  0
  -25.2615  -26.2838   19.8872 C   0  0  0  0  0  0  0  0  0  0  0  0
  -30.0779  -30.2632   22.0866 C   0  0  0  0  0  0  0  0  0  0  0  0
  -27.7919  -29.2896   22.3940 C   0  0  0  0  0  0  0  0  0  0  0  0
  -28.2923  -30.6839   20.3869 C   0  0  0  0  0  0  0  0  0  0  0  0
  -27.9107  -24.2579   18.0560 C   0  0  0  0  0  0  0  0  0  0  0  0
  -32.3753  -19.5209   24.9599 C   0  0  0  0  0  0  0  0  0  0  0  0
  -33.2885  -22.7126   23.1441 C   0  0  0  0  0  0  0  0  0  1  0  0
  -29.2618  -28.3547   20.5511 C   0  0  1  0  0  0  0  0  0  0  0  0
  -26.5825  -26.0569   19.1688 C   0  0  2  0  0  0  0  0  0  0  0  0
  -28.8787  -29.6309   21.3524 C   0  0  0  0  0  0  0  0  0  0  0  0
  -25.8092  -11.5352   20.3479 N   0  0  0  0  0  0  0  0  0  0  0  0
  -26.2052  -12.8046   20.1538 N   0  0  0  0  0  0  0  0  0  0  0  0
  -31.5301  -27.8900   19.6778 N   0  0  0  0  0  0  0  0  0  0  0  0
  -29.9370  -13.5660   20.4311 N   0  0  0  0  0  0  0  0  0  0  0  0
  -25.4579  -15.0507   20.2411 N   0  0  0  0  0  0  0  0  0  0  0  0
  -21.8082  -12.6899   21.4669 N   0  0  0  0  0  0  0  0  0  0  0  0
  -30.0379  -15.7080   21.4130 N   0  0  0  0  0  0  0  0  0  0  0  0
  -34.1926  -30.1346   18.9012 N   0  0  0  0  0  0  0  0  0  0  0  0
  -32.4257  -20.8413   24.3761 N   0  0  0  0  0  0  0  0  0  0  0  0
  -28.1512  -27.7500   19.8237 N   0  0  0  0  0  0  0  0  0  0  0  0
  -26.6708  -24.6181   18.7907 N   0  3  0  0  0  0  0  0  0  0  0  0
  -22.6176  -14.8007   21.0821 O   0  0  0  0  0  0  0  0  0  0  0  0
  -33.5872  -29.0532   20.8726 O   0  0  0  0  0  0  0  0  0  0  0  0
  -30.1356  -29.4368   18.6297 O   0  0  0  0  0  0  0  0  0  0  0  0
  -34.5186  -20.6529   23.3798 O   0  0  0  0  0  0  0  0  0  0  0  0
  -28.2804  -25.6717   20.8439 O   0  0  0  0  0  0  0  0  0  0  0  0
  -31.8446  -14.8567   20.2329 O   0  0  0  0  0  0  0  0  0  0  0  0
  -21.4655   -7.1468   21.9048 O   0  0  0  0  0  0  0  0  0  0  0  0
  -34.4169  -23.1647   22.3965 O   0  0  0  0  0  0  0  0  0  1  0  0
  -23.7587   -3.2505   25.0615 F   0  0  0  0  0  0  0  0  0  0  0  0
  -28.4795  -17.5735   22.7773 F   0  0  0  0  0  0  0  0  0  0  0  0
  -20.3345   -6.4344   24.3247 F   0  0  0  0  0  0  0  0  0  0  0  0
  1  2  1  0  0  0  0
  1  5  2  0  0  0  0
  2  6  2  0  0  0  0
  3 10  2  0  0  0  0
  3 18  1  0  0  0  0
  4 11  1  0  0  0  0
  4 18  2  0  0  0  0
  5 20  1  0  0  0  0
  6 22  1  0  0  0  0
  7 12  2  0  0  0  0
  7 21  1  0  0  0  0
  8  9  2  0  0  0  0
  8 24  1  0  0  0  0
  9 25  1  0  0  0  0
 10 26  1  0  0  0  0
 11 26  2  0  0  0  0
 12 27  1  0  0  0  0
 13 14  2  0  0  0  0
 13 28  1  0  0  0  0
 14 29  1  0  0  0  0
 15 23  1  0  0  0  0
 15 27  2  0  0  0  0
 16 24  2  0  0  0  0
 16 30  1  0  0  0  0
 17 29  2  0  0  0  0
 17 31  1  0  0  0  0
 18 32  1  0  0  0  0
 19 32  1  0  0  0  0
 19 33  2  0  0  0  0
 19 34  1  0  0  0  0
 20 22  2  0  0  0  0
 20 40  1  0  0  0  0
 21 23  2  0  0  0  0
 21 41  1  0  0  0  0
 22 49  1  0  0  0  0
 23 42  1  0  0  0  0
 24 57  1  0  0  0  0
 25 30  2  0  0  0  0
 25 68  1  0  0  0  0
 26 79  1  0  0  0  0
 27 80  1  0  0  0  0
 28 31  2  0  0  0  0
 28 79  1  0  0  0  0
 29 81  1  0  0  0  0
 30 82  1  0  0  0  0
 31 83  1  0  0  0  0
 32 62  2  0  0  0  0
 33 63  1  0  0  0  0
 33 66  1  0  0  0  0
 34 67  1  0  0  0  0
 34 73  2  0  0  0  0
 35 50  1  0  0  0  0
 35 69  1  0  0  0  0
 35 74  2  0  0  0  0
 36 59  1  0  0  0  0
 36 64  1  0  0  0  0
 36 75  2  0  0  0  0
 37 58  1  0  0  0  0
 37 70  1  0  0  0  0
 37 76  2  0  0  0  0
 38 60  1  0  0  0  0
 38 71  1  0  0  0  0
 38 77  2  0  0  0  0
 39 65  1  0  0  0  0
 39 68  1  0  0  0  0
 39 78  2  0  0  0  0
 40 43  1  0  0  0  0
 41 50  1  0  0  0  0
 42 64  1  0  0  0  0
 43 45  1  0  0  0  0
 44 46  1  0  0  0  0
 44 47  1  0  0  0  0
 45 49  1  0  0  0  0
 46 51  1  0  0  0  0
 47 65  1  0  0  0  0
 48 51  1  0  0  0  0
 48 65  1  0  0  0  0
 49 69  1  0  0  0  0
 50 64  1  0  0  0  0
 51 63  1  0  0  0  0
 52 60  1  0  0  0  0
 53 61  1  0  0  0  0
 54 61  1  0  0  0  0
 55 61  1  0  0  0  0
 56 72  1  0  0  0  0
 57 70  1  0  0  0  0
 58 80  1  0  0  0  0
 59 61  1  0  0  0  0
 59 71  1  0  0  0  0
 60 72  1  0  0  0  0
 62 63  1  0  0  0  0
M  CHG  1  72   1
M  ISO  4  39 100  58 101  68 100  80 101
M  END
> <Batch ID>
0009

> <Smiles>
CNC(C)C(=O)NC(C(=O)N1Cc2cc([101O:1][101CH2:1]C(=O)NCc3ccc([100NH:0][100C:0](=O)N4CCCC(n5nc(-c6ccc(Oc7ccc(F)cc7F)cc6)c(C(N)=O)c5N)C4)c(F)c3)ccc2CC1C(=O)NC1CCCc2ccccc21)C(C)(C)C

> <Shape>
0.231

> <Color>
0.200

> <Negative vol penalty>
0.000

$$$$

  -OEChem-04052315383D

 83 91  0     1  0  0  0  0  0999 V2000
  -33.9420  -35.0786   22.0619 C   0  0  0  0  0  0  0  0  0  0  0  0
  -33.9387  -33.6889   22.1252 C   0  0  0  0  0  0  0  0  0  0  0  0
  -23.0672   -9.8852   19.9335 C   0  0  0  0  0  0  0  0  0  0  0  0
  -23.8422   -9.8644   22.2218 C   0  0  0  0  0  0  0  0  0  0  0  0
  -32.8716  -35.8018   22.5865 C   0  0  0  0  0  0  0  0  0  0  0  0
  -32.8654  -33.0215   22.7142 C   0  0  0  0  0  0  0  0  0  0  0  0
  -30.5285  -27.6129   21.0432 C   0  0  0  0  0  0  0  0  0  0  0  0
  -22.3242   -8.7296   20.1746 C   0  0  0  0  0  0  0  0  0  0  0  0
  -23.0992   -8.7088   22.4629 C   0  0  0  0  0  0  0  0  0  0  0  0
  -30.7093  -26.3208   21.5348 C   0  0  0  0  0  0  0  0  0  0  0  0
  -19.3850   -7.9177   21.6358 C   0  0  0  0  0  0  0  0  0  0  0  0
  -18.0749   -7.8781   21.1587 C   0  0  0  0  0  0  0  0  0  0  0  0
  -28.7199  -26.5602   22.8781 C   0  0  0  0  0  0  0  0  0  0  0  0
  -29.7211  -19.2694   22.4141 C   0  0  0  0  0  0  0  0  0  0  0  0
  -31.1563  -17.6841   20.6226 C   0  0  0  0  0  0  0  0  0  0  0  0
  -18.6245   -5.9505   19.8097 C   0  0  0  0  0  0  0  0  0  0  0  0
  -23.8263  -10.4526   20.9571 C   0  0  0  0  0  0  0  0  0  0  0  0
  -24.1691  -12.9787   20.8649 C   0  0  0  0  0  0  0  0  0  0  0  0
  -31.7802  -35.1425   23.1737 C   0  0  0  0  0  0  0  0  0  0  0  0
  -29.4464  -28.3936   21.4743 C   0  0  0  0  0  0  0  0  0  0  0  0
  -31.7800  -33.7365   23.2485 C   0  0  0  0  0  0  0  0  0  0  0  0
  -28.5263  -27.8609   22.3885 C   0  0  0  0  0  0  0  0  0  0  0  0
  -29.5401  -17.8864   22.4070 C   0  0  0  0  0  0  0  0  0  0  0  0
  -31.3372  -19.0672   20.6297 C   0  0  0  0  0  0  0  0  0  0  0  0
  -30.6196  -19.8598   21.5254 C   0  0  0  0  0  0  0  0  0  0  0  0
  -30.2577  -17.0937   21.5113 C   0  0  0  0  0  0  0  0  0  0  0  0
  -22.3401   -8.1414   21.4393 C   0  0  0  0  0  0  0  0  0  0  0  0
  -29.8065  -25.7953   22.4546 C   0  0  0  0  0  0  0  0  0  0  0  0
  -20.3149   -6.9738   21.1998 C   0  0  0  0  0  0  0  0  0  0  0  0
  -17.6946   -6.8945   20.2456 C   0  0  0  0  0  0  0  0  0  0  0  0
  -19.9346   -5.9902   20.2868 C   0  0  0  0  0  0  0  0  0  0  0  0
  -24.5945  -11.6459   20.7085 C   0  0  0  0  0  0  0  0  0  0  0  0
  -25.2594  -13.7318   20.5034 C   0  0  0  0  0  0  0  0  0  0  0  0
  -22.9018  -13.4903   21.2984 C   0  0  0  0  0  0  0  0  0  0  0  0
  -29.1478  -31.1532   23.0233 C   0  0  0  0  0  0  0  0  0  0  0  0
  -25.9983  -30.7310   22.3714 C   0  0  0  0  0  0  0  0  0  0  0  0
  -30.1506  -22.1812   22.3769 C   0  0  0  0  0  0  0  0  0  0  0  0
  -23.4533  -28.5761   21.6461 C   0  0  0  0  0  0  0  0  0  0  0  0
  -30.7274  -14.7718   20.6544 C   0  0  0  0  0  0  0  0  0  0  0  0
  -30.6680  -35.9687   23.7696 C   0  0  0  0  0  0  0  0  0  0  0  0
  -29.2506  -29.7758   20.9142 C   0  0  0  0  0  0  0  0  0  0  0  0
  -27.3367  -28.6507   22.8678 C   0  0  0  0  0  0  0  0  0  0  0  0
  -29.3951  -35.1712   24.0412 C   0  0  0  0  0  0  0  0  0  0  0  0
  -29.5956  -12.3871   18.2650 C   0  0  0  0  0  0  0  0  0  0  0  0
  -29.7277  -33.8559   24.7383 C   0  0  0  0  0  0  0  0  0  0  0  0
  -28.1586  -12.0913   18.7005 C   0  0  0  0  0  0  0  0  0  0  0  0
  -30.5188  -12.6009   19.4632 C   0  0  0  0  0  0  0  0  0  0  0  0
  -28.6216  -13.3101   20.8655 C   0  0  0  0  0  0  0  0  0  0  0  0
  -30.6224  -32.9755   23.8574 C   0  0  1  0  0  0  0  0  0  0  0  0
  -28.4010  -30.6696   21.8124 C   0  0  1  0  0  0  0  0  0  0  0  0
  -27.6408  -13.1515   19.6922 C   0  0  2  0  0  0  0  0  0  0  0  0
  -28.5698  -17.2815   23.3689 C   0  0  0  0  0  0  0  0  0  0  0  0
  -32.3060  -19.6731   19.6669 C   0  0  0  0  0  0  0  0  0  0  0  0
  -20.9834  -28.5216   21.2055 C   0  0  0  0  0  0  0  0  0  0  0  0
  -25.4608  -31.0953   25.3527 C   0  0  0  0  0  0  0  0  0  0  0  0
  -23.1890  -30.1066   24.9929 C   0  0  0  0  0  0  0  0  0  0  0  0
  -23.8172  -32.2329   23.8497 C   0  0  0  0  0  0  0  0  0  0  0  0
  -23.8452  -27.4748   18.9272 C   0  0  0  0  0  0  0  0  0  0  0  0
  -30.6191  -23.5927   22.0754 C   0  0  0  0  0  0  0  0  0  1  0  0
  -24.8427  -30.0571   23.0710 C   0  0  1  0  0  0  0  0  0  0  0  0
  -22.3685  -28.6191   20.5851 C   0  0  2  0  0  0  0  0  0  0  0  0
  -24.3508  -30.8586   24.3093 C   0  0  0  0  0  0  0  0  0  0  0  0
  -25.8565  -11.5543   20.2807 N   0  0  0  0  0  0  0  0  0  0  0  0
  -26.2335  -12.8391   20.1652 N   0  0  0  0  0  0  0  0  0  0  0  0
  -27.1920  -29.9996   22.2957 N   0  0  0  0  0  0  0  0  0  0  0  0
  -29.9664  -13.6216   20.3565 N   0  0  0  0  0  0  0  0  0  0  0  0
  -25.4703  -15.0639   20.4449 N   0  0  0  0  0  0  0  0  0  0  0  0
  -21.8915  -12.5779   21.6315 N   0  0  0  0  0  0  0  0  0  0  0  0
  -30.7887  -21.2646   21.5483 N   0  0  0  0  0  0  0  0  0  0  0  0
  -30.0861  -15.6874   21.4881 N   0  0  0  0  0  0  0  0  0  0  0  0
  -29.8389  -32.3331   22.8240 N   0  0  0  0  0  0  0  0  0  0  0  0
  -23.8194  -29.8414   22.0538 N   0  0  0  0  0  0  0  0  0  0  0  0
  -22.5352  -27.4893   19.6277 N   0  3  0  0  0  0  0  0  0  0  0  0
  -22.6668  -14.7203   21.3719 O   0  0  0  0  0  0  0  0  0  0  0  0
  -29.0992  -30.5047   24.0619 O   0  0  0  0  0  0  0  0  0  0  0  0
  -25.8452  -31.8618   21.9029 O   0  0  0  0  0  0  0  0  0  0  0  0
  -29.3178  -21.9531   23.2481 O   0  0  0  0  0  0  0  0  0  0  0  0
  -23.9258  -27.5250   22.0734 O   0  0  0  0  0  0  0  0  0  0  0  0
  -31.8535  -14.9453   20.1814 O   0  0  0  0  0  0  0  0  0  0  0  0
  -21.6150   -7.0140   21.6750 O   0  0  0  0  0  0  0  0  0  0  0  0
  -29.9809  -24.5347   22.9365 O   0  0  0  0  0  0  0  0  0  1  0  0
  -16.4361   -6.8556   19.7887 F   0  0  0  0  0  0  0  0  0  0  0  0
  -20.8232   -5.0800   19.8652 F   0  0  0  0  0  0  0  0  0  0  0  0
  1  2  1  0  0  0  0
  1  5  2  0  0  0  0
  2  6  2  0  0  0  0
  3  8  2  0  0  0  0
  3 17  1  0  0  0  0
  4  9  1  0  0  0  0
  4 17  2  0  0  0  0
  5 19  1  0  0  0  0
  6 21  1  0  0  0  0
  7 10  2  0  0  0  0
  7 20  1  0  0  0  0
  8 27  1  0  0  0  0
  9 27  2  0  0  0  0
 10 28  1  0  0  0  0
 11 12  2  0  0  0  0
 11 29  1  0  0  0  0
 12 30  1  0  0  0  0
 13 22  1  0  0  0  0
 13 28  2  0  0  0  0
 14 23  2  0  0  0  0
 14 25  1  0  0  0  0
 15 24  1  0  0  0  0
 15 26  2  0  0  0  0
 16 30  2  0  0  0  0
 16 31  1  0  0  0  0
 17 32  1  0  0  0  0
 18 32  1  0  0  0  0
 18 33  2  0  0  0  0
 18 34  1  0  0  0  0
 19 21  2  0  0  0  0
 19 40  1  0  0  0  0
 20 22  2  0  0  0  0
 20 41  1  0  0  0  0
 21 49  1  0  0  0  0
 22 42  1  0  0  0  0
 23 26  1  0  0  0  0
 23 52  1  0  0  0  0
 24 25  2  0  0  0  0
 24 53  1  0  0  0  0
 25 69  1  0  0  0  0
 26 70  1  0  0  0  0
 27 80  1  0  0  0  0
 28 81  1  0  0  0  0
 29 31  2  0  0  0  0
 29 80  1  0  0  0  0
 30 82  1  0  0  0  0
 31 83  1  0  0  0  0
 32 63  2  0  0  0  0
 33 64  1  0  0  0  0
 33 67  1  0  0  0  0
 34 68  1  0  0  0  0
 34 74  2  0  0  0  0
 35 50  1  0  0  0  0
 35 71  1  0  0  0  0
 35 75  2  0  0  0  0
 36 60  1  0  0  0  0
 36 65  1  0  0  0  0
 36 76  2  0  0  0  0
 37 59  1  0  0  0  0
 37 69  1  0  0  0  0
 37 77  2  0  0  0  0
 38 61  1  0  0  0  0
 38 72  1  0  0  0  0
 38 78  2  0  0  0  0
 39 66  1  0  0  0  0
 39 70  1  0  0  0  0
 39 79  2  0  0  0  0
 40 43  1  0  0  0  0
 41 50  1  0  0  0  0
 42 65  1  0  0  0  0
 43 45  1  0  0  0  0
 44 46  1  0  0  0  0
 44 47  1  0  0  0  0
 45 49  1  0  0  0  0
 46 51  1  0  0  0  0
 47 66  1  0  0  0  0
 48 51  1  0  0  0  0
 48 66  1  0  0  0  0
 49 71  1  0  0  0  0
 50 65  1  0  0  0  0
 51 64  1  0  0  0  0
 54 61  1  0  0  0  0
 55 62  1  0  0  0  0
 56 62  1  0  0  0  0
 57 62  1  0  0  0  0
 58 73  1  0  0  0  0
 59 81  1  0  0  0  0
 60 62  1  0  0  0  0
 60 72  1  0  0  0  0
 61 73  1  0  0  0  0
 63 64  1  0  0  0  0
M  CHG  1  73   1
M  ISO  4  39 100  59 101  70 100  81 101
M  END
> <Batch ID>
0009

> <Smiles>
CNC(C)C(=O)NC(C(=O)N1Cc2cc([101O:1][101CH2:1]C(=O)Nc3cc(C)c([100NH:0][100C:0](=O)N4CCCC(n5nc(-c6ccc(Oc7ccc(F)cc7F)cc6)c(C(N)=O)c5N)C4)cc3C)ccc2CC1C(=O)NC1CCCc2ccccc21)C(C)(C)C

> <Shape>
0.269

> <Color>
0.192

> <Negative vol penalty>
0.000

$$$$

  -OEChem-04052315383D

 82 90  0     1  0  0  0  0  0999 V2000
  -30.4592  -35.0461   24.5590 C   0  0  0  0  0  0  0  0  0  0  0  0
  -30.4975  -34.2594   23.4122 C   0  0  0  0  0  0  0  0  0  0  0  0
  -24.5915   -9.0608   21.1650 C   0  0  0  0  0  0  0  0  0  0  0  0
  -22.8297  -10.6877   20.8714 C   0  0  0  0  0  0  0  0  0  0  0  0
  -29.7127  -34.6329   25.6617 C   0  0  0  0  0  0  0  0  0  0  0  0
  -29.7902  -33.0585   23.3679 C   0  0  0  0  0  0  0  0  0  0  0  0
  -26.2277  -28.8429   18.8014 C   0  0  0  0  0  0  0  0  0  0  0  0
  -23.6372   -8.0577   21.3338 C   0  0  0  0  0  0  0  0  0  0  0  0
  -21.8753   -9.6845   21.0401 C   0  0  0  0  0  0  0  0  0  0  0  0
  -26.1808  -27.5173   18.3721 C   0  0  0  0  0  0  0  0  0  0  0  0
  -21.5942   -6.9515   23.7889 C   0  0  0  0  0  0  0  0  0  0  0  0
  -21.7827   -6.0481   24.8347 C   0  0  0  0  0  0  0  0  0  0  0  0
  -24.8614  -26.9432   20.3082 C   0  0  0  0  0  0  0  0  0  0  0  0
  -27.4709  -20.1953   21.8874 C   0  0  0  0  0  0  0  0  0  0  0  0
  -27.0276  -20.6310   19.1678 C   0  0  0  0  0  0  0  0  0  0  0  0
  -21.8507   -4.2266   23.2489 C   0  0  0  0  0  0  0  0  0  0  0  0
  -24.1878  -10.3758   20.9339 C   0  0  0  0  0  0  0  0  0  0  0  0
  -25.7617  -11.8321   19.5519 C   0  0  0  0  0  0  0  0  0  0  0  0
  -28.9881  -33.4311   25.6274 C   0  0  0  0  0  0  0  0  0  0  0  0
  -25.5999  -29.2271   19.9950 C   0  0  0  0  0  0  0  0  0  0  0  0
  -29.0344  -32.6283   24.4717 C   0  0  0  0  0  0  0  0  0  0  0  0
  -24.8996  -28.2748   20.7492 C   0  0  0  0  0  0  0  0  0  0  0  0
  -27.3155  -21.4950   21.4056 C   0  0  0  0  0  0  0  0  0  0  0  0
  -27.1831  -19.3313   19.6496 C   0  0  0  0  0  0  0  0  0  0  0  0
  -27.4048  -19.1134   21.0094 C   0  0  0  0  0  0  0  0  0  0  0  0
  -27.0939  -21.7129   20.0458 C   0  0  0  0  0  0  0  0  0  0  0  0
  -22.2791   -8.3695   21.2713 C   0  0  0  0  0  0  0  0  0  0  0  0
  -25.5001  -26.5666   19.1270 C   0  0  0  0  0  0  0  0  0  0  0  0
  -21.5339   -6.4926   22.4730 C   0  0  0  0  0  0  0  0  0  0  0  0
  -21.9109   -4.6856   24.5648 C   0  0  0  0  0  0  0  0  0  0  0  0
  -21.6621   -5.1301   22.2031 C   0  0  0  0  0  0  0  0  0  0  0  0
  -25.1732  -11.4126   20.7600 C   0  0  0  0  0  0  0  0  0  0  0  0
  -26.6249  -12.8348   19.9205 C   0  0  0  0  0  0  0  0  0  0  0  0
  -25.5471  -11.3579   18.2160 C   0  0  0  0  0  0  0  0  0  0  0  0
  -26.5888  -30.4542   22.7554 C   0  0  0  0  0  0  0  0  0  0  0  0
  -23.4086  -30.6268   23.3709 C   0  0  0  0  0  0  0  0  0  0  0  0
  -20.2660  -29.4612   22.7290 C   0  0  0  0  0  0  0  0  0  0  0  0
  -27.7910  -17.4290   22.8424 C   0  0  0  0  0  0  0  0  0  0  0  0
  -28.2336  -33.0029   26.8611 C   0  0  0  0  0  0  0  0  0  0  0  0
  -25.6370  -30.6663   20.4305 C   0  0  0  0  0  0  0  0  0  0  0  0
  -24.1919  -28.6400   22.0275 C   0  0  0  0  0  0  0  0  0  0  0  0
  -27.2105  -31.9010   26.5976 C   0  0  0  0  0  0  0  0  0  0  0  0
  -28.2029  -14.3049   24.4999 C   0  0  0  0  0  0  0  0  0  0  0  0
  -27.8247  -30.7951   25.7452 C   0  0  0  0  0  0  0  0  0  0  0  0
  -27.4998  -13.3084   23.5753 C   0  0  0  0  0  0  0  0  0  0  0  0
  -27.4750  -15.6472   24.5455 C   0  0  0  0  0  0  0  0  0  0  0  0
  -26.5128  -15.2612   22.3107 C   0  0  0  0  0  0  0  0  0  0  0  0
  -28.2605  -31.3313   24.3762 C   0  0  1  0  0  0  0  0  0  0  0  0
  -25.3977  -30.8442   21.9267 C   0  0  1  0  0  0  0  0  0  0  0  0
  -27.2452  -13.9156   22.1818 C   0  0  2  0  0  0  0  0  0  0  0  0
  -27.3919  -22.6358   22.3675 C   0  0  0  0  0  0  0  0  0  0  0  0
  -27.1086  -18.1915   18.6862 C   0  0  0  0  0  0  0  0  0  0  0  0
  -17.8719  -29.7708   23.4146 C   0  0  0  0  0  0  0  0  0  0  0  0
  -23.9523  -29.0941   25.9527 C   0  0  0  0  0  0  0  0  0  0  0  0
  -21.5000  -28.6122   26.1010 C   0  0  0  0  0  0  0  0  0  0  0  0
  -22.3129  -30.9692   26.1781 C   0  0  0  0  0  0  0  0  0  0  0  0
  -19.4643  -30.2570   19.9935 C   0  0  0  0  0  0  0  0  0  0  0  0
  -26.7065  -23.2942   18.1550 C   0  0  0  0  0  0  0  0  0  0  0  0
  -26.5632  -24.7932   17.9519 C   0  0  0  0  0  0  0  0  0  1  0  0
  -22.3881  -29.7032   23.9910 C   0  0  1  0  0  0  0  0  0  0  0  0
  -18.9631  -30.1844   22.4394 C   0  0  2  0  0  0  0  0  0  0  0  0
  -22.5532  -29.5871   25.5327 C   0  0  0  0  0  0  0  0  0  0  0  0
  -25.6246  -12.0930   21.8170 N   0  0  0  0  0  0  0  0  0  0  0  0
  -26.5060  -12.9502   21.2743 N   0  0  0  0  0  0  0  0  0  0  0  0
  -24.2623  -30.0587   22.4148 N   0  0  0  0  0  0  0  0  0  0  0  0
  -27.2727  -16.1635   23.1900 N   0  0  0  0  0  0  0  0  0  0  0  0
  -27.4667  -13.6202   19.2155 N   0  0  0  0  0  0  0  0  0  0  0  0
  -24.6250  -10.3218   18.0148 N   0  0  0  0  0  0  0  0  0  0  0  0
  -27.5650  -17.8004   21.5174 N   0  0  0  0  0  0  0  0  0  0  0  0
  -26.9379  -22.9967   19.5500 N   0  0  0  0  0  0  0  0  0  0  0  0
  -27.1144  -31.4881   23.5066 N   0  0  0  0  0  0  0  0  0  0  0  0
  -21.0817  -30.1937   23.5652 N   0  0  0  0  0  0  0  0  0  0  0  0
  -18.4978  -29.8797   21.0567 N   0  3  0  0  0  0  0  0  0  0  0  0
  -26.1672  -11.8276   17.2319 O   0  0  0  0  0  0  0  0  0  0  0  0
  -26.9997  -29.3003   22.7173 O   0  0  0  0  0  0  0  0  0  0  0  0
  -23.4422  -31.8103   23.7168 O   0  0  0  0  0  0  0  0  0  0  0  0
  -20.5318  -28.3553   22.2633 O   0  0  0  0  0  0  0  0  0  0  0  0
  -28.4147  -18.1196   23.6523 O   0  0  0  0  0  0  0  0  0  0  0  0
  -21.3475   -7.3909   21.4357 O   0  0  0  0  0  0  0  0  0  0  0  0
  -25.4534  -25.2719   18.7106 O   0  0  0  0  0  0  0  0  0  1  0  0
  -22.0935   -3.8183   25.5690 F   0  0  0  0  0  0  0  0  0  0  0  0
  -21.6062   -4.6833   20.9409 F   0  0  0  0  0  0  0  0  0  0  0  0
  1  2  1  0  0  0  0
  1  5  2  0  0  0  0
  2  6  2  0  0  0  0
  3  8  2  0  0  0  0
  3 17  1  0  0  0  0
  4  9  1  0  0  0  0
  4 17  2  0  0  0  0
  5 19  1  0  0  0  0
  6 21  1  0  0  0  0
  7 10  2  0  0  0  0
  7 20  1  0  0  0  0
  8 27  1  0  0  0  0
  9 27  2  0  0  0  0
 10 28  1  0  0  0  0
 11 12  2  0  0  0  0
 11 29  1  0  0  0  0
 12 30  1  0  0  0  0
 13 22  1  0  0  0  0
 13 28  2  0  0  0  0
 14 23  1  0  0  0  0
 14 25  2  0  0  0  0
 15 24  2  0  0  0  0
 15 26  1  0  0  0  0
 16 30  2  0  0  0  0
 16 31  1  0  0  0  0
 17 32  1  0  0  0  0
 18 32  1  0  0  0  0
 18 33  2  0  0  0  0
 18 34  1  0  0  0  0
 19 21  2  0  0  0  0
 19 39  1  0  0  0  0
 20 22  2  0  0  0  0
 20 40  1  0  0  0  0
 21 48  1  0  0  0  0
 22 41  1  0  0  0  0
 23 26  2  0  0  0  0
 23 51  1  0  0  0  0
 24 25  1  0  0  0  0
 24 52  1  0  0  0  0
 25 69  1  0  0  0  0
 26 70  1  0  0  0  0
 27 79  1  0  0  0  0
 28 80  1  0  0  0  0
 29 31  2  0  0  0  0
 29 79  1  0  0  0  0
 30 81  1  0  0  0  0
 31 82  1  0  0  0  0
 32 63  2  0  0  0  0
 33 64  1  0  0  0  0
 33 67  1  0  0  0  0
 34 68  1  0  0  0  0
 34 74  2  0  0  0  0
 35 49  1  0  0  0  0
 35 71  1  0  0  0  0
 35 75  2  0  0  0  0
 36 60  1  0  0  0  0
 36 65  1  0  0  0  0
 36 76  2  0  0  0  0
 37 61  1  0  0  0  0
 37 72  1  0  0  0  0
 37 77  2  0  0  0  0
 38 66  1  0  0  0  0
 38 69  1  0  0  0  0
 38 78  2  0  0  0  0
 39 42  1  0  0  0  0
 40 49  1  0  0  0  0
 41 65  1  0  0  0  0
 42 44  1  0  0  0  0
 43 45  1  0  0  0  0
 43 46  1  0  0  0  0
 44 48  1  0  0  0  0
 45 50  1  0  0  0  0
 46 66  1  0  0  0  0
 47 50  1  0  0  0  0
 47 66  1  0  0  0  0
 48 71  1  0  0  0  0
 49 65  1  0  0  0  0
 50 64  1  0  0  0  0
 53 61  1  0  0  0  0
 54 62  1  0  0  0  0
 55 62  1  0  0  0  0
 56 62  1  0  0  0  0
 57 73  1  0  0  0  0
 58 59  1  0  0  0  0
 58 70  1  0  0  0  0
 59 80  1  0  0  0  0
 60 62  1  0  0  0  0
 60 72  1  0  0  0  0
 61 73  1  0  0  0  0
 63 64  1  0  0  0  0
M  CHG  1  73   1
M  ISO  4  38 100  59 101  69 100  80 101
M  END
> <Batch ID>
0009

> <Smiles>
CNC(C)C(=O)NC(C(=O)N1Cc2cc([101O:1][101CH2:1]CNc3cc(C)c([100NH:0][100C:0](=O)N4CCCC(n5nc(-c6ccc(Oc7ccc(F)cc7F)cc6)c(C(N)=O)c5N)C4)cc3C)ccc2CC1C(=O)NC1CCCc2ccccc21)C(C)(C)C

> <Shape>
0.271

> <Color>
0.109

> <Negative vol penalty>
0.000

$$$$

  -OEChem-04052315382D

  0  0  0     0  0  0  0  0  0999 V2000
M  END
$$$$

  -OEChem-04052315383D

 83 91  0     1  0  0  0  0  0999 V2000
  -36.4154  -27.6595   14.9501 C   0  0  0  0  0  0  0  0  0  0  0  0
  -36.3805  -26.5395   15.7747 C   0  0  0  0  0  0  0  0  0  0  0  0
  -23.0876   -9.8430   19.9507 C   0  0  0  0  0  0  0  0  0  0  0  0
  -23.8352   -9.8781   22.2479 C   0  0  0  0  0  0  0  0  0  0  0  0
  -35.9220  -28.8791   15.4116 C   0  0  0  0  0  0  0  0  0  0  0  0
  -35.8532  -26.6389   17.0617 C   0  0  0  0  0  0  0  0  0  0  0  0
  -32.7106  -22.3453   20.0941 C   0  0  0  0  0  0  0  0  0  0  0  0
  -32.6023  -17.5564   23.4346 C   0  0  0  0  0  0  0  0  0  0  0  0
  -32.0240  -16.6601   22.5358 C   0  0  0  0  0  0  0  0  0  0  0  0
  -22.3487   -8.6885   20.2088 C   0  0  0  0  0  0  0  0  0  0  0  0
  -23.0962   -8.7236   22.5060 C   0  0  0  0  0  0  0  0  0  0  0  0
  -33.0867  -21.4172   21.0641 C   0  0  0  0  0  0  0  0  0  0  0  0
  -19.8692   -7.9145   23.0997 C   0  0  0  0  0  0  0  0  0  0  0  0
  -19.1062   -7.8827   24.2669 C   0  0  0  0  0  0  0  0  0  0  0  0
  -32.3370  -22.9266   22.7901 C   0  0  0  0  0  0  0  0  0  0  0  0
  -29.8326  -17.5029   23.1053 C   0  0  0  0  0  0  0  0  0  0  0  0
  -20.3541   -5.9598   25.0302 C   0  0  0  0  0  0  0  0  0  0  0  0
  -23.8309  -10.4378   20.9702 C   0  0  0  0  0  0  0  0  0  0  0  0
  -24.1597  -12.9634   20.8256 C   0  0  0  0  0  0  0  0  0  0  0  0
  -35.3795  -28.9912   16.7015 C   0  0  0  0  0  0  0  0  0  0  0  0
  -32.1540  -23.5776   20.4658 C   0  0  0  0  0  0  0  0  0  0  0  0
  -35.3533  -27.8615   17.5414 C   0  0  0  0  0  0  0  0  0  0  0  0
  -31.9524  -23.8675   21.8228 C   0  0  0  0  0  0  0  0  0  0  0  0
  -31.7957  -18.4259   24.1689 C   0  0  0  0  0  0  0  0  0  0  0  0
  -30.6392  -16.6334   22.3711 C   0  0  0  0  0  0  0  0  0  0  0  0
  -30.4109  -18.3992   24.0042 C   0  0  0  0  0  0  0  0  0  0  0  0
  -22.3529   -8.1288   21.4864 C   0  0  0  0  0  0  0  0  0  0  0  0
  -32.9026  -21.7089   22.4125 C   0  0  0  0  0  0  0  0  0  0  0  0
  -20.8746   -6.9689   22.8976 C   0  0  0  0  0  0  0  0  0  0  0  0
  -19.3487   -6.9054   25.2322 C   0  0  0  0  0  0  0  0  0  0  0  0
  -21.1171   -5.9917   23.8629 C   0  0  0  0  0  0  0  0  0  0  0  0
  -24.5949  -11.6301   20.7041 C   0  0  0  0  0  0  0  0  0  0  0  0
  -25.2497  -13.7150   20.4603 C   0  0  0  0  0  0  0  0  0  0  0  0
  -22.8842  -13.4766   21.2323 C   0  0  0  0  0  0  0  0  0  0  0  0
  -32.9980  -26.6206   20.1038 C   0  0  0  0  0  0  0  0  0  0  0  0
  -30.0834  -27.1793   21.4135 C   0  0  0  0  0  0  0  0  0  0  0  0
  -27.5154  -26.0491   23.3564 C   0  0  0  0  0  0  0  0  0  0  0  0
  -30.7091  -14.7923   20.6530 C   0  0  0  0  0  0  0  0  0  0  0  0
  -34.9015  -30.3416   17.1732 C   0  0  0  0  0  0  0  0  0  0  0  0
  -31.7289  -24.5569   19.4063 C   0  0  0  0  0  0  0  0  0  0  0  0
  -31.3403  -25.1678   22.2735 C   0  0  0  0  0  0  0  0  0  0  0  0
  -34.0165  -30.2748   18.4152 C   0  0  0  0  0  0  0  0  0  0  0  0
  -29.6206  -12.3478   18.3043 C   0  0  0  0  0  0  0  0  0  0  0  0
  -34.6367  -29.3569   19.4638 C   0  0  0  0  0  0  0  0  0  0  0  0
  -28.1802  -12.0529   18.7293 C   0  0  0  0  0  0  0  0  0  0  0  0
  -30.5280  -12.5942   19.5083 C   0  0  0  0  0  0  0  0  0  0  0  0
  -28.6097  -13.3226   20.8718 C   0  0  0  0  0  0  0  0  0  0  0  0
  -34.7664  -27.9234   18.9349 C   0  0  1  0  0  0  0  0  0  0  0  0
  -31.6461  -25.9918   19.9177 C   0  0  1  0  0  0  0  0  0  0  0  0
  -27.6442  -13.1317   19.6907 C   0  0  2  0  0  0  0  0  0  0  0  0
  -25.2866  -26.7454   24.2758 C   0  0  0  0  0  0  0  0  0  0  0  0
  -27.7797  -20.0506   23.3482 C   0  0  0  0  0  0  0  0  0  0  0  0
  -27.5494  -19.9103   25.8529 C   0  0  0  0  0  0  0  0  0  0  0  0
  -31.4859  -28.9364   23.4764 C   0  0  0  0  0  0  0  0  0  0  0  0
  -29.4158  -28.8207   24.8797 C   0  0  0  0  0  0  0  0  0  0  0  0
  -29.3279  -29.8601   22.6138 C   0  0  0  0  0  0  0  0  0  0  0  0
  -26.1193  -23.8484   21.9540 C   0  0  0  0  0  0  0  0  0  0  0  0
  -32.4483  -19.3855   25.1341 C   0  0  0  0  0  0  0  0  0  0  0  0
  -32.5253  -20.8036   24.5790 C   0  0  0  0  0  0  0  0  0  1  0  0
  -29.5577  -27.3506   22.8182 C   0  0  1  0  0  0  0  0  0  0  0  0
  -26.0132  -26.0452   23.1379 C   0  0  2  0  0  0  0  0  0  0  0  0
  -28.1565  -19.2825   24.6068 C   0  0  0  0  0  0  0  0  0  0  0  0
  -29.9602  -28.7182   23.4389 C   0  0  0  0  0  0  0  0  0  0  0  0
  -25.8625  -11.5369   20.2936 N   0  0  0  0  0  0  0  0  0  0  0  0
  -26.2331  -12.8211   20.1538 N   0  0  0  0  0  0  0  0  0  0  0  0
  -30.9468  -26.0954   21.2001 N   0  0  0  0  0  0  0  0  0  0  0  0
  -29.9587  -13.6310   20.3719 N   0  0  0  0  0  0  0  0  0  0  0  0
  -25.4533  -15.0468   20.3744 N   0  0  0  0  0  0  0  0  0  0  0  0
  -21.8754  -12.5655   21.5737 N   0  0  0  0  0  0  0  0  0  0  0  0
  -30.0524  -15.7223   21.4583 N   0  0  0  0  0  0  0  0  0  0  0  0
  -29.5793  -19.2719   24.7402 N   0  0  0  0  0  0  0  0  0  0  0  0
  -33.4850  -27.2520   18.9752 N   0  0  0  0  0  0  0  0  0  0  0  0
  -28.1176  -27.1283   22.7451 N   0  0  0  0  0  0  0  0  0  0  0  0
  -25.5066  -24.6466   23.0470 N   0  3  0  0  0  0  0  0  0  0  0  0
  -22.6410  -14.7065   21.2755 O   0  0  0  0  0  0  0  0  0  0  0  0
  -33.5572  -26.5403   21.1912 O   0  0  0  0  0  0  0  0  0  0  0  0
  -29.7350  -27.9735   20.5363 O   0  0  0  0  0  0  0  0  0  0  0  0
  -28.0961  -25.1835   24.0077 O   0  0  0  0  0  0  0  0  0  0  0  0
  -31.8398  -14.9623   20.1897 O   0  0  0  0  0  0  0  0  0  0  0  0
  -21.6318   -7.0024   21.7387 O   0  0  0  0  0  0  0  0  0  0  0  0
  -33.2694  -20.8051   23.3614 O   0  0  0  0  0  0  0  0  0  1  0  0
  -18.6169   -6.8759   26.3537 F   0  0  0  0  0  0  0  0  0  0  0  0
  -22.0824   -5.0814   23.6750 F   0  0  0  0  0  0  0  0  0  0  0  0
  1  2  1  0  0  0  0
  1  5  2  0  0  0  0
  2  6  2  0  0  0  0
  3 10  2  0  0  0  0
  3 18  1  0  0  0  0
  4 11  1  0  0  0  0
  4 18  2  0  0  0  0
  5 20  1  0  0  0  0
  6 22  1  0  0  0  0
  7 12  2  0  0  0  0
  7 21  1  0  0  0  0
  8  9  2  0  0  0  0
  8 24  1  0  0  0  0
  9 25  1  0  0  0  0
 10 27  1  0  0  0  0
 11 27  2  0  0  0  0
 12 28  1  0  0  0  0
 13 14  2  0  0  0  0
 13 29  1  0  0  0  0
 14 30  1  0  0  0  0
 15 23  1  0  0  0  0
 15 28  2  0  0  0  0
 16 25  2  0  0  0  0
 16 26  1  0  0  0  0
 17 30  2  0  0  0  0
 17 31  1  0  0  0  0
 18 32  1  0  0  0  0
 19 32  1  0  0  0  0
 19 33  2  0  0  0  0
 19 34  1  0  0  0  0
 20 22  2  0  0  0  0
 20 39  1  0  0  0  0
 21 23  2  0  0  0  0
 21 40  1  0  0  0  0
 22 48  1  0  0  0  0
 23 41  1  0  0  0  0
 24 26  2  0  0  0  0
 24 58  1  0  0  0  0
 25 70  1  0  0  0  0
 26 71  1  0  0  0  0
 27 80  1  0  0  0  0
 28 81  1  0  0  0  0
 29 31  2  0  0  0  0
 29 80  1  0  0  0  0
 30 82  1  0  0  0  0
 31 83  1  0  0  0  0
 32 64  2  0  0  0  0
 33 65  1  0  0  0  0
 33 68  1  0  0  0  0
 34 69  1  0  0  0  0
 34 75  2  0  0  0  0
 35 49  1  0  0  0  0
 35 72  1  0  0  0  0
 35 76  2  0  0  0  0
 36 60  1  0  0  0  0
 36 66  1  0  0  0  0
 36 77  2  0  0  0  0
 37 61  1  0  0  0  0
 37 73  1  0  0  0  0
 37 78  2  0  0  0  0
 38 67  1  0  0  0  0
 38 70  1  0  0  0  0
 38 79  2  0  0  0  0
 39 42  1  0  0  0  0
 40 49  1  0  0  0  0
 41 66  1  0  0  0  0
 42 44  1  0  0  0  0
 43 45  1  0  0  0  0
 43 46  1  0  0  0  0
 44 48  1  0  0  0  0
 45 50  1  0  0  0  0
 46 67  1  0  0  0  0
 47 50  1  0  0  0  0
 47 67  1  0  0  0  0
 48 72  1  0  0  0  0
 49 66  1  0  0  0  0
 50 65  1  0  0  0  0
 51 61  1  0  0  0  0
 52 62  1  0  0  0  0
 53 62  1  0  0  0  0
 54 63  1  0  0  0  0
 55 63  1  0  0  0  0
 56 63  1  0  0  0  0
 57 74  1  0  0  0  0
 58 59  1  0  0  0  0
 59 81  1  0  0  0  0
 60 63  1  0  0  0  0
 60 73  1  0  0  0  0
 61 74  1  0  0  0  0
 62 71  1  0  0  0  0
 64 65  1  0  0  0  0
M  CHG  1  74   1
M  ISO  4  38 100  59 101  70 100  81 101
M  END
> <Batch ID>
0009

> <Smiles>
CNC(C)C(=O)NC(C(=O)N1Cc2cc([101O:1][101CH2:1]Cc3ccc([100NH:0][100C:0](=O)N4CCCC(n5nc(-c6ccc(Oc7ccc(F)cc7F)cc6)c(C(N)=O)c5N)C4)cc3NC(C)C)ccc2CC1C(=O)NC1CCCc2ccccc21)C(C)(C)C

> <Shape>
0.203

> <Color>
0.192

> <Negative vol penalty>
0.000

$$$$

  -OEChem-04052315383D

 82 89  0     1  0  0  0  0  0999 V2000
  -29.7535  -17.8401   18.7457 C   0  0  0  0  0  0  0  0  0  0  0  0
  -29.4175  -18.6942   17.9718 C   0  0  0  0  0  0  0  0  0  0  0  0
  -26.8053  -34.3421   25.1077 C   0  0  0  0  0  0  0  0  0  0  0  0
  -27.2053  -33.1121   24.5953 C   0  0  0  0  0  0  0  0  0  0  0  0
  -21.9029  -14.9868   21.9868 C   0  0  0  0  0  0  0  0  0  0  0  0
  -24.0680  -14.2899   21.1720 C   0  0  0  0  0  0  0  0  0  0  0  0
  -25.4820  -34.5345   25.5024 C   0  0  0  0  0  0  0  0  0  0  0  0
  -26.2823  -32.0734   24.4783 C   0  0  0  0  0  0  0  0  0  0  0  0
  -26.6065  -29.6786   20.0280 C   0  0  0  0  0  0  0  0  0  0  0  0
  -21.3632  -13.7593   21.6027 C   0  0  0  0  0  0  0  0  0  0  0  0
  -23.5283  -13.0623   20.7880 C   0  0  0  0  0  0  0  0  0  0  0  0
  -27.6461  -28.7628   19.8720 C   0  0  0  0  0  0  0  0  0  0  0  0
  -22.6532  -10.1546   22.2713 C   0  0  0  0  0  0  0  0  0  0  0  0
  -23.3758   -9.0038   22.5861 C   0  0  0  0  0  0  0  0  0  0  0  0
  -26.1115  -26.9547   20.3140 C   0  0  0  0  0  0  0  0  0  0  0  0
  -23.5251   -8.4551   20.2380 C   0  0  0  0  0  0  0  0  0  0  0  0
  -23.2553  -15.2522   21.7714 C   0  0  0  0  0  0  0  0  0  0  0  0
  -24.3863  -16.8456   23.4113 C   0  0  0  0  0  0  0  0  0  0  0  0
  -24.5401  -33.5006   25.3812 C   0  0  0  0  0  0  0  0  0  0  0  0
  -25.3117  -29.2393   20.3395 C   0  0  0  0  0  0  0  0  0  0  0  0
  -24.9455  -32.2517   24.8730 C   0  0  0  0  0  0  0  0  0  0  0  0
  -25.0567  -27.8668   20.4709 C   0  0  0  0  0  0  0  0  0  0  0  0
  -22.1759  -12.7970   21.0034 C   0  0  0  0  0  0  0  0  0  0  0  0
  -27.3993  -27.4008   20.0178 C   0  0  0  0  0  0  0  0  0  0  0  0
  -22.3665  -10.4557   20.9398 C   0  0  0  0  0  0  0  0  0  0  0  0
  -23.8117   -8.1541   21.5695 C   0  0  0  0  0  0  0  0  0  0  0  0
  -22.8024   -9.6059   19.9232 C   0  0  0  0  0  0  0  0  0  0  0  0
  -23.8132  -16.5202   22.1673 C   0  0  0  0  0  0  0  0  0  0  0  0
  -24.7621  -18.1604   23.2829 C   0  0  0  0  0  0  0  0  0  0  0  0
  -24.5632  -16.0320   24.5786 C   0  0  0  0  0  0  0  0  0  0  0  0
  -23.3180  -29.6820   22.7752 C   0  0  0  0  0  0  0  0  0  0  0  0
  -21.2581  -28.0421   20.8805 C   0  0  0  0  0  0  0  0  0  0  0  0
  -29.3602  -21.6433   18.6774 C   0  0  0  0  0  0  0  0  0  0  0  0
  -20.8115  -25.8213   18.3280 C   0  0  0  0  0  0  0  0  0  0  0  0
  -26.1422  -21.5633   18.5535 C   0  0  0  0  0  0  0  0  0  0  0  0
  -23.1321  -33.7410   25.8651 C   0  0  0  0  0  0  0  0  0  0  0  0
  -24.1956  -30.2381   20.4781 C   0  0  0  0  0  0  0  0  0  0  0  0
  -23.6802  -27.3424   20.7849 C   0  0  0  0  0  0  0  0  0  0  0  0
  -22.1293  -32.7071   25.3594 C   0  0  0  0  0  0  0  0  0  0  0  0
  -23.5948  -22.1790   20.9635 C   0  0  0  0  0  0  0  0  0  0  0  0
  -22.6859  -31.2968   25.5275 C   0  0  0  0  0  0  0  0  0  0  0  0
  -23.4136  -20.8279   21.6576 C   0  0  0  0  0  0  0  0  0  0  0  0
  -23.8868  -22.0135   19.4738 C   0  0  0  0  0  0  0  0  0  0  0  0
  -24.8391  -19.7725   19.8540 C   0  0  0  0  0  0  0  0  0  0  0  0
  -23.9680  -31.1084   24.7075 C   0  0  1  0  0  0  0  0  0  0  0  0
  -23.0236  -29.7138   21.3021 C   0  0  1  0  0  0  0  0  0  0  0  0
  -24.5980  -19.8860   21.3691 C   0  0  2  0  0  0  0  0  0  0  0  0
  -19.0128  -24.6477   17.0300 C   0  0  0  0  0  0  0  0  0  0  0  0
  -20.8042  -26.1466   23.2280 C   0  0  0  0  0  0  0  0  0  0  0  0
  -19.7893  -24.5143   21.6236 C   0  0  0  0  0  0  0  0  0  0  0  0
  -18.7352  -26.7501   21.9594 C   0  0  0  0  0  0  0  0  0  0  0  0
  -21.6752  -27.0636   15.7845 C   0  0  0  0  0  0  0  0  0  0  0  0
  -29.0076  -19.7405   17.0201 C   0  0  0  0  0  0  0  0  0  0  0  0
  -30.5949  -24.6412   19.3858 C   0  0  0  0  0  0  0  0  0  0  0  0
  -30.0451  -25.6035   18.3324 C   0  0  0  0  0  0  0  0  0  0  0  0
  -31.1455  -23.3571   18.7736 C   0  0  0  0  0  0  0  0  0  0  0  0
  -29.4647  -26.8593   18.9704 C   0  0  0  0  0  0  0  0  0  1  0  0
  -20.9131  -26.5854   20.6861 C   0  0  1  0  0  0  0  0  0  0  0  0
  -28.3969  -20.9665   17.7054 C   0  0  1  0  0  0  0  0  0  0  0  0
  -19.9218  -25.8650   17.0989 C   0  0  2  0  0  0  0  0  0  0  0  0
  -20.0869  -26.0088   21.8703 C   0  0  0  0  0  0  0  0  0  0  0  0
  -23.8218  -17.5458   21.3116 N   0  0  0  0  0  0  0  0  0  0  0  0
  -24.4049  -18.5284   22.0191 N   0  0  0  0  0  0  0  0  0  0  0  0
  -22.6234  -28.3589   20.9173 N   0  0  0  0  0  0  0  0  0  0  0  0
  -25.0215  -21.1100   19.2689 N   0  0  0  0  0  0  0  0  0  0  0  0
  -25.3599  -19.0261   24.1288 N   0  0  0  0  0  0  0  0  0  0  0  0
  -24.1200  -14.7029   24.5400 N   0  0  0  0  0  0  0  0  0  0  0  0
  -23.6495  -30.9125   23.3094 N   0  0  0  0  0  0  0  0  0  0  0  0
  -30.1443  -22.6123   18.0606 N   0  0  0  0  0  0  0  0  0  0  0  0
  -20.2467  -26.4929   19.3916 N   0  0  0  0  0  0  0  0  0  0  0  0
  -27.1759  -20.6458   18.4104 N   0  0  0  0  0  0  0  0  0  0  0  0
  -20.7503  -25.9035   15.8607 N   0  3  0  0  0  0  0  0  0  0  0  0
  -25.0835  -16.4754   25.6303 O   0  0  0  0  0  0  0  0  0  0  0  0
  -23.2480  -28.6199   23.3825 O   0  0  0  0  0  0  0  0  0  0  0  0
  -20.3496  -28.8695   20.9884 O   0  0  0  0  0  0  0  0  0  0  0  0
  -29.4430  -21.3349   19.8646 O   0  0  0  0  0  0  0  0  0  0  0  0
  -21.8972  -25.2454   18.3443 O   0  0  0  0  0  0  0  0  0  0  0  0
  -26.2183  -22.7030   18.0822 O   0  0  0  0  0  0  0  0  0  0  0  0
  -21.6497  -11.5990   20.6287 O   0  0  0  0  0  0  0  0  0  0  0  0
  -28.4124  -26.5048   19.8667 O   0  0  0  0  0  0  0  0  0  1  0  0
  -24.5069   -7.0498   21.8719 F   0  0  0  0  0  0  0  0  0  0  0  0
  -22.5311   -9.8905   18.6421 F   0  0  0  0  0  0  0  0  0  0  0  0
  1  2  3  0  0  0  0
  2 53  1  0  0  0  0
  3  4  1  0  0  0  0
  3  7  2  0  0  0  0
  4  8  2  0  0  0  0
  5 10  2  0  0  0  0
  5 17  1  0  0  0  0
  6 11  1  0  0  0  0
  6 17  2  0  0  0  0
  7 19  1  0  0  0  0
  8 21  1  0  0  0  0
  9 12  2  0  0  0  0
  9 20  1  0  0  0  0
 10 23  1  0  0  0  0
 11 23  2  0  0  0  0
 12 24  1  0  0  0  0
 13 14  2  0  0  0  0
 13 25  1  0  0  0  0
 14 26  1  0  0  0  0
 15 22  1  0  0  0  0
 15 24  2  0  0  0  0
 16 26  2  0  0  0  0
 16 27  1  0  0  0  0
 17 28  1  0  0  0  0
 18 28  1  0  0  0  0
 18 29  2  0  0  0  0
 18 30  1  0  0  0  0
 19 21  2  0  0  0  0
 19 36  1  0  0  0  0
 20 22  2  0  0  0  0
 20 37  1  0  0  0  0
 21 45  1  0  0  0  0
 22 38  1  0  0  0  0
 23 79  1  0  0  0  0
 24 80  1  0  0  0  0
 25 27  2  0  0  0  0
 25 79  1  0  0  0  0
 26 81  1  0  0  0  0
 27 82  1  0  0  0  0
 28 62  2  0  0  0  0
 29 63  1  0  0  0  0
 29 66  1  0  0  0  0
 30 67  1  0  0  0  0
 30 73  2  0  0  0  0
 31 46  1  0  0  0  0
 31 68  1  0  0  0  0
 31 74  2  0  0  0  0
 32 58  1  0  0  0  0
 32 64  1  0  0  0  0
 32 75  2  0  0  0  0
 33 59  1  0  0  0  0
 33 69  1  0  0  0  0
 33 76  2  0  0  0  0
 34 60  1  0  0  0  0
 34 70  1  0  0  0  0
 34 77  2  0  0  0  0
 35 65  1  0  0  0  0
 35 71  1  0  0  0  0
 35 78  2  0  0  0  0
 36 39  1  0  0  0  0
 37 46  1  0  0  0  0
 38 64  1  0  0  0  0
 39 41  1  0  0  0  0
 40 42  1  0  0  0  0
 40 43  1  0  0  0  0
 41 45  1  0  0  0  0
 42 47  1  0  0  0  0
 43 65  1  0  0  0  0
 44 47  1  0  0  0  0
 44 65  1  0  0  0  0
 45 68  1  0  0  0  0
 46 64  1  0  0  0  0
 47 63  1  0  0  0  0
 48 60  1  0  0  0  0
 49 61  1  0  0  0  0
 50 61  1  0  0  0  0
 51 61  1  0  0  0  0
 52 72  1  0  0  0  0
 53 59  1  0  0  0  0
 54 55  1  0  0  0  0
 54 56  1  0  0  0  0
 55 57  1  0  0  0  0
 56 69  1  0  0  0  0
 57 80  1  0  0  0  0
 58 61  1  0  0  0  0
 58 70  1  0  0  0  0
 59 71  1  0  0  0  0
 60 72  1  0  0  0  0
 62 63  1  0  0  0  0
M  CHG  1  72   1
M  ISO  4  35 100  57 101  71 100  80 101
M  END
> <Batch ID>
0009

> <Smiles>
C#CCC([100NH:0][100C:0](=O)N1CCCC(n2nc(-c3ccc(Oc4ccc(F)cc4F)cc3)c(C(N)=O)c2N)C1)C(=O)NCCC[101CH2:1][101O:1]c1ccc2c(c1)CN(C(=O)C(NC(=O)C(C)NC)C(C)(C)C)C(C(=O)NC1CCCc3ccccc31)C2

> <Shape>
0.246

> <Color>
0.083

> <Negative vol penalty>
0.000

$$$$

  -OEChem-04052315383D

 81 89  0     1  0  0  0  0  0999 V2000
  -16.6897  -29.4611   23.1319 C   0  0  0  0  0  0  0  0  0  0  0  0
  -17.6537  -29.5874   22.1369 C   0  0  0  0  0  0  0  0  0  0  0  0
  -26.5850  -12.6865   21.9931 C   0  0  0  0  0  0  0  0  0  0  0  0
  -25.7693  -14.3575   20.4506 C   0  0  0  0  0  0  0  0  0  0  0  0
  -17.0736  -29.1677   24.4398 C   0  0  0  0  0  0  0  0  0  0  0  0
  -19.0025  -29.4214   22.4495 C   0  0  0  0  0  0  0  0  0  0  0  0
  -25.1332  -27.0212   19.6262 C   0  0  0  0  0  0  0  0  0  0  0  0
  -28.8220  -22.0323   20.5317 C   0  0  0  0  0  0  0  0  0  0  0  0
  -30.6671  -22.6487   21.9643 C   0  0  0  0  0  0  0  0  0  0  0  0
  -25.3403  -12.0575   21.9700 C   0  0  0  0  0  0  0  0  0  0  0  0
  -24.5245  -13.7284   20.4274 C   0  0  0  0  0  0  0  0  0  0  0  0
  -26.4510  -27.4234   19.4131 C   0  0  0  0  0  0  0  0  0  0  0  0
  -29.1192  -23.1028   19.6883 C   0  0  0  0  0  0  0  0  0  0  0  0
  -30.9644  -23.7192   21.1209 C   0  0  0  0  0  0  0  0  0  0  0  0
  -22.4870   -9.8060   22.0365 C   0  0  0  0  0  0  0  0  0  0  0  0
  -22.4646   -8.4169   21.9129 C   0  0  0  0  0  0  0  0  0  0  0  0
  -26.9909  -26.8404   21.6907 C   0  0  0  0  0  0  0  0  0  0  0  0
  -23.6152   -8.5868   19.7952 C   0  0  0  0  0  0  0  0  0  0  0  0
  -26.7995  -13.8366   21.2335 C   0  0  0  0  0  0  0  0  0  0  0  0
  -29.1797  -14.2381   20.4083 C   0  0  0  0  0  0  0  0  0  0  0  0
  -18.4270  -28.9886   24.7666 C   0  0  0  0  0  0  0  0  0  0  0  0
  -24.7311  -26.5350   20.8786 C   0  0  0  0  0  0  0  0  0  0  0  0
  -19.4050  -29.1267   23.7632 C   0  0  0  0  0  0  0  0  0  0  0  0
  -25.6680  -26.4303   21.9165 C   0  0  0  0  0  0  0  0  0  0  0  0
  -29.5959  -21.8053   21.6698 C   0  0  0  0  0  0  0  0  0  0  0  0
  -24.3101  -12.5784   21.1871 C   0  0  0  0  0  0  0  0  0  0  0  0
  -30.1904  -23.9462   19.9829 C   0  0  0  0  0  0  0  0  0  0  0  0
  -27.3794  -27.3357   20.4462 C   0  0  0  0  0  0  0  0  0  0  0  0
  -23.0734  -10.5856   21.0395 C   0  0  0  0  0  0  0  0  0  0  0  0
  -23.0288   -7.8072   20.7923 C   0  0  0  0  0  0  0  0  0  0  0  0
  -23.6375   -9.9760   19.9189 C   0  0  0  0  0  0  0  0  0  0  0  0
  -28.0849  -14.4872   21.2574 C   0  0  0  0  0  0  0  0  0  0  0  0
  -30.1515  -15.1091   20.8365 C   0  0  0  0  0  0  0  0  0  0  0  0
  -29.3069  -13.3031   19.3288 C   0  0  0  0  0  0  0  0  0  0  0  0
  -22.6340  -27.4660   23.0784 C   0  0  0  0  0  0  0  0  0  0  0  0
  -23.4563  -24.6625   24.4878 C   0  0  0  0  0  0  0  0  0  0  0  0
  -25.7688  -22.1825   24.8734 C   0  0  0  0  0  0  0  0  0  0  0  0
  -29.9615  -20.3528   23.6953 C   0  0  0  0  0  0  0  0  0  0  0  0
  -18.7973  -28.7192   26.2036 C   0  0  0  0  0  0  0  0  0  0  0  0
  -23.3122  -26.0803   21.0845 C   0  0  0  0  0  0  0  0  0  0  0  0
  -25.2918  -25.8963   23.2735 C   0  0  0  0  0  0  0  0  0  0  0  0
  -20.2180  -28.1885   26.3773 C   0  0  0  0  0  0  0  0  0  0  0  0
  -31.6554  -17.4075   24.7596 C   0  0  0  0  0  0  0  0  0  0  0  0
  -21.2010  -29.0149   25.5542 C   0  0  0  0  0  0  0  0  0  0  0  0
  -31.0359  -16.3026   23.9007 C   0  0  0  0  0  0  0  0  0  0  0  0
  -30.6229  -18.4591   25.1620 C   0  0  0  0  0  0  0  0  0  0  0  0
  -29.2429  -17.9355   23.1896 C   0  0  0  0  0  0  0  0  0  0  0  0
  -20.8762  -28.9294   24.0580 C   0  0  1  0  0  0  0  0  0  0  0  0
  -22.8907  -26.0828   22.5507 C   0  0  1  0  0  0  0  0  0  0  0  0
  -30.2581  -16.8873   22.7054 C   0  0  2  0  0  0  0  0  0  0  0  0
  -26.7383  -20.0040   25.6554 C   0  0  0  0  0  0  0  0  0  0  0  0
  -24.0606  -26.2563   27.0185 C   0  0  0  0  0  0  0  0  0  0  0  0
  -25.3278  -24.2761   27.8794 C   0  0  0  0  0  0  0  0  0  0  0  0
  -22.8855  -24.0837   27.4097 C   0  0  0  0  0  0  0  0  0  0  0  0
  -24.6824  -20.7270   22.5367 C   0  0  0  0  0  0  0  0  0  0  0  0
  -30.6908  -27.3904   18.9728 C   0  0  0  0  0  0  0  0  0  0  0  0
  -31.0716  -26.1434   19.7552 C   0  0  0  0  0  0  0  0  0  0  0  0
  -29.1843  -27.5901   18.9186 C   0  0  0  0  0  0  0  0  0  1  0  0
  -24.5109  -24.2332   25.4790 C   0  0  1  0  0  0  0  0  0  0  0  0
  -25.6386  -20.6703   24.8434 C   0  0  2  0  0  0  0  0  0  0  0  0
  -24.2031  -24.7242   26.9218 C   0  0  0  0  0  0  0  0  0  0  0  0
  -28.3369  -15.4416   22.1572 N   0  0  0  0  0  0  0  0  0  0  0  0
  -29.6013  -15.7998   21.8759 N   0  0  0  0  0  0  0  0  0  0  0  0
  -23.8910  -25.4702   23.4273 N   0  0  0  0  0  0  0  0  0  0  0  0
  -29.9288  -18.9709   23.9784 N   0  0  0  0  0  0  0  0  0  0  0  0
  -31.4146  -15.3439   20.4217 N   0  0  0  0  0  0  0  0  0  0  0  0
  -28.2117  -12.4841   19.0219 N   0  0  0  0  0  0  0  0  0  0  0  0
  -29.2941  -20.7179   22.5266 N   0  0  0  0  0  0  0  0  0  0  0  0
  -21.3380  -27.6713   23.5117 N   0  0  0  0  0  0  0  0  0  0  0  0
  -24.6244  -22.7842   25.3524 N   0  0  0  0  0  0  0  0  0  0  0  0
  -25.7210  -20.1710   23.4417 N   0  3  0  0  0  0  0  0  0  0  0  0
  -30.3659  -13.1856   18.6670 O   0  0  0  0  0  0  0  0  0  0  0  0
  -23.5446  -28.2859   23.0928 O   0  0  0  0  0  0  0  0  0  0  0  0
  -22.2912  -24.2890   24.6446 O   0  0  0  0  0  0  0  0  0  0  0  0
  -26.7855  -22.7708   24.5118 O   0  0  0  0  0  0  0  0  0  0  0  0
  -30.5621  -21.1498   24.4207 O   0  0  0  0  0  0  0  0  0  0  0  0
  -23.0954  -11.9646   21.1640 O   0  0  0  0  0  0  0  0  0  0  0  0
  -30.4825  -24.9982   19.1542 O   0  0  0  0  0  0  0  0  0  0  0  0
  -28.6662  -27.7281   20.2411 O   0  0  0  0  0  0  0  0  0  1  0  0
  -23.0086   -6.4731   20.6744 F   0  0  0  0  0  0  0  0  0  0  0  0
  -24.2034  -10.7197   18.9583 F   0  0  0  0  0  0  0  0  0  0  0  0
  1  2  1  0  0  0  0
  1  5  2  0  0  0  0
  2  6  2  0  0  0  0
  3 10  2  0  0  0  0
  3 19  1  0  0  0  0
  4 11  1  0  0  0  0
  4 19  2  0  0  0  0
  5 21  1  0  0  0  0
  6 23  1  0  0  0  0
  7 12  2  0  0  0  0
  7 22  1  0  0  0  0
  8 13  2  0  0  0  0
  8 25  1  0  0  0  0
  9 14  1  0  0  0  0
  9 25  2  0  0  0  0
 10 26  1  0  0  0  0
 11 26  2  0  0  0  0
 12 28  1  0  0  0  0
 13 27  1  0  0  0  0
 14 27  2  0  0  0  0
 15 16  2  0  0  0  0
 15 29  1  0  0  0  0
 16 30  1  0  0  0  0
 17 24  1  0  0  0  0
 17 28  2  0  0  0  0
 18 30  2  0  0  0  0
 18 31  1  0  0  0  0
 19 32  1  0  0  0  0
 20 32  1  0  0  0  0
 20 33  2  0  0  0  0
 20 34  1  0  0  0  0
 21 23  2  0  0  0  0
 21 39  1  0  0  0  0
 22 24  2  0  0  0  0
 22 40  1  0  0  0  0
 23 48  1  0  0  0  0
 24 41  1  0  0  0  0
 25 68  1  0  0  0  0
 26 77  1  0  0  0  0
 27 78  1  0  0  0  0
 28 79  1  0  0  0  0
 29 31  2  0  0  0  0
 29 77  1  0  0  0  0
 30 80  1  0  0  0  0
 31 81  1  0  0  0  0
 32 62  2  0  0  0  0
 33 63  1  0  0  0  0
 33 66  1  0  0  0  0
 34 67  1  0  0  0  0
 34 72  2  0  0  0  0
 35 49  1  0  0  0  0
 35 69  1  0  0  0  0
 35 73  2  0  0  0  0
 36 59  1  0  0  0  0
 36 64  1  0  0  0  0
 36 74  2  0  0  0  0
 37 60  1  0  0  0  0
 37 70  1  0  0  0  0
 37 75  2  0  0  0  0
 38 65  1  0  0  0  0
 38 68  1  0  0  0  0
 38 76  2  0  0  0  0
 39 42  1  0  0  0  0
 40 49  1  0  0  0  0
 41 64  1  0  0  0  0
 42 44  1  0  0  0  0
 43 45  1  0  0  0  0
 43 46  1  0  0  0  0
 44 48  1  0  0  0  0
 45 50  1  0  0  0  0
 46 65  1  0  0  0  0
 47 50  1  0  0  0  0
 47 65  1  0  0  0  0
 48 69  1  0  0  0  0
 49 64  1  0  0  0  0
 50 63  1  0  0  0  0
 51 60  1  0  0  0  0
 52 61  1  0  0  0  0
 53 61  1  0  0  0  0
 54 61  1  0  0  0  0
 55 71  1  0  0  0  0
 56 57  1  0  0  0  0
 56 58  1  0  0  0  0
 57 78  1  0  0  0  0
 58 79  1  0  0  0  0
 59 61  1  0  0  0  0
 59 70  1  0  0  0  0
 60 71  1  0  0  0  0
 62 63  1  0  0  0  0
M  CHG  1  71   1
M  ISO  4  38 100  58 101  68 100  79 101
M  END
> <Batch ID>
0009

> <Smiles>
CNC(C)C(=O)NC(C(=O)N1Cc2cc([101O:1][101CH2:1]CCOc3ccc([100NH:0][100C:0](=O)N4CCCC(n5nc(-c6ccc(Oc7ccc(F)cc7F)cc6)c(C(N)=O)c5N)C4)cc3)ccc2CC1C(=O)NC1CCCc2ccccc21)C(C)(C)C

> <Shape>
0.239

> <Color>
0.096

> <Negative vol penalty>
0.000

$$$$

  -OEChem-04052315383D

 81 89  0     1  0  0  0  0  0999 V2000
  -32.3990  -24.3014   24.1952 C   0  0  0  0  0  0  0  0  0  0  0  0
  -31.1064  -24.3809   23.6869 C   0  0  0  0  0  0  0  0  0  0  0  0
  -29.9827  -27.6641   18.5397 C   0  0  0  0  0  0  0  0  0  0  0  0
  -29.9789  -26.9916   20.8602 C   0  0  0  0  0  0  0  0  0  0  0  0
  -33.2461  -23.2728   23.7848 C   0  0  0  0  0  0  0  0  0  0  0  0
  -30.6606  -23.4325   22.7670 C   0  0  0  0  0  0  0  0  0  0  0  0
  -26.0010  -21.7493   23.8161 C   0  0  0  0  0  0  0  0  0  0  0  0
  -19.4349  -29.0365   22.2322 C   0  0  0  0  0  0  0  0  0  0  0  0
  -31.3756  -27.5918   18.5210 C   0  0  0  0  0  0  0  0  0  0  0  0
  -31.3718  -26.9192   20.8415 C   0  0  0  0  0  0  0  0  0  0  0  0
  -24.9327  -22.5758   23.4707 C   0  0  0  0  0  0  0  0  0  0  0  0
  -33.7422  -25.1876   18.2946 C   0  0  0  0  0  0  0  0  0  0  0  0
  -18.1629  -28.4742   22.1257 C   0  0  0  0  0  0  0  0  0  0  0  0
  -34.3441  -24.5576   17.2053 C   0  0  0  0  0  0  0  0  0  0  0  0
  -24.5618  -21.2568   21.4854 C   0  0  0  0  0  0  0  0  0  0  0  0
  -19.0677  -26.3145   22.7206 C   0  0  0  0  0  0  0  0  0  0  0  0
  -35.5155  -26.6018   16.6703 C   0  0  0  0  0  0  0  0  0  0  0  0
  -29.2844  -27.3641   19.7093 C   0  0  0  0  0  0  0  0  0  0  0  0
  -26.9362  -26.4073   19.4291 C   0  0  0  0  0  0  0  0  0  0  0  0
  -32.8072  -22.3057   22.8669 C   0  0  0  0  0  0  0  0  0  0  0  0
  -26.3652  -20.6750   22.9916 C   0  0  0  0  0  0  0  0  0  0  0  0
  -31.5030  -22.3908   22.3430 C   0  0  0  0  0  0  0  0  0  0  0  0
  -25.6335  -20.4166   21.8238 C   0  0  0  0  0  0  0  0  0  0  0  0
  -20.5234  -28.2378   22.5829 C   0  0  0  0  0  0  0  0  0  0  0  0
  -32.0701  -27.2194   19.6719 C   0  0  0  0  0  0  0  0  0  0  0  0
  -24.2147  -22.3314   22.3038 C   0  0  0  0  0  0  0  0  0  0  0  0
  -34.0269  -26.5247   18.5717 C   0  0  0  0  0  0  0  0  0  0  0  0
  -20.3398  -26.8768   22.8271 C   0  0  0  0  0  0  0  0  0  0  0  0
  -17.9793  -27.1133   22.3699 C   0  0  0  0  0  0  0  0  0  0  0  0
  -35.2307  -25.2647   16.3932 C   0  0  0  0  0  0  0  0  0  0  0  0
  -34.9136  -27.2318   17.7596 C   0  0  0  0  0  0  0  0  0  0  0  0
  -27.8456  -27.4391   19.7294 C   0  0  0  0  0  0  0  0  0  0  0  0
  -25.6993  -26.9810   19.5942 C   0  0  0  0  0  0  0  0  0  0  0  0
  -27.1872  -25.0515   19.0360 C   0  0  0  0  0  0  0  0  0  0  0  0
  -28.9690  -19.8942   21.3440 C   0  0  0  0  0  0  0  0  0  0  0  0
  -27.3341  -17.1431   20.8133 C   0  0  0  0  0  0  0  0  0  0  0  0
  -24.3199  -15.5529   20.6335 C   0  0  0  0  0  0  0  0  0  0  0  0
  -22.1493  -30.1591   22.4752 C   0  0  0  0  0  0  0  0  0  0  0  0
  -33.7747  -21.2397   22.4172 C   0  0  0  0  0  0  0  0  0  0  0  0
  -27.5033  -19.7767   23.3919 C   0  0  0  0  0  0  0  0  0  0  0  0
  -25.9714  -19.2640   20.9150 C   0  0  0  0  0  0  0  0  0  0  0  0
  -33.1006  -20.0586   21.7238 C   0  0  0  0  0  0  0  0  0  0  0  0
  -24.3743  -31.8223   20.2481 C   0  0  0  0  0  0  0  0  0  0  0  0
  -32.0881  -20.5507   20.6945 C   0  0  0  0  0  0  0  0  0  0  0  0
  -25.4010  -30.7454   19.8899 C   0  0  0  0  0  0  0  0  0  0  0  0
  -23.9258  -31.7163   21.7046 C   0  0  0  0  0  0  0  0  0  0  0  0
  -24.4683  -29.3137   21.7520 C   0  0  0  0  0  0  0  0  0  0  0  0
  -30.9746  -21.3666   21.3623 C   0  0  1  0  0  0  0  0  0  0  0  0
  -28.1104  -19.0205   22.2142 C   0  0  1  0  0  0  0  0  0  0  0  0
  -24.9015  -29.3396   20.2771 C   0  0  2  0  0  0  0  0  0  0  0  0
  -23.3006  -13.3130   20.1419 C   0  0  0  0  0  0  0  0  0  0  0  0
  -27.8016  -17.5876   17.8311 C   0  0  0  0  0  0  0  0  0  0  0  0
  -26.0043  -15.9068   17.3698 C   0  0  0  0  0  0  0  0  0  0  0  0
  -28.0700  -15.2190   18.5874 C   0  0  0  0  0  0  0  0  0  0  0  0
  -23.1485  -15.3614   23.3446 C   0  0  0  0  0  0  0  0  0  0  0  0
  -22.8683  -24.2144   22.8491 C   0  0  0  0  0  0  0  0  0  1  0  0
  -21.6815  -24.9844   22.3031 C   0  0  0  0  0  0  0  0  0  0  0  0
  -26.3607  -16.6634   19.7639 C   0  0  1  0  0  0  0  0  0  0  0  0
  -23.8373  -14.2394   21.2220 C   0  0  2  0  0  0  0  0  0  0  0  0
  -27.0537  -16.3672   18.4040 C   0  0  0  0  0  0  0  0  0  0  0  0
  -27.2381  -28.5818   20.0601 N   0  0  0  0  0  0  0  0  0  0  0  0
  -25.9338  -28.2714   19.9684 N   0  0  0  0  0  0  0  0  0  0  0  0
  -27.0965  -18.4180   21.3463 N   0  0  0  0  0  0  0  0  0  0  0  0
  -23.4618  -30.3584   21.9975 N   0  0  0  0  0  0  0  0  0  0  0  0
  -24.4447  -26.5025   19.4541 N   0  0  0  0  0  0  0  0  0  0  0  0
  -28.5172  -24.6265   18.9143 N   0  0  0  0  0  0  0  0  0  0  0  0
  -21.8095  -28.8233   22.6871 N   0  0  0  0  0  0  0  0  0  0  0  0
  -30.0238  -20.4885   22.0100 N   0  0  0  0  0  0  0  0  0  0  0  0
  -25.6675  -15.5180   20.3433 N   0  0  0  0  0  0  0  0  0  0  0  0
  -22.7519  -14.4838   22.2135 N   0  3  0  0  0  0  0  0  0  0  0  0
  -26.2596  -24.2456   18.7839 O   0  0  0  0  0  0  0  0  0  0  0  0
  -28.6956  -20.0185   20.1559 O   0  0  0  0  0  0  0  0  0  0  0  0
  -28.2667  -16.4107   21.1530 O   0  0  0  0  0  0  0  0  0  0  0  0
  -23.5752  -16.5124   20.4462 O   0  0  0  0  0  0  0  0  0  0  0  0
  -21.3740  -31.1017   22.6552 O   0  0  0  0  0  0  0  0  0  0  0  0
  -33.4292  -27.1485   19.6540 O   0  0  0  0  0  0  0  0  0  0  0  0
  -23.1719  -23.1370   21.9640 O   0  0  0  0  0  0  0  0  0  1  0  0
  -21.3951  -26.0738   23.1717 O   0  0  0  0  0  0  0  0  0  0  0  0
  -16.7574  -26.5738   22.2680 F   0  0  0  0  0  0  0  0  0  0  0  0
  -35.8098  -24.6592   15.3481 F   0  0  0  0  0  0  0  0  0  0  0  0
  -35.1920  -28.5162   18.0216 F   0  0  0  0  0  0  0  0  0  0  0  0
  1  2  1  0  0  0  0
  1  5  2  0  0  0  0
  2  6  2  0  0  0  0
  3  9  2  0  0  0  0
  3 18  1  0  0  0  0
  4 10  1  0  0  0  0
  4 18  2  0  0  0  0
  5 20  1  0  0  0  0
  6 22  1  0  0  0  0
  7 11  2  0  0  0  0
  7 21  1  0  0  0  0
  8 13  2  0  0  0  0
  8 24  1  0  0  0  0
  9 25  1  0  0  0  0
 10 25  2  0  0  0  0
 11 26  1  0  0  0  0
 12 14  2  0  0  0  0
 12 27  1  0  0  0  0
 13 29  1  0  0  0  0
 14 30  1  0  0  0  0
 15 23  1  0  0  0  0
 15 26  2  0  0  0  0
 16 28  1  0  0  0  0
 16 29  2  0  0  0  0
 17 30  2  0  0  0  0
 17 31  1  0  0  0  0
 18 32  1  0  0  0  0
 19 32  1  0  0  0  0
 19 33  2  0  0  0  0
 19 34  1  0  0  0  0
 20 22  2  0  0  0  0
 20 39  1  0  0  0  0
 21 23  2  0  0  0  0
 21 40  1  0  0  0  0
 22 48  1  0  0  0  0
 23 41  1  0  0  0  0
 24 28  2  0  0  0  0
 24 67  1  0  0  0  0
 25 76  1  0  0  0  0
 26 77  1  0  0  0  0
 27 31  2  0  0  0  0
 27 76  1  0  0  0  0
 28 78  1  0  0  0  0
 29 79  1  0  0  0  0
 30 80  1  0  0  0  0
 31 81  1  0  0  0  0
 32 61  2  0  0  0  0
 33 62  1  0  0  0  0
 33 65  1  0  0  0  0
 34 66  1  0  0  0  0
 34 71  2  0  0  0  0
 35 49  1  0  0  0  0
 35 68  1  0  0  0  0
 35 72  2  0  0  0  0
 36 58  1  0  0  0  0
 36 63  1  0  0  0  0
 36 73  2  0  0  0  0
 37 59  1  0  0  0  0
 37 69  1  0  0  0  0
 37 74  2  0  0  0  0
 38 64  1  0  0  0  0
 38 67  1  0  0  0  0
 38 75  2  0  0  0  0
 39 42  1  0  0  0  0
 40 49  1  0  0  0  0
 41 63  1  0  0  0  0
 42 44  1  0  0  0  0
 43 45  1  0  0  0  0
 43 46  1  0  0  0  0
 44 48  1  0  0  0  0
 45 50  1  0  0  0  0
 46 64  1  0  0  0  0
 47 50  1  0  0  0  0
 47 64  1  0  0  0  0
 48 68  1  0  0  0  0
 49 63  1  0  0  0  0
 50 62  1  0  0  0  0
 51 59  1  0  0  0  0
 52 60  1  0  0  0  0
 53 60  1  0  0  0  0
 54 60  1  0  0  0  0
 55 70  1  0  0  0  0
 56 57  1  0  0  0  0
 56 77  1  0  0  0  0
 57 78  1  0  0  0  0
 58 60  1  0  0  0  0
 58 69  1  0  0  0  0
 59 70  1  0  0  0  0
 61 62  1  0  0  0  0
M  CHG  1  70   1
M  ISO  4  38 100  56 101  67 100  77 101
M  END
> <Batch ID>
0009

> <Smiles>
CNC(C)C(=O)NC(C(=O)N1Cc2cc([101O:1][101CH2:1]COc3cc(F)ccc3[100NH:0][100C:0](=O)N3CCCC(n4nc(-c5ccc(Oc6ccc(F)cc6F)cc5)c(C(N)=O)c4N)C3)ccc2CC1C(=O)NC1CCCc2ccccc21)C(C)(C)C

> <Shape>
0.202

> <Color>
0.080

> <Negative vol penalty>
0.000

$$$$

  -OEChem-04052315383D

 83 91  0     1  0  0  0  0  0999 V2000
  -20.9245  -25.6073   32.3498 C   0  0  0  0  0  0  0  0  0  0  0  0
  -22.0033  -25.8063   31.4942 C   0  0  0  0  0  0  0  0  0  0  0  0
  -23.0752   -9.8687   19.9403 C   0  0  0  0  0  0  0  0  0  0  0  0
  -23.8349   -9.8747   22.2338 C   0  0  0  0  0  0  0  0  0  0  0  0
  -20.8718  -24.4665   33.1495 C   0  0  0  0  0  0  0  0  0  0  0  0
  -23.0306  -24.8650   31.4387 C   0  0  0  0  0  0  0  0  0  0  0  0
  -27.7288  -21.9921   26.8572 C   0  0  0  0  0  0  0  0  0  0  0  0
  -22.3309   -8.7157   20.1898 C   0  0  0  0  0  0  0  0  0  0  0  0
  -23.0905   -8.7217   22.4833 C   0  0  0  0  0  0  0  0  0  0  0  0
  -29.0947  -21.7437   26.7296 C   0  0  0  0  0  0  0  0  0  0  0  0
  -19.8620   -7.9249   23.0852 C   0  0  0  0  0  0  0  0  0  0  0  0
  -19.1049   -7.8849   24.2560 C   0  0  0  0  0  0  0  0  0  0  0  0
  -28.8581  -19.7720   28.0990 C   0  0  0  0  0  0  0  0  0  0  0  0
  -32.0662  -16.5919   22.5387 C   0  0  0  0  0  0  0  0  0  0  0  0
  -30.5021  -18.3390   24.0500 C   0  0  0  0  0  0  0  0  0  0  0  0
  -20.3455   -5.9468   24.9920 C   0  0  0  0  0  0  0  0  0  0  0  0
  -23.8273  -10.4482   20.9623 C   0  0  0  0  0  0  0  0  0  0  0  0
  -24.1701  -12.9732   20.8431 C   0  0  0  0  0  0  0  0  0  0  0  0
  -21.8942  -23.5060   33.0968 C   0  0  0  0  0  0  0  0  0  0  0  0
  -26.9178  -21.1368   27.6170 C   0  0  0  0  0  0  0  0  0  0  0  0
  -22.9922  -23.7109   32.2395 C   0  0  0  0  0  0  0  0  0  0  0  0
  -27.4817  -20.0102   28.2326 C   0  0  0  0  0  0  0  0  0  0  0  0
  -32.6715  -17.4687   23.4389 C   0  0  0  0  0  0  0  0  0  0  0  0
  -29.8968  -17.4623   23.1497 C   0  0  0  0  0  0  0  0  0  0  0  0
  -30.6788  -16.5887   22.3940 C   0  0  0  0  0  0  0  0  0  0  0  0
  -31.8895  -18.3422   24.1946 C   0  0  0  0  0  0  0  0  0  0  0  0
  -22.3385   -8.1423   21.4613 C   0  0  0  0  0  0  0  0  0  0  0  0
  -29.6601  -20.6352   27.3529 C   0  0  0  0  0  0  0  0  0  0  0  0
  -20.8608   -6.9758   22.8677 C   0  0  0  0  0  0  0  0  0  0  0  0
  -19.3466   -6.8959   25.2094 C   0  0  0  0  0  0  0  0  0  0  0  0
  -21.1026   -5.9868   23.8211 C   0  0  0  0  0  0  0  0  0  0  0  0
  -24.5968  -11.6388   20.7050 C   0  0  0  0  0  0  0  0  0  0  0  0
  -25.2625  -13.7224   20.4801 C   0  0  0  0  0  0  0  0  0  0  0  0
  -22.8997  -13.4894   21.2620 C   0  0  0  0  0  0  0  0  0  0  0  0
  -25.1296  -21.4702   30.2237 C   0  0  0  0  0  0  0  0  0  0  0  0
  -24.2596  -18.4202   29.5436 C   0  0  0  0  0  0  0  0  0  0  0  0
  -25.0202  -15.4610   28.0231 C   0  0  0  0  0  0  0  0  0  0  0  0
  -30.7291  -14.7659   20.6558 C   0  0  0  0  0  0  0  0  0  0  0  0
  -21.8166  -22.3120   34.0149 C   0  0  0  0  0  0  0  0  0  0  0  0
  -25.4413  -21.4037   27.7228 C   0  0  0  0  0  0  0  0  0  0  0  0
  -26.6508  -19.0500   29.0426 C   0  0  0  0  0  0  0  0  0  0  0  0
  -22.7612  -21.1790   33.6219 C   0  0  0  0  0  0  0  0  0  0  0  0
  -29.6141  -12.3533   18.2867 C   0  0  0  0  0  0  0  0  0  0  0  0
  -24.1521  -21.7255   33.3158 C   0  0  0  0  0  0  0  0  0  0  0  0
  -28.1743  -12.0621   18.7160 C   0  0  0  0  0  0  0  0  0  0  0  0
  -30.5291  -12.5814   19.4885 C   0  0  0  0  0  0  0  0  0  0  0  0
  -28.6223  -13.3061   20.8697 C   0  0  0  0  0  0  0  0  0  0  0  0
  -24.1137  -22.7005   32.1329 C   0  0  1  0  0  0  0  0  0  0  0  0
  -24.8024  -20.7519   28.9452 C   0  0  1  0  0  0  0  0  0  0  0  0
  -27.6495  -13.1336   19.6918 C   0  0  2  0  0  0  0  0  0  0  0  0
  -34.1595  -17.4521   23.5735 C   0  0  0  0  0  0  0  0  0  0  0  0
  -28.4087  -17.4813   23.0146 C   0  0  0  0  0  0  0  0  0  0  0  0
  -24.1318  -13.1402   27.6740 C   0  0  0  0  0  0  0  0  0  0  0  0
  -25.0510  -17.6904   32.3986 C   0  0  0  0  0  0  0  0  0  0  0  0
  -25.0542  -15.2838   31.7084 C   0  0  0  0  0  0  0  0  0  0  0  0
  -22.9448  -16.6102   31.5914 C   0  0  0  0  0  0  0  0  0  0  0  0
  -32.8831  -20.5672   24.6660 C   0  0  0  0  0  0  0  0  0  0  0  0
  -24.9250  -15.8142   25.0863 C   0  0  0  0  0  0  0  0  0  0  0  0
  -32.6948  -18.8619   26.4840 C   0  0  0  0  0  0  0  0  0  0  0  0
  -31.4107  -19.0271   27.2795 C   0  0  0  0  0  0  0  0  0  1  0  0
  -24.7817  -17.0522   29.9114 C   0  0  1  0  0  0  0  0  0  0  0  0
  -24.2048  -14.5542   27.1191 C   0  0  2  0  0  0  0  0  0  0  0  0
  -24.4742  -16.6781   31.3888 C   0  0  0  0  0  0  0  0  0  0  0  0
  -25.8617  -11.5427   20.2868 N   0  0  0  0  0  0  0  0  0  0  0  0
  -26.2391  -12.8261   20.1589 N   0  0  0  0  0  0  0  0  0  0  0  0
  -25.2132  -19.3575   29.1217 N   0  0  0  0  0  0  0  0  0  0  0  0
  -29.9704  -13.6121   20.3661 N   0  0  0  0  0  0  0  0  0  0  0  0
  -25.4734  -15.0538   20.4076 N   0  0  0  0  0  0  0  0  0  0  0  0
  -21.8874  -12.5805   21.5989 N   0  0  0  0  0  0  0  0  0  0  0  0
  -30.0820  -15.6910   21.4744 N   0  0  0  0  0  0  0  0  0  0  0  0
  -24.0257  -21.9759   30.8833 N   0  0  0  0  0  0  0  0  0  0  0  0
  -24.2243  -16.1257   28.9319 N   0  0  0  0  0  0  0  0  0  0  0  0
  -32.4806  -19.2301   25.1033 N   0  0  3  0  0  0  0  0  0  0  0  0
  -24.8132  -14.4949   25.7600 N   0  3  0  0  0  0  0  0  0  0  0  0
  -22.6639  -14.7200   21.3197 O   0  0  0  0  0  0  0  0  0  0  0  0
  -26.2970  -21.5579   30.5857 O   0  0  0  0  0  0  0  0  0  0  0  0
  -23.0495  -18.6464   29.6207 O   0  0  0  0  0  0  0  0  0  0  0  0
  -26.2415  -15.5661   27.9346 O   0  0  0  0  0  0  0  0  0  0  0  0
  -31.8583  -14.9344   20.1884 O   0  0  0  0  0  0  0  0  0  0  0  0
  -21.6121   -7.0174   21.7052 O   0  0  0  0  0  0  0  0  0  0  0  0
  -30.9932  -20.3908   27.2305 O   0  0  0  0  0  0  0  0  0  1  0  0
  -18.6205   -6.8585   26.3344 F   0  0  0  0  0  0  0  0  0  0  0  0
  -22.0616   -5.0730   23.6183 F   0  0  0  0  0  0  0  0  0  0  0  0
  1  2  1  0  0  0  0
  1  5  2  0  0  0  0
  2  6  2  0  0  0  0
  3  8  2  0  0  0  0
  3 17  1  0  0  0  0
  4  9  1  0  0  0  0
  4 17  2  0  0  0  0
  5 19  1  0  0  0  0
  6 21  1  0  0  0  0
  7 10  2  0  0  0  0
  7 20  1  0  0  0  0
  8 27  1  0  0  0  0
  9 27  2  0  0  0  0
 10 28  1  0  0  0  0
 11 12  2  0  0  0  0
 11 29  1  0  0  0  0
 12 30  1  0  0  0  0
 13 22  1  0  0  0  0
 13 28  2  0  0  0  0
 14 23  1  0  0  0  0
 14 25  2  0  0  0  0
 15 24  2  0  0  0  0
 15 26  1  0  0  0  0
 16 30  2  0  0  0  0
 16 31  1  0  0  0  0
 17 32  1  0  0  0  0
 18 32  1  0  0  0  0
 18 33  2  0  0  0  0
 18 34  1  0  0  0  0
 19 21  2  0  0  0  0
 19 39  1  0  0  0  0
 20 22  2  0  0  0  0
 20 40  1  0  0  0  0
 21 48  1  0  0  0  0
 22 41  1  0  0  0  0
 23 26  2  0  0  0  0
 23 51  1  0  0  0  0
 24 25  1  0  0  0  0
 24 52  1  0  0  0  0
 25 70  1  0  0  0  0
 26 73  1  0  0  0  0
 27 80  1  0  0  0  0
 28 81  1  0  0  0  0
 29 31  2  0  0  0  0
 29 80  1  0  0  0  0
 30 82  1  0  0  0  0
 31 83  1  0  0  0  0
 32 64  2  0  0  0  0
 33 65  1  0  0  0  0
 33 68  1  0  0  0  0
 34 69  1  0  0  0  0
 34 75  2  0  0  0  0
 35 49  1  0  0  0  0
 35 71  1  0  0  0  0
 35 76  2  0  0  0  0
 36 61  1  0  0  0  0
 36 66  1  0  0  0  0
 36 77  2  0  0  0  0
 37 62  1  0  0  0  0
 37 72  1  0  0  0  0
 37 78  2  0  0  0  0
 38 67  1  0  0  0  0
 38 70  1  0  0  0  0
 38 79  2  0  0  0  0
 39 42  1  0  0  0  0
 40 49  1  0  0  0  0
 41 66  1  0  0  0  0
 42 44  1  0  0  0  0
 43 45  1  0  0  0  0
 43 46  1  0  0  0  0
 44 48  1  0  0  0  0
 45 50  1  0  0  0  0
 46 67  1  0  0  0  0
 47 50  1  0  0  0  0
 47 67  1  0  0  0  0
 48 71  1  0  0  0  0
 49 66  1  0  0  0  0
 50 65  1  0  0  0  0
 53 62  1  0  0  0  0
 54 63  1  0  0  0  0
 55 63  1  0  0  0  0
 56 63  1  0  0  0  0
 57 73  1  0  0  0  0
 58 74  1  0  0  0  0
 59 60  1  0  0  0  0
 59 73  1  0  0  0  0
 60 81  1  0  0  0  0
 61 63  1  0  0  0  0
 61 72  1  0  0  0  0
 62 74  1  0  0  0  0
 64 65  1  0  0  0  0
M  CHG  1  74   1
M  ISO  4  38 100  60 101  70 100  81 101
M  END
> <Batch ID>
0009

> <Smiles>
CNC(C)C(=O)NC(C(=O)N1Cc2cc([101O:1][101CH2:1]CN(C)c3cc(C)c([100NH:0][100C:0](=O)N4CCCC(n5nc(-c6ccc(Oc7ccc(F)cc7F)cc6)c(C(N)=O)c5N)C4)cc3C)ccc2CC1C(=O)NC1CCCc2ccccc21)C(C)(C)C

> <Shape>
0.168

> <Color>
0.200

> <Negative vol penalty>
0.000

$$$$

  -OEChem-04052315383D

 83 91  0     1  0  0  0  0  0999 V2000
  -30.8515  -31.8179   24.9125 C   0  0  0  0  0  0  0  0  0  0  0  0
  -30.3588  -30.6859   24.2712 C   0  0  0  0  0  0  0  0  0  0  0  0
  -24.6249   -8.9677   21.3589 C   0  0  0  0  0  0  0  0  0  0  0  0
  -23.3467  -10.8314   22.2130 C   0  0  0  0  0  0  0  0  0  0  0  0
  -29.9790  -32.6705   25.5875 C   0  0  0  0  0  0  0  0  0  0  0  0
  -28.9933  -30.4053   24.3055 C   0  0  0  0  0  0  0  0  0  0  0  0
  -27.1795  -29.0256   19.7831 C   0  0  0  0  0  0  0  0  0  0  0  0
  -27.7948  -20.3729   20.1270 C   0  0  0  0  0  0  0  0  0  0  0  0
  -28.2153  -19.0566   20.3168 C   0  0  0  0  0  0  0  0  0  0  0  0
  -24.0726   -8.1406   22.3369 C   0  0  0  0  0  0  0  0  0  0  0  0
  -22.7943  -10.0044   23.1910 C   0  0  0  0  0  0  0  0  0  0  0  0
  -27.4304  -27.7184   19.3683 C   0  0  0  0  0  0  0  0  0  0  0  0
  -21.1664   -6.4914   22.8536 C   0  0  0  0  0  0  0  0  0  0  0  0
  -20.7144   -5.2325   22.4583 C   0  0  0  0  0  0  0  0  0  0  0  0
  -25.2031  -27.0833   20.0428 C   0  0  0  0  0  0  0  0  0  0  0  0
  -25.7527  -19.8935   21.3257 C   0  0  0  0  0  0  0  0  0  0  0  0
  -22.2710   -4.1937   23.9863 C   0  0  0  0  0  0  0  0  0  0  0  0
  -24.2620  -10.3131   21.2969 C   0  0  0  0  0  0  0  0  0  0  0  0
  -24.3275  -11.4134   18.9963 C   0  0  0  0  0  0  0  0  0  0  0  0
  -28.6009  -32.4054   25.6219 C   0  0  0  0  0  0  0  0  0  0  0  0
  -25.9402  -29.3696   20.3419 C   0  0  0  0  0  0  0  0  0  0  0  0
  -28.1017  -31.2545   24.9827 C   0  0  0  0  0  0  0  0  0  0  0  0
  -24.9381  -28.3962   20.4616 C   0  0  0  0  0  0  0  0  0  0  0  0
  -26.5635  -20.7914   20.6315 C   0  0  0  0  0  0  0  0  0  0  0  0
  -27.4045  -18.1587   21.0111 C   0  0  0  0  0  0  0  0  0  0  0  0
  -23.1573   -8.6590   23.2529 C   0  0  0  0  0  0  0  0  0  0  0  0
  -26.4431  -26.7464   19.5008 C   0  0  0  0  0  0  0  0  0  0  0  0
  -22.1708   -6.6016   23.8153 C   0  0  0  0  0  0  0  0  0  0  0  0
  -26.1732  -18.5771   21.5156 C   0  0  0  0  0  0  0  0  0  0  0  0
  -21.2667   -4.0836   23.0246 C   0  0  0  0  0  0  0  0  0  0  0  0
  -22.7231   -5.4527   24.3816 C   0  0  0  0  0  0  0  0  0  0  0  0
  -24.8327  -11.1681   20.2872 C   0  0  0  0  0  0  0  0  0  0  0  0
  -25.2265  -12.2878   18.4362 C   0  0  0  0  0  0  0  0  0  0  0  0
  -23.1507  -10.8972   18.3604 C   0  0  0  0  0  0  0  0  0  0  0  0
  -24.9813  -30.4768   23.1630 C   0  0  0  0  0  0  0  0  0  0  0  0
  -22.1043  -30.6598   21.6758 C   0  0  0  0  0  0  0  0  0  0  0  0
  -26.8133  -23.1444   19.7741 C   0  0  0  0  0  0  0  0  0  0  0  0
  -20.0588  -29.5546   19.1776 C   0  0  0  0  0  0  0  0  0  0  0  0
  -29.0413  -16.2613   20.7520 C   0  0  0  0  0  0  0  0  0  0  0  0
  -27.7029  -33.3308   26.4041 C   0  0  0  0  0  0  0  0  0  0  0  0
  -25.6761  -30.7901   20.7598 C   0  0  0  0  0  0  0  0  0  0  0  0
  -23.5838  -28.7187   21.0363 C   0  0  0  0  0  0  0  0  0  0  0  0
  -26.2215  -33.1634   26.0760 C   0  0  0  0  0  0  0  0  0  0  0  0
  -29.8477  -13.5317   18.6128 C   0  0  0  0  0  0  0  0  0  0  0  0
  -25.8425  -31.6859   26.0575 C   0  0  0  0  0  0  0  0  0  0  0  0
  -28.6048  -12.6412   18.6771 C   0  0  0  0  0  0  0  0  0  0  0  0
  -30.1497  -14.1824   19.9615 C   0  0  0  0  0  0  0  0  0  0  0  0
  -27.7837  -14.0211   20.6287 C   0  0  0  0  0  0  0  0  0  0  0  0
  -26.6237  -30.9295   24.9764 C   0  0  1  0  0  0  0  0  0  0  0  0
  -24.5565  -30.9119   21.7890 C   0  0  1  0  0  0  0  0  0  0  0  0
  -27.4019  -13.3950   19.2775 C   0  0  2  0  0  0  0  0  0  0  0  0
  -17.7522  -29.8632   18.2387 C   0  0  0  0  0  0  0  0  0  0  0  0
  -20.9511  -29.0214   23.9771 C   0  0  0  0  0  0  0  0  0  0  0  0
  -18.9450  -28.5608   22.5518 C   0  0  0  0  0  0  0  0  0  0  0  0
  -19.4969  -30.9040   23.2055 C   0  0  0  0  0  0  0  0  0  0  0  0
  -21.1170  -30.4656   16.5681 C   0  0  0  0  0  0  0  0  0  0  0  0
  -24.4208  -16.9718   21.4281 C   0  0  0  0  0  0  0  0  0  0  0  0
  -26.0037  -24.4276   19.7942 C   0  0  0  0  0  0  0  0  0  1  0  0
  -20.9341  -29.7238   21.4927 C   0  0  1  0  0  0  0  0  0  0  0  0
  -19.2064  -30.3028   18.1686 C   0  0  2  0  0  0  0  0  0  0  0  0
  -20.1078  -29.5457   22.7976 C   0  0  0  0  0  0  0  0  0  0  0  0
  -25.9649  -11.8327   20.5327 N   0  0  0  0  0  0  0  0  0  0  0  0
  -26.1786  -12.5043   19.3884 N   0  0  0  0  0  0  0  0  0  0  0  0
  -23.3761  -30.1203   21.4364 N   0  0  0  0  0  0  0  0  0  0  0  0
  -28.9660  -14.8816   20.4665 N   0  0  0  0  0  0  0  0  0  0  0  0
  -25.2876  -12.8848   17.2270 N   0  0  0  0  0  0  0  0  0  0  0  0
  -22.3379  -10.0096   19.0787 N   0  0  0  0  0  0  0  0  0  0  0  0
  -26.1368  -22.1267   20.4380 N   0  0  0  0  0  0  0  0  0  0  0  0
  -27.8450  -16.8246   21.1950 N   0  0  0  0  0  0  0  0  0  0  0  0
  -26.0547  -31.1839   23.6703 N   0  0  0  0  0  0  0  0  0  0  0  0
  -20.1671  -30.2449   20.3663 N   0  0  0  0  0  0  0  0  0  0  0  0
  -19.7053  -30.0575   16.7859 N   0  3  0  0  0  0  0  0  0  0  0  0
  -22.8382  -11.2008   17.1841 O   0  0  0  0  0  0  0  0  0  0  0  0
  -24.3790  -29.5678   23.7221 O   0  0  0  0  0  0  0  0  0  0  0  0
  -21.8972  -31.8285   22.0118 O   0  0  0  0  0  0  0  0  0  0  0  0
  -27.9097  -23.0850   19.2274 O   0  0  0  0  0  0  0  0  0  0  0  0
  -20.5739  -28.4650   18.9367 O   0  0  0  0  0  0  0  0  0  0  0  0
  -30.0827  -16.9021   20.5879 O   0  0  0  0  0  0  0  0  0  0  0  0
  -22.6180   -7.8522   24.2073 O   0  0  0  0  0  0  0  0  0  0  0  0
  -25.3649  -17.7154   22.1954 O   0  0  0  0  0  0  0  0  0  0  0  0
  -26.6856  -25.4696   19.0973 O   0  0  0  0  0  0  0  0  0  1  0  0
  -20.8314   -2.8748   22.6460 F   0  0  0  0  0  0  0  0  0  0  0  0
  -23.6874   -5.5522   25.3068 F   0  0  0  0  0  0  0  0  0  0  0  0
  1  2  1  0  0  0  0
  1  5  2  0  0  0  0
  2  6  2  0  0  0  0
  3 10  2  0  0  0  0
  3 18  1  0  0  0  0
  4 11  1  0  0  0  0
  4 18  2  0  0  0  0
  5 20  1  0  0  0  0
  6 22  1  0  0  0  0
  7 12  2  0  0  0  0
  7 21  1  0  0  0  0
  8  9  2  0  0  0  0
  8 24  1  0  0  0  0
  9 25  1  0  0  0  0
 10 26  1  0  0  0  0
 11 26  2  0  0  0  0
 12 27  1  0  0  0  0
 13 14  2  0  0  0  0
 13 28  1  0  0  0  0
 14 30  1  0  0  0  0
 15 23  1  0  0  0  0
 15 27  2  0  0  0  0
 16 24  2  0  0  0  0
 16 29  1  0  0  0  0
 17 30  2  0  0  0  0
 17 31  1  0  0  0  0
 18 32  1  0  0  0  0
 19 32  1  0  0  0  0
 19 33  2  0  0  0  0
 19 34  1  0  0  0  0
 20 22  2  0  0  0  0
 20 40  1  0  0  0  0
 21 23  2  0  0  0  0
 21 41  1  0  0  0  0
 22 49  1  0  0  0  0
 23 42  1  0  0  0  0
 24 68  1  0  0  0  0
 25 29  2  0  0  0  0
 25 69  1  0  0  0  0
 26 79  1  0  0  0  0
 27 81  1  0  0  0  0
 28 31  2  0  0  0  0
 28 79  1  0  0  0  0
 29 80  1  0  0  0  0
 30 82  1  0  0  0  0
 31 83  1  0  0  0  0
 32 62  2  0  0  0  0
 33 63  1  0  0  0  0
 33 66  1  0  0  0  0
 34 67  1  0  0  0  0
 34 73  2  0  0  0  0
 35 50  1  0  0  0  0
 35 70  1  0  0  0  0
 35 74  2  0  0  0  0
 36 59  1  0  0  0  0
 36 64  1  0  0  0  0
 36 75  2  0  0  0  0
 37 58  1  0  0  0  0
 37 68  1  0  0  0  0
 37 76  2  0  0  0  0
 38 60  1  0  0  0  0
 38 71  1  0  0  0  0
 38 77  2  0  0  0  0
 39 65  1  0  0  0  0
 39 69  1  0  0  0  0
 39 78  2  0  0  0  0
 40 43  1  0  0  0  0
 41 50  1  0  0  0  0
 42 64  1  0  0  0  0
 43 45  1  0  0  0  0
 44 46  1  0  0  0  0
 44 47  1  0  0  0  0
 45 49  1  0  0  0  0
 46 51  1  0  0  0  0
 47 65  1  0  0  0  0
 48 51  1  0  0  0  0
 48 65  1  0  0  0  0
 49 70  1  0  0  0  0
 50 64  1  0  0  0  0
 51 63  1  0  0  0  0
 52 60  1  0  0  0  0
 53 61  1  0  0  0  0
 54 61  1  0  0  0  0
 55 61  1  0  0  0  0
 56 72  1  0  0  0  0
 57 80  1  0  0  0  0
 58 81  1  0  0  0  0
 59 61  1  0  0  0  0
 59 71  1  0  0  0  0
 60 72  1  0  0  0  0
 62 63  1  0  0  0  0
M  CHG  1  72   1
M  ISO  4  39 100  58 101  69 100  81 101
M  END
> <Batch ID>
0009

> <Smiles>
CNC(C)C(=O)NC(C(=O)N1Cc2cc([101O:1][101CH2:1]C(=O)Nc3ccc([100NH:0][100C:0](=O)N4CCCC(n5nc(-c6ccc(Oc7ccc(F)cc7F)cc6)c(C(N)=O)c5N)C4)c(OC)c3)ccc2CC1C(=O)NC1CCCc2ccccc21)C(C)(C)C

> <Shape>
0.306

> <Color>
0.100

> <Negative vol penalty>
0.000

$$$$

  -OEChem-04052315383D

 82 90  0     1  0  0  0  0  0999 V2000
  -39.3236  -28.0784   16.8668 C   0  0  0  0  0  0  0  0  0  0  0  0
  -39.1467  -27.1066   17.8465 C   0  0  0  0  0  0  0  0  0  0  0  0
  -22.9932   -9.9100   19.9611 C   0  0  0  0  0  0  0  0  0  0  0  0
  -23.7314   -9.9162   22.2615 C   0  0  0  0  0  0  0  0  0  0  0  0
  -38.3406  -29.0453   16.6603 C   0  0  0  0  0  0  0  0  0  0  0  0
  -37.9872  -27.1019   18.6211 C   0  0  0  0  0  0  0  0  0  0  0  0
  -35.0327  -22.1983   20.7962 C   0  0  0  0  0  0  0  0  0  0  0  0
  -32.6891  -17.3605   23.5159 C   0  0  0  0  0  0  0  0  0  0  0  0
  -32.0896  -16.4835   22.6120 C   0  0  0  0  0  0  0  0  0  0  0  0
  -22.2239   -8.7737   20.2110 C   0  0  0  0  0  0  0  0  0  0  0  0
  -22.9621   -8.7798   22.5115 C   0  0  0  0  0  0  0  0  0  0  0  0
  -35.0418  -21.5744   22.0430 C   0  0  0  0  0  0  0  0  0  0  0  0
  -23.1912   -5.4492   21.9772 C   0  0  0  0  0  0  0  0  0  0  0  0
  -23.7791   -4.4163   22.7073 C   0  0  0  0  0  0  0  0  0  0  0  0
  -33.0705  -22.8147   22.6714 C   0  0  0  0  0  0  0  0  0  0  0  0
  -30.5195  -18.2600   24.0822 C   0  0  0  0  0  0  0  0  0  0  0  0
  -22.0655   -4.6348   24.3964 C   0  0  0  0  0  0  0  0  0  0  0  0
  -23.7470  -10.4813   20.9864 C   0  0  0  0  0  0  0  0  0  0  0  0
  -24.1408  -12.9982   20.8542 C   0  0  0  0  0  0  0  0  0  0  0  0
  -37.1641  -29.0467   17.4261 C   0  0  0  0  0  0  0  0  0  0  0  0
  -34.0471  -23.1448   20.4812 C   0  0  0  0  0  0  0  0  0  0  0  0
  -36.9882  -28.0706   18.4255 C   0  0  0  0  0  0  0  0  0  0  0  0
  -33.0496  -23.4473   21.4190 C   0  0  0  0  0  0  0  0  0  0  0  0
  -31.9040  -18.2488   24.2510 C   0  0  0  0  0  0  0  0  0  0  0  0
  -30.7051  -16.4948   22.4431 C   0  0  0  0  0  0  0  0  0  0  0  0
  -22.2083   -8.2086   21.4861 C   0  0  0  0  0  0  0  0  0  0  0  0
  -34.0623  -21.8847   22.9819 C   0  0  0  0  0  0  0  0  0  0  0  0
  -22.0405   -6.0750   22.4568 C   0  0  0  0  0  0  0  0  0  0  0  0
  -23.2163   -4.0090   23.9168 C   0  0  0  0  0  0  0  0  0  0  0  0
  -29.9200  -17.3830   23.1782 C   0  0  0  0  0  0  0  0  0  0  0  0
  -21.4776   -5.6678   23.6663 C   0  0  0  0  0  0  0  0  0  0  0  0
  -24.5423  -11.6548   20.7287 C   0  0  0  0  0  0  0  0  0  0  0  0
  -25.2512  -13.7233   20.4968 C   0  0  0  0  0  0  0  0  0  0  0  0
  -22.8771  -13.5421   21.2578 C   0  0  0  0  0  0  0  0  0  0  0  0
  -34.0612  -26.2345   19.7349 C   0  0  0  0  0  0  0  0  0  0  0  0
  -30.8976  -25.7272   19.2282 C   0  0  0  0  0  0  0  0  0  0  0  0
  -28.1205  -23.8578   19.8914 C   0  0  0  0  0  0  0  0  0  0  0  0
  -30.7355  -14.6599   20.7173 C   0  0  0  0  0  0  0  0  0  0  0  0
  -36.1510  -30.1405   17.1985 C   0  0  0  0  0  0  0  0  0  0  0  0
  -34.0355  -23.7892   19.1221 C   0  0  0  0  0  0  0  0  0  0  0  0
  -31.9576  -24.4413   21.1225 C   0  0  0  0  0  0  0  0  0  0  0  0
  -34.7837  -29.8408   17.8076 C   0  0  0  0  0  0  0  0  0  0  0  0
  -29.5950  -12.2541   18.3533 C   0  0  0  0  0  0  0  0  0  0  0  0
  -34.9366  -29.3276   19.2359 C   0  0  0  0  0  0  0  0  0  0  0  0
  -28.1458  -11.9942   18.7708 C   0  0  0  0  0  0  0  0  0  0  0  0
  -30.5031  -12.4720   19.5622 C   0  0  0  0  0  0  0  0  0  0  0  0
  -28.5983  -13.2433   20.9207 C   0  0  0  0  0  0  0  0  0  0  0  0
  -35.7330  -28.0175   19.2691 C   0  0  1  0  0  0  0  0  0  0  0  0
  -33.2851  -25.1172   19.0969 C   0  0  1  0  0  0  0  0  0  0  0  0
  -27.6333  -13.0823   19.7347 C   0  0  2  0  0  0  0  0  0  0  0  0
  -25.6724  -23.7099   19.3600 C   0  0  0  0  0  0  0  0  0  0  0  0
  -34.1773  -19.8157   26.7409 C   0  0  0  0  0  0  0  0  0  0  0  0
  -30.3488  -28.0583   21.1189 C   0  0  0  0  0  0  0  0  0  0  0  0
  -27.9797  -27.2676   21.2941 C   0  0  0  0  0  0  0  0  0  0  0  0
  -28.8898  -27.9960   19.0887 C   0  0  0  0  0  0  0  0  0  0  0  0
  -28.4283  -21.1779   18.6739 C   0  0  0  0  0  0  0  0  0  0  0  0
  -34.6032  -19.9558   24.2636 C   0  0  0  0  0  0  0  0  0  1  0  0
  -29.6534  -25.7992   20.0801 C   0  0  1  0  0  0  0  0  0  0  0  0
  -27.0713  -23.2530   18.9762 C   0  0  2  0  0  0  0  0  0  0  0  0
  -33.9271  -19.1695   25.3847 C   0  0  2  0  0  0  0  0  0  0  0  0
  -29.2395  -27.2629   20.4021 C   0  0  0  0  0  0  0  0  0  0  0  0
  -25.8089  -11.5309   20.3231 N   0  0  0  0  0  0  0  0  0  0  0  0
  -26.2128  -12.8058   20.1905 N   0  0  0  0  0  0  0  0  0  0  0  0
  -31.9928  -25.0494   19.7822 N   0  0  0  0  0  0  0  0  0  0  0  0
  -29.9568  -13.5194   20.4279 N   0  0  0  0  0  0  0  0  0  0  0  0
  -25.4891  -15.0498   20.4176 N   0  0  0  0  0  0  0  0  0  0  0  0
  -21.8439  -12.6556   21.5909 N   0  0  0  0  0  0  0  0  0  0  0  0
  -30.0992  -15.6029   21.5238 N   0  0  0  0  0  0  0  0  0  0  0  0
  -32.4983  -19.1177   25.1475 N   0  0  0  0  0  0  0  0  0  0  0  0
  -34.8971  -26.9076   18.8645 N   0  0  0  0  0  0  0  0  0  0  0  0
  -28.6322  -25.0303   19.3770 N   0  0  0  0  0  0  0  0  0  0  0  0
  -27.1162  -21.7651   19.0488 N   0  3  0  0  0  0  0  0  0  0  0  0
  -22.6651  -14.7776   21.3053 O   0  0  0  0  0  0  0  0  0  0  0  0
  -33.9115  -26.4696   20.9282 O   0  0  0  0  0  0  0  0  0  0  0  0
  -30.8954  -26.2469   18.1095 O   0  0  0  0  0  0  0  0  0  0  0  0
  -28.4503  -23.3437   20.9579 O   0  0  0  0  0  0  0  0  0  0  0  0
  -31.8721  -14.8029   20.2594 O   0  0  0  0  0  0  0  0  0  0  0  0
  -21.4575   -7.0998   21.7304 O   0  0  0  0  0  0  0  0  0  0  0  0
  -34.0693  -21.2776   24.1998 O   0  0  0  0  0  0  0  0  0  1  0  0
  -23.7800   -3.0161   24.6171 F   0  0  0  0  0  0  0  0  0  0  0  0
  -28.5884  -17.4027   23.0235 F   0  0  0  0  0  0  0  0  0  0  0  0
  -20.3715   -6.2644   24.1315 F   0  0  0  0  0  0  0  0  0  0  0  0
  1  2  1  0  0  0  0
  1  5  2  0  0  0  0
  2  6  2  0  0  0  0
  3 10  2  0  0  0  0
  3 18  1  0  0  0  0
  4 11  1  0  0  0  0
  4 18  2  0  0  0  0
  5 20  1  0  0  0  0
  6 22  1  0  0  0  0
  7 12  2  0  0  0  0
  7 21  1  0  0  0  0
  8  9  2  0  0  0  0
  8 24  1  0  0  0  0
  9 25  1  0  0  0  0
 10 26  1  0  0  0  0
 11 26  2  0  0  0  0
 12 27  1  0  0  0  0
 13 14  2  0  0  0  0
 13 28  1  0  0  0  0
 14 29  1  0  0  0  0
 15 23  1  0  0  0  0
 15 27  2  0  0  0  0
 16 24  2  0  0  0  0
 16 30  1  0  0  0  0
 17 29  2  0  0  0  0
 17 31  1  0  0  0  0
 18 32  1  0  0  0  0
 19 32  1  0  0  0  0
 19 33  2  0  0  0  0
 19 34  1  0  0  0  0
 20 22  2  0  0  0  0
 20 39  1  0  0  0  0
 21 23  2  0  0  0  0
 21 40  1  0  0  0  0
 22 48  1  0  0  0  0
 23 41  1  0  0  0  0
 24 69  1  0  0  0  0
 25 30  2  0  0  0  0
 25 68  1  0  0  0  0
 26 78  1  0  0  0  0
 27 79  1  0  0  0  0
 28 31  2  0  0  0  0
 28 78  1  0  0  0  0
 29 80  1  0  0  0  0
 30 81  1  0  0  0  0
 31 82  1  0  0  0  0
 32 62  2  0  0  0  0
 33 63  1  0  0  0  0
 33 66  1  0  0  0  0
 34 67  1  0  0  0  0
 34 73  2  0  0  0  0
 35 49  1  0  0  0  0
 35 70  1  0  0  0  0
 35 74  2  0  0  0  0
 36 58  1  0  0  0  0
 36 64  1  0  0  0  0
 36 75  2  0  0  0  0
 37 59  1  0  0  0  0
 37 71  1  0  0  0  0
 37 76  2  0  0  0  0
 38 65  1  0  0  0  0
 38 68  1  0  0  0  0
 38 77  2  0  0  0  0
 39 42  1  0  0  0  0
 40 49  1  0  0  0  0
 41 64  1  0  0  0  0
 42 44  1  0  0  0  0
 43 45  1  0  0  0  0
 43 46  1  0  0  0  0
 44 48  1  0  0  0  0
 45 50  1  0  0  0  0
 46 65  1  0  0  0  0
 47 50  1  0  0  0  0
 47 65  1  0  0  0  0
 48 70  1  0  0  0  0
 49 64  1  0  0  0  0
 50 63  1  0  0  0  0
 51 59  1  0  0  0  0
 52 60  1  0  0  0  0
 53 61  1  0  0  0  0
 54 61  1  0  0  0  0
 55 61  1  0  0  0  0
 56 72  1  0  0  0  0
 57 60  1  0  0  0  0
 57 79  1  0  0  0  0
 58 61  1  0  0  0  0
 58 71  1  0  0  0  0
 59 72  1  0  0  0  0
 60 69  1  0  0  0  0
 62 63  1  0  0  0  0
M  CHG  1  72   1
M  ISO  4  38 100  57 101  68 100  79 101
M  END
> <Batch ID>
0009

> <Smiles>
CNC(C)C(=O)NC(C(=O)N1Cc2cc([101O:1][101CH2:1]C(C)Nc3ccc([100NH:0][100C:0](=O)N4CCCC(n5nc(-c6ccc(Oc7ccc(F)cc7F)cc6)c(C(N)=O)c5N)C4)c(F)c3)ccc2CC1C(=O)NC1CCCc2ccccc21)C(C)(C)C

> <Shape>
0.240

> <Color>
0.204

> <Negative vol penalty>
0.000

$$$$

  -OEChem-04052315383D

 83 91  0     1  0  0  0  0  0999 V2000
  -30.8402  -31.8042   24.9253 C   0  0  0  0  0  0  0  0  0  0  0  0
  -30.3471  -30.6731   24.2827 C   0  0  0  0  0  0  0  0  0  0  0  0
  -24.6260   -8.9690   21.3580 C   0  0  0  0  0  0  0  0  0  0  0  0
  -23.3460  -10.8347   22.2054 C   0  0  0  0  0  0  0  0  0  0  0  0
  -29.9675  -32.6580   25.5987 C   0  0  0  0  0  0  0  0  0  0  0  0
  -28.9812  -30.3946   24.3141 C   0  0  0  0  0  0  0  0  0  0  0  0
  -27.1746  -29.0189   19.7876 C   0  0  0  0  0  0  0  0  0  0  0  0
  -28.2109  -19.0664   20.3086 C   0  0  0  0  0  0  0  0  0  0  0  0
  -27.7786  -20.3797   20.1246 C   0  0  0  0  0  0  0  0  0  0  0  0
  -24.0710   -8.1439   22.3361 C   0  0  0  0  0  0  0  0  0  0  0  0
  -22.7909  -10.0096   23.1835 C   0  0  0  0  0  0  0  0  0  0  0  0
  -27.4244  -27.7115   19.3729 C   0  0  0  0  0  0  0  0  0  0  0  0
  -21.1630   -6.4964   22.8484 C   0  0  0  0  0  0  0  0  0  0  0  0
  -20.7117   -5.2368   22.4542 C   0  0  0  0  0  0  0  0  0  0  0  0
  -25.1947  -27.0796   20.0427 C   0  0  0  0  0  0  0  0  0  0  0  0
  -26.1747  -18.5643   21.5082 C   0  0  0  0  0  0  0  0  0  0  0  0
  -22.2641   -4.2005   23.9882 C   0  0  0  0  0  0  0  0  0  0  0  0
  -24.2636  -10.3144   21.2927 C   0  0  0  0  0  0  0  0  0  0  0  0
  -24.3353  -11.4104   18.9902 C   0  0  0  0  0  0  0  0  0  0  0  0
  -28.5890  -32.3950   25.6302 C   0  0  0  0  0  0  0  0  0  0  0  0
  -25.9347  -29.3646   20.3439 C   0  0  0  0  0  0  0  0  0  0  0  0
  -28.0894  -31.2449   24.9896 C   0  0  0  0  0  0  0  0  0  0  0  0
  -24.9308  -28.3927   20.4612 C   0  0  0  0  0  0  0  0  0  0  0  0
  -27.4089  -18.1587   21.0004 C   0  0  0  0  0  0  0  0  0  0  0  0
  -26.5444  -20.7854   20.6324 C   0  0  0  0  0  0  0  0  0  0  0  0
  -23.1534   -8.6642   23.2489 C   0  0  0  0  0  0  0  0  0  0  0  0
  -26.4354  -26.7409   19.5031 C   0  0  0  0  0  0  0  0  0  0  0  0
  -22.1649   -6.6080   23.8124 C   0  0  0  0  0  0  0  0  0  0  0  0
  -25.7424  -19.8777   21.3242 C   0  0  0  0  0  0  0  0  0  0  0  0
  -21.2622   -4.0889   23.0241 C   0  0  0  0  0  0  0  0  0  0  0  0
  -22.7154   -5.4601   24.3823 C   0  0  0  0  0  0  0  0  0  0  0  0
  -24.8371  -11.1673   20.2829 C   0  0  0  0  0  0  0  0  0  0  0  0
  -25.2360  -12.2835   18.4308 C   0  0  0  0  0  0  0  0  0  0  0  0
  -23.1600  -10.8933   18.3522 C   0  0  0  0  0  0  0  0  0  0  0  0
  -24.9716  -30.4725   23.1633 C   0  0  0  0  0  0  0  0  0  0  0  0
  -22.0980  -30.6602   21.6702 C   0  0  0  0  0  0  0  0  0  0  0  0
  -26.7995  -23.1383   19.7762 C   0  0  0  0  0  0  0  0  0  0  0  0
  -20.0560  -29.5588   19.1674 C   0  0  0  0  0  0  0  0  0  0  0  0
  -29.0458  -16.2604   20.7491 C   0  0  0  0  0  0  0  0  0  0  0  0
  -27.6908  -33.3215   26.4109 C   0  0  0  0  0  0  0  0  0  0  0  0
  -25.6718  -30.7855   20.7617 C   0  0  0  0  0  0  0  0  0  0  0  0
  -23.5759  -28.7171   21.0333 C   0  0  0  0  0  0  0  0  0  0  0  0
  -26.2098  -33.1564   26.0796 C   0  0  0  0  0  0  0  0  0  0  0  0
  -29.8570  -13.5266   18.6170 C   0  0  0  0  0  0  0  0  0  0  0  0
  -25.8286  -31.6796   26.0599 C   0  0  0  0  0  0  0  0  0  0  0  0
  -28.6137  -12.6365   18.6798 C   0  0  0  0  0  0  0  0  0  0  0  0
  -30.1557  -14.1797   19.9654 C   0  0  0  0  0  0  0  0  0  0  0  0
  -27.7879  -14.0202   20.6267 C   0  0  0  0  0  0  0  0  0  0  0  0
  -26.6110  -30.9222   24.9802 C   0  0  1  0  0  0  0  0  0  0  0  0
  -24.5503  -30.9086   21.7885 C   0  0  1  0  0  0  0  0  0  0  0  0
  -27.4094  -13.3918   19.2756 C   0  0  2  0  0  0  0  0  0  0  0  0
  -17.7518  -29.8712   18.2239 C   0  0  0  0  0  0  0  0  0  0  0  0
  -20.9375  -29.0229   23.9686 C   0  0  0  0  0  0  0  0  0  0  0  0
  -18.9337  -28.5658   22.5390 C   0  0  0  0  0  0  0  0  0  0  0  0
  -19.4877  -30.9080   23.1945 C   0  0  0  0  0  0  0  0  0  0  0  0
  -21.1210  -30.4690   16.5604 C   0  0  0  0  0  0  0  0  0  0  0  0
  -24.5204  -20.7681   23.1599 C   0  0  0  0  0  0  0  0  0  0  0  0
  -25.9918  -24.4227   19.7950 C   0  0  0  0  0  0  0  0  0  1  0  0
  -20.9267  -29.7261   21.4844 C   0  0  1  0  0  0  0  0  0  0  0  0
  -19.2068  -30.3086   18.1569 C   0  0  2  0  0  0  0  0  0  0  0  0
  -20.0975  -29.5488   22.7876 C   0  0  0  0  0  0  0  0  0  0  0  0
  -25.9688  -11.8322   20.5301 N   0  0  0  0  0  0  0  0  0  0  0  0
  -26.1857  -12.5015   19.3851 N   0  0  0  0  0  0  0  0  0  0  0  0
  -23.3695  -30.1189   21.4332 N   0  0  0  0  0  0  0  0  0  0  0  0
  -28.9709  -14.8801   20.4660 N   0  0  0  0  0  0  0  0  0  0  0  0
  -25.3003  -12.8782   17.2206 N   0  0  0  0  0  0  0  0  0  0  0  0
  -22.3451  -10.0073   19.0700 N   0  0  0  0  0  0  0  0  0  0  0  0
  -26.1202  -22.1214   20.4384 N   0  0  0  0  0  0  0  0  0  0  0  0
  -27.8485  -16.8248   21.1879 N   0  0  0  0  0  0  0  0  0  0  0  0
  -26.0450  -31.1779   23.6730 N   0  0  0  0  0  0  0  0  0  0  0  0
  -20.1629  -30.2486   20.3565 N   0  0  0  0  0  0  0  0  0  0  0  0
  -19.7082  -30.0630   16.7751 N   0  3  0  0  0  0  0  0  0  0  0  0
  -22.8507  -11.1948   17.1746 O   0  0  0  0  0  0  0  0  0  0  0  0
  -24.3667  -29.5643   23.7209 O   0  0  0  0  0  0  0  0  0  0  0  0
  -21.8919  -31.8291   22.0061 O   0  0  0  0  0  0  0  0  0  0  0  0
  -27.8970  -23.0773   19.2317 O   0  0  0  0  0  0  0  0  0  0  0  0
  -20.5699  -28.4685   18.9273 O   0  0  0  0  0  0  0  0  0  0  0  0
  -30.0878  -16.9006   20.5865 O   0  0  0  0  0  0  0  0  0  0  0  0
  -22.6114   -7.8593   24.2033 O   0  0  0  0  0  0  0  0  0  0  0  0
  -24.5338  -20.2540   21.8300 O   0  0  0  0  0  0  0  0  0  0  0  0
  -26.6767  -25.4638   19.0998 O   0  0  0  0  0  0  0  0  0  1  0  0
  -20.8276   -2.8794   22.6466 F   0  0  0  0  0  0  0  0  0  0  0  0
  -23.6774   -5.5611   25.3098 F   0  0  0  0  0  0  0  0  0  0  0  0
  1  2  1  0  0  0  0
  1  5  2  0  0  0  0
  2  6  2  0  0  0  0
  3 10  2  0  0  0  0
  3 18  1  0  0  0  0
  4 11  1  0  0  0  0
  4 18  2  0  0  0  0
  5 20  1  0  0  0  0
  6 22  1  0  0  0  0
  7 12  2  0  0  0  0
  7 21  1  0  0  0  0
  8  9  2  0  0  0  0
  8 24  1  0  0  0  0
  9 25  1  0  0  0  0
 10 26  1  0  0  0  0
 11 26  2  0  0  0  0
 12 27  1  0  0  0  0
 13 14  2  0  0  0  0
 13 28  1  0  0  0  0
 14 30  1  0  0  0  0
 15 23  1  0  0  0  0
 15 27  2  0  0  0  0
 16 24  2  0  0  0  0
 16 29  1  0  0  0  0
 17 30  2  0  0  0  0
 17 31  1  0  0  0  0
 18 32  1  0  0  0  0
 19 32  1  0  0  0  0
 19 33  2  0  0  0  0
 19 34  1  0  0  0  0
 20 22  2  0  0  0  0
 20 40  1  0  0  0  0
 21 23  2  0  0  0  0
 21 41  1  0  0  0  0
 22 49  1  0  0  0  0
 23 42  1  0  0  0  0
 24 69  1  0  0  0  0
 25 29  2  0  0  0  0
 25 68  1  0  0  0  0
 26 79  1  0  0  0  0
 27 81  1  0  0  0  0
 28 31  2  0  0  0  0
 28 79  1  0  0  0  0
 29 80  1  0  0  0  0
 30 82  1  0  0  0  0
 31 83  1  0  0  0  0
 32 62  2  0  0  0  0
 33 63  1  0  0  0  0
 33 66  1  0  0  0  0
 34 67  1  0  0  0  0
 34 73  2  0  0  0  0
 35 50  1  0  0  0  0
 35 70  1  0  0  0  0
 35 74  2  0  0  0  0
 36 59  1  0  0  0  0
 36 64  1  0  0  0  0
 36 75  2  0  0  0  0
 37 58  1  0  0  0  0
 37 68  1  0  0  0  0
 37 76  2  0  0  0  0
 38 60  1  0  0  0  0
 38 71  1  0  0  0  0
 38 77  2  0  0  0  0
 39 65  1  0  0  0  0
 39 69  1  0  0  0  0
 39 78  2  0  0  0  0
 40 43  1  0  0  0  0
 41 50  1  0  0  0  0
 42 64  1  0  0  0  0
 43 45  1  0  0  0  0
 44 46  1  0  0  0  0
 44 47  1  0  0  0  0
 45 49  1  0  0  0  0
 46 51  1  0  0  0  0
 47 65  1  0  0  0  0
 48 51  1  0  0  0  0
 48 65  1  0  0  0  0
 49 70  1  0  0  0  0
 50 64  1  0  0  0  0
 51 63  1  0  0  0  0
 52 60  1  0  0  0  0
 53 61  1  0  0  0  0
 54 61  1  0  0  0  0
 55 61  1  0  0  0  0
 56 72  1  0  0  0  0
 57 80  1  0  0  0  0
 58 81  1  0  0  0  0
 59 61  1  0  0  0  0
 59 71  1  0  0  0  0
 60 72  1  0  0  0  0
 62 63  1  0  0  0  0
M  CHG  1  72   1
M  ISO  4  39 100  58 101  69 100  81 101
M  END
> <Batch ID>
0009

> <Smiles>
CNC(C)C(=O)NC(C(=O)N1Cc2cc([101O:1][101CH2:1]C(=O)Nc3ccc([100NH:0][100C:0](=O)N4CCCC(n5nc(-c6ccc(Oc7ccc(F)cc7F)cc6)c(C(N)=O)c5N)C4)cc3OC)ccc2CC1C(=O)NC1CCCc2ccccc21)C(C)(C)C

> <Shape>
0.304

> <Color>
0.100

> <Negative vol penalty>
0.000

$$$$

  -OEChem-04052315383D

 90 97  0     1  0  0  0  0  0999 V2000
  -26.7773  -18.1729   22.2203 C   0  0  0  0  0  0  0  0  0  0  0  0
  -27.3573  -19.3809   22.5909 C   0  0  0  0  0  0  0  0  0  0  0  0
  -22.9226  -10.0160   20.5225 C   0  0  0  0  0  0  0  0  0  0  0  0
  -24.4205   -9.0289   22.1409 C   0  0  0  0  0  0  0  0  0  0  0  0
  -26.6751  -17.8379   20.8718 C   0  0  0  0  0  0  0  0  0  0  0  0
  -27.8245  -20.2595   21.6127 C   0  0  0  0  0  0  0  0  0  0  0  0
  -30.7806  -25.5618   22.1365 C   0  0  0  0  0  0  0  0  0  0  0  0
  -22.1944   -8.8275   20.4715 C   0  0  0  0  0  0  0  0  0  0  0  0
  -23.6922   -7.8403   22.0899 C   0  0  0  0  0  0  0  0  0  0  0  0
  -32.1023  -26.0031   22.1814 C   0  0  0  0  0  0  0  0  0  0  0  0
  -22.0144   -4.6651   22.6564 C   0  0  0  0  0  0  0  0  0  0  0  0
  -21.7063   -4.0401   23.8647 C   0  0  0  0  0  0  0  0  0  0  0  0
  -32.0126  -26.4930   19.8211 C   0  0  0  0  0  0  0  0  0  0  0  0
  -20.4946   -6.0066   24.5730 C   0  0  0  0  0  0  0  0  0  0  0  0
  -24.0358  -10.1167   21.3571 C   0  0  0  0  0  0  0  0  0  0  0  0
  -24.5759  -12.4356   22.2729 C   0  0  0  0  0  0  0  0  0  0  0  0
  -27.1528  -18.7078   19.8778 C   0  0  0  0  0  0  0  0  0  0  0  0
  -30.0672  -25.5727   20.9293 C   0  0  0  0  0  0  0  0  0  0  0  0
  -27.7087  -19.9501   20.2454 C   0  0  0  0  0  0  0  0  0  0  0  0
  -30.6811  -26.0538   19.7641 C   0  0  0  0  0  0  0  0  0  0  0  0
  -22.5792   -7.7396   21.2552 C   0  0  0  0  0  0  0  0  0  0  0  0
  -32.7195  -26.4660   21.0230 C   0  0  0  0  0  0  0  0  0  0  0  0
  -21.5626   -5.9609   22.4064 C   0  0  0  0  0  0  0  0  0  0  0  0
  -20.9464   -4.7108   24.8230 C   0  0  0  0  0  0  0  0  0  0  0  0
  -20.8027   -6.6317   23.3647 C   0  0  0  0  0  0  0  0  0  0  0  0
  -24.7888  -11.3440   21.4098 C   0  0  0  0  0  0  0  0  0  0  0  0
  -25.5484  -13.3417   21.9268 C   0  0  0  0  0  0  0  0  0  0  0  0
  -23.5876  -12.6145   23.2961 C   0  0  0  0  0  0  0  0  0  0  0  0
  -28.7084  -23.3511   19.1067 C   0  0  0  0  0  0  0  0  0  0  0  0
  -27.6459  -25.9234   17.4404 C   0  0  0  0  0  0  0  0  0  0  0  0
  -31.0212  -17.2916   22.3584 C   0  0  0  0  0  0  0  0  0  0  0  0
  -36.2500  -26.5159   20.2353 C   0  0  0  0  0  0  0  0  0  0  0  0
  -28.0692  -29.2016   16.5912 C   0  0  0  0  0  0  0  0  0  0  0  0
  -30.8373  -14.5388   20.6080 C   0  0  0  0  0  0  0  0  0  0  0  0
  -27.0097  -18.2986   18.4330 C   0  0  0  0  0  0  0  0  0  0  0  0
  -28.6335  -25.1184   20.9031 C   0  0  0  0  0  0  0  0  0  0  0  0
  -29.9523  -26.1049   18.4470 C   0  0  0  0  0  0  0  0  0  0  0  0
  -27.9261  -19.0828   17.4995 C   0  0  0  0  0  0  0  0  0  0  0  0
  -28.7078  -13.4329   17.9776 C   0  0  0  0  0  0  0  0  0  0  0  0
  -27.7956  -20.5735   17.7743 C   0  0  0  0  0  0  0  0  0  0  0  0
  -27.4844  -12.8755   18.7073 C   0  0  0  0  0  0  0  0  0  0  0  0
  -29.9994  -13.1445   18.7398 C   0  0  0  0  0  0  0  0  0  0  0  0
  -28.7766  -13.0295   20.8765 C   0  0  0  0  0  0  0  0  0  0  0  0
  -28.2514  -20.9078   19.2002 C   0  0  1  0  0  0  0  0  0  0  0  0
  -28.1671  -24.6921   19.5145 C   0  0  1  0  0  0  0  0  0  0  0  0
  -27.4447  -13.3443   20.1743 C   0  0  2  0  0  0  0  0  0  0  0  0
  -27.0627  -31.0169   15.1809 C   0  0  0  0  0  0  0  0  0  0  0  0
  -28.8383  -24.6404   14.9421 C   0  0  0  0  0  0  0  0  0  0  0  0
  -28.6578  -26.8611   13.8002 C   0  0  0  0  0  0  0  0  0  0  0  0
  -26.5997  -25.7022   14.6023 C   0  0  0  0  0  0  0  0  0  0  0  0
  -27.5397  -30.9033   18.9539 C   0  0  0  0  0  0  0  0  0  0  0  0
  -31.5472  -15.8874   22.5667 C   0  0  0  0  0  0  0  0  0  0  0  0
  -34.7932  -26.7418   19.8918 C   0  0  0  0  0  0  0  0  0  1  0  0
  -36.3905  -21.6642   19.2180 C   0  0  0  0  0  0  0  0  0  0  0  0
  -35.8212  -20.8485   20.3822 C   0  0  0  0  0  0  0  0  0  0  0  0
  -37.9161  -21.5624   19.1639 C   0  0  0  0  0  0  0  0  0  0  0  0
  -34.2985  -20.9810   20.4581 C   0  0  0  0  0  0  0  0  0  0  0  0
  -38.5410  -22.3672   18.0202 C   0  0  0  0  0  0  0  0  0  0  0  0
  -33.6818  -20.2416   21.6495 C   0  0  0  0  0  0  0  0  0  0  0  0
  -38.2248  -23.8659   18.0069 C   0  0  0  0  0  0  0  0  0  0  0  0
  -32.1551  -20.3559   21.7107 C   0  0  0  0  0  0  0  0  0  0  0  0
  -38.7672  -24.6141   19.2251 C   0  0  0  0  0  0  0  0  0  0  0  0
  -31.5665  -19.6535   22.9310 C   0  0  0  0  0  0  0  0  0  0  0  0
  -38.4474  -26.1028   19.1461 C   0  0  0  0  0  0  0  0  0  0  0  0
  -28.1729  -26.7417   16.2865 C   0  0  1  0  0  0  0  0  0  0  0  0
  -27.0965  -30.3665   16.5552 C   0  0  2  0  0  0  0  0  0  0  0  0
  -28.0818  -25.9837   14.9320 C   0  0  0  0  0  0  0  0  0  0  0  0
  -25.8157  -11.5371   20.5778 N   0  0  0  0  0  0  0  0  0  0  0  0
  -26.2568  -12.7606   20.9165 N   0  0  0  0  0  0  0  0  0  0  0  0
  -28.5543  -25.6440   18.4713 N   0  0  0  0  0  0  0  0  0  0  0  0
  -29.8967  -13.6151   20.1232 N   0  0  0  0  0  0  0  0  0  0  0  0
  -25.8580  -14.5709   22.3911 N   0  0  0  0  0  0  0  0  0  0  0  0
  -22.6645  -11.5841   23.5208 N   0  0  0  0  0  0  0  0  0  0  0  0
  -27.9183  -22.2848   19.4917 N   0  0  0  0  0  0  0  0  0  0  0  0
  -31.8506  -18.2450   22.9422 N   0  0  0  0  0  0  0  0  0  0  0  0
  -37.0300  -26.3368   19.0988 N   0  0  0  0  0  0  0  0  0  0  0  0
  -27.4430  -28.0046   16.3147 N   0  0  0  0  0  0  0  0  0  0  0  0
  -30.6639  -14.9375   21.9277 N   0  0  0  0  0  0  0  0  0  0  0  0
  -27.4887  -31.3999   17.5547 N   0  3  0  0  0  0  0  0  0  0  0  0
  -23.5146  -13.6639   23.9794 O   0  0  0  0  0  0  0  0  0  0  0  0
  -29.7639  -23.2885   18.4873 O   0  0  0  0  0  0  0  0  0  0  0  0
  -26.4696  -25.5521   17.4310 O   0  0  0  0  0  0  0  0  0  0  0  0
  -29.9682  -17.5373   21.7757 O   0  0  0  0  0  0  0  0  0  0  0  0
  -36.6649  -26.4969   21.3910 O   0  0  0  0  0  0  0  0  0  0  0  0
  -29.2656  -29.3401   16.8361 O   0  0  0  0  0  0  0  0  0  0  0  0
  -31.7600  -14.9798   19.9144 O   0  0  0  0  0  0  0  0  0  0  0  0
  -21.8686   -6.5798   21.2059 O   0  0  0  0  0  0  0  0  0  0  0  0
  -34.0231  -26.9012   21.0643 O   0  0  0  0  0  0  0  0  0  1  0  0
  -20.6494   -4.1099   25.9827 F   0  0  0  0  0  0  0  0  0  0  0  0
  -20.3649   -7.8762   23.1297 F   0  0  0  0  0  0  0  0  0  0  0  0
  1  2  1  0  0  0  0
  1  5  2  0  0  0  0
  2  6  2  0  0  0  0
  3  8  2  0  0  0  0
  3 15  1  0  0  0  0
  4  9  1  0  0  0  0
  4 15  2  0  0  0  0
  5 17  1  0  0  0  0
  6 19  1  0  0  0  0
  7 10  2  0  0  0  0
  7 18  1  0  0  0  0
  8 21  1  0  0  0  0
  9 21  2  0  0  0  0
 10 22  1  0  0  0  0
 11 12  2  0  0  0  0
 11 23  1  0  0  0  0
 12 24  1  0  0  0  0
 13 20  1  0  0  0  0
 13 22  2  0  0  0  0
 14 24  2  0  0  0  0
 14 25  1  0  0  0  0
 15 26  1  0  0  0  0
 16 26  1  0  0  0  0
 16 27  2  0  0  0  0
 16 28  1  0  0  0  0
 17 19  2  0  0  0  0
 17 35  1  0  0  0  0
 18 20  2  0  0  0  0
 18 36  1  0  0  0  0
 19 44  1  0  0  0  0
 20 37  1  0  0  0  0
 21 87  1  0  0  0  0
 22 88  1  0  0  0  0
 23 25  2  0  0  0  0
 23 87  1  0  0  0  0
 24 89  1  0  0  0  0
 25 90  1  0  0  0  0
 26 68  2  0  0  0  0
 27 69  1  0  0  0  0
 27 72  1  0  0  0  0
 28 73  1  0  0  0  0
 28 80  2  0  0  0  0
 29 45  1  0  0  0  0
 29 74  1  0  0  0  0
 29 81  2  0  0  0  0
 30 65  1  0  0  0  0
 30 70  1  0  0  0  0
 30 82  2  0  0  0  0
 31 52  1  0  0  0  0
 31 75  1  0  0  0  0
 31 83  2  0  0  0  0
 32 53  1  0  0  0  0
 32 76  1  0  0  0  0
 32 84  2  0  0  0  0
 33 66  1  0  0  0  0
 33 77  1  0  0  0  0
 33 85  2  0  0  0  0
 34 71  1  0  0  0  0
 34 78  1  0  0  0  0
 34 86  2  0  0  0  0
 35 38  1  0  0  0  0
 36 45  1  0  0  0  0
 37 70  1  0  0  0  0
 38 40  1  0  0  0  0
 39 41  1  0  0  0  0
 39 42  1  0  0  0  0
 40 44  1  0  0  0  0
 41 46  1  0  0  0  0
 42 71  1  0  0  0  0
 43 46  1  0  0  0  0
 43 71  1  0  0  0  0
 44 74  1  0  0  0  0
 45 70  1  0  0  0  0
 46 69  1  0  0  0  0
 47 66  1  0  0  0  0
 48 67  1  0  0  0  0
 49 67  1  0  0  0  0
 50 67  1  0  0  0  0
 51 79  1  0  0  0  0
 52 78  1  0  0  0  0
 53 88  1  0  0  0  0
 54 55  1  0  0  0  0
 54 56  1  0  0  0  0
 55 57  1  0  0  0  0
 56 58  1  0  0  0  0
 57 59  1  0  0  0  0
 58 60  1  0  0  0  0
 59 61  1  0  0  0  0
 60 62  1  0  0  0  0
 61 63  1  0  0  0  0
 62 64  1  0  0  0  0
 63 75  1  0  0  0  0
 64 76  1  0  0  0  0
 65 67  1  0  0  0  0
 65 77  1  0  0  0  0
 66 79  1  0  0  0  0
 68 69  1  0  0  0  0
M  CHG  1  79   1
M  ISO  4  34 100  53 101  78 100  88 101
M  END
> <Batch ID>
0009

> <Smiles>
CNC(C)C(=O)NC(C(=O)N1Cc2cc([101O:1][101CH2:1]C(=O)NCCCCCCCCCCCNC(=O)C[100NH:0][100C:0](=O)N3CCCC(n4nc(-c5ccc(Oc6ccc(F)cc6F)cc5)c(C(N)=O)c4N)C3)ccc2CC1C(=O)NC1CCCc2ccccc21)C(C)(C)C

> <Shape>
0.241

> <Color>
0.120

> <Negative vol penalty>
0.000

$$$$

  -OEChem-04052315383D

 82 90  0     1  0  0  0  0  0999 V2000
  -24.6122  -34.0114   28.0639 C   0  0  0  0  0  0  0  0  0  0  0  0
  -25.4919  -33.1965   27.3586 C   0  0  0  0  0  0  0  0  0  0  0  0
  -24.2567   -9.1059   21.4812 C   0  0  0  0  0  0  0  0  0  0  0  0
  -24.7683  -10.3935   23.4604 C   0  0  0  0  0  0  0  0  0  0  0  0
  -23.2367  -33.8149   27.9481 C   0  0  0  0  0  0  0  0  0  0  0  0
  -24.9966  -32.1839   26.5377 C   0  0  0  0  0  0  0  0  0  0  0  0
  -27.3828  -30.2386   21.2437 C   0  0  0  0  0  0  0  0  0  0  0  0
  -30.2159  -18.8786   20.0778 C   0  0  0  0  0  0  0  0  0  0  0  0
  -23.9218   -8.0121   22.2793 C   0  0  0  0  0  0  0  0  0  0  0  0
  -24.4333   -9.2997   24.2585 C   0  0  0  0  0  0  0  0  0  0  0  0
  -28.1972  -29.1529   20.9246 C   0  0  0  0  0  0  0  0  0  0  0  0
  -30.3965  -20.2134   20.4399 C   0  0  0  0  0  0  0  0  0  0  0  0
  -21.2944   -7.0103   24.1570 C   0  0  0  0  0  0  0  0  0  0  0  0
  -20.1253   -6.3155   23.8470 C   0  0  0  0  0  0  0  0  0  0  0  0
  -26.2451  -27.8791   20.3032 C   0  0  0  0  0  0  0  0  0  0  0  0
  -28.0127  -20.4509   20.7535 C   0  0  0  0  0  0  0  0  0  0  0  0
  -21.4143   -4.3017   23.4998 C   0  0  0  0  0  0  0  0  0  0  0  0
  -24.6800  -10.2966   22.0717 C   0  0  0  0  0  0  0  0  0  0  0  0
  -24.1683  -12.4504   20.8040 C   0  0  0  0  0  0  0  0  0  0  0  0
  -22.7241  -32.8057   27.1179 C   0  0  0  0  0  0  0  0  0  0  0  0
  -25.9903  -30.1489   21.1050 C   0  0  0  0  0  0  0  0  0  0  0  0
  -23.6130  -31.9729   26.4117 C   0  0  0  0  0  0  0  0  0  0  0  0
  -25.4155  -28.9660   20.6188 C   0  0  0  0  0  0  0  0  0  0  0  0
  -28.9336  -18.3299   20.0534 C   0  0  0  0  0  0  0  0  0  0  0  0
  -24.0101   -8.1090   23.6679 C   0  0  0  0  0  0  0  0  0  0  0  0
  -27.6281  -27.9719   20.4571 C   0  0  0  0  0  0  0  0  0  0  0  0
  -29.2950  -20.9996   20.7778 C   0  0  0  0  0  0  0  0  0  0  0  0
  -22.5234   -6.3509   24.1383 C   0  0  0  0  0  0  0  0  0  0  0  0
  -20.1853   -4.9612   23.5185 C   0  0  0  0  0  0  0  0  0  0  0  0
  -27.8321  -19.1160   20.3913 C   0  0  0  0  0  0  0  0  0  0  0  0
  -22.5834   -4.9966   23.8098 C   0  0  0  0  0  0  0  0  0  0  0  0
  -25.0267  -11.4267   21.2478 C   0  0  0  0  0  0  0  0  0  0  0  0
  -24.9747  -13.2760   20.0594 C   0  0  0  0  0  0  0  0  0  0  0  0
  -22.7672  -12.6382   21.0434 C   0  0  0  0  0  0  0  0  0  0  0  0
  -23.5206  -30.3437   23.0966 C   0  0  0  0  0  0  0  0  0  0  0  0
  -21.7957  -30.1726   20.3547 C   0  0  0  0  0  0  0  0  0  0  0  0
  -21.6387  -29.2028   17.0865 C   0  0  0  0  0  0  0  0  0  0  0  0
  -29.7411  -16.0584   19.3221 C   0  0  0  0  0  0  0  0  0  0  0  0
  -21.2309  -32.6009   27.0614 C   0  0  0  0  0  0  0  0  0  0  0  0
  -25.1278  -31.3381   21.4281 C   0  0  0  0  0  0  0  0  0  0  0  0
  -23.9275  -28.8254   20.4328 C   0  0  0  0  0  0  0  0  0  0  0  0
  -20.7774  -31.7478   25.8795 C   0  0  0  0  0  0  0  0  0  0  0  0
  -29.7068  -12.6236   18.3850 C   0  0  0  0  0  0  0  0  0  0  0  0
  -21.6503  -30.5032   25.7534 C   0  0  0  0  0  0  0  0  0  0  0  0
  -28.4155  -12.0902   19.0097 C   0  0  0  0  0  0  0  0  0  0  0  0
  -30.3849  -13.6587   19.2809 C   0  0  0  0  0  0  0  0  0  0  0  0
  -28.2331  -14.2360   20.3323 C   0  0  0  0  0  0  0  0  0  0  0  0
  -23.1136  -30.8799   25.4919 C   0  0  1  0  0  0  0  0  0  0  0  0
  -23.6820  -30.9615   21.7365 C   0  0  1  0  0  0  0  0  0  0  0  0
  -27.4802  -13.2383   19.4372 C   0  0  2  0  0  0  0  0  0  0  0  0
  -20.0851  -29.1624   15.1161 C   0  0  0  0  0  0  0  0  0  0  0  0
  -20.2767  -27.8395   21.6034 C   0  0  0  0  0  0  0  0  0  0  0  0
  -19.4426  -27.2500   19.3175 C   0  0  0  0  0  0  0  0  0  0  0  0
  -18.8500  -29.4513   20.3303 C   0  0  0  0  0  0  0  0  0  0  0  0
  -23.4541  -30.8939   15.4731 C   0  0  0  0  0  0  0  0  0  0  0  0
  -28.9589  -24.6088   20.6297 C   0  0  0  0  0  0  0  0  0  0  0  0
  -27.8587  -25.6093   20.3123 C   0  0  0  0  0  0  0  0  0  1  0  0
  -28.4097  -23.2060   20.8371 C   0  0  0  0  0  0  0  0  0  0  0  0
  -21.2136  -29.0531   19.5260 C   0  0  1  0  0  0  0  0  0  0  0  0
  -21.1770  -29.9352   15.8395 C   0  0  2  0  0  0  0  0  0  0  0  0
  -19.9736  -28.4001   20.1995 C   0  0  0  0  0  0  0  0  0  0  0  0
  -26.2823  -11.5853   20.8207 N   0  0  0  0  0  0  0  0  0  0  0  0
  -26.2187  -12.7183   20.1006 N   0  0  0  0  0  0  0  0  0  0  0  0
  -23.1260  -30.0139   20.7684 N   0  0  0  0  0  0  0  0  0  0  0  0
  -29.4398  -14.7176   19.6419 N   0  0  0  0  0  0  0  0  0  0  0  0
  -24.7340  -14.4175   19.3799 N   0  0  0  0  0  0  0  0  0  0  0  0
  -22.0916  -11.6955   21.8304 N   0  0  0  0  0  0  0  0  0  0  0  0
  -28.7535  -16.9736   19.6850 N   0  0  0  0  0  0  0  0  0  0  0  0
  -23.2983  -31.2591   24.1075 N   0  0  0  0  0  0  0  0  0  0  0  0
  -20.9493  -29.6168   18.2066 N   0  0  0  0  0  0  0  0  0  0  0  0
  -22.3176  -30.1280   14.8999 N   0  3  0  0  0  0  0  0  0  0  0  0
  -22.1296  -13.6042   20.5598 O   0  0  0  0  0  0  0  0  0  0  0  0
  -23.5911  -29.1265   23.2195 O   0  0  0  0  0  0  0  0  0  0  0  0
  -21.0982  -31.1551   20.6191 O   0  0  0  0  0  0  0  0  0  0  0  0
  -22.5198  -28.3462   17.0680 O   0  0  0  0  0  0  0  0  0  0  0  0
  -30.7851  -16.3685   18.7427 O   0  0  0  0  0  0  0  0  0  0  0  0
  -23.6831   -7.0420   24.4471 O   0  0  0  0  0  0  0  0  0  0  0  0
  -28.4206  -26.9104   20.1455 O   0  0  0  0  0  0  0  0  0  1  0  0
  -29.4727  -22.3109   21.1348 O   0  0  0  0  0  0  0  0  0  0  0  0
  -19.0624   -4.2937   23.2223 F   0  0  0  0  0  0  0  0  0  0  0  0
  -26.5952  -18.5992   20.3709 F   0  0  0  0  0  0  0  0  0  0  0  0
  -23.7611   -4.3575   23.7913 F   0  0  0  0  0  0  0  0  0  0  0  0
  1  2  1  0  0  0  0
  1  5  2  0  0  0  0
  2  6  2  0  0  0  0
  3  9  2  0  0  0  0
  3 18  1  0  0  0  0
  4 10  1  0  0  0  0
  4 18  2  0  0  0  0
  5 20  1  0  0  0  0
  6 22  1  0  0  0  0
  7 11  2  0  0  0  0
  7 21  1  0  0  0  0
  8 12  2  0  0  0  0
  8 24  1  0  0  0  0
  9 25  1  0  0  0  0
 10 25  2  0  0  0  0
 11 26  1  0  0  0  0
 12 27  1  0  0  0  0
 13 14  2  0  0  0  0
 13 28  1  0  0  0  0
 14 29  1  0  0  0  0
 15 23  1  0  0  0  0
 15 26  2  0  0  0  0
 16 27  2  0  0  0  0
 16 30  1  0  0  0  0
 17 29  2  0  0  0  0
 17 31  1  0  0  0  0
 18 32  1  0  0  0  0
 19 32  1  0  0  0  0
 19 33  2  0  0  0  0
 19 34  1  0  0  0  0
 20 22  2  0  0  0  0
 20 39  1  0  0  0  0
 21 23  2  0  0  0  0
 21 40  1  0  0  0  0
 22 48  1  0  0  0  0
 23 41  1  0  0  0  0
 24 30  2  0  0  0  0
 24 68  1  0  0  0  0
 25 77  1  0  0  0  0
 26 78  1  0  0  0  0
 27 79  1  0  0  0  0
 28 31  2  0  0  0  0
 28 77  1  0  0  0  0
 29 80  1  0  0  0  0
 30 81  1  0  0  0  0
 31 82  1  0  0  0  0
 32 62  2  0  0  0  0
 33 63  1  0  0  0  0
 33 66  1  0  0  0  0
 34 67  1  0  0  0  0
 34 72  2  0  0  0  0
 35 49  1  0  0  0  0
 35 69  1  0  0  0  0
 35 73  2  0  0  0  0
 36 59  1  0  0  0  0
 36 64  1  0  0  0  0
 36 74  2  0  0  0  0
 37 60  1  0  0  0  0
 37 70  1  0  0  0  0
 37 75  2  0  0  0  0
 38 65  1  0  0  0  0
 38 68  1  0  0  0  0
 38 76  2  0  0  0  0
 39 42  1  0  0  0  0
 40 49  1  0  0  0  0
 41 64  1  0  0  0  0
 42 44  1  0  0  0  0
 43 45  1  0  0  0  0
 43 46  1  0  0  0  0
 44 48  1  0  0  0  0
 45 50  1  0  0  0  0
 46 65  1  0  0  0  0
 47 50  1  0  0  0  0
 47 65  1  0  0  0  0
 48 69  1  0  0  0  0
 49 64  1  0  0  0  0
 50 63  1  0  0  0  0
 51 60  1  0  0  0  0
 52 61  1  0  0  0  0
 53 61  1  0  0  0  0
 54 61  1  0  0  0  0
 55 71  1  0  0  0  0
 56 57  1  0  0  0  0
 56 58  1  0  0  0  0
 57 78  1  0  0  0  0
 58 79  1  0  0  0  0
 59 61  1  0  0  0  0
 59 70  1  0  0  0  0
 60 71  1  0  0  0  0
 62 63  1  0  0  0  0
M  CHG  1  71   1
M  ISO  4  38 100  57 101  68 100  78 101
M  END
> <Batch ID>
0009

> <Smiles>
CNC(C)C(=O)NC(C(=O)N1Cc2cc([101O:1][101CH2:1]CCOc3ccc([100NH:0][100C:0](=O)N4CCCC(n5nc(-c6ccc(Oc7ccc(F)cc7F)cc6)c(C(N)=O)c5N)C4)c(F)c3)ccc2CC1C(=O)NC1CCCc2ccccc21)C(C)(C)C

> <Shape>
0.303

> <Color>
0.145

> <Negative vol penalty>
0.000

$$$$

  -OEChem-04052315383D

 81 89  0     1  0  0  0  0  0999 V2000
  -27.1703  -30.0585   18.2469 C   0  0  0  0  0  0  0  0  0  0  0  0
  -27.0943  -28.6928   18.5006 C   0  0  0  0  0  0  0  0  0  0  0  0
  -30.6021  -23.0944   20.3892 C   0  0  0  0  0  0  0  0  0  0  0  0
  -29.0098  -23.0080   18.5743 C   0  0  0  0  0  0  0  0  0  0  0  0
  -26.4059  -30.9497   18.9989 C   0  0  0  0  0  0  0  0  0  0  0  0
  -26.2546  -28.2175   19.5072 C   0  0  0  0  0  0  0  0  0  0  0  0
  -23.1139  -22.9599   19.5044 C   0  0  0  0  0  0  0  0  0  0  0  0
  -24.7239  -13.5905   21.7644 C   0  0  0  0  0  0  0  0  0  0  0  0
  -31.2367  -24.1774   19.7809 C   0  0  0  0  0  0  0  0  0  0  0  0
  -29.6444  -24.0909   17.9659 C   0  0  0  0  0  0  0  0  0  0  0  0
  -23.3674  -21.7156   20.0799 C   0  0  0  0  0  0  0  0  0  0  0  0
  -32.4150  -24.6308   16.1048 C   0  0  0  0  0  0  0  0  0  0  0  0
  -32.6588  -24.5524   14.7337 C   0  0  0  0  0  0  0  0  0  0  0  0
  -23.7417  -13.0265   22.5785 C   0  0  0  0  0  0  0  0  0  0  0  0
  -22.0008  -22.3199   21.9737 C   0  0  0  0  0  0  0  0  0  0  0  0
  -22.3153  -14.9353   22.1800 C   0  0  0  0  0  0  0  0  0  0  0  0
  -31.3074  -26.5238   14.3807 C   0  0  0  0  0  0  0  0  0  0  0  0
  -29.4887  -22.5097   19.7859 C   0  0  0  0  0  0  0  0  0  0  0  0
  -27.7741  -21.4361   21.3401 C   0  0  0  0  0  0  0  0  0  0  0  0
  -25.5491  -30.4842   20.0088 C   0  0  0  0  0  0  0  0  0  0  0  0
  -22.3095  -23.8993   20.1654 C   0  0  0  0  0  0  0  0  0  0  0  0
  -25.4790  -29.1033   20.2743 C   0  0  0  0  0  0  0  0  0  0  0  0
  -21.7366  -23.5744   21.4033 C   0  0  0  0  0  0  0  0  0  0  0  0
  -24.5019  -14.8270   21.1582 C   0  0  0  0  0  0  0  0  0  0  0  0
  -30.7579  -24.6756   18.5693 C   0  0  0  0  0  0  0  0  0  0  0  0
  -22.8132  -21.3965   21.3161 C   0  0  0  0  0  0  0  0  0  0  0  0
  -31.6173  -25.6556   16.6139 C   0  0  0  0  0  0  0  0  0  0  0  0
  -23.2976  -15.4993   21.3659 C   0  0  0  0  0  0  0  0  0  0  0  0
  -32.1050  -25.4989   13.8716 C   0  0  0  0  0  0  0  0  0  0  0  0
  -31.0635  -26.6021   15.7519 C   0  0  0  0  0  0  0  0  0  0  0  0
  -22.5374  -13.6989   22.7863 C   0  0  0  0  0  0  0  0  0  0  0  0
  -28.8330  -21.3906   20.4135 C   0  0  0  0  0  0  0  0  0  0  0  0
  -27.5144  -20.1189   21.6296 C   0  0  0  0  0  0  0  0  0  0  0  0
  -27.0867  -22.5679   21.8898 C   0  0  0  0  0  0  0  0  0  0  0  0
  -22.7660  -26.8244   21.3226 C   0  0  0  0  0  0  0  0  0  0  0  0
  -19.5679  -26.6931   21.8494 C   0  0  0  0  0  0  0  0  0  0  0  0
  -16.7894  -24.7741   22.3433 C   0  0  0  0  0  0  0  0  0  0  0  0
  -26.7559  -14.8388   20.0332 C   0  0  0  0  0  0  0  0  0  0  0  0
  -24.7779  -31.4895   20.8269 C   0  0  0  0  0  0  0  0  0  0  0  0
  -22.0240  -25.2270   19.5188 C   0  0  0  0  0  0  0  0  0  0  0  0
  -20.8495  -24.5400   22.1444 C   0  0  0  0  0  0  0  0  0  0  0  0
  -23.6311  -30.8743   21.6246 C   0  0  0  0  0  0  0  0  0  0  0  0
  -30.1141  -15.9242   20.5036 C   0  0  0  0  0  0  0  0  0  0  0  0
  -24.0972  -29.6118   22.3426 C   0  0  0  0  0  0  0  0  0  0  0  0
  -29.9931  -17.4469   20.5983 C   0  0  0  0  0  0  0  0  0  0  0  0
  -29.1294  -15.3387   19.4931 C   0  0  0  0  0  0  0  0  0  0  0  0
  -27.6073  -17.2534   19.7875 C   0  0  0  0  0  0  0  0  0  0  0  0
  -24.5612  -28.5471   21.3413 C   0  0  1  0  0  0  0  0  0  0  0  0
  -21.6090  -26.3017   20.5189 C   0  0  1  0  0  0  0  0  0  0  0  0
  -28.5345  -17.8823   20.8403 C   0  0  2  0  0  0  0  0  0  0  0  0
  -14.3252  -24.9521   22.7834 C   0  0  0  0  0  0  0  0  0  0  0  0
  -20.1424  -27.4318   24.7536 C   0  0  0  0  0  0  0  0  0  0  0  0
  -17.8276  -26.6731   25.3316 C   0  0  0  0  0  0  0  0  0  0  0  0
  -18.1565  -28.5807   23.7582 C   0  0  0  0  0  0  0  0  0  0  0  0
  -16.1210  -23.3519   19.8354 C   0  0  0  0  0  0  0  0  0  0  0  0
  -23.2869  -19.0884   20.9935 C   0  0  0  0  0  0  0  0  0  1  0  0
  -22.8094  -17.8091   21.6530 C   0  0  0  0  0  0  0  0  0  0  0  0
  -18.6900  -26.2325   22.9878 C   0  0  1  0  0  0  0  0  0  0  0  0
  -15.4058  -24.8259   21.7208 C   0  0  2  0  0  0  0  0  0  0  0  0
  -18.7224  -27.2118   24.1950 C   0  0  0  0  0  0  0  0  0  0  0  0
  -29.2196  -20.1432   20.1331 N   0  0  0  0  0  0  0  0  0  0  0  0
  -28.3992  -19.3927   20.8880 N   0  0  0  0  0  0  0  0  0  0  0  0
  -20.6052  -25.8278   21.4739 N   0  0  0  0  0  0  0  0  0  0  0  0
  -27.7678  -15.7908   19.7875 N   0  0  0  0  0  0  0  0  0  0  0  0
  -26.6177  -19.5224   22.4437 N   0  0  0  0  0  0  0  0  0  0  0  0
  -27.4804  -23.8504   21.4843 N   0  0  0  0  0  0  0  0  0  0  0  0
  -25.5094  -15.3868   20.3340 N   0  0  0  0  0  0  0  0  0  0  0  0
  -23.4216  -27.8907   20.7372 N   0  0  0  0  0  0  0  0  0  0  0  0
  -17.3615  -26.0263   22.4211 N   0  0  0  0  0  0  0  0  0  0  0  0
  -15.1464  -23.5887   20.9313 N   0  3  0  0  0  0  0  0  0  0  0  0
  -26.1620  -22.4461   22.7286 O   0  0  0  0  0  0  0  0  0  0  0  0
  -23.0425  -26.3001   22.3952 O   0  0  0  0  0  0  0  0  0  0  0  0
  -19.3373  -27.7775   21.3084 O   0  0  0  0  0  0  0  0  0  0  0  0
  -17.3090  -23.7281   22.7259 O   0  0  0  0  0  0  0  0  0  0  0  0
  -26.9851  -13.6268   20.0074 O   0  0  0  0  0  0  0  0  0  0  0  0
  -31.3768  -25.7325   17.9755 O   0  0  0  0  0  0  0  0  0  0  0  0
  -23.0595  -20.1829   21.8804 O   0  0  0  0  0  0  0  0  0  1  0  0
  -23.0598  -16.7146   20.7797 O   0  0  0  0  0  0  0  0  0  0  0  0
  -32.3405  -25.4244   12.5551 F   0  0  0  0  0  0  0  0  0  0  0  0
  -30.2974  -27.5896   16.2352 F   0  0  0  0  0  0  0  0  0  0  0  0
  -21.2069  -12.9342   23.8894 Br  0  0  0  0  0  0  0  0  0  0  0  0
  1  2  1  0  0  0  0
  1  5  2  0  0  0  0
  2  6  2  0  0  0  0
  3  9  2  0  0  0  0
  3 18  1  0  0  0  0
  4 10  1  0  0  0  0
  4 18  2  0  0  0  0
  5 20  1  0  0  0  0
  6 22  1  0  0  0  0
  7 11  2  0  0  0  0
  7 21  1  0  0  0  0
  8 14  2  0  0  0  0
  8 24  1  0  0  0  0
  9 25  1  0  0  0  0
 10 25  2  0  0  0  0
 11 26  1  0  0  0  0
 12 13  2  0  0  0  0
 12 27  1  0  0  0  0
 13 29  1  0  0  0  0
 14 31  1  0  0  0  0
 15 23  1  0  0  0  0
 15 26  2  0  0  0  0
 16 28  1  0  0  0  0
 16 31  2  0  0  0  0
 17 29  2  0  0  0  0
 17 30  1  0  0  0  0
 18 32  1  0  0  0  0
 19 32  1  0  0  0  0
 19 33  2  0  0  0  0
 19 34  1  0  0  0  0
 20 22  2  0  0  0  0
 20 39  1  0  0  0  0
 21 23  2  0  0  0  0
 21 40  1  0  0  0  0
 22 48  1  0  0  0  0
 23 41  1  0  0  0  0
 24 28  2  0  0  0  0
 24 67  1  0  0  0  0
 25 76  1  0  0  0  0
 26 77  1  0  0  0  0
 27 30  2  0  0  0  0
 27 76  1  0  0  0  0
 28 78  1  0  0  0  0
 29 79  1  0  0  0  0
 30 80  1  0  0  0  0
 31 81  1  0  0  0  0
 32 61  2  0  0  0  0
 33 62  1  0  0  0  0
 33 65  1  0  0  0  0
 34 66  1  0  0  0  0
 34 71  2  0  0  0  0
 35 49  1  0  0  0  0
 35 68  1  0  0  0  0
 35 72  2  0  0  0  0
 36 58  1  0  0  0  0
 36 63  1  0  0  0  0
 36 73  2  0  0  0  0
 37 59  1  0  0  0  0
 37 69  1  0  0  0  0
 37 74  2  0  0  0  0
 38 64  1  0  0  0  0
 38 67  1  0  0  0  0
 38 75  2  0  0  0  0
 39 42  1  0  0  0  0
 40 49  1  0  0  0  0
 41 63  1  0  0  0  0
 42 44  1  0  0  0  0
 43 45  1  0  0  0  0
 43 46  1  0  0  0  0
 44 48  1  0  0  0  0
 45 50  1  0  0  0  0
 46 64  1  0  0  0  0
 47 50  1  0  0  0  0
 47 64  1  0  0  0  0
 48 68  1  0  0  0  0
 49 63  1  0  0  0  0
 50 62  1  0  0  0  0
 51 59  1  0  0  0  0
 52 60  1  0  0  0  0
 53 60  1  0  0  0  0
 54 60  1  0  0  0  0
 55 70  1  0  0  0  0
 56 57  1  0  0  0  0
 56 77  1  0  0  0  0
 57 78  1  0  0  0  0
 58 60  1  0  0  0  0
 58 69  1  0  0  0  0
 59 70  1  0  0  0  0
 61 62  1  0  0  0  0
M  CHG  1  70   1
M  ISO  4  38 100  56 101  67 100  77 101
M  END
> <Batch ID>
0009

> <Smiles>
CNC(C)C(=O)NC(C(=O)N1Cc2cc([101O:1][101CH2:1]COc3cc(Br)ccc3[100NH:0][100C:0](=O)N3CCCC(n4nc(-c5ccc(Oc6ccc(F)cc6F)cc5)c(C(N)=O)c4N)C3)ccc2CC1C(=O)NC1CCCc2ccccc21)C(C)(C)C

> <Shape>
0.210

> <Color>
0.056

> <Negative vol penalty>
0.000

$$$$

  -OEChem-04052315383D

 81 89  0     1  0  0  0  0  0999 V2000
  -24.1761  -32.6666   14.2274 C   0  0  0  0  0  0  0  0  0  0  0  0
  -24.9536  -31.7436   14.9194 C   0  0  0  0  0  0  0  0  0  0  0  0
  -24.5394   -9.3455   21.5667 C   0  0  0  0  0  0  0  0  0  0  0  0
  -24.2293  -10.8838   23.4037 C   0  0  0  0  0  0  0  0  0  0  0  0
  -23.7812  -33.8498   14.8503 C   0  0  0  0  0  0  0  0  0  0  0  0
  -25.3377  -32.0038   16.2344 C   0  0  0  0  0  0  0  0  0  0  0  0
  -24.7611  -27.9830   19.2585 C   0  0  0  0  0  0  0  0  0  0  0  0
  -29.1129  -19.8810   20.5159 C   0  0  0  0  0  0  0  0  0  0  0  0
  -28.9712  -21.2537   20.7190 C   0  0  0  0  0  0  0  0  0  0  0  0
  -24.1457   -8.2876   22.3861 C   0  0  0  0  0  0  0  0  0  0  0  0
  -23.8356   -9.8259   24.2231 C   0  0  0  0  0  0  0  0  0  0  0  0
  -25.7302  -26.9837   19.1808 C   0  0  0  0  0  0  0  0  0  0  0  0
  -21.2535   -6.9958   23.5689 C   0  0  0  0  0  0  0  0  0  0  0  0
  -20.3507   -6.0708   23.0445 C   0  0  0  0  0  0  0  0  0  0  0  0
  -26.7850  -27.8607   21.1651 C   0  0  0  0  0  0  0  0  0  0  0  0
  -26.7391  -19.6964   20.1061 C   0  0  0  0  0  0  0  0  0  0  0  0
  -21.9698   -4.3070   23.3682 C   0  0  0  0  0  0  0  0  0  0  0  0
  -24.5812  -10.6436   22.0755 C   0  0  0  0  0  0  0  0  0  0  0  0
  -24.1619  -12.5382   20.4194 C   0  0  0  0  0  0  0  0  0  0  0  0
  -24.1525  -34.1203   16.1768 C   0  0  0  0  0  0  0  0  0  0  0  0
  -24.8031  -28.9368   20.2856 C   0  0  0  0  0  0  0  0  0  0  0  0
  -24.9486  -33.1924   16.8751 C   0  0  0  0  0  0  0  0  0  0  0  0
  -25.8139  -28.8696   21.2551 C   0  0  0  0  0  0  0  0  0  0  0  0
  -27.9969  -19.1024   20.2094 C   0  0  0  0  0  0  0  0  0  0  0  0
  -27.7134  -21.8478   20.6157 C   0  0  0  0  0  0  0  0  0  0  0  0
  -23.7938   -8.5278   23.7143 C   0  0  0  0  0  0  0  0  0  0  0  0
  -26.7440  -26.9241   20.1325 C   0  0  0  0  0  0  0  0  0  0  0  0
  -22.5145   -6.5764   23.9929 C   0  0  0  0  0  0  0  0  0  0  0  0
  -20.7088   -4.7264   22.9442 C   0  0  0  0  0  0  0  0  0  0  0  0
  -22.8726   -5.2320   23.8926 C   0  0  0  0  0  0  0  0  0  0  0  0
  -26.5973  -21.0691   20.3092 C   0  0  0  0  0  0  0  0  0  0  0  0
  -24.9883  -11.7368   21.2297 C   0  0  0  0  0  0  0  0  0  0  0  0
  -25.0232  -13.4260   19.8224 C   0  0  0  0  0  0  0  0  0  0  0  0
  -22.7425  -12.4848   20.2239 C   0  0  0  0  0  0  0  0  0  0  0  0
  -25.1221  -32.0974   20.3999 C   0  0  0  0  0  0  0  0  0  0  0  0
  -24.5586  -31.6494   23.5628 C   0  0  0  0  0  0  0  0  0  0  0  0
  -24.6374  -29.5477   26.2505 C   0  0  0  0  0  0  0  0  0  0  0  0
  -29.3175  -16.9616   20.0697 C   0  0  0  0  0  0  0  0  0  0  0  0
  -23.7414  -35.4344   16.7922 C   0  0  0  0  0  0  0  0  0  0  0  0
  -23.7349  -29.9924   20.3707 C   0  0  0  0  0  0  0  0  0  0  0  0
  -25.8919  -29.8576   22.3892 C   0  0  0  0  0  0  0  0  0  0  0  0
  -23.8763  -35.4637   18.3125 C   0  0  0  0  0  0  0  0  0  0  0  0
  -30.0818  -13.5079   19.6641 C   0  0  0  0  0  0  0  0  0  0  0  0
  -25.2248  -34.8930   18.7399 C   0  0  0  0  0  0  0  0  0  0  0  0
  -28.7568  -12.8051   19.9686 C   0  0  0  0  0  0  0  0  0  0  0  0
  -30.2943  -14.7292   20.5568 C   0  0  0  0  0  0  0  0  0  0  0  0
  -27.8642  -14.9935   20.8636 C   0  0  0  0  0  0  0  0  0  0  0  0
  -25.3645  -33.4274   18.3111 C   0  0  1  0  0  0  0  0  0  0  0  0
  -24.1706  -31.2207   21.1638 C   0  0  1  0  0  0  0  0  0  0  0  0
  -27.5756  -13.7949   19.9451 C   0  0  2  0  0  0  0  0  0  0  0  0
  -24.1510  -29.4777   28.7113 C   0  0  0  0  0  0  0  0  0  0  0  0
  -27.1283  -33.2001   24.1124 C   0  0  0  0  0  0  0  0  0  0  0  0
  -27.0934  -32.2942   26.4462 C   0  0  0  0  0  0  0  0  0  0  0  0
  -25.2307  -33.7481   25.6465 C   0  0  0  0  0  0  0  0  0  0  0  0
  -22.5935  -27.4354   25.9042 C   0  0  0  0  0  0  0  0  0  0  0  0
  -28.7250  -24.0669   21.1429 C   0  0  0  0  0  0  0  0  0  0  0  0
  -28.2657  -25.5080   21.2880 C   0  0  0  0  0  0  0  0  0  1  0  0
  -25.4184  -31.3824   24.7746 C   0  0  1  0  0  0  0  0  0  0  0  0
  -23.6012  -29.2339   27.3145 C   0  0  2  0  0  0  0  0  0  0  0  0
  -26.2176  -32.6386   25.2226 C   0  0  0  0  0  0  0  0  0  0  0  0
  -26.2758  -12.0847   21.1563 N   0  0  0  0  0  0  0  0  0  0  0  0
  -26.2649  -13.1144   20.2928 N   0  0  0  0  0  0  0  0  0  0  0  0
  -24.8281  -30.8747   22.4256 N   0  0  0  0  0  0  0  0  0  0  0  0
  -29.1373  -15.6238   20.4804 N   0  0  0  0  0  0  0  0  0  0  0  0
  -24.8319  -14.4350   18.9462 N   0  0  0  0  0  0  0  0  0  0  0  0
  -22.0090  -11.5107   20.9149 N   0  0  0  0  0  0  0  0  0  0  0  0
  -28.1414  -17.7079   20.0037 N   0  0  0  0  0  0  0  0  0  0  0  0
  -27.6041  -23.2128   20.8230 N   0  0  0  0  0  0  0  0  0  0  0  0
  -24.6168  -32.5666   19.2024 N   0  0  0  0  0  0  0  0  0  0  0  0
  -24.5272  -30.8452   25.7971 N   0  0  0  0  0  0  0  0  0  0  0  0
  -23.1758  -27.8088   27.2190 N   0  3  0  0  0  0  0  0  0  0  0  0
  -22.1445  -13.2670   19.4466 O   0  0  0  0  0  0  0  0  0  0  0  0
  -26.2320  -32.3320   20.8633 O   0  0  0  0  0  0  0  0  0  0  0  0
  -23.6756  -32.5084   23.6252 O   0  0  0  0  0  0  0  0  0  0  0  0
  -25.4645  -28.7252   25.8631 O   0  0  0  0  0  0  0  0  0  0  0  0
  -30.4294  -17.4044   19.7705 O   0  0  0  0  0  0  0  0  0  0  0  0
  -23.4094   -7.4957   24.5141 O   0  0  0  0  0  0  0  0  0  0  0  0
  -27.6915  -25.9502   20.0587 O   0  0  0  0  0  0  0  0  0  1  0  0
  -19.8412   -3.8381   22.4420 F   0  0  0  0  0  0  0  0  0  0  0  0
  -24.0822   -4.8229   24.2993 F   0  0  0  0  0  0  0  0  0  0  0  0
  -25.0223  -21.7650   20.1709 Cl  0  0  0  0  0  0  0  0  0  0  0  0
  1  2  1  0  0  0  0
  1  5  2  0  0  0  0
  2  6  2  0  0  0  0
  3 10  2  0  0  0  0
  3 18  1  0  0  0  0
  4 11  1  0  0  0  0
  4 18  2  0  0  0  0
  5 20  1  0  0  0  0
  6 22  1  0  0  0  0
  7 12  2  0  0  0  0
  7 21  1  0  0  0  0
  8  9  2  0  0  0  0
  8 24  1  0  0  0  0
  9 25  1  0  0  0  0
 10 26  1  0  0  0  0
 11 26  2  0  0  0  0
 12 27  1  0  0  0  0
 13 14  2  0  0  0  0
 13 28  1  0  0  0  0
 14 29  1  0  0  0  0
 15 23  1  0  0  0  0
 15 27  2  0  0  0  0
 16 24  2  0  0  0  0
 16 31  1  0  0  0  0
 17 29  2  0  0  0  0
 17 30  1  0  0  0  0
 18 32  1  0  0  0  0
 19 32  1  0  0  0  0
 19 33  2  0  0  0  0
 19 34  1  0  0  0  0
 20 22  2  0  0  0  0
 20 39  1  0  0  0  0
 21 23  2  0  0  0  0
 21 40  1  0  0  0  0
 22 48  1  0  0  0  0
 23 41  1  0  0  0  0
 24 67  1  0  0  0  0
 25 31  2  0  0  0  0
 25 68  1  0  0  0  0
 26 77  1  0  0  0  0
 27 78  1  0  0  0  0
 28 30  2  0  0  0  0
 28 77  1  0  0  0  0
 29 79  1  0  0  0  0
 30 80  1  0  0  0  0
 31 81  1  0  0  0  0
 32 61  2  0  0  0  0
 33 62  1  0  0  0  0
 33 65  1  0  0  0  0
 34 66  1  0  0  0  0
 34 72  2  0  0  0  0
 35 49  1  0  0  0  0
 35 69  1  0  0  0  0
 35 73  2  0  0  0  0
 36 58  1  0  0  0  0
 36 63  1  0  0  0  0
 36 74  2  0  0  0  0
 37 59  1  0  0  0  0
 37 70  1  0  0  0  0
 37 75  2  0  0  0  0
 38 64  1  0  0  0  0
 38 67  1  0  0  0  0
 38 76  2  0  0  0  0
 39 42  1  0  0  0  0
 40 49  1  0  0  0  0
 41 63  1  0  0  0  0
 42 44  1  0  0  0  0
 43 45  1  0  0  0  0
 43 46  1  0  0  0  0
 44 48  1  0  0  0  0
 45 50  1  0  0  0  0
 46 64  1  0  0  0  0
 47 50  1  0  0  0  0
 47 64  1  0  0  0  0
 48 69  1  0  0  0  0
 49 63  1  0  0  0  0
 50 62  1  0  0  0  0
 51 59  1  0  0  0  0
 52 60  1  0  0  0  0
 53 60  1  0  0  0  0
 54 60  1  0  0  0  0
 55 71  1  0  0  0  0
 56 57  1  0  0  0  0
 56 68  1  0  0  0  0
 57 78  1  0  0  0  0
 58 60  1  0  0  0  0
 58 70  1  0  0  0  0
 59 71  1  0  0  0  0
 61 62  1  0  0  0  0
M  CHG  1  71   1
M  ISO  4  38 100  57 101  67 100  78 101
M  END
> <Batch ID>
0009

> <Smiles>
CNC(C)C(=O)NC(C(=O)N1Cc2cc([101O:1][101CH2:1]CNc3ccc([100NH:0][100C:0](=O)N4CCCC(n5nc(-c6ccc(Oc7ccc(F)cc7F)cc6)c(C(N)=O)c5N)C4)cc3Cl)ccc2CC1C(=O)NC1CCCc2ccccc21)C(C)(C)C

> <Shape>
0.293

> <Color>
0.132

> <Negative vol penalty>
0.000

$$$$

  -OEChem-04052315383D

 84 92  0     1  0  0  0  0  0999 V2000
  -38.1874  -32.0013   16.3991 C   0  0  0  0  0  0  0  0  0  0  0  0
  -38.1999  -30.7796   17.0646 C   0  0  0  0  0  0  0  0  0  0  0  0
  -23.0174   -9.8631   20.0210 C   0  0  0  0  0  0  0  0  0  0  0  0
  -23.7008  -10.0145   22.3334 C   0  0  0  0  0  0  0  0  0  0  0  0
  -37.1935  -32.9374   16.6814 C   0  0  0  0  0  0  0  0  0  0  0  0
  -37.2191  -30.4938   18.0136 C   0  0  0  0  0  0  0  0  0  0  0  0
  -34.7074  -25.0319   19.1821 C   0  0  0  0  0  0  0  0  0  0  0  0
  -22.2525   -8.7359   20.3209 C   0  0  0  0  0  0  0  0  0  0  0  0
  -22.9359   -8.8873   22.6333 C   0  0  0  0  0  0  0  0  0  0  0  0
  -34.9594  -24.0743   20.1636 C   0  0  0  0  0  0  0  0  0  0  0  0
  -23.2072   -5.5332   22.3056 C   0  0  0  0  0  0  0  0  0  0  0  0
  -23.7868   -4.5519   23.1098 C   0  0  0  0  0  0  0  0  0  0  0  0
  -33.1674  -24.9811   21.4999 C   0  0  0  0  0  0  0  0  0  0  0  0
  -30.3991  -18.5219   23.8102 C   0  0  0  0  0  0  0  0  0  0  0  0
  -31.9913  -16.6635   22.4709 C   0  0  0  0  0  0  0  0  0  0  0  0
  -22.0318   -4.8535   24.7426 C   0  0  0  0  0  0  0  0  0  0  0  0
  -23.7416  -10.5024   21.0273 C   0  0  0  0  0  0  0  0  0  0  0  0
  -24.1160  -13.0109   20.7533 C   0  0  0  0  0  0  0  0  0  0  0  0
  -36.1943  -32.6590   17.6274 C   0  0  0  0  0  0  0  0  0  0  0  0
  -33.6890  -25.9798   19.3573 C   0  0  0  0  0  0  0  0  0  0  0  0
  -36.2116  -31.4276   18.3098 C   0  0  0  0  0  0  0  0  0  0  0  0
  -32.9029  -25.9481   20.5180 C   0  0  0  0  0  0  0  0  0  0  0  0
  -29.8134  -17.5929   22.9503 C   0  0  0  0  0  0  0  0  0  0  0  0
  -31.7809  -18.5217   24.0004 C   0  0  0  0  0  0  0  0  0  0  0  0
  -30.6095  -16.6636   22.2806 C   0  0  0  0  0  0  0  0  0  0  0  0
  -22.2117   -8.2480   21.6270 C   0  0  0  0  0  0  0  0  0  0  0  0
  -34.1913  -24.0506   21.3239 C   0  0  0  0  0  0  0  0  0  0  0  0
  -22.0399   -6.1747   22.7199 C   0  0  0  0  0  0  0  0  0  0  0  0
  -23.1991   -4.2121   24.3283 C   0  0  0  0  0  0  0  0  0  0  0  0
  -32.5770  -17.5925   23.3308 C   0  0  0  0  0  0  0  0  0  0  0  0
  -21.4522   -5.8349   23.9384 C   0  0  0  0  0  0  0  0  0  0  0  0
  -24.5323  -11.6665   20.7181 C   0  0  0  0  0  0  0  0  0  0  0  0
  -25.2281  -13.7246   20.3787 C   0  0  0  0  0  0  0  0  0  0  0  0
  -22.8383  -13.5649   21.0942 C   0  0  0  0  0  0  0  0  0  0  0  0
  -33.5866  -29.1500   19.5648 C   0  0  0  0  0  0  0  0  0  0  0  0
  -30.3804  -28.6577   19.5570 C   0  0  0  0  0  0  0  0  0  0  0  0
  -33.5256  -21.2700   23.5541 C   0  0  0  0  0  0  0  0  0  0  0  0
  -27.7724  -26.5431   20.1683 C   0  0  0  0  0  0  0  0  0  0  0  0
  -30.6970  -14.7292   20.6693 C   0  0  0  0  0  0  0  0  0  0  0  0
  -35.1680  -33.7211   17.9331 C   0  0  0  0  0  0  0  0  0  0  0  0
  -33.4123  -26.9895   18.2773 C   0  0  0  0  0  0  0  0  0  0  0  0
  -31.7844  -26.9309   20.7453 C   0  0  0  0  0  0  0  0  0  0  0  0
  -33.9473  -33.1911   18.6811 C   0  0  0  0  0  0  0  0  0  0  0  0
  -29.6343  -12.1746   18.4284 C   0  0  0  0  0  0  0  0  0  0  0  0
  -34.3776  -32.2936   19.8370 C   0  0  0  0  0  0  0  0  0  0  0  0
  -28.1780  -11.9252   18.8272 C   0  0  0  0  0  0  0  0  0  0  0  0
  -30.5116  -12.4738   19.6427 C   0  0  0  0  0  0  0  0  0  0  0  0
  -28.5683  -13.3054   20.9080 C   0  0  0  0  0  0  0  0  0  0  0  0
  -35.1503  -31.0708   19.3279 C   0  0  1  0  0  0  0  0  0  0  0  0
  -32.6865  -28.2294   18.7903 C   0  0  1  0  0  0  0  0  0  0  0  0
  -27.6332  -13.0637   19.7119 C   0  0  2  0  0  0  0  0  0  0  0  0
  -28.3305  -17.6159   22.7654 C   0  0  0  0  0  0  0  0  0  0  0  0
  -25.2661  -26.4364   20.1038 C   0  0  0  0  0  0  0  0  0  0  0  0
  -30.2466  -30.3102   22.1185 C   0  0  0  0  0  0  0  0  0  0  0  0
  -27.9523  -29.3881   22.5109 C   0  0  0  0  0  0  0  0  0  0  0  0
  -28.4099  -30.7686   20.4842 C   0  0  0  0  0  0  0  0  0  0  0  0
  -27.8012  -24.3501   18.1811 C   0  0  0  0  0  0  0  0  0  0  0  0
  -32.4085  -19.5227   24.9269 C   0  0  0  0  0  0  0  0  0  0  0  0
  -33.3255  -22.6913   23.0728 C   0  0  0  0  0  0  0  0  0  1  0  0
  -29.3329  -28.4186   20.6175 C   0  0  1  0  0  0  0  0  0  0  0  0
  -26.5546  -26.1794   19.3381 C   0  0  2  0  0  0  0  0  0  0  0  0
  -29.0077  -29.7039   21.4297 C   0  0  0  0  0  0  0  0  0  0  0  0
  -25.8092  -11.5317   20.3500 N   0  0  0  0  0  0  0  0  0  0  0  0
  -26.2048  -12.8004   20.1505 N   0  0  0  0  0  0  0  0  0  0  0  0
  -31.5570  -27.9026   19.6630 N   0  0  0  0  0  0  0  0  0  0  0  0
  -29.9357  -13.5654   20.4310 N   0  0  0  0  0  0  0  0  0  0  0  0
  -25.4560  -15.0464   20.2256 N   0  0  0  0  0  0  0  0  0  0  0  0
  -21.8054  -12.6893   21.4560 N   0  0  0  0  0  0  0  0  0  0  0  0
  -30.0335  -15.7122   21.4028 N   0  0  0  0  0  0  0  0  0  0  0  0
  -34.2385  -30.0866   18.7855 N   0  0  0  0  0  0  0  0  0  0  0  0
  -32.4668  -20.8411   24.3390 N   0  0  0  0  0  0  0  0  0  0  0  0
  -28.1833  -27.8380   19.9321 N   0  0  0  0  0  0  0  0  0  0  0  0
  -26.5972  -24.7386   18.9599 N   0  3  0  0  0  0  0  0  0  0  0  0
  -22.6143  -14.7987   21.0625 O   0  0  0  0  0  0  0  0  0  0  0  0
  -33.6816  -29.0211   20.7797 O   0  0  0  0  0  0  0  0  0  0  0  0
  -30.1598  -29.4789   18.6634 O   0  0  0  0  0  0  0  0  0  0  0  0
  -34.5174  -20.6050   23.2675 O   0  0  0  0  0  0  0  0  0  0  0  0
  -28.3036  -25.7584   20.9510 O   0  0  0  0  0  0  0  0  0  0  0  0
  -31.8429  -14.8562   20.2301 O   0  0  0  0  0  0  0  0  0  0  0  0
  -21.4653   -7.1482   21.9200 O   0  0  0  0  0  0  0  0  0  0  0  0
  -34.4355  -23.1174   22.2838 O   0  0  0  0  0  0  0  0  0  1  0  0
  -23.7550   -3.2686   25.0997 F   0  0  0  0  0  0  0  0  0  0  0  0
  -33.9057  -17.5848   23.5073 F   0  0  0  0  0  0  0  0  0  0  0  0
  -20.3302   -6.4468   24.3412 F   0  0  0  0  0  0  0  0  0  0  0  0
  1  2  1  0  0  0  0
  1  5  2  0  0  0  0
  2  6  2  0  0  0  0
  3  8  2  0  0  0  0
  3 17  1  0  0  0  0
  4  9  1  0  0  0  0
  4 17  2  0  0  0  0
  5 19  1  0  0  0  0
  6 21  1  0  0  0  0
  7 10  2  0  0  0  0
  7 20  1  0  0  0  0
  8 26  1  0  0  0  0
  9 26  2  0  0  0  0
 10 27  1  0  0  0  0
 11 12  2  0  0  0  0
 11 28  1  0  0  0  0
 12 29  1  0  0  0  0
 13 22  1  0  0  0  0
 13 27  2  0  0  0  0
 14 23  2  0  0  0  0
 14 24  1  0  0  0  0
 15 25  2  0  0  0  0
 15 30  1  0  0  0  0
 16 29  2  0  0  0  0
 16 31  1  0  0  0  0
 17 32  1  0  0  0  0
 18 32  1  0  0  0  0
 18 33  2  0  0  0  0
 18 34  1  0  0  0  0
 19 21  2  0  0  0  0
 19 40  1  0  0  0  0
 20 22  2  0  0  0  0
 20 41  1  0  0  0  0
 21 49  1  0  0  0  0
 22 42  1  0  0  0  0
 23 25  1  0  0  0  0
 23 52  1  0  0  0  0
 24 30  2  0  0  0  0
 24 58  1  0  0  0  0
 25 69  1  0  0  0  0
 26 80  1  0  0  0  0
 27 81  1  0  0  0  0
 28 31  2  0  0  0  0
 28 80  1  0  0  0  0
 29 82  1  0  0  0  0
 30 83  1  0  0  0  0
 31 84  1  0  0  0  0
 32 63  2  0  0  0  0
 33 64  1  0  0  0  0
 33 67  1  0  0  0  0
 34 68  1  0  0  0  0
 34 74  2  0  0  0  0
 35 50  1  0  0  0  0
 35 70  1  0  0  0  0
 35 75  2  0  0  0  0
 36 60  1  0  0  0  0
 36 65  1  0  0  0  0
 36 76  2  0  0  0  0
 37 59  1  0  0  0  0
 37 71  1  0  0  0  0
 37 77  2  0  0  0  0
 38 61  1  0  0  0  0
 38 72  1  0  0  0  0
 38 78  2  0  0  0  0
 39 66  1  0  0  0  0
 39 69  1  0  0  0  0
 39 79  2  0  0  0  0
 40 43  1  0  0  0  0
 41 50  1  0  0  0  0
 42 65  1  0  0  0  0
 43 45  1  0  0  0  0
 44 46  1  0  0  0  0
 44 47  1  0  0  0  0
 45 49  1  0  0  0  0
 46 51  1  0  0  0  0
 47 66  1  0  0  0  0
 48 51  1  0  0  0  0
 48 66  1  0  0  0  0
 49 70  1  0  0  0  0
 50 65  1  0  0  0  0
 51 64  1  0  0  0  0
 53 61  1  0  0  0  0
 54 62  1  0  0  0  0
 55 62  1  0  0  0  0
 56 62  1  0  0  0  0
 57 73  1  0  0  0  0
 58 71  1  0  0  0  0
 59 81  1  0  0  0  0
 60 62  1  0  0  0  0
 60 72  1  0  0  0  0
 61 73  1  0  0  0  0
 63 64  1  0  0  0  0
M  CHG  1  73   1
M  ISO  4  39 100  59 101  69 100  81 101
M  END
> <Batch ID>
0009

> <Smiles>
CNC(C)C(=O)NC(C(=O)N1Cc2cc([101O:1][101CH2:1]C(=O)NCc3cc(C)c([100NH:0][100C:0](=O)N4CCCC(n5nc(-c6ccc(Oc7ccc(F)cc7F)cc6)c(C(N)=O)c5N)C4)cc3F)ccc2CC1C(=O)NC1CCCc2ccccc21)C(C)(C)C

> <Shape>
0.229

> <Color>
0.200

> <Negative vol penalty>
0.000

$$$$

  -OEChem-04052315383D

 83 91  0     1  0  0  0  0  0999 V2000
  -26.0009  -36.9100   24.8124 C   0  0  0  0  0  0  0  0  0  0  0  0
  -26.7608  -35.9034   24.2252 C   0  0  0  0  0  0  0  0  0  0  0  0
  -26.9319  -12.2669   21.8815 C   0  0  0  0  0  0  0  0  0  0  0  0
  -26.2343  -13.9666   20.3127 C   0  0  0  0  0  0  0  0  0  0  0  0
  -24.7730  -36.6036   25.3974 C   0  0  0  0  0  0  0  0  0  0  0  0
  -26.2937  -34.5896   24.2237 C   0  0  0  0  0  0  0  0  0  0  0  0
  -27.1117  -30.3966   19.8356 C   0  0  0  0  0  0  0  0  0  0  0  0
  -31.2549  -22.2726   21.9963 C   0  0  0  0  0  0  0  0  0  0  0  0
  -25.6250  -11.7830   21.9385 C   0  0  0  0  0  0  0  0  0  0  0  0
  -24.9273  -13.4827   20.3697 C   0  0  0  0  0  0  0  0  0  0  0  0
  -28.0176  -29.3456   19.6996 C   0  0  0  0  0  0  0  0  0  0  0  0
  -31.2473  -23.5497   21.4355 C   0  0  0  0  0  0  0  0  0  0  0  0
  -23.6021   -9.8434   20.0466 C   0  0  0  0  0  0  0  0  0  0  0  0
  -23.4184   -8.4626   19.9749 C   0  0  0  0  0  0  0  0  0  0  0  0
  -26.3757  -27.8225   20.5961 C   0  0  0  0  0  0  0  0  0  0  0  0
  -29.7895  -22.7677   19.6746 C   0  0  0  0  0  0  0  0  0  0  0  0
  -22.3598   -8.4906   22.1464 C   0  0  0  0  0  0  0  0  0  0  0  0
  -27.2366  -13.3587   21.0687 C   0  0  0  0  0  0  0  0  0  0  0  0
  -29.6037  -13.4588   20.1231 C   0  0  0  0  0  0  0  0  0  0  0  0
  -24.2861  -35.2869   25.3945 C   0  0  0  0  0  0  0  0  0  0  0  0
  -25.8326  -30.1700   20.3639 C   0  0  0  0  0  0  0  0  0  0  0  0
  -25.0588  -34.2650   24.8104 C   0  0  0  0  0  0  0  0  0  0  0  0
  -25.4546  -28.8719   20.7354 C   0  0  0  0  0  0  0  0  0  0  0  0
  -30.5299  -21.2430   21.3963 C   0  0  0  0  0  0  0  0  0  0  0  0
  -24.6226  -12.3909   21.1826 C   0  0  0  0  0  0  0  0  0  0  0  0
  -27.6507  -28.0588   20.0826 C   0  0  0  0  0  0  0  0  0  0  0  0
  -30.5146  -23.7972   20.2746 C   0  0  0  0  0  0  0  0  0  0  0  0
  -23.1648  -10.5478   21.1684 C   0  0  0  0  0  0  0  0  0  0  0  0
  -29.7972  -21.4905   20.2355 C   0  0  0  0  0  0  0  0  0  0  0  0
  -22.7972   -7.7862   21.0247 C   0  0  0  0  0  0  0  0  0  0  0  0
  -22.5436   -9.8714   22.2182 C   0  0  0  0  0  0  0  0  0  0  0  0
  -28.5864  -13.8594   21.0098 C   0  0  0  0  0  0  0  0  0  0  0  0
  -30.6867  -14.2276   20.4731 C   0  0  0  0  0  0  0  0  0  0  0  0
  -29.5726  -12.4794   19.0764 C   0  0  0  0  0  0  0  0  0  0  0  0
  -24.2491  -31.1934   22.9229 C   0  0  0  0  0  0  0  0  0  0  0  0
  -21.7877  -29.5750   21.5648 C   0  0  0  0  0  0  0  0  0  0  0  0
  -20.7640  -27.0928   19.4582 C   0  0  0  0  0  0  0  0  0  0  0  0
  -31.2247  -19.5526   23.1302 C   0  0  0  0  0  0  0  0  0  0  0  0
  -22.9750  -34.9962   26.0809 C   0  0  0  0  0  0  0  0  0  0  0  0
  -24.8578  -31.3097   20.4792 C   0  0  0  0  0  0  0  0  0  0  0  0
  -24.0864  -28.5722   21.2891 C   0  0  0  0  0  0  0  0  0  0  0  0
  -22.3785  -33.6419   25.7064 C   0  0  0  0  0  0  0  0  0  0  0  0
  -32.6279  -16.4715   24.2323 C   0  0  0  0  0  0  0  0  0  0  0  0
  -23.4456  -32.5536   25.7666 C   0  0  0  0  0  0  0  0  0  0  0  0
  -31.8475  -15.4158   23.4458 C   0  0  0  0  0  0  0  0  0  0  0  0
  -31.7405  -17.6467   24.6389 C   0  0  0  0  0  0  0  0  0  0  0  0
  -30.2161  -17.2170   22.7519 C   0  0  0  0  0  0  0  0  0  0  0  0
  -24.5745  -32.8319   24.7669 C   0  0  1  0  0  0  0  0  0  0  0  0
  -23.7609  -31.0558   21.5086 C   0  0  1  0  0  0  0  0  0  0  0  0
  -31.0827  -16.0444   22.2644 C   0  0  2  0  0  0  0  0  0  0  0  0
  -29.1481  -18.7061   18.0487 C   0  0  0  0  0  0  0  0  0  0  0  0
  -18.6908  -25.9831   18.5819 C   0  0  0  0  0  0  0  0  0  0  0  0
  -21.4618  -28.0971   24.2142 C   0  0  0  0  0  0  0  0  0  0  0  0
  -20.0703  -26.3964   23.0145 C   0  0  0  0  0  0  0  0  0  0  0  0
  -19.3140  -28.7710   23.1245 C   0  0  0  0  0  0  0  0  0  0  0  0
  -21.3977  -27.8505   16.6683 C   0  0  0  0  0  0  0  0  0  0  0  0
  -29.4287  -20.1740   18.2895 C   0  0  0  0  0  0  0  0  0  0  0  0
  -29.9201  -27.3479   20.0641 C   0  0  0  0  0  0  0  0  0  1  0  0
  -30.6590  -26.1458   20.6197 C   0  0  0  0  0  0  0  0  0  0  0  0
  -21.2675  -28.1598   21.6405 C   0  0  1  0  0  0  0  0  0  0  0  0
  -19.7240  -27.0752   18.3525 C   0  0  2  0  0  0  0  0  0  0  0  0
  -20.5549  -27.8617   22.9898 C   0  0  0  0  0  0  0  0  0  0  0  0
  -28.9873  -14.8088   21.8594 N   0  0  0  0  0  0  0  0  0  0  0  0
  -30.2686  -15.0112   21.5082 N   0  0  0  0  0  0  0  0  0  0  0  0
  -23.1710  -29.7210   21.3884 N   0  0  0  0  0  0  0  0  0  0  0  0
  -31.0513  -18.1938   23.4683 N   0  0  0  0  0  0  0  0  0  0  0  0
  -31.9464  -14.3030   19.9936 N   0  0  0  0  0  0  0  0  0  0  0  0
  -28.3790  -11.7803   18.8509 N   0  0  0  0  0  0  0  0  0  0  0  0
  -30.5463  -19.9515   21.9790 N   0  0  0  0  0  0  0  0  0  0  0  0
  -24.1611  -32.4774   23.4260 N   0  0  0  0  0  0  0  0  0  0  0  0
  -20.4242  -27.9715   20.4650 N   0  0  0  0  0  0  0  0  0  0  0  0
  -20.3747  -26.8369   17.0331 N   0  3  0  0  0  0  0  0  0  0  0  0
  -30.5784  -12.2199   18.3731 O   0  0  0  0  0  0  0  0  0  0  0  0
  -24.6727  -30.2074   23.5145 O   0  0  0  0  0  0  0  0  0  0  0  0
  -20.9950  -30.5161   21.6515 O   0  0  0  0  0  0  0  0  0  0  0  0
  -21.7748  -26.3940   19.4331 O   0  0  0  0  0  0  0  0  0  0  0  0
  -31.9454  -20.3002   23.7963 O   0  0  0  0  0  0  0  0  0  0  0  0
  -23.3472  -11.9188   21.2378 O   0  0  0  0  0  0  0  0  0  0  0  0
  -28.5332  -27.0313   19.9516 O   0  0  0  0  0  0  0  0  0  1  0  0
  -30.5061  -25.0517   19.7237 O   0  0  0  0  0  0  0  0  0  0  0  0
  -29.0811  -20.4989   19.6336 O   0  0  0  0  0  0  0  0  0  0  0  0
  -22.6195   -6.4604   20.9550 F   0  0  0  0  0  0  0  0  0  0  0  0
  -22.1202  -10.5429   23.2979 F   0  0  0  0  0  0  0  0  0  0  0  0
  1  2  1  0  0  0  0
  1  5  2  0  0  0  0
  2  6  2  0  0  0  0
  3  9  2  0  0  0  0
  3 18  1  0  0  0  0
  4 10  1  0  0  0  0
  4 18  2  0  0  0  0
  5 20  1  0  0  0  0
  6 22  1  0  0  0  0
  7 11  2  0  0  0  0
  7 21  1  0  0  0  0
  8 12  2  0  0  0  0
  8 24  1  0  0  0  0
  9 25  1  0  0  0  0
 10 25  2  0  0  0  0
 11 26  1  0  0  0  0
 12 27  1  0  0  0  0
 13 14  2  0  0  0  0
 13 28  1  0  0  0  0
 14 30  1  0  0  0  0
 15 23  1  0  0  0  0
 15 26  2  0  0  0  0
 16 27  2  0  0  0  0
 16 29  1  0  0  0  0
 17 30  2  0  0  0  0
 17 31  1  0  0  0  0
 18 32  1  0  0  0  0
 19 32  1  0  0  0  0
 19 33  2  0  0  0  0
 19 34  1  0  0  0  0
 20 22  2  0  0  0  0
 20 39  1  0  0  0  0
 21 23  2  0  0  0  0
 21 40  1  0  0  0  0
 22 48  1  0  0  0  0
 23 41  1  0  0  0  0
 24 29  2  0  0  0  0
 24 69  1  0  0  0  0
 25 78  1  0  0  0  0
 26 79  1  0  0  0  0
 27 80  1  0  0  0  0
 28 31  2  0  0  0  0
 28 78  1  0  0  0  0
 29 81  1  0  0  0  0
 30 82  1  0  0  0  0
 31 83  1  0  0  0  0
 32 63  2  0  0  0  0
 33 64  1  0  0  0  0
 33 67  1  0  0  0  0
 34 68  1  0  0  0  0
 34 73  2  0  0  0  0
 35 49  1  0  0  0  0
 35 70  1  0  0  0  0
 35 74  2  0  0  0  0
 36 60  1  0  0  0  0
 36 65  1  0  0  0  0
 36 75  2  0  0  0  0
 37 61  1  0  0  0  0
 37 71  1  0  0  0  0
 37 76  2  0  0  0  0
 38 66  1  0  0  0  0
 38 69  1  0  0  0  0
 38 77  2  0  0  0  0
 39 42  1  0  0  0  0
 40 49  1  0  0  0  0
 41 65  1  0  0  0  0
 42 44  1  0  0  0  0
 43 45  1  0  0  0  0
 43 46  1  0  0  0  0
 44 48  1  0  0  0  0
 45 50  1  0  0  0  0
 46 66  1  0  0  0  0
 47 50  1  0  0  0  0
 47 66  1  0  0  0  0
 48 70  1  0  0  0  0
 49 65  1  0  0  0  0
 50 64  1  0  0  0  0
 51 57  1  0  0  0  0
 52 61  1  0  0  0  0
 53 62  1  0  0  0  0
 54 62  1  0  0  0  0
 55 62  1  0  0  0  0
 56 72  1  0  0  0  0
 57 81  1  0  0  0  0
 58 59  1  0  0  0  0
 58 79  1  0  0  0  0
 59 80  1  0  0  0  0
 60 62  1  0  0  0  0
 60 71  1  0  0  0  0
 61 72  1  0  0  0  0
 63 64  1  0  0  0  0
M  CHG  1  72   1
M  ISO  4  38 100  58 101  69 100  79 101
M  END
> <Batch ID>
0009

> <Smiles>
CCOc1cc(OC[101CH2:1][101O:1]c2ccc3c(c2)CN(C(=O)C(NC(=O)C(C)NC)C(C)(C)C)C(C(=O)NC2CCCc4ccccc42)C3)ccc1[100NH:0][100C:0](=O)N1CCCC(n2nc(-c3ccc(Oc4ccc(F)cc4F)cc3)c(C(N)=O)c2N)C1

> <Shape>
0.362

> <Color>
0.122

> <Negative vol penalty>
0.000

$$$$

  -OEChem-04052315383D

 88 96  0     1  0  0  0  0  0999 V2000
  -27.5944  -17.0680   41.1786 C   0  0  0  0  0  0  0  0  0  0  0  0
  -28.3953  -17.0880   40.0412 C   0  0  0  0  0  0  0  0  0  0  0  0
  -23.2000   -9.8518   19.9530 C   0  0  0  0  0  0  0  0  0  0  0  0
  -23.9116   -9.9297   22.2605 C   0  0  0  0  0  0  0  0  0  0  0  0
  -26.7474  -15.9859   41.4144 C   0  0  0  0  0  0  0  0  0  0  0  0
  -28.3505  -16.0253   39.1395 C   0  0  0  0  0  0  0  0  0  0  0  0
  -28.9635  -16.3325   33.0538 C   0  0  0  0  0  0  0  0  0  0  0  0
  -33.3880  -15.0505   24.4092 C   0  0  0  0  0  0  0  0  0  0  0  0
  -32.6189  -14.7338   23.2894 C   0  0  0  0  0  0  0  0  0  0  0  0
  -22.5076   -8.6678   20.2064 C   0  0  0  0  0  0  0  0  0  0  0  0
  -23.2192   -8.7457   22.5140 C   0  0  0  0  0  0  0  0  0  0  0  0
  -30.0475  -16.1035   32.2076 C   0  0  0  0  0  0  0  0  0  0  0  0
  -21.3415   -5.9357   23.8544 C   0  0  0  0  0  0  0  0  0  0  0  0
  -20.5644   -5.8729   25.0110 C   0  0  0  0  0  0  0  0  0  0  0  0
  -29.2715  -13.8503   31.8333 C   0  0  0  0  0  0  0  0  0  0  0  0
  -31.3906  -15.7207   25.5916 C   0  0  0  0  0  0  0  0  0  0  0  0
  -19.2432   -7.7364   24.2245 C   0  0  0  0  0  0  0  0  0  0  0  0
  -23.9020  -10.4827   20.9800 C   0  0  0  0  0  0  0  0  0  0  0  0
  -24.1242  -13.0194   20.8268 C   0  0  0  0  0  0  0  0  0  0  0  0
  -26.6851  -14.9139   40.5102 C   0  0  0  0  0  0  0  0  0  0  0  0
  -28.0297  -15.3170   33.3052 C   0  0  0  0  0  0  0  0  0  0  0  0
  -27.5029  -14.9272   39.3641 C   0  0  0  0  0  0  0  0  0  0  0  0
  -28.1751  -14.0698   32.6812 C   0  0  0  0  0  0  0  0  0  0  0  0
  -32.7738  -15.5439   25.5603 C   0  0  0  0  0  0  0  0  0  0  0  0
  -31.2357  -14.9106   23.3207 C   0  0  0  0  0  0  0  0  0  0  0  0
  -22.5171   -8.1147   21.4869 C   0  0  0  0  0  0  0  0  0  0  0  0
  -30.2032  -14.8613   31.5994 C   0  0  0  0  0  0  0  0  0  0  0  0
  -21.0695   -6.8989   22.8828 C   0  0  0  0  0  0  0  0  0  0  0  0
  -30.6214  -15.4040   24.4718 C   0  0  0  0  0  0  0  0  0  0  0  0
  -19.5153   -6.7732   25.1961 C   0  0  0  0  0  0  0  0  0  0  0  0
  -20.0203   -7.7992   23.0679 C   0  0  0  0  0  0  0  0  0  0  0  0
  -24.6179  -11.7056   20.7186 C   0  0  0  0  0  0  0  0  0  0  0  0
  -25.1861  -13.8155   20.4733 C   0  0  0  0  0  0  0  0  0  0  0  0
  -22.8220  -13.4792   21.2124 C   0  0  0  0  0  0  0  0  0  0  0  0
  -27.0789  -13.7345   35.8927 C   0  0  0  0  0  0  0  0  0  0  0  0
  -24.8982  -12.4782   33.8461 C   0  0  0  0  0  0  0  0  0  0  0  0
  -24.0429  -11.7213   30.6301 C   0  0  0  0  0  0  0  0  0  0  0  0
  -30.9352  -14.0841   20.9600 C   0  0  0  0  0  0  0  0  0  0  0  0
  -25.7890  -13.7441   40.8317 C   0  0  0  0  0  0  0  0  0  0  0  0
  -26.8513  -15.5885   34.1996 C   0  0  0  0  0  0  0  0  0  0  0  0
  -27.1893  -12.9527   32.9022 C   0  0  0  0  0  0  0  0  0  0  0  0
  -25.5245  -12.8327   39.6361 C   0  0  0  0  0  0  0  0  0  0  0  0
  -29.3635  -13.1192   17.9143 C   0  0  0  0  0  0  0  0  0  0  0  0
  -26.8255  -12.5245   38.9017 C   0  0  0  0  0  0  0  0  0  0  0  0
  -27.9309  -12.7844   18.3358 C   0  0  0  0  0  0  0  0  0  0  0  0
  -30.3797  -12.6974   18.9741 C   0  0  0  0  0  0  0  0  0  0  0  0
  -28.6790  -12.8672   20.7484 C   0  0  0  0  0  0  0  0  0  0  0  0
  -27.4642  -13.8047   38.3499 C   0  0  1  0  0  0  0  0  0  0  0  0
  -26.2437  -14.3194   34.7891 C   0  0  1  0  0  0  0  0  0  0  0  0
  -27.6144  -13.3321   19.7414 C   0  0  2  0  0  0  0  0  0  0  0  0
  -22.2146  -10.6639   29.2748 C   0  0  0  0  0  0  0  0  0  0  0  0
  -25.8385   -9.7157   34.7373 C   0  0  0  0  0  0  0  0  0  0  0  0
  -24.7007   -8.7557   32.7244 C   0  0  0  0  0  0  0  0  0  0  0  0
  -23.3623   -9.9376   34.4663 C   0  0  0  0  0  0  0  0  0  0  0  0
  -34.9987  -15.6751   26.6524 C   0  0  0  0  0  0  0  0  0  0  0  0
  -23.5470  -14.2249   29.1318 C   0  0  0  0  0  0  0  0  0  0  0  0
  -28.0900  -12.6171   25.7089 C   0  0  0  0  0  0  0  0  0  0  0  0
  -25.8633  -13.0808   24.6951 C   0  0  0  0  0  0  0  0  0  0  0  0
  -32.3821  -15.2602   28.7460 C   0  0  0  0  0  0  0  0  0  0  0  0
  -32.9458  -16.3868   27.8884 C   0  0  0  0  0  0  0  0  0  0  0  0
  -27.2256  -14.9508   25.6161 C   0  0  0  0  0  0  0  0  0  0  0  0
  -31.7736  -15.7548   30.0530 C   0  0  0  0  0  0  0  0  0  1  0  0
  -28.6479  -15.4425   25.7983 C   0  0  0  0  0  0  0  0  0  0  0  0
  -24.8580  -11.2783   32.9309 C   0  0  1  0  0  0  0  0  0  0  0  0
  -22.7666  -11.9616   29.8441 C   0  0  2  0  0  0  0  0  0  0  0  0
  -24.7097   -9.9421   33.7119 C   0  0  0  0  0  0  0  0  0  0  0  0
  -25.8942  -11.6650   20.3269 N   0  0  0  0  0  0  0  0  0  0  0  0
  -26.2114  -12.9633   20.1857 N   0  0  0  0  0  0  0  0  0  0  0  0
  -26.0573  -13.2651   33.7901 N   0  0  0  0  0  0  0  0  0  0  0  0
  -30.0178  -13.2566   20.2784 N   0  0  0  0  0  0  0  0  0  0  0  0
  -25.3336  -15.1544   20.3833 N   0  0  0  0  0  0  0  0  0  0  0  0
  -21.8484  -12.5271   21.5440 N   0  0  0  0  0  0  0  0  0  0  0  0
  -30.4682  -14.5839   22.1753 N   0  0  0  0  0  0  0  0  0  0  0  0
  -26.7819  -14.2321   37.1472 N   0  0  0  0  0  0  0  0  0  0  0  0
  -23.7882  -11.5319   31.9720 N   0  0  0  0  0  0  0  0  0  0  0  0
  -33.5469  -15.8617   26.6862 N   0  0  3  0  0  0  0  0  0  0  0  0
  -23.0229  -12.8990   28.7142 N   0  3  0  0  0  0  0  0  0  0  0  0
  -27.2476  -13.6195   24.9593 N   0  3  0  0  0  0  0  0  0  0  0  0
  -22.5256  -14.6976   21.2455 O   0  0  0  0  0  0  0  0  0  0  0  0
  -27.9288  -12.8929   35.6261 O   0  0  0  0  0  0  0  0  0  0  0  0
  -23.9336  -12.7129   34.5783 O   0  0  0  0  0  0  0  0  0  0  0  0
  -25.1541  -11.6998   30.1056 O   0  0  0  0  0  0  0  0  0  0  0  0
  -32.0422  -14.3532   20.4867 O   0  0  0  0  0  0  0  0  0  0  0  0
  -21.8414   -6.9595   21.7347 O   0  0  0  0  0  0  0  0  0  0  0  0
  -31.2608  -14.6349   30.7734 O   0  0  0  0  0  0  0  0  0  1  0  0
  -29.2711  -15.5839   24.5237 O   0  0  0  0  0  0  0  0  0  0  0  0
  -18.7681   -6.7118   26.3061 F   0  0  0  0  0  0  0  0  0  0  0  0
  -19.7534   -8.7261   22.1375 F   0  0  0  0  0  0  0  0  0  0  0  0
  1  2  1  0  0  0  0
  1  5  2  0  0  0  0
  2  6  2  0  0  0  0
  3 10  2  0  0  0  0
  3 18  1  0  0  0  0
  4 11  1  0  0  0  0
  4 18  2  0  0  0  0
  5 20  1  0  0  0  0
  6 22  1  0  0  0  0
  7 12  2  0  0  0  0
  7 21  1  0  0  0  0
  8  9  2  0  0  0  0
  8 24  1  0  0  0  0
  9 25  1  0  0  0  0
 10 26  1  0  0  0  0
 11 26  2  0  0  0  0
 12 27  1  0  0  0  0
 13 14  2  0  0  0  0
 13 28  1  0  0  0  0
 14 30  1  0  0  0  0
 15 23  1  0  0  0  0
 15 27  2  0  0  0  0
 16 24  2  0  0  0  0
 16 29  1  0  0  0  0
 17 30  2  0  0  0  0
 17 31  1  0  0  0  0
 18 32  1  0  0  0  0
 19 32  1  0  0  0  0
 19 33  2  0  0  0  0
 19 34  1  0  0  0  0
 20 22  2  0  0  0  0
 20 39  1  0  0  0  0
 21 23  2  0  0  0  0
 21 40  1  0  0  0  0
 22 48  1  0  0  0  0
 23 41  1  0  0  0  0
 24 76  1  0  0  0  0
 25 29  2  0  0  0  0
 25 73  1  0  0  0  0
 26 84  1  0  0  0  0
 27 85  1  0  0  0  0
 28 31  2  0  0  0  0
 28 84  1  0  0  0  0
 29 86  1  0  0  0  0
 30 87  1  0  0  0  0
 31 88  1  0  0  0  0
 32 67  2  0  0  0  0
 33 68  1  0  0  0  0
 33 71  1  0  0  0  0
 34 72  1  0  0  0  0
 34 79  2  0  0  0  0
 35 49  1  0  0  0  0
 35 74  1  0  0  0  0
 35 80  2  0  0  0  0
 36 64  1  0  0  0  0
 36 69  1  0  0  0  0
 36 81  2  0  0  0  0
 37 65  1  0  0  0  0
 37 75  1  0  0  0  0
 37 82  2  0  0  0  0
 38 70  1  0  0  0  0
 38 73  1  0  0  0  0
 38 83  2  0  0  0  0
 39 42  1  0  0  0  0
 40 49  1  0  0  0  0
 41 69  1  0  0  0  0
 42 44  1  0  0  0  0
 43 45  1  0  0  0  0
 43 46  1  0  0  0  0
 44 48  1  0  0  0  0
 45 50  1  0  0  0  0
 46 70  1  0  0  0  0
 47 50  1  0  0  0  0
 47 70  1  0  0  0  0
 48 74  1  0  0  0  0
 49 69  1  0  0  0  0
 50 68  1  0  0  0  0
 51 65  1  0  0  0  0
 52 66  1  0  0  0  0
 53 66  1  0  0  0  0
 54 66  1  0  0  0  0
 55 76  1  0  0  0  0
 56 77  1  0  0  0  0
 57 78  1  0  0  0  0
 58 78  1  0  0  0  0
 59 60  1  0  0  0  0
 59 62  1  0  0  0  0
 60 76  1  0  0  0  0
 61 63  1  0  0  0  0
 61 78  1  0  0  0  0
 62 85  1  0  0  0  0
 63 86  1  0  0  0  0
 64 66  1  0  0  0  0
 64 75  1  0  0  0  0
 65 77  1  0  0  0  0
 67 68  1  0  0  0  0
M  CHG  2  77   1  78   1
M  ISO  4  38 100  62 101  73 100  85 101
M  END
> <Batch ID>
0009

> <Smiles>
CNC(C)C(=O)NC(C(=O)N1Cc2cc([101O:1][101CH2:1]CCN(C)c3ccc([100NH:0][100C:0](=O)N4CCCC(n5nc(-c6ccc(Oc7ccc(F)cc7F)cc6)c(C(N)=O)c5N)C4)c(OCCN(C)C)c3)ccc2CC1C(=O)NC1CCCc2ccccc21)C(C)(C)C

> <Shape>
0.145

> <Color>
0.182

> <Negative vol penalty>
0.000

$$$$

  -OEChem-04052315383D

 81 89  0     1  0  0  0  0  0999 V2000
  -17.7155  -33.3419   18.0836 C   0  0  0  0  0  0  0  0  0  0  0  0
  -18.9138  -32.9824   17.4751 C   0  0  0  0  0  0  0  0  0  0  0  0
  -24.8012  -10.2786   22.6259 C   0  0  0  0  0  0  0  0  0  0  0  0
  -24.4888  -11.7693   24.5013 C   0  0  0  0  0  0  0  0  0  0  0  0
  -17.7254  -33.9232   19.3508 C   0  0  0  0  0  0  0  0  0  0  0  0
  -20.1229  -33.2051   18.1332 C   0  0  0  0  0  0  0  0  0  0  0  0
  -24.6112  -27.7615   19.5870 C   0  0  0  0  0  0  0  0  0  0  0  0
  -29.5131  -20.7821   21.9189 C   0  0  0  0  0  0  0  0  0  0  0  0
  -24.3855   -9.2034   23.4112 C   0  0  0  0  0  0  0  0  0  0  0  0
  -24.0729  -10.6941   25.2866 C   0  0  0  0  0  0  0  0  0  0  0  0
  -25.6185  -26.8047   19.7133 C   0  0  0  0  0  0  0  0  0  0  0  0
  -29.3851  -22.1504   22.1577 C   0  0  0  0  0  0  0  0  0  0  0  0
  -21.4645   -7.9153   24.5255 C   0  0  0  0  0  0  0  0  0  0  0  0
  -20.5567   -7.0164   23.9656 C   0  0  0  0  0  0  0  0  0  0  0  0
  -27.0248  -28.4182   20.8389 C   0  0  0  0  0  0  0  0  0  0  0  0
  -27.1423  -20.6374   21.4769 C   0  0  0  0  0  0  0  0  0  0  0  0
  -22.1505   -5.2245   24.2582 C   0  0  0  0  0  0  0  0  0  0  0  0
  -24.8529  -11.5615   23.1710 C   0  0  0  0  0  0  0  0  0  0  0  0
  -24.4755  -13.5061   21.5635 C   0  0  0  0  0  0  0  0  0  0  0  0
  -18.9346  -34.1443   20.0288 C   0  0  0  0  0  0  0  0  0  0  0  0
  -24.8012  -29.0475   20.1004 C   0  0  0  0  0  0  0  0  0  0  0  0
  -20.1490  -33.7912   19.4101 C   0  0  0  0  0  0  0  0  0  0  0  0
  -26.0146  -29.3772   20.7264 C   0  0  0  0  0  0  0  0  0  0  0  0
  -28.3917  -20.0256   21.5784 C   0  0  0  0  0  0  0  0  0  0  0  0
  -24.0213   -9.4111   24.7416 C   0  0  0  0  0  0  0  0  0  0  0  0
  -26.8224  -27.1323   20.3375 C   0  0  0  0  0  0  0  0  0  0  0  0
  -22.7154   -7.4688   24.9517 C   0  0  0  0  0  0  0  0  0  0  0  0
  -28.1357  -22.7621   22.0562 C   0  0  0  0  0  0  0  0  0  0  0  0
  -20.8997   -5.6710   23.8320 C   0  0  0  0  0  0  0  0  0  0  0  0
  -27.0143  -22.0057   21.7158 C   0  0  0  0  0  0  0  0  0  0  0  0
  -23.0584   -6.1234   24.8181 C   0  0  0  0  0  0  0  0  0  0  0  0
  -25.2829  -12.6725   22.3604 C   0  0  0  0  0  0  0  0  0  0  0  0
  -25.3542  -14.3993   21.0010 C   0  0  0  0  0  0  0  0  0  0  0  0
  -23.0579  -13.4758   21.3509 C   0  0  0  0  0  0  0  0  0  0  0  0
  -23.3724  -32.4735   20.6455 C   0  0  0  0  0  0  0  0  0  0  0  0
  -24.8881  -31.7227   23.2046 C   0  0  0  0  0  0  0  0  0  0  0  0
  -26.3005  -30.3471   25.9886 C   0  0  0  0  0  0  0  0  0  0  0  0
  -29.6878  -17.8733   21.3941 C   0  0  0  0  0  0  0  0  0  0  0  0
  -18.8980  -34.8190   21.3772 C   0  0  0  0  0  0  0  0  0  0  0  0
  -23.7676  -30.1278   19.9324 C   0  0  0  0  0  0  0  0  0  0  0  0
  -26.1880  -30.7830   21.2329 C   0  0  0  0  0  0  0  0  0  0  0  0
  -20.1981  -34.6777   22.1645 C   0  0  0  0  0  0  0  0  0  0  0  0
  -30.4150  -14.4228   20.9013 C   0  0  0  0  0  0  0  0  0  0  0  0
  -21.3979  -34.9814   21.2727 C   0  0  0  0  0  0  0  0  0  0  0  0
  -29.0782  -13.7284   21.1714 C   0  0  0  0  0  0  0  0  0  0  0  0
  -30.6319  -15.6163   21.8299 C   0  0  0  0  0  0  0  0  0  0  0  0
  -28.2019  -15.9022   22.1169 C   0  0  0  0  0  0  0  0  0  0  0  0
  -21.4794  -33.9940   20.1023 C   0  0  1  0  0  0  0  0  0  0  0  0
  -23.7025  -31.0923   21.1301 C   0  0  1  0  0  0  0  0  0  0  0  0
  -27.9093  -14.7331   21.1623 C   0  0  2  0  0  0  0  0  0  0  0  0
  -26.8460  -30.8668   28.3823 C   0  0  0  0  0  0  0  0  0  0  0  0
  -27.2368  -33.4417   22.2923 C   0  0  0  0  0  0  0  0  0  0  0  0
  -28.2509  -33.1347   24.5607 C   0  0  0  0  0  0  0  0  0  0  0  0
  -26.0517  -34.2882   24.3254 C   0  0  0  0  0  0  0  0  0  0  0  0
  -24.5818  -28.1504   26.9783 C   0  0  0  0  0  0  0  0  0  0  0  0
  -28.6649  -26.3010   21.5911 C   0  0  0  0  0  0  0  0  0  1  0  0
  -29.1408  -24.9163   21.9857 C   0  0  0  0  0  0  0  0  0  0  0  0
  -26.1840  -31.7882   23.9726 C   0  0  1  0  0  0  0  0  0  0  0  0
  -25.8232  -30.2708   27.4276 C   0  0  2  0  0  0  0  0  0  0  0  0
  -26.9242  -33.1407   23.7717 C   0  0  0  0  0  0  0  0  0  0  0  0
  -26.5752  -13.0063   22.3111 N   0  0  0  0  0  0  0  0  0  0  0  0
  -26.5866  -14.0595   21.4764 N   0  0  0  0  0  0  0  0  0  0  0  0
  -24.9536  -31.2347   21.8939 N   0  0  0  0  0  0  0  0  0  0  0  0
  -29.4868  -16.5270   21.7655 N   0  0  0  0  0  0  0  0  0  0  0  0
  -25.1853  -15.4344   20.1511 N   0  0  0  0  0  0  0  0  0  0  0  0
  -22.3048  -12.4921   22.0063 N   0  0  0  0  0  0  0  0  0  0  0  0
  -28.5216  -18.6356   21.3358 N   0  0  0  0  0  0  0  0  0  0  0  0
  -22.0175  -32.7263   20.5470 N   0  0  0  0  0  0  0  0  0  0  0  0
  -25.8510  -31.4898   25.3613 N   0  0  0  0  0  0  0  0  0  0  0  0
  -25.5846  -28.8529   27.8197 N   0  3  0  0  0  0  0  0  0  0  0  0
  -22.4784  -14.2864   20.5889 O   0  0  0  0  0  0  0  0  0  0  0  0
  -24.2795  -33.2539   20.3813 O   0  0  0  0  0  0  0  0  0  0  0  0
  -23.8455  -32.0986   23.7477 O   0  0  0  0  0  0  0  0  0  0  0  0
  -27.0049  -29.4816   25.4736 O   0  0  0  0  0  0  0  0  0  0  0  0
  -30.8084  -18.3104   21.1197 O   0  0  0  0  0  0  0  0  0  0  0  0
  -23.6153   -8.3622   25.5081 O   0  0  0  0  0  0  0  0  0  0  0  0
  -27.7998  -26.1921   20.4615 O   0  0  0  0  0  0  0  0  0  1  0  0
  -28.0119  -24.1064   22.2905 O   0  0  0  0  0  0  0  0  0  0  0  0
  -20.0272   -4.8077   23.2957 F   0  0  0  0  0  0  0  0  0  0  0  0
  -25.8115  -22.5881   21.6156 F   0  0  0  0  0  0  0  0  0  0  0  0
  -24.2582   -5.6883   25.2268 F   0  0  0  0  0  0  0  0  0  0  0  0
  1  2  1  0  0  0  0
  1  5  2  0  0  0  0
  2  6  2  0  0  0  0
  3  9  2  0  0  0  0
  3 18  1  0  0  0  0
  4 10  1  0  0  0  0
  4 18  2  0  0  0  0
  5 20  1  0  0  0  0
  6 22  1  0  0  0  0
  7 11  2  0  0  0  0
  7 21  1  0  0  0  0
  8 12  2  0  0  0  0
  8 24  1  0  0  0  0
  9 25  1  0  0  0  0
 10 25  2  0  0  0  0
 11 26  1  0  0  0  0
 12 28  1  0  0  0  0
 13 14  2  0  0  0  0
 13 27  1  0  0  0  0
 14 29  1  0  0  0  0
 15 23  1  0  0  0  0
 15 26  2  0  0  0  0
 16 24  2  0  0  0  0
 16 30  1  0  0  0  0
 17 29  2  0  0  0  0
 17 31  1  0  0  0  0
 18 32  1  0  0  0  0
 19 32  1  0  0  0  0
 19 33  2  0  0  0  0
 19 34  1  0  0  0  0
 20 22  2  0  0  0  0
 20 39  1  0  0  0  0
 21 23  2  0  0  0  0
 21 40  1  0  0  0  0
 22 48  1  0  0  0  0
 23 41  1  0  0  0  0
 24 67  1  0  0  0  0
 25 76  1  0  0  0  0
 26 77  1  0  0  0  0
 27 31  2  0  0  0  0
 27 76  1  0  0  0  0
 28 30  2  0  0  0  0
 28 78  1  0  0  0  0
 29 79  1  0  0  0  0
 30 80  1  0  0  0  0
 31 81  1  0  0  0  0
 32 61  2  0  0  0  0
 33 62  1  0  0  0  0
 33 65  1  0  0  0  0
 34 66  1  0  0  0  0
 34 71  2  0  0  0  0
 35 49  1  0  0  0  0
 35 68  1  0  0  0  0
 35 72  2  0  0  0  0
 36 58  1  0  0  0  0
 36 63  1  0  0  0  0
 36 73  2  0  0  0  0
 37 59  1  0  0  0  0
 37 69  1  0  0  0  0
 37 74  2  0  0  0  0
 38 64  1  0  0  0  0
 38 67  1  0  0  0  0
 38 75  2  0  0  0  0
 39 42  1  0  0  0  0
 40 49  1  0  0  0  0
 41 63  1  0  0  0  0
 42 44  1  0  0  0  0
 43 45  1  0  0  0  0
 43 46  1  0  0  0  0
 44 48  1  0  0  0  0
 45 50  1  0  0  0  0
 46 64  1  0  0  0  0
 47 50  1  0  0  0  0
 47 64  1  0  0  0  0
 48 68  1  0  0  0  0
 49 63  1  0  0  0  0
 50 62  1  0  0  0  0
 51 59  1  0  0  0  0
 52 60  1  0  0  0  0
 53 60  1  0  0  0  0
 54 60  1  0  0  0  0
 55 70  1  0  0  0  0
 56 57  1  0  0  0  0
 56 77  1  0  0  0  0
 57 78  1  0  0  0  0
 58 60  1  0  0  0  0
 58 69  1  0  0  0  0
 59 70  1  0  0  0  0
 61 62  1  0  0  0  0
M  CHG  1  70   1
M  ISO  4  38 100  56 101  67 100  77 101
M  END
> <Batch ID>
0009

> <Smiles>
CNC(C)C(=O)NC(C(=O)N1Cc2cc([101O:1][101CH2:1]COc3ccc([100NH:0][100C:0](=O)N4CCCC(n5nc(-c6ccc(Oc7ccc(F)cc7F)cc6)c(C(N)=O)c5N)C4)cc3F)ccc2CC1C(=O)NC1CCCc2ccccc21)C(C)(C)C

> <Shape>
0.265

> <Color>
0.145

> <Negative vol penalty>
0.000

$$$$

  -OEChem-04052315383D

 82 90  0     1  0  0  0  0  0999 V2000
  -18.0396  -32.9744   23.5830 C   0  0  0  0  0  0  0  0  0  0  0  0
  -19.2356  -33.1450   22.8931 C   0  0  0  0  0  0  0  0  0  0  0  0
  -25.6284  -12.7824   19.6758 C   0  0  0  0  0  0  0  0  0  0  0  0
  -25.0070  -13.9902   21.6739 C   0  0  0  0  0  0  0  0  0  0  0  0
  -17.8621  -31.8611   24.4033 C   0  0  0  0  0  0  0  0  0  0  0  0
  -20.2551  -32.2028   23.0239 C   0  0  0  0  0  0  0  0  0  0  0  0
  -25.5744  -29.1792   19.2983 C   0  0  0  0  0  0  0  0  0  0  0  0
  -29.6415  -27.9200   23.7565 C   0  0  0  0  0  0  0  0  0  0  0  0
  -25.3224  -11.5777   20.3088 C   0  0  0  0  0  0  0  0  0  0  0  0
  -24.7009  -12.7855   22.3069 C   0  0  0  0  0  0  0  0  0  0  0  0
  -26.9429  -28.9272   19.3857 C   0  0  0  0  0  0  0  0  0  0  0  0
  -29.1294  -28.2115   22.4922 C   0  0  0  0  0  0  0  0  0  0  0  0
  -24.3618   -8.2082   21.2775 C   0  0  0  0  0  0  0  0  0  0  0  0
  -23.6236   -7.2675   20.5593 C   0  0  0  0  0  0  0  0  0  0  0  0
  -26.4941  -27.0025   20.7688 C   0  0  0  0  0  0  0  0  0  0  0  0
  -30.4060  -25.7740   22.9521 C   0  0  0  0  0  0  0  0  0  0  0  0
  -21.8124   -8.8521   20.3454 C   0  0  0  0  0  0  0  0  0  0  0  0
  -25.4708  -13.9887   20.3584 C   0  0  0  0  0  0  0  0  0  0  0  0
  -24.9182  -16.0407   18.9472 C   0  0  0  0  0  0  0  0  0  0  0  0
  -18.8763  -30.8998   24.5367 C   0  0  0  0  0  0  0  0  0  0  0  0
  -24.6546  -28.3497   19.9557 C   0  0  0  0  0  0  0  0  0  0  0  0
  -20.0915  -31.0762   23.8478 C   0  0  0  0  0  0  0  0  0  0  0  0
  -25.1143  -27.2446   20.6861 C   0  0  0  0  0  0  0  0  0  0  0  0
  -30.2797  -26.7013   23.9865 C   0  0  0  0  0  0  0  0  0  0  0  0
  -29.8940  -26.0655   21.6878 C   0  0  0  0  0  0  0  0  0  0  0  0
  -24.8586  -11.5793   21.6243 C   0  0  0  0  0  0  0  0  0  0  0  0
  -27.4030  -27.8405   20.1234 C   0  0  0  0  0  0  0  0  0  0  0  0
  -29.2557  -27.2842   21.4578 C   0  0  0  0  0  0  0  0  0  1  0  0
  -23.8252   -9.4708   21.5297 C   0  0  0  0  0  0  0  0  0  0  0  0
  -22.3490   -7.5894   20.0932 C   0  0  0  0  0  0  0  0  0  0  0  0
  -22.5506   -9.7928   21.0636 C   0  0  0  0  0  0  0  0  0  0  0  0
  -25.7873  -15.2334   19.7052 C   0  0  0  0  0  0  0  0  0  0  0  0
  -25.6947  -17.1012   18.5486 C   0  0  0  0  0  0  0  0  0  0  0  0
  -23.5328  -15.8491   18.6315 C   0  0  0  0  0  0  0  0  0  0  0  0
  -22.4968  -28.7698   22.2516 C   0  0  0  0  0  0  0  0  0  0  0  0
  -21.7246  -25.6983   21.5505 C   0  0  0  0  0  0  0  0  0  0  0  0
  -30.6304  -23.8609   20.7179 C   0  0  0  0  0  0  0  0  0  0  0  0
  -22.6910  -22.6900   20.2609 C   0  0  0  0  0  0  0  0  0  0  0  0
  -29.3240  -21.0340   19.6923 C   0  0  0  0  0  0  0  0  0  0  0  0
  -18.6562  -29.7373   25.4720 C   0  0  0  0  0  0  0  0  0  0  0  0
  -23.1802  -28.6194   19.8296 C   0  0  0  0  0  0  0  0  0  0  0  0
  -24.1668  -26.3119   21.3937 C   0  0  0  0  0  0  0  0  0  0  0  0
  -19.6438  -28.5921   25.2633 C   0  0  0  0  0  0  0  0  0  0  0  0
  -30.6976  -17.8037   18.8115 C   0  0  0  0  0  0  0  0  0  0  0  0
  -21.0673  -29.1285   25.1516 C   0  0  0  0  0  0  0  0  0  0  0  0
  -29.4589  -16.9109   18.9047 C   0  0  0  0  0  0  0  0  0  0  0  0
  -30.6925  -18.8716   19.9014 C   0  0  0  0  0  0  0  0  0  0  0  0
  -28.2310  -18.8334   20.0165 C   0  0  0  0  0  0  0  0  0  0  0  0
  -21.2116  -30.0632   23.9446 C   0  0  1  0  0  0  0  0  0  0  0  0
  -22.3619  -28.0088   20.9631 C   0  0  1  0  0  0  0  0  0  0  0  0
  -28.1658  -17.7472   18.9275 C   0  0  2  0  0  0  0  0  0  0  0  0
  -21.8542  -20.3584   19.8597 C   0  0  0  0  0  0  0  0  0  0  0  0
  -22.0749  -25.0652   24.5146 C   0  0  0  0  0  0  0  0  0  0  0  0
  -22.1704  -22.6367   23.9132 C   0  0  0  0  0  0  0  0  0  0  0  0
  -20.1087  -23.9577   23.4366 C   0  0  0  0  0  0  0  0  0  0  0  0
  -23.0395  -22.9443   17.3329 C   0  0  0  0  0  0  0  0  0  0  0  0
  -30.5575  -23.1631   19.3721 C   0  0  0  0  0  0  0  0  0  0  0  0
  -22.1791  -24.3437   22.0378 C   0  0  1  0  0  0  0  0  0  0  0  0
  -22.0163  -21.7530   19.2753 C   0  0  2  0  0  0  0  0  0  0  0  0
  -21.6515  -24.0194   23.4640 C   0  0  0  0  0  0  0  0  0  0  0  0
  -27.0215  -15.7377   19.7848 N   0  0  0  0  0  0  0  0  0  0  0  0
  -26.9336  -16.8733   19.0716 N   0  0  0  0  0  0  0  0  0  0  0  0
  -22.7351  -26.6213   21.2457 N   0  0  0  0  0  0  0  0  0  0  0  0
  -29.4429  -19.6440   19.8566 N   0  0  0  0  0  0  0  0  0  0  0  0
  -30.7972  -26.4071   25.2651 N   0  0  0  0  0  0  0  0  0  0  0  0
  -25.4318  -18.1970   17.8053 N   0  0  0  0  0  0  0  0  0  0  0  0
  -22.8879  -14.7053   19.1214 N   0  0  0  0  0  0  0  0  0  0  0  0
  -30.0271  -25.1267   20.6620 N   0  0  0  0  0  0  0  0  0  0  0  0
  -21.3088  -29.2970   22.7207 N   0  0  0  0  0  0  0  0  0  0  0  0
  -21.7708  -23.3846   21.0172 N   0  0  0  0  0  0  0  0  0  0  0  0
  -30.5192  -21.7291   19.5547 N   0  0  0  0  0  0  0  0  0  0  0  0
  -22.8216  -21.6483   18.0257 N   0  3  0  0  0  0  0  0  0  0  0  0
  -22.8902  -16.6597   17.9219 O   0  0  0  0  0  0  0  0  0  0  0  0
  -23.5971  -28.8700   22.7818 O   0  0  0  0  0  0  0  0  0  0  0  0
  -20.5177  -25.9266   21.4373 O   0  0  0  0  0  0  0  0  0  0  0  0
  -31.1315  -23.3285   21.7032 O   0  0  0  0  0  0  0  0  0  0  0  0
  -23.9123  -22.7926   20.3533 O   0  0  0  0  0  0  0  0  0  0  0  0
  -28.2325  -21.6128   19.6648 O   0  0  0  0  0  0  0  0  0  0  0  0
  -24.5596  -10.4039   22.2422 O   0  0  0  0  0  0  0  0  0  0  0  0
  -28.7383  -27.5926   20.2108 O   0  0  0  0  0  0  0  0  0  1  0  0
  -21.6409   -6.6865   19.4022 F   0  0  0  0  0  0  0  0  0  0  0  0
  -22.0303  -11.0045   21.3017 F   0  0  0  0  0  0  0  0  0  0  0  0
  1  2  1  0  0  0  0
  1  5  2  0  0  0  0
  2  6  2  0  0  0  0
  3  9  2  0  0  0  0
  3 18  1  0  0  0  0
  4 10  1  0  0  0  0
  4 18  2  0  0  0  0
  5 20  1  0  0  0  0
  6 22  1  0  0  0  0
  7 11  2  0  0  0  0
  7 21  1  0  0  0  0
  8 12  2  0  0  0  0
  8 24  1  0  0  0  0
  9 26  1  0  0  0  0
 10 26  2  0  0  0  0
 11 27  1  0  0  0  0
 12 28  1  0  0  0  0
 13 14  2  0  0  0  0
 13 29  1  0  0  0  0
 14 30  1  0  0  0  0
 15 23  1  0  0  0  0
 15 27  2  0  0  0  0
 16 24  2  0  0  0  0
 16 25  1  0  0  0  0
 17 30  2  0  0  0  0
 17 31  1  0  0  0  0
 18 32  1  0  0  0  0
 19 32  1  0  0  0  0
 19 33  2  0  0  0  0
 19 34  1  0  0  0  0
 20 22  2  0  0  0  0
 20 40  1  0  0  0  0
 21 23  2  0  0  0  0
 21 41  1  0  0  0  0
 22 49  1  0  0  0  0
 23 42  1  0  0  0  0
 24 65  1  0  0  0  0
 25 28  2  0  0  0  0
 25 68  1  0  0  0  0
 26 79  1  0  0  0  0
 27 80  1  0  0  0  0
 28 80  1  0  0  0  0
 29 31  2  0  0  0  0
 29 79  1  0  0  0  0
 30 81  1  0  0  0  0
 31 82  1  0  0  0  0
 32 61  2  0  0  0  0
 33 62  1  0  0  0  0
 33 66  1  0  0  0  0
 34 67  1  0  0  0  0
 34 73  2  0  0  0  0
 35 50  1  0  0  0  0
 35 69  1  0  0  0  0
 35 74  2  0  0  0  0
 36 58  1  0  0  0  0
 36 63  1  0  0  0  0
 36 75  2  0  0  0  0
 37 57  1  0  0  0  0
 37 68  1  0  0  0  0
 37 76  2  0  0  0  0
 38 59  1  0  0  0  0
 38 70  1  0  0  0  0
 38 77  2  0  0  0  0
 39 64  1  0  0  0  0
 39 71  1  0  0  0  0
 39 78  2  0  0  0  0
 40 43  1  0  0  0  0
 41 50  1  0  0  0  0
 42 63  1  0  0  0  0
 43 45  1  0  0  0  0
 44 46  1  0  0  0  0
 44 47  1  0  0  0  0
 45 49  1  0  0  0  0
 46 51  1  0  0  0  0
 47 64  1  0  0  0  0
 48 51  1  0  0  0  0
 48 64  1  0  0  0  0
 49 69  1  0  0  0  0
 50 63  1  0  0  0  0
 51 62  1  0  0  0  0
 52 59  1  0  0  0  0
 53 60  1  0  0  0  0
 54 60  1  0  0  0  0
 55 60  1  0  0  0  0
 56 72  1  0  0  0  0
 57 71  1  0  0  0  0
 58 60  1  0  0  0  0
 58 70  1  0  0  0  0
 59 72  1  0  0  0  0
 61 62  1  0  0  0  0
M  CHG  1  72   1
M  ISO  4  28 101  39 100  71 100  80 101
M  END
> <Batch ID>
0009

> <Smiles>
CNC(C)C(=O)NC(C(=O)N1Cc2cc([101O:1][101c:1]3ccc(N)cc3NC(=O)C[100NH:0][100C:0](=O)N3CCCC(n4nc(-c5ccc(Oc6ccc(F)cc6F)cc5)c(C(N)=O)c4N)C3)ccc2CC1C(=O)NC1CCCc2ccccc21)C(C)(C)C

> <Shape>
0.229

> <Color>
0.085

> <Negative vol penalty>
0.000

$$$$

  -OEChem-04052315383D

 87 95  0     1  0  0  0  0  0999 V2000
  -18.1020  -23.6959   23.1363 C   0  0  0  0  0  0  0  0  0  0  0  0
  -18.8061  -23.4200   21.9686 C   0  0  0  0  0  0  0  0  0  0  0  0
  -30.4608  -24.8809   16.4738 C   0  0  0  0  0  0  0  0  0  0  0  0
  -25.5928  -14.2120   21.4389 C   0  0  0  0  0  0  0  0  0  0  0  0
  -25.0235  -14.8640   19.1833 C   0  0  0  0  0  0  0  0  0  0  0  0
  -31.3075  -24.2274   15.5785 C   0  0  0  0  0  0  0  0  0  0  0  0
  -18.1418  -24.9762   23.6870 C   0  0  0  0  0  0  0  0  0  0  0  0
  -19.5498  -24.4246   21.3504 C   0  0  0  0  0  0  0  0  0  0  0  0
  -24.8459  -23.7658   18.3467 C   0  0  0  0  0  0  0  0  0  0  0  0
  -29.8901  -24.1771   17.5344 C   0  0  0  0  0  0  0  0  0  0  0  0
  -24.5760  -13.2574   21.4197 C   0  0  0  0  0  0  0  0  0  0  0  0
  -24.0067  -13.9094   19.1640 C   0  0  0  0  0  0  0  0  0  0  0  0
  -25.1478  -23.6607   16.9896 C   0  0  0  0  0  0  0  0  0  0  0  0
  -24.0954  -10.1549   20.1642 C   0  0  0  0  0  0  0  0  0  0  0  0
  -24.3905   -8.8834   20.6560 C   0  0  0  0  0  0  0  0  0  0  0  0
  -31.0128  -22.1664   16.8042 C   0  0  0  0  0  0  0  0  0  0  0  0
  -25.6095  -26.0272   16.9153 C   0  0  0  0  0  0  0  0  0  0  0  0
  -22.6607   -9.1275   22.3250 C   0  0  0  0  0  0  0  0  0  0  0  0
  -25.8166  -15.0153   20.3207 C   0  0  0  0  0  0  0  0  0  0  0  0
  -31.5835  -22.8702   15.7436 C   0  0  0  0  0  0  0  0  0  0  0  0
  -28.2074  -15.8242   19.9502 C   0  0  0  0  0  0  0  0  0  0  0  0
  -18.8941  -25.9944   23.0805 C   0  0  0  0  0  0  0  0  0  0  0  0
  -24.9131  -25.0064   18.9968 C   0  0  0  0  0  0  0  0  0  0  0  0
  -19.5986  -25.7200   21.8928 C   0  0  0  0  0  0  0  0  0  0  0  0
  -25.3105  -26.1449   18.2812 C   0  0  0  0  0  0  0  0  0  0  0  0
  -30.1661  -22.8199   17.6995 C   0  0  0  0  0  0  0  0  0  0  0  0
  -23.7829  -13.1061   20.2822 C   0  0  0  0  0  0  0  0  0  0  0  0
  -25.5269  -24.7920   16.2730 C   0  0  0  0  0  0  0  0  0  0  0  0
  -23.0830  -10.9127   20.7529 C   0  0  0  0  0  0  0  0  0  0  0  0
  -23.6731   -8.3697   21.7364 C   0  0  0  0  0  0  0  0  0  0  0  0
  -22.3657  -10.3990   21.8332 C   0  0  0  0  0  0  0  0  0  0  0  0
  -26.8665  -16.0020   20.3402 C   0  0  0  0  0  0  0  0  0  0  0  0
  -28.7905  -17.0506   20.1566 C   0  0  0  0  0  0  0  0  0  0  0  0
  -32.4741  -22.1846   14.8021 C   0  0  0  0  0  0  0  0  0  0  0  0
  -28.8670  -14.6552   19.4463 C   0  0  0  0  0  0  0  0  0  0  0  0
  -32.0903  -21.5565   13.6731 C   0  0  0  0  0  0  0  0  0  0  0  0
  -22.8183  -26.8715   20.4924 C   0  0  0  0  0  0  0  0  0  0  0  0
  -25.4623  -28.6126   21.1994 C   0  0  0  0  0  0  0  0  0  0  0  0
  -27.3055  -23.6734   13.3315 C   0  0  0  0  0  0  0  0  0  0  0  0
  -28.6657  -29.4721   20.3955 C   0  0  0  0  0  0  0  0  0  0  0  0
  -28.7266  -22.6038   19.7556 C   0  0  0  0  0  0  0  0  0  0  0  0
  -18.8686  -27.3751   23.6868 C   0  0  0  0  0  0  0  0  0  0  0  0
  -24.6102  -25.0982   20.4672 C   0  0  0  0  0  0  0  0  0  0  0  0
  -25.4177  -27.4965   18.9372 C   0  0  0  0  0  0  0  0  0  0  0  0
  -19.9825  -28.2854   23.1759 C   0  0  0  0  0  0  0  0  0  0  0  0
  -27.0582  -21.1605   22.5503 C   0  0  0  0  0  0  0  0  0  0  0  0
  -20.0867  -28.2003   21.6565 C   0  0  0  0  0  0  0  0  0  0  0  0
  -26.9699  -19.6751   22.1924 C   0  0  0  0  0  0  0  0  0  0  0  0
  -26.8786  -22.0514   21.3224 C   0  0  0  0  0  0  0  0  0  0  0  0
  -27.6790  -20.2561   19.8373 C   0  0  0  0  0  0  0  0  0  0  0  0
  -20.4366  -26.7768   21.2063 C   0  0  1  0  0  0  0  0  0  0  0  0
  -24.2143  -26.5037   20.9091 C   0  0  1  0  0  0  0  0  0  0  0  0
  -27.9186  -19.3179   21.0314 C   0  0  2  0  0  0  0  0  0  0  0  0
  -33.1184  -20.8827   12.8020 C   0  0  0  0  0  0  0  0  0  0  0  0
  -30.5550  -30.9474   21.1383 C   0  0  0  0  0  0  0  0  0  0  0  0
  -24.0254  -31.0372   20.0304 C   0  0  0  0  0  0  0  0  0  0  0  0
  -26.2358  -32.2081   19.9230 C   0  0  0  0  0  0  0  0  0  0  0  0
  -25.3093  -31.4961   22.1270 C   0  0  0  0  0  0  0  0  0  0  0  0
  -30.4480  -27.1546   20.8557 C   0  0  0  0  0  0  0  0  0  0  0  0
  -30.6541  -21.4224   13.2090 C   0  0  0  0  0  0  0  0  0  0  0  0
  -26.3621  -23.4521   14.4946 C   0  0  0  0  0  0  0  0  0  1  0  0
  -30.2411  -22.5450   12.2488 C   0  0  0  0  0  0  0  0  0  0  0  0
  -28.7928  -22.4132   11.7871 C   0  0  0  0  0  0  0  0  0  0  0  0
  -26.2042  -29.7474   20.5354 C   0  0  1  0  0  0  0  0  0  0  0  0
  -29.9249  -29.5669   21.2381 C   0  0  2  0  0  0  0  0  0  0  0  0
  -25.4399  -31.0972   20.6409 C   0  0  0  0  0  0  0  0  0  0  0  0
  -26.6126  -17.2434   20.7626 N   0  0  0  0  0  0  0  0  0  0  0  0
  -27.8019  -17.8568   20.6393 N   0  0  0  0  0  0  0  0  0  0  0  0
  -25.1051  -27.5360   20.3753 N   0  0  0  0  0  0  0  0  0  0  0  0
  -27.8130  -21.6573   20.2657 N   0  0  0  0  0  0  0  0  0  0  0  0
  -30.0472  -17.5071   19.9706 N   0  0  0  0  0  0  0  0  0  0  0  0
  -28.1197  -13.4791   19.2957 N   0  0  0  0  0  0  0  0  0  0  0  0
  -29.5869  -22.1058   18.7776 N   0  0  0  0  0  0  0  0  0  0  0  0
  -21.8458  -26.5152   21.4072 N   0  0  0  0  0  0  0  0  0  0  0  0
  -27.8577  -22.4827   12.8860 N   0  0  0  0  0  0  0  0  0  0  0  0
  -27.5365  -29.7671   21.1296 N   0  0  0  0  0  0  0  0  0  0  0  0
  -30.9265  -28.5594   20.7878 N   0  3  0  0  0  0  0  0  0  0  0  0
  -30.0869  -14.6491   19.1541 O   0  0  0  0  0  0  0  0  0  0  0  0
  -22.6370  -27.4380   19.4210 O   0  0  0  0  0  0  0  0  0  0  0  0
  -25.2153  -28.6758   22.4063 O   0  0  0  0  0  0  0  0  0  0  0  0
  -27.5337  -24.7855   12.8635 O   0  0  0  0  0  0  0  0  0  0  0  0
  -28.6826  -29.1704   19.2042 O   0  0  0  0  0  0  0  0  0  0  0  0
  -28.7627  -23.7630   20.1761 O   0  0  0  0  0  0  0  0  0  0  0  0
  -22.7907  -12.1746   20.2630 O   0  0  0  0  0  0  0  0  0  0  0  0
  -25.8215  -24.6924   14.9482 O   0  0  0  0  0  0  0  0  0  1  0  0
  -23.9555   -7.1480   22.2075 F   0  0  0  0  0  0  0  0  0  0  0  0
  -21.3912  -11.1219   22.4021 F   0  0  0  0  0  0  0  0  0  0  0  0
  1  2  1  0  0  0  0
  1  7  2  0  0  0  0
  2  8  2  0  0  0  0
  3  6  2  0  0  0  0
  3 10  1  0  0  0  0
  4 11  2  0  0  0  0
  4 19  1  0  0  0  0
  5 12  1  0  0  0  0
  5 19  2  0  0  0  0
  6 20  1  0  0  0  0
  7 22  1  0  0  0  0
  8 24  1  0  0  0  0
  9 13  2  0  0  0  0
  9 23  1  0  0  0  0
 10 26  2  0  0  0  0
 11 27  1  0  0  0  0
 12 27  2  0  0  0  0
 13 28  1  0  0  0  0
 14 15  2  0  0  0  0
 14 29  1  0  0  0  0
 15 30  1  0  0  0  0
 16 20  2  0  0  0  0
 16 26  1  0  0  0  0
 17 25  1  0  0  0  0
 17 28  2  0  0  0  0
 18 30  2  0  0  0  0
 18 31  1  0  0  0  0
 19 32  1  0  0  0  0
 20 34  1  0  0  0  0
 21 32  1  0  0  0  0
 21 33  2  0  0  0  0
 21 35  1  0  0  0  0
 22 24  2  0  0  0  0
 22 42  1  0  0  0  0
 23 25  2  0  0  0  0
 23 43  1  0  0  0  0
 24 51  1  0  0  0  0
 25 44  1  0  0  0  0
 26 73  1  0  0  0  0
 27 84  1  0  0  0  0
 28 85  1  0  0  0  0
 29 31  2  0  0  0  0
 29 84  1  0  0  0  0
 30 86  1  0  0  0  0
 31 87  1  0  0  0  0
 32 67  2  0  0  0  0
 33 68  1  0  0  0  0
 33 71  1  0  0  0  0
 34 36  2  0  0  0  0
 35 72  1  0  0  0  0
 35 78  2  0  0  0  0
 36 54  1  0  0  0  0
 36 60  1  0  0  0  0
 37 52  1  0  0  0  0
 37 74  1  0  0  0  0
 37 79  2  0  0  0  0
 38 64  1  0  0  0  0
 38 69  1  0  0  0  0
 38 80  2  0  0  0  0
 39 61  1  0  0  0  0
 39 75  1  0  0  0  0
 39 81  2  0  0  0  0
 40 65  1  0  0  0  0
 40 76  1  0  0  0  0
 40 82  2  0  0  0  0
 41 70  1  0  0  0  0
 41 73  1  0  0  0  0
 41 83  2  0  0  0  0
 42 45  1  0  0  0  0
 43 52  1  0  0  0  0
 44 69  1  0  0  0  0
 45 47  1  0  0  0  0
 46 48  1  0  0  0  0
 46 49  1  0  0  0  0
 47 51  1  0  0  0  0
 48 53  1  0  0  0  0
 49 70  1  0  0  0  0
 50 53  1  0  0  0  0
 50 70  1  0  0  0  0
 51 74  1  0  0  0  0
 52 69  1  0  0  0  0
 53 68  1  0  0  0  0
 55 65  1  0  0  0  0
 56 66  1  0  0  0  0
 57 66  1  0  0  0  0
 58 66  1  0  0  0  0
 59 77  1  0  0  0  0
 60 62  1  0  0  0  0
 61 85  1  0  0  0  0
 62 63  1  0  0  0  0
 63 75  1  0  0  0  0
 64 66  1  0  0  0  0
 64 76  1  0  0  0  0
 65 77  1  0  0  0  0
 67 68  1  0  0  0  0
M  CHG  1  77   1
M  ISO  4  41 100  61 101  73 100  85 101
M  END
> <Batch ID>
0009

> <Smiles>
CNC(C)C(=O)NC(C(=O)N1Cc2cc([101O:1][101CH2:1]C(=O)NCCCC(C)=Cc3cccc([100NH:0][100C:0](=O)N4CCCC(n5nc(-c6ccc(Oc7ccc(F)cc7F)cc6)c(C(N)=O)c5N)C4)c3)ccc2CC1C(=O)NC1CCCc2ccccc21)C(C)(C)C

> <Shape>
0.254

> <Color>
0.047

> <Negative vol penalty>
0.000

$$$$

  -OEChem-04052315383D

 82 90  0     1  0  0  0  0  0999 V2000
  -29.5028  -33.9784   26.0407 C   0  0  0  0  0  0  0  0  0  0  0  0
  -29.6470  -32.8787   25.2008 C   0  0  0  0  0  0  0  0  0  0  0  0
  -24.6205   -9.0176   21.3632 C   0  0  0  0  0  0  0  0  0  0  0  0
  -23.3700  -10.8833   22.2534 C   0  0  0  0  0  0  0  0  0  0  0  0
  -28.2786  -34.2246   26.6609 C   0  0  0  0  0  0  0  0  0  0  0  0
  -28.5674  -32.0239   24.9816 C   0  0  0  0  0  0  0  0  0  0  0  0
  -27.2123  -29.0599   19.7966 C   0  0  0  0  0  0  0  0  0  0  0  0
  -28.2182  -19.1070   20.2807 C   0  0  0  0  0  0  0  0  0  0  0  0
  -27.7851  -20.4221   20.1123 C   0  0  0  0  0  0  0  0  0  0  0  0
  -24.0871   -8.1890   22.3504 C   0  0  0  0  0  0  0  0  0  0  0  0
  -22.8365  -10.0547   23.2406 C   0  0  0  0  0  0  0  0  0  0  0  0
  -27.4463  -27.7516   19.3754 C   0  0  0  0  0  0  0  0  0  0  0  0
  -21.1865   -6.5499   22.9269 C   0  0  0  0  0  0  0  0  0  0  0  0
  -20.7202   -5.2944   22.5371 C   0  0  0  0  0  0  0  0  0  0  0  0
  -25.2300  -27.1294   20.0964 C   0  0  0  0  0  0  0  0  0  0  0  0
  -26.2095  -18.6049   21.5258 C   0  0  0  0  0  0  0  0  0  0  0  0
  -22.3069   -4.2432   24.0253 C   0  0  0  0  0  0  0  0  0  0  0  0
  -24.2620  -10.3648   21.3147 C   0  0  0  0  0  0  0  0  0  0  0  0
  -24.2796  -11.4738   19.0175 C   0  0  0  0  0  0  0  0  0  0  0  0
  -27.1806  -33.3778   26.4415 C   0  0  0  0  0  0  0  0  0  0  0  0
  -25.9872  -29.4108   20.3818 C   0  0  0  0  0  0  0  0  0  0  0  0
  -27.3277  -32.2582   25.6005 C   0  0  0  0  0  0  0  0  0  0  0  0
  -24.9819  -28.4434   20.5218 C   0  0  0  0  0  0  0  0  0  0  0  0
  -25.7764  -19.9201   21.3574 C   0  0  0  0  0  0  0  0  0  0  0  0
  -27.4304  -18.1983   20.9875 C   0  0  0  0  0  0  0  0  0  0  0  0
  -26.5642  -20.8287   20.6506 C   0  0  0  0  0  0  0  0  0  0  0  0
  -23.1951   -8.7075   23.2890 C   0  0  0  0  0  0  0  0  0  0  0  0
  -26.4562  -26.7854   19.5279 C   0  0  0  0  0  0  0  0  0  0  0  0
  -22.2130   -6.6521   23.8658 C   0  0  0  0  0  0  0  0  0  0  0  0
  -21.2804   -4.1410   23.0863 C   0  0  0  0  0  0  0  0  0  0  0  0
  -22.7731   -5.4987   24.4150 C   0  0  0  0  0  0  0  0  0  0  0  0
  -24.8131  -11.2213   20.2956 C   0  0  0  0  0  0  0  0  0  0  0  0
  -25.1694  -12.3467   18.4404 C   0  0  0  0  0  0  0  0  0  0  0  0
  -23.0865  -10.9650   18.4066 C   0  0  0  0  0  0  0  0  0  0  0  0
  -25.0951  -30.5210   23.2235 C   0  0  0  0  0  0  0  0  0  0  0  0
  -22.1884  -30.7229   21.7977 C   0  0  0  0  0  0  0  0  0  0  0  0
  -26.8101  -23.1810   19.7902 C   0  0  0  0  0  0  0  0  0  0  0  0
  -20.0837  -29.6327   19.3424 C   0  0  0  0  0  0  0  0  0  0  0  0
  -29.0528  -16.2952   20.6839 C   0  0  0  0  0  0  0  0  0  0  0  0
  -25.8908  -33.6578   27.1712 C   0  0  0  0  0  0  0  0  0  0  0  0
  -25.7406  -30.8325   20.8064 C   0  0  0  0  0  0  0  0  0  0  0  0
  -23.6421  -28.7736   21.1254 C   0  0  0  0  0  0  0  0  0  0  0  0
  -24.6894  -32.9157   26.5914 C   0  0  0  0  0  0  0  0  0  0  0  0
  -29.7986  -13.5708   18.5163 C   0  0  0  0  0  0  0  0  0  0  0  0
  -25.0367  -31.4518   26.3399 C   0  0  0  0  0  0  0  0  0  0  0  0
  -28.5537  -12.6851   18.6056 C   0  0  0  0  0  0  0  0  0  0  0  0
  -30.1340  -14.2148   19.8603 C   0  0  0  0  0  0  0  0  0  0  0  0
  -27.7831  -14.0607   20.5807 C   0  0  0  0  0  0  0  0  0  0  0  0
  -26.1728  -31.3220   25.3182 C   0  0  1  0  0  0  0  0  0  0  0  0
  -24.6439  -30.9600   21.8592 C   0  0  1  0  0  0  0  0  0  0  0  0
  -27.3680  -13.4416   19.2360 C   0  0  2  0  0  0  0  0  0  0  0  0
  -24.4635  -20.3278   21.9429 C   0  0  0  0  0  0  0  0  0  0  0  0
  -17.7596  -29.9563   18.4529 C   0  0  0  0  0  0  0  0  0  0  0  0
  -21.0742  -29.0893   24.1215 C   0  0  0  0  0  0  0  0  0  0  0  0
  -19.0355  -28.6423   22.7386 C   0  0  0  0  0  0  0  0  0  0  0  0
  -19.6154  -30.9815   23.3825 C   0  0  0  0  0  0  0  0  0  0  0  0
  -21.0920  -30.5399   16.7119 C   0  0  0  0  0  0  0  0  0  0  0  0
  -26.0089  -24.4691   19.8286 C   0  0  0  0  0  0  0  0  0  1  0  0
  -21.0088  -29.7943   21.6386 C   0  0  1  0  0  0  0  0  0  0  0  0
  -19.2147  -30.3870   18.3523 C   0  0  2  0  0  0  0  0  0  0  0  0
  -20.2093  -29.6199   22.9606 C   0  0  0  0  0  0  0  0  0  0  0  0
  -25.9534  -11.8803   20.5177 N   0  0  0  0  0  0  0  0  0  0  0  0
  -26.1439  -12.5555   19.3715 N   0  0  0  0  0  0  0  0  0  0  0  0
  -23.4515  -30.1760   21.5309 N   0  0  0  0  0  0  0  0  0  0  0  0
  -28.9652  -14.9169   20.3948 N   0  0  0  0  0  0  0  0  0  0  0  0
  -25.2054  -12.9482   17.2324 N   0  0  0  0  0  0  0  0  0  0  0  0
  -22.2865  -10.0780   19.1398 N   0  0  0  0  0  0  0  0  0  0  0  0
  -26.1417  -22.1667   20.4674 N   0  0  0  0  0  0  0  0  0  0  0  0
  -27.8693  -16.8617   21.1561 N   0  0  0  0  0  0  0  0  0  0  0  0
  -25.6713  -31.5264   23.9761 N   0  0  0  0  0  0  0  0  0  0  0  0
  -20.2214  -30.3211   20.5292 N   0  0  0  0  0  0  0  0  0  0  0  0
  -19.6827  -30.1402   16.9592 N   0  3  0  0  0  0  0  0  0  0  0  0
  -22.7486  -11.2746   17.2389 O   0  0  0  0  0  0  0  0  0  0  0  0
  -24.9311  -29.3566   23.5684 O   0  0  0  0  0  0  0  0  0  0  0  0
  -21.9955  -31.8925   22.1391 O   0  0  0  0  0  0  0  0  0  0  0  0
  -27.8943  -23.1154   19.2204 O   0  0  0  0  0  0  0  0  0  0  0  0
  -20.5869  -28.5402   19.0897 O   0  0  0  0  0  0  0  0  0  0  0  0
  -30.0929  -16.9323   20.4984 O   0  0  0  0  0  0  0  0  0  0  0  0
  -22.6742   -7.8993   24.2523 O   0  0  0  0  0  0  0  0  0  0  0  0
  -26.6823  -25.5076   19.1183 O   0  0  0  0  0  0  0  0  0  1  0  0
  -20.8315   -2.9355   22.7130 F   0  0  0  0  0  0  0  0  0  0  0  0
  -23.7587   -5.5905   25.3183 F   0  0  0  0  0  0  0  0  0  0  0  0
  1  2  1  0  0  0  0
  1  5  2  0  0  0  0
  2  6  2  0  0  0  0
  3 10  2  0  0  0  0
  3 18  1  0  0  0  0
  4 11  1  0  0  0  0
  4 18  2  0  0  0  0
  5 20  1  0  0  0  0
  6 22  1  0  0  0  0
  7 12  2  0  0  0  0
  7 21  1  0  0  0  0
  8  9  2  0  0  0  0
  8 25  1  0  0  0  0
  9 26  1  0  0  0  0
 10 27  1  0  0  0  0
 11 27  2  0  0  0  0
 12 28  1  0  0  0  0
 13 14  2  0  0  0  0
 13 29  1  0  0  0  0
 14 30  1  0  0  0  0
 15 23  1  0  0  0  0
 15 28  2  0  0  0  0
 16 24  1  0  0  0  0
 16 25  2  0  0  0  0
 17 30  2  0  0  0  0
 17 31  1  0  0  0  0
 18 32  1  0  0  0  0
 19 32  1  0  0  0  0
 19 33  2  0  0  0  0
 19 34  1  0  0  0  0
 20 22  2  0  0  0  0
 20 40  1  0  0  0  0
 21 23  2  0  0  0  0
 21 41  1  0  0  0  0
 22 49  1  0  0  0  0
 23 42  1  0  0  0  0
 24 26  2  0  0  0  0
 24 52  1  0  0  0  0
 25 69  1  0  0  0  0
 26 68  1  0  0  0  0
 27 79  1  0  0  0  0
 28 80  1  0  0  0  0
 29 31  2  0  0  0  0
 29 79  1  0  0  0  0
 30 81  1  0  0  0  0
 31 82  1  0  0  0  0
 32 62  2  0  0  0  0
 33 63  1  0  0  0  0
 33 66  1  0  0  0  0
 34 67  1  0  0  0  0
 34 73  2  0  0  0  0
 35 50  1  0  0  0  0
 35 70  1  0  0  0  0
 35 74  2  0  0  0  0
 36 59  1  0  0  0  0
 36 64  1  0  0  0  0
 36 75  2  0  0  0  0
 37 58  1  0  0  0  0
 37 68  1  0  0  0  0
 37 76  2  0  0  0  0
 38 60  1  0  0  0  0
 38 71  1  0  0  0  0
 38 77  2  0  0  0  0
 39 65  1  0  0  0  0
 39 69  1  0  0  0  0
 39 78  2  0  0  0  0
 40 43  1  0  0  0  0
 41 50  1  0  0  0  0
 42 64  1  0  0  0  0
 43 45  1  0  0  0  0
 44 46  1  0  0  0  0
 44 47  1  0  0  0  0
 45 49  1  0  0  0  0
 46 51  1  0  0  0  0
 47 65  1  0  0  0  0
 48 51  1  0  0  0  0
 48 65  1  0  0  0  0
 49 70  1  0  0  0  0
 50 64  1  0  0  0  0
 51 63  1  0  0  0  0
 53 60  1  0  0  0  0
 54 61  1  0  0  0  0
 55 61  1  0  0  0  0
 56 61  1  0  0  0  0
 57 72  1  0  0  0  0
 58 80  1  0  0  0  0
 59 61  1  0  0  0  0
 59 71  1  0  0  0  0
 60 72  1  0  0  0  0
 62 63  1  0  0  0  0
M  CHG  1  72   1
M  ISO  4  39 100  58 101  69 100  80 101
M  END
> <Batch ID>
0009

> <Smiles>
CNC(C)C(=O)NC(C(=O)N1Cc2cc([101O:1][101CH2:1]C(=O)Nc3ccc([100NH:0][100C:0](=O)N4CCCC(n5nc(-c6ccc(Oc7ccc(F)cc7F)cc6)c(C(N)=O)c5N)C4)cc3C)ccc2CC1C(=O)NC1CCCc2ccccc21)C(C)(C)C

> <Shape>
0.307

> <Color>
0.100

> <Negative vol penalty>
0.000

$$$$

  -OEChem-04052315383D

 88 96  0     1  0  0  0  0  0999 V2000
  -23.6190   -7.6090   17.8334 C   0  0  0  0  0  0  0  0  0  0  0  0
  -23.3666   -8.8891   17.3507 C   0  0  0  0  0  0  0  0  0  0  0  0
  -18.4275  -27.7492   23.7879 C   0  0  0  0  0  0  0  0  0  0  0  0
  -29.4237  -27.7302   20.0785 C   0  0  0  0  0  0  0  0  0  0  0  0
  -27.5816  -26.5264   19.0812 C   0  0  0  0  0  0  0  0  0  0  0  0
  -18.0338  -26.9588   22.7082 C   0  0  0  0  0  0  0  0  0  0  0  0
  -23.6482   -7.3768   19.2079 C   0  0  0  0  0  0  0  0  0  0  0  0
  -23.1422   -9.9376   18.2422 C   0  0  0  0  0  0  0  0  0  0  0  0
  -24.7963  -15.7913   17.5325 C   0  0  0  0  0  0  0  0  0  0  0  0
  -19.5531  -28.5660   23.6806 C   0  0  0  0  0  0  0  0  0  0  0  0
  -30.2142  -26.5835   20.0026 C   0  0  0  0  0  0  0  0  0  0  0  0
  -28.3721  -25.3797   19.0052 C   0  0  0  0  0  0  0  0  0  0  0  0
  -24.0963  -16.9187   17.1050 C   0  0  0  0  0  0  0  0  0  0  0  0
  -29.4250  -22.9369   21.0920 C   0  0  0  0  0  0  0  0  0  0  0  0
  -28.8542  -21.7286   21.4918 C   0  0  0  0  0  0  0  0  0  0  0  0
  -23.6583  -17.5104   19.4023 C   0  0  0  0  0  0  0  0  0  0  0  0
  -29.2184  -20.8250   19.2809 C   0  0  0  0  0  0  0  0  0  0  0  0
  -28.1073  -27.7016   19.6179 C   0  0  0  0  0  0  0  0  0  0  0  0
  -18.7657  -26.9851   21.5211 C   0  0  0  0  0  0  0  0  0  0  0  0
  -27.1582  -29.8939   18.7230 C   0  0  0  0  0  0  0  0  0  0  0  0
  -23.4336   -8.4249   20.1168 C   0  0  0  0  0  0  0  0  0  0  0  0
  -24.9236  -15.5087   18.9002 C   0  0  0  0  0  0  0  0  0  0  0  0
  -23.1672   -9.7189   19.6301 C   0  0  0  0  0  0  0  0  0  0  0  0
  -24.3627  -16.3802   19.8446 C   0  0  0  0  0  0  0  0  0  0  0  0
  -20.2850  -28.5924   22.4935 C   0  0  0  0  0  0  0  0  0  0  0  0
  -29.6884  -25.4082   19.4659 C   0  0  0  0  0  0  0  0  0  0  0  0
  -23.5246  -17.7768   18.0398 C   0  0  0  0  0  0  0  0  0  0  0  0
  -29.8924  -23.0892   19.7866 C   0  0  0  0  0  0  0  0  0  0  0  0
  -28.7509  -20.6726   20.5863 C   0  0  0  0  0  0  0  0  0  0  0  0
  -29.7891  -22.0333   18.8811 C   0  0  0  0  0  0  0  0  0  0  0  0
  -19.8913  -27.8019   21.4137 C   0  0  0  0  0  0  0  0  0  0  0  0
  -27.2901  -28.8857   19.6966 C   0  0  0  0  0  0  0  0  0  0  0  0
  -26.2740  -30.7892   19.2734 C   0  0  0  0  0  0  0  0  0  0  0  0
  -18.3447  -26.1474   20.3842 C   0  0  0  0  0  0  0  0  0  0  0  0
  -18.2304  -24.8117   20.4243 C   0  0  0  0  0  0  0  0  0  0  0  0
  -27.7793  -30.0105   17.4360 C   0  0  0  0  0  0  0  0  0  0  0  0
  -17.7852  -24.0668   19.2121 C   0  0  0  0  0  0  0  0  0  0  0  0
  -24.0099  -13.1236   20.7923 C   0  0  0  0  0  0  0  0  0  0  0  0
  -25.7437  -14.7360   23.0097 C   0  0  0  0  0  0  0  0  0  0  0  0
  -27.0707  -17.7016   24.0539 C   0  0  0  0  0  0  0  0  0  0  0  0
  -21.9522  -30.2670   23.3666 C   0  0  0  0  0  0  0  0  0  0  0  0
  -23.4280   -8.1158   21.5930 C   0  0  0  0  0  0  0  0  0  0  0  0
  -25.7047  -14.3030   19.3457 C   0  0  0  0  0  0  0  0  0  0  0  0
  -24.4881  -16.1326   21.3249 C   0  0  0  0  0  0  0  0  0  0  0  0
  -23.5513   -9.3555   22.4753 C   0  0  0  0  0  0  0  0  0  0  0  0
  -24.7672  -32.4425   23.5079 C   0  0  0  0  0  0  0  0  0  0  0  0
  -22.6023  -10.4490   21.9952 C   0  0  0  0  0  0  0  0  0  0  0  0
  -25.7191  -31.8726   22.4536 C   0  0  0  0  0  0  0  0  0  0  0  0
  -24.0139  -31.3385   24.2477 C   0  0  0  0  0  0  0  0  0  0  0  0
  -24.2619  -29.8115   22.3305 C   0  0  0  0  0  0  0  0  0  0  0  0
  -22.9435  -10.8870   20.5658 C   0  0  1  0  0  0  0  0  0  0  0  0
  -25.3326  -13.8352   20.7493 C   0  0  1  0  0  0  0  0  0  0  0  0
  -24.9953  -30.8882   21.5142 C   0  0  2  0  0  0  0  0  0  0  0  0
  -28.4207  -19.2818   25.4603 C   0  0  0  0  0  0  0  0  0  0  0  0
  -23.2741  -14.6778   24.8006 C   0  0  0  0  0  0  0  0  0  0  0  0
  -24.3274  -16.4722   26.1931 C   0  0  0  0  0  0  0  0  0  0  0  0
  -25.4331  -14.2456   25.9865 C   0  0  0  0  0  0  0  0  0  0  0  0
  -29.5043  -17.2503   22.4313 C   0  0  0  0  0  0  0  0  0  0  0  0
  -19.5429  -20.5096   18.4618 C   0  0  0  0  0  0  0  0  0  0  0  0
  -18.5023  -21.2397   17.6076 C   0  0  0  0  0  0  0  0  0  0  0  0
  -20.7150  -20.0233   17.6114 C   0  0  0  0  0  0  0  0  0  0  0  0
  -17.3232  -21.7503   18.4293 C   0  0  0  0  0  0  0  0  0  0  0  0
  -21.7750  -19.3322   18.4589 C   0  0  0  0  0  0  0  0  0  1  0  0
  -25.4485  -15.8252   24.0124 C   0  0  1  0  0  0  0  0  0  0  0  0
  -28.4591  -18.0654   24.5483 C   0  0  2  0  0  0  0  0  0  0  0  0
  -24.6166  -15.3091   25.2203 C   0  0  0  0  0  0  0  0  0  0  0  0
  -26.5491  -29.1183   20.7833 N   0  0  0  0  0  0  0  0  0  0  0  0
  -25.9432  -30.2829   20.4958 N   0  0  0  0  0  0  0  0  0  0  0  0
  -25.2560  -14.9372   21.7106 N   0  0  0  0  0  0  0  0  0  0  0  0
  -23.3497  -30.4473   23.2941 N   0  0  0  0  0  0  0  0  0  0  0  0
  -25.7550  -31.9525   18.8262 N   0  0  0  0  0  0  0  0  0  0  0  0
  -28.6616  -29.0016   17.0260 N   0  0  0  0  0  0  0  0  0  0  0  0
  -21.4282  -29.4229   22.3881 N   0  0  0  0  0  0  0  0  0  0  0  0
  -17.7236  -22.6962   19.4337 N   0  0  0  0  0  0  0  0  0  0  0  0
  -24.0956  -11.7629   20.5670 N   0  0  0  0  0  0  0  0  0  0  0  0
  -26.7370  -16.4036   24.3779 N   0  0  0  0  0  0  0  0  0  0  0  0
  -29.3558  -18.3691   23.3974 N   0  3  0  0  0  0  0  0  0  0  0  0
  -27.5712  -30.9890   16.6791 O   0  0  0  0  0  0  0  0  0  0  0  0
  -17.5120  -24.6282   18.1563 O   0  0  0  0  0  0  0  0  0  0  0  0
  -22.9876  -13.7615   21.0149 O   0  0  0  0  0  0  0  0  0  0  0  0
  -26.3895  -13.7465   23.3641 O   0  0  0  0  0  0  0  0  0  0  0  0
  -26.3525  -18.4913   23.4447 O   0  0  0  0  0  0  0  0  0  0  0  0
  -21.2669  -30.8420   24.2161 O   0  0  0  0  0  0  0  0  0  0  0  0
  -30.4595  -24.2892   19.3914 O   0  0  0  0  0  0  0  0  0  0  0  0
  -22.8402  -18.8776   17.6253 O   0  0  0  0  0  0  0  0  0  1  0  0
  -28.2042  -19.5119   20.9709 F   0  0  0  0  0  0  0  0  0  0  0  0
  -30.2375  -22.1733   17.6260 F   0  0  0  0  0  0  0  0  0  0  0  0
  -20.5979  -27.8302   20.2727 F   0  0  0  0  0  0  0  0  0  0  0  0
  1  2  1  0  0  0  0
  1  7  2  0  0  0  0
  2  8  2  0  0  0  0
  3  6  2  0  0  0  0
  3 10  1  0  0  0  0
  4 11  2  0  0  0  0
  4 18  1  0  0  0  0
  5 12  1  0  0  0  0
  5 18  2  0  0  0  0
  6 19  1  0  0  0  0
  7 21  1  0  0  0  0
  8 23  1  0  0  0  0
  9 13  2  0  0  0  0
  9 22  1  0  0  0  0
 10 25  2  0  0  0  0
 11 26  1  0  0  0  0
 12 26  2  0  0  0  0
 13 27  1  0  0  0  0
 14 15  2  0  0  0  0
 14 28  1  0  0  0  0
 15 29  1  0  0  0  0
 16 24  1  0  0  0  0
 16 27  2  0  0  0  0
 17 29  2  0  0  0  0
 17 30  1  0  0  0  0
 18 32  1  0  0  0  0
 19 31  2  0  0  0  0
 19 34  1  0  0  0  0
 20 32  1  0  0  0  0
 20 33  2  0  0  0  0
 20 36  1  0  0  0  0
 21 23  2  0  0  0  0
 21 42  1  0  0  0  0
 22 24  2  0  0  0  0
 22 43  1  0  0  0  0
 23 51  1  0  0  0  0
 24 44  1  0  0  0  0
 25 31  1  0  0  0  0
 25 73  1  0  0  0  0
 26 84  1  0  0  0  0
 27 85  1  0  0  0  0
 28 30  2  0  0  0  0
 28 84  1  0  0  0  0
 29 86  1  0  0  0  0
 30 87  1  0  0  0  0
 31 88  1  0  0  0  0
 32 67  2  0  0  0  0
 33 68  1  0  0  0  0
 33 71  1  0  0  0  0
 34 35  2  0  0  0  0
 35 37  1  0  0  0  0
 36 72  1  0  0  0  0
 36 78  2  0  0  0  0
 37 74  1  0  0  0  0
 37 79  2  0  0  0  0
 38 52  1  0  0  0  0
 38 75  1  0  0  0  0
 38 80  2  0  0  0  0
 39 64  1  0  0  0  0
 39 69  1  0  0  0  0
 39 81  2  0  0  0  0
 40 65  1  0  0  0  0
 40 76  1  0  0  0  0
 40 82  2  0  0  0  0
 41 70  1  0  0  0  0
 41 73  1  0  0  0  0
 41 83  2  0  0  0  0
 42 45  1  0  0  0  0
 43 52  1  0  0  0  0
 44 69  1  0  0  0  0
 45 47  1  0  0  0  0
 46 48  1  0  0  0  0
 46 49  1  0  0  0  0
 47 51  1  0  0  0  0
 48 53  1  0  0  0  0
 49 70  1  0  0  0  0
 50 53  1  0  0  0  0
 50 70  1  0  0  0  0
 51 75  1  0  0  0  0
 52 69  1  0  0  0  0
 53 68  1  0  0  0  0
 54 65  1  0  0  0  0
 55 66  1  0  0  0  0
 56 66  1  0  0  0  0
 57 66  1  0  0  0  0
 58 77  1  0  0  0  0
 59 60  1  0  0  0  0
 59 61  1  0  0  0  0
 60 62  1  0  0  0  0
 61 63  1  0  0  0  0
 62 74  1  0  0  0  0
 63 85  1  0  0  0  0
 64 66  1  0  0  0  0
 64 76  1  0  0  0  0
 65 77  1  0  0  0  0
 67 68  1  0  0  0  0
M  CHG  1  77   1
M  ISO  4  41 100  63 101  73 100  85 101
M  END
> <Batch ID>
0009

> <Smiles>
CNC(C)C(=O)NC(C(=O)N1Cc2cc([101O:1][101CH2:1]CCCCNC(=O)C=Cc3cccc([100NH:0][100C:0](=O)N4CCCC(n5nc(-c6ccc(Oc7ccc(F)cc7F)cc6)c(C(N)=O)c5N)C4)c3F)ccc2CC1C(=O)NC1CCCc2ccccc21)C(C)(C)C

> <Shape>
0.252

> <Color>
0.068

> <Negative vol penalty>
0.000

$$$$

  -OEChem-04052315383D

 85 93  0     1  0  0  0  0  0999 V2000
  -30.9856  -35.3491   22.6096 C   0  0  0  0  0  0  0  0  0  0  0  0
  -30.8359  -34.1961   21.8456 C   0  0  0  0  0  0  0  0  0  0  0  0
  -27.3313  -10.9797   20.4691 C   0  0  0  0  0  0  0  0  0  0  0  0
  -26.8939  -11.7824   18.2328 C   0  0  0  0  0  0  0  0  0  0  0  0
  -30.2850  -35.4863   23.8072 C   0  0  0  0  0  0  0  0  0  0  0  0
  -29.9862  -33.1791   22.2795 C   0  0  0  0  0  0  0  0  0  0  0  0
  -26.5515  -29.5087   18.7814 C   0  0  0  0  0  0  0  0  0  0  0  0
  -26.2184  -10.1428   20.3865 C   0  0  0  0  0  0  0  0  0  0  0  0
  -25.7810  -10.9455   18.1501 C   0  0  0  0  0  0  0  0  0  0  0  0
  -26.7426  -28.2085   18.3158 C   0  0  0  0  0  0  0  0  0  0  0  0
  -23.2825   -8.0592   20.8989 C   0  0  0  0  0  0  0  0  0  0  0  0
  -22.4207   -8.0135   21.9947 C   0  0  0  0  0  0  0  0  0  0  0  0
  -25.4425  -27.3623   20.1632 C   0  0  0  0  0  0  0  0  0  0  0  0
  -27.4991  -20.4604   15.3010 C   0  0  0  0  0  0  0  0  0  0  0  0
  -27.9641  -21.1890   17.9535 C   0  0  0  0  0  0  0  0  0  0  0  0
  -21.9978  -10.3807   21.7606 C   0  0  0  0  0  0  0  0  0  0  0  0
  -27.6690  -11.7995   19.3923 C   0  0  0  0  0  0  0  0  0  0  0  0
  -30.1417  -12.3585   19.1083 C   0  0  0  0  0  0  0  0  0  0  0  0
  -29.4190  -34.4746   24.2512 C   0  0  0  0  0  0  0  0  0  0  0  0
  -25.8123  -29.7450   19.9494 C   0  0  0  0  0  0  0  0  0  0  0  0
  -29.2745  -33.3023   23.4849 C   0  0  0  0  0  0  0  0  0  0  0  0
  -25.2413  -28.6666   20.6401 C   0  0  0  0  0  0  0  0  0  0  0  0
  -28.1312  -19.5696   16.1684 C   0  0  0  0  0  0  0  0  0  0  0  0
  -27.0995  -21.7156   15.7599 C   0  0  0  0  0  0  0  0  0  0  0  0
  -28.3637  -19.9338   17.4946 C   0  0  0  0  0  0  0  0  0  0  0  0
  -25.4433  -10.1257   19.2269 C   0  0  0  0  0  0  0  0  0  0  0  0
  -26.1905  -27.1349   19.0083 C   0  0  0  0  0  0  0  0  0  0  0  0
  -23.5021   -9.2656   20.2340 C   0  0  0  0  0  0  0  0  0  0  0  0
  -27.3319  -22.0799   17.0861 C   0  0  0  0  0  0  0  0  0  0  0  0
  -21.7783   -9.1743   22.4256 C   0  0  0  0  0  0  0  0  0  0  0  0
  -22.8597  -10.4263   20.6649 C   0  0  0  0  0  0  0  0  0  0  0  0
  -28.8181  -12.6646   19.4773 C   0  0  0  0  0  0  0  0  0  0  0  0
  -30.8479  -13.5046   19.3807 C   0  0  0  0  0  0  0  0  0  0  0  0
  -30.6844  -11.1465   18.5677 C   0  0  0  0  0  0  0  0  0  0  0  0
  -26.4527  -31.0203   22.7897 C   0  0  0  0  0  0  0  0  0  0  0  0
  -23.2610  -30.6549   23.2389 C   0  0  0  0  0  0  0  0  0  0  0  0
  -26.1574  -22.3946   13.5292 C   0  0  0  0  0  0  0  0  0  0  0  0
  -20.3857  -29.0191   22.4000 C   0  0  0  0  0  0  0  0  0  0  0  0
  -29.3008  -19.2653   19.7355 C   0  0  0  0  0  0  0  0  0  0  0  0
  -28.7192  -34.6476   25.5759 C   0  0  0  0  0  0  0  0  0  0  0  0
  -25.5928  -31.1555   20.4237 C   0  0  0  0  0  0  0  0  0  0  0  0
  -24.4223  -28.8684   21.8879 C   0  0  0  0  0  0  0  0  0  0  0  0
  -27.5517  -33.6852   25.7784 C   0  0  0  0  0  0  0  0  0  0  0  0
  -30.8327  -17.3109   22.2870 C   0  0  0  0  0  0  0  0  0  0  0  0
  -27.9563  -32.2662   25.3914 C   0  0  0  0  0  0  0  0  0  0  0  0
  -30.6157  -15.8699   21.8194 C   0  0  0  0  0  0  0  0  0  0  0  0
  -29.6362  -18.2009   21.9557 C   0  0  0  0  0  0  0  0  0  0  0  0
  -28.9972  -16.7348   20.0818 C   0  0  0  0  0  0  0  0  0  0  0  0
  -28.3432  -32.1876   23.9096 C   0  0  1  0  0  0  0  0  0  0  0  0
  -25.2555  -31.2407   21.9090 C   0  0  1  0  0  0  0  0  0  0  0  0
  -30.2028  -15.8151   20.3355 C   0  0  2  0  0  0  0  0  0  0  0  0
  -28.5500  -18.2323   15.6495 C   0  0  0  0  0  0  0  0  0  0  0  0
  -25.4706  -23.5954   12.9284 C   0  0  0  0  0  0  0  0  0  0  0  0
  -17.9429  -28.9136   22.9646 C   0  0  0  0  0  0  0  0  0  0  0  0
  -23.9220  -29.1425   25.8052 C   0  0  0  0  0  0  0  0  0  0  0  0
  -21.5770  -28.2654   25.8097 C   0  0  0  0  0  0  0  0  0  0  0  0
  -21.9895  -30.7189   25.9916 C   0  0  0  0  0  0  0  0  0  0  0  0
  -19.5984  -29.7684   19.6472 C   0  0  0  0  0  0  0  0  0  0  0  0
  -27.5845  -25.5983   17.8458 C   0  0  0  0  0  0  0  0  0  1  0  0
  -27.9776  -24.1499   18.0629 C   0  0  0  0  0  0  0  0  0  0  0  0
  -22.3762  -29.5576   23.7793 C   0  0  1  0  0  0  0  0  0  0  0  0
  -18.9978  -29.5316   22.0601 C   0  0  2  0  0  0  0  0  0  0  0  0
  -22.4832  -29.4168   25.3240 C   0  0  0  0  0  0  0  0  0  0  0  0
  -28.6885  -13.9077   19.9483 N   0  0  0  0  0  0  0  0  0  0  0  0
  -29.9397  -14.3928   19.8772 N   0  0  0  0  0  0  0  0  0  0  0  0
  -24.2413  -30.2656   22.3152 N   0  0  0  0  0  0  0  0  0  0  0  0
  -29.3053  -18.1011   20.5325 N   0  0  0  0  0  0  0  0  0  0  0  0
  -32.1508  -13.8292   19.2416 N   0  0  0  0  0  0  0  0  0  0  0  0
  -29.8190  -10.0658   18.3498 N   0  0  0  0  0  0  0  0  0  0  0  0
  -26.4668  -22.5968   14.8798 N   0  0  0  0  0  0  0  0  0  0  0  0
  -29.0037  -19.0427   18.3913 N   0  0  0  0  0  0  0  0  0  0  0  0
  -27.1588  -32.1725   23.0782 N   0  0  0  0  0  0  0  0  0  0  0  0
  -21.0294  -29.8447   23.2973 N   0  0  0  0  0  0  0  0  0  0  0  0
  -18.6561  -29.2034   20.6471 N   0  3  0  0  0  0  0  0  0  0  0  0
  -31.9037  -11.0200   18.3014 O   0  0  0  0  0  0  0  0  0  0  0  0
  -26.7156  -29.8887   23.1799 O   0  0  0  0  0  0  0  0  0  0  0  0
  -23.0841  -31.8157   23.6168 O   0  0  0  0  0  0  0  0  0  0  0  0
  -26.3809  -21.3955   12.8535 O   0  0  0  0  0  0  0  0  0  0  0  0
  -20.8508  -27.9875   21.9204 O   0  0  0  0  0  0  0  0  0  0  0  0
  -29.5695  -20.3742   20.2048 O   0  0  0  0  0  0  0  0  0  0  0  0
  -24.3574   -9.3091   19.1458 O   0  0  0  0  0  0  0  0  0  0  0  0
  -26.3761  -25.8648   18.5564 O   0  0  0  0  0  0  0  0  0  1  0  0
  -26.9487  -23.3083   17.5565 O   0  0  0  0  0  0  0  0  0  0  0  0
  -20.9495   -9.1300   23.4769 F   0  0  0  0  0  0  0  0  0  0  0  0
  -23.0657  -11.5880   20.0294 F   0  0  0  0  0  0  0  0  0  0  0  0
  1  2  1  0  0  0  0
  1  5  2  0  0  0  0
  2  6  2  0  0  0  0
  3  8  2  0  0  0  0
  3 17  1  0  0  0  0
  4  9  1  0  0  0  0
  4 17  2  0  0  0  0
  5 19  1  0  0  0  0
  6 21  1  0  0  0  0
  7 10  2  0  0  0  0
  7 20  1  0  0  0  0
  8 26  1  0  0  0  0
  9 26  2  0  0  0  0
 10 27  1  0  0  0  0
 11 12  2  0  0  0  0
 11 28  1  0  0  0  0
 12 30  1  0  0  0  0
 13 22  1  0  0  0  0
 13 27  2  0  0  0  0
 14 23  2  0  0  0  0
 14 24  1  0  0  0  0
 15 25  2  0  0  0  0
 15 29  1  0  0  0  0
 16 30  2  0  0  0  0
 16 31  1  0  0  0  0
 17 32  1  0  0  0  0
 18 32  1  0  0  0  0
 18 33  2  0  0  0  0
 18 34  1  0  0  0  0
 19 21  2  0  0  0  0
 19 40  1  0  0  0  0
 20 22  2  0  0  0  0
 20 41  1  0  0  0  0
 21 49  1  0  0  0  0
 22 42  1  0  0  0  0
 23 25  1  0  0  0  0
 23 52  1  0  0  0  0
 24 29  2  0  0  0  0
 24 70  1  0  0  0  0
 25 71  1  0  0  0  0
 26 81  1  0  0  0  0
 27 82  1  0  0  0  0
 28 31  2  0  0  0  0
 28 81  1  0  0  0  0
 29 83  1  0  0  0  0
 30 84  1  0  0  0  0
 31 85  1  0  0  0  0
 32 64  2  0  0  0  0
 33 65  1  0  0  0  0
 33 68  1  0  0  0  0
 34 69  1  0  0  0  0
 34 75  2  0  0  0  0
 35 50  1  0  0  0  0
 35 72  1  0  0  0  0
 35 76  2  0  0  0  0
 36 61  1  0  0  0  0
 36 66  1  0  0  0  0
 36 77  2  0  0  0  0
 37 53  1  0  0  0  0
 37 70  1  0  0  0  0
 37 78  2  0  0  0  0
 38 62  1  0  0  0  0
 38 73  1  0  0  0  0
 38 79  2  0  0  0  0
 39 67  1  0  0  0  0
 39 71  1  0  0  0  0
 39 80  2  0  0  0  0
 40 43  1  0  0  0  0
 41 50  1  0  0  0  0
 42 66  1  0  0  0  0
 43 45  1  0  0  0  0
 44 46  1  0  0  0  0
 44 47  1  0  0  0  0
 45 49  1  0  0  0  0
 46 51  1  0  0  0  0
 47 67  1  0  0  0  0
 48 51  1  0  0  0  0
 48 67  1  0  0  0  0
 49 72  1  0  0  0  0
 50 66  1  0  0  0  0
 51 65  1  0  0  0  0
 54 62  1  0  0  0  0
 55 63  1  0  0  0  0
 56 63  1  0  0  0  0
 57 63  1  0  0  0  0
 58 74  1  0  0  0  0
 59 60  1  0  0  0  0
 59 82  1  0  0  0  0
 60 83  1  0  0  0  0
 61 63  1  0  0  0  0
 61 73  1  0  0  0  0
 62 74  1  0  0  0  0
 64 65  1  0  0  0  0
M  CHG  1  74   1
M  ISO  4  39 100  59 101  71 100  82 101
M  END
> <Batch ID>
0009

> <Smiles>
CNC(C)C(=O)NC(C(=O)N1Cc2cc([101O:1][101CH2:1]COc3cc([100NH:0][100C:0](=O)N4CCCC(n5nc(-c6ccc(Oc7ccc(F)cc7F)cc6)c(C(N)=O)c5N)C4)c(C)cc3NC(C)=O)ccc2CC1C(=O)NC1CCCc2ccccc21)C(C)(C)C

> <Shape>
0.270

> <Color>
0.092

> <Negative vol penalty>
0.000

$$$$

  -OEChem-04052315383D

 89 97  0     1  0  0  0  0  0999 V2000
  -28.9617  -24.7311   16.8451 C   0  0  0  0  0  0  0  0  0  0  0  0
  -27.7156  -24.8748   17.4468 C   0  0  0  0  0  0  0  0  0  0  0  0
  -28.1251  -14.9160   19.3367 C   0  0  0  0  0  0  0  0  0  0  0  0
  -27.5248  -16.0603   21.3781 C   0  0  0  0  0  0  0  0  0  0  0  0
  -30.0950  -25.2670   17.4552 C   0  0  0  0  0  0  0  0  0  0  0  0
  -27.6023  -25.5536   18.6595 C   0  0  0  0  0  0  0  0  0  0  0  0
  -23.7060  -28.7879   18.7189 C   0  0  0  0  0  0  0  0  0  0  0  0
  -17.3565  -17.5282   22.7835 C   0  0  0  0  0  0  0  0  0  0  0  0
  -18.0937  -16.5566   22.1067 C   0  0  0  0  0  0  0  0  0  0  0  0
  -29.1148  -15.8684   19.0939 C   0  0  0  0  0  0  0  0  0  0  0  0
  -28.5146  -17.0127   21.1353 C   0  0  0  0  0  0  0  0  0  0  0  0
  -22.4343  -28.2494   18.9098 C   0  0  0  0  0  0  0  0  0  0  0  0
  -28.9154  -19.7489   19.1903 C   0  0  0  0  0  0  0  0  0  0  0  0
  -28.5818  -21.0910   19.3721 C   0  0  0  0  0  0  0  0  0  0  0  0
  -22.5200  -28.8867   21.2348 C   0  0  0  0  0  0  0  0  0  0  0  0
  -19.0410  -17.6010   24.5139 C   0  0  0  0  0  0  0  0  0  0  0  0
  -30.3074  -21.2924   21.0510 C   0  0  0  0  0  0  0  0  0  0  0  0
  -27.3301  -15.0119   20.4788 C   0  0  0  0  0  0  0  0  0  0  0  0
  -26.4433  -12.8241   21.4454 C   0  0  0  0  0  0  0  0  0  0  0  0
  -29.9942  -25.9611   18.6713 C   0  0  0  0  0  0  0  0  0  0  0  0
  -24.3999  -29.3712   19.7888 C   0  0  0  0  0  0  0  0  0  0  0  0
  -28.7355  -26.0981   19.2872 C   0  0  0  0  0  0  0  0  0  0  0  0
  -23.7993  -29.4343   21.0543 C   0  0  0  0  0  0  0  0  0  0  0  0
  -17.8302  -18.0505   23.9871 C   0  0  0  0  0  0  0  0  0  0  0  0
  -19.3045  -16.1071   22.6335 C   0  0  0  0  0  0  0  0  0  0  0  0
  -29.3096  -16.9167   19.9932 C   0  0  0  0  0  0  0  0  0  0  0  0
  -21.8423  -28.2961   20.1685 C   0  0  0  0  0  0  0  0  0  0  0  0
  -29.9449  -19.1785   19.9389 C   0  0  0  0  0  0  0  0  0  0  0  0
  -19.7782  -16.6292   23.8371 C   0  0  0  0  0  0  0  0  0  0  0  0
  -29.2779  -21.8628   20.3024 C   0  0  0  0  0  0  0  0  0  0  0  0
  -30.6410  -19.9503   20.8692 C   0  0  0  0  0  0  0  0  0  0  0  0
  -26.3071  -14.0287   20.7299 C   0  0  0  0  0  0  0  0  0  0  0  0
  -25.1945  -12.2540   21.3988 C   0  0  0  0  0  0  0  0  0  0  0  0
  -27.5954  -12.2699   22.0944 C   0  0  0  0  0  0  0  0  0  0  0  0
  -27.1330  -28.7569   21.2911 C   0  0  0  0  0  0  0  0  0  0  0  0
  -26.4593  -31.5319   22.8299 C   0  0  0  0  0  0  0  0  0  0  0  0
  -24.1062  -33.7905   23.8341 C   0  0  0  0  0  0  0  0  0  0  0  0
  -19.7010  -14.5071   20.7284 C   0  0  0  0  0  0  0  0  0  0  0  0
  -31.2540  -26.4819   19.3165 C   0  0  0  0  0  0  0  0  0  0  0  0
  -25.7600  -29.9716   19.5604 C   0  0  0  0  0  0  0  0  0  0  0  0
  -24.4939  -30.0677   22.2311 C   0  0  0  0  0  0  0  0  0  0  0  0
  -30.9957  -27.5116   20.4135 C   0  0  0  0  0  0  0  0  0  0  0  0
  -21.2656  -12.0615   18.6673 C   0  0  0  0  0  0  0  0  0  0  0  0
  -29.8896  -27.0307   21.3473 C   0  0  0  0  0  0  0  0  0  0  0  0
  -22.7477  -12.1746   19.0319 C   0  0  0  0  0  0  0  0  0  0  0  0
  -20.5754  -13.4243   18.6697 C   0  0  0  0  0  0  0  0  0  0  0  0
  -22.2244  -14.3157   20.2683 C   0  0  0  0  0  0  0  0  0  0  0  0
  -28.5685  -26.8493   20.5903 C   0  0  1  0  0  0  0  0  0  0  0  0
  -26.5869  -30.0812   20.8377 C   0  0  1  0  0  0  0  0  0  0  0  0
  -22.9472  -12.9609   20.3424 C   0  0  2  0  0  0  0  0  0  0  0  0
  -23.8539  -35.9379   25.1078 C   0  0  0  0  0  0  0  0  0  0  0  0
  -26.7911  -30.0114   25.4544 C   0  0  0  0  0  0  0  0  0  0  0  0
  -25.6236  -31.8981   26.6144 C   0  0  0  0  0  0  0  0  0  0  0  0
  -27.7887  -32.3047   25.4440 C   0  0  0  0  0  0  0  0  0  0  0  0
  -23.0292  -35.2031   21.4669 C   0  0  0  0  0  0  0  0  0  0  0  0
  -22.1347  -16.9135   23.9844 C   0  0  0  0  0  0  0  0  0  0  0  0
  -17.5516  -23.6469   24.0161 C   0  0  0  0  0  0  0  0  0  0  0  0
  -16.5991  -22.4507   23.9218 C   0  0  0  0  0  0  0  0  0  0  0  0
  -17.9448  -24.2928   22.6831 C   0  0  0  0  0  0  0  0  0  0  0  0
  -16.3092  -21.7938   25.2733 C   0  0  0  0  0  0  0  0  0  0  0  0
  -18.9143  -25.4665   22.8413 C   0  0  0  0  0  0  0  0  0  0  0  0
  -15.3222  -20.6310   25.1222 C   0  0  0  0  0  0  0  0  0  0  0  0
  -19.3157  -26.0996   21.5081 C   0  0  0  0  0  0  0  0  0  0  0  0
  -15.8381  -19.5393   24.1885 C   0  0  0  0  0  0  0  0  0  0  0  0
  -20.3075  -27.2464   21.6513 C   0  0  0  0  0  0  0  0  0  1  0  0
  -25.6984  -31.9039   24.0795 C   0  0  1  0  0  0  0  0  0  0  0  0
  -24.0588  -35.3049   23.7403 C   0  0  2  0  0  0  0  0  0  0  0  0
  -26.4629  -31.5158   25.3766 C   0  0  0  0  0  0  0  0  0  0  0  0
  -25.0696  -14.2140   20.2628 N   0  0  0  0  0  0  0  0  0  0  0  0
  -24.4167  -13.1181   20.6856 N   0  0  0  0  0  0  0  0  0  0  0  0
  -25.8248  -30.6352   21.9586 N   0  0  0  0  0  0  0  0  0  0  0  0
  -20.8042  -14.1093   19.9438 N   0  0  0  0  0  0  0  0  0  0  0  0
  -24.6970  -11.1029   21.8985 N   0  0  0  0  0  0  0  0  0  0  0  0
  -28.7989  -12.9865   22.0457 N   0  0  0  0  0  0  0  0  0  0  0  0
  -20.0418  -15.1198   21.9338 N   0  0  0  0  0  0  0  0  0  0  0  0
  -17.0980  -19.0166   24.6593 N   0  0  0  0  0  0  0  0  0  0  0  0
  -27.9385  -28.1314   20.3587 N   0  0  0  0  0  0  0  0  0  0  0  0
  -25.3981  -33.3271   23.9661 N   0  0  0  0  0  0  0  0  0  0  0  0
  -22.9422  -35.7341   22.8516 N   0  3  0  0  0  0  0  0  0  0  0  0
  -27.5629  -11.1639   22.6854 O   0  0  0  0  0  0  0  0  0  0  0  0
  -26.8460  -28.3344   22.4051 O   0  0  0  0  0  0  0  0  0  0  0  0
  -27.5725  -32.0244   22.6306 O   0  0  0  0  0  0  0  0  0  0  0  0
  -23.0976  -33.0890   23.7979 O   0  0  0  0  0  0  0  0  0  0  0  0
  -18.5397  -14.2938   20.3707 O   0  0  0  0  0  0  0  0  0  0  0  0
  -30.2754  -17.8461   19.7567 O   0  0  0  0  0  0  0  0  0  0  0  0
  -20.9592  -16.2043   24.3691 O   0  0  0  0  0  0  0  0  0  0  0  0
  -20.5927  -27.7669   20.3590 O   0  0  0  0  0  0  0  0  0  1  0  0
  -28.9585  -23.1520   20.4758 F   0  0  0  0  0  0  0  0  0  0  0  0
  -31.6318  -19.4082   21.5905 F   0  0  0  0  0  0  0  0  0  0  0  0
  1  2  1  0  0  0  0
  1  5  2  0  0  0  0
  2  6  2  0  0  0  0
  3 10  2  0  0  0  0
  3 18  1  0  0  0  0
  4 11  1  0  0  0  0
  4 18  2  0  0  0  0
  5 20  1  0  0  0  0
  6 22  1  0  0  0  0
  7 12  2  0  0  0  0
  7 21  1  0  0  0  0
  8  9  2  0  0  0  0
  8 24  1  0  0  0  0
  9 25  1  0  0  0  0
 10 26  1  0  0  0  0
 11 26  2  0  0  0  0
 12 27  1  0  0  0  0
 13 14  2  0  0  0  0
 13 28  1  0  0  0  0
 14 30  1  0  0  0  0
 15 23  1  0  0  0  0
 15 27  2  0  0  0  0
 16 24  2  0  0  0  0
 16 29  1  0  0  0  0
 17 30  2  0  0  0  0
 17 31  1  0  0  0  0
 18 32  1  0  0  0  0
 19 32  1  0  0  0  0
 19 33  2  0  0  0  0
 19 34  1  0  0  0  0
 20 22  2  0  0  0  0
 20 39  1  0  0  0  0
 21 23  2  0  0  0  0
 21 40  1  0  0  0  0
 22 48  1  0  0  0  0
 23 41  1  0  0  0  0
 24 76  1  0  0  0  0
 25 29  2  0  0  0  0
 25 75  1  0  0  0  0
 26 85  1  0  0  0  0
 27 87  1  0  0  0  0
 28 31  2  0  0  0  0
 28 85  1  0  0  0  0
 29 86  1  0  0  0  0
 30 88  1  0  0  0  0
 31 89  1  0  0  0  0
 32 69  2  0  0  0  0
 33 70  1  0  0  0  0
 33 73  1  0  0  0  0
 34 74  1  0  0  0  0
 34 80  2  0  0  0  0
 35 49  1  0  0  0  0
 35 77  1  0  0  0  0
 35 81  2  0  0  0  0
 36 66  1  0  0  0  0
 36 71  1  0  0  0  0
 36 82  2  0  0  0  0
 37 67  1  0  0  0  0
 37 78  1  0  0  0  0
 37 83  2  0  0  0  0
 38 72  1  0  0  0  0
 38 75  1  0  0  0  0
 38 84  2  0  0  0  0
 39 42  1  0  0  0  0
 40 49  1  0  0  0  0
 41 71  1  0  0  0  0
 42 44  1  0  0  0  0
 43 45  1  0  0  0  0
 43 46  1  0  0  0  0
 44 48  1  0  0  0  0
 45 50  1  0  0  0  0
 46 72  1  0  0  0  0
 47 50  1  0  0  0  0
 47 72  1  0  0  0  0
 48 77  1  0  0  0  0
 49 71  1  0  0  0  0
 50 70  1  0  0  0  0
 51 67  1  0  0  0  0
 52 68  1  0  0  0  0
 53 68  1  0  0  0  0
 54 68  1  0  0  0  0
 55 79  1  0  0  0  0
 56 86  1  0  0  0  0
 57 58  1  0  0  0  0
 57 59  1  0  0  0  0
 58 60  1  0  0  0  0
 59 61  1  0  0  0  0
 60 62  1  0  0  0  0
 61 63  1  0  0  0  0
 62 64  1  0  0  0  0
 63 65  1  0  0  0  0
 64 76  1  0  0  0  0
 65 87  1  0  0  0  0
 66 68  1  0  0  0  0
 66 78  1  0  0  0  0
 67 79  1  0  0  0  0
 69 70  1  0  0  0  0
M  CHG  1  79   1
M  ISO  4  38 100  65 101  75 100  87 101
M  END
> <Batch ID>
0009

> <Smiles>
CNC(C)C(=O)NC(C(=O)N1Cc2cc([101O:1][101CH2:1]CCCCCCCCNc3ccc([100NH:0][100C:0](=O)N4CCCC(n5nc(-c6ccc(Oc7ccc(F)cc7F)cc6)c(C(N)=O)c5N)C4)c(OC)c3)ccc2CC1C(=O)NC1CCCc2ccccc21)C(C)(C)C

> <Shape>
0.314

> <Color>
0.090

> <Negative vol penalty>
0.000

$$$$

  -OEChem-04052315383D

100107  0     1  0  0  0  0  0999 V2000
  -20.9481  -12.1911   26.6441 C   0  0  0  0  0  0  0  0  0  0  0  0
  -21.0984  -13.4777   26.1368 C   0  0  0  0  0  0  0  0  0  0  0  0
  -19.6088  -24.2276   20.7595 C   0  0  0  0  0  0  0  0  0  0  0  0
  -21.0142  -24.0092   22.7125 C   0  0  0  0  0  0  0  0  0  0  0  0
  -22.0292  -11.3107   26.6402 C   0  0  0  0  0  0  0  0  0  0  0  0
  -22.3303  -13.8851   25.6262 C   0  0  0  0  0  0  0  0  0  0  0  0
  -25.1609  -18.1048   20.5766 C   0  0  0  0  0  0  0  0  0  0  0  0
  -19.9319  -22.9245   20.3812 C   0  0  0  0  0  0  0  0  0  0  0  0
  -21.3373  -22.7060   22.3343 C   0  0  0  0  0  0  0  0  0  0  0  0
  -26.0953  -19.1289   20.4282 C   0  0  0  0  0  0  0  0  0  0  0  0
  -20.6707  -19.7794   18.7121 C   0  0  0  0  0  0  0  0  0  0  0  0
  -20.9930  -19.5518   17.3743 C   0  0  0  0  0  0  0  0  0  0  0  0
  -27.8711  -17.4965   20.4003 C   0  0  0  0  0  0  0  0  0  0  0  0
  -22.8383  -21.1008   17.5553 C   0  0  0  0  0  0  0  0  0  0  0  0
  -20.1500  -24.7700   21.9251 C   0  0  0  0  0  0  0  0  0  0  0  0
  -18.7456  -26.5239   23.1330 C   0  0  0  0  0  0  0  0  0  0  0  0
  -23.2724  -11.7044   26.1204 C   0  0  0  0  0  0  0  0  0  0  0  0
  -25.5762  -16.7674   20.6490 C   0  0  0  0  0  0  0  0  0  0  0  0
  -23.4295  -13.0097   25.6165 C   0  0  0  0  0  0  0  0  0  0  0  0
  -26.9398  -16.4571   20.5471 C   0  0  0  0  0  0  0  0  0  0  0  0
  -20.7961  -22.1637   21.1686 C   0  0  0  0  0  0  0  0  0  0  0  0
  -27.4508  -18.8251   20.3429 C   0  0  0  0  0  0  0  0  0  0  0  0
  -21.4321  -20.6677   19.4716 C   0  0  0  0  0  0  0  0  0  0  0  0
  -22.0768  -20.2125   16.7959 C   0  0  0  0  0  0  0  0  0  0  0  0
  -22.5159  -21.3284   18.8932 C   0  0  0  0  0  0  0  0  0  0  0  0
  -19.8171  -26.1163   22.3160 C   0  0  0  0  0  0  0  0  0  0  0  0
  -18.8657  -27.8905   23.2004 C   0  0  0  0  0  0  0  0  0  0  0  0
  -17.7322  -25.7376   23.7737 C   0  0  0  0  0  0  0  0  0  0  0  0
  -25.3800  -14.4733   22.8404 C   0  0  0  0  0  0  0  0  0  0  0  0
  -26.6401  -12.6448   20.4759 C   0  0  0  0  0  0  0  0  0  0  0  0
  -29.8314  -27.6291   23.0366 C   0  0  0  0  0  0  0  0  0  0  0  0
  -29.3937  -25.3555   17.2724 C   0  0  0  0  0  0  0  0  0  0  0  0
  -30.1109  -25.1109   19.6951 C   0  0  0  0  0  0  0  0  0  0  0  0
  -28.4616  -12.4869   17.5942 C   0  0  0  0  0  0  0  0  0  0  0  0
  -26.5940  -25.5688   18.7864 C   0  0  0  0  0  0  0  0  0  0  0  0
  -23.5130  -31.6115   22.5611 C   0  0  0  0  0  0  0  0  0  0  0  0
  -24.4249  -10.7333   26.1808 C   0  0  0  0  0  0  0  0  0  0  0  0
  -24.5537  -15.6724   20.7824 C   0  0  0  0  0  0  0  0  0  0  0  0
  -27.4357  -15.0359   20.5991 C   0  0  0  0  0  0  0  0  0  0  0  0
  -25.5944  -11.1192   25.2788 C   0  0  0  0  0  0  0  0  0  0  0  0
  -20.4791  -31.6355   20.6978 C   0  0  0  0  0  0  0  0  0  0  0  0
  -25.9287  -12.5985   25.4416 C   0  0  0  0  0  0  0  0  0  0  0  0
  -19.8688  -30.2605   20.9750 C   0  0  0  0  0  0  0  0  0  0  0  0
  -22.0015  -31.5676   20.5990 C   0  0  0  0  0  0  0  0  0  0  0  0
  -22.0592  -29.5619   22.0299 C   0  0  0  0  0  0  0  0  0  0  0  0
  -24.7433  -13.4804   25.0312 C   0  0  1  0  0  0  0  0  0  0  0  0
  -25.1300  -14.3840   21.3615 C   0  0  1  0  0  0  0  0  0  0  0  0
  -20.5299  -29.5889   22.1936 C   0  0  2  0  0  0  0  0  0  0  0  0
  -29.3558  -10.8491   15.9163 C   0  0  0  0  0  0  0  0  0  0  0  0
  -32.3556  -25.6688   23.6435 C   0  0  0  0  0  0  0  0  0  0  0  0
  -32.3916  -23.7459   21.2955 C   0  0  0  0  0  0  0  0  0  0  0  0
  -25.9386  -27.9974   18.5797 C   0  0  0  0  0  0  0  0  0  0  0  0
  -24.1779  -26.2574   18.9093 C   0  0  0  0  0  0  0  0  0  0  0  0
  -25.7164  -26.8189   20.7949 C   0  0  0  0  0  0  0  0  0  0  0  0
  -28.8188  -11.8194   22.4462 C   0  0  0  0  0  0  0  0  0  0  0  0
  -30.1620  -10.9863   20.5046 C   0  0  0  0  0  0  0  0  0  0  0  0
  -27.9462   -9.9616   21.0174 C   0  0  0  0  0  0  0  0  0  0  0  0
  -26.9217  -13.7258   15.3913 C   0  0  0  0  0  0  0  0  0  0  0  0
  -28.4445  -27.9382   23.5760 C   0  0  0  0  0  0  0  0  0  0  0  0
  -28.1197  -29.4307   23.6186 C   0  0  0  0  0  0  0  0  0  0  0  0
  -26.6898  -29.7025   24.0974 C   0  0  0  0  0  0  0  0  0  0  0  0
  -26.4018  -31.2061   24.1536 C   0  0  0  0  0  0  0  0  0  0  0  0
  -29.1970  -22.0499   20.5245 C   0  0  0  0  0  0  0  0  0  0  0  0
  -24.9662  -31.5102   24.5704 C   0  0  0  0  0  0  0  0  0  0  0  0
  -28.9404  -23.4421   21.0853 C   0  0  0  0  0  0  0  0  0  0  0  0
  -28.0406  -21.0887   20.7719 C   0  0  0  0  0  0  0  0  0  1  0  0
  -28.0376  -12.2875   20.0303 C   0  0  1  0  0  0  0  0  0  0  0  0
  -28.9917  -24.9384   18.6728 C   0  0  1  0  0  0  0  0  0  0  0  0
  -28.2050  -11.7751   16.2781 C   0  0  2  0  0  0  0  0  0  0  0  0
  -31.3148  -25.7003   22.5252 C   0  0  1  0  0  0  0  0  0  0  0  0
  -31.1022  -24.3121   21.8885 C   0  0  1  0  0  0  0  0  0  0  0  0
  -25.6187  -26.6626   19.2698 C   0  0  0  0  0  0  0  0  0  0  0  0
  -28.7323  -11.2907   21.0006 C   0  0  0  0  0  0  0  0  0  0  0  0
  -20.5630  -27.1410   21.8945 N   0  0  0  0  0  0  0  0  0  0  0  0
  -19.9592  -28.2061   22.4487 N   0  0  0  0  0  0  0  0  0  0  0  0
  -26.3977  -14.0009   20.7366 N   0  0  0  0  0  0  0  0  0  0  0  0
  -22.5662  -30.9214   21.7862 N   0  0  0  0  0  0  0  0  0  0  0  0
  -18.1416  -28.8410   23.8286 N   0  0  0  0  0  0  0  0  0  0  0  0
  -17.7561  -24.3470   23.6000 N   0  0  0  0  0  0  0  0  0  0  0  0
  -29.7207  -24.2967   16.4553 N   0  0  0  0  0  0  0  0  0  0  0  0
  -24.6534  -13.5675   23.5894 N   0  0  0  0  0  0  0  0  0  0  0  0
  -27.9174  -11.8018   18.6599 N   0  0  0  0  0  0  0  0  0  0  0  0
  -27.9302  -25.8412   19.0457 N   0  0  0  0  0  0  0  0  0  0  0  0
  -30.0786  -26.2645   23.0176 N   0  0  0  0  0  0  0  0  0  0  0  0
  -23.9927  -30.9295   23.6726 N   0  0  0  0  0  0  0  0  0  0  0  0
  -30.0472  -24.3319   20.8672 N   0  0  0  0  0  0  0  0  0  0  0  0
  -28.0352  -12.7659   15.1779 N   0  3  0  0  0  0  0  0  0  0  0  0
  -16.8226  -26.2543   24.4659 O   0  0  0  0  0  0  0  0  0  0  0  0
  -26.1744  -15.3016   23.2700 O   0  0  0  0  0  0  0  0  0  0  0  0
  -25.7929  -11.7545   20.5816 O   0  0  0  0  0  0  0  0  0  0  0  0
  -30.6116  -28.4942   22.6483 O   0  0  0  0  0  0  0  0  0  0  0  0
  -29.3839  -26.5257   16.8954 O   0  0  0  0  0  0  0  0  0  0  0  0
  -31.0446  -25.8878   19.4693 O   0  0  0  0  0  0  0  0  0  0  0  0
  -29.0858  -13.5429   17.6697 O   0  0  0  0  0  0  0  0  0  0  0  0
  -26.2055  -24.5453   18.2226 O   0  0  0  0  0  0  0  0  0  0  0  0
  -23.8979  -32.7530   22.2860 O   0  0  0  0  0  0  0  0  0  0  0  0
  -21.1113  -20.8920   20.8000 O   0  0  0  0  0  0  0  0  0  0  0  0
  -28.3649  -19.8228   20.1986 O   0  0  0  0  0  0  0  0  0  1  0  0
  -22.3871  -19.9927   15.5115 F   0  0  0  0  0  0  0  0  0  0  0  0
  -23.2518  -22.1821   19.6181 F   0  0  0  0  0  0  0  0  0  0  0  0
  1  2  1  0  0  0  0
  1  5  2  0  0  0  0
  2  6  2  0  0  0  0
  3  8  2  0  0  0  0
  3 15  1  0  0  0  0
  4  9  1  0  0  0  0
  4 15  2  0  0  0  0
  5 17  1  0  0  0  0
  6 19  1  0  0  0  0
  7 10  2  0  0  0  0
  7 18  1  0  0  0  0
  8 21  1  0  0  0  0
  9 21  2  0  0  0  0
 10 22  1  0  0  0  0
 11 12  2  0  0  0  0
 11 23  1  0  0  0  0
 12 24  1  0  0  0  0
 13 20  1  0  0  0  0
 13 22  2  0  0  0  0
 14 24  2  0  0  0  0
 14 25  1  0  0  0  0
 15 26  1  0  0  0  0
 16 26  1  0  0  0  0
 16 27  2  0  0  0  0
 16 28  1  0  0  0  0
 17 19  2  0  0  0  0
 17 37  1  0  0  0  0
 18 20  2  0  0  0  0
 18 38  1  0  0  0  0
 19 46  1  0  0  0  0
 20 39  1  0  0  0  0
 21 97  1  0  0  0  0
 22 98  1  0  0  0  0
 23 25  2  0  0  0  0
 23 97  1  0  0  0  0
 24 99  1  0  0  0  0
 25100  1  0  0  0  0
 26 74  2  0  0  0  0
 27 75  1  0  0  0  0
 27 78  1  0  0  0  0
 28 79  1  0  0  0  0
 28 88  2  0  0  0  0
 29 47  1  0  0  0  0
 29 81  1  0  0  0  0
 29 89  2  0  0  0  0
 30 67  1  0  0  0  0
 30 76  1  0  0  0  0
 30 90  2  0  0  0  0
 31 59  1  0  0  0  0
 31 84  1  0  0  0  0
 31 91  2  0  0  0  0
 32 68  1  0  0  0  0
 32 80  1  0  0  0  0
 32 92  2  0  0  0  0
 33 68  1  0  0  0  0
 33 86  1  0  0  0  0
 33 93  2  0  0  0  0
 34 69  1  0  0  0  0
 34 82  1  0  0  0  0
 34 94  2  0  0  0  0
 35 72  1  0  0  0  0
 35 83  1  0  0  0  0
 35 95  2  0  0  0  0
 36 77  1  0  0  0  0
 36 85  1  0  0  0  0
 36 96  2  0  0  0  0
 37 40  1  0  0  0  0
 38 47  1  0  0  0  0
 39 76  1  0  0  0  0
 40 42  1  0  0  0  0
 41 43  1  0  0  0  0
 41 44  1  0  0  0  0
 42 46  1  0  0  0  0
 43 48  1  0  0  0  0
 44 77  1  0  0  0  0
 45 48  1  0  0  0  0
 45 77  1  0  0  0  0
 46 81  1  0  0  0  0
 47 76  1  0  0  0  0
 48 75  1  0  0  0  0
 49 69  1  0  0  0  0
 50 70  1  0  0  0  0
 51 71  1  0  0  0  0
 52 72  1  0  0  0  0
 53 72  1  0  0  0  0
 54 72  1  0  0  0  0
 55 73  1  0  0  0  0
 56 73  1  0  0  0  0
 57 73  1  0  0  0  0
 58 87  1  0  0  0  0
 59 60  1  0  0  0  0
 60 61  1  0  0  0  0
 61 62  1  0  0  0  0
 62 64  1  0  0  0  0
 63 65  1  0  0  0  0
 63 66  1  0  0  0  0
 64 85  1  0  0  0  0
 65 86  1  0  0  0  0
 66 98  1  0  0  0  0
 67 73  1  0  0  0  0
 67 82  1  0  0  0  0
 68 83  1  0  0  0  0
 69 87  1  0  0  0  0
 70 71  1  0  0  0  0
 70 84  1  0  0  0  0
 71 86  1  0  0  0  0
 74 75  1  0  0  0  0
M  CHG  1  87   1
M  ISO  4  36 100  66 101  85 100  98 101
M  END
> <Batch ID>
0009

> <Smiles>
CNC(C)C(=O)NC(C(=O)N1Cc2cc([101O:1][101CH2:1]CCN(C(=O)C(NC(=O)C(C)(C)C)C(N)=O)C(C)C(C)NC(=O)CCCCC[100NH:0][100C:0](=O)N3CCCC(n4nc(-c5ccc(Oc6ccc(F)cc6F)cc5)c(C(N)=O)c4N)C3)ccc2CC1C(=O)NC1CCCc2ccccc21)C(C)(C)C

> <Shape>
0.244

> <Color>
0.045

> <Negative vol penalty>
0.000

$$$$

  -OEChem-04052315383D

 81 89  0     1  0  0  0  0  0999 V2000
  -32.3973  -24.3018   24.1956 C   0  0  0  0  0  0  0  0  0  0  0  0
  -31.1048  -24.3811   23.6870 C   0  0  0  0  0  0  0  0  0  0  0  0
  -29.9764  -27.6734   18.5293 C   0  0  0  0  0  0  0  0  0  0  0  0
  -29.9753  -26.9961   20.8485 C   0  0  0  0  0  0  0  0  0  0  0  0
  -33.2447  -23.2733   23.7855 C   0  0  0  0  0  0  0  0  0  0  0  0
  -30.6593  -23.4325   22.7672 C   0  0  0  0  0  0  0  0  0  0  0  0
  -25.9998  -21.7486   23.8157 C   0  0  0  0  0  0  0  0  0  0  0  0
  -17.9771  -27.1128   22.3708 C   0  0  0  0  0  0  0  0  0  0  0  0
  -31.3692  -27.6014   18.5090 C   0  0  0  0  0  0  0  0  0  0  0  0
  -31.3681  -26.9241   20.8281 C   0  0  0  0  0  0  0  0  0  0  0  0
  -24.9314  -22.5750   23.4701 C   0  0  0  0  0  0  0  0  0  0  0  0
  -19.0658  -26.3132   22.7185 C   0  0  0  0  0  0  0  0  0  0  0  0
  -34.9053  -27.2466   17.7443 C   0  0  0  0  0  0  0  0  0  0  0  0
  -35.5065  -26.6223   16.6514 C   0  0  0  0  0  0  0  0  0  0  0  0
  -24.5610  -21.2557   21.4848 C   0  0  0  0  0  0  0  0  0  0  0  0
  -19.4327  -29.0364   22.2364 C   0  0  0  0  0  0  0  0  0  0  0  0
  -34.3386  -24.5742   17.1789 C   0  0  0  0  0  0  0  0  0  0  0  0
  -29.2794  -27.3708   19.6991 C   0  0  0  0  0  0  0  0  0  0  0  0
  -26.9311  -26.4141   19.4195 C   0  0  0  0  0  0  0  0  0  0  0  0
  -32.8060  -22.3060   22.8675 C   0  0  0  0  0  0  0  0  0  0  0  0
  -26.3643  -20.6743   22.9915 C   0  0  0  0  0  0  0  0  0  0  0  0
  -31.5020  -22.3908   22.3435 C   0  0  0  0  0  0  0  0  0  0  0  0
  -25.6328  -20.4156   21.8235 C   0  0  0  0  0  0  0  0  0  0  0  0
  -18.1605  -28.4744   22.1296 C   0  0  0  0  0  0  0  0  0  0  0  0
  -20.5214  -28.2368   22.5842 C   0  0  0  0  0  0  0  0  0  0  0  0
  -32.0651  -27.2267   19.6583 C   0  0  0  0  0  0  0  0  0  0  0  0
  -24.2137  -22.3303   22.3031 C   0  0  0  0  0  0  0  0  0  0  0  0
  -20.3380  -26.8752   22.8253 C   0  0  0  0  0  0  0  0  0  0  0  0
  -34.0208  -26.5347   18.5546 C   0  0  0  0  0  0  0  0  0  0  0  0
  -35.2232  -25.2861   16.3687 C   0  0  0  0  0  0  0  0  0  0  0  0
  -33.7375  -25.1985   18.2718 C   0  0  0  0  0  0  0  0  0  0  0  0
  -27.8406  -27.4455   19.7210 C   0  0  0  0  0  0  0  0  0  0  0  0
  -25.6942  -26.9872   19.5872 C   0  0  0  0  0  0  0  0  0  0  0  0
  -27.1820  -25.0592   19.0235 C   0  0  0  0  0  0  0  0  0  0  0  0
  -28.9684  -19.8937   21.3443 C   0  0  0  0  0  0  0  0  0  0  0  0
  -27.3341  -17.1424   20.8137 C   0  0  0  0  0  0  0  0  0  0  0  0
  -24.3202  -15.5516   20.6335 C   0  0  0  0  0  0  0  0  0  0  0  0
  -22.1468  -30.1587   22.4786 C   0  0  0  0  0  0  0  0  0  0  0  0
  -33.7738  -21.2401   22.4181 C   0  0  0  0  0  0  0  0  0  0  0  0
  -27.5025  -19.7762   23.3920 C   0  0  0  0  0  0  0  0  0  0  0  0
  -25.9710  -19.2630   20.9149 C   0  0  0  0  0  0  0  0  0  0  0  0
  -33.1000  -20.0588   21.7248 C   0  0  0  0  0  0  0  0  0  0  0  0
  -24.3690  -31.8269   20.2525 C   0  0  0  0  0  0  0  0  0  0  0  0
  -32.0876  -20.5507   20.6953 C   0  0  0  0  0  0  0  0  0  0  0  0
  -25.3955  -30.7509   19.8910 C   0  0  0  0  0  0  0  0  0  0  0  0
  -23.9222  -31.7178   21.7093 C   0  0  0  0  0  0  0  0  0  0  0  0
  -24.4652  -29.3152   21.7511 C   0  0  0  0  0  0  0  0  0  0  0  0
  -30.9738  -21.3664   21.3628 C   0  0  1  0  0  0  0  0  0  0  0  0
  -28.1098  -19.0200   22.2145 C   0  0  1  0  0  0  0  0  0  0  0  0
  -24.8967  -29.3443   20.2758 C   0  0  2  0  0  0  0  0  0  0  0  0
  -23.3013  -13.3116   20.1421 C   0  0  0  0  0  0  0  0  0  0  0  0
  -27.8020  -17.5866   17.8315 C   0  0  0  0  0  0  0  0  0  0  0  0
  -26.0050  -15.9054   17.3701 C   0  0  0  0  0  0  0  0  0  0  0  0
  -28.0706  -15.2181   18.5882 C   0  0  0  0  0  0  0  0  0  0  0  0
  -23.1484  -15.3603   23.3445 C   0  0  0  0  0  0  0  0  0  0  0  0
  -22.8669  -24.2132   22.8480 C   0  0  0  0  0  0  0  0  0  1  0  0
  -21.6800  -24.9830   22.3017 C   0  0  0  0  0  0  0  0  0  0  0  0
  -26.3609  -16.6624   19.7642 C   0  0  1  0  0  0  0  0  0  0  0  0
  -23.8376  -14.2382   21.2222 C   0  0  2  0  0  0  0  0  0  0  0  0
  -27.0542  -16.3661   18.4044 C   0  0  0  0  0  0  0  0  0  0  0  0
  -27.2333  -28.5873   20.0546 N   0  0  0  0  0  0  0  0  0  0  0  0
  -25.9289  -28.2769   19.9638 N   0  0  0  0  0  0  0  0  0  0  0  0
  -27.0962  -18.4173   21.3465 N   0  0  0  0  0  0  0  0  0  0  0  0
  -23.4588  -30.3593   21.9999 N   0  0  0  0  0  0  0  0  0  0  0  0
  -17.0595  -29.2823   21.7771 N   0  0  0  0  0  0  0  0  0  0  0  0
  -24.4396  -26.5087   19.4476 N   0  0  0  0  0  0  0  0  0  0  0  0
  -28.5119  -24.6346   18.8994 N   0  0  0  0  0  0  0  0  0  0  0  0
  -21.8075  -28.8224   22.6882 N   0  0  0  0  0  0  0  0  0  0  0  0
  -30.0230  -20.4883   22.0104 N   0  0  0  0  0  0  0  0  0  0  0  0
  -25.6677  -15.5169   20.3436 N   0  0  0  0  0  0  0  0  0  0  0  0
  -22.7520  -14.4825   22.2134 N   0  3  0  0  0  0  0  0  0  0  0  0
  -26.2543  -24.2536   18.7708 O   0  0  0  0  0  0  0  0  0  0  0  0
  -28.6952  -20.0179   20.1562 O   0  0  0  0  0  0  0  0  0  0  0  0
  -28.2667  -16.4101   21.1536 O   0  0  0  0  0  0  0  0  0  0  0  0
  -23.5753  -16.5111   20.4460 O   0  0  0  0  0  0  0  0  0  0  0  0
  -21.3715  -31.1007   22.6614 O   0  0  0  0  0  0  0  0  0  0  0  0
  -33.4242  -27.1561   19.6387 O   0  0  0  0  0  0  0  0  0  0  0  0
  -23.1708  -23.1357   21.9631 O   0  0  0  0  0  0  0  0  0  1  0  0
  -21.3933  -26.0724   23.1701 O   0  0  0  0  0  0  0  0  0  0  0  0
  -35.7994  -24.6872   15.3182 F   0  0  0  0  0  0  0  0  0  0  0  0
  -32.8877  -24.5097   19.0459 F   0  0  0  0  0  0  0  0  0  0  0  0
  1  2  1  0  0  0  0
  1  5  2  0  0  0  0
  2  6  2  0  0  0  0
  3  9  2  0  0  0  0
  3 18  1  0  0  0  0
  4 10  1  0  0  0  0
  4 18  2  0  0  0  0
  5 20  1  0  0  0  0
  6 22  1  0  0  0  0
  7 11  2  0  0  0  0
  7 21  1  0  0  0  0
  8 12  2  0  0  0  0
  8 24  1  0  0  0  0
  9 26  1  0  0  0  0
 10 26  2  0  0  0  0
 11 27  1  0  0  0  0
 12 28  1  0  0  0  0
 13 14  2  0  0  0  0
 13 29  1  0  0  0  0
 14 30  1  0  0  0  0
 15 23  1  0  0  0  0
 15 27  2  0  0  0  0
 16 24  2  0  0  0  0
 16 25  1  0  0  0  0
 17 30  2  0  0  0  0
 17 31  1  0  0  0  0
 18 32  1  0  0  0  0
 19 32  1  0  0  0  0
 19 33  2  0  0  0  0
 19 34  1  0  0  0  0
 20 22  2  0  0  0  0
 20 39  1  0  0  0  0
 21 23  2  0  0  0  0
 21 40  1  0  0  0  0
 22 48  1  0  0  0  0
 23 41  1  0  0  0  0
 24 65  1  0  0  0  0
 25 28  2  0  0  0  0
 25 68  1  0  0  0  0
 26 77  1  0  0  0  0
 27 78  1  0  0  0  0
 28 79  1  0  0  0  0
 29 31  2  0  0  0  0
 29 77  1  0  0  0  0
 30 80  1  0  0  0  0
 31 81  1  0  0  0  0
 32 61  2  0  0  0  0
 33 62  1  0  0  0  0
 33 66  1  0  0  0  0
 34 67  1  0  0  0  0
 34 72  2  0  0  0  0
 35 49  1  0  0  0  0
 35 69  1  0  0  0  0
 35 73  2  0  0  0  0
 36 58  1  0  0  0  0
 36 63  1  0  0  0  0
 36 74  2  0  0  0  0
 37 59  1  0  0  0  0
 37 70  1  0  0  0  0
 37 75  2  0  0  0  0
 38 64  1  0  0  0  0
 38 68  1  0  0  0  0
 38 76  2  0  0  0  0
 39 42  1  0  0  0  0
 40 49  1  0  0  0  0
 41 63  1  0  0  0  0
 42 44  1  0  0  0  0
 43 45  1  0  0  0  0
 43 46  1  0  0  0  0
 44 48  1  0  0  0  0
 45 50  1  0  0  0  0
 46 64  1  0  0  0  0
 47 50  1  0  0  0  0
 47 64  1  0  0  0  0
 48 69  1  0  0  0  0
 49 63  1  0  0  0  0
 50 62  1  0  0  0  0
 51 59  1  0  0  0  0
 52 60  1  0  0  0  0
 53 60  1  0  0  0  0
 54 60  1  0  0  0  0
 55 71  1  0  0  0  0
 56 57  1  0  0  0  0
 56 78  1  0  0  0  0
 57 79  1  0  0  0  0
 58 60  1  0  0  0  0
 58 70  1  0  0  0  0
 59 71  1  0  0  0  0
 61 62  1  0  0  0  0
M  CHG  1  71   1
M  ISO  4  38 100  56 101  68 100  78 101
M  END
> <Batch ID>
0009

> <Smiles>
CNC(C)C(=O)NC(C(=O)N1Cc2cc([101O:1][101CH2:1]COc3ccc(N)cc3[100NH:0][100C:0](=O)N3CCCC(n4nc(-c5ccc(Oc6ccc(F)cc6F)cc5)c(C(N)=O)c4N)C3)ccc2CC1C(=O)NC1CCCc2ccccc21)C(C)(C)C

> <Shape>
0.201

> <Color>
0.077

> <Negative vol penalty>
0.000

$$$$

  -OEChem-04052315383D

 87 95  0     1  0  0  0  0  0999 V2000
  -29.0183  -31.9528   25.4845 C   0  0  0  0  0  0  0  0  0  0  0  0
  -29.5201  -30.7168   25.8795 C   0  0  0  0  0  0  0  0  0  0  0  0
  -23.1897   -9.8167   19.9327 C   0  0  0  0  0  0  0  0  0  0  0  0
  -23.5614  -10.0023   22.3127 C   0  0  0  0  0  0  0  0  0  0  0  0
  -27.6406  -32.1605   25.4335 C   0  0  0  0  0  0  0  0  0  0  0  0
  -28.6444  -29.6881   26.2248 C   0  0  0  0  0  0  0  0  0  0  0  0
  -29.9702  -25.2436   24.1917 C   0  0  0  0  0  0  0  0  0  0  0  0
  -34.3188  -18.6829   24.1872 C   0  0  0  0  0  0  0  0  0  0  0  0
  -33.9743  -17.4359   23.6659 C   0  0  0  0  0  0  0  0  0  0  0  0
  -22.4221   -8.6710   20.1419 C   0  0  0  0  0  0  0  0  0  0  0  0
  -22.7937   -8.8566   22.5220 C   0  0  0  0  0  0  0  0  0  0  0  0
  -31.0142  -24.5501   24.8025 C   0  0  0  0  0  0  0  0  0  0  0  0
  -23.1933   -5.5091   22.2667 C   0  0  0  0  0  0  0  0  0  0  0  0
  -23.6886   -4.5495   23.1495 C   0  0  0  0  0  0  0  0  0  0  0  0
  -29.4120  -23.1388   25.9251 C   0  0  0  0  0  0  0  0  0  0  0  0
  -35.9778  -17.6353   25.5969 C   0  0  0  0  0  0  0  0  0  0  0  0
  -21.7283   -4.8140   24.5367 C   0  0  0  0  0  0  0  0  0  0  0  0
  -23.7594  -10.4823   21.0181 C   0  0  0  0  0  0  0  0  0  0  0  0
  -24.1005  -12.9982   20.7695 C   0  0  0  0  0  0  0  0  0  0  0  0
  -26.7474  -31.1308   25.7691 C   0  0  0  0  0  0  0  0  0  0  0  0
  -28.6368  -24.8963   24.4519 C   0  0  0  0  0  0  0  0  0  0  0  0
  -27.2534  -29.8826   26.1796 C   0  0  0  0  0  0  0  0  0  0  0  0
  -28.3530  -23.8278   25.3144 C   0  0  0  0  0  0  0  0  0  0  0  0
  -35.3207  -18.7826   25.1527 C   0  0  0  0  0  0  0  0  0  0  0  0
  -34.6314  -16.2885   24.1101 C   0  0  0  0  0  0  0  0  0  0  0  0
  -22.2241   -8.1910   21.4365 C   0  0  0  0  0  0  0  0  0  0  0  0
  -30.7351  -23.4995   25.6716 C   0  0  0  0  0  0  0  0  0  0  0  0
  -21.9656   -6.1213   22.5189 C   0  0  0  0  0  0  0  0  0  0  0  0
  -22.9561   -4.2019   24.2845 C   0  0  0  0  0  0  0  0  0  0  0  0
  -35.6332  -16.3882   25.0756 C   0  0  0  0  0  0  0  0  0  0  0  0
  -21.2330   -5.7737   23.6539 C   0  0  0  0  0  0  0  0  0  0  0  0
  -24.5529  -11.6655   20.8026 C   0  0  0  0  0  0  0  0  0  0  0  0
  -25.2328  -13.7396   20.5357 C   0  0  0  0  0  0  0  0  0  0  0  0
  -22.7751  -13.5194   20.9354 C   0  0  0  0  0  0  0  0  0  0  0  0
  -26.1397  -26.3878   25.7340 C   0  0  0  0  0  0  0  0  0  0  0  0
  -24.5623  -23.7046   24.8205 C   0  0  0  0  0  0  0  0  0  0  0  0
  -33.3133  -14.7481   22.6160 C   0  0  0  0  0  0  0  0  0  0  0  0
  -24.7037  -20.3867   24.0338 C   0  0  0  0  0  0  0  0  0  0  0  0
  -30.9266  -12.6965   21.6971 C   0  0  0  0  0  0  0  0  0  0  0  0
  -25.2669  -31.4172   25.7443 C   0  0  0  0  0  0  0  0  0  0  0  0
  -27.5227  -25.6369   23.7644 C   0  0  0  0  0  0  0  0  0  0  0  0
  -26.9390  -23.4024   25.6113 C   0  0  0  0  0  0  0  0  0  0  0  0
  -24.4026  -30.1591   25.7659 C   0  0  0  0  0  0  0  0  0  0  0  0
  -29.5294  -13.4559   18.4462 C   0  0  0  0  0  0  0  0  0  0  0  0
  -24.9002  -29.1879   26.8317 C   0  0  0  0  0  0  0  0  0  0  0  0
  -28.0400  -13.2054   18.6892 C   0  0  0  0  0  0  0  0  0  0  0  0
  -30.3899  -12.4453   19.1988 C   0  0  0  0  0  0  0  0  0  0  0  0
  -28.6438  -12.1372   20.9104 C   0  0  0  0  0  0  0  0  0  0  0  0
  -26.3352  -28.7343   26.5380 C   0  0  1  0  0  0  0  0  0  0  0  0
  -26.1909  -25.5307   24.5009 C   0  0  1  0  0  0  0  0  0  0  0  0
  -27.7210  -13.1402   20.1946 C   0  0  2  0  0  0  0  0  0  0  0  0
  -23.2456  -18.4570   23.3647 C   0  0  0  0  0  0  0  0  0  0  0  0
  -23.5747  -23.4566   27.6968 C   0  0  0  0  0  0  0  0  0  0  0  0
  -22.9481  -21.0834   27.2034 C   0  0  0  0  0  0  0  0  0  0  0  0
  -21.8540  -22.9457   25.9553 C   0  0  0  0  0  0  0  0  0  0  0  0
  -36.7191  -20.1399   26.6897 C   0  0  0  0  0  0  0  0  0  0  0  0
  -26.1324  -20.0479   21.4642 C   0  0  0  0  0  0  0  0  0  0  0  0
  -33.2582  -13.2578   22.3337 C   0  0  0  0  0  0  0  0  0  0  0  0
  -33.6929  -21.4452   25.9550 C   0  0  0  0  0  0  0  0  0  0  0  0
  -35.0178  -21.2449   25.2292 C   0  0  0  0  0  0  0  0  0  0  0  0
  -32.9833  -22.7330   25.5535 C   0  0  0  0  0  0  0  0  0  1  0  0
  -24.2652  -22.3693   25.4591 C   0  0  1  0  0  0  0  0  0  0  0  0
  -24.1195  -19.6008   22.8739 C   0  0  2  0  0  0  0  0  0  0  0  0
  -23.1872  -22.4727   26.5748 C   0  0  0  0  0  0  0  0  0  0  0  0
  -25.8700  -11.5631   20.6054 N   0  0  0  0  0  0  0  0  0  0  0  0
  -26.2548  -12.8409   20.4461 N   0  0  0  0  0  0  0  0  0  0  0  0
  -25.8841  -24.1615   24.9195 N   0  0  0  0  0  0  0  0  0  0  0  0
  -30.0496  -12.4463   20.6286 N   0  0  0  0  0  0  0  0  0  0  0  0
  -25.4440  -15.0660   20.4000 N   0  0  0  0  0  0  0  0  0  0  0  0
  -21.7272  -12.6184   21.1686 N   0  0  0  0  0  0  0  0  0  0  0  0
  -34.2842  -15.0425   23.5869 N   0  0  0  0  0  0  0  0  0  0  0  0
  -26.3449  -27.7329   25.4932 N   0  0  0  0  0  0  0  0  0  0  0  0
  -23.9128  -21.4652   24.3698 N   0  0  0  0  0  0  0  0  0  0  0  0
  -32.2417  -12.9741   21.3451 N   0  0  0  0  0  0  0  0  0  0  0  0
  -35.6674  -20.0364   25.6763 N   0  0  3  0  0  0  0  0  0  0  0  0
  -25.2099  -19.0315   22.0326 N   0  3  0  0  0  0  0  0  0  0  0  0
  -22.5249  -14.7464   20.8623 O   0  0  0  0  0  0  0  0  0  0  0  0
  -25.9281  -25.8674   26.8231 O   0  0  0  0  0  0  0  0  0  0  0  0
  -23.6566  -24.3162   24.2484 O   0  0  0  0  0  0  0  0  0  0  0  0
  -32.6039  -15.5521   22.0198 O   0  0  0  0  0  0  0  0  0  0  0  0
  -25.7544  -20.0731   24.5890 O   0  0  0  0  0  0  0  0  0  0  0  0
  -30.5631  -12.6791   22.8781 O   0  0  0  0  0  0  0  0  0  0  0  0
  -21.4749   -7.0732   21.6411 O   0  0  0  0  0  0  0  0  0  0  0  0
  -31.7522  -22.8214   26.2696 O   0  0  0  0  0  0  0  0  0  1  0  0
  -23.4311   -3.2792   25.1314 F   0  0  0  0  0  0  0  0  0  0  0  0
  -36.2711  -15.2919   25.5100 F   0  0  0  0  0  0  0  0  0  0  0  0
  -20.0524   -6.3574   23.9009 F   0  0  0  0  0  0  0  0  0  0  0  0
  1  2  1  0  0  0  0
  1  5  2  0  0  0  0
  2  6  2  0  0  0  0
  3 10  2  0  0  0  0
  3 18  1  0  0  0  0
  4 11  1  0  0  0  0
  4 18  2  0  0  0  0
  5 20  1  0  0  0  0
  6 22  1  0  0  0  0
  7 12  2  0  0  0  0
  7 21  1  0  0  0  0
  8  9  2  0  0  0  0
  8 24  1  0  0  0  0
  9 25  1  0  0  0  0
 10 26  1  0  0  0  0
 11 26  2  0  0  0  0
 12 27  1  0  0  0  0
 13 14  2  0  0  0  0
 13 28  1  0  0  0  0
 14 29  1  0  0  0  0
 15 23  1  0  0  0  0
 15 27  2  0  0  0  0
 16 24  2  0  0  0  0
 16 30  1  0  0  0  0
 17 29  2  0  0  0  0
 17 31  1  0  0  0  0
 18 32  1  0  0  0  0
 19 32  1  0  0  0  0
 19 33  2  0  0  0  0
 19 34  1  0  0  0  0
 20 22  2  0  0  0  0
 20 40  1  0  0  0  0
 21 23  2  0  0  0  0
 21 41  1  0  0  0  0
 22 49  1  0  0  0  0
 23 42  1  0  0  0  0
 24 75  1  0  0  0  0
 25 30  2  0  0  0  0
 25 71  1  0  0  0  0
 26 83  1  0  0  0  0
 27 84  1  0  0  0  0
 28 31  2  0  0  0  0
 28 83  1  0  0  0  0
 29 85  1  0  0  0  0
 30 86  1  0  0  0  0
 31 87  1  0  0  0  0
 32 65  2  0  0  0  0
 33 66  1  0  0  0  0
 33 69  1  0  0  0  0
 34 70  1  0  0  0  0
 34 77  2  0  0  0  0
 35 50  1  0  0  0  0
 35 72  1  0  0  0  0
 35 78  2  0  0  0  0
 36 62  1  0  0  0  0
 36 67  1  0  0  0  0
 36 79  2  0  0  0  0
 37 58  1  0  0  0  0
 37 71  1  0  0  0  0
 37 80  2  0  0  0  0
 38 63  1  0  0  0  0
 38 73  1  0  0  0  0
 38 81  2  0  0  0  0
 39 68  1  0  0  0  0
 39 74  1  0  0  0  0
 39 82  2  0  0  0  0
 40 43  1  0  0  0  0
 41 50  1  0  0  0  0
 42 67  1  0  0  0  0
 43 45  1  0  0  0  0
 44 46  1  0  0  0  0
 44 47  1  0  0  0  0
 45 49  1  0  0  0  0
 46 51  1  0  0  0  0
 47 68  1  0  0  0  0
 48 51  1  0  0  0  0
 48 68  1  0  0  0  0
 49 72  1  0  0  0  0
 50 67  1  0  0  0  0
 51 66  1  0  0  0  0
 52 63  1  0  0  0  0
 53 64  1  0  0  0  0
 54 64  1  0  0  0  0
 55 64  1  0  0  0  0
 56 75  1  0  0  0  0
 57 76  1  0  0  0  0
 58 74  1  0  0  0  0
 59 60  1  0  0  0  0
 59 61  1  0  0  0  0
 60 75  1  0  0  0  0
 61 84  1  0  0  0  0
 62 64  1  0  0  0  0
 62 73  1  0  0  0  0
 63 76  1  0  0  0  0
 65 66  1  0  0  0  0
M  CHG  1  76   1
M  ISO  4  39 100  61 101  74 100  84 101
M  END
> <Batch ID>
0009

> <Smiles>
CNC(C)C(=O)NC(C(=O)N1Cc2cc([101O:1][101CH2:1]CCN(C)c3ccc(NC(=O)C[100NH:0][100C:0](=O)N4CCCC(n5nc(-c6ccc(Oc7ccc(F)cc7F)cc6)c(C(N)=O)c5N)C4)c(F)c3)ccc2CC1C(=O)NC1CCCc2ccccc21)C(C)(C)C

> <Shape>
0.181

> <Color>
0.182

> <Negative vol penalty>
0.000

$$$$

  -OEChem-04052315383D

 91100  0     1  0  0  0  0  0999 V2000
  -26.3234  -19.7074   12.3109 C   0  0  0  0  0  0  0  0  0  0  0  0
  -27.1915  -19.0179   13.1514 C   0  0  0  0  0  0  0  0  0  0  0  0
  -23.0727   -9.8615   19.9448 C   0  0  0  0  0  0  0  0  0  0  0  0
  -23.8303   -9.8737   22.2389 C   0  0  0  0  0  0  0  0  0  0  0  0
  -26.5308  -21.0624   12.0562 C   0  0  0  0  0  0  0  0  0  0  0  0
  -28.2683  -19.6829   13.7368 C   0  0  0  0  0  0  0  0  0  0  0  0
  -32.2173  -19.7336   19.7134 C   0  0  0  0  0  0  0  0  0  0  0  0
  -22.3272   -8.7099   20.1971 C   0  0  0  0  0  0  0  0  0  0  0  0
  -23.0848   -8.7222   22.4913 C   0  0  0  0  0  0  0  0  0  0  0  0
  -33.5485  -19.6879   20.1252 C   0  0  0  0  0  0  0  0  0  0  0  0
  -19.8551   -7.9298   23.0927 C   0  0  0  0  0  0  0  0  0  0  0  0
  -19.0969   -7.8940   24.2629 C   0  0  0  0  0  0  0  0  0  0  0  0
  -32.0655  -16.5980   22.5432 C   0  0  0  0  0  0  0  0  0  0  0  0
  -33.7623  -22.0483   19.6759 C   0  0  0  0  0  0  0  0  0  0  0  0
  -30.4838  -18.3438   24.0131 C   0  0  0  0  0  0  0  0  0  0  0  0
  -20.3352   -5.9570   25.0058 C   0  0  0  0  0  0  0  0  0  0  0  0
  -23.8243  -10.4434   20.9657 C   0  0  0  0  0  0  0  0  0  0  0  0
  -32.6900  -17.4868   23.4390 C   0  0  0  0  0  0  0  0  0  0  0  0
  -24.1693  -12.9678   20.8392 C   0  0  0  0  0  0  0  0  0  0  0  0
  -27.6050  -21.7466   12.6465 C   0  0  0  0  0  0  0  0  0  0  0  0
  -31.6507  -20.9368   19.2687 C   0  0  0  0  0  0  0  0  0  0  0  0
  -28.4911  -21.0480   13.4887 C   0  0  0  0  0  0  0  0  0  0  0  0
  -32.4229  -22.1072   19.2615 C   0  0  0  0  0  0  0  0  0  0  0  0
  -31.8818  -18.3891   24.1742 C   0  0  0  0  0  0  0  0  0  0  0  0
  -30.6796  -16.5826   22.3851 C   0  0  0  0  0  0  0  0  0  0  0  0
  -22.3332   -8.1403   21.4703 C   0  0  0  0  0  0  0  0  0  0  0  0
  -34.3220  -20.8447   20.1038 C   0  0  0  0  0  0  0  0  0  0  0  0
  -20.8533   -6.9793   22.8789 C   0  0  0  0  0  0  0  0  0  0  0  0
  -19.3370   -6.9076   25.2195 C   0  0  0  0  0  0  0  0  0  0  0  0
  -29.8891  -17.4513   23.1234 C   0  0  0  0  0  0  0  0  0  0  0  0
  -21.0934   -5.9929   23.8355 C   0  0  0  0  0  0  0  0  0  0  0  0
  -24.5951  -11.6327   20.7056 C   0  0  0  0  0  0  0  0  0  0  0  0
  -25.2627  -13.7150   20.4751 C   0  0  0  0  0  0  0  0  0  0  0  0
  -34.1721  -17.4778   23.6193 C   0  0  0  0  0  0  0  0  0  0  0  0
  -34.7663  -18.5642   24.1612 C   0  0  0  0  0  0  0  0  0  0  0  0
  -22.8990  -13.4863   21.2555 C   0  0  0  0  0  0  0  0  0  0  0  0
  -30.3848  -21.9438   16.5325 C   0  0  0  0  0  0  0  0  0  0  0  0
  -29.6757  -24.5816   18.2822 C   0  0  0  0  0  0  0  0  0  0  0  0
  -36.7855  -19.3981   23.0541 C   0  0  0  0  0  0  0  0  0  0  0  0
  -30.3863  -26.5446   20.9819 C   0  0  0  0  0  0  0  0  0  0  0  0
  -30.7300  -14.7545   20.6525 C   0  0  0  0  0  0  0  0  0  0  0  0
  -27.8161  -23.2001   12.3039 C   0  0  0  0  0  0  0  0  0  0  0  0
  -30.2057  -20.9751   18.8531 C   0  0  0  0  0  0  0  0  0  0  0  0
  -31.8563  -23.4284   18.8122 C   0  0  0  0  0  0  0  0  0  0  0  0
  -33.9450  -19.7377   24.6441 C   0  0  0  0  0  0  0  0  0  0  0  0
  -28.7632  -23.9201   13.2604 C   0  0  0  0  0  0  0  0  0  0  0  0
  -29.6151  -12.3357   18.2896 C   0  0  0  0  0  0  0  0  0  0  0  0
  -30.0125  -23.0804   13.5073 C   0  0  0  0  0  0  0  0  0  0  0  0
  -28.1746  -12.0470   18.7185 C   0  0  0  0  0  0  0  0  0  0  0  0
  -30.5292  -12.5666   19.4916 C   0  0  0  0  0  0  0  0  0  0  0  0
  -28.6218  -13.2971   20.8689 C   0  0  0  0  0  0  0  0  0  0  0  0
  -29.6561  -21.7404   14.1621 C   0  0  1  0  0  0  0  0  0  0  0  0
  -29.8795  -22.1472   17.9328 C   0  0  1  0  0  0  0  0  0  0  0  0
  -27.6499  -13.1218   19.6906 C   0  0  2  0  0  0  0  0  0  0  0  0
  -32.5372  -19.3538   25.1637 C   0  0  0  0  0  0  0  0  0  0  0  0
  -34.9226  -16.2489   23.1761 C   0  0  0  0  0  0  0  0  0  0  0  0
  -31.7539  -20.6712   25.3574 C   0  0  0  0  0  0  0  0  0  0  0  0
  -32.6434  -18.6518   26.5352 C   0  0  0  0  0  0  0  0  0  0  0  0
  -29.6586  -28.6542   22.1297 C   0  0  0  0  0  0  0  0  0  0  0  0
  -31.0728  -26.2319   16.1294 C   0  0  0  0  0  0  0  0  0  0  0  0
  -31.1567  -28.1416   17.7463 C   0  0  0  0  0  0  0  0  0  0  0  0
  -28.9549  -27.2351   17.0026 C   0  0  0  0  0  0  0  0  0  0  0  0
  -29.6868  -25.0909   23.4631 C   0  0  0  0  0  0  0  0  0  0  0  0
  -36.2515  -18.7558   24.3129 C   0  0  0  0  0  0  0  0  0  0  0  0
  -37.2717  -21.6242   22.0544 C   0  0  0  0  0  0  0  0  0  0  0  0
  -36.1624  -21.9884   21.0839 C   0  0  0  0  0  0  0  0  0  1  0  0
  -30.3802  -25.8804   18.5917 C   0  0  1  0  0  0  0  0  0  0  0  0
  -29.4944  -27.1442   22.0540 C   0  0  2  0  0  0  0  0  0  0  0  0
  -30.4027  -26.8471   17.3742 C   0  0  0  0  0  0  0  0  0  0  0  0
  -25.8603  -11.5342   20.2888 N   0  0  0  0  0  0  0  0  0  0  0  0
  -26.2388  -12.8170   20.1574 N   0  0  0  0  0  0  0  0  0  0  0  0
  -30.4403  -23.4132   18.4094 N   0  0  0  0  0  0  0  0  0  0  0  0
  -29.9706  -13.6005   20.3656 N   0  0  0  0  0  0  0  0  0  0  0  0
  -25.4748  -15.0460   20.3987 N   0  0  0  0  0  0  0  0  0  0  0  0
  -21.8857  -12.5792   21.5942 N   0  0  0  0  0  0  0  0  0  0  0  0
  -30.0829  -15.6825   21.4678 N   0  0  0  0  0  0  0  0  0  0  0  0
  -29.3905  -21.9222   15.5731 N   0  0  0  0  0  0  0  0  0  0  0  0
  -36.7924  -20.7816   23.1265 N   0  0  0  0  0  0  0  0  0  0  0  0
  -29.7273  -26.4266   19.7765 N   0  0  0  0  0  0  0  0  0  0  0  0
  -29.8279  -26.5678   23.3873 N   0  3  0  0  0  0  0  0  0  0  0  0
  -22.6642  -14.7173   21.3093 O   0  0  0  0  0  0  0  0  0  0  0  0
  -31.5879  -21.8173   16.3367 O   0  0  0  0  0  0  0  0  0  0  0  0
  -28.4887  -24.6023   17.9472 O   0  0  0  0  0  0  0  0  0  0  0  0
  -37.1765  -18.7370   22.0935 O   0  0  0  0  0  0  0  0  0  0  0  0
  -31.5522  -26.2173   21.1918 O   0  0  0  0  0  0  0  0  0  0  0  0
  -31.8598  -14.9206   20.1856 O   0  0  0  0  0  0  0  0  0  0  0  0
  -21.6057   -7.0167   21.7170 O   0  0  0  0  0  0  0  0  0  0  0  0
  -35.6310  -20.8024   20.5074 O   0  0  0  0  0  0  0  0  0  1  0  0
  -18.6098   -6.8742   26.3439 F   0  0  0  0  0  0  0  0  0  0  0  0
  -28.5551  -17.4432   22.9886 F   0  0  0  0  0  0  0  0  0  0  0  0
  -22.0518   -5.0777   23.6364 F   0  0  0  0  0  0  0  0  0  0  0  0
  1  2  1  0  0  0  0
  1  5  2  0  0  0  0
  2  6  2  0  0  0  0
  3  8  2  0  0  0  0
  3 17  1  0  0  0  0
  4  9  1  0  0  0  0
  4 17  2  0  0  0  0
  5 20  1  0  0  0  0
  6 22  1  0  0  0  0
  7 10  2  0  0  0  0
  7 21  1  0  0  0  0
  8 26  1  0  0  0  0
  9 26  2  0  0  0  0
 10 27  1  0  0  0  0
 11 12  2  0  0  0  0
 11 28  1  0  0  0  0
 12 29  1  0  0  0  0
 13 18  1  0  0  0  0
 13 25  2  0  0  0  0
 14 23  1  0  0  0  0
 14 27  2  0  0  0  0
 15 24  1  0  0  0  0
 15 30  2  0  0  0  0
 16 29  2  0  0  0  0
 16 31  1  0  0  0  0
 17 32  1  0  0  0  0
 18 24  2  0  0  0  0
 18 34  1  0  0  0  0
 19 32  1  0  0  0  0
 19 33  2  0  0  0  0
 19 36  1  0  0  0  0
 20 22  2  0  0  0  0
 20 42  1  0  0  0  0
 21 23  2  0  0  0  0
 21 43  1  0  0  0  0
 22 52  1  0  0  0  0
 23 44  1  0  0  0  0
 24 55  1  0  0  0  0
 25 30  1  0  0  0  0
 25 76  1  0  0  0  0
 26 87  1  0  0  0  0
 27 88  1  0  0  0  0
 28 31  2  0  0  0  0
 28 87  1  0  0  0  0
 29 89  1  0  0  0  0
 30 90  1  0  0  0  0
 31 91  1  0  0  0  0
 32 70  2  0  0  0  0
 33 71  1  0  0  0  0
 33 74  1  0  0  0  0
 34 35  2  0  0  0  0
 34 56  1  0  0  0  0
 35 45  1  0  0  0  0
 35 64  1  0  0  0  0
 36 75  1  0  0  0  0
 36 81  2  0  0  0  0
 37 53  1  0  0  0  0
 37 77  1  0  0  0  0
 37 82  2  0  0  0  0
 38 67  1  0  0  0  0
 38 72  1  0  0  0  0
 38 83  2  0  0  0  0
 39 64  1  0  0  0  0
 39 78  1  0  0  0  0
 39 84  2  0  0  0  0
 40 68  1  0  0  0  0
 40 79  1  0  0  0  0
 40 85  2  0  0  0  0
 41 73  1  0  0  0  0
 41 76  1  0  0  0  0
 41 86  2  0  0  0  0
 42 46  1  0  0  0  0
 43 53  1  0  0  0  0
 44 72  1  0  0  0  0
 45 55  1  0  0  0  0
 46 48  1  0  0  0  0
 47 49  1  0  0  0  0
 47 50  1  0  0  0  0
 48 52  1  0  0  0  0
 49 54  1  0  0  0  0
 50 73  1  0  0  0  0
 51 54  1  0  0  0  0
 51 73  1  0  0  0  0
 52 77  1  0  0  0  0
 53 72  1  0  0  0  0
 54 71  1  0  0  0  0
 55 57  1  0  0  0  0
 55 58  1  0  0  0  0
 59 68  1  0  0  0  0
 60 69  1  0  0  0  0
 61 69  1  0  0  0  0
 62 69  1  0  0  0  0
 63 80  1  0  0  0  0
 65 66  1  0  0  0  0
 65 78  1  0  0  0  0
 66 88  1  0  0  0  0
 67 69  1  0  0  0  0
 67 79  1  0  0  0  0
 68 80  1  0  0  0  0
 70 71  1  0  0  0  0
M  CHG  1  80   1
M  ISO  4  41 100  66 101  76 100  88 101
M  END
> <Batch ID>
0009

> <Smiles>
CNC(C)C(=O)NC(C(=O)N1Cc2cc([101O:1][101CH2:1]CNC(=O)CC3=C(C)c4cc([100NH:0][100C:0](=O)N5CCCC(n6nc(-c7ccc(Oc8ccc(F)cc8F)cc7)c(C(N)=O)c6N)C5)c(F)cc4C(C)(C)C3)ccc2CC1C(=O)NC1CCCc2ccccc21)C(C)(C)C

> <Shape>
0.233

> <Color>
0.185

> <Negative vol penalty>
0.000

$$$$

  -OEChem-04052315383D

 82 90  0     1  0  0  0  0  0999 V2000
  -29.6002  -31.0558   28.8417 C   0  0  0  0  0  0  0  0  0  0  0  0
  -30.3168  -29.9889   28.3092 C   0  0  0  0  0  0  0  0  0  0  0  0
  -23.0014   -9.8894   19.9860 C   0  0  0  0  0  0  0  0  0  0  0  0
  -23.7196   -9.9536   22.2919 C   0  0  0  0  0  0  0  0  0  0  0  0
  -28.2829  -31.2778   28.4424 C   0  0  0  0  0  0  0  0  0  0  0  0
  -29.7161  -29.1426   27.3778 C   0  0  0  0  0  0  0  0  0  0  0  0
  -32.4244  -26.3772   22.6319 C   0  0  0  0  0  0  0  0  0  0  0  0
  -22.2345   -8.7561   20.2564 C   0  0  0  0  0  0  0  0  0  0  0  0
  -22.9526   -8.8203   22.5623 C   0  0  0  0  0  0  0  0  0  0  0  0
  -32.9201  -25.0859   22.4569 C   0  0  0  0  0  0  0  0  0  0  0  0
  -23.1996   -5.4789   22.1098 C   0  0  0  0  0  0  0  0  0  0  0  0
  -23.7853   -4.4661   22.8694 C   0  0  0  0  0  0  0  0  0  0  0  0
  -30.8430  -24.4360   21.4165 C   0  0  0  0  0  0  0  0  0  0  0  0
  -30.2332  -19.2016   22.5296 C   0  0  0  0  0  0  0  0  0  0  0  0
  -32.4637  -18.2736   22.5475 C   0  0  0  0  0  0  0  0  0  0  0  0
  -22.0563   -4.7177   24.5380 C   0  0  0  0  0  0  0  0  0  0  0  0
  -23.7440  -10.4881   21.0038 C   0  0  0  0  0  0  0  0  0  0  0  0
  -24.1289  -13.0029   20.8148 C   0  0  0  0  0  0  0  0  0  0  0  0
  -27.6689  -30.4396   27.4984 C   0  0  0  0  0  0  0  0  0  0  0  0
  -31.1280  -26.7052   22.2097 C   0  0  0  0  0  0  0  0  0  0  0  0
  -28.3889  -29.3529   26.9665 C   0  0  0  0  0  0  0  0  0  0  0  0
  -30.3341  -25.7328   21.5850 C   0  0  0  0  0  0  0  0  0  0  0  0
  -30.5871  -16.8955   21.9023 C   0  0  0  0  0  0  0  0  0  0  0  0
  -22.2101   -8.2216   21.5445 C   0  0  0  0  0  0  0  0  0  0  0  0
  -32.1284  -24.1143   21.8517 C   0  0  0  0  0  0  0  0  0  0  0  0
  -22.0423   -6.1111   22.5644 C   0  0  0  0  0  0  0  0  0  0  0  0
  -31.6022  -19.3516   22.7507 C   0  0  0  0  0  0  0  0  0  0  0  0
  -23.2136   -4.0855   24.0835 C   0  0  0  0  0  0  0  0  0  0  0  0
  -29.7256  -17.9735   22.1055 C   0  0  0  0  0  0  0  0  0  0  0  0
  -31.9562  -17.0455   22.1233 C   0  0  0  0  0  0  0  0  0  0  0  0
  -21.4706   -5.7305   23.7784 C   0  0  0  0  0  0  0  0  0  0  0  0
  -24.5368  -11.6585   20.7250 C   0  0  0  0  0  0  0  0  0  0  0  0
  -25.2395  -13.7238   20.4497 C   0  0  0  0  0  0  0  0  0  0  0  0
  -22.8595  -13.5509   21.1945 C   0  0  0  0  0  0  0  0  0  0  0  0
  -28.4826  -27.7063   23.6600 C   0  0  0  0  0  0  0  0  0  0  0  0
  -27.3792  -27.9613   20.6203 C   0  0  0  0  0  0  0  0  0  0  0  0
  -27.6021  -26.9644   17.3640 C   0  0  0  0  0  0  0  0  0  0  0  0
  -30.7178  -14.6884   20.6949 C   0  0  0  0  0  0  0  0  0  0  0  0
  -26.2275  -30.6913   27.1330 C   0  0  0  0  0  0  0  0  0  0  0  0
  -30.6178  -28.1097   22.3817 C   0  0  0  0  0  0  0  0  0  0  0  0
  -28.9431  -26.0394   21.0957 C   0  0  0  0  0  0  0  0  0  0  0  0
  -25.7869  -29.9713   25.8611 C   0  0  0  0  0  0  0  0  0  0  0  0
  -29.6075  -12.2221   18.3793 C   0  0  0  0  0  0  0  0  0  0  0  0
  -26.2502  -28.5181   25.8825 C   0  0  0  0  0  0  0  0  0  0  0  0
  -28.1558  -11.9662   18.7905 C   0  0  0  0  0  0  0  0  0  0  0  0
  -30.5043  -12.4726   19.5904 C   0  0  0  0  0  0  0  0  0  0  0  0
  -28.5846  -13.2682   20.9137 C   0  0  0  0  0  0  0  0  0  0  0  0
  -27.7801  -28.4276   25.9353 C   0  0  1  0  0  0  0  0  0  0  0  0
  -29.0947  -28.1967   22.3784 C   0  0  1  0  0  0  0  0  0  0  0  0
  -27.6306  -13.0748   19.7237 C   0  0  2  0  0  0  0  0  0  0  0  0
  -26.5414  -27.3206   15.1178 C   0  0  0  0  0  0  0  0  0  0  0  0
  -25.0073  -26.2402   21.4699 C   0  0  0  0  0  0  0  0  0  0  0  0
  -24.5152  -25.8453   19.0471 C   0  0  0  0  0  0  0  0  0  0  0  0
  -24.4221  -28.1586   19.9760 C   0  0  0  0  0  0  0  0  0  0  0  0
  -30.1303  -27.9711   16.2008 C   0  0  0  0  0  0  0  0  0  0  0  0
  -33.5562  -22.3830   22.6390 C   0  0  0  0  0  0  0  0  0  1  0  0
  -33.4262  -20.8776   22.7664 C   0  0  0  0  0  0  0  0  0  0  0  0
  -26.6669  -27.0390   19.6606 C   0  0  1  0  0  0  0  0  0  0  0  0
  -27.6454  -27.7554   16.0691 C   0  0  2  0  0  0  0  0  0  0  0  0
  -25.1783  -26.8141   20.0493 C   0  0  0  0  0  0  0  0  0  0  0  0
  -25.8073  -11.5303   20.3333 N   0  0  0  0  0  0  0  0  0  0  0  0
  -26.2073  -12.8033   20.1738 N   0  0  0  0  0  0  0  0  0  0  0  0
  -28.4869  -27.4253   21.2923 N   0  0  0  0  0  0  0  0  0  0  0  0
  -29.9463  -13.5380   20.4261 N   0  0  0  0  0  0  0  0  0  0  0  0
  -25.4727  -15.0490   20.3410 N   0  0  0  0  0  0  0  0  0  0  0  0
  -21.8271  -12.6683   21.5398 N   0  0  0  0  0  0  0  0  0  0  0  0
  -30.0708  -15.6477   21.4731 N   0  0  0  0  0  0  0  0  0  0  0  0
  -28.3469  -28.6827   24.6284 N   0  0  0  0  0  0  0  0  0  0  0  0
  -26.8579  -27.6072   18.3306 N   0  0  0  0  0  0  0  0  0  0  0  0
  -28.9565  -27.5618   15.3875 N   0  3  0  0  0  0  0  0  0  0  0  0
  -22.6423  -14.7863   21.2107 O   0  0  0  0  0  0  0  0  0  0  0  0
  -28.1561  -26.5296   23.7621 O   0  0  0  0  0  0  0  0  0  0  0  0
  -26.9722  -29.1170   20.7629 O   0  0  0  0  0  0  0  0  0  0  0  0
  -28.1684  -25.8824   17.5029 O   0  0  0  0  0  0  0  0  0  0  0  0
  -31.8578  -14.8252   20.2435 O   0  0  0  0  0  0  0  0  0  0  0  0
  -21.4616   -7.1159   21.8088 O   0  0  0  0  0  0  0  0  0  0  0  0
  -32.6095  -22.8530   21.6802 O   0  0  0  0  0  0  0  0  0  1  0  0
  -32.0996  -20.5581   23.1680 O   0  0  0  0  0  0  0  0  0  0  0  0
  -23.7752   -3.1119   24.8120 F   0  0  0  0  0  0  0  0  0  0  0  0
  -28.4079  -17.8401   21.8978 F   0  0  0  0  0  0  0  0  0  0  0  0
  -32.7934  -16.0156   21.9337 F   0  0  0  0  0  0  0  0  0  0  0  0
  -20.3582   -6.3335   24.2197 F   0  0  0  0  0  0  0  0  0  0  0  0
  1  2  1  0  0  0  0
  1  5  2  0  0  0  0
  2  6  2  0  0  0  0
  3  8  2  0  0  0  0
  3 17  1  0  0  0  0
  4  9  1  0  0  0  0
  4 17  2  0  0  0  0
  5 19  1  0  0  0  0
  6 21  1  0  0  0  0
  7 10  2  0  0  0  0
  7 20  1  0  0  0  0
  8 24  1  0  0  0  0
  9 24  2  0  0  0  0
 10 25  1  0  0  0  0
 11 12  2  0  0  0  0
 11 26  1  0  0  0  0
 12 28  1  0  0  0  0
 13 22  1  0  0  0  0
 13 25  2  0  0  0  0
 14 27  1  0  0  0  0
 14 29  2  0  0  0  0
 15 27  2  0  0  0  0
 15 30  1  0  0  0  0
 16 28  2  0  0  0  0
 16 31  1  0  0  0  0
 17 32  1  0  0  0  0
 18 32  1  0  0  0  0
 18 33  2  0  0  0  0
 18 34  1  0  0  0  0
 19 21  2  0  0  0  0
 19 39  1  0  0  0  0
 20 22  2  0  0  0  0
 20 40  1  0  0  0  0
 21 48  1  0  0  0  0
 22 41  1  0  0  0  0
 23 29  1  0  0  0  0
 23 30  2  0  0  0  0
 23 67  1  0  0  0  0
 24 76  1  0  0  0  0
 25 77  1  0  0  0  0
 26 31  2  0  0  0  0
 26 76  1  0  0  0  0
 27 78  1  0  0  0  0
 28 79  1  0  0  0  0
 29 80  1  0  0  0  0
 30 81  1  0  0  0  0
 31 82  1  0  0  0  0
 32 61  2  0  0  0  0
 33 62  1  0  0  0  0
 33 65  1  0  0  0  0
 34 66  1  0  0  0  0
 34 71  2  0  0  0  0
 35 49  1  0  0  0  0
 35 68  1  0  0  0  0
 35 72  2  0  0  0  0
 36 58  1  0  0  0  0
 36 63  1  0  0  0  0
 36 73  2  0  0  0  0
 37 59  1  0  0  0  0
 37 69  1  0  0  0  0
 37 74  2  0  0  0  0
 38 64  1  0  0  0  0
 38 67  1  0  0  0  0
 38 75  2  0  0  0  0
 39 42  1  0  0  0  0
 40 49  1  0  0  0  0
 41 63  1  0  0  0  0
 42 44  1  0  0  0  0
 43 45  1  0  0  0  0
 43 46  1  0  0  0  0
 44 48  1  0  0  0  0
 45 50  1  0  0  0  0
 46 64  1  0  0  0  0
 47 50  1  0  0  0  0
 47 64  1  0  0  0  0
 48 68  1  0  0  0  0
 49 63  1  0  0  0  0
 50 62  1  0  0  0  0
 51 59  1  0  0  0  0
 52 60  1  0  0  0  0
 53 60  1  0  0  0  0
 54 60  1  0  0  0  0
 55 70  1  0  0  0  0
 56 57  1  0  0  0  0
 56 77  1  0  0  0  0
 57 78  1  0  0  0  0
 58 60  1  0  0  0  0
 58 69  1  0  0  0  0
 59 70  1  0  0  0  0
 61 62  1  0  0  0  0
M  CHG  1  70   1
M  ISO  4  38 100  56 101  67 100  77 101
M  END
> <Batch ID>
0009

> <Smiles>
CNC(C)C(=O)NC(C(=O)N1Cc2cc([101O:1][101CH2:1]COc3cc(F)c([100NH:0][100C:0](=O)N4CCCC(n5nc(-c6ccc(Oc7ccc(F)cc7F)cc6)c(C(N)=O)c5N)C4)c(F)c3)ccc2CC1C(=O)NC1CCCc2ccccc21)C(C)(C)C

> <Shape>
0.269

> <Color>
0.202

> <Negative vol penalty>
0.000

$$$$

  -OEChem-04052315383D

 82 90  0     1  0  0  0  0  0999 V2000
  -29.4672  -33.9674   26.0575 C   0  0  0  0  0  0  0  0  0  0  0  0
  -29.6188  -32.8719   25.2135 C   0  0  0  0  0  0  0  0  0  0  0  0
  -24.6252   -9.0147   21.3673 C   0  0  0  0  0  0  0  0  0  0  0  0
  -23.3766  -10.8879   22.2444 C   0  0  0  0  0  0  0  0  0  0  0  0
  -28.2412  -34.2032   26.6783 C   0  0  0  0  0  0  0  0  0  0  0  0
  -28.5449  -32.0108   24.9908 C   0  0  0  0  0  0  0  0  0  0  0  0
  -27.2104  -29.0574   19.7944 C   0  0  0  0  0  0  0  0  0  0  0  0
  -27.8372  -20.4031   20.0854 C   0  0  0  0  0  0  0  0  0  0  0  0
  -28.2619  -19.0861   20.2607 C   0  0  0  0  0  0  0  0  0  0  0  0
  -24.0847   -8.1918   22.3553 C   0  0  0  0  0  0  0  0  0  0  0  0
  -22.8361  -10.0649   23.2324 C   0  0  0  0  0  0  0  0  0  0  0  0
  -27.4532  -27.7523   19.3684 C   0  0  0  0  0  0  0  0  0  0  0  0
  -21.1762   -6.5642   22.9251 C   0  0  0  0  0  0  0  0  0  0  0  0
  -20.7078   -5.3086   22.5382 C   0  0  0  0  0  0  0  0  0  0  0  0
  -25.2408  -27.1127   20.0866 C   0  0  0  0  0  0  0  0  0  0  0  0
  -25.8207  -19.9178   21.3245 C   0  0  0  0  0  0  0  0  0  0  0  0
  -22.2843   -4.2583   24.0377 C   0  0  0  0  0  0  0  0  0  0  0  0
  -24.2712  -10.3628   21.3118 C   0  0  0  0  0  0  0  0  0  0  0  0
  -24.3028  -11.4627   19.0103 C   0  0  0  0  0  0  0  0  0  0  0  0
  -27.1489  -33.3500   26.4555 C   0  0  0  0  0  0  0  0  0  0  0  0
  -25.9829  -29.3980   20.3807 C   0  0  0  0  0  0  0  0  0  0  0  0
  -27.3036  -32.2346   25.6103 C   0  0  0  0  0  0  0  0  0  0  0  0
  -24.9840  -28.4234   20.5169 C   0  0  0  0  0  0  0  0  0  0  0  0
  -26.6166  -20.8190   20.6174 C   0  0  0  0  0  0  0  0  0  0  0  0
  -27.4660  -18.1849   20.9679 C   0  0  0  0  0  0  0  0  0  0  0  0
  -23.1901   -8.7168   23.2878 C   0  0  0  0  0  0  0  0  0  0  0  0
  -26.4694  -26.7790   19.5171 C   0  0  0  0  0  0  0  0  0  0  0  0
  -22.1988   -6.6668   23.8683 C   0  0  0  0  0  0  0  0  0  0  0  0
  -21.2617   -4.1557   23.0945 C   0  0  0  0  0  0  0  0  0  0  0  0
  -26.2454  -18.6007   21.4998 C   0  0  0  0  0  0  0  0  0  0  0  0
  -22.7528   -5.5139   24.4246 C   0  0  0  0  0  0  0  0  0  0  0  0
  -24.8296  -11.2135   20.2918 C   0  0  0  0  0  0  0  0  0  0  0  0
  -25.1979  -12.3304   18.4338 C   0  0  0  0  0  0  0  0  0  0  0  0
  -23.1108  -10.9552   18.3960 C   0  0  0  0  0  0  0  0  0  0  0  0
  -25.0829  -30.4916   23.2264 C   0  0  0  0  0  0  0  0  0  0  0  0
  -22.1752  -30.6797   21.8008 C   0  0  0  0  0  0  0  0  0  0  0  0
  -26.8471  -23.1760   19.7659 C   0  0  0  0  0  0  0  0  0  0  0  0
  -20.0783  -29.5848   19.3409 C   0  0  0  0  0  0  0  0  0  0  0  0
  -29.0837  -16.2754   20.6792 C   0  0  0  0  0  0  0  0  0  0  0  0
  -25.8571  -33.6187   27.1860 C   0  0  0  0  0  0  0  0  0  0  0  0
  -25.7269  -30.8165   20.8106 C   0  0  0  0  0  0  0  0  0  0  0  0
  -23.6420  -28.7425   21.1214 C   0  0  0  0  0  0  0  0  0  0  0  0
  -24.6608  -32.8708   26.6031 C   0  0  0  0  0  0  0  0  0  0  0  0
  -29.8307  -13.5400   18.5259 C   0  0  0  0  0  0  0  0  0  0  0  0
  -25.0179  -31.4102   26.3463 C   0  0  0  0  0  0  0  0  0  0  0  0
  -28.5825  -12.6587   18.6130 C   0  0  0  0  0  0  0  0  0  0  0  0
  -30.1620  -14.1884   19.8688 C   0  0  0  0  0  0  0  0  0  0  0  0
  -27.8074  -14.0446   20.5791 C   0  0  0  0  0  0  0  0  0  0  0  0
  -26.1549  -31.2918   25.3243 C   0  0  1  0  0  0  0  0  0  0  0  0
  -24.6291  -30.9327   21.8636 C   0  0  1  0  0  0  0  0  0  0  0  0
  -27.3964  -13.4214   19.2351 C   0  0  2  0  0  0  0  0  0  0  0  0
  -17.7523  -29.8963   18.4521 C   0  0  0  0  0  0  0  0  0  0  0  0
  -21.0714  -29.0300   24.1181 C   0  0  0  0  0  0  0  0  0  0  0  0
  -19.0360  -28.5747   22.7331 C   0  0  0  0  0  0  0  0  0  0  0  0
  -19.6003  -30.9152   23.3859 C   0  0  0  0  0  0  0  0  0  0  0  0
  -21.0811  -30.5085   16.7141 C   0  0  0  0  0  0  0  0  0  0  0  0
  -26.0374  -24.4587   19.8089 C   0  0  0  0  0  0  0  0  0  1  0  0
  -21.0019  -29.7439   21.6379 C   0  0  1  0  0  0  0  0  0  0  0  0
  -19.2045  -30.3371   18.3535 C   0  0  2  0  0  0  0  0  0  0  0  0
  -20.2033  -29.5592   22.9591 C   0  0  0  0  0  0  0  0  0  0  0  0
  -25.9711  -11.8698   20.5165 N   0  0  0  0  0  0  0  0  0  0  0  0
  -26.1688  -12.5398   19.3684 N   0  0  0  0  0  0  0  0  0  0  0  0
  -23.4420  -30.1421   21.5322 N   0  0  0  0  0  0  0  0  0  0  0  0
  -28.9930  -14.8963   20.3953 N   0  0  0  0  0  0  0  0  0  0  0  0
  -25.2413  -12.9269   17.2236 N   0  0  0  0  0  0  0  0  0  0  0  0
  -22.3047  -10.0736   19.1291 N   0  0  0  0  0  0  0  0  0  0  0  0
  -26.1853  -22.1549   20.4391 N   0  0  0  0  0  0  0  0  0  0  0  0
  -27.8999  -16.8475   21.1438 N   0  0  0  0  0  0  0  0  0  0  0  0
  -25.6524  -31.4980   23.9829 N   0  0  0  0  0  0  0  0  0  0  0  0
  -20.2112  -30.2696   20.5303 N   0  0  0  0  0  0  0  0  0  0  0  0
  -19.6744  -30.0985   16.9595 N   0  3  0  0  0  0  0  0  0  0  0  0
  -22.7792  -11.2612   17.2256 O   0  0  0  0  0  0  0  0  0  0  0  0
  -24.9266  -29.3248   23.5669 O   0  0  0  0  0  0  0  0  0  0  0  0
  -21.9746  -31.8467   22.1465 O   0  0  0  0  0  0  0  0  0  0  0  0
  -27.9319  -23.1198   19.1960 O   0  0  0  0  0  0  0  0  0  0  0  0
  -20.5887  -28.4966   19.0842 O   0  0  0  0  0  0  0  0  0  0  0  0
  -30.1266  -16.9085   20.4960 O   0  0  0  0  0  0  0  0  0  0  0  0
  -22.6623   -7.9141   24.2519 O   0  0  0  0  0  0  0  0  0  0  0  0
  -26.7040  -25.5042   19.1027 O   0  0  0  0  0  0  0  0  0  1  0  0
  -20.8107   -2.9501   22.7240 F   0  0  0  0  0  0  0  0  0  0  0  0
  -25.4715  -17.7428   22.1800 F   0  0  0  0  0  0  0  0  0  0  0  0
  -23.7346   -5.6062   25.3320 F   0  0  0  0  0  0  0  0  0  0  0  0
  1  2  1  0  0  0  0
  1  5  2  0  0  0  0
  2  6  2  0  0  0  0
  3 10  2  0  0  0  0
  3 18  1  0  0  0  0
  4 11  1  0  0  0  0
  4 18  2  0  0  0  0
  5 20  1  0  0  0  0
  6 22  1  0  0  0  0
  7 12  2  0  0  0  0
  7 21  1  0  0  0  0
  8  9  2  0  0  0  0
  8 24  1  0  0  0  0
  9 25  1  0  0  0  0
 10 26  1  0  0  0  0
 11 26  2  0  0  0  0
 12 27  1  0  0  0  0
 13 14  2  0  0  0  0
 13 28  1  0  0  0  0
 14 29  1  0  0  0  0
 15 23  1  0  0  0  0
 15 27  2  0  0  0  0
 16 24  2  0  0  0  0
 16 30  1  0  0  0  0
 17 29  2  0  0  0  0
 17 31  1  0  0  0  0
 18 32  1  0  0  0  0
 19 32  1  0  0  0  0
 19 33  2  0  0  0  0
 19 34  1  0  0  0  0
 20 22  2  0  0  0  0
 20 40  1  0  0  0  0
 21 23  2  0  0  0  0
 21 41  1  0  0  0  0
 22 49  1  0  0  0  0
 23 42  1  0  0  0  0
 24 67  1  0  0  0  0
 25 30  2  0  0  0  0
 25 68  1  0  0  0  0
 26 78  1  0  0  0  0
 27 79  1  0  0  0  0
 28 31  2  0  0  0  0
 28 78  1  0  0  0  0
 29 80  1  0  0  0  0
 30 81  1  0  0  0  0
 31 82  1  0  0  0  0
 32 61  2  0  0  0  0
 33 62  1  0  0  0  0
 33 65  1  0  0  0  0
 34 66  1  0  0  0  0
 34 72  2  0  0  0  0
 35 50  1  0  0  0  0
 35 69  1  0  0  0  0
 35 73  2  0  0  0  0
 36 58  1  0  0  0  0
 36 63  1  0  0  0  0
 36 74  2  0  0  0  0
 37 57  1  0  0  0  0
 37 67  1  0  0  0  0
 37 75  2  0  0  0  0
 38 59  1  0  0  0  0
 38 70  1  0  0  0  0
 38 76  2  0  0  0  0
 39 64  1  0  0  0  0
 39 68  1  0  0  0  0
 39 77  2  0  0  0  0
 40 43  1  0  0  0  0
 41 50  1  0  0  0  0
 42 63  1  0  0  0  0
 43 45  1  0  0  0  0
 44 46  1  0  0  0  0
 44 47  1  0  0  0  0
 45 49  1  0  0  0  0
 46 51  1  0  0  0  0
 47 64  1  0  0  0  0
 48 51  1  0  0  0  0
 48 64  1  0  0  0  0
 49 69  1  0  0  0  0
 50 63  1  0  0  0  0
 51 62  1  0  0  0  0
 52 59  1  0  0  0  0
 53 60  1  0  0  0  0
 54 60  1  0  0  0  0
 55 60  1  0  0  0  0
 56 71  1  0  0  0  0
 57 79  1  0  0  0  0
 58 60  1  0  0  0  0
 58 70  1  0  0  0  0
 59 71  1  0  0  0  0
 61 62  1  0  0  0  0
M  CHG  1  71   1
M  ISO  4  39 100  57 101  68 100  79 101
M  END
> <Batch ID>
0009

> <Smiles>
CNC(C)C(=O)NC(C(=O)N1Cc2cc([101O:1][101CH2:1]C(=O)Nc3ccc([100NH:0][100C:0](=O)N4CCCC(n5nc(-c6ccc(Oc7ccc(F)cc7F)cc6)c(C(N)=O)c5N)C4)c(F)c3)ccc2CC1C(=O)NC1CCCc2ccccc21)C(C)(C)C

> <Shape>
0.309

> <Color>
0.101

> <Negative vol penalty>
0.000

$$$$

  -OEChem-04052315383D

 85 93  0     1  0  0  0  0  0999 V2000
  -24.7111  -18.9869   19.9475 C   0  0  0  0  0  0  0  0  0  0  0  0
  -25.7970  -19.5959   20.5682 C   0  0  0  0  0  0  0  0  0  0  0  0
  -23.0737   -9.8883   19.9313 C   0  0  0  0  0  0  0  0  0  0  0  0
  -23.8390   -9.8760   22.2229 C   0  0  0  0  0  0  0  0  0  0  0  0
  -32.6870  -17.4519   23.4650 C   0  0  0  0  0  0  0  0  0  0  0  0
  -24.0419  -19.6427   18.9149 C   0  0  0  0  0  0  0  0  0  0  0  0
  -26.2151  -20.8607   20.1560 C   0  0  0  0  0  0  0  0  0  0  0  0
  -27.1894  -23.9492   24.0492 C   0  0  0  0  0  0  0  0  0  0  0  0
  -32.0810  -16.5807   22.5599 C   0  0  0  0  0  0  0  0  0  0  0  0
  -22.3282   -8.7346   20.1741 C   0  0  0  0  0  0  0  0  0  0  0  0
  -23.0934   -8.7223   22.4657 C   0  0  0  0  0  0  0  0  0  0  0  0
  -28.4022  -23.7728   24.7138 C   0  0  0  0  0  0  0  0  0  0  0  0
  -19.8652   -7.9260   23.0696 C   0  0  0  0  0  0  0  0  0  0  0  0
  -19.1109   -7.8784   24.2419 C   0  0  0  0  0  0  0  0  0  0  0  0
  -30.5180  -18.3183   24.0832 C   0  0  0  0  0  0  0  0  0  0  0  0
  -29.3371  -25.6278   23.4875 C   0  0  0  0  0  0  0  0  0  0  0  0
  -20.3504   -5.9329   24.9603 C   0  0  0  0  0  0  0  0  0  0  0  0
  -23.8291  -10.4590   20.9557 C   0  0  0  0  0  0  0  0  0  0  0  0
  -31.9055  -18.3207   24.2268 C   0  0  0  0  0  0  0  0  0  0  0  0
  -24.1755  -12.9843   20.8545 C   0  0  0  0  0  0  0  0  0  0  0  0
  -24.4460  -20.9202   18.4964 C   0  0  0  0  0  0  0  0  0  0  0  0
  -27.0444  -24.9610   23.0892 C   0  0  0  0  0  0  0  0  0  0  0  0
  -25.5516  -21.5336   19.1160 C   0  0  0  0  0  0  0  0  0  0  0  0
  -28.1207  -25.8166   22.8139 C   0  0  0  0  0  0  0  0  0  0  0  0
  -30.6935  -16.5783   22.4163 C   0  0  0  0  0  0  0  0  0  0  0  0
  -22.3381   -8.1517   21.4412 C   0  0  0  0  0  0  0  0  0  0  0  0
  -29.4772  -24.6103   24.4309 C   0  0  0  0  0  0  0  0  0  0  0  0
  -20.8620   -6.9770   22.8425 C   0  0  0  0  0  0  0  0  0  0  0  0
  -29.9120  -17.4471   23.1780 C   0  0  0  0  0  0  0  0  0  0  0  0
  -19.3535   -6.8819   25.1873 C   0  0  0  0  0  0  0  0  0  0  0  0
  -21.1046   -5.9805   23.7879 C   0  0  0  0  0  0  0  0  0  0  0  0
  -24.5999  -11.6504   20.7055 C   0  0  0  0  0  0  0  0  0  0  0  0
  -25.2682  -13.7346   20.4945 C   0  0  0  0  0  0  0  0  0  0  0  0
  -32.5474  -19.2423   25.1855 C   0  0  0  0  0  0  0  0  0  0  0  0
  -22.9070  -13.4993   21.2804 C   0  0  0  0  0  0  0  0  0  0  0  0
  -26.4029  -25.0247   19.9766 C   0  0  0  0  0  0  0  0  0  0  0  0
  -26.3234  -28.2320   20.4551 C   0  0  0  0  0  0  0  0  0  0  0  0
  -27.3047  -30.9061   22.3348 C   0  0  0  0  0  0  0  0  0  0  0  0
  -30.7368  -14.7685   20.6645 C   0  0  0  0  0  0  0  0  0  0  0  0
  -23.7211  -21.5697   17.3443 C   0  0  0  0  0  0  0  0  0  0  0  0
  -25.7214  -25.1552   22.4004 C   0  0  0  0  0  0  0  0  0  0  0  0
  -28.0104  -26.9309   21.8066 C   0  0  0  0  0  0  0  0  0  0  0  0
  -23.9936  -23.0665   17.2193 C   0  0  0  0  0  0  0  0  0  0  0  0
  -29.6122  -12.3752   18.2801 C   0  0  0  0  0  0  0  0  0  0  0  0
  -25.4874  -23.3494   17.3427 C   0  0  0  0  0  0  0  0  0  0  0  0
  -28.1730  -12.0831   18.7108 C   0  0  0  0  0  0  0  0  0  0  0  0
  -30.5306  -12.5930   19.4814 C   0  0  0  0  0  0  0  0  0  0  0  0
  -28.6282  -13.3103   20.8727 C   0  0  0  0  0  0  0  0  0  0  0  0
  -26.0197  -22.9154   18.7138 C   0  0  1  0  0  0  0  0  0  0  0  0
  -25.8431  -25.8908   21.0694 C   0  0  1  0  0  0  0  0  0  0  0  0
  -27.6523  -13.1480   19.6959 C   0  0  2  0  0  0  0  0  0  0  0  0
  -27.1132  -33.4053   22.4560 C   0  0  0  0  0  0  0  0  0  0  0  0
  -28.3457  -28.4947   18.1854 C   0  0  0  0  0  0  0  0  0  0  0  0
  -28.8220  -30.8231   18.9725 C   0  0  0  0  0  0  0  0  0  0  0  0
  -26.5362  -30.2210   18.1754 C   0  0  0  0  0  0  0  0  0  0  0  0
  -25.9711  -30.7919   24.9744 C   0  0  0  0  0  0  0  0  0  0  0  0
  -27.8180  -16.5848   23.9041 C   0  0  0  0  0  0  0  0  0  0  0  0
  -32.5059  -22.9518   25.4580 C   0  0  0  0  0  0  0  0  0  0  0  0
  -32.9560  -21.5698   25.9015 C   0  0  0  0  0  0  0  0  0  0  0  0
  -30.9916  -23.1146   25.4917 C   0  0  0  0  0  0  0  0  0  1  0  0
  -27.3414  -29.3457   20.4065 C   0  0  1  0  0  0  0  0  0  0  0  0
  -26.5248  -32.0768   22.9053 C   0  0  2  0  0  0  0  0  0  0  0  0
  -27.7643  -29.6990   18.9526 C   0  0  0  0  0  0  0  0  0  0  0  0
  -25.8636  -11.5554   20.2834 N   0  0  0  0  0  0  0  0  0  0  0  0
  -26.2426  -12.8392   20.1642 N   0  0  0  0  0  0  0  0  0  0  0  0
  -26.6982  -27.0764   21.1549 N   0  0  0  0  0  0  0  0  0  0  0  0
  -29.9756  -13.6180   20.3680 N   0  0  0  0  0  0  0  0  0  0  0  0
  -25.4810  -15.0662   20.4314 N   0  0  0  0  0  0  0  0  0  0  0  0
  -33.2734  -18.7167   26.1722 N   0  0  0  0  0  0  0  0  0  0  0  0
  -21.8941  -12.5894   21.6130 N   0  0  0  0  0  0  0  0  0  0  0  0
  -30.0931  -15.6883   21.4916 N   0  0  0  0  0  0  0  0  0  0  0  0
  -25.6612  -23.8861   19.7255 N   0  0  0  0  0  0  0  0  0  0  0  0
  -26.7623  -30.4608   21.1479 N   0  0  0  0  0  0  0  0  0  0  0  0
  -32.3689  -20.5596   25.0209 N   0  3  0  0  0  0  0  0  0  0  0  0
  -26.5428  -32.0346   24.3948 N   0  3  0  0  0  0  0  0  0  0  0  0
  -22.6732  -14.7298   21.3479 O   0  0  0  0  0  0  0  0  0  0  0  0
  -27.4307  -25.3650   19.4027 O   0  0  0  0  0  0  0  0  0  0  0  0
  -25.2330  -28.3847   19.8989 O   0  0  0  0  0  0  0  0  0  0  0  0
  -28.2982  -30.4361   22.8850 O   0  0  0  0  0  0  0  0  0  0  0  0
  -31.8651  -14.9387   20.1955 O   0  0  0  0  0  0  0  0  0  0  0  0
  -21.6105   -7.0261   21.6785 O   0  0  0  0  0  0  0  0  0  0  0  0
  -28.5547  -17.4599   23.0529 O   0  0  0  0  0  0  0  0  0  0  0  0
  -30.6623  -24.4399   25.0777 O   0  0  0  0  0  0  0  0  0  1  0  0
  -18.6301   -6.8372   26.3138 F   0  0  0  0  0  0  0  0  0  0  0  0
  -22.0617   -5.0668   23.5760 F   0  0  0  0  0  0  0  0  0  0  0  0
  1  2  1  0  0  0  0
  1  6  2  0  0  0  0
  2  7  2  0  0  0  0
  3 10  2  0  0  0  0
  3 18  1  0  0  0  0
  4 11  1  0  0  0  0
  4 18  2  0  0  0  0
  5  9  2  0  0  0  0
  5 19  1  0  0  0  0
  6 21  1  0  0  0  0
  7 23  1  0  0  0  0
  8 12  2  0  0  0  0
  8 22  1  0  0  0  0
  9 25  1  0  0  0  0
 10 26  1  0  0  0  0
 11 26  2  0  0  0  0
 12 27  1  0  0  0  0
 13 14  2  0  0  0  0
 13 28  1  0  0  0  0
 14 30  1  0  0  0  0
 15 19  2  0  0  0  0
 15 29  1  0  0  0  0
 16 24  1  0  0  0  0
 16 27  2  0  0  0  0
 17 30  2  0  0  0  0
 17 31  1  0  0  0  0
 18 32  1  0  0  0  0
 19 34  1  0  0  0  0
 20 32  1  0  0  0  0
 20 33  2  0  0  0  0
 20 35  1  0  0  0  0
 21 23  2  0  0  0  0
 21 40  1  0  0  0  0
 22 24  2  0  0  0  0
 22 41  1  0  0  0  0
 23 49  1  0  0  0  0
 24 42  1  0  0  0  0
 25 29  2  0  0  0  0
 25 71  1  0  0  0  0
 26 81  1  0  0  0  0
 27 83  1  0  0  0  0
 28 31  2  0  0  0  0
 28 81  1  0  0  0  0
 29 82  1  0  0  0  0
 30 84  1  0  0  0  0
 31 85  1  0  0  0  0
 32 64  2  0  0  0  0
 33 65  1  0  0  0  0
 33 68  1  0  0  0  0
 34 69  1  0  0  0  0
 34 74  2  0  0  0  0
 35 70  1  0  0  0  0
 35 76  2  0  0  0  0
 36 50  1  0  0  0  0
 36 72  1  0  0  0  0
 36 77  2  0  0  0  0
 37 61  1  0  0  0  0
 37 66  1  0  0  0  0
 37 78  2  0  0  0  0
 38 62  1  0  0  0  0
 38 73  1  0  0  0  0
 38 79  2  0  0  0  0
 39 67  1  0  0  0  0
 39 71  1  0  0  0  0
 39 80  2  0  0  0  0
 40 43  1  0  0  0  0
 41 50  1  0  0  0  0
 42 66  1  0  0  0  0
 43 45  1  0  0  0  0
 44 46  1  0  0  0  0
 44 47  1  0  0  0  0
 45 49  1  0  0  0  0
 46 51  1  0  0  0  0
 47 67  1  0  0  0  0
 48 51  1  0  0  0  0
 48 67  1  0  0  0  0
 49 72  1  0  0  0  0
 50 66  1  0  0  0  0
 51 65  1  0  0  0  0
 52 62  1  0  0  0  0
 53 63  1  0  0  0  0
 54 63  1  0  0  0  0
 55 63  1  0  0  0  0
 56 75  1  0  0  0  0
 57 82  1  0  0  0  0
 58 59  1  0  0  0  0
 58 60  1  0  0  0  0
 59 74  1  0  0  0  0
 60 83  1  0  0  0  0
 61 63  1  0  0  0  0
 61 73  1  0  0  0  0
 62 75  1  0  0  0  0
 64 65  1  0  0  0  0
M  CHG  2  74   1  75   1
M  ISO  4  39 100  60 101  71 100  83 101
M  END
> <Batch ID>
0009

> <Smiles>
CNC(C)C(=O)NC(C(=O)N1Cc2cc([101O:1][101CH2:1]CCNC(=N)c3ccc([100NH:0][100C:0](=O)N4CCCC(n5nc(-c6ccc(Oc7ccc(F)cc7F)cc6)c(C(N)=O)c5N)C4)c(OC)c3)ccc2CC1C(=O)NC1CCCc2ccccc21)C(C)(C)C

> <Shape>
0.248

> <Color>
0.185

> <Negative vol penalty>
0.000

$$$$

  -OEChem-04052315383D

 83 91  0     1  0  0  0  0  0999 V2000
  -33.8029  -31.7450   23.2661 C   0  0  0  0  0  0  0  0  0  0  0  0
  -33.5035  -30.4698   23.7348 C   0  0  0  0  0  0  0  0  0  0  0  0
  -23.0782   -9.8341   19.9851 C   0  0  0  0  0  0  0  0  0  0  0  0
  -23.8196   -9.9074   22.2833 C   0  0  0  0  0  0  0  0  0  0  0  0
  -33.2564  -32.1904   22.0633 C   0  0  0  0  0  0  0  0  0  0  0  0
  -32.6564  -29.6397   23.0014 C   0  0  0  0  0  0  0  0  0  0  0  0
  -34.4057  -24.9003   22.6513 C   0  0  0  0  0  0  0  0  0  0  0  0
  -32.0427  -16.6519   22.4706 C   0  0  0  0  0  0  0  0  0  0  0  0
  -32.6229  -17.5638   23.3522 C   0  0  0  0  0  0  0  0  0  0  0  0
  -22.3326   -8.6883   20.2621 C   0  0  0  0  0  0  0  0  0  0  0  0
  -23.0740   -8.7616   22.5604 C   0  0  0  0  0  0  0  0  0  0  0  0
  -34.2387  -24.0762   23.7633 C   0  0  0  0  0  0  0  0  0  0  0  0
  -19.8412   -7.9800   23.1597 C   0  0  0  0  0  0  0  0  0  0  0  0
  -19.0749   -7.9735   24.3252 C   0  0  0  0  0  0  0  0  0  0  0  0
  -32.3242  -23.0536   22.7104 C   0  0  0  0  0  0  0  0  0  0  0  0
  -29.8539  -17.5177   23.0155 C   0  0  0  0  0  0  0  0  0  0  0  0
  -20.3108   -6.0586   25.1270 C   0  0  0  0  0  0  0  0  0  0  0  0
  -23.8218  -10.4436   20.9957 C   0  0  0  0  0  0  0  0  0  0  0  0
  -24.1640  -12.9644   20.8057 C   0  0  0  0  0  0  0  0  0  0  0  0
  -32.4099  -31.3619   21.3099 C   0  0  0  0  0  0  0  0  0  0  0  0
  -33.5252  -24.8147   21.5632 C   0  0  0  0  0  0  0  0  0  0  0  0
  -32.0970  -30.0750   21.7880 C   0  0  0  0  0  0  0  0  0  0  0  0
  -32.4838  -23.8760   21.5847 C   0  0  0  0  0  0  0  0  0  0  0  0
  -30.4342  -18.4296   23.8972 C   0  0  0  0  0  0  0  0  0  0  0  0
  -30.6582  -16.6288   22.3022 C   0  0  0  0  0  0  0  0  0  0  0  0
  -31.8187  -18.4527   24.0655 C   0  0  0  0  0  0  0  0  0  0  0  0
  -22.3305   -8.1520   21.5498 C   0  0  0  0  0  0  0  0  0  0  0  0
  -33.1961  -23.1547   23.7943 C   0  0  0  0  0  0  0  0  0  0  0  0
  -20.8423   -7.0258   22.9779 C   0  0  0  0  0  0  0  0  0  0  0  0
  -19.3097   -7.0128   25.3088 C   0  0  0  0  0  0  0  0  0  0  0  0
  -21.0771   -6.0651   23.9615 C   0  0  0  0  0  0  0  0  0  0  0  0
  -24.5927  -11.6269   20.7099 C   0  0  0  0  0  0  0  0  0  0  0  0
  -25.2589  -13.7036   20.4298 C   0  0  0  0  0  0  0  0  0  0  0  0
  -22.8901  -13.4915   21.1994 C   0  0  0  0  0  0  0  0  0  0  0  0
  -31.4844  -26.8118   20.1667 C   0  0  0  0  0  0  0  0  0  0  0  0
  -31.1918  -24.3954   18.0225 C   0  0  0  0  0  0  0  0  0  0  0  0
  -33.7841  -19.5167   25.2269 C   0  0  0  0  0  0  0  0  0  0  0  0
  -31.4712  -21.0589   17.3614 C   0  0  0  0  0  0  0  0  0  0  0  0
  -30.7233  -14.7563   20.6182 C   0  0  0  0  0  0  0  0  0  0  0  0
  -31.8054  -31.9048   20.0393 C   0  0  0  0  0  0  0  0  0  0  0  0
  -33.7351  -25.6923   20.3598 C   0  0  0  0  0  0  0  0  0  0  0  0
  -31.5234  -23.7306   20.4336 C   0  0  0  0  0  0  0  0  0  0  0  0
  -31.2156  -30.8251   19.1356 C   0  0  0  0  0  0  0  0  0  0  0  0
  -29.6285  -12.2748   18.3116 C   0  0  0  0  0  0  0  0  0  0  0  0
  -30.3614  -29.8570   19.9479 C   0  0  0  0  0  0  0  0  0  0  0  0
  -28.1855  -11.9951   18.7378 C   0  0  0  0  0  0  0  0  0  0  0  0
  -30.5338  -12.5385   19.5134 C   0  0  0  0  0  0  0  0  0  0  0  0
  -28.6157  -13.3016   20.8579 C   0  0  0  0  0  0  0  0  0  0  0  0
  -31.2020  -29.1360   21.0087 C   0  0  1  0  0  0  0  0  0  0  0  0
  -32.4704  -25.8760   19.5265 C   0  0  1  0  0  0  0  0  0  0  0  0
  -27.6524  -13.0940   19.6778 C   0  0  2  0  0  0  0  0  0  0  0  0
  -29.5489  -19.3716   24.6467 C   0  0  0  0  0  0  0  0  0  0  0  0
  -31.1255  -19.3778   15.5306 C   0  0  0  0  0  0  0  0  0  0  0  0
  -28.1771  -24.5268   18.4744 C   0  0  0  0  0  0  0  0  0  0  0  0
  -27.9877  -22.2746   17.3974 C   0  0  0  0  0  0  0  0  0  0  0  0
  -28.8617  -24.2108   16.0899 C   0  0  0  0  0  0  0  0  0  0  0  0
  -34.3302  -20.2942   17.3653 C   0  0  0  0  0  0  0  0  0  0  0  0
  -34.0072  -20.6272   26.2471 C   0  0  0  0  0  0  0  0  0  0  0  0
  -34.2037  -21.9941   25.6092 C   0  0  0  0  0  0  0  0  0  1  0  0
  -30.3032  -23.1817   17.8941 C   0  0  1  0  0  0  0  0  0  0  0  0
  -32.1165  -20.3111   16.2087 C   0  0  2  0  0  0  0  0  0  0  0  0
  -28.8492  -23.5523   17.4866 C   0  0  0  0  0  0  0  0  0  0  0  0
  -25.8609  -11.5197   20.3047 N   0  0  0  0  0  0  0  0  0  0  0  0
  -26.2385  -12.7992   20.1425 N   0  0  0  0  0  0  0  0  0  0  0  0
  -31.7663  -24.6155   19.2823 N   0  0  0  0  0  0  0  0  0  0  0  0
  -29.9676  -13.5939   20.3563 N   0  0  0  0  0  0  0  0  0  0  0  0
  -25.4696  -15.0325   20.3202 N   0  0  0  0  0  0  0  0  0  0  0  0
  -21.8757  -12.5920   21.5546 N   0  0  0  0  0  0  0  0  0  0  0  0
  -32.4266  -19.3713   24.9539 N   0  0  0  0  0  0  0  0  0  0  0  0
  -30.0692  -15.7042   21.4044 N   0  0  0  0  0  0  0  0  0  0  0  0
  -31.9826  -28.0790   20.4023 N   0  0  0  0  0  0  0  0  0  0  0  0
  -30.9738  -22.2815   16.9623 N   0  0  0  0  0  0  0  0  0  0  0  0
  -33.2674  -19.5000   16.6970 N   0  3  0  0  0  0  0  0  0  0  0  0
  -22.6531  -14.7232   21.2194 O   0  0  0  0  0  0  0  0  0  0  0  0
  -30.3548  -26.4140   20.4262 O   0  0  0  0  0  0  0  0  0  0  0  0
  -31.3753  -25.1173   17.0392 O   0  0  0  0  0  0  0  0  0  0  0  0
  -34.7125  -18.8738   24.7482 O   0  0  0  0  0  0  0  0  0  0  0  0
  -31.4109  -20.6025   18.5009 O   0  0  0  0  0  0  0  0  0  0  0  0
  -31.8561  -14.9120   20.1550 O   0  0  0  0  0  0  0  0  0  0  0  0
  -21.6028   -7.0341   21.8206 O   0  0  0  0  0  0  0  0  0  0  0  0
  -33.0304  -22.3495   24.8788 O   0  0  0  0  0  0  0  0  0  1  0  0
  -18.5747   -7.0075   26.4286 F   0  0  0  0  0  0  0  0  0  0  0  0
  -22.0382   -5.1466   23.7930 F   0  0  0  0  0  0  0  0  0  0  0  0
  1  2  1  0  0  0  0
  1  5  2  0  0  0  0
  2  6  2  0  0  0  0
  3 10  2  0  0  0  0
  3 18  1  0  0  0  0
  4 11  1  0  0  0  0
  4 18  2  0  0  0  0
  5 20  1  0  0  0  0
  6 22  1  0  0  0  0
  7 12  2  0  0  0  0
  7 21  1  0  0  0  0
  8  9  2  0  0  0  0
  8 25  1  0  0  0  0
  9 26  1  0  0  0  0
 10 27  1  0  0  0  0
 11 27  2  0  0  0  0
 12 28  1  0  0  0  0
 13 14  2  0  0  0  0
 13 29  1  0  0  0  0
 14 30  1  0  0  0  0
 15 23  1  0  0  0  0
 15 28  2  0  0  0  0
 16 24  1  0  0  0  0
 16 25  2  0  0  0  0
 17 30  2  0  0  0  0
 17 31  1  0  0  0  0
 18 32  1  0  0  0  0
 19 32  1  0  0  0  0
 19 33  2  0  0  0  0
 19 34  1  0  0  0  0
 20 22  2  0  0  0  0
 20 40  1  0  0  0  0
 21 23  2  0  0  0  0
 21 41  1  0  0  0  0
 22 49  1  0  0  0  0
 23 42  1  0  0  0  0
 24 26  2  0  0  0  0
 24 52  1  0  0  0  0
 25 70  1  0  0  0  0
 26 69  1  0  0  0  0
 27 80  1  0  0  0  0
 28 81  1  0  0  0  0
 29 31  2  0  0  0  0
 29 80  1  0  0  0  0
 30 82  1  0  0  0  0
 31 83  1  0  0  0  0
 32 63  2  0  0  0  0
 33 64  1  0  0  0  0
 33 67  1  0  0  0  0
 34 68  1  0  0  0  0
 34 74  2  0  0  0  0
 35 50  1  0  0  0  0
 35 71  1  0  0  0  0
 35 75  2  0  0  0  0
 36 60  1  0  0  0  0
 36 65  1  0  0  0  0
 36 76  2  0  0  0  0
 37 58  1  0  0  0  0
 37 69  1  0  0  0  0
 37 77  2  0  0  0  0
 38 61  1  0  0  0  0
 38 72  1  0  0  0  0
 38 78  2  0  0  0  0
 39 66  1  0  0  0  0
 39 70  1  0  0  0  0
 39 79  2  0  0  0  0
 40 43  1  0  0  0  0
 41 50  1  0  0  0  0
 42 65  1  0  0  0  0
 43 45  1  0  0  0  0
 44 46  1  0  0  0  0
 44 47  1  0  0  0  0
 45 49  1  0  0  0  0
 46 51  1  0  0  0  0
 47 66  1  0  0  0  0
 48 51  1  0  0  0  0
 48 66  1  0  0  0  0
 49 71  1  0  0  0  0
 50 65  1  0  0  0  0
 51 64  1  0  0  0  0
 53 61  1  0  0  0  0
 54 62  1  0  0  0  0
 55 62  1  0  0  0  0
 56 62  1  0  0  0  0
 57 73  1  0  0  0  0
 58 59  1  0  0  0  0
 59 81  1  0  0  0  0
 60 62  1  0  0  0  0
 60 72  1  0  0  0  0
 61 73  1  0  0  0  0
 63 64  1  0  0  0  0
M  CHG  1  73   1
M  ISO  4  39 100  59 101  70 100  81 101
M  END
> <Batch ID>
0009

> <Smiles>
CNC(C)C(=O)NC(C(=O)N1Cc2cc([101O:1][101CH2:1]CC(=O)Nc3ccc([100NH:0][100C:0](=O)N4CCCC(n5nc(-c6ccc(Oc7ccc(F)cc7F)cc6)c(C(N)=O)c5N)C4)cc3C)ccc2CC1C(=O)NC1CCCc2ccccc21)C(C)(C)C

> <Shape>
0.224

> <Color>
0.193

> <Negative vol penalty>
0.000

$$$$

  -OEChem-04052315383D

 74 81  0     1  0  0  0  0  0999 V2000
  -18.5055  -32.7912   20.6040 C   0  0  0  0  0  0  0  0  0  0  0  0
  -19.8249  -32.5748   20.2195 C   0  0  0  0  0  0  0  0  0  0  0  0
  -29.7103  -17.6545   21.2976 C   0  0  0  0  0  0  0  0  0  0  0  0
  -31.7465  -18.0944   20.0739 C   0  0  0  0  0  0  0  0  0  0  0  0
  -18.0272  -32.2394   21.7917 C   0  0  0  0  0  0  0  0  0  0  0  0
  -20.6671  -31.8073   21.0232 C   0  0  0  0  0  0  0  0  0  0  0  0
  -25.1282  -28.0527   19.1500 C   0  0  0  0  0  0  0  0  0  0  0  0
  -29.9057  -16.2836   21.1299 C   0  0  0  0  0  0  0  0  0  0  0  0
  -31.9419  -16.7235   19.9062 C   0  0  0  0  0  0  0  0  0  0  0  0
  -26.5093  -28.2142   19.0488 C   0  0  0  0  0  0  0  0  0  0  0  0
  -29.6805  -12.6782   20.7133 C   0  0  0  0  0  0  0  0  0  0  0  0
  -28.5823  -11.9068   20.3332 C   0  0  0  0  0  0  0  0  0  0  0  0
  -26.7835  -27.1686   21.2054 C   0  0  0  0  0  0  0  0  0  0  0  0
  -28.3664  -13.2109   18.3108 C   0  0  0  0  0  0  0  0  0  0  0  0
  -30.6307  -18.5599   20.7695 C   0  0  0  0  0  0  0  0  0  0  0  0
  -30.8932  -20.7781   22.0018 C   0  0  0  0  0  0  0  0  0  0  0  0
  -18.8613  -31.4567   22.6056 C   0  0  0  0  0  0  0  0  0  0  0  0
  -24.5626  -27.4568   20.2865 C   0  0  0  0  0  0  0  0  0  0  0  0
  -20.2000  -31.2456   22.2236 C   0  0  0  0  0  0  0  0  0  0  0  0
  -25.3951  -26.9984   21.3174 C   0  0  0  0  0  0  0  0  0  0  0  0
  -31.0214  -15.8181   20.4343 C   0  0  0  0  0  0  0  0  0  0  0  0
  -27.3369  -27.7748   20.0779 C   0  0  0  0  0  0  0  0  0  0  0  0
  -30.1216  -13.7160   19.8923 C   0  0  0  0  0  0  0  0  0  0  0  0
  -27.9253  -12.1731   19.1319 C   0  0  0  0  0  0  0  0  0  0  0  0
  -29.4646  -13.9823   18.6910 C   0  0  0  0  0  0  0  0  0  0  0  0
  -30.4292  -19.9762   20.9418 C   0  0  0  0  0  0  0  0  0  0  0  0
  -30.4411  -22.0397   21.7012 C   0  0  0  0  0  0  0  0  0  0  0  0
  -31.6641  -20.4150   23.1549 C   0  0  0  0  0  0  0  0  0  0  0  0
  -22.5476  -28.4112   22.5520 C   0  0  0  0  0  0  0  0  0  0  0  0
  -30.8018  -26.8283   19.8639 C   0  0  0  0  0  0  0  0  0  0  0  0
  -22.7292  -25.3072   23.4763 C   0  0  0  0  0  0  0  0  0  0  0  0
  -24.4966  -22.3878   23.4928 C   0  0  0  0  0  0  0  0  0  0  0  0
  -29.7534  -26.1151   17.9377 C   0  0  0  0  0  0  0  0  0  0  0  0
  -18.3128  -30.9204   23.9041 C   0  0  0  0  0  0  0  0  0  0  0  0
  -23.0729  -27.2658   20.3684 C   0  0  0  0  0  0  0  0  0  0  0  0
  -24.8392  -26.3339   22.5494 C   0  0  0  0  0  0  0  0  0  0  0  0
  -19.1637  -29.8080   24.5115 C   0  0  0  0  0  0  0  0  0  0  0  0
  -27.1408  -23.6363   18.2284 C   0  0  0  0  0  0  0  0  0  0  0  0
  -20.6394  -30.1936   24.4921 C   0  0  0  0  0  0  0  0  0  0  0  0
  -27.8152  -22.5099   19.0109 C   0  0  0  0  0  0  0  0  0  0  0  0
  -28.1260  -24.3407   17.3010 C   0  0  0  0  0  0  0  0  0  0  0  0
  -30.0181  -23.7419   18.7896 C   0  0  0  0  0  0  0  0  0  0  0  0
  -21.1374  -30.3981   23.0563 C   0  0  1  0  0  0  0  0  0  0  0  0
  -22.5683  -27.1107   21.7998 C   0  0  1  0  0  0  0  0  0  0  0  0
  -29.0595  -23.0251   19.7554 C   0  0  2  0  0  0  0  0  0  0  0  0
  -32.0778  -27.1267   20.6110 C   0  0  0  0  0  0  0  0  0  0  0  0
  -24.4062  -20.0352   24.3615 C   0  0  0  0  0  0  0  0  0  0  0  0
  -23.4661  -26.3101   26.2622 C   0  0  0  0  0  0  0  0  0  0  0  0
  -24.2751  -24.0032   26.8027 C   0  0  0  0  0  0  0  0  0  0  0  0
  -21.8755  -24.3805   26.2351 C   0  0  0  0  0  0  0  0  0  0  0  0
  -24.5426  -21.2535   20.7597 C   0  0  0  0  0  0  0  0  0  0  0  0
  -29.5056  -26.9748   20.6333 C   0  0  0  0  0  0  0  0  0  1  0  0
  -23.6179  -24.5195   24.4084 C   0  0  1  0  0  0  0  0  0  0  0  0
  -24.0822  -20.9577   23.1967 C   0  0  2  0  0  0  0  0  0  0  0  0
  -23.3193  -24.8175   25.9049 C   0  0  0  0  0  0  0  0  0  0  0  0
  -29.7353  -20.6701   20.0357 N   0  0  0  0  0  0  0  0  0  0  0  0
  -30.9014  -26.4190   18.6350 N   0  0  0  0  0  0  0  0  0  0  0  0
  -29.7599  -21.9213   20.5255 N   0  0  0  0  0  0  0  0  0  0  0  0
  -23.3759  -26.1756   22.5856 N   0  0  0  0  0  0  0  0  0  0  0  0
  -29.3136  -24.7837   18.0314 N   0  0  0  0  0  0  0  0  0  0  0  0
  -30.5636  -23.2277   22.3306 N   0  0  0  0  0  0  0  0  0  0  0  0
  -32.0452  -19.0751   23.3090 N   0  0  0  0  0  0  0  0  0  0  0  0
  -21.3702  -29.1216   22.4154 N   0  0  0  0  0  0  0  0  0  0  0  0
  -23.4603  -23.1179   24.0353 N   0  0  0  0  0  0  0  0  0  0  0  0
  -24.7905  -20.4532   21.9865 N   0  3  0  0  0  0  0  0  0  0  0  0
  -31.9908  -21.2509   24.0312 O   0  0  0  0  0  0  0  0  0  0  0  0
  -23.5268  -28.7448   23.2090 O   0  0  0  0  0  0  0  0  0  0  0  0
  -21.5066  -25.1522   23.5315 O   0  0  0  0  0  0  0  0  0  0  0  0
  -25.6276  -22.8135   23.2690 O   0  0  0  0  0  0  0  0  0  0  0  0
  -29.1710  -26.9550   17.2496 O   0  0  0  0  0  0  0  0  0  0  0  0
  -31.2125  -14.4804   20.2707 O   0  0  0  0  0  0  0  0  0  0  0  0
  -28.6984  -27.9333   19.9810 O   0  0  0  0  0  0  0  0  0  1  0  0
  -26.8717  -11.4313   18.7662 F   0  0  0  0  0  0  0  0  0  0  0  0
  -29.8844  -14.9773   17.8975 F   0  0  0  0  0  0  0  0  0  0  0  0
  1  2  1  0  0  0  0
  1  5  2  0  0  0  0
  2  6  2  0  0  0  0
  3  8  2  0  0  0  0
  3 15  1  0  0  0  0
  4  9  1  0  0  0  0
  4 15  2  0  0  0  0
  5 17  1  0  0  0  0
  6 19  1  0  0  0  0
  7 10  2  0  0  0  0
  7 18  1  0  0  0  0
  8 21  1  0  0  0  0
  9 21  2  0  0  0  0
 10 22  1  0  0  0  0
 11 12  2  0  0  0  0
 11 23  1  0  0  0  0
 12 24  1  0  0  0  0
 13 20  1  0  0  0  0
 13 22  2  0  0  0  0
 14 24  2  0  0  0  0
 14 25  1  0  0  0  0
 15 26  1  0  0  0  0
 16 26  1  0  0  0  0
 16 27  2  0  0  0  0
 16 28  1  0  0  0  0
 17 19  2  0  0  0  0
 17 34  1  0  0  0  0
 18 20  2  0  0  0  0
 18 35  1  0  0  0  0
 19 43  1  0  0  0  0
 20 36  1  0  0  0  0
 21 71  1  0  0  0  0
 22 72  1  0  0  0  0
 23 25  2  0  0  0  0
 23 71  1  0  0  0  0
 24 73  1  0  0  0  0
 25 74  1  0  0  0  0
 26 56  2  0  0  0  0
 27 58  1  0  0  0  0
 27 61  1  0  0  0  0
 28 62  1  0  0  0  0
 28 66  2  0  0  0  0
 29 44  1  0  0  0  0
 29 63  1  0  0  0  0
 29 67  2  0  0  0  0
 30 46  1  0  0  0  0
 30 52  1  0  0  0  0
 30 57  2  0  0  0  0
 31 53  1  0  0  0  0
 31 59  1  0  0  0  0
 31 68  2  0  0  0  0
 32 54  1  0  0  0  0
 32 64  1  0  0  0  0
 32 69  2  0  0  0  0
 33 57  1  0  0  0  0
 33 60  1  0  0  0  0
 33 70  2  0  0  0  0
 34 37  1  0  0  0  0
 35 44  1  0  0  0  0
 36 59  1  0  0  0  0
 37 39  1  0  0  0  0
 38 40  1  0  0  0  0
 38 41  1  0  0  0  0
 39 43  1  0  0  0  0
 40 45  1  0  0  0  0
 41 60  1  0  0  0  0
 42 45  1  0  0  0  0
 42 60  1  0  0  0  0
 43 63  1  0  0  0  0
 44 59  1  0  0  0  0
 45 58  1  0  0  0  0
 47 54  1  0  0  0  0
 48 55  1  0  0  0  0
 49 55  1  0  0  0  0
 50 55  1  0  0  0  0
 51 65  1  0  0  0  0
 52 72  1  0  0  0  0
 53 55  1  0  0  0  0
 53 64  1  0  0  0  0
 54 65  1  0  0  0  0
 56 58  1  0  0  0  0
M  CHG  1  65   1
M  ISO  4  33 100  52 101  57 100  72 101
M  END
> <Batch ID>
0009

> <Smiles>
CNC(C)C(=O)NC(C(=O)N1Cc2cc([101O:1][101CH2:1]C(C)=[100N:0][100C:0](=O)N3CCCC(n4nc(-c5ccc(Oc6ccc(F)cc6F)cc5)c(C(N)=O)c4N)C3)ccc2CC1C(=O)NC1CCCc2ccccc21)C(C)(C)C

> <Shape>
0.217

> <Color>
0.111

> <Negative vol penalty>
0.000

$$$$

  -OEChem-04052315383D

 77 84  0     1  0  0  0  0  0999 V2000
  -20.0219  -31.1990   21.5454 C   0  0  0  0  0  0  0  0  0  0  0  0
  -21.3324  -30.7360   21.6063 C   0  0  0  0  0  0  0  0  0  0  0  0
  -27.3797  -17.9338   21.2564 C   0  0  0  0  0  0  0  0  0  0  0  0
  -29.7410  -17.4742   21.0328 C   0  0  0  0  0  0  0  0  0  0  0  0
  -18.9650  -30.3362   21.8325 C   0  0  0  0  0  0  0  0  0  0  0  0
  -21.5868  -29.4102   21.9554 C   0  0  0  0  0  0  0  0  0  0  0  0
  -25.0467  -27.2421   18.9599 C   0  0  0  0  0  0  0  0  0  0  0  0
  -27.1246  -16.5673   21.3717 C   0  0  0  0  0  0  0  0  0  0  0  0
  -29.4859  -16.1077   21.1481 C   0  0  0  0  0  0  0  0  0  0  0  0
  -26.3837  -27.5547   19.2016 C   0  0  0  0  0  0  0  0  0  0  0  0
  -29.4196  -12.4759   21.0228 C   0  0  0  0  0  0  0  0  0  0  0  0
  -30.0631  -11.6186   20.1303 C   0  0  0  0  0  0  0  0  0  0  0  0
  -26.6490  -25.4732   20.3917 C   0  0  0  0  0  0  0  0  0  0  0  0
  -29.0012  -12.7497   18.2782 C   0  0  0  0  0  0  0  0  0  0  0  0
  -28.6879  -18.3872   21.0869 C   0  0  0  0  0  0  0  0  0  0  0  0
  -29.2270  -20.7035   22.0099 C   0  0  0  0  0  0  0  0  0  0  0  0
  -19.2061  -28.9966   22.1759 C   0  0  0  0  0  0  0  0  0  0  0  0
  -24.4970  -26.0457   19.4426 C   0  0  0  0  0  0  0  0  0  0  0  0
  -20.5322  -28.5290   22.2487 C   0  0  0  0  0  0  0  0  0  0  0  0
  -25.3055  -25.1466   20.1527 C   0  0  0  0  0  0  0  0  0  0  0  0
  -28.1777  -15.6543   21.3176 C   0  0  0  0  0  0  0  0  0  0  0  0
  -27.1844  -26.6716   19.9201 C   0  0  0  0  0  0  0  0  0  0  0  0
  -28.5668  -13.4700   20.5430 C   0  0  0  0  0  0  0  0  0  0  0  0
  -29.8540  -11.7555   18.7580 C   0  0  0  0  0  0  0  0  0  0  0  0
  -28.3576  -13.6069   19.1707 C   0  0  0  0  0  0  0  0  0  0  0  0
  -28.9519  -19.7986   20.9671 C   0  0  0  0  0  0  0  0  0  0  0  0
  -29.4031  -21.9108   21.3792 C   0  0  0  0  0  0  0  0  0  0  0  0
  -29.3155  -20.4732   23.4222 C   0  0  0  0  0  0  0  0  0  0  0  0
  -22.1653  -25.3067   21.4726 C   0  0  0  0  0  0  0  0  0  0  0  0
  -22.7938  -22.2814   20.4852 C   0  0  0  0  0  0  0  0  0  0  0  0
  -25.0244  -20.0783   19.1370 C   0  0  0  0  0  0  0  0  0  0  0  0
  -32.4689  -27.5750   19.0820 C   0  0  0  0  0  0  0  0  0  0  0  0
  -31.5571  -24.9701   17.2383 C   0  0  0  0  0  0  0  0  0  0  0  0
  -18.0336  -28.1140   22.5239 C   0  0  0  0  0  0  0  0  0  0  0  0
  -23.0600  -25.7108   19.1505 C   0  0  0  0  0  0  0  0  0  0  0  0
  -24.7688  -23.8398   20.6750 C   0  0  0  0  0  0  0  0  0  0  0  0
  -18.3699  -26.6250   22.5207 C   0  0  0  0  0  0  0  0  0  0  0  0
  -28.4798  -23.2959   16.6027 C   0  0  0  0  0  0  0  0  0  0  0  0
  -19.6727  -26.3703   23.2720 C   0  0  0  0  0  0  0  0  0  0  0  0
  -28.3544  -22.3077   17.7636 C   0  0  0  0  0  0  0  0  0  0  0  0
  -29.9295  -23.4529   16.1493 C   0  0  0  0  0  0  0  0  0  0  0  0
  -30.7539  -22.8156   18.3827 C   0  0  0  0  0  0  0  0  0  0  0  0
  -20.8474  -27.0911   22.5995 C   0  0  1  0  0  0  0  0  0  0  0  0
  -22.4703  -24.7021   20.1313 C   0  0  1  0  0  0  0  0  0  0  0  0
  -29.3171  -22.6662   18.9116 C   0  0  2  0  0  0  0  0  0  0  0  0
  -25.8776  -17.9217   18.1787 C   0  0  0  0  0  0  0  0  0  0  0  0
  -23.1118  -21.5223   23.4234 C   0  0  0  0  0  0  0  0  0  0  0  0
  -24.2530  -19.4199   22.6846 C   0  0  0  0  0  0  0  0  0  0  0  0
  -21.8807  -19.8421   22.0391 C   0  0  0  0  0  0  0  0  0  0  0  0
  -24.2061  -20.8380   16.3962 C   0  0  0  0  0  0  0  0  0  0  0  0
  -33.1791  -26.3950   18.4621 C   0  0  0  0  0  0  0  0  0  0  0  0
  -28.9730  -28.2142   19.6421 C   0  0  0  0  0  0  0  0  0  1  0  0
  -30.4380  -28.3635   20.0040 C   0  0  0  0  0  0  0  0  0  0  0  0
  -23.7218  -21.1801   20.9380 C   0  0  1  0  0  0  0  0  0  0  0  0
  -24.8858  -19.0632   18.0169 C   0  0  2  0  0  0  0  0  0  0  0  0
  -23.2517  -20.5165   22.2632 C   0  0  0  0  0  0  0  0  0  0  0  0
  -28.9520  -20.3814   19.7653 N   0  0  0  0  0  0  0  0  0  0  0  0
  -29.2293  -21.6654   20.0489 N   0  0  0  0  0  0  0  0  0  0  0  0
  -23.3561  -23.5605   20.3690 N   0  0  0  0  0  0  0  0  0  0  0  0
  -30.7899  -23.7944   17.2847 N   0  0  0  0  0  0  0  0  0  0  0  0
  -29.6881  -23.1479   21.8384 N   0  0  0  0  0  0  0  0  0  0  0  0
  -29.1070  -19.1727   23.9015 N   0  0  0  0  0  0  0  0  0  0  0  0
  -21.2791  -26.3658   21.4239 N   0  0  0  0  0  0  0  0  0  0  0  0
  -23.8370  -20.2560   19.8151 N   0  0  0  0  0  0  0  0  0  0  0  0
  -32.3399  -25.2221   18.3583 N   0  0  0  0  0  0  0  0  0  0  0  0
  -25.1272  -19.7120   16.6971 N   0  3  0  0  0  0  0  0  0  0  0  0
  -29.5556  -21.3965   24.2367 O   0  0  0  0  0  0  0  0  0  0  0  0
  -22.6937  -24.8455   22.4774 O   0  0  0  0  0  0  0  0  0  0  0  0
  -21.6152  -22.0151   20.2368 O   0  0  0  0  0  0  0  0  0  0  0  0
  -26.0813  -20.6533   19.3879 O   0  0  0  0  0  0  0  0  0  0  0  0
  -33.0263  -28.6538   19.2565 O   0  0  0  0  0  0  0  0  0  0  0  0
  -31.5412  -25.7410   16.2727 O   0  0  0  0  0  0  0  0  0  0  0  0
  -27.9292  -14.3208   21.4303 O   0  0  0  0  0  0  0  0  0  0  0  0
  -28.4896  -26.9746   20.1579 O   0  0  0  0  0  0  0  0  0  1  0  0
  -31.1734  -27.2990   19.4131 O   0  0  0  0  0  0  0  0  0  0  0  0
  -30.4732  -10.9332   17.9010 F   0  0  0  0  0  0  0  0  0  0  0  0
  -27.5404  -14.5608   18.7038 F   0  0  0  0  0  0  0  0  0  0  0  0
  1  2  1  0  0  0  0
  1  5  2  0  0  0  0
  2  6  2  0  0  0  0
  3  8  2  0  0  0  0
  3 15  1  0  0  0  0
  4  9  1  0  0  0  0
  4 15  2  0  0  0  0
  5 17  1  0  0  0  0
  6 19  1  0  0  0  0
  7 10  2  0  0  0  0
  7 18  1  0  0  0  0
  8 21  1  0  0  0  0
  9 21  2  0  0  0  0
 10 22  1  0  0  0  0
 11 12  2  0  0  0  0
 11 23  1  0  0  0  0
 12 24  1  0  0  0  0
 13 20  1  0  0  0  0
 13 22  2  0  0  0  0
 14 24  2  0  0  0  0
 14 25  1  0  0  0  0
 15 26  1  0  0  0  0
 16 26  1  0  0  0  0
 16 27  2  0  0  0  0
 16 28  1  0  0  0  0
 17 19  2  0  0  0  0
 17 34  1  0  0  0  0
 18 20  2  0  0  0  0
 18 35  1  0  0  0  0
 19 43  1  0  0  0  0
 20 36  1  0  0  0  0
 21 73  1  0  0  0  0
 22 74  1  0  0  0  0
 23 25  2  0  0  0  0
 23 73  1  0  0  0  0
 24 76  1  0  0  0  0
 25 77  1  0  0  0  0
 26 57  2  0  0  0  0
 27 58  1  0  0  0  0
 27 61  1  0  0  0  0
 28 62  1  0  0  0  0
 28 67  2  0  0  0  0
 29 44  1  0  0  0  0
 29 63  1  0  0  0  0
 29 68  2  0  0  0  0
 30 54  1  0  0  0  0
 30 59  1  0  0  0  0
 30 69  2  0  0  0  0
 31 55  1  0  0  0  0
 31 64  1  0  0  0  0
 31 70  2  0  0  0  0
 32 51  1  0  0  0  0
 32 71  2  0  0  0  0
 32 75  1  0  0  0  0
 33 60  1  0  0  0  0
 33 65  1  0  0  0  0
 33 72  2  0  0  0  0
 34 37  1  0  0  0  0
 35 44  1  0  0  0  0
 36 59  1  0  0  0  0
 37 39  1  0  0  0  0
 38 40  1  0  0  0  0
 38 41  1  0  0  0  0
 39 43  1  0  0  0  0
 40 45  1  0  0  0  0
 41 60  1  0  0  0  0
 42 45  1  0  0  0  0
 42 60  1  0  0  0  0
 43 63  1  0  0  0  0
 44 59  1  0  0  0  0
 45 58  1  0  0  0  0
 46 55  1  0  0  0  0
 47 56  1  0  0  0  0
 48 56  1  0  0  0  0
 49 56  1  0  0  0  0
 50 66  1  0  0  0  0
 51 65  1  0  0  0  0
 52 53  1  0  0  0  0
 52 74  1  0  0  0  0
 53 75  1  0  0  0  0
 54 56  1  0  0  0  0
 54 64  1  0  0  0  0
 55 66  1  0  0  0  0
 57 58  1  0  0  0  0
M  CHG  1  66   1
M  ISO  4  33 100  52 101  65 100  74 101
M  END
> <Batch ID>
0009

> <Smiles>
CNC(C)C(=O)NC(C(=O)N1Cc2cc([101O:1][101CH2:1]COC(=O)C[100NH:0][100C:0](=O)N3CCCC(n4nc(-c5ccc(Oc6ccc(F)cc6F)cc5)c(C(N)=O)c4N)C3)ccc2CC1C(=O)NC1CCCc2ccccc21)C(C)(C)C

> <Shape>
0.230

> <Color>
0.074

> <Negative vol penalty>
0.000

$$$$

  -OEChem-04052315383D

 82 90  0     1  0  0  0  0  0999 V2000
  -29.4609  -33.9616   26.0651 C   0  0  0  0  0  0  0  0  0  0  0  0
  -29.6130  -32.8665   25.2207 C   0  0  0  0  0  0  0  0  0  0  0  0
  -24.6254   -9.0141   21.3663 C   0  0  0  0  0  0  0  0  0  0  0  0
  -23.3749  -10.8876   22.2399 C   0  0  0  0  0  0  0  0  0  0  0  0
  -28.2344  -34.1977   26.6847 C   0  0  0  0  0  0  0  0  0  0  0  0
  -28.5389  -32.0061   24.9963 C   0  0  0  0  0  0  0  0  0  0  0  0
  -27.2088  -29.0561   19.7969 C   0  0  0  0  0  0  0  0  0  0  0  0
  -28.2583  -19.0882   20.2571 C   0  0  0  0  0  0  0  0  0  0  0  0
  -27.8311  -20.4045   20.0827 C   0  0  0  0  0  0  0  0  0  0  0  0
  -24.0837   -8.1918   22.3542 C   0  0  0  0  0  0  0  0  0  0  0  0
  -22.8332  -10.0653   23.2279 C   0  0  0  0  0  0  0  0  0  0  0  0
  -27.4513  -27.7511   19.3704 C   0  0  0  0  0  0  0  0  0  0  0  0
  -21.1749   -6.5638   22.9211 C   0  0  0  0  0  0  0  0  0  0  0  0
  -20.7074   -5.3078   22.5345 C   0  0  0  0  0  0  0  0  0  0  0  0
  -25.2378  -27.1124   20.0857 C   0  0  0  0  0  0  0  0  0  0  0  0
  -26.2425  -18.5979   21.4954 C   0  0  0  0  0  0  0  0  0  0  0  0
  -22.2821   -4.2592   24.0373 C   0  0  0  0  0  0  0  0  0  0  0  0
  -24.2711  -10.3620   21.3092 C   0  0  0  0  0  0  0  0  0  0  0  0
  -24.3057  -11.4600   19.0068 C   0  0  0  0  0  0  0  0  0  0  0  0
  -27.1420  -33.3453   26.4602 C   0  0  0  0  0  0  0  0  0  0  0  0
  -25.9808  -29.3971   20.3819 C   0  0  0  0  0  0  0  0  0  0  0  0
  -27.2970  -32.2302   25.6146 C   0  0  0  0  0  0  0  0  0  0  0  0
  -24.9812  -28.4230   20.5164 C   0  0  0  0  0  0  0  0  0  0  0  0
  -27.4640  -18.1849   20.9633 C   0  0  0  0  0  0  0  0  0  0  0  0
  -26.6097  -20.8176   20.6148 C   0  0  0  0  0  0  0  0  0  0  0  0
  -23.1876   -8.7174   23.2850 C   0  0  0  0  0  0  0  0  0  0  0  0
  -26.4669  -26.7783   19.5174 C   0  0  0  0  0  0  0  0  0  0  0  0
  -22.1961   -6.6675   23.8657 C   0  0  0  0  0  0  0  0  0  0  0  0
  -21.2610   -4.1555   23.0926 C   0  0  0  0  0  0  0  0  0  0  0  0
  -25.8153  -19.9143   21.3211 C   0  0  0  0  0  0  0  0  0  0  0  0
  -22.7496   -5.5153   24.4238 C   0  0  0  0  0  0  0  0  0  0  0  0
  -24.8308  -11.2121   20.2892 C   0  0  0  0  0  0  0  0  0  0  0  0
  -25.2014  -12.3274   18.4309 C   0  0  0  0  0  0  0  0  0  0  0  0
  -23.1148  -10.9516   18.3912 C   0  0  0  0  0  0  0  0  0  0  0  0
  -25.0781  -30.4896   23.2271 C   0  0  0  0  0  0  0  0  0  0  0  0
  -22.1722  -30.6800   21.7983 C   0  0  0  0  0  0  0  0  0  0  0  0
  -26.8424  -23.1750   19.7648 C   0  0  0  0  0  0  0  0  0  0  0  0
  -20.0775  -29.5876   19.3354 C   0  0  0  0  0  0  0  0  0  0  0  0
  -29.0827  -16.2756   20.6787 C   0  0  0  0  0  0  0  0  0  0  0  0
  -25.8494  -33.6143   27.1893 C   0  0  0  0  0  0  0  0  0  0  0  0
  -25.7250  -30.8155   20.8123 C   0  0  0  0  0  0  0  0  0  0  0  0
  -23.6386  -28.7425   21.1196 C   0  0  0  0  0  0  0  0  0  0  0  0
  -24.6534  -32.8673   26.6047 C   0  0  0  0  0  0  0  0  0  0  0  0
  -29.8337  -13.5387   18.5288 C   0  0  0  0  0  0  0  0  0  0  0  0
  -25.0100  -31.4067   26.3474 C   0  0  0  0  0  0  0  0  0  0  0  0
  -28.5857  -12.6570   18.6148 C   0  0  0  0  0  0  0  0  0  0  0  0
  -30.1628  -14.1883   19.8717 C   0  0  0  0  0  0  0  0  0  0  0  0
  -27.8072  -14.0443   20.5786 C   0  0  0  0  0  0  0  0  0  0  0  0
  -26.1482  -31.2882   25.3267 C   0  0  1  0  0  0  0  0  0  0  0  0
  -24.6261  -30.9318   21.8641 C   0  0  1  0  0  0  0  0  0  0  0  0
  -27.3984  -13.4199   19.2345 C   0  0  2  0  0  0  0  0  0  0  0  0
  -17.7527  -29.9008   18.4441 C   0  0  0  0  0  0  0  0  0  0  0  0
  -21.0648  -29.0297   24.1135 C   0  0  0  0  0  0  0  0  0  0  0  0
  -19.0308  -28.5762   22.7259 C   0  0  0  0  0  0  0  0  0  0  0  0
  -19.5956  -30.9161   23.3806 C   0  0  0  0  0  0  0  0  0  0  0  0
  -21.0837  -30.5122   16.7103 C   0  0  0  0  0  0  0  0  0  0  0  0
  -26.0333  -24.4580   19.8076 C   0  0  0  0  0  0  0  0  0  1  0  0
  -20.9985  -29.7450   21.6336 C   0  0  1  0  0  0  0  0  0  0  0  0
  -19.2052  -30.3408   18.3474 C   0  0  2  0  0  0  0  0  0  0  0  0
  -20.1983  -29.5600   22.9538 C   0  0  0  0  0  0  0  0  0  0  0  0
  -25.9716  -11.8689   20.5151 N   0  0  0  0  0  0  0  0  0  0  0  0
  -26.1709  -12.5380   19.3668 N   0  0  0  0  0  0  0  0  0  0  0  0
  -23.4389  -30.1419   21.5309 N   0  0  0  0  0  0  0  0  0  0  0  0
  -28.9928  -14.8963   20.3958 N   0  0  0  0  0  0  0  0  0  0  0  0
  -25.2465  -12.9230   17.2202 N   0  0  0  0  0  0  0  0  0  0  0  0
  -22.3079  -10.0704   19.1238 N   0  0  0  0  0  0  0  0  0  0  0  0
  -26.1792  -22.1538   20.4367 N   0  0  0  0  0  0  0  0  0  0  0  0
  -27.8980  -16.8478   21.1411 N   0  0  0  0  0  0  0  0  0  0  0  0
  -25.6472  -31.4953   23.9848 N   0  0  0  0  0  0  0  0  0  0  0  0
  -20.2094  -30.2717   20.5253 N   0  0  0  0  0  0  0  0  0  0  0  0
  -19.6766  -30.1028   16.9539 N   0  3  0  0  0  0  0  0  0  0  0  0
  -22.7849  -11.2565   17.2200 O   0  0  0  0  0  0  0  0  0  0  0  0
  -24.9208  -29.3228   23.5668 O   0  0  0  0  0  0  0  0  0  0  0  0
  -21.9717  -31.8470   22.1444 O   0  0  0  0  0  0  0  0  0  0  0  0
  -27.9277  -23.1185   19.1961 O   0  0  0  0  0  0  0  0  0  0  0  0
  -20.5876  -28.4993   19.0788 O   0  0  0  0  0  0  0  0  0  0  0  0
  -30.1257  -16.9089   20.4965 O   0  0  0  0  0  0  0  0  0  0  0  0
  -22.6586   -7.9153   24.2490 O   0  0  0  0  0  0  0  0  0  0  0  0
  -26.7013  -25.5036   19.1026 O   0  0  0  0  0  0  0  0  0  1  0  0
  -20.8108   -2.9494   22.7225 F   0  0  0  0  0  0  0  0  0  0  0  0
  -24.6401  -20.3006   21.8382 F   0  0  0  0  0  0  0  0  0  0  0  0
  -23.7300   -5.6086   25.3326 F   0  0  0  0  0  0  0  0  0  0  0  0
  1  2  1  0  0  0  0
  1  5  2  0  0  0  0
  2  6  2  0  0  0  0
  3 10  2  0  0  0  0
  3 18  1  0  0  0  0
  4 11  1  0  0  0  0
  4 18  2  0  0  0  0
  5 20  1  0  0  0  0
  6 22  1  0  0  0  0
  7 12  2  0  0  0  0
  7 21  1  0  0  0  0
  8  9  2  0  0  0  0
  8 24  1  0  0  0  0
  9 25  1  0  0  0  0
 10 26  1  0  0  0  0
 11 26  2  0  0  0  0
 12 27  1  0  0  0  0
 13 14  2  0  0  0  0
 13 28  1  0  0  0  0
 14 29  1  0  0  0  0
 15 23  1  0  0  0  0
 15 27  2  0  0  0  0
 16 24  2  0  0  0  0
 16 30  1  0  0  0  0
 17 29  2  0  0  0  0
 17 31  1  0  0  0  0
 18 32  1  0  0  0  0
 19 32  1  0  0  0  0
 19 33  2  0  0  0  0
 19 34  1  0  0  0  0
 20 22  2  0  0  0  0
 20 40  1  0  0  0  0
 21 23  2  0  0  0  0
 21 41  1  0  0  0  0
 22 49  1  0  0  0  0
 23 42  1  0  0  0  0
 24 68  1  0  0  0  0
 25 30  2  0  0  0  0
 25 67  1  0  0  0  0
 26 78  1  0  0  0  0
 27 79  1  0  0  0  0
 28 31  2  0  0  0  0
 28 78  1  0  0  0  0
 29 80  1  0  0  0  0
 30 81  1  0  0  0  0
 31 82  1  0  0  0  0
 32 61  2  0  0  0  0
 33 62  1  0  0  0  0
 33 65  1  0  0  0  0
 34 66  1  0  0  0  0
 34 72  2  0  0  0  0
 35 50  1  0  0  0  0
 35 69  1  0  0  0  0
 35 73  2  0  0  0  0
 36 58  1  0  0  0  0
 36 63  1  0  0  0  0
 36 74  2  0  0  0  0
 37 57  1  0  0  0  0
 37 67  1  0  0  0  0
 37 75  2  0  0  0  0
 38 59  1  0  0  0  0
 38 70  1  0  0  0  0
 38 76  2  0  0  0  0
 39 64  1  0  0  0  0
 39 68  1  0  0  0  0
 39 77  2  0  0  0  0
 40 43  1  0  0  0  0
 41 50  1  0  0  0  0
 42 63  1  0  0  0  0
 43 45  1  0  0  0  0
 44 46  1  0  0  0  0
 44 47  1  0  0  0  0
 45 49  1  0  0  0  0
 46 51  1  0  0  0  0
 47 64  1  0  0  0  0
 48 51  1  0  0  0  0
 48 64  1  0  0  0  0
 49 69  1  0  0  0  0
 50 63  1  0  0  0  0
 51 62  1  0  0  0  0
 52 59  1  0  0  0  0
 53 60  1  0  0  0  0
 54 60  1  0  0  0  0
 55 60  1  0  0  0  0
 56 71  1  0  0  0  0
 57 79  1  0  0  0  0
 58 60  1  0  0  0  0
 58 70  1  0  0  0  0
 59 71  1  0  0  0  0
 61 62  1  0  0  0  0
M  CHG  1  71   1
M  ISO  4  39 100  57 101  68 100  79 101
M  END
> <Batch ID>
0009

> <Smiles>
CNC(C)C(=O)NC(C(=O)N1Cc2cc([101O:1][101CH2:1]C(=O)Nc3ccc([100NH:0][100C:0](=O)N4CCCC(n5nc(-c6ccc(Oc7ccc(F)cc7F)cc6)c(C(N)=O)c5N)C4)cc3F)ccc2CC1C(=O)NC1CCCc2ccccc21)C(C)(C)C

> <Shape>
0.309

> <Color>
0.101

> <Negative vol penalty>
0.000

$$$$

  -OEChem-04052315383D

 84 92  0     1  0  0  0  0  0999 V2000
  -34.3539  -34.9507   21.3156 C   0  0  0  0  0  0  0  0  0  0  0  0
  -34.3154  -33.5656   21.4400 C   0  0  0  0  0  0  0  0  0  0  0  0
  -23.0003   -9.8947   19.9815 C   0  0  0  0  0  0  0  0  0  0  0  0
  -23.7284   -9.9432   22.2847 C   0  0  0  0  0  0  0  0  0  0  0  0
  -33.2922  -35.7215   21.7874 C   0  0  0  0  0  0  0  0  0  0  0  0
  -33.2156  -32.9506   22.0371 C   0  0  0  0  0  0  0  0  0  0  0  0
  -30.7779  -27.5298   20.5612 C   0  0  0  0  0  0  0  0  0  0  0  0
  -31.3949  -18.9743   20.5315 C   0  0  0  0  0  0  0  0  0  0  0  0
  -31.1945  -17.5944   20.5660 C   0  0  0  0  0  0  0  0  0  0  0  0
  -22.2345   -8.7597   20.2475 C   0  0  0  0  0  0  0  0  0  0  0  0
  -22.9626   -8.8081   22.5507 C   0  0  0  0  0  0  0  0  0  0  0  0
  -30.9181  -26.2569   21.1126 C   0  0  0  0  0  0  0  0  0  0  0  0
  -23.2074   -5.4698   22.0745 C   0  0  0  0  0  0  0  0  0  0  0  0
  -23.7962   -4.4520   22.8246 C   0  0  0  0  0  0  0  0  0  0  0  0
  -28.9112  -26.6027   22.4057 C   0  0  0  0  0  0  0  0  0  0  0  0
  -29.7460  -19.2574   22.2745 C   0  0  0  0  0  0  0  0  0  0  0  0
  -22.0744   -4.6923   24.5024 C   0  0  0  0  0  0  0  0  0  0  0  0
  -23.7473  -10.4865   21.0001 C   0  0  0  0  0  0  0  0  0  0  0  0
  -24.1316  -13.0024   20.8266 C   0  0  0  0  0  0  0  0  0  0  0  0
  -32.1744  -35.1150   22.3819 C   0  0  0  0  0  0  0  0  0  0  0  0
  -29.7076  -28.3542   20.9368 C   0  0  0  0  0  0  0  0  0  0  0  0
  -32.1385  -33.7141   22.5185 C   0  0  0  0  0  0  0  0  0  0  0  0
  -28.7583  -27.8846   21.8557 C   0  0  0  0  0  0  0  0  0  0  0  0
  -30.6707  -19.8058   21.3858 C   0  0  0  0  0  0  0  0  0  0  0  0
  -30.2698  -17.0459   21.4546 C   0  0  0  0  0  0  0  0  0  0  0  0
  -22.2156   -8.2164   21.5321 C   0  0  0  0  0  0  0  0  0  0  0  0
  -29.9862  -25.7943   22.0371 C   0  0  0  0  0  0  0  0  0  0  0  0
  -22.0521   -6.0991   22.5383 C   0  0  0  0  0  0  0  0  0  0  0  0
  -29.5455  -17.8774   22.3089 C   0  0  0  0  0  0  0  0  0  0  0  0
  -23.2297   -4.0632   24.0385 C   0  0  0  0  0  0  0  0  0  0  0  0
  -21.4856   -5.7103   23.7522 C   0  0  0  0  0  0  0  0  0  0  0  0
  -24.5391  -11.6587   20.7258 C   0  0  0  0  0  0  0  0  0  0  0  0
  -25.2407  -13.7258   20.4616 C   0  0  0  0  0  0  0  0  0  0  0  0
  -22.8640  -13.5479   21.2154 C   0  0  0  0  0  0  0  0  0  0  0  0
  -29.4485  -31.1862   22.3567 C   0  0  0  0  0  0  0  0  0  0  0  0
  -26.3019  -30.8100   21.6638 C   0  0  0  0  0  0  0  0  0  0  0  0
  -30.2432  -22.1732   22.1252 C   0  0  0  0  0  0  0  0  0  0  0  0
  -23.7186  -28.6856   20.9854 C   0  0  0  0  0  0  0  0  0  0  0  0
  -30.7201  -14.6883   20.6896 C   0  0  0  0  0  0  0  0  0  0  0  0
  -31.0722  -35.9929   22.9195 C   0  0  0  0  0  0  0  0  0  0  0  0
  -29.5557  -29.7144   20.3127 C   0  0  0  0  0  0  0  0  0  0  0  0
  -27.5799  -28.7228   22.2768 C   0  0  0  0  0  0  0  0  0  0  0  0
  -29.7754  -35.2386   23.2015 C   0  0  0  0  0  0  0  0  0  0  0  0
  -29.5996  -12.2378   18.3622 C   0  0  0  0  0  0  0  0  0  0  0  0
  -30.0632  -33.9480   23.9620 C   0  0  0  0  0  0  0  0  0  0  0  0
  -28.1497  -11.9792   18.7780 C   0  0  0  0  0  0  0  0  0  0  0  0
  -30.5016  -12.4801   19.5711 C   0  0  0  0  0  0  0  0  0  0  0  0
  -28.5878  -13.2668   20.9081 C   0  0  0  0  0  0  0  0  0  0  0  0
  -30.9518  -33.0084   23.1380 C   0  0  1  0  0  0  0  0  0  0  0  0
  -28.7122  -30.6671   21.1542 C   0  0  1  0  0  0  0  0  0  0  0  0
  -27.6286  -13.0815   19.7209 C   0  0  2  0  0  0  0  0  0  0  0  0
  -26.3598  -16.6845   23.4856 C   0  0  0  0  0  0  0  0  0  0  0  0
  -21.2565  -28.6700   20.5003 C   0  0  0  0  0  0  0  0  0  0  0  0
  -25.7196  -31.3191   24.6154 C   0  0  0  0  0  0  0  0  0  0  0  0
  -23.4312  -30.3692   24.2560 C   0  0  0  0  0  0  0  0  0  0  0  0
  -24.1318  -32.4272   23.0325 C   0  0  0  0  0  0  0  0  0  0  0  0
  -24.1326  -27.4557   18.3256 C   0  0  0  0  0  0  0  0  0  0  0  0
  -30.7515  -23.5584   21.7709 C   0  0  0  0  0  0  0  0  0  1  0  0
  -27.2855  -17.7983   23.0450 C   0  0  0  0  0  0  0  0  0  0  0  0
  -25.1177  -30.1953   22.3702 C   0  0  1  0  0  0  0  0  0  0  0  0
  -22.6545  -28.7071   19.9029 C   0  0  2  0  0  0  0  0  0  0  0  0
  -24.6232  -31.0624   23.5622 C   0  0  0  0  0  0  0  0  0  0  0  0
  -25.8079  -11.5330   20.3279 N   0  0  0  0  0  0  0  0  0  0  0  0
  -26.2073  -12.8071   20.1753 N   0  0  0  0  0  0  0  0  0  0  0  0
  -27.4786  -30.0479   21.6433 N   0  0  0  0  0  0  0  0  0  0  0  0
  -29.9474  -13.5399   20.4164 N   0  0  0  0  0  0  0  0  0  0  0  0
  -25.4736  -15.0517   20.3608 N   0  0  0  0  0  0  0  0  0  0  0  0
  -21.8329  -12.6631   21.5592 N   0  0  0  0  0  0  0  0  0  0  0  0
  -30.8737  -21.2058   21.3501 N   0  0  0  0  0  0  0  0  0  0  0  0
  -30.0766  -15.6424   21.4772 N   0  0  0  0  0  0  0  0  0  0  0  0
  -30.1717  -32.3394   22.1190 N   0  0  0  0  0  0  0  0  0  0  0  0
  -24.1081  -29.9588   21.3440 N   0  0  0  0  0  0  0  0  0  0  0  0
  -22.8109  -27.5322   18.9995 N   0  3  0  0  0  0  0  0  0  0  0  0
  -22.6469  -14.7831   21.2409 O   0  0  0  0  0  0  0  0  0  0  0  0
  -29.3653  -30.5859   23.4218 O   0  0  0  0  0  0  0  0  0  0  0  0
  -26.1850  -31.9221   21.1431 O   0  0  0  0  0  0  0  0  0  0  0  0
  -29.3895  -22.0037   22.9895 O   0  0  0  0  0  0  0  0  0  0  0  0
  -24.1574  -27.6438   21.4675 O   0  0  0  0  0  0  0  0  0  0  0  0
  -31.8582  -14.8281   20.2343 O   0  0  0  0  0  0  0  0  0  0  0  0
  -21.4682   -7.1090   21.7920 O   0  0  0  0  0  0  0  0  0  0  0  0
  -30.1210  -24.5526   22.5773 O   0  0  0  0  0  0  0  0  0  1  0  0
  -28.6358  -17.3621   23.1837 O   0  0  0  0  0  0  0  0  0  0  0  0
  -23.7944   -3.0846   24.7581 F   0  0  0  0  0  0  0  0  0  0  0  0
  -20.3751   -6.3103   24.2024 F   0  0  0  0  0  0  0  0  0  0  0  0
  1  2  1  0  0  0  0
  1  5  2  0  0  0  0
  2  6  2  0  0  0  0
  3 10  2  0  0  0  0
  3 18  1  0  0  0  0
  4 11  1  0  0  0  0
  4 18  2  0  0  0  0
  5 20  1  0  0  0  0
  6 22  1  0  0  0  0
  7 12  2  0  0  0  0
  7 21  1  0  0  0  0
  8  9  2  0  0  0  0
  8 24  1  0  0  0  0
  9 25  1  0  0  0  0
 10 26  1  0  0  0  0
 11 26  2  0  0  0  0
 12 27  1  0  0  0  0
 13 14  2  0  0  0  0
 13 28  1  0  0  0  0
 14 30  1  0  0  0  0
 15 23  1  0  0  0  0
 15 27  2  0  0  0  0
 16 24  2  0  0  0  0
 16 29  1  0  0  0  0
 17 30  2  0  0  0  0
 17 31  1  0  0  0  0
 18 32  1  0  0  0  0
 19 32  1  0  0  0  0
 19 33  2  0  0  0  0
 19 34  1  0  0  0  0
 20 22  2  0  0  0  0
 20 40  1  0  0  0  0
 21 23  2  0  0  0  0
 21 41  1  0  0  0  0
 22 49  1  0  0  0  0
 23 42  1  0  0  0  0
 24 69  1  0  0  0  0
 25 29  2  0  0  0  0
 25 70  1  0  0  0  0
 26 80  1  0  0  0  0
 27 81  1  0  0  0  0
 28 31  2  0  0  0  0
 28 80  1  0  0  0  0
 29 82  1  0  0  0  0
 30 83  1  0  0  0  0
 31 84  1  0  0  0  0
 32 63  2  0  0  0  0
 33 64  1  0  0  0  0
 33 67  1  0  0  0  0
 34 68  1  0  0  0  0
 34 74  2  0  0  0  0
 35 50  1  0  0  0  0
 35 71  1  0  0  0  0
 35 75  2  0  0  0  0
 36 60  1  0  0  0  0
 36 65  1  0  0  0  0
 36 76  2  0  0  0  0
 37 58  1  0  0  0  0
 37 69  1  0  0  0  0
 37 77  2  0  0  0  0
 38 61  1  0  0  0  0
 38 72  1  0  0  0  0
 38 78  2  0  0  0  0
 39 66  1  0  0  0  0
 39 70  1  0  0  0  0
 39 79  2  0  0  0  0
 40 43  1  0  0  0  0
 41 50  1  0  0  0  0
 42 65  1  0  0  0  0
 43 45  1  0  0  0  0
 44 46  1  0  0  0  0
 44 47  1  0  0  0  0
 45 49  1  0  0  0  0
 46 51  1  0  0  0  0
 47 66  1  0  0  0  0
 48 51  1  0  0  0  0
 48 66  1  0  0  0  0
 49 71  1  0  0  0  0
 50 65  1  0  0  0  0
 51 64  1  0  0  0  0
 52 59  1  0  0  0  0
 53 61  1  0  0  0  0
 54 62  1  0  0  0  0
 55 62  1  0  0  0  0
 56 62  1  0  0  0  0
 57 73  1  0  0  0  0
 58 81  1  0  0  0  0
 59 82  1  0  0  0  0
 60 62  1  0  0  0  0
 60 72  1  0  0  0  0
 61 73  1  0  0  0  0
 63 64  1  0  0  0  0
M  CHG  1  73   1
M  ISO  4  39 100  58 101  70 100  81 101
M  END
> <Batch ID>
0009

> <Smiles>
CCOc1cc(NC(=O)[101CH2:1][101O:1]c2ccc3c(c2)CN(C(=O)C(NC(=O)C(C)NC)C(C)(C)C)C(C(=O)NC2CCCc4ccccc42)C3)ccc1[100NH:0][100C:0](=O)N1CCCC(n2nc(-c3ccc(Oc4ccc(F)cc4F)cc3)c(C(N)=O)c2N)C1

> <Shape>
0.308

> <Color>
0.194

> <Negative vol penalty>
0.000

$$$$

  -OEChem-04052315383D

 81 89  0     1  0  0  0  0  0999 V2000
  -24.5738  -32.0556   29.0851 C   0  0  0  0  0  0  0  0  0  0  0  0
  -25.3302  -31.2090   28.2810 C   0  0  0  0  0  0  0  0  0  0  0  0
  -24.5838   -8.9930   21.5609 C   0  0  0  0  0  0  0  0  0  0  0  0
  -23.9301  -10.7076   23.1324 C   0  0  0  0  0  0  0  0  0  0  0  0
  -23.2505  -32.3371   28.7479 C   0  0  0  0  0  0  0  0  0  0  0  0
  -24.7634  -30.6426   27.1398 C   0  0  0  0  0  0  0  0  0  0  0  0
  -27.5845  -29.4338   21.8402 C   0  0  0  0  0  0  0  0  0  0  0  0
  -26.0332  -20.6131   19.0839 C   0  0  0  0  0  0  0  0  0  0  0  0
  -28.3128  -21.0359   19.7633 C   0  0  0  0  0  0  0  0  0  0  0  0
  -26.2893  -19.2420   19.0780 C   0  0  0  0  0  0  0  0  0  0  0  0
  -28.5689  -19.6648   19.7575 C   0  0  0  0  0  0  0  0  0  0  0  0
  -24.1521   -8.0111   22.4525 C   0  0  0  0  0  0  0  0  0  0  0  0
  -23.4983   -9.7257   24.0241 C   0  0  0  0  0  0  0  0  0  0  0  0
  -28.1273  -28.2632   21.3122 C   0  0  0  0  0  0  0  0  0  0  0  0
  -22.8900   -5.0635   24.1653 C   0  0  0  0  0  0  0  0  0  0  0  0
  -22.1309   -4.0112   23.6535 C   0  0  0  0  0  0  0  0  0  0  0  0
  -26.0782  -27.8657   20.1028 C   0  0  0  0  0  0  0  0  0  0  0  0
  -20.4569   -5.5836   22.9034 C   0  0  0  0  0  0  0  0  0  0  0  0
  -24.4729  -10.3413   21.9008 C   0  0  0  0  0  0  0  0  0  0  0  0
  -24.1598  -11.9867   19.9767 C   0  0  0  0  0  0  0  0  0  0  0  0
  -22.6702  -31.7815   27.5968 C   0  0  0  0  0  0  0  0  0  0  0  0
  -26.2784  -29.8242   21.5115 C   0  0  0  0  0  0  0  0  0  0  0  0
  -23.4307  -30.9159   26.7877 C   0  0  0  0  0  0  0  0  0  0  0  0
  -25.5221  -29.0431   20.6259 C   0  0  0  0  0  0  0  0  0  0  0  0
  -27.0450  -21.5101   19.4265 C   0  0  0  0  0  0  0  0  0  0  0  0
  -27.5571  -18.7678   19.4148 C   0  0  0  0  0  0  0  0  0  0  0  0
  -23.6093   -8.3774   23.6841 C   0  0  0  0  0  0  0  0  0  0  0  0
  -27.3731  -27.4774   20.4456 C   0  0  0  0  0  0  0  0  0  0  0  0
  -22.4325   -6.3759   24.0463 C   0  0  0  0  0  0  0  0  0  0  0  0
  -20.9144   -4.2712   23.0225 C   0  0  0  0  0  0  0  0  0  0  0  0
  -21.2160   -6.6359   23.4154 C   0  0  0  0  0  0  0  0  0  0  0  0
  -24.9192  -11.3560   20.9804 C   0  0  0  0  0  0  0  0  0  0  0  0
  -25.0349  -12.8643   19.3845 C   0  0  0  0  0  0  0  0  0  0  0  0
  -22.7863  -11.7963   19.6123 C   0  0  0  0  0  0  0  0  0  0  0  0
  -23.5940  -30.2814   23.1513 C   0  0  0  0  0  0  0  0  0  0  0  0
  -22.4912  -31.3523   20.2948 C   0  0  0  0  0  0  0  0  0  0  0  0
  -27.6711  -23.9268   19.7453 C   0  0  0  0  0  0  0  0  0  0  0  0
  -22.7599  -31.3303   16.8927 C   0  0  0  0  0  0  0  0  0  0  0  0
  -29.0196  -16.7391   19.7174 C   0  0  0  0  0  0  0  0  0  0  0  0
  -21.2216  -32.0776   27.2989 C   0  0  0  0  0  0  0  0  0  0  0  0
  -25.7170  -31.1037   22.0684 C   0  0  0  0  0  0  0  0  0  0  0  0
  -24.1224  -29.4288   20.2255 C   0  0  0  0  0  0  0  0  0  0  0  0
  -20.8113  -31.7344   25.8692 C   0  0  0  0  0  0  0  0  0  0  0  0
  -30.0527  -13.3346   19.8560 C   0  0  0  0  0  0  0  0  0  0  0  0
  -21.3270  -30.3517   25.4832 C   0  0  0  0  0  0  0  0  0  0  0  0
  -28.7467  -12.5682   20.0783 C   0  0  0  0  0  0  0  0  0  0  0  0
  -30.0634  -14.6660   20.6050 C   0  0  0  0  0  0  0  0  0  0  0  0
  -27.6023  -14.7679   20.5667 C   0  0  0  0  0  0  0  0  0  0  0  0
  -22.8590  -30.3018   25.5283 C   0  0  1  0  0  0  0  0  0  0  0  0
  -24.1918  -31.1363   22.0699 C   0  0  1  0  0  0  0  0  0  0  0  0
  -27.5182  -13.4498   19.7799 C   0  0  2  0  0  0  0  0  0  0  0  0
  -21.6939  -32.2743   14.8264 C   0  0  0  0  0  0  0  0  0  0  0  0
  -20.1808  -29.3813   20.5893 C   0  0  0  0  0  0  0  0  0  0  0  0
  -19.7107  -29.6750   18.1478 C   0  0  0  0  0  0  0  0  0  0  0  0
  -19.5309  -31.6242   19.6941 C   0  0  0  0  0  0  0  0  0  0  0  0
  -25.2535  -32.7114   16.0967 C   0  0  0  0  0  0  0  0  0  0  0  0
  -26.9897  -25.2775   19.6276 C   0  0  0  0  0  0  0  0  0  1  0  0
  -21.8158  -30.7173   19.1034 C   0  0  1  0  0  0  0  0  0  0  0  0
  -22.7785  -32.4579   15.8765 C   0  0  2  0  0  0  0  0  0  0  0  0
  -20.3352  -30.3409   19.3925 C   0  0  0  0  0  0  0  0  0  0  0  0
  -26.1797  -11.7955   21.0261 N   0  0  0  0  0  0  0  0  0  0  0  0
  -26.2191  -12.7116   20.0437 N   0  0  0  0  0  0  0  0  0  0  0  0
  -23.6156  -30.6853   20.8015 N   0  0  0  0  0  0  0  0  0  0  0  0
  -28.8721  -15.4491   20.2696 N   0  0  0  0  0  0  0  0  0  0  0  0
  -24.8991  -13.7439   18.3695 N   0  0  0  0  0  0  0  0  0  0  0  0
  -22.0305  -10.8547   20.3240 N   0  0  0  0  0  0  0  0  0  0  0  0
  -26.7856  -22.9012   19.4322 N   0  0  0  0  0  0  0  0  0  0  0  0
  -27.8175  -17.3750   19.4089 N   0  0  0  0  0  0  0  0  0  0  0  0
  -23.4201  -30.9370   24.3552 N   0  0  0  0  0  0  0  0  0  0  0  0
  -21.9901  -31.6463   17.9922 N   0  0  0  0  0  0  0  0  0  0  0  0
  -24.0977  -32.5106   15.1853 N   0  3  0  0  0  0  0  0  0  0  0  0
  -22.2497  -12.4303   18.6723 O   0  0  0  0  0  0  0  0  0  0  0  0
  -23.3101  -29.1138   22.9107 O   0  0  0  0  0  0  0  0  0  0  0  0
  -22.0422  -32.4053   20.7544 O   0  0  0  0  0  0  0  0  0  0  0  0
  -28.8478  -23.8276   20.0773 O   0  0  0  0  0  0  0  0  0  0  0  0
  -23.3647  -30.2734   16.7261 O   0  0  0  0  0  0  0  0  0  0  0  0
  -30.1309  -17.2316   19.5066 O   0  0  0  0  0  0  0  0  0  0  0  0
  -23.1877   -7.4196   24.5544 O   0  0  0  0  0  0  0  0  0  0  0  0
  -27.9002  -26.3340   19.9294 O   0  0  0  0  0  0  0  0  0  1  0  0
  -20.1862   -3.2608   22.5296 F   0  0  0  0  0  0  0  0  0  0  0  0
  -20.7719   -7.8947   23.2970 F   0  0  0  0  0  0  0  0  0  0  0  0
  1  2  1  0  0  0  0
  1  5  2  0  0  0  0
  2  6  2  0  0  0  0
  3 12  2  0  0  0  0
  3 19  1  0  0  0  0
  4 13  1  0  0  0  0
  4 19  2  0  0  0  0
  5 21  1  0  0  0  0
  6 23  1  0  0  0  0
  7 14  2  0  0  0  0
  7 22  1  0  0  0  0
  8 10  2  0  0  0  0
  8 25  1  0  0  0  0
  9 11  1  0  0  0  0
  9 25  2  0  0  0  0
 10 26  1  0  0  0  0
 11 26  2  0  0  0  0
 12 27  1  0  0  0  0
 13 27  2  0  0  0  0
 14 28  1  0  0  0  0
 15 16  2  0  0  0  0
 15 29  1  0  0  0  0
 16 30  1  0  0  0  0
 17 24  1  0  0  0  0
 17 28  2  0  0  0  0
 18 30  2  0  0  0  0
 18 31  1  0  0  0  0
 19 32  1  0  0  0  0
 20 32  1  0  0  0  0
 20 33  2  0  0  0  0
 20 34  1  0  0  0  0
 21 23  2  0  0  0  0
 21 40  1  0  0  0  0
 22 24  2  0  0  0  0
 22 41  1  0  0  0  0
 23 49  1  0  0  0  0
 24 42  1  0  0  0  0
 25 67  1  0  0  0  0
 26 68  1  0  0  0  0
 27 78  1  0  0  0  0
 28 79  1  0  0  0  0
 29 31  2  0  0  0  0
 29 78  1  0  0  0  0
 30 80  1  0  0  0  0
 31 81  1  0  0  0  0
 32 61  2  0  0  0  0
 33 62  1  0  0  0  0
 33 65  1  0  0  0  0
 34 66  1  0  0  0  0
 34 72  2  0  0  0  0
 35 50  1  0  0  0  0
 35 69  1  0  0  0  0
 35 73  2  0  0  0  0
 36 58  1  0  0  0  0
 36 63  1  0  0  0  0
 36 74  2  0  0  0  0
 37 57  1  0  0  0  0
 37 67  1  0  0  0  0
 37 75  2  0  0  0  0
 38 59  1  0  0  0  0
 38 70  1  0  0  0  0
 38 76  2  0  0  0  0
 39 64  1  0  0  0  0
 39 68  1  0  0  0  0
 39 77  2  0  0  0  0
 40 43  1  0  0  0  0
 41 50  1  0  0  0  0
 42 63  1  0  0  0  0
 43 45  1  0  0  0  0
 44 46  1  0  0  0  0
 44 47  1  0  0  0  0
 45 49  1  0  0  0  0
 46 51  1  0  0  0  0
 47 64  1  0  0  0  0
 48 51  1  0  0  0  0
 48 64  1  0  0  0  0
 49 69  1  0  0  0  0
 50 63  1  0  0  0  0
 51 62  1  0  0  0  0
 52 59  1  0  0  0  0
 53 60  1  0  0  0  0
 54 60  1  0  0  0  0
 55 60  1  0  0  0  0
 56 71  1  0  0  0  0
 57 79  1  0  0  0  0
 58 60  1  0  0  0  0
 58 70  1  0  0  0  0
 59 71  1  0  0  0  0
 61 62  1  0  0  0  0
M  CHG  1  71   1
M  ISO  4  39 100  57 101  68 100  79 101
M  END
> <Batch ID>
0009

> <Smiles>
CNC(C)C(=O)NC(C(=O)N1Cc2cc([101O:1][101CH2:1]C(=O)Nc3ccc([100NH:0][100C:0](=O)N4CCCC(n5nc(-c6ccc(Oc7ccc(F)cc7F)cc6)c(C(N)=O)c5N)C4)cc3)ccc2CC1C(=O)NC1CCCc2ccccc21)C(C)(C)C

> <Shape>
0.258

> <Color>
0.118

> <Negative vol penalty>
0.000

$$$$

  -OEChem-04052315383D

 82 90  0     1  0  0  0  0  0999 V2000
  -27.4765  -32.5784   27.6980 C   0  0  0  0  0  0  0  0  0  0  0  0
  -27.6940  -31.5320   26.8074 C   0  0  0  0  0  0  0  0  0  0  0  0
  -24.2629   -9.0646   21.4678 C   0  0  0  0  0  0  0  0  0  0  0  0
  -24.8122  -10.3470   23.4403 C   0  0  0  0  0  0  0  0  0  0  0  0
  -26.1825  -33.0496   27.9155 C   0  0  0  0  0  0  0  0  0  0  0  0
  -26.6172  -30.9555   26.1345 C   0  0  0  0  0  0  0  0  0  0  0  0
  -27.5682  -30.2223   21.2149 C   0  0  0  0  0  0  0  0  0  0  0  0
  -30.2016  -18.8225   19.9706 C   0  0  0  0  0  0  0  0  0  0  0  0
  -23.9433   -7.9687   22.2692 C   0  0  0  0  0  0  0  0  0  0  0  0
  -24.4926   -9.2510   24.2418 C   0  0  0  0  0  0  0  0  0  0  0  0
  -28.3584  -29.1248   20.8758 C   0  0  0  0  0  0  0  0  0  0  0  0
  -30.4104  -20.1541   20.3294 C   0  0  0  0  0  0  0  0  0  0  0  0
  -21.3523   -6.9615   24.1941 C   0  0  0  0  0  0  0  0  0  0  0  0
  -20.1776   -6.2674   23.9047 C   0  0  0  0  0  0  0  0  0  0  0  0
  -26.3734  -27.8817   20.2981 C   0  0  0  0  0  0  0  0  0  0  0  0
  -28.0384  -20.4265   20.6989 C   0  0  0  0  0  0  0  0  0  0  0  0
  -21.4598   -4.2547   23.5274 C   0  0  0  0  0  0  0  0  0  0  0  0
  -24.6974  -10.2538   22.0533 C   0  0  0  0  0  0  0  0  0  0  0  0
  -24.1613  -12.4109   20.8014 C   0  0  0  0  0  0  0  0  0  0  0  0
  -25.0905  -32.4850   27.2378 C   0  0  0  0  0  0  0  0  0  0  0  0
  -26.1716  -30.1539   21.1083 C   0  0  0  0  0  0  0  0  0  0  0  0
  -25.3072  -31.4187   26.3442 C   0  0  0  0  0  0  0  0  0  0  0  0
  -25.5679  -28.9805   20.6340 C   0  0  0  0  0  0  0  0  0  0  0  0
  -28.9112  -18.2929   19.9757 C   0  0  0  0  0  0  0  0  0  0  0  0
  -27.8296  -19.0948   20.3399 C   0  0  0  0  0  0  0  0  0  0  0  0
  -24.0581   -8.0618   23.6562 C   0  0  0  0  0  0  0  0  0  0  0  0
  -27.7609  -27.9534   20.4200 C   0  0  0  0  0  0  0  0  0  0  0  0
  -29.3288  -20.9561   20.6936 C   0  0  0  0  0  0  0  0  0  0  0  0
  -22.5808   -6.3023   24.1502 C   0  0  0  0  0  0  0  0  0  0  0  0
  -20.2313   -4.9140   23.5714 C   0  0  0  0  0  0  0  0  0  0  0  0
  -22.6346   -4.9489   23.8169 C   0  0  0  0  0  0  0  0  0  0  0  0
  -25.0282  -11.3861   21.2260 C   0  0  0  0  0  0  0  0  0  0  0  0
  -24.9534  -13.2386   20.0438 C   0  0  0  0  0  0  0  0  0  0  0  0
  -22.7650  -12.5979   21.0681 C   0  0  0  0  0  0  0  0  0  0  0  0
  -23.7518  -30.3828   23.1567 C   0  0  0  0  0  0  0  0  0  0  0  0
  -21.9617  -30.2422   20.4551 C   0  0  0  0  0  0  0  0  0  0  0  0
  -21.7146  -29.2800   17.1902 C   0  0  0  0  0  0  0  0  0  0  0  0
  -29.7046  -16.0234   19.2230 C   0  0  0  0  0  0  0  0  0  0  0  0
  -23.7045  -32.9965   27.5412 C   0  0  0  0  0  0  0  0  0  0  0  0
  -25.3350  -31.3554   21.4527 C   0  0  0  0  0  0  0  0  0  0  0  0
  -24.0741  -28.8628   20.4823 C   0  0  0  0  0  0  0  0  0  0  0  0
  -22.6617  -32.5804   26.5069 C   0  0  0  0  0  0  0  0  0  0  0  0
  -29.6526  -12.5912   18.2774 C   0  0  0  0  0  0  0  0  0  0  0  0
  -22.7942  -31.0958   26.1827 C   0  0  0  0  0  0  0  0  0  0  0  0
  -28.3735  -12.0560   18.9253 C   0  0  0  0  0  0  0  0  0  0  0  0
  -30.3476  -13.6239   19.1630 C   0  0  0  0  0  0  0  0  0  0  0  0
  -28.2163  -14.1982   20.2570 C   0  0  0  0  0  0  0  0  0  0  0  0
  -24.1679  -30.7838   25.5768 C   0  0  1  0  0  0  0  0  0  0  0  0
  -23.8911  -31.0003   21.7939 C   0  0  1  0  0  0  0  0  0  0  0  0
  -27.4465  -13.2028   19.3737 C   0  0  2  0  0  0  0  0  0  0  0  0
  -20.1156  -29.2663   15.2562 C   0  0  0  0  0  0  0  0  0  0  0  0
  -20.4367  -27.9303   21.7356 C   0  0  0  0  0  0  0  0  0  0  0  0
  -19.5413  -27.3572   19.4690 C   0  0  0  0  0  0  0  0  0  0  0  0
  -19.0056  -29.5656   20.4978 C   0  0  0  0  0  0  0  0  0  0  0  0
  -23.5178  -30.9461   15.5374 C   0  0  0  0  0  0  0  0  0  0  0  0
  -29.0442  -24.5702   20.5578 C   0  0  0  0  0  0  0  0  0  0  0  0
  -27.9522  -25.5878   20.2670 C   0  0  0  0  0  0  0  0  0  1  0  0
  -28.4787  -23.1756   20.7760 C   0  0  0  0  0  0  0  0  0  0  0  0
  -21.3437  -29.1329   19.6387 C   0  0  1  0  0  0  0  0  0  0  0  0
  -21.2355  -30.0213   15.9551 C   0  0  2  0  0  0  0  0  0  0  0  0
  -20.1099  -28.4977   20.3399 C   0  0  0  0  0  0  0  0  0  0  0  0
  -26.2753  -11.5460   20.7754 N   0  0  0  0  0  0  0  0  0  0  0  0
  -26.1979  -12.6809   20.0597 N   0  0  0  0  0  0  0  0  0  0  0  0
  -23.2986  -30.0627   20.8378 N   0  0  0  0  0  0  0  0  0  0  0  0
  -29.4096  -14.6818   19.5449 N   0  0  0  0  0  0  0  0  0  0  0  0
  -26.5145  -18.5785   20.3538 N   0  0  0  0  0  0  0  0  0  0  0  0
  -24.6997  -14.3819   19.3721 N   0  0  0  0  0  0  0  0  0  0  0  0
  -22.1047  -11.6530   21.8653 N   0  0  0  0  0  0  0  0  0  0  0  0
  -28.7241  -16.9375   19.6072 N   0  0  0  0  0  0  0  0  0  0  0  0
  -24.2094  -31.1829   24.1862 N   0  0  0  0  0  0  0  0  0  0  0  0
  -21.0577  -29.7026   18.3264 N   0  0  0  0  0  0  0  0  0  0  0  0
  -22.3568  -30.1983   14.9897 N   0  3  0  0  0  0  0  0  0  0  0  0
  -22.1183  -13.5651   20.5994 O   0  0  0  0  0  0  0  0  0  0  0  0
  -23.2639  -29.2640   23.2661 O   0  0  0  0  0  0  0  0  0  0  0  0
  -21.2855  -31.2347   20.7367 O   0  0  0  0  0  0  0  0  0  0  0  0
  -22.5820  -28.4103   17.1504 O   0  0  0  0  0  0  0  0  0  0  0  0
  -30.7374  -16.3353   18.6246 O   0  0  0  0  0  0  0  0  0  0  0  0
  -23.7461   -6.9926   24.4385 O   0  0  0  0  0  0  0  0  0  0  0  0
  -28.5298  -26.8805   20.0890 O   0  0  0  0  0  0  0  0  0  1  0  0
  -29.5345  -22.2641   21.0480 O   0  0  0  0  0  0  0  0  0  0  0  0
  -19.1030   -4.2472   23.2949 F   0  0  0  0  0  0  0  0  0  0  0  0
  -23.8117   -4.3099   23.7742 F   0  0  0  0  0  0  0  0  0  0  0  0
  1  2  1  0  0  0  0
  1  5  2  0  0  0  0
  2  6  2  0  0  0  0
  3  9  2  0  0  0  0
  3 18  1  0  0  0  0
  4 10  1  0  0  0  0
  4 18  2  0  0  0  0
  5 20  1  0  0  0  0
  6 22  1  0  0  0  0
  7 11  2  0  0  0  0
  7 21  1  0  0  0  0
  8 12  2  0  0  0  0
  8 24  1  0  0  0  0
  9 26  1  0  0  0  0
 10 26  2  0  0  0  0
 11 27  1  0  0  0  0
 12 28  1  0  0  0  0
 13 14  2  0  0  0  0
 13 29  1  0  0  0  0
 14 30  1  0  0  0  0
 15 23  1  0  0  0  0
 15 27  2  0  0  0  0
 16 25  1  0  0  0  0
 16 28  2  0  0  0  0
 17 30  2  0  0  0  0
 17 31  1  0  0  0  0
 18 32  1  0  0  0  0
 19 32  1  0  0  0  0
 19 33  2  0  0  0  0
 19 34  1  0  0  0  0
 20 22  2  0  0  0  0
 20 39  1  0  0  0  0
 21 23  2  0  0  0  0
 21 40  1  0  0  0  0
 22 48  1  0  0  0  0
 23 41  1  0  0  0  0
 24 25  2  0  0  0  0
 24 69  1  0  0  0  0
 25 66  1  0  0  0  0
 26 78  1  0  0  0  0
 27 79  1  0  0  0  0
 28 80  1  0  0  0  0
 29 31  2  0  0  0  0
 29 78  1  0  0  0  0
 30 81  1  0  0  0  0
 31 82  1  0  0  0  0
 32 62  2  0  0  0  0
 33 63  1  0  0  0  0
 33 67  1  0  0  0  0
 34 68  1  0  0  0  0
 34 73  2  0  0  0  0
 35 49  1  0  0  0  0
 35 70  1  0  0  0  0
 35 74  2  0  0  0  0
 36 59  1  0  0  0  0
 36 64  1  0  0  0  0
 36 75  2  0  0  0  0
 37 60  1  0  0  0  0
 37 71  1  0  0  0  0
 37 76  2  0  0  0  0
 38 65  1  0  0  0  0
 38 69  1  0  0  0  0
 38 77  2  0  0  0  0
 39 42  1  0  0  0  0
 40 49  1  0  0  0  0
 41 64  1  0  0  0  0
 42 44  1  0  0  0  0
 43 45  1  0  0  0  0
 43 46  1  0  0  0  0
 44 48  1  0  0  0  0
 45 50  1  0  0  0  0
 46 65  1  0  0  0  0
 47 50  1  0  0  0  0
 47 65  1  0  0  0  0
 48 70  1  0  0  0  0
 49 64  1  0  0  0  0
 50 63  1  0  0  0  0
 51 60  1  0  0  0  0
 52 61  1  0  0  0  0
 53 61  1  0  0  0  0
 54 61  1  0  0  0  0
 55 72  1  0  0  0  0
 56 57  1  0  0  0  0
 56 58  1  0  0  0  0
 57 79  1  0  0  0  0
 58 80  1  0  0  0  0
 59 61  1  0  0  0  0
 59 71  1  0  0  0  0
 60 72  1  0  0  0  0
 62 63  1  0  0  0  0
M  CHG  1  72   1
M  ISO  4  38 100  57 101  69 100  79 101
M  END
> <Batch ID>
0009

> <Smiles>
CNC(C)C(=O)NC(C(=O)N1Cc2cc([101O:1][101CH2:1]CCOc3ccc([100NH:0][100C:0](=O)N4CCCC(n5nc(-c6ccc(Oc7ccc(F)cc7F)cc6)c(C(N)=O)c5N)C4)c(N)c3)ccc2CC1C(=O)NC1CCCc2ccccc21)C(C)(C)C

> <Shape>
0.333

> <Color>
0.136

> <Negative vol penalty>
0.000

$$$$

  -OEChem-04052315383D

 86 94  0     1  0  0  0  0  0999 V2000
  -20.4973  -29.2940   25.6696 C   0  0  0  0  0  0  0  0  0  0  0  0
  -21.1356  -28.0660   25.8108 C   0  0  0  0  0  0  0  0  0  0  0  0
  -28.3895  -20.8416   21.2336 C   0  0  0  0  0  0  0  0  0  0  0  0
  -30.0868  -19.8316   19.8421 C   0  0  0  0  0  0  0  0  0  0  0  0
  -19.6611  -29.5222   24.5775 C   0  0  0  0  0  0  0  0  0  0  0  0
  -20.9372  -27.0650   24.8604 C   0  0  0  0  0  0  0  0  0  0  0  0
  -25.0375  -22.9358   22.9517 C   0  0  0  0  0  0  0  0  0  0  0  0
  -20.8731  -12.6696   21.7506 C   0  0  0  0  0  0  0  0  0  0  0  0
  -28.4522  -22.0045   20.4660 C   0  0  0  0  0  0  0  0  0  0  0  0
  -30.1494  -20.9945   19.0744 C   0  0  0  0  0  0  0  0  0  0  0  0
  -25.2596  -21.6042   23.2999 C   0  0  0  0  0  0  0  0  0  0  0  0
  -21.2892  -13.9873   21.9408 C   0  0  0  0  0  0  0  0  0  0  0  0
  -30.4696  -24.7026   20.1930 C   0  0  0  0  0  0  0  0  0  0  0  0
  -30.5065  -25.9226   20.8680 C   0  0  0  0  0  0  0  0  0  0  0  0
  -23.9374  -20.8960   21.4106 C   0  0  0  0  0  0  0  0  0  0  0  0
  -23.1279  -12.0442   21.1492 C   0  0  0  0  0  0  0  0  0  0  0  0
  -28.4619  -26.5926   19.7689 C   0  0  0  0  0  0  0  0  0  0  0  0
  -29.2069  -19.7551   20.9217 C   0  0  0  0  0  0  0  0  0  0  0  0
  -29.4016  -18.4301   23.0929 C   0  0  0  0  0  0  0  0  0  0  0  0
  -19.4599  -28.5269   23.6082 C   0  0  0  0  0  0  0  0  0  0  0  0
  -24.2534  -23.2582   21.8348 C   0  0  0  0  0  0  0  0  0  0  0  0
  -20.0965  -27.2796   23.7551 C   0  0  0  0  0  0  0  0  0  0  0  0
  -23.7090  -22.2324   21.0489 C   0  0  0  0  0  0  0  0  0  0  0  0
  -21.7924  -11.6981   21.3548 C   0  0  0  0  0  0  0  0  0  0  0  0
  -23.5441  -13.3619   21.3394 C   0  0  0  0  0  0  0  0  0  0  0  0
  -29.3321  -22.0810   19.3864 C   0  0  0  0  0  0  0  0  0  0  0  0
  -24.7071  -20.5841   22.5310 C   0  0  0  0  0  0  0  0  0  0  0  0
  -22.6247  -14.3334   21.7352 C   0  0  0  0  0  0  0  0  0  0  0  0
  -29.4290  -24.4276   19.3058 C   0  0  0  0  0  0  0  0  0  0  0  0
  -29.5027  -26.8676   20.6560 C   0  0  0  0  0  0  0  0  0  0  0  0
  -28.4251  -25.3725   19.0938 C   0  0  0  0  0  0  0  0  0  0  0  0
  -29.1430  -18.5538   21.7146 C   0  0  0  0  0  0  0  0  0  0  0  0
  -29.2055  -17.0974   23.3609 C   0  0  0  0  0  0  0  0  0  0  0  0
  -29.7847  -19.4306   24.0458 C   0  0  0  0  0  0  0  0  0  0  0  0
  -21.5289  -24.8327   21.3858 C   0  0  0  0  0  0  0  0  0  0  0  0
  -22.2428  -24.3909   18.2525 C   0  0  0  0  0  0  0  0  0  0  0  0
  -23.8965  -22.5702   15.8867 C   0  0  0  0  0  0  0  0  0  0  0  0
  -25.9337  -12.8435   20.7332 C   0  0  0  0  0  0  0  0  0  0  0  0
  -18.5097  -28.8034   22.4701 C   0  0  0  0  0  0  0  0  0  0  0  0
  -24.0454  -24.6992   21.4570 C   0  0  0  0  0  0  0  0  0  0  0  0
  -22.8766  -22.5253   19.8283 C   0  0  0  0  0  0  0  0  0  0  0  0
  -18.6473  -27.8215   21.3095 C   0  0  0  0  0  0  0  0  0  0  0  0
  -29.4498  -12.7860   21.2905 C   0  0  0  0  0  0  0  0  0  0  0  0
  -18.7059  -26.3879   21.8272 C   0  0  0  0  0  0  0  0  0  0  0  0
  -29.7927  -14.2463   21.5939 C   0  0  0  0  0  0  0  0  0  0  0  0
  -28.3601  -12.6686   20.2263 C   0  0  0  0  0  0  0  0  0  0  0  0
  -27.4816  -14.8964   20.8046 C   0  0  0  0  0  0  0  0  0  0  0  0
  -19.9259  -26.1775   22.7322 C   0  0  1  0  0  0  0  0  0  0  0  0
  -22.8047  -24.9183   20.5968 C   0  0  1  0  0  0  0  0  0  0  0  0
  -28.5286  -15.0665   21.9175 C   0  0  2  0  0  0  0  0  0  0  0  0
  -24.2573  -22.4271   13.4074 C   0  0  0  0  0  0  0  0  0  0  0  0
  -21.0118   -9.0890   19.1380 C   0  0  0  0  0  0  0  0  0  0  0  0
  -22.6449   -8.3279   20.8986 C   0  0  0  0  0  0  0  0  0  0  0  0
  -19.4673  -23.1673   17.9217 C   0  0  0  0  0  0  0  0  0  0  0  0
  -20.2280  -22.2052   15.7390 C   0  0  0  0  0  0  0  0  0  0  0  0
  -20.1701  -24.6786   16.0572 C   0  0  0  0  0  0  0  0  0  0  0  0
  -20.2674   -9.8271   21.9329 C   0  0  0  0  0  0  0  0  0  0  0  0
  -26.8094  -23.0116   16.1681 C   0  0  0  0  0  0  0  0  0  0  0  0
  -23.9056  -17.1960   23.5263 C   0  0  0  0  0  0  0  0  0  0  0  0
  -23.8980  -18.3477   22.5333 C   0  0  0  0  0  0  0  0  0  1  0  0
  -22.8176  -16.1775   23.2245 C   0  0  0  0  0  0  0  0  0  0  0  0
  -21.9502  -23.3194   17.2301 C   0  0  1  0  0  0  0  0  0  0  0  0
  -24.7733  -22.9925   14.7215 C   0  0  2  0  0  0  0  0  0  0  0  0
  -22.0280   -9.5218   20.1849 C   0  0  0  0  0  0  0  0  0  0  0  0
  -20.4679  -23.3368   16.7610 C   0  0  0  0  0  0  0  0  0  0  0  0
  -28.8084  -17.3922   21.1466 N   0  0  0  0  0  0  0  0  0  0  0  0
  -28.8554  -16.5259   22.1730 N   0  0  0  0  0  0  0  0  0  0  0  0
  -22.6966  -23.9499   19.5037 N   0  0  0  0  0  0  0  0  0  0  0  0
  -27.1921  -13.4681   20.6025 N   0  0  0  0  0  0  0  0  0  0  0  0
  -29.3003  -16.3703   24.4943 N   0  0  0  0  0  0  0  0  0  0  0  0
  -28.7762  -20.1202   24.7326 N   0  0  0  0  0  0  0  0  0  0  0  0
  -24.9042  -13.6977   21.1269 N   0  0  0  0  0  0  0  0  0  0  0  0
  -21.1265  -26.0343   21.9368 N   0  0  0  0  0  0  0  0  0  0  0  0
  -22.9192  -23.5050   16.1555 N   0  0  0  0  0  0  0  0  0  0  0  0
  -21.3713  -10.3657   21.1635 N   0  0  3  0  0  0  0  0  0  0  0  0
  -26.1697  -22.5127   14.9236 N   0  3  0  0  0  0  0  0  0  0  0  0
  -30.9855  -19.7164   24.2693 O   0  0  0  0  0  0  0  0  0  0  0  0
  -20.9514  -23.7565   21.4858 O   0  0  0  0  0  0  0  0  0  0  0  0
  -22.0818  -25.5758   17.9497 O   0  0  0  0  0  0  0  0  0  0  0  0
  -24.0598  -21.5148   16.4949 O   0  0  0  0  0  0  0  0  0  0  0  0
  -25.7860  -11.6343   20.5386 O   0  0  0  0  0  0  0  0  0  0  0  0
  -29.3934  -23.2155   18.6370 O   0  0  0  0  0  0  0  0  0  0  0  0
  -24.9217  -19.2835   22.8691 O   0  0  0  0  0  0  0  0  0  1  0  0
  -23.0122  -15.6343   21.9257 O   0  0  0  0  0  0  0  0  0  0  0  0
  -29.5374  -28.0386   21.3056 F   0  0  0  0  0  0  0  0  0  0  0  0
  -27.4222  -25.1135   18.2436 F   0  0  0  0  0  0  0  0  0  0  0  0
  1  2  1  0  0  0  0
  1  5  2  0  0  0  0
  2  6  2  0  0  0  0
  3  9  2  0  0  0  0
  3 18  1  0  0  0  0
  4 10  1  0  0  0  0
  4 18  2  0  0  0  0
  5 20  1  0  0  0  0
  6 22  1  0  0  0  0
  7 11  2  0  0  0  0
  7 21  1  0  0  0  0
  8 12  2  0  0  0  0
  8 24  1  0  0  0  0
  9 26  1  0  0  0  0
 10 26  2  0  0  0  0
 11 27  1  0  0  0  0
 12 28  1  0  0  0  0
 13 14  2  0  0  0  0
 13 29  1  0  0  0  0
 14 30  1  0  0  0  0
 15 23  1  0  0  0  0
 15 27  2  0  0  0  0
 16 24  2  0  0  0  0
 16 25  1  0  0  0  0
 17 30  2  0  0  0  0
 17 31  1  0  0  0  0
 18 32  1  0  0  0  0
 19 32  1  0  0  0  0
 19 33  2  0  0  0  0
 19 34  1  0  0  0  0
 20 22  2  0  0  0  0
 20 39  1  0  0  0  0
 21 23  2  0  0  0  0
 21 40  1  0  0  0  0
 22 48  1  0  0  0  0
 23 41  1  0  0  0  0
 24 75  1  0  0  0  0
 25 28  2  0  0  0  0
 25 72  1  0  0  0  0
 26 82  1  0  0  0  0
 27 83  1  0  0  0  0
 28 84  1  0  0  0  0
 29 31  2  0  0  0  0
 29 82  1  0  0  0  0
 30 85  1  0  0  0  0
 31 86  1  0  0  0  0
 32 66  2  0  0  0  0
 33 67  1  0  0  0  0
 33 70  1  0  0  0  0
 34 71  1  0  0  0  0
 34 77  2  0  0  0  0
 35 49  1  0  0  0  0
 35 73  1  0  0  0  0
 35 78  2  0  0  0  0
 36 62  1  0  0  0  0
 36 68  1  0  0  0  0
 36 79  2  0  0  0  0
 37 63  1  0  0  0  0
 37 74  1  0  0  0  0
 37 80  2  0  0  0  0
 38 69  1  0  0  0  0
 38 72  1  0  0  0  0
 38 81  2  0  0  0  0
 39 42  1  0  0  0  0
 40 49  1  0  0  0  0
 41 68  1  0  0  0  0
 42 44  1  0  0  0  0
 43 45  1  0  0  0  0
 43 46  1  0  0  0  0
 44 48  1  0  0  0  0
 45 50  1  0  0  0  0
 46 69  1  0  0  0  0
 47 50  1  0  0  0  0
 47 69  1  0  0  0  0
 48 73  1  0  0  0  0
 49 68  1  0  0  0  0
 50 67  1  0  0  0  0
 51 63  1  0  0  0  0
 52 64  1  0  0  0  0
 53 64  1  0  0  0  0
 54 65  1  0  0  0  0
 55 65  1  0  0  0  0
 56 65  1  0  0  0  0
 57 75  1  0  0  0  0
 58 76  1  0  0  0  0
 59 60  1  0  0  0  0
 59 61  1  0  0  0  0
 60 83  1  0  0  0  0
 61 84  1  0  0  0  0
 62 65  1  0  0  0  0
 62 74  1  0  0  0  0
 63 76  1  0  0  0  0
 64 75  1  0  0  0  0
 66 67  1  0  0  0  0
M  CHG  1  76   1
M  ISO  4  38 100  60 101  72 100  83 101
M  END
> <Batch ID>
0009

> <Smiles>
CNC(C)C(=O)NC(C(=O)N1Cc2cc([101O:1][101CH2:1]CCOc3ccc(N(C)C(C)C)cc3[100NH:0][100C:0](=O)N3CCCC(n4nc(-c5ccc(Oc6ccc(F)cc6F)cc5)c(C(N)=O)c4N)C3)ccc2CC1C(=O)NC1CCCc2ccccc21)C(C)(C)C

> <Shape>
0.221

> <Color>
0.054

> <Negative vol penalty>
0.000

$$$$

  -OEChem-04052315383D

 93101  0     1  0  0  0  0  0999 V2000
  -21.8263   -8.7032   20.7422 C   0  0  0  0  0  0  0  0  0  0  0  0
  -22.0636  -10.0063   21.1677 C   0  0  0  0  0  0  0  0  0  0  0  0
  -28.9186  -26.4073   20.4729 C   0  0  0  0  0  0  0  0  0  0  0  0
  -26.9646  -24.9887   20.3907 C   0  0  0  0  0  0  0  0  0  0  0  0
  -22.8712   -7.7807   20.7091 C   0  0  0  0  0  0  0  0  0  0  0  0
  -23.3458  -10.3873   21.5616 C   0  0  0  0  0  0  0  0  0  0  0  0
  -24.7129  -14.8728   19.6494 C   0  0  0  0  0  0  0  0  0  0  0  0
  -29.6913  -25.3195   20.8793 C   0  0  0  0  0  0  0  0  0  0  0  0
  -27.7374  -23.9008   20.7971 C   0  0  0  0  0  0  0  0  0  0  0  0
  -24.1937  -16.0117   20.2635 C   0  0  0  0  0  0  0  0  0  0  0  0
  -29.9197  -21.7353   19.3941 C   0  0  0  0  0  0  0  0  0  0  0  0
  -29.7444  -20.5287   18.7166 C   0  0  0  0  0  0  0  0  0  0  0  0
  -26.2680  -16.3052   21.4594 C   0  0  0  0  0  0  0  0  0  0  0  0
  -24.8133  -24.5650   25.1354 C   0  0  0  0  0  0  0  0  0  0  0  0
  -26.3667  -22.9076   24.3130 C   0  0  0  0  0  0  0  0  0  0  0  0
  -24.0010  -22.4212   24.3731 C   0  0  0  0  0  0  0  0  0  0  0  0
  -29.0911  -19.4628   20.7840 C   0  0  0  0  0  0  0  0  0  0  0  0
  -27.5552  -26.2419   20.2287 C   0  0  0  0  0  0  0  0  0  0  0  0
  -26.5067  -27.7855   18.4892 C   0  0  0  0  0  0  0  0  0  0  0  0
  -24.1689   -8.1532   21.0936 C   0  0  0  0  0  0  0  0  0  0  0  0
  -26.0119  -14.4346   19.9445 C   0  0  0  0  0  0  0  0  0  0  0  0
  -24.4088   -9.4686   21.5350 C   0  0  0  0  0  0  0  0  0  0  0  0
  -26.8023  -15.1620   20.8458 C   0  0  0  0  0  0  0  0  0  0  0  0
  -26.1197  -24.1747   24.8412 C   0  0  0  0  0  0  0  0  0  0  0  0
  -23.7539  -23.6883   24.9014 C   0  0  0  0  0  0  0  0  0  0  0  0
  -25.3074  -22.0308   24.0789 C   0  0  0  0  0  0  0  0  0  0  0  0
  -29.1007  -24.0662   21.0413 C   0  0  0  0  0  0  0  0  0  0  0  0
  -24.9702  -16.7265   21.1708 C   0  0  0  0  0  0  0  0  0  0  0  0
  -29.6808  -21.8056   20.7666 C   0  0  0  0  0  0  0  0  0  0  0  0
  -29.3301  -19.3925   19.4115 C   0  0  0  0  0  0  0  0  0  0  0  0
  -29.2664  -20.6694   21.4615 C   0  0  0  0  0  0  0  0  0  0  0  0
  -26.7564  -27.3654   19.8094 C   0  0  0  0  0  0  0  0  0  0  0  0
  -25.6993  -28.8881   18.6266 C   0  0  0  0  0  0  0  0  0  0  0  0
  -26.9636  -27.2287   17.2495 C   0  0  0  0  0  0  0  0  0  0  0  0
  -27.2556  -11.8032   21.2222 C   0  0  0  0  0  0  0  0  0  0  0  0
  -30.0659  -13.2128   20.4239 C   0  0  0  0  0  0  0  0  0  0  0  0
  -22.0054  -25.3020   25.7267 C   0  0  0  0  0  0  0  0  0  0  0  0
  -24.6280  -19.7535   23.2505 C   0  0  0  0  0  0  0  0  0  0  0  0
  -31.7746  -16.0873   19.7421 C   0  0  0  0  0  0  0  0  0  0  0  0
  -21.9339  -30.6744   22.9257 C   0  0  0  0  0  0  0  0  0  0  0  0
  -25.2564   -7.1083   21.0860 C   0  0  0  0  0  0  0  0  0  0  0  0
  -26.5669  -13.2194   19.2534 C   0  0  0  0  0  0  0  0  0  0  0  0
  -28.2101  -14.7449   21.1815 C   0  0  0  0  0  0  0  0  0  0  0  0
  -26.6641   -7.6937   21.1636 C   0  0  0  0  0  0  0  0  0  0  0  0
  -24.7327  -32.4678   21.6502 C   0  0  0  0  0  0  0  0  0  0  0  0
  -26.7394   -8.7607   22.2511 C   0  0  0  0  0  0  0  0  0  0  0  0
  -25.5462  -31.4014   20.9147 C   0  0  0  0  0  0  0  0  0  0  0  0
  -24.0814  -31.9093   22.9134 C   0  0  0  0  0  0  0  0  0  0  0  0
  -24.0782  -29.6324   21.9702 C   0  0  0  0  0  0  0  0  0  0  0  0
  -25.7911   -9.9266   21.9465 C   0  0  1  0  0  0  0  0  0  0  0  0
  -27.7181  -12.5716   20.0167 C   0  0  1  0  0  0  0  0  0  0  0  0
  -24.7085  -30.1340   20.6597 C   0  0  2  0  0  0  0  0  0  0  0  0
  -33.6940  -17.5452   19.0440 C   0  0  0  0  0  0  0  0  0  0  0  0
  -27.3380  -25.5034   26.6007 C   0  0  0  0  0  0  0  0  0  0  0  0
  -27.0889  -26.4297   24.2735 C   0  0  0  0  0  0  0  0  0  0  0  0
  -28.6710  -24.5653   24.7233 C   0  0  0  0  0  0  0  0  0  0  0  0
  -30.9358  -12.8341   23.3239 C   0  0  0  0  0  0  0  0  0  0  0  0
  -32.7664  -14.4933   22.9185 C   0  0  0  0  0  0  0  0  0  0  0  0
  -32.7136  -12.3574   21.6308 C   0  0  0  0  0  0  0  0  0  0  0  0
  -31.0007  -15.9390   16.8894 C   0  0  0  0  0  0  0  0  0  0  0  0
  -20.4922  -25.3142   25.8938 C   0  0  0  0  0  0  0  0  0  0  0  0
  -25.3162  -18.5221   22.6913 C   0  0  0  0  0  0  0  0  0  1  0  0
  -19.8964  -26.7130   25.7489 C   0  0  0  0  0  0  0  0  0  0  0  0
  -20.2276  -27.3212   24.3850 C   0  0  0  0  0  0  0  0  0  0  0  0
  -19.5961  -28.7075   24.2275 C   0  0  0  0  0  0  0  0  0  0  0  0
  -19.8568  -29.3181   22.8545 C   0  0  0  0  0  0  0  0  0  0  0  0
  -31.0195  -14.1606   21.1105 C   0  0  1  0  0  0  0  0  0  0  0  0
  -32.7292  -16.4493   18.6187 C   0  0  2  0  0  0  0  0  0  0  0  0
  -27.2523  -25.1121   25.0929 C   0  0  0  0  0  0  0  0  0  0  0  0
  -31.8316  -13.4684   22.2413 C   0  0  0  0  0  0  0  0  0  0  0  0
  -26.1564  -28.1383   20.7186 N   0  0  0  0  0  0  0  0  0  0  0  0
  -25.5217  -29.0551   19.9685 N   0  0  0  0  0  0  0  0  0  0  0  0
  -28.7055  -13.5464   20.4846 N   0  0  0  0  0  0  0  0  0  0  0  0
  -23.3005  -30.7095   22.6025 N   0  0  0  0  0  0  0  0  0  0  0  0
  -25.1312  -29.7214   17.7293 N   0  0  0  0  0  0  0  0  0  0  0  0
  -27.7862  -26.0946   17.2893 N   0  0  0  0  0  0  0  0  0  0  0  0
  -22.4474  -24.0792   25.1960 N   0  0  0  0  0  0  0  0  0  0  0  0
  -25.5581  -20.7448   23.5442 N   0  0  0  0  0  0  0  0  0  0  0  0
  -26.3607  -10.7903   20.9346 N   0  0  0  0  0  0  0  0  0  0  0  0
  -31.8416  -14.7466   20.0572 N   0  0  0  0  0  0  0  0  0  0  0  0
  -21.2666  -29.5024   22.5912 N   0  0  0  0  0  0  0  0  0  0  0  0
  -31.9707  -16.9268   17.4281 N   0  3  0  0  0  0  0  0  0  0  0  0
  -26.6651  -27.7319   16.1399 O   0  0  0  0  0  0  0  0  0  0  0  0
  -27.6804  -12.1059   22.3311 O   0  0  0  0  0  0  0  0  0  0  0  0
  -30.5124  -12.2171   19.8487 O   0  0  0  0  0  0  0  0  0  0  0  0
  -22.7018  -26.2644   26.0321 O   0  0  0  0  0  0  0  0  0  0  0  0
  -23.4110  -19.7986   23.3969 O   0  0  0  0  0  0  0  0  0  0  0  0
  -31.0452  -16.9122   20.2883 O   0  0  0  0  0  0  0  0  0  0  0  0
  -21.3506  -31.6197   23.4670 O   0  0  0  0  0  0  0  0  0  0  0  0
  -29.8545  -23.0045   21.4376 O   0  0  0  0  0  0  0  0  0  0  0  0
  -24.4656  -17.8381   21.7721 O   0  0  0  0  0  0  0  0  0  1  0  0
  -29.1603  -18.2342   18.7605 F   0  0  0  0  0  0  0  0  0  0  0  0
  -29.0341  -20.7311   22.7799 F   0  0  0  0  0  0  0  0  0  0  0  0
  1  2  1  0  0  0  0
  1  5  2  0  0  0  0
  2  6  2  0  0  0  0
  3  8  2  0  0  0  0
  3 18  1  0  0  0  0
  4  9  1  0  0  0  0
  4 18  2  0  0  0  0
  5 20  1  0  0  0  0
  6 22  1  0  0  0  0
  7 10  2  0  0  0  0
  7 21  1  0  0  0  0
  8 27  1  0  0  0  0
  9 27  2  0  0  0  0
 10 28  1  0  0  0  0
 11 12  2  0  0  0  0
 11 29  1  0  0  0  0
 12 30  1  0  0  0  0
 13 23  1  0  0  0  0
 13 28  2  0  0  0  0
 14 24  2  0  0  0  0
 14 25  1  0  0  0  0
 15 24  1  0  0  0  0
 15 26  2  0  0  0  0
 16 25  2  0  0  0  0
 16 26  1  0  0  0  0
 17 30  2  0  0  0  0
 17 31  1  0  0  0  0
 18 32  1  0  0  0  0
 19 32  1  0  0  0  0
 19 33  2  0  0  0  0
 19 34  1  0  0  0  0
 20 22  2  0  0  0  0
 20 41  1  0  0  0  0
 21 23  2  0  0  0  0
 21 42  1  0  0  0  0
 22 50  1  0  0  0  0
 23 43  1  0  0  0  0
 24 69  1  0  0  0  0
 25 77  1  0  0  0  0
 26 78  1  0  0  0  0
 27 90  1  0  0  0  0
 28 91  1  0  0  0  0
 29 31  2  0  0  0  0
 29 90  1  0  0  0  0
 30 92  1  0  0  0  0
 31 93  1  0  0  0  0
 32 71  2  0  0  0  0
 33 72  1  0  0  0  0
 33 75  1  0  0  0  0
 34 76  1  0  0  0  0
 34 83  2  0  0  0  0
 35 51  1  0  0  0  0
 35 79  1  0  0  0  0
 35 84  2  0  0  0  0
 36 67  1  0  0  0  0
 36 73  1  0  0  0  0
 36 85  2  0  0  0  0
 37 61  1  0  0  0  0
 37 77  1  0  0  0  0
 37 86  2  0  0  0  0
 38 62  1  0  0  0  0
 38 78  1  0  0  0  0
 38 87  2  0  0  0  0
 39 68  1  0  0  0  0
 39 80  1  0  0  0  0
 39 88  2  0  0  0  0
 40 74  1  0  0  0  0
 40 81  1  0  0  0  0
 40 89  2  0  0  0  0
 41 44  1  0  0  0  0
 42 51  1  0  0  0  0
 43 73  1  0  0  0  0
 44 46  1  0  0  0  0
 45 47  1  0  0  0  0
 45 48  1  0  0  0  0
 46 50  1  0  0  0  0
 47 52  1  0  0  0  0
 48 74  1  0  0  0  0
 49 52  1  0  0  0  0
 49 74  1  0  0  0  0
 50 79  1  0  0  0  0
 51 73  1  0  0  0  0
 52 72  1  0  0  0  0
 53 68  1  0  0  0  0
 54 69  1  0  0  0  0
 55 69  1  0  0  0  0
 56 69  1  0  0  0  0
 57 70  1  0  0  0  0
 58 70  1  0  0  0  0
 59 70  1  0  0  0  0
 60 82  1  0  0  0  0
 61 63  1  0  0  0  0
 62 91  1  0  0  0  0
 63 64  1  0  0  0  0
 64 65  1  0  0  0  0
 65 66  1  0  0  0  0
 66 81  1  0  0  0  0
 67 70  1  0  0  0  0
 67 80  1  0  0  0  0
 68 82  1  0  0  0  0
 71 72  1  0  0  0  0
M  CHG  1  82   1
M  ISO  4  40 100  62 101  81 100  91 101
M  END
> <Batch ID>
0009

> <Smiles>
CNC(C)C(=O)NC(C(=O)N1Cc2cc([101O:1][101CH2:1]C(=O)Nc3cc(NC(=O)CCCCC[100NH:0][100C:0](=O)N4CCCC(n5nc(-c6ccc(Oc7ccc(F)cc7F)cc6)c(C(N)=O)c5N)C4)cc(C(C)(C)C)c3)ccc2CC1C(=O)NC1CCCc2ccccc21)C(C)(C)C

> <Shape>
0.254

> <Color>
0.055

> <Negative vol penalty>
0.000

$$$$

  -OEChem-04052315383D

 94102  0     1  0  0  0  0  0999 V2000
  -24.8718  -17.3900   10.0845 C   0  0  0  0  0  0  0  0  0  0  0  0
  -24.6469  -16.5711   11.1864 C   0  0  0  0  0  0  0  0  0  0  0  0
  -26.6620  -28.5974   19.1283 C   0  0  0  0  0  0  0  0  0  0  0  0
  -26.2151  -27.0803   20.9547 C   0  0  0  0  0  0  0  0  0  0  0  0
  -25.1841  -18.7361   10.2699 C   0  0  0  0  0  0  0  0  0  0  0  0
  -24.7354  -17.0977   12.4746 C   0  0  0  0  0  0  0  0  0  0  0  0
  -21.3724  -15.5091   17.3400 C   0  0  0  0  0  0  0  0  0  0  0  0
  -30.1818  -17.2316   19.4171 C   0  0  0  0  0  0  0  0  0  0  0  0
  -29.7309  -18.2913   18.6301 C   0  0  0  0  0  0  0  0  0  0  0  0
  -25.5382  -29.3470   19.4760 C   0  0  0  0  0  0  0  0  0  0  0  0
  -25.0913  -27.8299   21.3024 C   0  0  0  0  0  0  0  0  0  0  0  0
  -21.6219  -14.6569   18.4149 C   0  0  0  0  0  0  0  0  0  0  0  0
  -21.9054  -28.1876   20.2286 C   0  0  0  0  0  0  0  0  0  0  0  0
  -20.7298  -27.4959   20.5200 C   0  0  0  0  0  0  0  0  0  0  0  0
  -22.3205  -16.5459   19.7426 C   0  0  0  0  0  0  0  0  0  0  0  0
  -28.9137  -18.0823   21.2893 C   0  0  0  0  0  0  0  0  0  0  0  0
  -20.7223  -28.4447   22.7419 C   0  0  0  0  0  0  0  0  0  0  0  0
  -27.0004  -27.4640   19.8677 C   0  0  0  0  0  0  0  0  0  0  0  0
  -29.4773  -26.8633   19.9759 C   0  0  0  0  0  0  0  0  0  0  0  0
  -25.2670  -19.2817   11.5607 C   0  0  0  0  0  0  0  0  0  0  0  0
  -21.6058  -16.8870   17.4551 C   0  0  0  0  0  0  0  0  0  0  0  0
  -25.0504  -18.4520   12.6775 C   0  0  0  0  0  0  0  0  0  0  0  0
  -22.0707  -17.4138   18.6685 C   0  0  0  0  0  0  0  0  0  0  0  0
  -29.7731  -17.1270   20.7467 C   0  0  0  0  0  0  0  0  0  0  0  0
  -28.8715  -19.2466   19.1728 C   0  0  0  0  0  0  0  0  0  0  0  0
  -24.7529  -28.9632   20.5630 C   0  0  0  0  0  0  0  0  0  0  0  0
  -22.0988  -15.1749   19.6155 C   0  0  0  0  0  0  0  0  0  0  0  0
  -22.4896  -29.0079   21.1938 C   0  0  0  0  0  0  0  0  0  0  0  0
  -20.1382  -27.6244   21.7766 C   0  0  0  0  0  0  0  0  0  0  0  0
  -28.4629  -19.1421   20.5024 C   0  0  0  0  0  0  0  0  0  0  0  0
  -21.8980  -29.1364   22.4505 C   0  0  0  0  0  0  0  0  0  0  0  0
  -28.1608  -26.6890   19.5087 C   0  0  0  0  0  0  0  0  0  0  0  0
  -30.1999  -25.8835   19.3399 C   0  0  0  0  0  0  0  0  0  0  0  0
  -30.0003  -27.8248   20.9020 C   0  0  0  0  0  0  0  0  0  0  0  0
  -23.5196  -18.9670   16.0008 C   0  0  0  0  0  0  0  0  0  0  0  0
  -21.8750  -21.1276   17.7754 C   0  0  0  0  0  0  0  0  0  0  0  0
  -24.4250  -10.1886   21.9624 C   0  0  0  0  0  0  0  0  0  0  0  0
  -31.0831  -15.0222   21.1689 C   0  0  0  0  0  0  0  0  0  0  0  0
  -19.9920  -21.7658   20.5492 C   0  0  0  0  0  0  0  0  0  0  0  0
  -28.7271  -20.5711   17.0347 C   0  0  0  0  0  0  0  0  0  0  0  0
  -25.6540  -20.7314   11.7126 C   0  0  0  0  0  0  0  0  0  0  0  0
  -21.3063  -17.7962   16.2949 C   0  0  0  0  0  0  0  0  0  0  0  0
  -22.3183  -18.8883   18.8499 C   0  0  0  0  0  0  0  0  0  0  0  0
  -25.3601  -21.2983   13.0992 C   0  0  0  0  0  0  0  0  0  0  0  0
  -30.2569  -23.2880   15.3157 C   0  0  0  0  0  0  0  0  0  0  0  0
  -25.8421  -20.3378   14.1818 C   0  0  0  0  0  0  0  0  0  0  0  0
  -30.0181  -24.4832   16.2413 C   0  0  0  0  0  0  0  0  0  0  0  0
  -29.0685  -22.3281   15.3110 C   0  0  0  0  0  0  0  0  0  0  0  0
  -28.3953  -23.0664   17.5628 C   0  0  0  0  0  0  0  0  0  0  0  0
  -25.1129  -18.9920   14.0898 C   0  0  1  0  0  0  0  0  0  0  0  0
  -22.0679  -19.1166   16.3584 C   0  0  1  0  0  0  0  0  0  0  0  0
  -29.5916  -24.0281   17.6507 C   0  0  2  0  0  0  0  0  0  0  0  0
  -22.9749  -10.2346   21.5502 C   0  0  0  0  0  0  0  0  0  0  0  0
  -18.8242  -23.6342   21.7502 C   0  0  0  0  0  0  0  0  0  0  0  0
  -24.5632  -22.1484   18.7960 C   0  0  0  0  0  0  0  0  0  0  0  0
  -23.3405  -23.3125   20.6448 C   0  0  0  0  0  0  0  0  0  0  0  0
  -22.8983  -23.9393   18.2711 C   0  0  0  0  0  0  0  0  0  0  0  0
  -17.3543  -20.4536   20.2673 C   0  0  0  0  0  0  0  0  0  0  0  0
  -31.3443  -14.0525   22.3092 C   0  0  0  0  0  0  0  0  0  0  0  0
  -30.8945  -12.6350   21.9602 C   0  0  0  0  0  0  0  0  0  0  0  0
  -29.4020  -12.5507   21.6278 C   0  0  0  0  0  0  0  0  0  0  0  0
  -28.9852  -11.1127   21.3095 C   0  0  0  0  0  0  0  0  0  0  0  0
  -27.5012  -11.0343   20.9388 C   0  0  0  0  0  0  0  0  0  0  0  0
  -23.9871  -13.4746   22.1825 C   0  0  0  0  0  0  0  0  0  0  0  0
  -26.5886  -11.4659   22.0819 C   0  0  0  0  0  0  0  0  0  0  0  0
  -24.5748  -12.5324   21.1406 C   0  0  0  0  0  0  0  0  0  0  0  0
  -23.3785  -14.7303   21.5701 C   0  0  0  0  0  0  0  0  0  1  0  0
  -22.0403  -21.7295   19.1500 C   0  0  1  0  0  0  0  0  0  0  0  0
  -18.6849  -22.5165   20.7284 C   0  0  2  0  0  0  0  0  0  0  0  0
  -23.2078  -22.7543   19.2117 C   0  0  0  0  0  0  0  0  0  0  0  0
  -28.0506  -25.6781   18.6427 N   0  0  0  0  0  0  0  0  0  0  0  0
  -29.3071  -25.2084   18.5606 N   0  0  0  0  0  0  0  0  0  0  0  0
  -22.0164  -19.7356   17.6844 N   0  0  0  0  0  0  0  0  0  0  0  0
  -28.7241  -21.9366   16.6795 N   0  0  0  0  0  0  0  0  0  0  0  0
  -31.5055  -25.5423   19.3769 N   0  0  0  0  0  0  0  0  0  0  0  0
  -29.1198  -28.7602   21.4625 N   0  0  0  0  0  0  0  0  0  0  0  0
  -30.2310  -16.0522   21.5455 N   0  0  0  0  0  0  0  0  0  0  0  0
  -28.4156  -20.3223   18.3710 N   0  0  0  0  0  0  0  0  0  0  0  0
  -23.7830  -19.0984   14.6507 N   0  0  0  0  0  0  0  0  0  0  0  0
  -20.7399  -22.2826   19.5124 N   0  0  0  0  0  0  0  0  0  0  0  0
  -25.1669  -11.3644   21.7318 N   0  0  0  0  0  0  0  0  0  0  0  0
  -17.6137  -21.5888   21.1898 N   0  3  0  0  0  0  0  0  0  0  0  0
  -31.2155  -27.8641   21.2104 O   0  0  0  0  0  0  0  0  0  0  0  0
  -24.3403  -18.7499   16.8846 O   0  0  0  0  0  0  0  0  0  0  0  0
  -21.6225  -21.8645   16.8190 O   0  0  0  0  0  0  0  0  0  0  0  0
  -24.8753   -9.1558   22.4652 O   0  0  0  0  0  0  0  0  0  0  0  0
  -31.5890  -14.8324   20.0662 O   0  0  0  0  0  0  0  0  0  0  0  0
  -20.3188  -20.8181   21.2604 O   0  0  0  0  0  0  0  0  0  0  0  0
  -29.0135  -19.6894   16.2207 O   0  0  0  0  0  0  0  0  0  0  0  0
  -23.6564  -29.6946   20.9027 O   0  0  0  0  0  0  0  0  0  0  0  0
  -22.3438  -14.3453   20.6660 O   0  0  0  0  0  0  0  0  0  1  0  0
  -19.0084  -26.9613   22.0559 F   0  0  0  0  0  0  0  0  0  0  0  0
  -27.6382  -20.0553   21.0350 F   0  0  0  0  0  0  0  0  0  0  0  0
  -22.4540  -29.9238   23.3814 F   0  0  0  0  0  0  0  0  0  0  0  0
  1  2  1  0  0  0  0
  1  5  2  0  0  0  0
  2  6  2  0  0  0  0
  3 10  2  0  0  0  0
  3 18  1  0  0  0  0
  4 11  1  0  0  0  0
  4 18  2  0  0  0  0
  5 20  1  0  0  0  0
  6 22  1  0  0  0  0
  7 12  2  0  0  0  0
  7 21  1  0  0  0  0
  8  9  2  0  0  0  0
  8 24  1  0  0  0  0
  9 25  1  0  0  0  0
 10 26  1  0  0  0  0
 11 26  2  0  0  0  0
 12 27  1  0  0  0  0
 13 14  2  0  0  0  0
 13 28  1  0  0  0  0
 14 29  1  0  0  0  0
 15 23  1  0  0  0  0
 15 27  2  0  0  0  0
 16 24  2  0  0  0  0
 16 30  1  0  0  0  0
 17 29  2  0  0  0  0
 17 31  1  0  0  0  0
 18 32  1  0  0  0  0
 19 32  1  0  0  0  0
 19 33  2  0  0  0  0
 19 34  1  0  0  0  0
 20 22  2  0  0  0  0
 20 41  1  0  0  0  0
 21 23  2  0  0  0  0
 21 42  1  0  0  0  0
 22 50  1  0  0  0  0
 23 43  1  0  0  0  0
 24 77  1  0  0  0  0
 25 30  2  0  0  0  0
 25 78  1  0  0  0  0
 26 90  1  0  0  0  0
 27 91  1  0  0  0  0
 28 31  2  0  0  0  0
 28 90  1  0  0  0  0
 29 92  1  0  0  0  0
 30 93  1  0  0  0  0
 31 94  1  0  0  0  0
 32 71  2  0  0  0  0
 33 72  1  0  0  0  0
 33 75  1  0  0  0  0
 34 76  1  0  0  0  0
 34 83  2  0  0  0  0
 35 51  1  0  0  0  0
 35 79  1  0  0  0  0
 35 84  2  0  0  0  0
 36 68  1  0  0  0  0
 36 73  1  0  0  0  0
 36 85  2  0  0  0  0
 37 53  1  0  0  0  0
 37 81  1  0  0  0  0
 37 86  2  0  0  0  0
 38 59  1  0  0  0  0
 38 77  1  0  0  0  0
 38 87  2  0  0  0  0
 39 69  1  0  0  0  0
 39 80  1  0  0  0  0
 39 88  2  0  0  0  0
 40 74  1  0  0  0  0
 40 78  1  0  0  0  0
 40 89  2  0  0  0  0
 41 44  1  0  0  0  0
 42 51  1  0  0  0  0
 43 73  1  0  0  0  0
 44 46  1  0  0  0  0
 45 47  1  0  0  0  0
 45 48  1  0  0  0  0
 46 50  1  0  0  0  0
 47 52  1  0  0  0  0
 48 74  1  0  0  0  0
 49 52  1  0  0  0  0
 49 74  1  0  0  0  0
 50 79  1  0  0  0  0
 51 73  1  0  0  0  0
 52 72  1  0  0  0  0
 54 69  1  0  0  0  0
 55 70  1  0  0  0  0
 56 70  1  0  0  0  0
 57 70  1  0  0  0  0
 58 82  1  0  0  0  0
 59 60  1  0  0  0  0
 60 61  1  0  0  0  0
 61 62  1  0  0  0  0
 62 63  1  0  0  0  0
 63 65  1  0  0  0  0
 64 66  1  0  0  0  0
 64 67  1  0  0  0  0
 65 81  1  0  0  0  0
 66 81  1  0  0  0  0
 67 91  1  0  0  0  0
 68 70  1  0  0  0  0
 68 80  1  0  0  0  0
 69 82  1  0  0  0  0
 71 72  1  0  0  0  0
M  CHG  1  82   1
M  ISO  4  40 100  67 101  78 100  91 101
M  END
> <Batch ID>
0009

> <Smiles>
CNC(C)C(=O)NC(C(=O)N1Cc2cc([101O:1][101CH2:1]CCN(CCCCCCC(=O)Nc3ccc([100NH:0][100C:0](=O)N4CCCC(n5nc(-c6ccc(Oc7ccc(F)cc7F)cc6)c(C(N)=O)c5N)C4)c(F)c3)C(C)=O)ccc2CC1C(=O)NC1CCCc2ccccc21)C(C)(C)C

> <Shape>
0.231

> <Color>
0.063

> <Negative vol penalty>
0.000

$$$$

  -OEChem-04052315383D

 84 92  0     1  0  0  0  0  0999 V2000
  -33.8008  -35.1058   22.2194 C   0  0  0  0  0  0  0  0  0  0  0  0
  -33.8094  -33.7155   22.2693 C   0  0  0  0  0  0  0  0  0  0  0  0
  -23.0686   -9.8842   19.9334 C   0  0  0  0  0  0  0  0  0  0  0  0
  -23.8430   -9.8646   22.2218 C   0  0  0  0  0  0  0  0  0  0  0  0
  -32.7236  -35.8146   22.7496 C   0  0  0  0  0  0  0  0  0  0  0  0
  -32.7412  -33.0332   22.8506 C   0  0  0  0  0  0  0  0  0  0  0  0
  -30.4531  -27.6210   21.1246 C   0  0  0  0  0  0  0  0  0  0  0  0
  -22.3263   -8.7282   20.1746 C   0  0  0  0  0  0  0  0  0  0  0  0
  -23.1006   -8.7086   22.4631 C   0  0  0  0  0  0  0  0  0  0  0  0
  -30.6444  -26.3259   21.6040 C   0  0  0  0  0  0  0  0  0  0  0  0
  -19.3872   -7.9147   21.6352 C   0  0  0  0  0  0  0  0  0  0  0  0
  -18.0773   -7.8741   21.1577 C   0  0  0  0  0  0  0  0  0  0  0  0
  -28.6515  -26.5352   22.9470 C   0  0  0  0  0  0  0  0  0  0  0  0
  -29.7130  -19.2704   22.4194 C   0  0  0  0  0  0  0  0  0  0  0  0
  -31.1514  -17.6923   20.6240 C   0  0  0  0  0  0  0  0  0  0  0  0
  -18.6285   -5.9466   19.8094 C   0  0  0  0  0  0  0  0  0  0  0  0
  -23.8270  -10.4524   20.9570 C   0  0  0  0  0  0  0  0  0  0  0  0
  -24.1682  -12.9788   20.8642 C   0  0  0  0  0  0  0  0  0  0  0  0
  -31.6372  -35.1403   23.3290 C   0  0  0  0  0  0  0  0  0  0  0  0
  -29.3638  -28.3882   21.5619 C   0  0  0  0  0  0  0  0  0  0  0  0
  -31.6490  -33.7337   23.3903 C   0  0  0  0  0  0  0  0  0  0  0  0
  -28.4472  -27.8388   22.4697 C   0  0  0  0  0  0  0  0  0  0  0  0
  -30.6105  -19.8648   21.5324 C   0  0  0  0  0  0  0  0  0  0  0  0
  -30.2538  -17.0980   21.5110 C   0  0  0  0  0  0  0  0  0  0  0  0
  -22.3422   -8.1404   21.4395 C   0  0  0  0  0  0  0  0  0  0  0  0
  -29.7451  -25.7838   22.5176 C   0  0  0  0  0  0  0  0  0  0  0  0
  -20.3179   -6.9713   21.1997 C   0  0  0  0  0  0  0  0  0  0  0  0
  -29.5347  -17.8870   22.4087 C   0  0  0  0  0  0  0  0  0  0  0  0
  -17.6979   -6.8900   20.2449 C   0  0  0  0  0  0  0  0  0  0  0  0
  -19.9385   -5.9872   20.2869 C   0  0  0  0  0  0  0  0  0  0  0  0
  -31.3297  -19.0758   20.6347 C   0  0  0  0  0  0  0  0  0  0  0  0
  -24.5945  -11.6462   20.7082 C   0  0  0  0  0  0  0  0  0  0  0  0
  -25.2581  -13.7324   20.5027 C   0  0  0  0  0  0  0  0  0  0  0  0
  -22.9004  -13.4896   21.2971 C   0  0  0  0  0  0  0  0  0  0  0  0
  -29.0395  -31.1301   23.1369 C   0  0  0  0  0  0  0  0  0  0  0  0
  -25.8945  -30.6870   22.4770 C   0  0  0  0  0  0  0  0  0  0  0  0
  -30.1204  -22.1737   22.4056 C   0  0  0  0  0  0  0  0  0  0  0  0
  -23.3691  -28.5173   21.7278 C   0  0  0  0  0  0  0  0  0  0  0  0
  -30.7253  -14.7761   20.6550 C   0  0  0  0  0  0  0  0  0  0  0  0
  -30.5172  -35.9511   23.9314 C   0  0  0  0  0  0  0  0  0  0  0  0
  -29.1567  -29.7739   21.0148 C   0  0  0  0  0  0  0  0  0  0  0  0
  -27.2503  -28.6137   22.9550 C   0  0  0  0  0  0  0  0  0  0  0  0
  -29.2509  -35.1401   24.1938 C   0  0  0  0  0  0  0  0  0  0  0  0
  -29.5958  -12.3899   18.2659 C   0  0  0  0  0  0  0  0  0  0  0  0
  -29.5941  -33.8210   24.8786 C   0  0  0  0  0  0  0  0  0  0  0  0
  -28.1589  -12.0933   18.7011 C   0  0  0  0  0  0  0  0  0  0  0  0
  -30.5185  -12.6048   19.4643 C   0  0  0  0  0  0  0  0  0  0  0  0
  -28.6204  -13.3131   20.8659 C   0  0  0  0  0  0  0  0  0  0  0  0
  -30.4973  -32.9569   23.9904 C   0  0  1  0  0  0  0  0  0  0  0  0
  -28.2984  -30.6517   21.9205 C   0  0  1  0  0  0  0  0  0  0  0  0
  -27.6401  -13.1535   19.6924 C   0  0  2  0  0  0  0  0  0  0  0  0
  -20.9003  -28.4458   21.2835 C   0  0  0  0  0  0  0  0  0  0  0  0
  -25.3504  -31.0180   25.4610 C   0  0  0  0  0  0  0  0  0  0  0  0
  -23.0876  -30.0132   25.0888 C   0  0  0  0  0  0  0  0  0  0  0  0
  -23.6988  -32.1558   23.9669 C   0  0  0  0  0  0  0  0  0  0  0  0
  -23.7738  -27.4457   18.9989 C   0  0  0  0  0  0  0  0  0  0  0  0
  -27.3036  -17.1869   22.8424 C   0  0  0  0  0  0  0  0  0  0  0  0
  -30.5771  -23.5920   22.1182 C   0  0  0  0  0  0  0  0  0  1  0  0
  -24.7440  -29.9965   23.1687 C   0  0  1  0  0  0  0  0  0  0  0  0
  -22.2852  -28.5612   20.6658 C   0  0  2  0  0  0  0  0  0  0  0  0
  -24.2437  -30.7817   24.4139 C   0  0  0  0  0  0  0  0  0  0  0  0
  -25.8567  -11.5553   20.2809 N   0  0  0  0  0  0  0  0  0  0  0  0
  -26.2328  -12.8402   20.1651 N   0  0  0  0  0  0  0  0  0  0  0  0
  -27.0947  -29.9667   22.3958 N   0  0  0  0  0  0  0  0  0  0  0  0
  -29.9652  -13.6253   20.3571 N   0  0  0  0  0  0  0  0  0  0  0  0
  -25.4681  -15.0647   20.4439 N   0  0  0  0  0  0  0  0  0  0  0  0
  -21.8906  -12.5766   21.6302 N   0  0  0  0  0  0  0  0  0  0  0  0
  -30.7675  -21.2706   21.5690 N   0  0  0  0  0  0  0  0  0  0  0  0
  -30.0832  -15.6915   21.4881 N   0  0  0  0  0  0  0  0  0  0  0  0
  -29.7206  -32.3177   22.9498 N   0  0  0  0  0  0  0  0  0  0  0  0
  -23.7238  -29.7818   22.1481 N   0  0  0  0  0  0  0  0  0  0  0  0
  -22.4629  -27.4421   19.6978 N   0  3  0  0  0  0  0  0  0  0  0  0
  -22.6646  -14.7195   21.3702 O   0  0  0  0  0  0  0  0  0  0  0  0
  -28.9953  -30.4713   24.1692 O   0  0  0  0  0  0  0  0  0  0  0  0
  -25.7322  -31.8209   22.0192 O   0  0  0  0  0  0  0  0  0  0  0  0
  -29.2887  -21.9300   23.2735 O   0  0  0  0  0  0  0  0  0  0  0  0
  -23.8502  -27.4663   22.1455 O   0  0  0  0  0  0  0  0  0  0  0  0
  -31.8514  -14.9502   20.1822 O   0  0  0  0  0  0  0  0  0  0  0  0
  -21.6178   -7.0125   21.6753 O   0  0  0  0  0  0  0  0  0  0  0  0
  -28.6524  -17.3262   23.2835 O   0  0  0  0  0  0  0  0  0  0  0  0
  -29.9298  -24.5202   22.9876 O   0  0  0  0  0  0  0  0  0  1  0  0
  -16.4396   -6.8502   19.7876 F   0  0  0  0  0  0  0  0  0  0  0  0
  -20.8278   -5.0775   19.8658 F   0  0  0  0  0  0  0  0  0  0  0  0
  -32.4521  -19.7711   19.5203 Cl  0  0  0  0  0  0  0  0  0  0  0  0
  1  2  1  0  0  0  0
  1  5  2  0  0  0  0
  2  6  2  0  0  0  0
  3  8  2  0  0  0  0
  3 17  1  0  0  0  0
  4  9  1  0  0  0  0
  4 17  2  0  0  0  0
  5 19  1  0  0  0  0
  6 21  1  0  0  0  0
  7 10  2  0  0  0  0
  7 20  1  0  0  0  0
  8 25  1  0  0  0  0
  9 25  2  0  0  0  0
 10 26  1  0  0  0  0
 11 12  2  0  0  0  0
 11 27  1  0  0  0  0
 12 29  1  0  0  0  0
 13 22  1  0  0  0  0
 13 26  2  0  0  0  0
 14 23  1  0  0  0  0
 14 28  2  0  0  0  0
 15 24  2  0  0  0  0
 15 31  1  0  0  0  0
 16 29  2  0  0  0  0
 16 30  1  0  0  0  0
 17 32  1  0  0  0  0
 18 32  1  0  0  0  0
 18 33  2  0  0  0  0
 18 34  1  0  0  0  0
 19 21  2  0  0  0  0
 19 40  1  0  0  0  0
 20 22  2  0  0  0  0
 20 41  1  0  0  0  0
 21 49  1  0  0  0  0
 22 42  1  0  0  0  0
 23 31  2  0  0  0  0
 23 68  1  0  0  0  0
 24 28  1  0  0  0  0
 24 69  1  0  0  0  0
 25 79  1  0  0  0  0
 26 81  1  0  0  0  0
 27 30  2  0  0  0  0
 27 79  1  0  0  0  0
 28 80  1  0  0  0  0
 29 82  1  0  0  0  0
 30 83  1  0  0  0  0
 31 84  1  0  0  0  0
 32 62  2  0  0  0  0
 33 63  1  0  0  0  0
 33 66  1  0  0  0  0
 34 67  1  0  0  0  0
 34 73  2  0  0  0  0
 35 50  1  0  0  0  0
 35 70  1  0  0  0  0
 35 74  2  0  0  0  0
 36 59  1  0  0  0  0
 36 64  1  0  0  0  0
 36 75  2  0  0  0  0
 37 58  1  0  0  0  0
 37 68  1  0  0  0  0
 37 76  2  0  0  0  0
 38 60  1  0  0  0  0
 38 71  1  0  0  0  0
 38 77  2  0  0  0  0
 39 65  1  0  0  0  0
 39 69  1  0  0  0  0
 39 78  2  0  0  0  0
 40 43  1  0  0  0  0
 41 50  1  0  0  0  0
 42 64  1  0  0  0  0
 43 45  1  0  0  0  0
 44 46  1  0  0  0  0
 44 47  1  0  0  0  0
 45 49  1  0  0  0  0
 46 51  1  0  0  0  0
 47 65  1  0  0  0  0
 48 51  1  0  0  0  0
 48 65  1  0  0  0  0
 49 70  1  0  0  0  0
 50 64  1  0  0  0  0
 51 63  1  0  0  0  0
 52 60  1  0  0  0  0
 53 61  1  0  0  0  0
 54 61  1  0  0  0  0
 55 61  1  0  0  0  0
 56 72  1  0  0  0  0
 57 80  1  0  0  0  0
 58 81  1  0  0  0  0
 59 61  1  0  0  0  0
 59 71  1  0  0  0  0
 60 72  1  0  0  0  0
 62 63  1  0  0  0  0
M  CHG  1  72   1
M  ISO  4  39 100  58 101  69 100  81 101
M  END
> <Batch ID>
0009

> <Smiles>
CNC(C)C(=O)NC(C(=O)N1Cc2cc([101O:1][101CH2:1]C(=O)Nc3cc(OC)c([100NH:0][100C:0](=O)N4CCCC(n5nc(-c6ccc(Oc7ccc(F)cc7F)cc6)c(C(N)=O)c5N)C4)cc3Cl)ccc2CC1C(=O)NC1CCCc2ccccc21)C(C)(C)C

> <Shape>
0.268

> <Color>
0.188

> <Negative vol penalty>
0.000

$$$$

  -OEChem-04052315383D

 81 89  0     1  0  0  0  0  0999 V2000
  -24.5738  -32.0556   29.0851 C   0  0  0  0  0  0  0  0  0  0  0  0
  -25.3302  -31.2090   28.2810 C   0  0  0  0  0  0  0  0  0  0  0  0
  -24.5838   -8.9930   21.5609 C   0  0  0  0  0  0  0  0  0  0  0  0
  -23.9301  -10.7076   23.1324 C   0  0  0  0  0  0  0  0  0  0  0  0
  -23.2505  -32.3371   28.7479 C   0  0  0  0  0  0  0  0  0  0  0  0
  -24.7634  -30.6426   27.1398 C   0  0  0  0  0  0  0  0  0  0  0  0
  -27.5845  -29.4338   21.8402 C   0  0  0  0  0  0  0  0  0  0  0  0
  -26.0332  -20.6131   19.0839 C   0  0  0  0  0  0  0  0  0  0  0  0
  -28.3128  -21.0359   19.7633 C   0  0  0  0  0  0  0  0  0  0  0  0
  -26.2893  -19.2420   19.0780 C   0  0  0  0  0  0  0  0  0  0  0  0
  -28.5689  -19.6648   19.7575 C   0  0  0  0  0  0  0  0  0  0  0  0
  -24.1521   -8.0111   22.4525 C   0  0  0  0  0  0  0  0  0  0  0  0
  -23.4983   -9.7257   24.0241 C   0  0  0  0  0  0  0  0  0  0  0  0
  -28.1273  -28.2632   21.3122 C   0  0  0  0  0  0  0  0  0  0  0  0
  -22.8900   -5.0635   24.1653 C   0  0  0  0  0  0  0  0  0  0  0  0
  -22.1309   -4.0112   23.6535 C   0  0  0  0  0  0  0  0  0  0  0  0
  -26.0782  -27.8657   20.1028 C   0  0  0  0  0  0  0  0  0  0  0  0
  -20.4569   -5.5836   22.9034 C   0  0  0  0  0  0  0  0  0  0  0  0
  -24.4729  -10.3413   21.9008 C   0  0  0  0  0  0  0  0  0  0  0  0
  -24.1598  -11.9867   19.9767 C   0  0  0  0  0  0  0  0  0  0  0  0
  -22.6702  -31.7815   27.5968 C   0  0  0  0  0  0  0  0  0  0  0  0
  -26.2784  -29.8242   21.5115 C   0  0  0  0  0  0  0  0  0  0  0  0
  -23.4307  -30.9159   26.7877 C   0  0  0  0  0  0  0  0  0  0  0  0
  -25.5221  -29.0431   20.6259 C   0  0  0  0  0  0  0  0  0  0  0  0
  -27.0450  -21.5101   19.4265 C   0  0  0  0  0  0  0  0  0  0  0  0
  -27.5571  -18.7678   19.4148 C   0  0  0  0  0  0  0  0  0  0  0  0
  -23.6093   -8.3774   23.6841 C   0  0  0  0  0  0  0  0  0  0  0  0
  -27.3731  -27.4774   20.4456 C   0  0  0  0  0  0  0  0  0  0  0  0
  -22.4325   -6.3759   24.0463 C   0  0  0  0  0  0  0  0  0  0  0  0
  -20.9144   -4.2712   23.0225 C   0  0  0  0  0  0  0  0  0  0  0  0
  -21.2160   -6.6359   23.4154 C   0  0  0  0  0  0  0  0  0  0  0  0
  -24.9192  -11.3560   20.9804 C   0  0  0  0  0  0  0  0  0  0  0  0
  -25.0349  -12.8643   19.3845 C   0  0  0  0  0  0  0  0  0  0  0  0
  -22.7863  -11.7963   19.6123 C   0  0  0  0  0  0  0  0  0  0  0  0
  -23.5940  -30.2814   23.1513 C   0  0  0  0  0  0  0  0  0  0  0  0
  -22.4912  -31.3523   20.2948 C   0  0  0  0  0  0  0  0  0  0  0  0
  -27.6711  -23.9268   19.7453 C   0  0  0  0  0  0  0  0  0  0  0  0
  -22.7599  -31.3303   16.8927 C   0  0  0  0  0  0  0  0  0  0  0  0
  -29.0196  -16.7391   19.7174 C   0  0  0  0  0  0  0  0  0  0  0  0
  -21.2216  -32.0776   27.2989 C   0  0  0  0  0  0  0  0  0  0  0  0
  -25.7170  -31.1037   22.0684 C   0  0  0  0  0  0  0  0  0  0  0  0
  -24.1224  -29.4288   20.2255 C   0  0  0  0  0  0  0  0  0  0  0  0
  -20.8113  -31.7344   25.8692 C   0  0  0  0  0  0  0  0  0  0  0  0
  -30.0527  -13.3346   19.8560 C   0  0  0  0  0  0  0  0  0  0  0  0
  -21.3270  -30.3517   25.4832 C   0  0  0  0  0  0  0  0  0  0  0  0
  -28.7467  -12.5682   20.0783 C   0  0  0  0  0  0  0  0  0  0  0  0
  -30.0634  -14.6660   20.6050 C   0  0  0  0  0  0  0  0  0  0  0  0
  -27.6023  -14.7679   20.5667 C   0  0  0  0  0  0  0  0  0  0  0  0
  -22.8590  -30.3018   25.5283 C   0  0  1  0  0  0  0  0  0  0  0  0
  -24.1918  -31.1363   22.0699 C   0  0  1  0  0  0  0  0  0  0  0  0
  -27.5182  -13.4498   19.7799 C   0  0  2  0  0  0  0  0  0  0  0  0
  -21.6939  -32.2743   14.8264 C   0  0  0  0  0  0  0  0  0  0  0  0
  -20.1808  -29.3813   20.5893 C   0  0  0  0  0  0  0  0  0  0  0  0
  -19.7107  -29.6750   18.1478 C   0  0  0  0  0  0  0  0  0  0  0  0
  -19.5309  -31.6242   19.6941 C   0  0  0  0  0  0  0  0  0  0  0  0
  -25.2535  -32.7114   16.0967 C   0  0  0  0  0  0  0  0  0  0  0  0
  -26.9897  -25.2775   19.6276 C   0  0  0  0  0  0  0  0  0  1  0  0
  -21.8158  -30.7173   19.1034 C   0  0  1  0  0  0  0  0  0  0  0  0
  -22.7785  -32.4579   15.8765 C   0  0  2  0  0  0  0  0  0  0  0  0
  -20.3352  -30.3409   19.3925 C   0  0  0  0  0  0  0  0  0  0  0  0
  -26.1797  -11.7955   21.0261 N   0  0  0  0  0  0  0  0  0  0  0  0
  -26.2191  -12.7116   20.0437 N   0  0  0  0  0  0  0  0  0  0  0  0
  -23.6156  -30.6853   20.8015 N   0  0  0  0  0  0  0  0  0  0  0  0
  -28.8721  -15.4491   20.2696 N   0  0  0  0  0  0  0  0  0  0  0  0
  -24.8991  -13.7439   18.3695 N   0  0  0  0  0  0  0  0  0  0  0  0
  -22.0305  -10.8547   20.3240 N   0  0  0  0  0  0  0  0  0  0  0  0
  -26.7856  -22.9012   19.4322 N   0  0  0  0  0  0  0  0  0  0  0  0
  -27.8175  -17.3750   19.4089 N   0  0  0  0  0  0  0  0  0  0  0  0
  -23.4201  -30.9370   24.3552 N   0  0  0  0  0  0  0  0  0  0  0  0
  -21.9901  -31.6463   17.9922 N   0  0  0  0  0  0  0  0  0  0  0  0
  -24.0977  -32.5106   15.1853 N   0  3  0  0  0  0  0  0  0  0  0  0
  -22.2497  -12.4303   18.6723 O   0  0  0  0  0  0  0  0  0  0  0  0
  -23.3101  -29.1138   22.9107 O   0  0  0  0  0  0  0  0  0  0  0  0
  -22.0422  -32.4053   20.7544 O   0  0  0  0  0  0  0  0  0  0  0  0
  -28.8478  -23.8276   20.0773 O   0  0  0  0  0  0  0  0  0  0  0  0
  -23.3647  -30.2734   16.7261 O   0  0  0  0  0  0  0  0  0  0  0  0
  -30.1309  -17.2316   19.5066 O   0  0  0  0  0  0  0  0  0  0  0  0
  -23.1877   -7.4196   24.5544 O   0  0  0  0  0  0  0  0  0  0  0  0
  -27.9002  -26.3340   19.9294 O   0  0  0  0  0  0  0  0  0  1  0  0
  -20.1862   -3.2608   22.5296 F   0  0  0  0  0  0  0  0  0  0  0  0
  -20.7719   -7.8947   23.2970 F   0  0  0  0  0  0  0  0  0  0  0  0
  1  2  1  0  0  0  0
  1  5  2  0  0  0  0
  2  6  2  0  0  0  0
  3 12  2  0  0  0  0
  3 19  1  0  0  0  0
  4 13  1  0  0  0  0
  4 19  2  0  0  0  0
  5 21  1  0  0  0  0
  6 23  1  0  0  0  0
  7 14  2  0  0  0  0
  7 22  1  0  0  0  0
  8 10  2  0  0  0  0
  8 25  1  0  0  0  0
  9 11  1  0  0  0  0
  9 25  2  0  0  0  0
 10 26  1  0  0  0  0
 11 26  2  0  0  0  0
 12 27  1  0  0  0  0
 13 27  2  0  0  0  0
 14 28  1  0  0  0  0
 15 16  2  0  0  0  0
 15 29  1  0  0  0  0
 16 30  1  0  0  0  0
 17 24  1  0  0  0  0
 17 28  2  0  0  0  0
 18 30  2  0  0  0  0
 18 31  1  0  0  0  0
 19 32  1  0  0  0  0
 20 32  1  0  0  0  0
 20 33  2  0  0  0  0
 20 34  1  0  0  0  0
 21 23  2  0  0  0  0
 21 40  1  0  0  0  0
 22 24  2  0  0  0  0
 22 41  1  0  0  0  0
 23 49  1  0  0  0  0
 24 42  1  0  0  0  0
 25 67  1  0  0  0  0
 26 68  1  0  0  0  0
 27 78  1  0  0  0  0
 28 79  1  0  0  0  0
 29 31  2  0  0  0  0
 29 78  1  0  0  0  0
 30 80  1  0  0  0  0
 31 81  1  0  0  0  0
 32 61  2  0  0  0  0
 33 62  1  0  0  0  0
 33 65  1  0  0  0  0
 34 66  1  0  0  0  0
 34 72  2  0  0  0  0
 35 50  1  0  0  0  0
 35 69  1  0  0  0  0
 35 73  2  0  0  0  0
 36 58  1  0  0  0  0
 36 63  1  0  0  0  0
 36 74  2  0  0  0  0
 37 57  1  0  0  0  0
 37 67  1  0  0  0  0
 37 75  2  0  0  0  0
 38 59  1  0  0  0  0
 38 70  1  0  0  0  0
 38 76  2  0  0  0  0
 39 64  1  0  0  0  0
 39 68  1  0  0  0  0
 39 77  2  0  0  0  0
 40 43  1  0  0  0  0
 41 50  1  0  0  0  0
 42 63  1  0  0  0  0
 43 45  1  0  0  0  0
 44 46  1  0  0  0  0
 44 47  1  0  0  0  0
 45 49  1  0  0  0  0
 46 51  1  0  0  0  0
 47 64  1  0  0  0  0
 48 51  1  0  0  0  0
 48 64  1  0  0  0  0
 49 69  1  0  0  0  0
 50 63  1  0  0  0  0
 51 62  1  0  0  0  0
 52 59  1  0  0  0  0
 53 60  1  0  0  0  0
 54 60  1  0  0  0  0
 55 60  1  0  0  0  0
 56 71  1  0  0  0  0
 57 79  1  0  0  0  0
 58 60  1  0  0  0  0
 58 70  1  0  0  0  0
 59 71  1  0  0  0  0
 61 62  1  0  0  0  0
M  CHG  1  71   1
M  ISO  4  39 100  57 101  68 100  79 101
M  END
> <Batch ID>
0009

> <Smiles>
CNC(C)C(=O)NC(C(=O)N1Cc2cc([101O:1][101CH2:1]C(=O)Nc3ccc([100NH:0][100C:0](=O)N4CCCC(n5nc(-c6ccc(Oc7ccc(F)cc7F)cc6)c(C(N)=O)c5N)C4)cc3)ccc2CC1C(=O)NC1CCCc2ccccc21)C(C)(C)C

> <Shape>
0.258

> <Color>
0.118

> <Negative vol penalty>
0.000

$$$$

  -OEChem-04052315383D

 83 91  0     1  0  0  0  0  0999 V2000
  -30.8515  -31.8179   24.9125 C   0  0  0  0  0  0  0  0  0  0  0  0
  -30.3588  -30.6859   24.2712 C   0  0  0  0  0  0  0  0  0  0  0  0
  -24.6249   -8.9677   21.3589 C   0  0  0  0  0  0  0  0  0  0  0  0
  -23.3467  -10.8314   22.2130 C   0  0  0  0  0  0  0  0  0  0  0  0
  -29.9790  -32.6705   25.5875 C   0  0  0  0  0  0  0  0  0  0  0  0
  -28.9933  -30.4053   24.3055 C   0  0  0  0  0  0  0  0  0  0  0  0
  -27.1795  -29.0256   19.7831 C   0  0  0  0  0  0  0  0  0  0  0  0
  -27.7948  -20.3729   20.1270 C   0  0  0  0  0  0  0  0  0  0  0  0
  -28.2153  -19.0566   20.3168 C   0  0  0  0  0  0  0  0  0  0  0  0
  -24.0726   -8.1406   22.3369 C   0  0  0  0  0  0  0  0  0  0  0  0
  -22.7943  -10.0044   23.1910 C   0  0  0  0  0  0  0  0  0  0  0  0
  -27.4304  -27.7184   19.3683 C   0  0  0  0  0  0  0  0  0  0  0  0
  -21.1664   -6.4914   22.8536 C   0  0  0  0  0  0  0  0  0  0  0  0
  -20.7144   -5.2325   22.4583 C   0  0  0  0  0  0  0  0  0  0  0  0
  -25.2031  -27.0833   20.0428 C   0  0  0  0  0  0  0  0  0  0  0  0
  -25.7527  -19.8935   21.3257 C   0  0  0  0  0  0  0  0  0  0  0  0
  -22.2710   -4.1937   23.9863 C   0  0  0  0  0  0  0  0  0  0  0  0
  -24.2620  -10.3131   21.2969 C   0  0  0  0  0  0  0  0  0  0  0  0
  -24.3275  -11.4134   18.9963 C   0  0  0  0  0  0  0  0  0  0  0  0
  -28.6009  -32.4054   25.6219 C   0  0  0  0  0  0  0  0  0  0  0  0
  -25.9402  -29.3696   20.3419 C   0  0  0  0  0  0  0  0  0  0  0  0
  -28.1017  -31.2545   24.9827 C   0  0  0  0  0  0  0  0  0  0  0  0
  -24.9381  -28.3962   20.4616 C   0  0  0  0  0  0  0  0  0  0  0  0
  -26.5635  -20.7914   20.6315 C   0  0  0  0  0  0  0  0  0  0  0  0
  -27.4045  -18.1587   21.0111 C   0  0  0  0  0  0  0  0  0  0  0  0
  -23.1573   -8.6590   23.2529 C   0  0  0  0  0  0  0  0  0  0  0  0
  -26.4431  -26.7464   19.5008 C   0  0  0  0  0  0  0  0  0  0  0  0
  -22.1708   -6.6016   23.8153 C   0  0  0  0  0  0  0  0  0  0  0  0
  -26.1732  -18.5771   21.5156 C   0  0  0  0  0  0  0  0  0  0  0  0
  -21.2667   -4.0836   23.0246 C   0  0  0  0  0  0  0  0  0  0  0  0
  -22.7231   -5.4527   24.3816 C   0  0  0  0  0  0  0  0  0  0  0  0
  -24.8327  -11.1681   20.2872 C   0  0  0  0  0  0  0  0  0  0  0  0
  -25.2265  -12.2878   18.4362 C   0  0  0  0  0  0  0  0  0  0  0  0
  -23.1507  -10.8972   18.3604 C   0  0  0  0  0  0  0  0  0  0  0  0
  -24.9813  -30.4768   23.1630 C   0  0  0  0  0  0  0  0  0  0  0  0
  -22.1043  -30.6598   21.6758 C   0  0  0  0  0  0  0  0  0  0  0  0
  -26.8133  -23.1444   19.7741 C   0  0  0  0  0  0  0  0  0  0  0  0
  -20.0588  -29.5546   19.1776 C   0  0  0  0  0  0  0  0  0  0  0  0
  -29.0413  -16.2613   20.7520 C   0  0  0  0  0  0  0  0  0  0  0  0
  -27.7029  -33.3308   26.4041 C   0  0  0  0  0  0  0  0  0  0  0  0
  -25.6761  -30.7901   20.7598 C   0  0  0  0  0  0  0  0  0  0  0  0
  -23.5838  -28.7187   21.0363 C   0  0  0  0  0  0  0  0  0  0  0  0
  -26.2215  -33.1634   26.0760 C   0  0  0  0  0  0  0  0  0  0  0  0
  -29.8477  -13.5317   18.6128 C   0  0  0  0  0  0  0  0  0  0  0  0
  -25.8425  -31.6859   26.0575 C   0  0  0  0  0  0  0  0  0  0  0  0
  -28.6048  -12.6412   18.6771 C   0  0  0  0  0  0  0  0  0  0  0  0
  -30.1497  -14.1824   19.9615 C   0  0  0  0  0  0  0  0  0  0  0  0
  -27.7837  -14.0211   20.6287 C   0  0  0  0  0  0  0  0  0  0  0  0
  -26.6237  -30.9295   24.9764 C   0  0  1  0  0  0  0  0  0  0  0  0
  -24.5565  -30.9119   21.7890 C   0  0  1  0  0  0  0  0  0  0  0  0
  -27.4019  -13.3950   19.2775 C   0  0  2  0  0  0  0  0  0  0  0  0
  -17.7522  -29.8632   18.2387 C   0  0  0  0  0  0  0  0  0  0  0  0
  -20.9511  -29.0214   23.9771 C   0  0  0  0  0  0  0  0  0  0  0  0
  -18.9450  -28.5608   22.5518 C   0  0  0  0  0  0  0  0  0  0  0  0
  -19.4969  -30.9040   23.2055 C   0  0  0  0  0  0  0  0  0  0  0  0
  -21.1170  -30.4656   16.5681 C   0  0  0  0  0  0  0  0  0  0  0  0
  -24.4208  -16.9718   21.4281 C   0  0  0  0  0  0  0  0  0  0  0  0
  -26.0037  -24.4276   19.7942 C   0  0  0  0  0  0  0  0  0  1  0  0
  -20.9341  -29.7238   21.4927 C   0  0  1  0  0  0  0  0  0  0  0  0
  -19.2064  -30.3028   18.1686 C   0  0  2  0  0  0  0  0  0  0  0  0
  -20.1078  -29.5457   22.7976 C   0  0  0  0  0  0  0  0  0  0  0  0
  -25.9649  -11.8327   20.5327 N   0  0  0  0  0  0  0  0  0  0  0  0
  -26.1786  -12.5043   19.3884 N   0  0  0  0  0  0  0  0  0  0  0  0
  -23.3761  -30.1203   21.4364 N   0  0  0  0  0  0  0  0  0  0  0  0
  -28.9660  -14.8816   20.4665 N   0  0  0  0  0  0  0  0  0  0  0  0
  -25.2876  -12.8848   17.2270 N   0  0  0  0  0  0  0  0  0  0  0  0
  -22.3379  -10.0096   19.0787 N   0  0  0  0  0  0  0  0  0  0  0  0
  -26.1368  -22.1267   20.4380 N   0  0  0  0  0  0  0  0  0  0  0  0
  -27.8450  -16.8246   21.1950 N   0  0  0  0  0  0  0  0  0  0  0  0
  -26.0547  -31.1839   23.6703 N   0  0  0  0  0  0  0  0  0  0  0  0
  -20.1671  -30.2449   20.3663 N   0  0  0  0  0  0  0  0  0  0  0  0
  -19.7053  -30.0575   16.7859 N   0  3  0  0  0  0  0  0  0  0  0  0
  -22.8382  -11.2008   17.1841 O   0  0  0  0  0  0  0  0  0  0  0  0
  -24.3790  -29.5678   23.7221 O   0  0  0  0  0  0  0  0  0  0  0  0
  -21.8972  -31.8285   22.0118 O   0  0  0  0  0  0  0  0  0  0  0  0
  -27.9097  -23.0850   19.2274 O   0  0  0  0  0  0  0  0  0  0  0  0
  -20.5739  -28.4650   18.9367 O   0  0  0  0  0  0  0  0  0  0  0  0
  -30.0827  -16.9021   20.5879 O   0  0  0  0  0  0  0  0  0  0  0  0
  -22.6180   -7.8522   24.2073 O   0  0  0  0  0  0  0  0  0  0  0  0
  -25.3649  -17.7154   22.1954 O   0  0  0  0  0  0  0  0  0  0  0  0
  -26.6856  -25.4696   19.0973 O   0  0  0  0  0  0  0  0  0  1  0  0
  -20.8314   -2.8748   22.6460 F   0  0  0  0  0  0  0  0  0  0  0  0
  -23.6874   -5.5522   25.3068 F   0  0  0  0  0  0  0  0  0  0  0  0
  1  2  1  0  0  0  0
  1  5  2  0  0  0  0
  2  6  2  0  0  0  0
  3 10  2  0  0  0  0
  3 18  1  0  0  0  0
  4 11  1  0  0  0  0
  4 18  2  0  0  0  0
  5 20  1  0  0  0  0
  6 22  1  0  0  0  0
  7 12  2  0  0  0  0
  7 21  1  0  0  0  0
  8  9  2  0  0  0  0
  8 24  1  0  0  0  0
  9 25  1  0  0  0  0
 10 26  1  0  0  0  0
 11 26  2  0  0  0  0
 12 27  1  0  0  0  0
 13 14  2  0  0  0  0
 13 28  1  0  0  0  0
 14 30  1  0  0  0  0
 15 23  1  0  0  0  0
 15 27  2  0  0  0  0
 16 24  2  0  0  0  0
 16 29  1  0  0  0  0
 17 30  2  0  0  0  0
 17 31  1  0  0  0  0
 18 32  1  0  0  0  0
 19 32  1  0  0  0  0
 19 33  2  0  0  0  0
 19 34  1  0  0  0  0
 20 22  2  0  0  0  0
 20 40  1  0  0  0  0
 21 23  2  0  0  0  0
 21 41  1  0  0  0  0
 22 49  1  0  0  0  0
 23 42  1  0  0  0  0
 24 68  1  0  0  0  0
 25 29  2  0  0  0  0
 25 69  1  0  0  0  0
 26 79  1  0  0  0  0
 27 81  1  0  0  0  0
 28 31  2  0  0  0  0
 28 79  1  0  0  0  0
 29 80  1  0  0  0  0
 30 82  1  0  0  0  0
 31 83  1  0  0  0  0
 32 62  2  0  0  0  0
 33 63  1  0  0  0  0
 33 66  1  0  0  0  0
 34 67  1  0  0  0  0
 34 73  2  0  0  0  0
 35 50  1  0  0  0  0
 35 70  1  0  0  0  0
 35 74  2  0  0  0  0
 36 59  1  0  0  0  0
 36 64  1  0  0  0  0
 36 75  2  0  0  0  0
 37 58  1  0  0  0  0
 37 68  1  0  0  0  0
 37 76  2  0  0  0  0
 38 60  1  0  0  0  0
 38 71  1  0  0  0  0
 38 77  2  0  0  0  0
 39 65  1  0  0  0  0
 39 69  1  0  0  0  0
 39 78  2  0  0  0  0
 40 43  1  0  0  0  0
 41 50  1  0  0  0  0
 42 64  1  0  0  0  0
 43 45  1  0  0  0  0
 44 46  1  0  0  0  0
 44 47  1  0  0  0  0
 45 49  1  0  0  0  0
 46 51  1  0  0  0  0
 47 65  1  0  0  0  0
 48 51  1  0  0  0  0
 48 65  1  0  0  0  0
 49 70  1  0  0  0  0
 50 64  1  0  0  0  0
 51 63  1  0  0  0  0
 52 60  1  0  0  0  0
 53 61  1  0  0  0  0
 54 61  1  0  0  0  0
 55 61  1  0  0  0  0
 56 72  1  0  0  0  0
 57 80  1  0  0  0  0
 58 81  1  0  0  0  0
 59 61  1  0  0  0  0
 59 71  1  0  0  0  0
 60 72  1  0  0  0  0
 62 63  1  0  0  0  0
M  CHG  1  72   1
M  ISO  4  39 100  58 101  69 100  81 101
M  END
> <Batch ID>
0009

> <Smiles>
CNC(C)C(=O)NC(C(=O)N1Cc2cc([101O:1][101CH2:1]C(=O)Nc3ccc([100NH:0][100C:0](=O)N4CCCC(n5nc(-c6ccc(Oc7ccc(F)cc7F)cc6)c(C(N)=O)c5N)C4)c(OC)c3)ccc2CC1C(=O)NC1CCCc2ccccc21)C(C)(C)C

> <Shape>
0.306

> <Color>
0.100

> <Negative vol penalty>
0.000

$$$$

  -OEChem-04052315383D

 84 92  0     1  0  0  0  0  0999 V2000
  -17.7718  -31.5412   20.0272 C   0  0  0  0  0  0  0  0  0  0  0  0
  -19.0695  -31.4017   19.5456 C   0  0  0  0  0  0  0  0  0  0  0  0
  -26.2487  -12.9882   19.4790 C   0  0  0  0  0  0  0  0  0  0  0  0
  -26.2259  -14.2292   21.5518 C   0  0  0  0  0  0  0  0  0  0  0  0
  -17.5087  -31.3526   21.3833 C   0  0  0  0  0  0  0  0  0  0  0  0
  -20.1051  -31.0746   20.4202 C   0  0  0  0  0  0  0  0  0  0  0  0
  -24.9945  -27.5950   19.1987 C   0  0  0  0  0  0  0  0  0  0  0  0
  -25.7947  -11.8545   20.1528 C   0  0  0  0  0  0  0  0  0  0  0  0
  -25.7718  -13.0954   22.2256 C   0  0  0  0  0  0  0  0  0  0  0  0
  -26.3085  -27.9108   18.8561 C   0  0  0  0  0  0  0  0  0  0  0  0
  -24.2971   -8.7337   21.2632 C   0  0  0  0  0  0  0  0  0  0  0  0
  -23.2697   -7.9970   20.6738 C   0  0  0  0  0  0  0  0  0  0  0  0
  -26.9577  -27.6922   21.1691 C   0  0  0  0  0  0  0  0  0  0  0  0
  -31.8121  -23.1701   18.4751 C   0  0  0  0  0  0  0  0  0  0  0  0
  -29.4582  -24.6240   18.8328 C   0  0  0  0  0  0  0  0  0  0  0  0
  -21.8314   -9.9365   20.7568 C   0  0  0  0  0  0  0  0  0  0  0  0
  -26.4644  -14.1756   20.1786 C   0  0  0  0  0  0  0  0  0  0  0  0
  -26.1502  -16.3466   18.8763 C   0  0  0  0  0  0  0  0  0  0  0  0
  -18.5399  -31.0135   22.2733 C   0  0  0  0  0  0  0  0  0  0  0  0
  -24.6495  -27.3357   20.5329 C   0  0  0  0  0  0  0  0  0  0  0  0
  -19.8558  -30.8826   21.7897 C   0  0  0  0  0  0  0  0  0  0  0  0
  -25.6391  -27.3708   21.5256 C   0  0  0  0  0  0  0  0  0  0  0  0
  -31.8194  -24.5569   18.3256 C   0  0  0  0  0  0  0  0  0  0  0  0
  -30.6278  -22.5102   18.8035 C   0  0  0  0  0  0  0  0  0  0  0  0
  -30.6424  -25.2838   18.5044 C   0  0  0  0  0  0  0  0  0  0  0  0
  -25.5562  -11.9080   21.5261 C   0  0  0  0  0  0  0  0  0  0  0  0
  -27.2898  -27.9623   19.8418 C   0  0  0  0  0  0  0  0  0  0  0  0
  -24.0916  -10.0718   21.5995 C   0  0  0  0  0  0  0  0  0  0  0  0
  -29.4509  -23.2372   18.9823 C   0  0  0  0  0  0  0  0  0  0  0  0
  -22.0369   -8.5984   20.4206 C   0  0  0  0  0  0  0  0  0  0  0  0
  -22.8588  -10.6732   21.3462 C   0  0  0  0  0  0  0  0  0  0  0  0
  -26.9340  -15.3470   19.4832 C   0  0  0  0  0  0  0  0  0  0  0  0
  -27.0637  -17.2314   18.3576 C   0  0  0  0  0  0  0  0  0  0  0  0
  -24.7240  -16.4648   18.7893 C   0  0  0  0  0  0  0  0  0  0  0  0
  -22.7012  -28.6878   22.6495 C   0  0  0  0  0  0  0  0  0  0  0  0
  -23.5272  -26.1276   24.4621 C   0  0  0  0  0  0  0  0  0  0  0  0
  -25.7925  -23.6664   25.1383 C   0  0  0  0  0  0  0  0  0  0  0  0
  -31.7256  -20.2428   18.8068 C   0  0  0  0  0  0  0  0  0  0  0  0
  -18.2150  -30.8660   23.7387 C   0  0  0  0  0  0  0  0  0  0  0  0
  -23.2328  -26.9703   20.8821 C   0  0  0  0  0  0  0  0  0  0  0  0
  -25.3244  -27.0806   22.9697 C   0  0  0  0  0  0  0  0  0  0  0  0
  -19.3047  -30.1534   24.5355 C   0  0  0  0  0  0  0  0  0  0  0  0
  -32.0807  -16.8435   17.8090 C   0  0  0  0  0  0  0  0  0  0  0  0
  -20.6777  -30.7189   24.1863 C   0  0  0  0  0  0  0  0  0  0  0  0
  -30.7089  -16.2333   18.1057 C   0  0  0  0  0  0  0  0  0  0  0  0
  -32.4816  -17.8762   18.8609 C   0  0  0  0  0  0  0  0  0  0  0  0
  -30.1194  -18.3231   19.3989 C   0  0  0  0  0  0  0  0  0  0  0  0
  -21.0017  -30.5042   22.7029 C   0  0  1  0  0  0  0  0  0  0  0  0
  -22.8928  -27.2286   22.3467 C   0  0  1  0  0  0  0  0  0  0  0  0
  -29.6437  -17.3243   18.3312 C   0  0  2  0  0  0  0  0  0  0  0  0
  -26.2101  -21.7490   26.7025 C   0  0  0  0  0  0  0  0  0  0  0  0
  -24.3106  -28.0942   26.6596 C   0  0  0  0  0  0  0  0  0  0  0  0
  -25.5717  -26.2399   27.7730 C   0  0  0  0  0  0  0  0  0  0  0  0
  -23.1031  -26.0574   27.4644 C   0  0  0  0  0  0  0  0  0  0  0  0
  -30.3521  -27.2776   17.0551 C   0  0  0  0  0  0  0  0  0  0  0  0
  -25.8044  -21.7076   22.9197 C   0  0  0  0  0  0  0  0  0  0  0  0
  -27.1305  -23.4356   19.4644 C   0  0  0  0  0  0  0  0  0  0  0  0
  -30.8694  -27.5525   19.4852 C   0  0  0  0  0  0  0  0  0  0  0  0
  -29.6061  -27.7047   20.3157 C   0  0  0  0  0  0  0  0  0  1  0  0
  -24.6232  -25.8310   25.4569 C   0  0  1  0  0  0  0  0  0  0  0  0
  -25.6219  -22.1753   25.3665 C   0  0  2  0  0  0  0  0  0  0  0  0
  -24.4080  -26.5630   26.8116 C   0  0  0  0  0  0  0  0  0  0  0  0
  -28.2445  -15.5747   19.3619 N   0  0  0  0  0  0  0  0  0  0  0  0
  -28.2913  -16.7275   18.6728 N   0  0  0  0  0  0  0  0  0  0  0  0
  -23.9235  -26.7343   23.2619 N   0  0  0  0  0  0  0  0  0  0  0  0
  -31.4267  -18.8800   19.0175 N   0  0  0  0  0  0  0  0  0  0  0  0
  -33.0293  -25.2049   17.9902 N   0  0  0  0  0  0  0  0  0  0  0  0
  -26.9286  -18.3836   17.6672 N   0  0  0  0  0  0  0  0  0  0  0  0
  -23.9338  -15.4674   19.3769 N   0  0  0  0  0  0  0  0  0  0  0  0
  -30.6362  -21.1011   18.9522 N   0  0  0  0  0  0  0  0  0  0  0  0
  -21.4065  -29.1350   22.4670 N   0  0  0  0  0  0  0  0  0  0  0  0
  -24.6921  -24.3779   25.5672 N   0  0  0  0  0  0  0  0  0  0  0  0
  -30.6284  -26.6776   18.3607 N   0  0  3  0  0  0  0  0  0  0  0  0
  -26.3012  -21.4049   24.2866 N   0  3  0  0  0  0  0  0  0  0  0  0
  -24.1669  -17.4178   18.1936 O   0  0  0  0  0  0  0  0  0  0  0  0
  -23.6569  -29.3580   23.0225 O   0  0  0  0  0  0  0  0  0  0  0  0
  -22.3632  -25.8254   24.7368 O   0  0  0  0  0  0  0  0  0  0  0  0
  -26.8026  -24.1517   24.6337 O   0  0  0  0  0  0  0  0  0  0  0  0
  -32.8580  -20.6177   18.4920 O   0  0  0  0  0  0  0  0  0  0  0  0
  -25.1129  -10.8020   22.1838 O   0  0  0  0  0  0  0  0  0  0  0  0
  -28.2825  -22.6115   19.3011 O   0  0  0  0  0  0  0  0  0  0  0  0
  -28.5730  -28.2709   19.5103 O   0  0  0  0  0  0  0  0  0  1  0  0
  -21.0508   -7.8914   19.8531 F   0  0  0  0  0  0  0  0  0  0  0  0
  -22.6559  -11.9586   21.6660 F   0  0  0  0  0  0  0  0  0  0  0  0
  1  2  1  0  0  0  0
  1  5  2  0  0  0  0
  2  6  2  0  0  0  0
  3  8  2  0  0  0  0
  3 17  1  0  0  0  0
  4  9  1  0  0  0  0
  4 17  2  0  0  0  0
  5 19  1  0  0  0  0
  6 21  1  0  0  0  0
  7 10  2  0  0  0  0
  7 20  1  0  0  0  0
  8 26  1  0  0  0  0
  9 26  2  0  0  0  0
 10 27  1  0  0  0  0
 11 12  2  0  0  0  0
 11 28  1  0  0  0  0
 12 30  1  0  0  0  0
 13 22  1  0  0  0  0
 13 27  2  0  0  0  0
 14 23  1  0  0  0  0
 14 24  2  0  0  0  0
 15 25  1  0  0  0  0
 15 29  2  0  0  0  0
 16 30  2  0  0  0  0
 16 31  1  0  0  0  0
 17 32  1  0  0  0  0
 18 32  1  0  0  0  0
 18 33  2  0  0  0  0
 18 34  1  0  0  0  0
 19 21  2  0  0  0  0
 19 39  1  0  0  0  0
 20 22  2  0  0  0  0
 20 40  1  0  0  0  0
 21 48  1  0  0  0  0
 22 41  1  0  0  0  0
 23 25  2  0  0  0  0
 23 67  1  0  0  0  0
 24 29  1  0  0  0  0
 24 70  1  0  0  0  0
 25 73  1  0  0  0  0
 26 80  1  0  0  0  0
 27 82  1  0  0  0  0
 28 31  2  0  0  0  0
 28 80  1  0  0  0  0
 29 81  1  0  0  0  0
 30 83  1  0  0  0  0
 31 84  1  0  0  0  0
 32 63  2  0  0  0  0
 33 64  1  0  0  0  0
 33 68  1  0  0  0  0
 34 69  1  0  0  0  0
 34 75  2  0  0  0  0
 35 49  1  0  0  0  0
 35 71  1  0  0  0  0
 35 76  2  0  0  0  0
 36 60  1  0  0  0  0
 36 65  1  0  0  0  0
 36 77  2  0  0  0  0
 37 61  1  0  0  0  0
 37 72  1  0  0  0  0
 37 78  2  0  0  0  0
 38 66  1  0  0  0  0
 38 70  1  0  0  0  0
 38 79  2  0  0  0  0
 39 42  1  0  0  0  0
 40 49  1  0  0  0  0
 41 65  1  0  0  0  0
 42 44  1  0  0  0  0
 43 45  1  0  0  0  0
 43 46  1  0  0  0  0
 44 48  1  0  0  0  0
 45 50  1  0  0  0  0
 46 66  1  0  0  0  0
 47 50  1  0  0  0  0
 47 66  1  0  0  0  0
 48 71  1  0  0  0  0
 49 65  1  0  0  0  0
 50 64  1  0  0  0  0
 51 61  1  0  0  0  0
 52 62  1  0  0  0  0
 53 62  1  0  0  0  0
 54 62  1  0  0  0  0
 55 73  1  0  0  0  0
 56 74  1  0  0  0  0
 57 81  1  0  0  0  0
 58 59  1  0  0  0  0
 58 73  1  0  0  0  0
 59 82  1  0  0  0  0
 60 62  1  0  0  0  0
 60 72  1  0  0  0  0
 61 74  1  0  0  0  0
 63 64  1  0  0  0  0
M  CHG  1  74   1
M  ISO  4  38 100  59 101  70 100  82 101
M  END
> <Batch ID>
0009

> <Smiles>
CNC(C)C(=O)NC(C(=O)N1Cc2cc([101O:1][101CH2:1]CN(C)c3cc(OC)c([100NH:0][100C:0](=O)N4CCCC(n5nc(-c6ccc(Oc7ccc(F)cc7F)cc6)c(C(N)=O)c5N)C4)cc3N)ccc2CC1C(=O)NC1CCCc2ccccc21)C(C)(C)C

> <Shape>
0.214

> <Color>
0.081

> <Negative vol penalty>
0.000

$$$$

  -OEChem-04052315383D

 81 88  0     1  0  0  0  0  0999 V2000
  -19.1127  -32.0557   21.3582 C   0  0  0  0  0  0  0  0  0  0  0  0
  -20.3725  -31.5002   21.5571 C   0  0  0  0  0  0  0  0  0  0  0  0
  -28.8609  -17.6936   19.6625 C   0  0  0  0  0  0  0  0  0  0  0  0
  -30.7779  -18.0737   21.0830 C   0  0  0  0  0  0  0  0  0  0  0  0
  -17.9807  -31.4077   21.8507 C   0  0  0  0  0  0  0  0  0  0  0  0
  -20.5012  -30.2968   22.2497 C   0  0  0  0  0  0  0  0  0  0  0  0
  -23.6929  -27.0832   19.9845 C   0  0  0  0  0  0  0  0  0  0  0  0
  -29.3246  -16.4087   19.3804 C   0  0  0  0  0  0  0  0  0  0  0  0
  -31.2416  -16.7887   20.8010 C   0  0  0  0  0  0  0  0  0  0  0  0
  -25.0571  -27.3170   20.1517 C   0  0  0  0  0  0  0  0  0  0  0  0
  -29.8179  -12.8990   18.5718 C   0  0  0  0  0  0  0  0  0  0  0  0
  -28.8952  -11.8536   18.6097 C   0  0  0  0  0  0  0  0  0  0  0  0
  -25.1343  -25.6116   21.8561 C   0  0  0  0  0  0  0  0  0  0  0  0
  -28.4403  -12.3392   20.9323 C   0  0  0  0  0  0  0  0  0  0  0  0
  -29.5875  -18.5261   20.5137 C   0  0  0  0  0  0  0  0  0  0  0  0
  -28.2548  -20.2380   21.8557 C   0  0  0  0  0  0  0  0  0  0  0  0
  -18.0947  -30.1908   22.5413 C   0  0  0  0  0  0  0  0  0  0  0  0
  -23.0358  -26.1179   20.7608 C   0  0  0  0  0  0  0  0  0  0  0  0
  -19.3697  -29.6325   22.7531 C   0  0  0  0  0  0  0  0  0  0  0  0
  -23.7622  -25.3657   21.6950 C   0  0  0  0  0  0  0  0  0  0  0  0
  -30.5150  -15.9562   19.9497 C   0  0  0  0  0  0  0  0  0  0  0  0
  -25.7775  -26.5832   21.0896 C   0  0  0  0  0  0  0  0  0  0  0  0
  -30.0519  -13.6644   19.7142 C   0  0  0  0  0  0  0  0  0  0  0  0
  -28.2063  -11.5738   19.7899 C   0  0  0  0  0  0  0  0  0  0  0  0
  -29.3631  -13.3846   20.8944 C   0  0  0  0  0  0  0  0  0  0  0  0
  -29.1093  -19.8537   20.8050 C   0  0  0  0  0  0  0  0  0  0  0  0
  -28.1042  -21.5940   21.6974 C   0  0  0  0  0  0  0  0  0  0  0  0
  -27.6511  -19.4405   22.8830 C   0  0  0  0  0  0  0  0  0  0  0  0
  -20.6706  -26.1766   22.8836 C   0  0  0  0  0  0  0  0  0  0  0  0
  -20.9880  -22.9513   22.7450 C   0  0  0  0  0  0  0  0  0  0  0  0
  -28.8275  -27.5030   22.7873 C   0  0  0  0  0  0  0  0  0  0  0  0
  -22.9750  -20.2624   22.0608 C   0  0  0  0  0  0  0  0  0  0  0  0
  -31.5039  -25.8016   19.1305 C   0  0  0  0  0  0  0  0  0  0  0  0
  -16.8465  -29.5513   23.0962 C   0  0  0  0  0  0  0  0  0  0  0  0
  -21.5692  -25.8591   20.5496 C   0  0  0  0  0  0  0  0  0  0  0  0
  -23.1078  -24.3037   22.5391 C   0  0  0  0  0  0  0  0  0  0  0  0
  -17.0361  -28.0897   23.4935 C   0  0  0  0  0  0  0  0  0  0  0  0
  -28.1283  -24.9967   18.3342 C   0  0  0  0  0  0  0  0  0  0  0  0
  -18.3179  -27.9183   24.3025 C   0  0  0  0  0  0  0  0  0  0  0  0
  -27.9198  -23.6220   18.9719 C   0  0  0  0  0  0  0  0  0  0  0  0
  -29.5392  -25.1491   17.7701 C   0  0  0  0  0  0  0  0  0  0  0  0
  -30.4149  -23.4875   19.3657 C   0  0  0  0  0  0  0  0  0  0  0  0
  -19.5480  -28.3161   23.4779 C   0  0  1  0  0  0  0  0  0  0  0  0
  -20.8972  -25.2101   21.7556 C   0  0  1  0  0  0  0  0  0  0  0  0
  -29.0245  -23.3068   19.9984 C   0  0  2  0  0  0  0  0  0  0  0  0
  -22.9684  -17.7530   22.0780 C   0  0  0  0  0  0  0  0  0  0  0  0
  -21.2699  -22.9739   25.7831 C   0  0  0  0  0  0  0  0  0  0  0  0
  -22.1908  -20.6499   25.6453 C   0  0  0  0  0  0  0  0  0  0  0  0
  -19.8625  -21.1144   24.8798 C   0  0  0  0  0  0  0  0  0  0  0  0
  -29.0816  -26.4648   25.0478 C   0  0  0  0  0  0  0  0  0  0  0  0
  -23.4707  -20.1254   19.1463 C   0  0  0  0  0  0  0  0  0  0  0  0
  -27.6503  -26.5794   22.5555 C   0  0  0  0  0  0  0  0  0  1  0  0
  -32.0420  -27.3152   22.4322 C   0  0  0  0  0  0  0  0  0  0  0  0
  -33.3559  -26.6187   22.0642 C   0  0  0  0  0  0  0  0  0  0  0  0
  -31.9663  -27.5948   23.9365 C   0  0  0  0  0  0  0  0  0  0  0  0
  -33.4574  -26.3134   20.5730 C   0  0  0  0  0  0  0  0  0  0  0  0
  -30.6438  -28.2354   24.3461 C   0  0  0  0  0  0  0  0  0  0  0  0
  -21.8102  -21.9251   23.4866 C   0  0  1  0  0  0  0  0  0  0  0  0
  -22.7231  -19.0043   21.2494 C   0  0  2  0  0  0  0  0  0  0  0  0
  -21.2956  -21.6871   24.9343 C   0  0  0  0  0  0  0  0  0  0  0  0
  -29.4758  -20.8824   20.0360 N   0  0  0  0  0  0  0  0  0  0  0  0
  -28.8485  -21.9265   20.6040 N   0  0  0  0  0  0  0  0  0  0  0  0
  -21.6706  -24.0923   22.3000 N   0  0  0  0  0  0  0  0  0  0  0  0
  -30.5394  -24.8375   18.7941 N   0  0  0  0  0  0  0  0  0  0  0  0
  -27.4091  -22.5224   22.3883 N   0  0  0  0  0  0  0  0  0  0  0  0
  -27.9112  -18.0634   22.8993 N   0  0  0  0  0  0  0  0  0  0  0  0
  -19.8912  -27.2657   22.5433 N   0  0  0  0  0  0  0  0  0  0  0  0
  -21.8197  -20.7289   22.6516 N   0  0  0  0  0  0  0  0  0  0  0  0
  -32.4104  -25.4276   20.1149 N   0  0  0  0  0  0  0  0  0  0  0  0
  -29.4903  -27.4045   24.0111 N   0  0  0  0  0  0  0  0  0  0  0  0
  -23.6225  -18.9653   20.0617 N   0  3  0  0  0  0  0  0  0  0  0  0
  -26.8901  -19.9318   23.7507 O   0  0  0  0  0  0  0  0  0  0  0  0
  -21.1650  -25.9501   23.9818 O   0  0  0  0  0  0  0  0  0  0  0  0
  -19.7858  -22.7447   22.5610 O   0  0  0  0  0  0  0  0  0  0  0  0
  -29.1505  -28.2886   21.8910 O   0  0  0  0  0  0  0  0  0  0  0  0
  -24.0861  -20.7775   22.1635 O   0  0  0  0  0  0  0  0  0  0  0  0
  -31.5501  -26.9154   18.5972 O   0  0  0  0  0  0  0  0  0  0  0  0
  -30.9677  -14.7024   19.6749 O   0  0  0  0  0  0  0  0  0  0  0  0
  -27.1090  -26.8098   21.2553 O   0  0  0  0  0  0  0  0  0  1  0  0
  -27.3191  -10.5709   19.8256 F   0  0  0  0  0  0  0  0  0  0  0  0
  -29.5827  -14.1172   21.9948 F   0  0  0  0  0  0  0  0  0  0  0  0
  1  2  1  0  0  0  0
  1  5  2  0  0  0  0
  2  6  2  0  0  0  0
  3  8  2  0  0  0  0
  3 15  1  0  0  0  0
  4  9  1  0  0  0  0
  4 15  2  0  0  0  0
  5 17  1  0  0  0  0
  6 19  1  0  0  0  0
  7 10  2  0  0  0  0
  7 18  1  0  0  0  0
  8 21  1  0  0  0  0
  9 21  2  0  0  0  0
 10 22  1  0  0  0  0
 11 12  2  0  0  0  0
 11 23  1  0  0  0  0
 12 24  1  0  0  0  0
 13 20  1  0  0  0  0
 13 22  2  0  0  0  0
 14 24  2  0  0  0  0
 14 25  1  0  0  0  0
 15 26  1  0  0  0  0
 16 26  1  0  0  0  0
 16 27  2  0  0  0  0
 16 28  1  0  0  0  0
 17 19  2  0  0  0  0
 17 34  1  0  0  0  0
 18 20  2  0  0  0  0
 18 35  1  0  0  0  0
 19 43  1  0  0  0  0
 20 36  1  0  0  0  0
 21 78  1  0  0  0  0
 22 79  1  0  0  0  0
 23 25  2  0  0  0  0
 23 78  1  0  0  0  0
 24 80  1  0  0  0  0
 25 81  1  0  0  0  0
 26 61  2  0  0  0  0
 27 62  1  0  0  0  0
 27 65  1  0  0  0  0
 28 66  1  0  0  0  0
 28 72  2  0  0  0  0
 29 44  1  0  0  0  0
 29 67  1  0  0  0  0
 29 73  2  0  0  0  0
 30 58  1  0  0  0  0
 30 63  1  0  0  0  0
 30 74  2  0  0  0  0
 31 52  1  0  0  0  0
 31 70  1  0  0  0  0
 31 75  2  0  0  0  0
 32 59  1  0  0  0  0
 32 68  1  0  0  0  0
 32 76  2  0  0  0  0
 33 64  1  0  0  0  0
 33 69  1  0  0  0  0
 33 77  2  0  0  0  0
 34 37  1  0  0  0  0
 35 44  1  0  0  0  0
 36 63  1  0  0  0  0
 37 39  1  0  0  0  0
 38 40  1  0  0  0  0
 38 41  1  0  0  0  0
 39 43  1  0  0  0  0
 40 45  1  0  0  0  0
 41 64  1  0  0  0  0
 42 45  1  0  0  0  0
 42 64  1  0  0  0  0
 43 67  1  0  0  0  0
 44 63  1  0  0  0  0
 45 62  1  0  0  0  0
 46 59  1  0  0  0  0
 47 60  1  0  0  0  0
 48 60  1  0  0  0  0
 49 60  1  0  0  0  0
 50 70  1  0  0  0  0
 51 71  1  0  0  0  0
 52 79  1  0  0  0  0
 53 54  1  0  0  0  0
 53 55  1  0  0  0  0
 54 56  1  0  0  0  0
 55 57  1  0  0  0  0
 56 69  1  0  0  0  0
 57 70  1  0  0  0  0
 58 60  1  0  0  0  0
 58 68  1  0  0  0  0
 59 71  1  0  0  0  0
 61 62  1  0  0  0  0
M  CHG  1  71   1
M  ISO  4  33 100  52 101  69 100  79 101
M  END
> <Batch ID>
0009

> <Smiles>
CNC(C)C(=O)NC(C(=O)N1Cc2cc([101O:1][101CH2:1]C(=O)N(C)CCCCC[100NH:0][100C:0](=O)N3CCCC(n4nc(-c5ccc(Oc6ccc(F)cc6F)cc5)c(C(N)=O)c4N)C3)ccc2CC1C(=O)NC1CCCc2ccccc21)C(C)(C)C

> <Shape>
0.216

> <Color>
0.058

> <Negative vol penalty>
0.000

$$$$

  -OEChem-04052315383D

 95102  0     1  0  0  0  0  0999 V2000
  -29.8434  -31.4343   21.6651 C   0  0  0  0  0  0  0  0  0  0  0  0
  -29.4000  -30.1801   22.0723 C   0  0  0  0  0  0  0  0  0  0  0  0
  -26.5935  -12.1736   21.4321 C   0  0  0  0  0  0  0  0  0  0  0  0
  -26.0080  -13.4125   19.4423 C   0  0  0  0  0  0  0  0  0  0  0  0
  -28.9643  -32.5165   21.6634 C   0  0  0  0  0  0  0  0  0  0  0  0
  -28.0774  -30.0076   22.4791 C   0  0  0  0  0  0  0  0  0  0  0  0
  -25.9674  -25.8450   20.5129 C   0  0  0  0  0  0  0  0  0  0  0  0
  -25.3754  -11.4970   21.3692 C   0  0  0  0  0  0  0  0  0  0  0  0
  -24.7899  -12.7358   19.3794 C   0  0  0  0  0  0  0  0  0  0  0  0
  -26.2995  -24.6248   21.0999 C   0  0  0  0  0  0  0  0  0  0  0  0
  -22.1451  -12.1054   22.1563 C   0  0  0  0  0  0  0  0  0  0  0  0
  -21.4218  -11.9631   23.3404 C   0  0  0  0  0  0  0  0  0  0  0  0
  -24.2199  -24.6535   22.3220 C   0  0  0  0  0  0  0  0  0  0  0  0
  -21.5409   -9.5597   23.1243 C   0  0  0  0  0  0  0  0  0  0  0  0
  -26.9098  -13.1314   20.4686 C   0  0  0  0  0  0  0  0  0  0  0  0
  -29.3846  -13.4492   19.9373 C   0  0  0  0  0  0  0  0  0  0  0  0
  -27.6277  -32.3551   22.0611 C   0  0  0  0  0  0  0  0  0  0  0  0
  -24.7619  -26.4851   20.8349 C   0  0  0  0  0  0  0  0  0  0  0  0
  -27.1800  -31.0889   22.4840 C   0  0  0  0  0  0  0  0  0  0  0  0
  -23.8736  -25.8805   21.7358 C   0  0  0  0  0  0  0  0  0  0  0  0
  -24.4736  -11.7780   20.3429 C   0  0  0  0  0  0  0  0  0  0  0  0
  -25.4270  -24.0303   22.0068 C   0  0  0  0  0  0  0  0  0  0  0  0
  -22.5663  -10.9749   21.4561 C   0  0  0  0  0  0  0  0  0  0  0  0
  -21.1197  -10.6903   23.8244 C   0  0  0  0  0  0  0  0  0  0  0  0
  -22.2642   -9.7020   21.9401 C   0  0  0  0  0  0  0  0  0  0  0  0
  -28.1677  -13.8311   20.5334 C   0  0  0  0  0  0  0  0  0  0  0  0
  -30.2670  -14.4397   20.2934 C   0  0  0  0  0  0  0  0  0  0  0  0
  -29.6899  -12.3018   19.1337 C   0  0  0  0  0  0  0  0  0  0  0  0
  -23.9841  -29.2603   22.1753 C   0  0  0  0  0  0  0  0  0  0  0  0
  -20.9705  -28.3473   21.3961 C   0  0  0  0  0  0  0  0  0  0  0  0
  -31.0225  -24.7960   17.7010 C   0  0  0  0  0  0  0  0  0  0  0  0
  -31.2978  -22.7310   21.0753 C   0  0  0  0  0  0  0  0  0  0  0  0
  -25.1213  -20.5242   22.8921 C   0  0  0  0  0  0  0  0  0  0  0  0
  -18.8038  -25.8062   20.6922 C   0  0  0  0  0  0  0  0  0  0  0  0
  -29.4503  -20.1125   21.7103 C   0  0  0  0  0  0  0  0  0  0  0  0
  -26.7270  -33.5645   22.0875 C   0  0  0  0  0  0  0  0  0  0  0  0
  -24.4062  -27.7879   20.1728 C   0  0  0  0  0  0  0  0  0  0  0  0
  -22.5579  -26.5168   22.0997 C   0  0  0  0  0  0  0  0  0  0  0  0
  -25.2432  -33.2171   22.1765 C   0  0  0  0  0  0  0  0  0  0  0  0
  -31.1138  -17.6335   23.7560 C   0  0  0  0  0  0  0  0  0  0  0  0
  -25.0066  -32.1565   23.2470 C   0  0  0  0  0  0  0  0  0  0  0  0
  -30.6541  -16.3338   23.0930 C   0  0  0  0  0  0  0  0  0  0  0  0
  -29.9979  -18.6741   23.7655 C   0  0  0  0  0  0  0  0  0  0  0  0
  -28.9685  -17.6818   21.7582 C   0  0  0  0  0  0  0  0  0  0  0  0
  -25.7462  -30.8565   22.9087 C   0  0  1  0  0  0  0  0  0  0  0  0
  -23.3867  -28.6015   20.9641 C   0  0  1  0  0  0  0  0  0  0  0  0
  -30.0591  -16.5970   21.6969 C   0  0  2  0  0  0  0  0  0  0  0  0
  -16.3972  -25.3677   20.1326 C   0  0  0  0  0  0  0  0  0  0  0  0
  -20.2102  -28.8086   24.3149 C   0  0  0  0  0  0  0  0  0  0  0  0
  -18.1267  -27.4809   23.9094 C   0  0  0  0  0  0  0  0  0  0  0  0
  -18.5147  -29.6031   22.6571 C   0  0  0  0  0  0  0  0  0  0  0  0
  -19.5089  -24.6118   18.0778 C   0  0  0  0  0  0  0  0  0  0  0  0
  -32.2592  -24.1101   18.2530 C   0  0  0  0  0  0  0  0  0  0  0  0
  -29.9888  -22.5327   21.8094 C   0  0  0  0  0  0  0  0  0  0  0  0
  -24.6855  -21.9731   22.9416 C   0  0  0  0  0  0  0  0  0  1  0  0
  -25.1872  -19.9327   18.0160 C   0  0  0  0  0  0  0  0  0  0  0  0
  -26.5287  -20.3993   17.4437 C   0  0  0  0  0  0  0  0  0  0  0  0
  -25.1052  -18.4056   18.0613 C   0  0  0  0  0  0  0  0  0  0  0  0
  -26.5952  -21.9261   17.3638 C   0  0  0  0  0  0  0  0  0  0  0  0
  -23.7783  -17.8823   18.6195 C   0  0  0  0  0  0  0  0  0  0  0  0
  -27.8893  -22.4468   16.7312 C   0  0  0  0  0  0  0  0  0  0  0  0
  -23.4692  -18.2587   20.0718 C   0  0  0  0  0  0  0  0  0  0  0  0
  -27.9644  -23.9761   16.6734 C   0  0  0  0  0  0  0  0  0  0  0  0
  -24.5542  -17.8246   21.0580 C   0  0  0  0  0  0  0  0  0  0  0  0
  -32.5022  -24.4384   19.7197 C   0  0  0  0  0  0  0  0  0  0  0  0
  -29.2389  -24.4720   15.9962 C   0  0  0  0  0  0  0  0  0  0  0  0
  -24.2078  -18.2478   22.4812 C   0  0  0  0  0  0  0  0  0  0  0  0
  -19.8823  -27.5562   22.0810 C   0  0  1  0  0  0  0  0  0  0  0  0
  -17.7890  -25.6275   19.5775 C   0  0  2  0  0  0  0  0  0  0  0  0
  -19.2091  -28.3509   23.2354 C   0  0  0  0  0  0  0  0  0  0  0  0
  -28.2647  -14.9749   21.2164 N   0  0  0  0  0  0  0  0  0  0  0  0
  -29.5530  -15.3202   21.0518 N   0  0  0  0  0  0  0  0  0  0  0  0
  -22.2581  -27.7935   21.4305 N   0  0  0  0  0  0  0  0  0  0  0  0
  -29.4882  -18.8917   22.4043 N   0  0  0  0  0  0  0  0  0  0  0  0
  -31.5763  -14.6346   20.0286 N   0  0  0  0  0  0  0  0  0  0  0  0
  -28.6661  -11.3834   18.8640 N   0  0  0  0  0  0  0  0  0  0  0  0
  -25.0299  -30.1176   21.8911 N   0  0  0  0  0  0  0  0  0  0  0  0
  -30.4259  -24.0514   16.6881 N   0  0  0  0  0  0  0  0  0  0  0  0
  -31.3796  -23.9975   20.5111 N   0  0  0  0  0  0  0  0  0  0  0  0
  -24.0645  -19.6739   22.5882 N   0  0  0  0  0  0  0  0  0  0  0  0
  -18.9622  -27.1335   21.0307 N   0  0  0  0  0  0  0  0  0  0  0  0
  -29.9551  -21.2110   22.3952 N   0  0  0  0  0  0  0  0  0  0  0  0
  -18.1706  -24.4782   18.7089 N   0  3  0  0  0  0  0  0  0  0  0  0
  -30.8406  -12.0886   18.6821 O   0  0  0  0  0  0  0  0  0  0  0  0
  -23.5288  -29.0105   23.2852 O   0  0  0  0  0  0  0  0  0  0  0  0
  -20.6871  -29.4136   20.8445 O   0  0  0  0  0  0  0  0  0  0  0  0
  -30.6129  -25.8775   18.1139 O   0  0  0  0  0  0  0  0  0  0  0  0
  -32.1514  -21.8540   20.9709 O   0  0  0  0  0  0  0  0  0  0  0  0
  -26.2787  -20.1710   23.1015 O   0  0  0  0  0  0  0  0  0  0  0  0
  -19.3940  -24.8625   21.2133 O   0  0  0  0  0  0  0  0  0  0  0  0
  -29.0043  -20.2152   20.5624 O   0  0  0  0  0  0  0  0  0  0  0  0
  -23.2850  -11.1178   20.2811 O   0  0  0  0  0  0  0  0  0  0  0  0
  -25.7524  -22.8272   22.5876 O   0  0  0  0  0  0  0  0  0  1  0  0
  -20.4264  -10.5538   24.9624 F   0  0  0  0  0  0  0  0  0  0  0  0
  -22.6672   -8.6122   21.2725 F   0  0  0  0  0  0  0  0  0  0  0  0
  1  2  1  0  0  0  0
  1  5  2  0  0  0  0
  2  6  2  0  0  0  0
  3  8  2  0  0  0  0
  3 15  1  0  0  0  0
  4  9  1  0  0  0  0
  4 15  2  0  0  0  0
  5 17  1  0  0  0  0
  6 19  1  0  0  0  0
  7 10  2  0  0  0  0
  7 18  1  0  0  0  0
  8 21  1  0  0  0  0
  9 21  2  0  0  0  0
 10 22  1  0  0  0  0
 11 12  2  0  0  0  0
 11 23  1  0  0  0  0
 12 24  1  0  0  0  0
 13 20  1  0  0  0  0
 13 22  2  0  0  0  0
 14 24  2  0  0  0  0
 14 25  1  0  0  0  0
 15 26  1  0  0  0  0
 16 26  1  0  0  0  0
 16 27  2  0  0  0  0
 16 28  1  0  0  0  0
 17 19  2  0  0  0  0
 17 36  1  0  0  0  0
 18 20  2  0  0  0  0
 18 37  1  0  0  0  0
 19 45  1  0  0  0  0
 20 38  1  0  0  0  0
 21 92  1  0  0  0  0
 22 93  1  0  0  0  0
 23 25  2  0  0  0  0
 23 92  1  0  0  0  0
 24 94  1  0  0  0  0
 25 95  1  0  0  0  0
 26 71  2  0  0  0  0
 27 72  1  0  0  0  0
 27 75  1  0  0  0  0
 28 76  1  0  0  0  0
 28 84  2  0  0  0  0
 29 46  1  0  0  0  0
 29 77  1  0  0  0  0
 29 85  2  0  0  0  0
 30 68  1  0  0  0  0
 30 73  1  0  0  0  0
 30 86  2  0  0  0  0
 31 53  1  0  0  0  0
 31 78  1  0  0  0  0
 31 87  2  0  0  0  0
 32 54  1  0  0  0  0
 32 79  1  0  0  0  0
 32 88  2  0  0  0  0
 33 55  1  0  0  0  0
 33 80  1  0  0  0  0
 33 89  2  0  0  0  0
 34 69  1  0  0  0  0
 34 81  1  0  0  0  0
 34 90  2  0  0  0  0
 35 74  1  0  0  0  0
 35 82  1  0  0  0  0
 35 91  2  0  0  0  0
 36 39  1  0  0  0  0
 37 46  1  0  0  0  0
 38 73  1  0  0  0  0
 39 41  1  0  0  0  0
 40 42  1  0  0  0  0
 40 43  1  0  0  0  0
 41 45  1  0  0  0  0
 42 47  1  0  0  0  0
 43 74  1  0  0  0  0
 44 47  1  0  0  0  0
 44 74  1  0  0  0  0
 45 77  1  0  0  0  0
 46 73  1  0  0  0  0
 47 72  1  0  0  0  0
 48 69  1  0  0  0  0
 49 70  1  0  0  0  0
 50 70  1  0  0  0  0
 51 70  1  0  0  0  0
 52 83  1  0  0  0  0
 53 65  1  0  0  0  0
 54 82  1  0  0  0  0
 55 93  1  0  0  0  0
 56 57  1  0  0  0  0
 56 58  1  0  0  0  0
 57 59  1  0  0  0  0
 58 60  1  0  0  0  0
 59 61  1  0  0  0  0
 60 62  1  0  0  0  0
 61 63  1  0  0  0  0
 62 64  1  0  0  0  0
 63 66  1  0  0  0  0
 64 67  1  0  0  0  0
 65 79  1  0  0  0  0
 66 78  1  0  0  0  0
 67 80  1  0  0  0  0
 68 70  1  0  0  0  0
 68 81  1  0  0  0  0
 69 83  1  0  0  0  0
 71 72  1  0  0  0  0
M  CHG  1  83   1
M  ISO  4  35 100  55 101  82 100  93 101
M  END
> <Batch ID>
0009

> <Smiles>
CNC(C)C(=O)NC(C(=O)N1Cc2cc([101O:1][101CH2:1]C(=O)NCCCCCCCCCCCNC(=O)CCNC(=O)C[100NH:0][100C:0](=O)N3CCCC(n4nc(-c5ccc(Oc6ccc(F)cc6F)cc5)c(C(N)=O)c4N)C3)ccc2CC1C(=O)NC1CCCc2ccccc21)C(C)(C)C

> <Shape>
0.273

> <Color>
0.061

> <Negative vol penalty>
0.000

$$$$

  -OEChem-04052315383D

 90 98  0     1  0  0  0  0  0999 V2000
  -16.7604  -28.7242   23.8090 C   0  0  0  0  0  0  0  0  0  0  0  0
  -17.6059  -27.6743   23.4653 C   0  0  0  0  0  0  0  0  0  0  0  0
  -29.7094  -19.7367   20.4335 C   0  0  0  0  0  0  0  0  0  0  0  0
  -27.3572  -19.6191   19.8949 C   0  0  0  0  0  0  0  0  0  0  0  0
  -17.1221  -30.0364   23.5073 C   0  0  0  0  0  0  0  0  0  0  0  0
  -18.8134  -27.9360   22.8188 C   0  0  0  0  0  0  0  0  0  0  0  0
  -22.6736  -25.3044   24.7728 C   0  0  0  0  0  0  0  0  0  0  0  0
  -29.7947  -20.9721   19.7916 C   0  0  0  0  0  0  0  0  0  0  0  0
  -27.4424  -20.8545   19.2529 C   0  0  0  0  0  0  0  0  0  0  0  0
  -22.7781  -23.9625   24.4093 C   0  0  0  0  0  0  0  0  0  0  0  0
  -29.0177  -24.1917   20.4720 C   0  0  0  0  0  0  0  0  0  0  0  0
  -29.7137  -25.2122   21.1198 C   0  0  0  0  0  0  0  0  0  0  0  0
  -24.4729  -24.5388   22.7922 C   0  0  0  0  0  0  0  0  0  0  0  0
  -22.2106  -10.7187   21.3274 C   0  0  0  0  0  0  0  0  0  0  0  0
  -24.5120   -9.6154   20.2009 C   0  0  0  0  0  0  0  0  0  0  0  0
  -31.2474  -25.3481   19.2579 C   0  0  0  0  0  0  0  0  0  0  0  0
  -28.4907  -19.0601   20.4851 C   0  0  0  0  0  0  0  0  0  0  0  0
  -28.1033  -17.5483   22.5031 C   0  0  0  0  0  0  0  0  0  0  0  0
  -18.3391  -30.3151   22.8654 C   0  0  0  0  0  0  0  0  0  0  0  0
  -23.4615  -26.2767   24.1401 C   0  0  0  0  0  0  0  0  0  0  0  0
  -19.1912  -29.2531   22.5071 C   0  0  0  0  0  0  0  0  0  0  0  0
  -24.3783  -25.8920   23.1513 C   0  0  0  0  0  0  0  0  0  0  0  0
  -22.2495   -9.3612   21.0094 C   0  0  0  0  0  0  0  0  0  0  0  0
  -23.4001   -8.8095   20.4461 C   0  0  0  0  0  0  0  0  0  0  0  0
  -24.4731  -10.9730   20.5189 C   0  0  0  0  0  0  0  0  0  0  0  0
  -28.6612  -21.5310   19.2013 C   0  0  0  0  0  0  0  0  0  0  0  0
  -23.6758  -23.5799   23.4168 C   0  0  0  0  0  0  0  0  0  0  0  0
  -29.4365  -23.7493   19.2172 C   0  0  0  0  0  0  0  0  0  0  0  0
  -23.3224  -11.5247   21.0821 C   0  0  0  0  0  0  0  0  0  0  0  0
  -30.8286  -25.7904   20.5128 C   0  0  0  0  0  0  0  0  0  0  0  0
  -30.5514  -24.3275   18.6101 C   0  0  0  0  0  0  0  0  0  0  0  0
  -28.4021  -17.7837   21.1477 C   0  0  0  0  0  0  0  0  0  0  0  0
  -28.1416  -16.1813   22.6307 C   0  0  0  0  0  0  0  0  0  0  0  0
  -27.8167  -18.4819   23.5528 C   0  0  0  0  0  0  0  0  0  0  0  0
  -22.8603  -28.8415   22.3614 C   0  0  0  0  0  0  0  0  0  0  0  0
  -26.0648  -29.2812   22.6061 C   0  0  0  0  0  0  0  0  0  0  0  0
  -28.7740  -28.0249   23.6021 C   0  0  0  0  0  0  0  0  0  0  0  0
  -26.8250  -11.3751   19.7107 C   0  0  0  0  0  0  0  0  0  0  0  0
  -18.6653  -31.7459   22.5175 C   0  0  0  0  0  0  0  0  0  0  0  0
  -23.3560  -27.7164   24.5624 C   0  0  0  0  0  0  0  0  0  0  0  0
  -25.2615  -26.8943   22.4557 C   0  0  0  0  0  0  0  0  0  0  0  0
  -20.1343  -31.9678   22.1668 C   0  0  0  0  0  0  0  0  0  0  0  0
  -30.1885  -12.4953   20.0409 C   0  0  0  0  0  0  0  0  0  0  0  0
  -20.6201  -30.8938   21.1986 C   0  0  0  0  0  0  0  0  0  0  0  0
  -30.0433  -13.9503   20.4926 C   0  0  0  0  0  0  0  0  0  0  0  0
  -29.1045  -12.1016   19.0391 C   0  0  0  0  0  0  0  0  0  0  0  0
  -27.5831  -13.8232   19.9284 C   0  0  0  0  0  0  0  0  0  0  0  0
  -20.5207  -29.4986   21.8272 C   0  0  1  0  0  0  0  0  0  0  0  0
  -23.8386  -28.6901   23.4917 C   0  0  1  0  0  0  0  0  0  0  0  0
  -28.6140  -14.2469   20.9873 C   0  0  2  0  0  0  0  0  0  0  0  0
  -21.0438   -8.5216   21.2814 C   0  0  0  0  0  0  0  0  0  0  0  0
  -31.2753  -27.8819   23.7454 C   0  0  0  0  0  0  0  0  0  0  0  0
  -26.1489  -29.4438   19.5603 C   0  0  0  0  0  0  0  0  0  0  0  0
  -28.6245  -29.0901   19.6793 C   0  0  0  0  0  0  0  0  0  0  0  0
  -27.6023  -31.1063   20.7343 C   0  0  0  0  0  0  0  0  0  0  0  0
  -23.9236   -6.4706   21.0909 C   0  0  0  0  0  0  0  0  0  0  0  0
  -23.0366   -6.9790   18.8099 C   0  0  0  0  0  0  0  0  0  0  0  0
  -28.7401  -28.3509   26.5434 C   0  0  0  0  0  0  0  0  0  0  0  0
  -23.4515  -18.1653   21.7193 C   0  0  0  0  0  0  0  0  0  0  0  0
  -23.9141  -17.0199   22.6222 C   0  0  0  0  0  0  0  0  0  0  0  0
  -24.0655  -19.4979   22.1560 C   0  0  0  0  0  0  0  0  0  0  0  0
  -23.2604  -15.6764   22.2852 C   0  0  0  0  0  0  0  0  0  0  0  0
  -23.5716  -20.6513   21.2777 C   0  0  0  0  0  0  0  0  0  0  0  0
  -23.7296  -14.4820   23.1170 C   0  0  0  0  0  0  0  0  0  0  0  0
  -24.1497  -21.9933   21.7098 C   0  0  0  0  0  0  0  0  0  1  0  0
  -23.0261  -13.1769   22.7668 C   0  0  0  0  0  0  0  0  0  0  0  0
  -27.2683  -28.8417   21.8077 C   0  0  1  0  0  0  0  0  0  0  0  0
  -30.0084  -28.4193   24.3927 C   0  0  2  0  0  0  0  0  0  0  0  0
  -27.3931  -29.6016   20.4570 C   0  0  0  0  0  0  0  0  0  0  0  0
  -28.6147  -16.6566   20.4633 N   0  0  0  0  0  0  0  0  0  0  0  0
  -28.4493  -15.6998   21.3924 N   0  0  0  0  0  0  0  0  0  0  0  0
  -25.1169  -28.2907   22.8993 N   0  0  0  0  0  0  0  0  0  0  0  0
  -27.7773  -12.4076   19.5776 N   0  0  0  0  0  0  0  0  0  0  0  0
  -27.9417  -15.3563   23.6804 N   0  0  0  0  0  0  0  0  0  0  0  0
  -27.8186  -19.8501   23.2491 N   0  0  0  0  0  0  0  0  0  0  0  0
  -25.6105  -11.7787   20.2645 N   0  0  0  0  0  0  0  0  0  0  0  0
  -21.6111  -29.2829   22.7540 N   0  0  0  0  0  0  0  0  0  0  0  0
  -28.4209  -28.9955   22.6886 N   0  0  0  0  0  0  0  0  0  0  0  0
  -23.4571   -7.4371   20.1181 N   0  0  0  0  0  0  0  0  0  0  0  0
  -29.9269  -27.8843   25.7813 N   0  3  0  0  0  0  0  0  0  0  0  0
  -27.5824  -18.1145   24.7291 O   0  0  0  0  0  0  0  0  0  0  0  0
  -23.2130  -28.5789   21.2176 O   0  0  0  0  0  0  0  0  0  0  0  0
  -25.9728  -30.4585   22.9627 O   0  0  0  0  0  0  0  0  0  0  0  0
  -28.1843  -26.9605   23.7748 O   0  0  0  0  0  0  0  0  0  0  0  0
  -27.0783  -10.2126   19.3844 O   0  0  0  0  0  0  0  0  0  0  0  0
  -28.7440  -22.7366   18.5750 O   0  0  0  0  0  0  0  0  0  0  0  0
  -23.7793  -22.2709   23.0596 O   0  0  0  0  0  0  0  0  0  1  0  0
  -23.2634  -12.8557   21.4017 O   0  0  0  0  0  0  0  0  0  0  0  0
  -31.4960  -26.7715   21.1343 F   0  0  0  0  0  0  0  0  0  0  0  0
  -30.9578  -23.9075   17.4042 F   0  0  0  0  0  0  0  0  0  0  0  0
  1  2  1  0  0  0  0
  1  5  2  0  0  0  0
  2  6  2  0  0  0  0
  3  8  2  0  0  0  0
  3 17  1  0  0  0  0
  4  9  1  0  0  0  0
  4 17  2  0  0  0  0
  5 19  1  0  0  0  0
  6 21  1  0  0  0  0
  7 10  2  0  0  0  0
  7 20  1  0  0  0  0
  8 26  1  0  0  0  0
  9 26  2  0  0  0  0
 10 27  1  0  0  0  0
 11 12  2  0  0  0  0
 11 28  1  0  0  0  0
 12 30  1  0  0  0  0
 13 22  1  0  0  0  0
 13 27  2  0  0  0  0
 14 23  2  0  0  0  0
 14 29  1  0  0  0  0
 15 24  2  0  0  0  0
 15 25  1  0  0  0  0
 16 30  2  0  0  0  0
 16 31  1  0  0  0  0
 17 32  1  0  0  0  0
 18 32  1  0  0  0  0
 18 33  2  0  0  0  0
 18 34  1  0  0  0  0
 19 21  2  0  0  0  0
 19 39  1  0  0  0  0
 20 22  2  0  0  0  0
 20 40  1  0  0  0  0
 21 48  1  0  0  0  0
 22 41  1  0  0  0  0
 23 24  1  0  0  0  0
 23 51  1  0  0  0  0
 24 79  1  0  0  0  0
 25 29  2  0  0  0  0
 25 76  1  0  0  0  0
 26 86  1  0  0  0  0
 27 87  1  0  0  0  0
 28 31  2  0  0  0  0
 28 86  1  0  0  0  0
 29 88  1  0  0  0  0
 30 89  1  0  0  0  0
 31 90  1  0  0  0  0
 32 70  2  0  0  0  0
 33 71  1  0  0  0  0
 33 74  1  0  0  0  0
 34 75  1  0  0  0  0
 34 81  2  0  0  0  0
 35 49  1  0  0  0  0
 35 77  1  0  0  0  0
 35 82  2  0  0  0  0
 36 67  1  0  0  0  0
 36 72  1  0  0  0  0
 36 83  2  0  0  0  0
 37 68  1  0  0  0  0
 37 78  1  0  0  0  0
 37 84  2  0  0  0  0
 38 73  1  0  0  0  0
 38 76  1  0  0  0  0
 38 85  2  0  0  0  0
 39 42  1  0  0  0  0
 40 49  1  0  0  0  0
 41 72  1  0  0  0  0
 42 44  1  0  0  0  0
 43 45  1  0  0  0  0
 43 46  1  0  0  0  0
 44 48  1  0  0  0  0
 45 50  1  0  0  0  0
 46 73  1  0  0  0  0
 47 50  1  0  0  0  0
 47 73  1  0  0  0  0
 48 77  1  0  0  0  0
 49 72  1  0  0  0  0
 50 71  1  0  0  0  0
 52 68  1  0  0  0  0
 53 69  1  0  0  0  0
 54 69  1  0  0  0  0
 55 69  1  0  0  0  0
 56 79  1  0  0  0  0
 57 79  1  0  0  0  0
 58 80  1  0  0  0  0
 59 60  1  0  0  0  0
 59 61  1  0  0  0  0
 60 62  1  0  0  0  0
 61 63  1  0  0  0  0
 62 64  1  0  0  0  0
 63 65  1  0  0  0  0
 64 66  1  0  0  0  0
 65 87  1  0  0  0  0
 66 88  1  0  0  0  0
 67 69  1  0  0  0  0
 67 78  1  0  0  0  0
 68 80  1  0  0  0  0
 70 71  1  0  0  0  0
M  CHG  1  80   1
M  ISO  4  38 100  65 101  76 100  87 101
M  END
> <Batch ID>
0009

> <Smiles>
CNC(C)C(=O)NC(C(=O)N1Cc2cc([101O:1][101CH2:1]CCCCCCCOc3cc(C)c(N(C)C)cc3[100NH:0][100C:0](=O)N3CCCC(n4nc(-c5ccc(Oc6ccc(F)cc6F)cc5)c(C(N)=O)c4N)C3)ccc2CC1C(=O)NC1CCCc2ccccc21)C(C)(C)C

> <Shape>
0.271

> <Color>
0.065

> <Negative vol penalty>
0.000

$$$$

  -OEChem-04052315383D

 75 82  0     1  0  0  0  0  0999 V2000
  -32.6757  -26.9307   24.1935 C   0  0  0  0  0  0  0  0  0  0  0  0
  -33.2702  -25.6961   23.9527 C   0  0  0  0  0  0  0  0  0  0  0  0
  -23.1714   -9.8811   19.9137 C   0  0  0  0  0  0  0  0  0  0  0  0
  -23.5557  -10.0089   22.2955 C   0  0  0  0  0  0  0  0  0  0  0  0
  -31.2939  -27.0727   24.0744 C   0  0  0  0  0  0  0  0  0  0  0  0
  -32.4830  -24.6026   23.5938 C   0  0  0  0  0  0  0  0  0  0  0  0
  -34.0021  -20.0717   19.7637 C   0  0  0  0  0  0  0  0  0  0  0  0
  -22.3855   -8.7442   20.1014 C   0  0  0  0  0  0  0  0  0  0  0  0
  -22.7697   -8.8720   22.4833 C   0  0  0  0  0  0  0  0  0  0  0  0
  -34.4800  -18.7802   19.9813 C   0  0  0  0  0  0  0  0  0  0  0  0
  -21.1601   -5.7946   23.5550 C   0  0  0  0  0  0  0  0  0  0  0  0
  -21.6407   -4.8094   24.4175 C   0  0  0  0  0  0  0  0  0  0  0  0
  -32.2307  -17.9255   19.8106 C   0  0  0  0  0  0  0  0  0  0  0  0
  -23.5927   -4.5381   23.0199 C   0  0  0  0  0  0  0  0  0  0  0  0
  -23.7566  -10.5135   21.0107 C   0  0  0  0  0  0  0  0  0  0  0  0
  -24.1389  -13.0281   20.8149 C   0  0  0  0  0  0  0  0  0  0  0  0
  -30.4903  -25.9827   23.7044 C   0  0  0  0  0  0  0  0  0  0  0  0
  -32.6312  -20.3016   19.5785 C   0  0  0  0  0  0  0  0  0  0  0  0
  -31.0889  -24.7299   23.4710 C   0  0  0  0  0  0  0  0  0  0  0  0
  -31.7382  -19.2206   19.5883 C   0  0  0  0  0  0  0  0  0  0  0  0
  -22.1846   -8.2396   21.3862 C   0  0  0  0  0  0  0  0  0  0  0  0
  -33.5940  -17.7072   20.0076 C   0  0  0  0  0  0  0  0  0  0  0  0
  -21.8957   -6.1515   22.4248 C   0  0  0  0  0  0  0  0  0  0  0  0
  -22.8571   -4.1812   24.1500 C   0  0  0  0  0  0  0  0  0  0  0  0
  -23.1120   -5.5233   22.1573 C   0  0  0  0  0  0  0  0  0  0  0  0
  -24.5690  -11.6876   20.8173 C   0  0  0  0  0  0  0  0  0  0  0  0
  -25.2825  -13.7553   20.5922 C   0  0  0  0  0  0  0  0  0  0  0  0
  -22.8231  -13.5676   20.9979 C   0  0  0  0  0  0  0  0  0  0  0  0
  -30.4033  -21.9519   21.1331 C   0  0  0  0  0  0  0  0  0  0  0  0
  -28.5643  -21.1105   18.5969 C   0  0  0  0  0  0  0  0  0  0  0  0
  -27.9950  -18.9426   16.0234 C   0  0  0  0  0  0  0  0  0  0  0  0
  -30.8946  -12.8120   21.6977 C   0  0  0  0  0  0  0  0  0  0  0  0
  -28.9959  -26.1732   23.6345 C   0  0  0  0  0  0  0  0  0  0  0  0
  -32.1347  -21.6974   19.3183 C   0  0  0  0  0  0  0  0  0  0  0  0
  -30.2595  -19.4115   19.3746 C   0  0  0  0  0  0  0  0  0  0  0  0
  -28.2739  -25.0566   22.8848 C   0  0  0  0  0  0  0  0  0  0  0  0
  -29.5634  -13.4701   18.4935 C   0  0  0  0  0  0  0  0  0  0  0  0
  -28.7751  -23.6921   23.3473 C   0  0  0  0  0  0  0  0  0  0  0  0
  -28.0758  -13.2078   18.7242 C   0  0  0  0  0  0  0  0  0  0  0  0
  -30.4457  -12.4569   19.2251 C   0  0  0  0  0  0  0  0  0  0  0  0
  -28.6659  -12.0818   20.9026 C   0  0  0  0  0  0  0  0  0  0  0  0
  -30.2714  -23.5261   23.0554 C   0  0  1  0  0  0  0  0  0  0  0  0
  -30.6576  -21.8785   19.6540 C   0  0  1  0  0  0  0  0  0  0  0  0
  -27.7589  -13.1219   20.2273 C   0  0  2  0  0  0  0  0  0  0  0  0
  -26.3932  -18.4922   14.1448 C   0  0  0  0  0  0  0  0  0  0  0  0
  -26.5394  -20.0021   20.5923 C   0  0  0  0  0  0  0  0  0  0  0  0
  -25.4680  -18.7534   18.7052 C   0  0  0  0  0  0  0  0  0  0  0  0
  -25.5353  -21.2467   18.6695 C   0  0  0  0  0  0  0  0  0  0  0  0
  -32.9464  -11.7573   20.6572 C   0  0  0  0  0  0  0  0  0  0  0  0
  -30.1157  -19.2623   13.9840 C   0  0  0  0  0  0  0  0  0  0  0  0
  -34.0098  -14.5134   21.6426 C   0  0  0  0  0  0  0  0  0  0  0  0
  -33.1585  -13.4978   22.3926 C   0  0  0  0  0  0  0  0  0  0  0  0
  -33.1773  -15.5314   20.8726 C   0  0  0  0  0  0  0  0  0  1  0  0
  -27.6645  -19.9435   18.2691 C   0  0  1  0  0  0  0  0  0  0  0  0
  -27.6858  -19.1798   14.5562 C   0  0  2  0  0  0  0  0  0  0  0  0
  -26.3294  -19.9827   19.0650 C   0  0  0  0  0  0  0  0  0  0  0  0
  -25.8833  -11.5675   20.6121 N   0  0  0  0  0  0  0  0  0  0  0  0
  -26.2889  -12.8418   20.4787 N   0  0  0  0  0  0  0  0  0  0  0  0
  -29.8221  -20.7959   19.1303 N   0  0  0  0  0  0  0  0  0  0  0  0
  -30.0786  -12.3718   20.6452 N   0  0  0  0  0  0  0  0  0  0  0  0
  -25.5154  -15.0806   20.4843 N   0  0  0  0  0  0  0  0  0  0  0  0
  -21.7612  -12.6794   21.2161 N   0  0  0  0  0  0  0  0  0  0  0  0
  -30.4832  -23.2289   21.6549 N   0  0  0  0  0  0  0  0  0  0  0  0
  -27.4967  -19.9518   16.8199 N   0  0  0  0  0  0  0  0  0  0  0  0
  -32.2827  -12.7457   21.5051 N   0  0  0  0  0  0  0  0  0  0  0  0
  -28.7893  -18.6552   13.7029 N   0  3  0  0  0  0  0  0  0  0  0  0
  -22.5933  -14.7999   20.9523 O   0  0  0  0  0  0  0  0  0  0  0  0
  -30.1517  -20.9261   21.7545 O   0  0  0  0  0  0  0  0  0  0  0  0
  -28.1685  -22.2586   18.3806 O   0  0  0  0  0  0  0  0  0  0  0  0
  -28.6131  -17.9585   16.4232 O   0  0  0  0  0  0  0  0  0  0  0  0
  -30.4107  -13.2342   22.7559 O   0  0  0  0  0  0  0  0  0  0  0  0
  -21.4176   -7.1304   21.5699 O   0  0  0  0  0  0  0  0  0  0  0  0
  -34.0578  -16.4457   20.2205 O   0  0  0  0  0  0  0  0  0  1  0  0
  -23.3193   -3.2362   24.9792 F   0  0  0  0  0  0  0  0  0  0  0  0
  -23.8238   -5.8629   21.0738 F   0  0  0  0  0  0  0  0  0  0  0  0
  1  2  1  0  0  0  0
  1  5  2  0  0  0  0
  2  6  2  0  0  0  0
  3  8  2  0  0  0  0
  3 15  1  0  0  0  0
  4  9  1  0  0  0  0
  4 15  2  0  0  0  0
  5 17  1  0  0  0  0
  6 19  1  0  0  0  0
  7 10  2  0  0  0  0
  7 18  1  0  0  0  0
  8 21  1  0  0  0  0
  9 21  2  0  0  0  0
 10 22  1  0  0  0  0
 11 12  2  0  0  0  0
 11 23  1  0  0  0  0
 12 24  1  0  0  0  0
 13 20  1  0  0  0  0
 13 22  2  0  0  0  0
 14 24  2  0  0  0  0
 14 25  1  0  0  0  0
 15 26  1  0  0  0  0
 16 26  1  0  0  0  0
 16 27  2  0  0  0  0
 16 28  1  0  0  0  0
 17 19  2  0  0  0  0
 17 33  1  0  0  0  0
 18 20  2  0  0  0  0
 18 34  1  0  0  0  0
 19 42  1  0  0  0  0
 20 35  1  0  0  0  0
 21 72  1  0  0  0  0
 22 73  1  0  0  0  0
 23 25  2  0  0  0  0
 23 72  1  0  0  0  0
 24 74  1  0  0  0  0
 25 75  1  0  0  0  0
 26 57  2  0  0  0  0
 27 58  1  0  0  0  0
 27 61  1  0  0  0  0
 28 62  1  0  0  0  0
 28 67  2  0  0  0  0
 29 43  1  0  0  0  0
 29 63  1  0  0  0  0
 29 68  2  0  0  0  0
 30 54  1  0  0  0  0
 30 59  1  0  0  0  0
 30 69  2  0  0  0  0
 31 55  1  0  0  0  0
 31 64  1  0  0  0  0
 31 70  2  0  0  0  0
 32 60  1  0  0  0  0
 32 65  1  0  0  0  0
 32 71  2  0  0  0  0
 33 36  1  0  0  0  0
 34 43  1  0  0  0  0
 35 59  1  0  0  0  0
 36 38  1  0  0  0  0
 37 39  1  0  0  0  0
 37 40  1  0  0  0  0
 38 42  1  0  0  0  0
 39 44  1  0  0  0  0
 40 60  1  0  0  0  0
 41 44  1  0  0  0  0
 41 60  1  0  0  0  0
 42 63  1  0  0  0  0
 43 59  1  0  0  0  0
 44 58  1  0  0  0  0
 45 55  1  0  0  0  0
 46 56  1  0  0  0  0
 47 56  1  0  0  0  0
 48 56  1  0  0  0  0
 49 65  1  0  0  0  0
 50 66  1  0  0  0  0
 51 52  1  0  0  0  0
 51 53  1  0  0  0  0
 52 65  1  0  0  0  0
 53 73  1  0  0  0  0
 54 56  1  0  0  0  0
 54 64  1  0  0  0  0
 55 66  1  0  0  0  0
 57 58  1  0  0  0  0
M  CHG  1  66   1
M  ISO  4  32 100  53 101  65 100  73 101
M  END
> <Batch ID>
0009

> <Smiles>
CNC(C)C(=O)NC(C(=O)N1Cc2cc([101O:1][101CH2:1]CC[100N:0](C)[100C:0](=O)N3CCCC(n4nc(-c5ccc(Oc6ccc(F)cc6F)cc5)c(C(N)=O)c4N)C3)ccc2CC1C(=O)NC1CCCc2ccccc21)C(C)(C)C

> <Shape>
0.188

> <Color>
0.204

> <Negative vol penalty>
0.000

$$$$

  -OEChem-04052315383D

 84 92  0     1  0  0  0  0  0999 V2000
  -19.5925  -34.1504   22.5346 C   0  0  0  0  0  0  0  0  0  0  0  0
  -20.8961  -33.8380   22.1623 C   0  0  0  0  0  0  0  0  0  0  0  0
  -26.3560  -12.7482   20.3126 C   0  0  0  0  0  0  0  0  0  0  0  0
  -24.6641  -14.4721   20.3643 C   0  0  0  0  0  0  0  0  0  0  0  0
  -18.8453  -33.2410   23.2820 C   0  0  0  0  0  0  0  0  0  0  0  0
  -21.4536  -32.6164   22.5381 C   0  0  0  0  0  0  0  0  0  0  0  0
  -25.4141  -29.2312   19.3193 C   0  0  0  0  0  0  0  0  0  0  0  0
  -25.5114  -11.8979   21.0262 C   0  0  0  0  0  0  0  0  0  0  0  0
  -23.8194  -13.6218   21.0779 C   0  0  0  0  0  0  0  0  0  0  0  0
  -26.8007  -29.0986   19.3803 C   0  0  0  0  0  0  0  0  0  0  0  0
  -22.8416   -9.9248   20.3841 C   0  0  0  0  0  0  0  0  0  0  0  0
  -22.7288   -8.6056   19.9456 C   0  0  0  0  0  0  0  0  0  0  0  0
  -26.5466  -27.1471   20.7754 C   0  0  0  0  0  0  0  0  0  0  0  0
  -28.1695  -23.4504   15.2145 C   0  0  0  0  0  0  0  0  0  0  0  0
  -29.6105  -23.4650   17.6033 C   0  0  0  0  0  0  0  0  0  0  0  0
  -23.5487   -7.8259   22.0803 C   0  0  0  0  0  0  0  0  0  0  0  0
  -25.9323  -14.0354   19.9817 C   0  0  0  0  0  0  0  0  0  0  0  0
  -26.8953  -15.0458   17.8465 C   0  0  0  0  0  0  0  0  0  0  0  0
  -19.3907  -32.0036   23.6590 C   0  0  0  0  0  0  0  0  0  0  0  0
  -24.5822  -28.3277   19.9961 C   0  0  0  0  0  0  0  0  0  0  0  0
  -20.7135  -31.6902   23.2924 C   0  0  0  0  0  0  0  0  0  0  0  0
  -25.1498  -27.2690   20.7194 C   0  0  0  0  0  0  0  0  0  0  0  0
  -28.4602  -22.2491   15.8610 C   0  0  0  0  0  0  0  0  0  0  0  0
  -29.1807  -22.2564   17.0554 C   0  0  0  0  0  0  0  0  0  0  0  0
  -29.3199  -24.6663   16.9568 C   0  0  0  0  0  0  0  0  0  0  0  0
  -24.2431  -12.3346   21.4088 C   0  0  0  0  0  0  0  0  0  0  0  0
  -27.3672  -28.0581   20.1107 C   0  0  0  0  0  0  0  0  0  0  0  0
  -23.3080  -10.1947   21.6707 C   0  0  0  0  0  0  0  0  0  0  0  0
  -23.0824   -7.5561   20.7937 C   0  0  0  0  0  0  0  0  0  0  0  0
  -28.5994  -24.6590   15.7624 C   0  0  0  0  0  0  0  0  0  0  0  0
  -23.6615   -9.1453   22.5188 C   0  0  0  0  0  0  0  0  0  0  0  0
  -26.8045  -14.9145   19.2451 C   0  0  0  0  0  0  0  0  0  0  0  0
  -27.8623  -16.0019   17.6534 C   0  0  0  0  0  0  0  0  0  0  0  0
  -26.1702  -14.3646   16.8140 C   0  0  0  0  0  0  0  0  0  0  0  0
  -22.4413  -28.5681   22.3332 C   0  0  0  0  0  0  0  0  0  0  0  0
  -21.9236  -25.4389   21.6528 C   0  0  0  0  0  0  0  0  0  0  0  0
  -30.4809  -26.0796   18.6884 C   0  0  0  0  0  0  0  0  0  0  0  0
  -23.1209  -22.5208   20.3498 C   0  0  0  0  0  0  0  0  0  0  0  0
  -30.1932  -20.8975   18.9194 C   0  0  0  0  0  0  0  0  0  0  0  0
  -18.5607  -31.0727   24.5071 C   0  0  0  0  0  0  0  0  0  0  0  0
  -23.0879  -28.4688   19.8985 C   0  0  0  0  0  0  0  0  0  0  0  0
  -24.3002  -26.2604   21.4470 C   0  0  0  0  0  0  0  0  0  0  0  0
  -19.0959  -29.6436   24.5454 C   0  0  0  0  0  0  0  0  0  0  0  0
  -31.1206  -18.0963   20.9120 C   0  0  0  0  0  0  0  0  0  0  0  0
  -20.6014  -29.6437   24.7909 C   0  0  0  0  0  0  0  0  0  0  0  0
  -30.0879  -17.0296   20.5409 C   0  0  0  0  0  0  0  0  0  0  0  0
  -30.5051  -19.4941   20.9463 C   0  0  0  0  0  0  0  0  0  0  0  0
  -28.7471  -18.8163   19.3589 C   0  0  0  0  0  0  0  0  0  0  0  0
  -21.3447  -30.3648   23.6599 C   0  0  1  0  0  0  0  0  0  0  0  0
  -22.3476  -27.7938   21.0489 C   0  0  1  0  0  0  0  0  0  0  0  0
  -29.3348  -17.4000   19.2482 C   0  0  2  0  0  0  0  0  0  0  0  0
  -27.9876  -20.9696   15.2507 C   0  0  0  0  0  0  0  0  0  0  0  0
  -22.4809  -20.1244   19.9693 C   0  0  0  0  0  0  0  0  0  0  0  0
  -22.3847  -24.8487   24.6106 C   0  0  0  0  0  0  0  0  0  0  0  0
  -22.6779  -22.4355   24.0118 C   0  0  0  0  0  0  0  0  0  0  0  0
  -20.5010  -23.5720   23.5734 C   0  0  0  0  0  0  0  0  0  0  0  0
  -23.3892  -22.7941   17.4151 C   0  0  0  0  0  0  0  0  0  0  0  0
  -30.7439  -27.5630   18.9213 C   0  0  0  0  0  0  0  0  0  0  0  0
  -29.4691  -28.3834   19.0467 C   0  0  0  0  0  0  0  0  0  1  0  0
  -22.5027  -24.1303   22.1335 C   0  0  1  0  0  0  0  0  0  0  0  0
  -22.5106  -21.5257   19.3793 C   0  0  2  0  0  0  0  0  0  0  0  0
  -22.0329  -23.7666   23.5703 C   0  0  0  0  0  0  0  0  0  0  0  0
  -27.6469  -15.7224   19.8946 N   0  0  0  0  0  0  0  0  0  0  0  0
  -28.2762  -16.3704   18.8996 N   0  0  0  0  0  0  0  0  0  0  0  0
  -22.8445  -26.4446   21.3266 N   0  0  0  0  0  0  0  0  0  0  0  0
  -29.8122  -19.7768   19.6874 N   0  0  0  0  0  0  0  0  0  0  0  0
  -28.3906  -16.5547   16.5409 N   0  0  0  0  0  0  0  0  0  0  0  0
  -25.2123  -13.4121   17.1874 N   0  0  0  0  0  0  0  0  0  0  0  0
  -29.7571  -25.8915   17.5140 N   0  0  0  0  0  0  0  0  0  0  0  0
  -29.4861  -21.0465   17.7267 N   0  0  0  0  0  0  0  0  0  0  0  0
  -21.4443  -29.5110   22.4957 N   0  0  0  0  0  0  0  0  0  0  0  0
  -22.1590  -23.1360   21.1228 N   0  0  0  0  0  0  0  0  0  0  0  0
  -23.2976  -21.4865   18.1144 N   0  3  0  0  0  0  0  0  0  0  0  0
  -26.3777  -14.5818   15.5961 O   0  0  0  0  0  0  0  0  0  0  0  0
  -23.3499  -28.3268   23.1193 O   0  0  0  0  0  0  0  0  0  0  0  0
  -20.6995  -25.5619   21.5630 O   0  0  0  0  0  0  0  0  0  0  0  0
  -30.8771  -25.2166   19.4647 O   0  0  0  0  0  0  0  0  0  0  0  0
  -24.3303  -22.7287   20.4181 O   0  0  0  0  0  0  0  0  0  0  0  0
  -31.0999  -21.6528   19.2792 O   0  0  0  0  0  0  0  0  0  0  0  0
  -23.4186  -11.5050   22.1049 O   0  0  0  0  0  0  0  0  0  0  0  0
  -28.7202  -27.9267   20.1724 O   0  0  0  0  0  0  0  0  0  1  0  0
  -22.9726   -6.2891   20.3730 F   0  0  0  0  0  0  0  0  0  0  0  0
  -28.3142  -25.8076   15.1324 F   0  0  0  0  0  0  0  0  0  0  0  0
  -24.1090   -9.3983   23.7564 F   0  0  0  0  0  0  0  0  0  0  0  0
  1  2  1  0  0  0  0
  1  5  2  0  0  0  0
  2  6  2  0  0  0  0
  3  8  2  0  0  0  0
  3 17  1  0  0  0  0
  4  9  1  0  0  0  0
  4 17  2  0  0  0  0
  5 19  1  0  0  0  0
  6 21  1  0  0  0  0
  7 10  2  0  0  0  0
  7 20  1  0  0  0  0
  8 26  1  0  0  0  0
  9 26  2  0  0  0  0
 10 27  1  0  0  0  0
 11 12  2  0  0  0  0
 11 28  1  0  0  0  0
 12 29  1  0  0  0  0
 13 22  1  0  0  0  0
 13 27  2  0  0  0  0
 14 23  2  0  0  0  0
 14 30  1  0  0  0  0
 15 24  2  0  0  0  0
 15 25  1  0  0  0  0
 16 29  2  0  0  0  0
 16 31  1  0  0  0  0
 17 32  1  0  0  0  0
 18 32  1  0  0  0  0
 18 33  2  0  0  0  0
 18 34  1  0  0  0  0
 19 21  2  0  0  0  0
 19 40  1  0  0  0  0
 20 22  2  0  0  0  0
 20 41  1  0  0  0  0
 21 49  1  0  0  0  0
 22 42  1  0  0  0  0
 23 24  1  0  0  0  0
 23 52  1  0  0  0  0
 24 70  1  0  0  0  0
 25 30  2  0  0  0  0
 25 69  1  0  0  0  0
 26 80  1  0  0  0  0
 27 81  1  0  0  0  0
 28 31  2  0  0  0  0
 28 80  1  0  0  0  0
 29 82  1  0  0  0  0
 30 83  1  0  0  0  0
 31 84  1  0  0  0  0
 32 63  2  0  0  0  0
 33 64  1  0  0  0  0
 33 67  1  0  0  0  0
 34 68  1  0  0  0  0
 34 74  2  0  0  0  0
 35 50  1  0  0  0  0
 35 71  1  0  0  0  0
 35 75  2  0  0  0  0
 36 60  1  0  0  0  0
 36 65  1  0  0  0  0
 36 76  2  0  0  0  0
 37 58  1  0  0  0  0
 37 69  1  0  0  0  0
 37 77  2  0  0  0  0
 38 61  1  0  0  0  0
 38 72  1  0  0  0  0
 38 78  2  0  0  0  0
 39 66  1  0  0  0  0
 39 70  1  0  0  0  0
 39 79  2  0  0  0  0
 40 43  1  0  0  0  0
 41 50  1  0  0  0  0
 42 65  1  0  0  0  0
 43 45  1  0  0  0  0
 44 46  1  0  0  0  0
 44 47  1  0  0  0  0
 45 49  1  0  0  0  0
 46 51  1  0  0  0  0
 47 66  1  0  0  0  0
 48 51  1  0  0  0  0
 48 66  1  0  0  0  0
 49 71  1  0  0  0  0
 50 65  1  0  0  0  0
 51 64  1  0  0  0  0
 53 61  1  0  0  0  0
 54 62  1  0  0  0  0
 55 62  1  0  0  0  0
 56 62  1  0  0  0  0
 57 73  1  0  0  0  0
 58 59  1  0  0  0  0
 59 81  1  0  0  0  0
 60 62  1  0  0  0  0
 60 72  1  0  0  0  0
 61 73  1  0  0  0  0
 63 64  1  0  0  0  0
M  CHG  1  73   1
M  ISO  4  39 100  59 101  70 100  81 101
M  END
> <Batch ID>
0009

> <Smiles>
CNC(C)C(=O)NC(C(=O)N1Cc2cc([101O:1][101CH2:1]CC(=O)Nc3cc([100NH:0][100C:0](=O)N4CCCC(n5nc(-c6ccc(Oc7ccc(F)cc7F)cc6)c(C(N)=O)c5N)C4)c(C)cc3F)ccc2CC1C(=O)NC1CCCc2ccccc21)C(C)(C)C

> <Shape>
0.231

> <Color>
0.109

> <Negative vol penalty>
0.000

$$$$

  -OEChem-04052315383D

 83 91  0     1  0  0  0  0  0999 V2000
  -45.5934  -16.9708   29.2305 C   0  0  0  0  0  0  0  0  0  0  0  0
  -44.3953  -17.6750   29.1672 C   0  0  0  0  0  0  0  0  0  0  0  0
  -23.0755   -9.8686   19.9403 C   0  0  0  0  0  0  0  0  0  0  0  0
  -23.8353   -9.8744   22.2337 C   0  0  0  0  0  0  0  0  0  0  0  0
  -46.1523  -16.4424   28.0676 C   0  0  0  0  0  0  0  0  0  0  0  0
  -43.7558  -17.8519   27.9408 C   0  0  0  0  0  0  0  0  0  0  0  0
  -37.7184  -18.0232   26.9276 C   0  0  0  0  0  0  0  0  0  0  0  0
  -22.3313   -8.7156   20.1898 C   0  0  0  0  0  0  0  0  0  0  0  0
  -23.0910   -8.7214   22.4832 C   0  0  0  0  0  0  0  0  0  0  0  0
  -36.8242  -19.0805   26.7654 C   0  0  0  0  0  0  0  0  0  0  0  0
  -21.1052   -5.9843   23.8186 C   0  0  0  0  0  0  0  0  0  0  0  0
  -20.3489   -5.9405   24.9898 C   0  0  0  0  0  0  0  0  0  0  0  0
  -37.0368  -18.8848   24.3704 C   0  0  0  0  0  0  0  0  0  0  0  0
  -29.8800  -17.4550   23.1411 C   0  0  0  0  0  0  0  0  0  0  0  0
  -32.0643  -16.6062   22.5533 C   0  0  0  0  0  0  0  0  0  0  0  0
  -19.1049   -7.8784   24.2589 C   0  0  0  0  0  0  0  0  0  0  0  0
  -23.8276  -10.4480   20.9623 C   0  0  0  0  0  0  0  0  0  0  0  0
  -24.1701  -12.9731   20.8433 C   0  0  0  0  0  0  0  0  0  0  0  0
  -45.5145  -16.6046   26.8277 C   0  0  0  0  0  0  0  0  0  0  0  0
  -38.2879  -17.3949   25.8108 C   0  0  0  0  0  0  0  0  0  0  0  0
  -44.3074  -17.3263   26.7600 C   0  0  0  0  0  0  0  0  0  0  0  0
  -37.9360  -17.8181   24.5212 C   0  0  0  0  0  0  0  0  0  0  0  0
  -30.4670  -18.3381   24.0473 C   0  0  0  0  0  0  0  0  0  0  0  0
  -32.6513  -17.4893   23.4595 C   0  0  0  0  0  0  0  0  0  0  0  0
  -30.6787  -16.5890   22.3941 C   0  0  0  0  0  0  0  0  0  0  0  0
  -22.3390   -8.1420   21.4612 C   0  0  0  0  0  0  0  0  0  0  0  0
  -36.4854  -19.5133   25.4867 C   0  0  0  0  0  0  0  0  0  0  0  0
  -20.8615   -6.9753   22.8676 C   0  0  0  0  0  0  0  0  0  0  0  0
  -31.8526  -18.3553   24.2065 C   0  0  0  0  0  0  0  0  0  0  0  0
  -19.3487   -6.8875   25.2099 C   0  0  0  0  0  0  0  0  0  0  0  0
  -19.8613   -7.9223   23.0878 C   0  0  0  0  0  0  0  0  0  0  0  0
  -24.5970  -11.6388   20.7051 C   0  0  0  0  0  0  0  0  0  0  0  0
  -25.2625  -13.7224   20.4804 C   0  0  0  0  0  0  0  0  0  0  0  0
  -22.8998  -13.4891   21.2624 C   0  0  0  0  0  0  0  0  0  0  0  0
  -41.2473  -17.0259   24.7110 C   0  0  0  0  0  0  0  0  0  0  0  0
  -39.7820  -15.1260   22.5279 C   0  0  0  0  0  0  0  0  0  0  0  0
  -36.9244  -14.3125   20.8489 C   0  0  0  0  0  0  0  0  0  0  0  0
  -30.7290  -14.7664   20.6558 C   0  0  0  0  0  0  0  0  0  0  0  0
  -46.1811  -16.0559   25.5911 C   0  0  0  0  0  0  0  0  0  0  0  0
  -39.2303  -16.2383   26.0023 C   0  0  0  0  0  0  0  0  0  0  0  0
  -38.5039  -17.1637   23.2892 C   0  0  0  0  0  0  0  0  0  0  0  0
  -45.2488  -15.9658   24.3857 C   0  0  0  0  0  0  0  0  0  0  0  0
  -29.6140  -12.3538   18.2865 C   0  0  0  0  0  0  0  0  0  0  0  0
  -44.4555  -17.2589   24.2264 C   0  0  0  0  0  0  0  0  0  0  0  0
  -28.1743  -12.0625   18.7159 C   0  0  0  0  0  0  0  0  0  0  0  0
  -30.5291  -12.5819   19.4883 C   0  0  0  0  0  0  0  0  0  0  0  0
  -28.6223  -13.3063   20.8697 C   0  0  0  0  0  0  0  0  0  0  0  0
  -43.5710  -17.5180   25.4519 C   0  0  1  0  0  0  0  0  0  0  0  0
  -40.1455  -16.0085   24.8036 C   0  0  1  0  0  0  0  0  0  0  0  0
  -27.6495  -13.1338   19.6918 C   0  0  2  0  0  0  0  0  0  0  0  0
  -29.5959  -19.2570   24.8386 C   0  0  0  0  0  0  0  0  0  0  0  0
  -34.1364  -17.4946   23.6147 C   0  0  0  0  0  0  0  0  0  0  0  0
  -36.0465  -12.7411   19.1005 C   0  0  0  0  0  0  0  0  0  0  0  0
  -41.1369  -16.7881   20.3573 C   0  0  0  0  0  0  0  0  0  0  0  0
  -39.5219  -15.8214   18.7064 C   0  0  0  0  0  0  0  0  0  0  0  0
  -41.1074  -14.3259   19.9199 C   0  0  0  0  0  0  0  0  0  0  0  0
  -34.9863  -13.1113   22.7357 C   0  0  0  0  0  0  0  0  0  0  0  0
  -33.3731  -21.3488   25.7224 C   0  0  0  0  0  0  0  0  0  0  0  0
  -34.6142  -20.7145   26.3303 C   0  0  0  0  0  0  0  0  0  1  0  0
  -32.7946  -20.5035   24.5985 C   0  0  0  0  0  0  0  0  0  0  0  0
  -39.1587  -15.3417   21.1700 C   0  0  1  0  0  0  0  0  0  0  0  0
  -36.2551  -12.9751   20.5886 C   0  0  2  0  0  0  0  0  0  0  0  0
  -40.2218  -15.5831   20.0614 C   0  0  0  0  0  0  0  0  0  0  0  0
  -25.8619  -11.5427   20.2868 N   0  0  0  0  0  0  0  0  0  0  0  0
  -26.2391  -12.8262   20.1590 N   0  0  0  0  0  0  0  0  0  0  0  0
  -39.4259  -16.0412   23.5287 N   0  0  0  0  0  0  0  0  0  0  0  0
  -29.9704  -13.6125   20.3661 N   0  0  0  0  0  0  0  0  0  0  0  0
  -25.4733  -15.0539   20.4079 N   0  0  0  0  0  0  0  0  0  0  0  0
  -21.8876  -12.5801   21.5992 N   0  0  0  0  0  0  0  0  0  0  0  0
  -30.0819  -15.6913   21.4745 N   0  0  0  0  0  0  0  0  0  0  0  0
  -42.3898  -16.6829   25.4084 N   0  0  0  0  0  0  0  0  0  0  0  0
  -38.2955  -14.1905   20.9296 N   0  0  0  0  0  0  0  0  0  0  0  0
  -34.9277  -12.9200   21.2637 N   0  3  0  0  0  0  0  0  0  0  0  0
  -22.6639  -14.7198   21.3202 O   0  0  0  0  0  0  0  0  0  0  0  0
  -41.0742  -18.0459   24.0542 O   0  0  0  0  0  0  0  0  0  0  0  0
  -40.5509  -14.1762   22.6964 O   0  0  0  0  0  0  0  0  0  0  0  0
  -36.2942  -15.3613   20.9652 O   0  0  0  0  0  0  0  0  0  0  0  0
  -31.8582  -14.9349   20.1883 O   0  0  0  0  0  0  0  0  0  0  0  0
  -21.6127   -7.0170   21.7051 O   0  0  0  0  0  0  0  0  0  0  0  0
  -35.6133  -20.5454   25.3255 O   0  0  0  0  0  0  0  0  0  1  0  0
  -32.4303  -19.2232   25.0963 O   0  0  0  0  0  0  0  0  0  0  0  0
  -18.6214   -6.8444   26.3339 F   0  0  0  0  0  0  0  0  0  0  0  0
  -19.6217   -8.8759   22.1773 F   0  0  0  0  0  0  0  0  0  0  0  0
  1  2  1  0  0  0  0
  1  5  2  0  0  0  0
  2  6  2  0  0  0  0
  3  8  2  0  0  0  0
  3 17  1  0  0  0  0
  4  9  1  0  0  0  0
  4 17  2  0  0  0  0
  5 19  1  0  0  0  0
  6 21  1  0  0  0  0
  7 10  2  0  0  0  0
  7 20  1  0  0  0  0
  8 26  1  0  0  0  0
  9 26  2  0  0  0  0
 10 27  1  0  0  0  0
 11 12  2  0  0  0  0
 11 28  1  0  0  0  0
 12 30  1  0  0  0  0
 13 22  1  0  0  0  0
 13 27  2  0  0  0  0
 14 23  2  0  0  0  0
 14 25  1  0  0  0  0
 15 24  1  0  0  0  0
 15 25  2  0  0  0  0
 16 30  2  0  0  0  0
 16 31  1  0  0  0  0
 17 32  1  0  0  0  0
 18 32  1  0  0  0  0
 18 33  2  0  0  0  0
 18 34  1  0  0  0  0
 19 21  2  0  0  0  0
 19 39  1  0  0  0  0
 20 22  2  0  0  0  0
 20 40  1  0  0  0  0
 21 48  1  0  0  0  0
 22 41  1  0  0  0  0
 23 29  1  0  0  0  0
 23 51  1  0  0  0  0
 24 29  2  0  0  0  0
 24 52  1  0  0  0  0
 25 70  1  0  0  0  0
 26 79  1  0  0  0  0
 27 80  1  0  0  0  0
 28 31  2  0  0  0  0
 28 79  1  0  0  0  0
 29 81  1  0  0  0  0
 30 82  1  0  0  0  0
 31 83  1  0  0  0  0
 32 64  2  0  0  0  0
 33 65  1  0  0  0  0
 33 68  1  0  0  0  0
 34 69  1  0  0  0  0
 34 74  2  0  0  0  0
 35 49  1  0  0  0  0
 35 71  1  0  0  0  0
 35 75  2  0  0  0  0
 36 61  1  0  0  0  0
 36 66  1  0  0  0  0
 36 76  2  0  0  0  0
 37 62  1  0  0  0  0
 37 72  1  0  0  0  0
 37 77  2  0  0  0  0
 38 67  1  0  0  0  0
 38 70  1  0  0  0  0
 38 78  2  0  0  0  0
 39 42  1  0  0  0  0
 40 49  1  0  0  0  0
 41 66  1  0  0  0  0
 42 44  1  0  0  0  0
 43 45  1  0  0  0  0
 43 46  1  0  0  0  0
 44 48  1  0  0  0  0
 45 50  1  0  0  0  0
 46 67  1  0  0  0  0
 47 50  1  0  0  0  0
 47 67  1  0  0  0  0
 48 71  1  0  0  0  0
 49 66  1  0  0  0  0
 50 65  1  0  0  0  0
 53 62  1  0  0  0  0
 54 63  1  0  0  0  0
 55 63  1  0  0  0  0
 56 63  1  0  0  0  0
 57 73  1  0  0  0  0
 58 59  1  0  0  0  0
 58 60  1  0  0  0  0
 59 80  1  0  0  0  0
 60 81  1  0  0  0  0
 61 63  1  0  0  0  0
 61 72  1  0  0  0  0
 62 73  1  0  0  0  0
 64 65  1  0  0  0  0
M  CHG  1  73   1
M  ISO  4  38 100  59 101  70 100  80 101
M  END
> <Batch ID>
0009

> <Smiles>
CNC(C)C(=O)NC(C(=O)N1Cc2cc([101O:1][101CH2:1]CCOc3c(C)cc([100NH:0][100C:0](=O)N4CCCC(n5nc(-c6ccc(Oc7ccc(F)cc7F)cc6)c(C(N)=O)c5N)C4)cc3C)ccc2CC1C(=O)NC1CCCc2ccccc21)C(C)(C)C

> <Shape>
0.161

> <Color>
0.196

> <Negative vol penalty>
0.000

$$$$

  -OEChem-04052315383D

 83 91  0     1  0  0  0  0  0999 V2000
  -23.1115  -29.6892   20.6031 C   0  0  0  0  0  0  0  0  0  0  0  0
  -23.6422  -28.4778   21.0346 C   0  0  0  0  0  0  0  0  0  0  0  0
  -23.0381   -9.9130   20.1190 C   0  0  0  0  0  0  0  0  0  0  0  0
  -23.7373  -10.1140   22.4229 C   0  0  0  0  0  0  0  0  0  0  0  0
  -23.8135  -30.8738   20.8218 C   0  0  0  0  0  0  0  0  0  0  0  0
  -24.8758  -28.4501   21.6841 C   0  0  0  0  0  0  0  0  0  0  0  0
  -26.5745  -24.6793   26.2009 C   0  0  0  0  0  0  0  0  0  0  0  0
  -22.2575   -8.8062   20.4524 C   0  0  0  0  0  0  0  0  0  0  0  0
  -22.9566   -9.0072   22.7563 C   0  0  0  0  0  0  0  0  0  0  0  0
  -27.3204  -23.5015   26.2089 C   0  0  0  0  0  0  0  0  0  0  0  0
  -19.6936   -8.3465   23.3368 C   0  0  0  0  0  0  0  0  0  0  0  0
  -18.9053   -8.4334   24.4843 C   0  0  0  0  0  0  0  0  0  0  0  0
  -29.2985  -24.7651   26.7655 C   0  0  0  0  0  0  0  0  0  0  0  0
  -31.9272  -18.5473   23.8296 C   0  0  0  0  0  0  0  0  0  0  0  0
  -32.1299  -16.6467   22.3520 C   0  0  0  0  0  0  0  0  0  0  0  0
  -20.0749   -6.5432   25.4309 C   0  0  0  0  0  0  0  0  0  0  0  0
  -23.7781  -10.5669   21.1042 C   0  0  0  0  0  0  0  0  0  0  0  0
  -24.1900  -13.0612   20.7625 C   0  0  0  0  0  0  0  0  0  0  0  0
  -25.0518  -30.8618   21.4829 C   0  0  0  0  0  0  0  0  0  0  0  0
  -27.1882  -25.9123   26.4649 C   0  0  0  0  0  0  0  0  0  0  0  0
  -25.5957  -29.6355   21.9107 C   0  0  0  0  0  0  0  0  0  0  0  0
  -28.5576  -25.9569   26.7628 C   0  0  0  0  0  0  0  0  0  0  0  0
  -32.7192  -17.5955   23.1876 C   0  0  0  0  0  0  0  0  0  0  0  0
  -30.5457  -18.5504   23.6361 C   0  0  0  0  0  0  0  0  0  0  0  0
  -30.7485  -16.6498   22.1584 C   0  0  0  0  0  0  0  0  0  0  0  0
  -22.2167   -8.3533   21.7711 C   0  0  0  0  0  0  0  0  0  0  0  0
  -28.6832  -23.5446   26.4883 C   0  0  0  0  0  0  0  0  0  0  0  0
  -20.6726   -7.3579   23.2364 C   0  0  0  0  0  0  0  0  0  0  0  0
  -19.0960   -7.5318   25.5313 C   0  0  0  0  0  0  0  0  0  0  0  0
  -20.8632   -6.4563   24.2834 C   0  0  0  0  0  0  0  0  0  0  0  0
  -29.9564  -17.6017   22.8005 C   0  0  0  0  0  0  0  0  0  0  0  0
  -24.5851  -11.7100   20.7603 C   0  0  0  0  0  0  0  0  0  0  0  0
  -25.3109  -13.7473   20.3634 C   0  0  0  0  0  0  0  0  0  0  0  0
  -22.9231  -13.6440   21.0957 C   0  0  0  0  0  0  0  0  0  0  0  0
  -27.6188  -28.6005   24.8242 C   0  0  0  0  0  0  0  0  0  0  0  0
  -28.8161  -29.6699   27.6429 C   0  0  0  0  0  0  0  0  0  0  0  0
  -30.1656  -20.5269   25.1471 C   0  0  0  0  0  0  0  0  0  0  0  0
  -30.2504  -28.9279   30.6494 C   0  0  0  0  0  0  0  0  0  0  0  0
  -30.7965  -14.6727   20.5979 C   0  0  0  0  0  0  0  0  0  0  0  0
  -25.7959  -32.1624   21.6544 C   0  0  0  0  0  0  0  0  0  0  0  0
  -26.3642  -27.1706   26.4788 C   0  0  0  0  0  0  0  0  0  0  0  0
  -29.2600  -27.2526   27.0728 C   0  0  0  0  0  0  0  0  0  0  0  0
  -26.9214  -32.0892   22.6831 C   0  0  0  0  0  0  0  0  0  0  0  0
  -29.6810  -12.0775   18.4305 C   0  0  0  0  0  0  0  0  0  0  0  0
  -27.7630  -30.8358   22.4653 C   0  0  0  0  0  0  0  0  0  0  0  0
  -28.2233  -11.8617   18.8436 C   0  0  0  0  0  0  0  0  0  0  0  0
  -30.5699  -12.3945   19.6317 C   0  0  0  0  0  0  0  0  0  0  0  0
  -28.6472  -13.2894   20.8854 C   0  0  0  0  0  0  0  0  0  0  0  0
  -26.9194  -29.5674   22.6409 C   0  0  1  0  0  0  0  0  0  0  0  0
  -27.1945  -28.4309   26.2556 C   0  0  1  0  0  0  0  0  0  0  0  0
  -27.7014  -13.0313   19.7010 C   0  0  2  0  0  0  0  0  0  0  0  0
  -34.1964  -17.5923   23.3943 C   0  0  0  0  0  0  0  0  0  0  0  0
  -31.1501  -30.0149   32.7245 C   0  0  0  0  0  0  0  0  0  0  0  0
  -31.3301  -30.4896   26.1205 C   0  0  0  0  0  0  0  0  0  0  0  0
  -32.5173  -30.6704   28.3174 C   0  0  0  0  0  0  0  0  0  0  0  0
  -30.5624  -32.1423   27.8332 C   0  0  0  0  0  0  0  0  0  0  0  0
  -28.2714  -27.5528   32.3675 C   0  0  0  0  0  0  0  0  0  0  0  0
  -28.9839  -21.3473   25.6297 C   0  0  0  0  0  0  0  0  0  1  0  0
  -30.1809  -29.6847   28.2878 C   0  0  1  0  0  0  0  0  0  0  0  0
  -29.9324  -29.3926   32.0591 C   0  0  2  0  0  0  0  0  0  0  0  0
  -31.1351  -30.7224   27.6320 C   0  0  0  0  0  0  0  0  0  0  0  0
  -25.8575  -11.5454   20.3890 N   0  0  0  0  0  0  0  0  0  0  0  0
  -26.2717  -12.8021   20.1541 N   0  0  0  0  0  0  0  0  0  0  0  0
  -28.4125  -28.4565   27.0679 N   0  0  0  0  0  0  0  0  0  0  0  0
  -30.0156  -13.5153   20.3943 N   0  0  0  0  0  0  0  0  0  0  0  0
  -25.5585  -15.0608   20.1744 N   0  0  0  0  0  0  0  0  0  0  0  0
  -21.8788  -12.7945   21.4859 N   0  0  0  0  0  0  0  0  0  0  0  0
  -29.7444  -19.5173   24.2884 N   0  0  0  0  0  0  0  0  0  0  0  0
  -30.1526  -15.6849   21.3089 N   0  0  0  0  0  0  0  0  0  0  0  0
  -26.7093  -29.2906   24.0458 N   0  0  0  0  0  0  0  0  0  0  0  0
  -29.9564  -29.8970   29.7136 N   0  0  0  0  0  0  0  0  0  0  0  0
  -29.4769  -28.2443   32.8927 N   0  3  0  0  0  0  0  0  0  0  0  0
  -22.7182  -14.8799   21.0329 O   0  0  0  0  0  0  0  0  0  0  0  0
  -28.6925  -28.1405   24.4538 O   0  0  0  0  0  0  0  0  0  0  0  0
  -28.1303  -30.6952   27.6552 O   0  0  0  0  0  0  0  0  0  0  0  0
  -31.3113  -20.7769   25.5071 O   0  0  0  0  0  0  0  0  0  0  0  0
  -30.7166  -27.8177   30.4032 O   0  0  0  0  0  0  0  0  0  0  0  0
  -31.9416  -14.7702   20.1493 O   0  0  0  0  0  0  0  0  0  0  0  0
  -21.4549   -7.2735   22.0969 O   0  0  0  0  0  0  0  0  0  0  0  0
  -29.4138  -22.3965   26.4961 O   0  0  0  0  0  0  0  0  0  1  0  0
  -18.3400   -7.6163   26.6338 F   0  0  0  0  0  0  0  0  0  0  0  0
  -21.8029   -5.5051   24.1932 F   0  0  0  0  0  0  0  0  0  0  0  0
  -28.6275  -17.6041   22.6149 F   0  0  0  0  0  0  0  0  0  0  0  0
  1  2  1  0  0  0  0
  1  5  2  0  0  0  0
  2  6  2  0  0  0  0
  3  8  2  0  0  0  0
  3 17  1  0  0  0  0
  4  9  1  0  0  0  0
  4 17  2  0  0  0  0
  5 19  1  0  0  0  0
  6 21  1  0  0  0  0
  7 10  2  0  0  0  0
  7 20  1  0  0  0  0
  8 26  1  0  0  0  0
  9 26  2  0  0  0  0
 10 27  1  0  0  0  0
 11 12  2  0  0  0  0
 11 28  1  0  0  0  0
 12 29  1  0  0  0  0
 13 22  1  0  0  0  0
 13 27  2  0  0  0  0
 14 23  2  0  0  0  0
 14 24  1  0  0  0  0
 15 23  1  0  0  0  0
 15 25  2  0  0  0  0
 16 29  2  0  0  0  0
 16 30  1  0  0  0  0
 17 32  1  0  0  0  0
 18 32  1  0  0  0  0
 18 33  2  0  0  0  0
 18 34  1  0  0  0  0
 19 21  2  0  0  0  0
 19 40  1  0  0  0  0
 20 22  2  0  0  0  0
 20 41  1  0  0  0  0
 21 49  1  0  0  0  0
 22 42  1  0  0  0  0
 23 52  1  0  0  0  0
 24 31  2  0  0  0  0
 24 68  1  0  0  0  0
 25 31  1  0  0  0  0
 25 69  1  0  0  0  0
 26 79  1  0  0  0  0
 27 80  1  0  0  0  0
 28 30  2  0  0  0  0
 28 79  1  0  0  0  0
 29 81  1  0  0  0  0
 30 82  1  0  0  0  0
 31 83  1  0  0  0  0
 32 62  2  0  0  0  0
 33 63  1  0  0  0  0
 33 66  1  0  0  0  0
 34 67  1  0  0  0  0
 34 73  2  0  0  0  0
 35 50  1  0  0  0  0
 35 70  1  0  0  0  0
 35 74  2  0  0  0  0
 36 59  1  0  0  0  0
 36 64  1  0  0  0  0
 36 75  2  0  0  0  0
 37 58  1  0  0  0  0
 37 68  1  0  0  0  0
 37 76  2  0  0  0  0
 38 60  1  0  0  0  0
 38 71  1  0  0  0  0
 38 77  2  0  0  0  0
 39 65  1  0  0  0  0
 39 69  1  0  0  0  0
 39 78  2  0  0  0  0
 40 43  1  0  0  0  0
 41 50  1  0  0  0  0
 42 64  1  0  0  0  0
 43 45  1  0  0  0  0
 44 46  1  0  0  0  0
 44 47  1  0  0  0  0
 45 49  1  0  0  0  0
 46 51  1  0  0  0  0
 47 65  1  0  0  0  0
 48 51  1  0  0  0  0
 48 65  1  0  0  0  0
 49 70  1  0  0  0  0
 50 64  1  0  0  0  0
 51 63  1  0  0  0  0
 53 60  1  0  0  0  0
 54 61  1  0  0  0  0
 55 61  1  0  0  0  0
 56 61  1  0  0  0  0
 57 72  1  0  0  0  0
 58 80  1  0  0  0  0
 59 61  1  0  0  0  0
 59 71  1  0  0  0  0
 60 72  1  0  0  0  0
 62 63  1  0  0  0  0
M  CHG  1  72   1
M  ISO  4  39 100  58 101  69 100  80 101
M  END
> <Batch ID>
0009

> <Smiles>
CNC(C)C(=O)NC(C(=O)N1Cc2cc([101O:1][101CH2:1]C(=O)Nc3cc(C)cc([100NH:0][100C:0](=O)N4CCCC(n5nc(-c6ccc(Oc7ccc(F)cc7F)cc6)c(C(N)=O)c5N)C4)c3F)ccc2CC1C(=O)NC1CCCc2ccccc21)C(C)(C)C

> <Shape>
0.232

> <Color>
0.197

> <Negative vol penalty>
0.000

$$$$

  -OEChem-04052315383D

 88 96  0     1  0  0  0  0  0999 V2000
  -25.5550  -38.1418   23.8037 C   0  0  0  0  0  0  0  0  0  0  0  0
  -26.3238  -37.3880   22.9226 C   0  0  0  0  0  0  0  0  0  0  0  0
  -20.9349  -13.3475   26.0471 C   0  0  0  0  0  0  0  0  0  0  0  0
  -22.4784  -14.9066   25.0354 C   0  0  0  0  0  0  0  0  0  0  0  0
  -24.8623  -37.5122   24.8369 C   0  0  0  0  0  0  0  0  0  0  0  0
  -26.4011  -36.0041   23.0751 C   0  0  0  0  0  0  0  0  0  0  0  0
  -27.0527  -29.9922   19.2346 C   0  0  0  0  0  0  0  0  0  0  0  0
  -21.1160  -13.9697   27.2823 C   0  0  0  0  0  0  0  0  0  0  0  0
  -22.6594  -15.5289   26.2705 C   0  0  0  0  0  0  0  0  0  0  0  0
  -27.8342  -28.8399   19.1620 C   0  0  0  0  0  0  0  0  0  0  0  0
  -24.3968  -14.9619   29.1150 C   0  0  0  0  0  0  0  0  0  0  0  0
  -25.7013  -15.2716   29.4997 C   0  0  0  0  0  0  0  0  0  0  0  0
  -26.5313  -27.8519   20.9356 C   0  0  0  0  0  0  0  0  0  0  0  0
  -25.1118  -17.6117   29.6151 C   0  0  0  0  0  0  0  0  0  0  0  0
  -27.3529  -12.6171   18.7760 C   0  0  0  0  0  0  0  0  0  0  0  0
  -21.6162  -13.8159   24.9237 C   0  0  0  0  0  0  0  0  0  0  0  0
  -20.4692  -13.4894   22.6686 C   0  0  0  0  0  0  0  0  0  0  0  0
  -24.9235  -36.1188   24.9963 C   0  0  0  0  0  0  0  0  0  0  0  0
  -26.0099  -30.0874   20.1672 C   0  0  0  0  0  0  0  0  0  0  0  0
  -25.7096  -35.3554   24.1123 C   0  0  0  0  0  0  0  0  0  0  0  0
  -25.7365  -29.0055   21.0163 C   0  0  0  0  0  0  0  0  0  0  0  0
  -21.9782  -15.0605   27.3940 C   0  0  0  0  0  0  0  0  0  0  0  0
  -27.5754  -27.7707   20.0145 C   0  0  0  0  0  0  0  0  0  0  0  0
  -23.4498  -15.9772   28.9803 C   0  0  0  0  0  0  0  0  0  0  0  0
  -26.0588  -16.5965   29.7497 C   0  0  0  0  0  0  0  0  0  0  0  0
  -23.8073  -17.3021   29.2303 C   0  0  0  0  0  0  0  0  0  0  0  0
  -21.4301  -13.1731   23.6476 C   0  0  0  0  0  0  0  0  0  0  0  0
  -27.0484  -11.2721   18.8274 C   0  0  0  0  0  0  0  0  0  0  0  0
  -28.3493  -12.9702   17.8891 C   0  0  0  0  0  0  0  0  0  0  0  0
  -20.7071  -12.5961   21.6528 C   0  0  0  0  0  0  0  0  0  0  0  0
  -28.6167  -10.8053   17.2496 C   0  0  0  0  0  0  0  0  0  0  0  0
  -19.4525  -14.5004   22.6766 C   0  0  0  0  0  0  0  0  0  0  0  0
  -25.3774  -31.9831   22.6391 C   0  0  0  0  0  0  0  0  0  0  0  0
  -22.5623  -30.3715   22.6554 C   0  0  0  0  0  0  0  0  0  0  0  0
  -20.8367  -27.5458   21.8282 C   0  0  0  0  0  0  0  0  0  0  0  0
  -25.5622   -9.5660   19.9350 C   0  0  0  0  0  0  0  0  0  0  0  0
  -24.1953  -35.4882   26.1568 C   0  0  0  0  0  0  0  0  0  0  0  0
  -25.1591  -31.3269   20.2147 C   0  0  0  0  0  0  0  0  0  0  0  0
  -24.6156  -29.0497   22.0213 C   0  0  0  0  0  0  0  0  0  0  0  0
  -24.0293  -33.9767   26.0229 C   0  0  0  0  0  0  0  0  0  0  0  0
  -22.4116   -8.1910   20.8626 C   0  0  0  0  0  0  0  0  0  0  0  0
  -25.3447  -33.3305   25.5998 C   0  0  0  0  0  0  0  0  0  0  0  0
  -21.7125   -9.3433   21.5876 C   0  0  0  0  0  0  0  0  0  0  0  0
  -23.9111   -8.1645   21.1534 C   0  0  0  0  0  0  0  0  0  0  0  0
  -23.9152  -10.5816   21.6294 C   0  0  0  0  0  0  0  0  0  0  0  0
  -25.7986  -33.8493   24.2300 C   0  0  1  0  0  0  0  0  0  0  0  0
  -24.4510  -31.5147   21.5529 C   0  0  1  0  0  0  0  0  0  0  0  0
  -22.4140  -10.6885   21.3156 C   0  0  2  0  0  0  0  0  0  0  0  0
  -29.3199   -9.7990   16.4035 C   0  0  0  0  0  0  0  0  0  0  0  0
  -18.5601  -26.5050   22.0053 C   0  0  0  0  0  0  0  0  0  0  0  0
  -23.0757  -29.7552   25.5993 C   0  0  0  0  0  0  0  0  0  0  0  0
  -21.3208  -27.9749   25.4607 C   0  0  0  0  0  0  0  0  0  0  0  0
  -20.7103  -30.3597   25.0572 C   0  0  0  0  0  0  0  0  0  0  0  0
  -20.5476  -27.3988   18.8865 C   0  0  0  0  0  0  0  0  0  0  0  0
  -27.8467  -20.3952   19.3220 C   0  0  0  0  0  0  0  0  0  0  0  0
  -28.5120  -19.2156   18.6057 C   0  0  0  0  0  0  0  0  0  0  0  0
  -28.4481  -21.7750   19.0340 C   0  0  0  0  0  0  0  0  0  0  0  0
  -27.9266  -17.8564   18.9959 C   0  0  0  0  0  0  0  0  0  0  0  0
  -27.7559  -22.9083   19.7950 C   0  0  0  0  0  0  0  0  0  0  0  0
  -28.6028  -16.7203   18.2205 C   0  0  0  0  0  0  0  0  0  0  0  0
  -28.3678  -24.2822   19.5164 C   0  0  0  0  0  0  0  0  0  0  0  0
  -28.0520  -15.3459   18.5913 C   0  0  0  0  0  0  0  0  0  0  0  0
  -27.7090  -25.4129   20.2954 C   0  0  0  0  0  0  0  0  0  1  0  0
  -22.0547  -29.1128   23.3165 C   0  0  1  0  0  0  0  0  0  0  0  0
  -19.4930  -27.3483   21.1501 C   0  0  2  0  0  0  0  0  0  0  0  0
  -21.8128  -29.3002   24.8409 C   0  0  0  0  0  0  0  0  0  0  0  0
  -22.2195  -12.1581   23.2863 N   0  0  0  0  0  0  0  0  0  0  0  0
  -27.6626  -10.3353   18.0755 N   0  0  0  0  0  0  0  0  0  0  0  0
  -29.0049  -12.0870   17.1077 N   0  0  0  0  0  0  0  0  0  0  0  0
  -21.7549  -11.8287   22.0690 N   0  0  0  0  0  0  0  0  0  0  0  0
  -23.8160  -30.2859   22.0336 N   0  0  0  0  0  0  0  0  0  0  0  0
  -24.5087   -9.4709   20.8687 N   0  0  0  0  0  0  0  0  0  0  0  0
  -20.1200  -12.3999   20.4531 N   0  0  0  0  0  0  0  0  0  0  0  0
  -19.3467  -15.3325   23.7994 N   0  0  0  0  0  0  0  0  0  0  0  0
  -26.0285  -10.8628   19.7218 N   0  0  0  0  0  0  0  0  0  0  0  0
  -28.6842  -14.3128   17.8069 N   0  0  0  0  0  0  0  0  0  0  0  0
  -25.0425  -33.2130   23.1727 N   0  0  0  0  0  0  0  0  0  0  0  0
  -20.8692  -28.7085   22.5686 N   0  0  0  0  0  0  0  0  0  0  0  0
  -19.6708  -26.6671   19.8366 N   0  3  0  0  0  0  0  0  0  0  0  0
  -18.6508  -14.6503   21.7236 O   0  0  0  0  0  0  0  0  0  0  0  0
  -26.3250  -31.2800   22.9698 O   0  0  0  0  0  0  0  0  0  0  0  0
  -21.8686  -31.3912   22.6833 O   0  0  0  0  0  0  0  0  0  0  0  0
  -21.7635  -26.7465   21.7155 O   0  0  0  0  0  0  0  0  0  0  0  0
  -25.9990   -8.5738   19.3461 O   0  0  0  0  0  0  0  0  0  0  0  0
  -22.1549  -15.6680   28.5990 O   0  0  0  0  0  0  0  0  0  0  0  0
  -28.3423  -26.6371   19.9457 O   0  0  0  0  0  0  0  0  0  1  0  0
  -27.3111  -16.8935   30.1206 F   0  0  0  0  0  0  0  0  0  0  0  0
  -22.9015  -18.2816   29.1037 F   0  0  0  0  0  0  0  0  0  0  0  0
  1  2  1  0  0  0  0
  1  5  2  0  0  0  0
  2  6  2  0  0  0  0
  3  8  2  0  0  0  0
  3 16  1  0  0  0  0
  4  9  1  0  0  0  0
  4 16  2  0  0  0  0
  5 18  1  0  0  0  0
  6 20  1  0  0  0  0
  7 10  2  0  0  0  0
  7 19  1  0  0  0  0
  8 22  1  0  0  0  0
  9 22  2  0  0  0  0
 10 23  1  0  0  0  0
 11 12  2  0  0  0  0
 11 24  1  0  0  0  0
 12 25  1  0  0  0  0
 13 21  1  0  0  0  0
 13 23  2  0  0  0  0
 14 25  2  0  0  0  0
 14 26  1  0  0  0  0
 15 28  2  0  0  0  0
 15 29  1  0  0  0  0
 16 27  1  0  0  0  0
 17 27  1  0  0  0  0
 17 30  2  0  0  0  0
 17 32  1  0  0  0  0
 18 20  2  0  0  0  0
 18 37  1  0  0  0  0
 19 21  2  0  0  0  0
 19 38  1  0  0  0  0
 20 46  1  0  0  0  0
 21 39  1  0  0  0  0
 22 85  1  0  0  0  0
 23 86  1  0  0  0  0
 24 26  2  0  0  0  0
 24 85  1  0  0  0  0
 25 87  1  0  0  0  0
 26 88  1  0  0  0  0
 27 67  2  0  0  0  0
 28 68  1  0  0  0  0
 28 75  1  0  0  0  0
 29 69  2  0  0  0  0
 29 76  1  0  0  0  0
 30 70  1  0  0  0  0
 30 73  1  0  0  0  0
 31 49  1  0  0  0  0
 31 68  2  0  0  0  0
 31 69  1  0  0  0  0
 32 74  1  0  0  0  0
 32 80  2  0  0  0  0
 33 47  1  0  0  0  0
 33 77  1  0  0  0  0
 33 81  2  0  0  0  0
 34 64  1  0  0  0  0
 34 71  1  0  0  0  0
 34 82  2  0  0  0  0
 35 65  1  0  0  0  0
 35 78  1  0  0  0  0
 35 83  2  0  0  0  0
 36 72  1  0  0  0  0
 36 75  1  0  0  0  0
 36 84  2  0  0  0  0
 37 40  1  0  0  0  0
 38 47  1  0  0  0  0
 39 71  1  0  0  0  0
 40 42  1  0  0  0  0
 41 43  1  0  0  0  0
 41 44  1  0  0  0  0
 42 46  1  0  0  0  0
 43 48  1  0  0  0  0
 44 72  1  0  0  0  0
 45 48  1  0  0  0  0
 45 72  1  0  0  0  0
 46 77  1  0  0  0  0
 47 71  1  0  0  0  0
 48 70  1  0  0  0  0
 50 65  1  0  0  0  0
 51 66  1  0  0  0  0
 52 66  1  0  0  0  0
 53 66  1  0  0  0  0
 54 79  1  0  0  0  0
 55 56  1  0  0  0  0
 55 57  1  0  0  0  0
 56 58  1  0  0  0  0
 57 59  1  0  0  0  0
 58 60  1  0  0  0  0
 59 61  1  0  0  0  0
 60 62  1  0  0  0  0
 61 63  1  0  0  0  0
 62 76  1  0  0  0  0
 63 86  1  0  0  0  0
 64 66  1  0  0  0  0
 64 78  1  0  0  0  0
 65 79  1  0  0  0  0
 67 70  1  0  0  0  0
M  CHG  1  79   1
M  ISO  4  36 100  63 101  75 100  86 101
M  END
> <Batch ID>
0009

> <Smiles>
CNC(C)C(=O)NC(C(=O)N1Cc2cc([101O:1][101CH2:1]CCCCCCCCNc3cc([100NH:0][100C:0](=O)N4CCCC(n5nc(-c6ccc(Oc7ccc(F)cc7F)cc6)c(C(N)=O)c5N)C4)nc(C)n3)ccc2CC1C(=O)NC1CCCc2ccccc21)C(C)(C)C

> <Shape>
0.271

> <Color>
0.073

> <Negative vol penalty>
0.000

$$$$

  -OEChem-04052315383D

 91 98  0     1  0  0  0  0  0999 V2000
  -24.7181  -32.1782   28.6617 C   0  0  0  0  0  0  0  0  0  0  0  0
  -25.3218  -31.2072   27.8691 C   0  0  0  0  0  0  0  0  0  0  0  0
  -22.9822  -23.2401   22.7841 C   0  0  0  0  0  0  0  0  0  0  0  0
  -20.6344  -22.6894   22.9324 C   0  0  0  0  0  0  0  0  0  0  0  0
  -23.4853  -32.7126   28.2895 C   0  0  0  0  0  0  0  0  0  0  0  0
  -24.6924  -30.7692   26.7044 C   0  0  0  0  0  0  0  0  0  0  0  0
  -27.3920  -29.0762   21.4746 C   0  0  0  0  0  0  0  0  0  0  0  0
  -22.6551  -24.4989   22.2803 C   0  0  0  0  0  0  0  0  0  0  0  0
  -20.3073  -23.9483   22.4285 C   0  0  0  0  0  0  0  0  0  0  0  0
  -27.7150  -27.8266   20.9474 C   0  0  0  0  0  0  0  0  0  0  0  0
  -18.8440  -27.1502   21.5203 C   0  0  0  0  0  0  0  0  0  0  0  0
  -17.8191  -27.8556   22.1508 C   0  0  0  0  0  0  0  0  0  0  0  0
  -25.6667  -27.8414   19.6732 C   0  0  0  0  0  0  0  0  0  0  0  0
  -19.0689  -27.8234   24.2182 C   0  0  0  0  0  0  0  0  0  0  0  0
  -21.9718  -22.3353   23.1102 C   0  0  0  0  0  0  0  0  0  0  0  0
  -22.4780  -20.6768   24.9812 C   0  0  0  0  0  0  0  0  0  0  0  0
  -22.8451  -32.2880   27.1146 C   0  0  0  0  0  0  0  0  0  0  0  0
  -26.1967  -29.7140   21.1128 C   0  0  0  0  0  0  0  0  0  0  0  0
  -23.4492  -31.2975   26.3169 C   0  0  0  0  0  0  0  0  0  0  0  0
  -25.3321  -29.1003   20.1952 C   0  0  0  0  0  0  0  0  0  0  0  0
  -21.3177  -24.8531   22.1025 C   0  0  0  0  0  0  0  0  0  0  0  0
  -26.8509  -27.2077   20.0489 C   0  0  0  0  0  0  0  0  0  0  0  0
  -19.9813  -26.7812   22.2387 C   0  0  0  0  0  0  0  0  0  0  0  0
  -17.9316  -28.1923   23.4997 C   0  0  0  0  0  0  0  0  0  0  0  0
  -20.0938  -27.1179   23.5876 C   0  0  0  0  0  0  0  0  0  0  0  0
  -22.3090  -21.0345   23.6302 C   0  0  0  0  0  0  0  0  0  0  0  0
  -22.7886  -19.3393   24.9460 C   0  0  0  0  0  0  0  0  0  0  0  0
  -22.3644  -21.4815   26.1624 C   0  0  0  0  0  0  0  0  0  0  0  0
  -23.6010  -30.6696   22.6788 C   0  0  0  0  0  0  0  0  0  0  0  0
  -22.8158  -31.9541   19.8055 C   0  0  0  0  0  0  0  0  0  0  0  0
  -27.6387  -23.6654   20.0155 C   0  0  0  0  0  0  0  0  0  0  0  0
  -26.6390  -14.0714   19.9584 C   0  0  0  0  0  0  0  0  0  0  0  0
  -23.1817  -31.9051   16.4128 C   0  0  0  0  0  0  0  0  0  0  0  0
  -25.2997  -15.9831   20.7938 C   0  0  0  0  0  0  0  0  0  0  0  0
  -21.4909  -32.8606   26.7782 C   0  0  0  0  0  0  0  0  0  0  0  0
  -25.8757  -31.0739   21.6697 C   0  0  0  0  0  0  0  0  0  0  0  0
  -24.0464  -29.7521   19.7589 C   0  0  0  0  0  0  0  0  0  0  0  0
  -21.0671  -32.6134   25.3327 C   0  0  0  0  0  0  0  0  0  0  0  0
  -22.0803  -15.3978   22.3222 C   0  0  0  0  0  0  0  0  0  0  0  0
  -21.3181  -31.1600   24.9439 C   0  0  0  0  0  0  0  0  0  0  0  0
  -21.7974  -16.7564   22.9673 C   0  0  0  0  0  0  0  0  0  0  0  0
  -22.7726  -15.5632   20.9732 C   0  0  0  0  0  0  0  0  0  0  0  0
  -23.7530  -17.7158   21.6623 C   0  0  0  0  0  0  0  0  0  0  0  0
  -22.8095  -30.8146   25.0333 C   0  0  1  0  0  0  0  0  0  0  0  0
  -24.3862  -31.4007   21.6268 C   0  0  1  0  0  0  0  0  0  0  0  0
  -23.0706  -17.6211   23.0395 C   0  0  1  0  0  0  0  0  0  0  0  0
  -26.6029  -11.6381   20.5772 C   0  0  0  0  0  0  0  0  0  0  0  0
  -22.3832  -33.0521   14.3286 C   0  0  0  0  0  0  0  0  0  0  0  0
  -20.1603  -30.4647   20.0062 C   0  0  0  0  0  0  0  0  0  0  0  0
  -19.8325  -30.8613   17.5560 C   0  0  0  0  0  0  0  0  0  0  0  0
  -19.9838  -32.7973   19.1217 C   0  0  0  0  0  0  0  0  0  0  0  0
  -25.9187  -32.7839   15.7087 C   0  0  0  0  0  0  0  0  0  0  0  0
  -27.9416  -25.1138   20.3348 C   0  0  0  0  0  0  0  0  0  1  0  0
  -31.0364  -16.6752   17.3039 C   0  0  0  0  0  0  0  0  0  0  0  0
  -30.0209  -17.2168   18.3119 C   0  0  0  0  0  0  0  0  0  0  0  0
  -30.9595  -15.1570   17.1160 C   0  0  0  0  0  0  0  0  0  0  0  0
  -30.1579  -18.7322   18.4762 C   0  0  0  0  0  0  0  0  0  0  0  0
  -29.6008  -14.6066   16.6716 C   0  0  0  0  0  0  0  0  0  0  0  0
  -29.1660  -19.2720   19.5087 C   0  0  0  0  0  0  0  0  0  0  0  0
  -29.5914  -13.0880   16.4791 C   0  0  0  0  0  0  0  0  0  0  0  0
  -29.2772  -20.7936   19.6428 C   0  0  0  0  0  0  0  0  0  0  0  0
  -28.2044  -12.5944   16.0546 C   0  0  0  0  0  0  0  0  0  0  0  0
  -28.3099  -21.3632   20.6752 C   0  0  0  0  0  0  0  0  0  0  0  0
  -27.1102  -12.9197   17.0639 C   0  0  0  0  0  0  0  0  0  0  0  0
  -22.0681  -31.4702   18.5866 C   0  0  1  0  0  0  0  0  0  0  0  0
  -26.4380  -12.6519   19.4556 C   0  0  2  0  0  0  0  0  0  0  0  0
  -23.4493  -33.0151   15.4124 C   0  0  2  0  0  0  0  0  0  0  0  0
  -20.5344  -31.3849   18.8271 C   0  0  0  0  0  0  0  0  0  0  0  0
  -22.4969  -20.0073   22.7974 N   0  0  0  0  0  0  0  0  0  0  0  0
  -22.7872  -18.9910   23.6273 N   0  0  0  0  0  0  0  0  0  0  0  0
  -23.7738  -31.0787   20.3362 N   0  0  0  0  0  0  0  0  0  0  0  0
  -23.9895  -16.3737   21.1215 N   0  0  0  0  0  0  0  0  0  0  0  0
  -23.0602  -18.4391   25.9146 N   0  0  0  0  0  0  0  0  0  0  0  0
  -22.0381  -22.8369   26.0186 N   0  0  0  0  0  0  0  0  0  0  0  0
  -23.5192  -31.3378   23.8856 N   0  0  0  0  0  0  0  0  0  0  0  0
  -25.4297  -14.6766   20.3121 N   0  0  0  0  0  0  0  0  0  0  0  0
  -28.4022  -22.7930   20.7830 N   0  0  0  0  0  0  0  0  0  0  0  0
  -22.4532  -32.3560   17.4932 N   0  0  0  0  0  0  0  0  0  0  0  0
  -24.7750  -32.8168   14.7611 N   0  3  0  0  0  0  0  0  0  0  0  0
  -27.4284  -12.3355   18.3878 N   0  3  0  0  0  0  0  0  0  0  0  0
  -22.5628  -21.0162   27.3103 O   0  0  0  0  0  0  0  0  0  0  0  0
  -23.1048  -29.5807   22.4148 O   0  0  0  0  0  0  0  0  0  0  0  0
  -22.5641  -33.0707   20.2655 O   0  0  0  0  0  0  0  0  0  0  0  0
  -26.8118  -23.3299   19.1719 O   0  0  0  0  0  0  0  0  0  0  0  0
  -27.7449  -14.6030   20.0228 O   0  0  0  0  0  0  0  0  0  0  0  0
  -23.5761  -30.7525   16.2502 O   0  0  0  0  0  0  0  0  0  0  0  0
  -26.2763  -16.7234   20.9475 O   0  0  0  0  0  0  0  0  0  0  0  0
  -20.9982  -26.0815   21.6111 O   0  0  0  0  0  0  0  0  0  0  0  0
  -27.1667  -25.9750   19.5280 O   0  0  0  0  0  0  0  0  0  1  0  0
  -16.9481  -28.8712   24.1047 F   0  0  0  0  0  0  0  0  0  0  0  0
  -21.1845  -26.7672   24.2827 F   0  0  0  0  0  0  0  0  0  0  0  0
  1  2  1  0  0  0  0
  1  5  2  0  0  0  0
  2  6  2  0  0  0  0
  3  8  2  0  0  0  0
  3 15  1  0  0  0  0
  4  9  1  0  0  0  0
  4 15  2  0  0  0  0
  5 17  1  0  0  0  0
  6 19  1  0  0  0  0
  7 10  2  0  0  0  0
  7 18  1  0  0  0  0
  8 21  1  0  0  0  0
  9 21  2  0  0  0  0
 10 22  1  0  0  0  0
 11 12  2  0  0  0  0
 11 23  1  0  0  0  0
 12 24  1  0  0  0  0
 13 20  1  0  0  0  0
 13 22  2  0  0  0  0
 14 24  2  0  0  0  0
 14 25  1  0  0  0  0
 15 26  1  0  0  0  0
 16 26  1  0  0  0  0
 16 27  2  0  0  0  0
 16 28  1  0  0  0  0
 17 19  2  0  0  0  0
 17 35  1  0  0  0  0
 18 20  2  0  0  0  0
 18 36  1  0  0  0  0
 19 44  1  0  0  0  0
 20 37  1  0  0  0  0
 21 88  1  0  0  0  0
 22 89  1  0  0  0  0
 23 25  2  0  0  0  0
 23 88  1  0  0  0  0
 24 90  1  0  0  0  0
 25 91  1  0  0  0  0
 26 69  2  0  0  0  0
 27 70  1  0  0  0  0
 27 73  1  0  0  0  0
 28 74  1  0  0  0  0
 28 81  2  0  0  0  0
 29 45  1  0  0  0  0
 29 75  1  0  0  0  0
 29 82  2  0  0  0  0
 30 65  1  0  0  0  0
 30 71  1  0  0  0  0
 30 83  2  0  0  0  0
 31 53  1  0  0  0  0
 31 77  1  0  0  0  0
 31 84  2  0  0  0  0
 32 66  1  0  0  0  0
 32 76  1  0  0  0  0
 32 85  2  0  0  0  0
 33 67  1  0  0  0  0
 33 78  1  0  0  0  0
 33 86  2  0  0  0  0
 34 72  1  0  0  0  0
 34 76  1  0  0  0  0
 34 87  2  0  0  0  0
 35 38  1  0  0  0  0
 36 45  1  0  0  0  0
 37 71  1  0  0  0  0
 38 40  1  0  0  0  0
 39 41  1  0  0  0  0
 39 42  1  0  0  0  0
 40 44  1  0  0  0  0
 41 46  1  0  0  0  0
 42 72  1  0  0  0  0
 43 46  1  0  0  0  0
 43 72  1  0  0  0  0
 44 75  1  0  0  0  0
 45 71  1  0  0  0  0
 46 70  1  0  0  0  0
 47 66  1  0  0  0  0
 48 67  1  0  0  0  0
 49 68  1  0  0  0  0
 50 68  1  0  0  0  0
 51 68  1  0  0  0  0
 52 79  1  0  0  0  0
 53 89  1  0  0  0  0
 54 55  1  0  0  0  0
 54 56  1  0  0  0  0
 55 57  1  0  0  0  0
 56 58  1  0  0  0  0
 57 59  1  0  0  0  0
 58 60  1  0  0  0  0
 59 61  1  0  0  0  0
 60 62  1  0  0  0  0
 61 63  1  0  0  0  0
 62 64  1  0  0  0  0
 63 77  1  0  0  0  0
 64 80  1  0  0  0  0
 65 68  1  0  0  0  0
 65 78  1  0  0  0  0
 66 80  1  0  0  0  0
 67 79  1  0  0  0  0
 69 70  1  0  0  0  0
M  CHG  2  79   1  80   1
M  ISO  4  34 100  53 101  76 100  89 101
M  END
> <Batch ID>
0009

> <Smiles>
CNC(C)C(=O)NC(C(=O)N1Cc2cc([101O:1][101CH2:1]C(=O)NCCCCCCCCCCCNC(C)C(=O)[100NH:0][100C:0](=O)N3CCCC(n4nc(-c5ccc(Oc6ccc(F)cc6F)cc5)c(C(N)=O)c4N)C3)ccc2CC1C(=O)NC1CCCc2ccccc21)C(C)(C)C

> <Shape>
0.221

> <Color>
0.062

> <Negative vol penalty>
0.000

$$$$

  -OEChem-04052315383D

 81 89  0     1  0  0  0  0  0999 V2000
  -24.9521  -33.1395   28.7446 C   0  0  0  0  0  0  0  0  0  0  0  0
  -25.7695  -32.3533   27.9388 C   0  0  0  0  0  0  0  0  0  0  0  0
  -26.4651  -12.1719   21.6276 C   0  0  0  0  0  0  0  0  0  0  0  0
  -25.9766  -13.2430   19.5178 C   0  0  0  0  0  0  0  0  0  0  0  0
  -23.5689  -33.1094   28.5724 C   0  0  0  0  0  0  0  0  0  0  0  0
  -25.2039  -31.5359   26.9609 C   0  0  0  0  0  0  0  0  0  0  0  0
  -27.5693  -30.1795   21.4772 C   0  0  0  0  0  0  0  0  0  0  0  0
  -28.5443  -22.0672   17.0126 C   0  0  0  0  0  0  0  0  0  0  0  0
  -25.2483  -11.4928   21.5646 C   0  0  0  0  0  0  0  0  0  0  0  0
  -24.7598  -12.5639   19.4548 C   0  0  0  0  0  0  0  0  0  0  0  0
  -28.2804  -29.0752   21.0095 C   0  0  0  0  0  0  0  0  0  0  0  0
  -28.9795  -23.3289   17.4179 C   0  0  0  0  0  0  0  0  0  0  0  0
  -23.9829   -8.7913   19.9730 C   0  0  0  0  0  0  0  0  0  0  0  0
  -23.9832   -7.4308   20.2805 C   0  0  0  0  0  0  0  0  0  0  0  0
  -26.2328  -28.1246   20.1592 C   0  0  0  0  0  0  0  0  0  0  0  0
  -29.4449  -22.4598   19.6236 C   0  0  0  0  0  0  0  0  0  0  0  0
  -22.4338   -7.8393   22.0888 C   0  0  0  0  0  0  0  0  0  0  0  0
  -26.8292  -13.0470   20.6042 C   0  0  0  0  0  0  0  0  0  0  0  0
  -29.3270  -13.3191   20.1630 C   0  0  0  0  0  0  0  0  0  0  0  0
  -22.9867  -32.2985   27.5854 C   0  0  0  0  0  0  0  0  0  0  0  0
  -26.1808  -30.2596   21.2987 C   0  0  0  0  0  0  0  0  0  0  0  0
  -23.8115  -31.4939   26.7762 C   0  0  0  0  0  0  0  0  0  0  0  0
  -25.5069  -29.2321   20.6233 C   0  0  0  0  0  0  0  0  0  0  0  0
  -28.5592  -21.0018   17.9128 C   0  0  0  0  0  0  0  0  0  0  0  0
  -29.0095  -21.1981   19.2183 C   0  0  0  0  0  0  0  0  0  0  0  0
  -24.3957  -11.6888   20.4782 C   0  0  0  0  0  0  0  0  0  0  0  0
  -27.6117  -28.0462   20.3529 C   0  0  0  0  0  0  0  0  0  0  0  0
  -29.4298  -23.5252   18.7234 C   0  0  0  0  0  0  0  0  0  0  0  0
  -23.2082   -9.6758   20.7233 C   0  0  0  0  0  0  0  0  0  0  0  0
  -23.2086   -6.9548   21.3384 C   0  0  0  0  0  0  0  0  0  0  0  0
  -22.4336   -9.1999   21.7812 C   0  0  0  0  0  0  0  0  0  0  0  0
  -28.0857  -13.7492   20.6690 C   0  0  0  0  0  0  0  0  0  0  0  0
  -30.1963  -14.3351   20.4766 C   0  0  0  0  0  0  0  0  0  0  0  0
  -29.6640  -12.1093   19.4713 C   0  0  0  0  0  0  0  0  0  0  0  0
  -23.6736  -30.4083   23.2470 C   0  0  0  0  0  0  0  0  0  0  0  0
  -22.0399  -30.8406   20.4782 C   0  0  0  0  0  0  0  0  0  0  0  0
  -21.9028  -30.4026   17.0964 C   0  0  0  0  0  0  0  0  0  0  0  0
  -29.4542  -20.1789   21.4788 C   0  0  0  0  0  0  0  0  0  0  0  0
  -21.4835  -32.2636   27.4682 C   0  0  0  0  0  0  0  0  0  0  0  0
  -25.4322  -31.4701   21.7855 C   0  0  0  0  0  0  0  0  0  0  0  0
  -24.0200  -29.2797   20.3882 C   0  0  0  0  0  0  0  0  0  0  0  0
  -20.9886  -31.6535   26.1593 C   0  0  0  0  0  0  0  0  0  0  0  0
  -30.8952  -17.8029   23.7048 C   0  0  0  0  0  0  0  0  0  0  0  0
  -21.7348  -30.3576   25.8586 C   0  0  0  0  0  0  0  0  0  0  0  0
  -30.4563  -16.4544   23.1294 C   0  0  0  0  0  0  0  0  0  0  0  0
  -29.8060  -18.8638   23.5577 C   0  0  0  0  0  0  0  0  0  0  0  0
  -28.8447  -17.6841   21.6203 C   0  0  0  0  0  0  0  0  0  0  0  0
  -23.2372  -30.6129   25.6880 C   0  0  1  0  0  0  0  0  0  0  0  0
  -23.9455  -31.2057   22.0029 C   0  0  1  0  0  0  0  0  0  0  0  0
  -29.9333  -16.6005   21.6869 C   0  0  2  0  0  0  0  0  0  0  0  0
  -20.4249  -30.8276   15.1133 C   0  0  0  0  0  0  0  0  0  0  0  0
  -20.2484  -28.5181   21.3186 C   0  0  0  0  0  0  0  0  0  0  0  0
  -19.4415  -28.3756   18.9529 C   0  0  0  0  0  0  0  0  0  0  0  0
  -19.0390  -30.4469   20.2834 C   0  0  0  0  0  0  0  0  0  0  0  0
  -23.9371  -32.1186   15.8018 C   0  0  0  0  0  0  0  0  0  0  0  0
  -29.4750  -26.5925   20.6193 C   0  0  0  0  0  0  0  0  0  1  0  0
  -29.6780  -25.0951   20.4925 C   0  0  0  0  0  0  0  0  0  0  0  0
  -21.3774  -29.9285   19.4741 C   0  0  1  0  0  0  0  0  0  0  0  0
  -21.5629  -31.3613   15.9695 C   0  0  2  0  0  0  0  0  0  0  0  0
  -20.0543  -29.3152   20.0132 C   0  0  0  0  0  0  0  0  0  0  0  0
  -28.1560  -14.9452   21.2594 N   0  0  0  0  0  0  0  0  0  0  0  0
  -29.4520  -15.2753   21.1264 N   0  0  0  0  0  0  0  0  0  0  0  0
  -23.3314  -30.4810   20.8885 N   0  0  0  0  0  0  0  0  0  0  0  0
  -29.3624  -18.9492   22.1646 N   0  0  0  0  0  0  0  0  0  0  0  0
  -28.1138  -19.7325   17.4807 N   0  0  0  0  0  0  0  0  0  0  0  0
  -31.5172  -14.5071   20.2573 N   0  0  0  0  0  0  0  0  0  0  0  0
  -28.6499  -11.1722   19.2312 N   0  0  0  0  0  0  0  0  0  0  0  0
  -29.0335  -20.1310   20.1502 N   0  0  0  0  0  0  0  0  0  0  0  0
  -23.5090  -31.1772   24.3833 N   0  0  0  0  0  0  0  0  0  0  0  0
  -21.2192  -30.7115   18.2534 N   0  0  0  0  0  0  0  0  0  0  0  0
  -22.7501  -31.5735   15.0941 N   0  3  0  0  0  0  0  0  0  0  0  0
  -30.8334  -11.8591   19.0923 O   0  0  0  0  0  0  0  0  0  0  0  0
  -23.6159  -29.1860   23.1806 O   0  0  0  0  0  0  0  0  0  0  0  0
  -21.4365  -31.8394   20.8781 O   0  0  0  0  0  0  0  0  0  0  0  0
  -22.6928  -29.4706   16.9626 O   0  0  0  0  0  0  0  0  0  0  0  0
  -29.9004  -21.1929   22.0217 O   0  0  0  0  0  0  0  0  0  0  0  0
  -23.2084  -11.0262   20.4162 O   0  0  0  0  0  0  0  0  0  0  0  0
  -28.3033  -26.9669   19.8960 O   0  0  0  0  0  0  0  0  0  1  0  0
  -29.8568  -24.7650   19.1205 O   0  0  0  0  0  0  0  0  0  0  0  0
  -23.2077   -5.6480   21.6327 F   0  0  0  0  0  0  0  0  0  0  0  0
  -21.6864  -10.0446   22.5050 F   0  0  0  0  0  0  0  0  0  0  0  0
  1  2  1  0  0  0  0
  1  5  2  0  0  0  0
  2  6  2  0  0  0  0
  3  9  2  0  0  0  0
  3 18  1  0  0  0  0
  4 10  1  0  0  0  0
  4 18  2  0  0  0  0
  5 20  1  0  0  0  0
  6 22  1  0  0  0  0
  7 11  2  0  0  0  0
  7 21  1  0  0  0  0
  8 12  2  0  0  0  0
  8 24  1  0  0  0  0
  9 26  1  0  0  0  0
 10 26  2  0  0  0  0
 11 27  1  0  0  0  0
 12 28  1  0  0  0  0
 13 14  2  0  0  0  0
 13 29  1  0  0  0  0
 14 30  1  0  0  0  0
 15 23  1  0  0  0  0
 15 27  2  0  0  0  0
 16 25  1  0  0  0  0
 16 28  2  0  0  0  0
 17 30  2  0  0  0  0
 17 31  1  0  0  0  0
 18 32  1  0  0  0  0
 19 32  1  0  0  0  0
 19 33  2  0  0  0  0
 19 34  1  0  0  0  0
 20 22  2  0  0  0  0
 20 39  1  0  0  0  0
 21 23  2  0  0  0  0
 21 40  1  0  0  0  0
 22 48  1  0  0  0  0
 23 41  1  0  0  0  0
 24 25  2  0  0  0  0
 24 65  1  0  0  0  0
 25 68  1  0  0  0  0
 26 77  1  0  0  0  0
 27 78  1  0  0  0  0
 28 79  1  0  0  0  0
 29 31  2  0  0  0  0
 29 77  1  0  0  0  0
 30 80  1  0  0  0  0
 31 81  1  0  0  0  0
 32 61  2  0  0  0  0
 33 62  1  0  0  0  0
 33 66  1  0  0  0  0
 34 67  1  0  0  0  0
 34 72  2  0  0  0  0
 35 49  1  0  0  0  0
 35 69  1  0  0  0  0
 35 73  2  0  0  0  0
 36 58  1  0  0  0  0
 36 63  1  0  0  0  0
 36 74  2  0  0  0  0
 37 59  1  0  0  0  0
 37 70  1  0  0  0  0
 37 75  2  0  0  0  0
 38 64  1  0  0  0  0
 38 68  1  0  0  0  0
 38 76  2  0  0  0  0
 39 42  1  0  0  0  0
 40 49  1  0  0  0  0
 41 63  1  0  0  0  0
 42 44  1  0  0  0  0
 43 45  1  0  0  0  0
 43 46  1  0  0  0  0
 44 48  1  0  0  0  0
 45 50  1  0  0  0  0
 46 64  1  0  0  0  0
 47 50  1  0  0  0  0
 47 64  1  0  0  0  0
 48 69  1  0  0  0  0
 49 63  1  0  0  0  0
 50 62  1  0  0  0  0
 51 59  1  0  0  0  0
 52 60  1  0  0  0  0
 53 60  1  0  0  0  0
 54 60  1  0  0  0  0
 55 71  1  0  0  0  0
 56 57  1  0  0  0  0
 56 78  1  0  0  0  0
 57 79  1  0  0  0  0
 58 60  1  0  0  0  0
 58 70  1  0  0  0  0
 59 71  1  0  0  0  0
 61 62  1  0  0  0  0
M  CHG  1  71   1
M  ISO  4  38 100  56 101  68 100  78 101
M  END
> <Batch ID>
0009

> <Smiles>
CNC(C)C(=O)NC(C(=O)N1Cc2cc([101O:1][101CH2:1]COc3ccc(N)c([100NH:0][100C:0](=O)N4CCCC(n5nc(-c6ccc(Oc7ccc(F)cc7F)cc6)c(C(N)=O)c5N)C4)c3)ccc2CC1C(=O)NC1CCCc2ccccc21)C(C)(C)C

> <Shape>
0.301

> <Color>
0.102

> <Negative vol penalty>
0.000

$$$$

  -OEChem-04052315382D

  0  0  0     0  0  0  0  0  0999 V2000
M  END
$$$$

  -OEChem-04052315383D

 81 89  0     1  0  0  0  0  0999 V2000
  -24.5738  -32.0556   29.0851 C   0  0  0  0  0  0  0  0  0  0  0  0
  -25.3302  -31.2090   28.2810 C   0  0  0  0  0  0  0  0  0  0  0  0
  -24.5838   -8.9930   21.5609 C   0  0  0  0  0  0  0  0  0  0  0  0
  -23.9301  -10.7076   23.1324 C   0  0  0  0  0  0  0  0  0  0  0  0
  -23.2505  -32.3371   28.7479 C   0  0  0  0  0  0  0  0  0  0  0  0
  -24.7634  -30.6426   27.1398 C   0  0  0  0  0  0  0  0  0  0  0  0
  -27.5845  -29.4338   21.8402 C   0  0  0  0  0  0  0  0  0  0  0  0
  -26.0332  -20.6131   19.0839 C   0  0  0  0  0  0  0  0  0  0  0  0
  -28.3128  -21.0359   19.7633 C   0  0  0  0  0  0  0  0  0  0  0  0
  -26.2893  -19.2420   19.0780 C   0  0  0  0  0  0  0  0  0  0  0  0
  -28.5689  -19.6648   19.7575 C   0  0  0  0  0  0  0  0  0  0  0  0
  -24.1521   -8.0111   22.4525 C   0  0  0  0  0  0  0  0  0  0  0  0
  -23.4983   -9.7257   24.0241 C   0  0  0  0  0  0  0  0  0  0  0  0
  -28.1273  -28.2632   21.3122 C   0  0  0  0  0  0  0  0  0  0  0  0
  -22.8900   -5.0635   24.1653 C   0  0  0  0  0  0  0  0  0  0  0  0
  -22.1309   -4.0112   23.6535 C   0  0  0  0  0  0  0  0  0  0  0  0
  -26.0782  -27.8657   20.1028 C   0  0  0  0  0  0  0  0  0  0  0  0
  -20.4569   -5.5836   22.9034 C   0  0  0  0  0  0  0  0  0  0  0  0
  -24.4729  -10.3413   21.9008 C   0  0  0  0  0  0  0  0  0  0  0  0
  -24.1598  -11.9867   19.9767 C   0  0  0  0  0  0  0  0  0  0  0  0
  -22.6702  -31.7815   27.5968 C   0  0  0  0  0  0  0  0  0  0  0  0
  -26.2784  -29.8242   21.5115 C   0  0  0  0  0  0  0  0  0  0  0  0
  -23.4307  -30.9159   26.7877 C   0  0  0  0  0  0  0  0  0  0  0  0
  -25.5221  -29.0431   20.6259 C   0  0  0  0  0  0  0  0  0  0  0  0
  -27.0450  -21.5101   19.4265 C   0  0  0  0  0  0  0  0  0  0  0  0
  -27.5571  -18.7678   19.4148 C   0  0  0  0  0  0  0  0  0  0  0  0
  -23.6093   -8.3774   23.6841 C   0  0  0  0  0  0  0  0  0  0  0  0
  -27.3731  -27.4774   20.4456 C   0  0  0  0  0  0  0  0  0  0  0  0
  -22.4325   -6.3759   24.0463 C   0  0  0  0  0  0  0  0  0  0  0  0
  -20.9144   -4.2712   23.0225 C   0  0  0  0  0  0  0  0  0  0  0  0
  -21.2160   -6.6359   23.4154 C   0  0  0  0  0  0  0  0  0  0  0  0
  -24.9192  -11.3560   20.9804 C   0  0  0  0  0  0  0  0  0  0  0  0
  -25.0349  -12.8643   19.3845 C   0  0  0  0  0  0  0  0  0  0  0  0
  -22.7863  -11.7963   19.6123 C   0  0  0  0  0  0  0  0  0  0  0  0
  -23.5940  -30.2814   23.1513 C   0  0  0  0  0  0  0  0  0  0  0  0
  -22.4912  -31.3523   20.2948 C   0  0  0  0  0  0  0  0  0  0  0  0
  -27.6711  -23.9268   19.7453 C   0  0  0  0  0  0  0  0  0  0  0  0
  -22.7599  -31.3303   16.8927 C   0  0  0  0  0  0  0  0  0  0  0  0
  -29.0196  -16.7391   19.7174 C   0  0  0  0  0  0  0  0  0  0  0  0
  -21.2216  -32.0776   27.2989 C   0  0  0  0  0  0  0  0  0  0  0  0
  -25.7170  -31.1037   22.0684 C   0  0  0  0  0  0  0  0  0  0  0  0
  -24.1224  -29.4288   20.2255 C   0  0  0  0  0  0  0  0  0  0  0  0
  -20.8113  -31.7344   25.8692 C   0  0  0  0  0  0  0  0  0  0  0  0
  -30.0527  -13.3346   19.8560 C   0  0  0  0  0  0  0  0  0  0  0  0
  -21.3270  -30.3517   25.4832 C   0  0  0  0  0  0  0  0  0  0  0  0
  -28.7467  -12.5682   20.0783 C   0  0  0  0  0  0  0  0  0  0  0  0
  -30.0634  -14.6660   20.6050 C   0  0  0  0  0  0  0  0  0  0  0  0
  -27.6023  -14.7679   20.5667 C   0  0  0  0  0  0  0  0  0  0  0  0
  -22.8590  -30.3018   25.5283 C   0  0  1  0  0  0  0  0  0  0  0  0
  -24.1918  -31.1363   22.0699 C   0  0  1  0  0  0  0  0  0  0  0  0
  -27.5182  -13.4498   19.7799 C   0  0  2  0  0  0  0  0  0  0  0  0
  -21.6939  -32.2743   14.8264 C   0  0  0  0  0  0  0  0  0  0  0  0
  -20.1808  -29.3813   20.5893 C   0  0  0  0  0  0  0  0  0  0  0  0
  -19.7107  -29.6750   18.1478 C   0  0  0  0  0  0  0  0  0  0  0  0
  -19.5309  -31.6242   19.6941 C   0  0  0  0  0  0  0  0  0  0  0  0
  -25.2535  -32.7114   16.0967 C   0  0  0  0  0  0  0  0  0  0  0  0
  -26.9897  -25.2775   19.6276 C   0  0  0  0  0  0  0  0  0  1  0  0
  -21.8158  -30.7173   19.1034 C   0  0  1  0  0  0  0  0  0  0  0  0
  -22.7785  -32.4579   15.8765 C   0  0  2  0  0  0  0  0  0  0  0  0
  -20.3352  -30.3409   19.3925 C   0  0  0  0  0  0  0  0  0  0  0  0
  -26.1797  -11.7955   21.0261 N   0  0  0  0  0  0  0  0  0  0  0  0
  -26.2191  -12.7116   20.0437 N   0  0  0  0  0  0  0  0  0  0  0  0
  -23.6156  -30.6853   20.8015 N   0  0  0  0  0  0  0  0  0  0  0  0
  -28.8721  -15.4491   20.2696 N   0  0  0  0  0  0  0  0  0  0  0  0
  -24.8991  -13.7439   18.3695 N   0  0  0  0  0  0  0  0  0  0  0  0
  -22.0305  -10.8547   20.3240 N   0  0  0  0  0  0  0  0  0  0  0  0
  -26.7856  -22.9012   19.4322 N   0  0  0  0  0  0  0  0  0  0  0  0
  -27.8175  -17.3750   19.4089 N   0  0  0  0  0  0  0  0  0  0  0  0
  -23.4201  -30.9370   24.3552 N   0  0  0  0  0  0  0  0  0  0  0  0
  -21.9901  -31.6463   17.9922 N   0  0  0  0  0  0  0  0  0  0  0  0
  -24.0977  -32.5106   15.1853 N   0  3  0  0  0  0  0  0  0  0  0  0
  -22.2497  -12.4303   18.6723 O   0  0  0  0  0  0  0  0  0  0  0  0
  -23.3101  -29.1138   22.9107 O   0  0  0  0  0  0  0  0  0  0  0  0
  -22.0422  -32.4053   20.7544 O   0  0  0  0  0  0  0  0  0  0  0  0
  -28.8478  -23.8276   20.0773 O   0  0  0  0  0  0  0  0  0  0  0  0
  -23.3647  -30.2734   16.7261 O   0  0  0  0  0  0  0  0  0  0  0  0
  -30.1309  -17.2316   19.5066 O   0  0  0  0  0  0  0  0  0  0  0  0
  -23.1877   -7.4196   24.5544 O   0  0  0  0  0  0  0  0  0  0  0  0
  -27.9002  -26.3340   19.9294 O   0  0  0  0  0  0  0  0  0  1  0  0
  -20.1862   -3.2608   22.5296 F   0  0  0  0  0  0  0  0  0  0  0  0
  -20.7719   -7.8947   23.2970 F   0  0  0  0  0  0  0  0  0  0  0  0
  1  2  1  0  0  0  0
  1  5  2  0  0  0  0
  2  6  2  0  0  0  0
  3 12  2  0  0  0  0
  3 19  1  0  0  0  0
  4 13  1  0  0  0  0
  4 19  2  0  0  0  0
  5 21  1  0  0  0  0
  6 23  1  0  0  0  0
  7 14  2  0  0  0  0
  7 22  1  0  0  0  0
  8 10  2  0  0  0  0
  8 25  1  0  0  0  0
  9 11  1  0  0  0  0
  9 25  2  0  0  0  0
 10 26  1  0  0  0  0
 11 26  2  0  0  0  0
 12 27  1  0  0  0  0
 13 27  2  0  0  0  0
 14 28  1  0  0  0  0
 15 16  2  0  0  0  0
 15 29  1  0  0  0  0
 16 30  1  0  0  0  0
 17 24  1  0  0  0  0
 17 28  2  0  0  0  0
 18 30  2  0  0  0  0
 18 31  1  0  0  0  0
 19 32  1  0  0  0  0
 20 32  1  0  0  0  0
 20 33  2  0  0  0  0
 20 34  1  0  0  0  0
 21 23  2  0  0  0  0
 21 40  1  0  0  0  0
 22 24  2  0  0  0  0
 22 41  1  0  0  0  0
 23 49  1  0  0  0  0
 24 42  1  0  0  0  0
 25 67  1  0  0  0  0
 26 68  1  0  0  0  0
 27 78  1  0  0  0  0
 28 79  1  0  0  0  0
 29 31  2  0  0  0  0
 29 78  1  0  0  0  0
 30 80  1  0  0  0  0
 31 81  1  0  0  0  0
 32 61  2  0  0  0  0
 33 62  1  0  0  0  0
 33 65  1  0  0  0  0
 34 66  1  0  0  0  0
 34 72  2  0  0  0  0
 35 50  1  0  0  0  0
 35 69  1  0  0  0  0
 35 73  2  0  0  0  0
 36 58  1  0  0  0  0
 36 63  1  0  0  0  0
 36 74  2  0  0  0  0
 37 57  1  0  0  0  0
 37 67  1  0  0  0  0
 37 75  2  0  0  0  0
 38 59  1  0  0  0  0
 38 70  1  0  0  0  0
 38 76  2  0  0  0  0
 39 64  1  0  0  0  0
 39 68  1  0  0  0  0
 39 77  2  0  0  0  0
 40 43  1  0  0  0  0
 41 50  1  0  0  0  0
 42 63  1  0  0  0  0
 43 45  1  0  0  0  0
 44 46  1  0  0  0  0
 44 47  1  0  0  0  0
 45 49  1  0  0  0  0
 46 51  1  0  0  0  0
 47 64  1  0  0  0  0
 48 51  1  0  0  0  0
 48 64  1  0  0  0  0
 49 69  1  0  0  0  0
 50 63  1  0  0  0  0
 51 62  1  0  0  0  0
 52 59  1  0  0  0  0
 53 60  1  0  0  0  0
 54 60  1  0  0  0  0
 55 60  1  0  0  0  0
 56 71  1  0  0  0  0
 57 79  1  0  0  0  0
 58 60  1  0  0  0  0
 58 70  1  0  0  0  0
 59 71  1  0  0  0  0
 61 62  1  0  0  0  0
M  CHG  1  71   1
M  ISO  4  39 100  57 101  68 100  79 101
M  END
> <Batch ID>
0009

> <Smiles>
CNC(C)C(=O)NC(C(=O)N1Cc2cc([101O:1][101CH2:1]C(=O)Nc3ccc([100NH:0][100C:0](=O)N4CCCC(n5nc(-c6ccc(Oc7ccc(F)cc7F)cc6)c(C(N)=O)c5N)C4)cc3)ccc2CC1C(=O)NC1CCCc2ccccc21)C(C)(C)C

> <Shape>
0.258

> <Color>
0.118

> <Negative vol penalty>
0.000

$$$$

  -OEChem-04052315383D

 83 91  0     1  0  0  0  0  0999 V2000
  -30.3838  -32.9118   12.1787 C   0  0  0  0  0  0  0  0  0  0  0  0
  -30.5383  -31.7560   12.9375 C   0  0  0  0  0  0  0  0  0  0  0  0
  -23.7908   -9.6061   19.7755 C   0  0  0  0  0  0  0  0  0  0  0  0
  -24.5916   -9.6748   22.0538 C   0  0  0  0  0  0  0  0  0  0  0  0
  -29.9915  -34.1003   12.7930 C   0  0  0  0  0  0  0  0  0  0  0  0
  -30.3016  -31.7884   14.3113 C   0  0  0  0  0  0  0  0  0  0  0  0
  -27.9287  -27.3067   17.7449 C   0  0  0  0  0  0  0  0  0  0  0  0
  -29.0368  -19.9184   24.1940 C   0  0  0  0  0  0  0  0  0  0  0  0
  -29.0546  -21.0352   23.3586 C   0  0  0  0  0  0  0  0  0  0  0  0
  -23.4467   -8.2640   19.9369 C   0  0  0  0  0  0  0  0  0  0  0  0
  -24.2474   -8.3327   22.2153 C   0  0  0  0  0  0  0  0  0  0  0  0
  -28.5143  -26.3439   18.5658 C   0  0  0  0  0  0  0  0  0  0  0  0
  -21.4440   -6.5327   22.7823 C   0  0  0  0  0  0  0  0  0  0  0  0
  -20.7775   -6.1725   23.9534 C   0  0  0  0  0  0  0  0  0  0  0  0
  -28.1433  -27.7611   20.4823 C   0  0  0  0  0  0  0  0  0  0  0  0
  -22.5794   -4.6642   24.5150 C   0  0  0  0  0  0  0  0  0  0  0  0
  -24.3634  -10.3114   20.8339 C   0  0  0  0  0  0  0  0  0  0  0  0
  -23.9080  -12.8200   20.9193 C   0  0  0  0  0  0  0  0  0  0  0  0
  -29.7404  -34.1450   14.1734 C   0  0  0  0  0  0  0  0  0  0  0  0
  -27.4551  -28.5106   18.2859 C   0  0  0  0  0  0  0  0  0  0  0  0
  -29.9068  -32.9790   14.9448 C   0  0  0  0  0  0  0  0  0  0  0  0
  -27.5498  -28.7365   19.6665 C   0  0  0  0  0  0  0  0  0  0  0  0
  -28.9239  -18.6401   23.6473 C   0  0  0  0  0  0  0  0  0  0  0  0
  -28.8464  -19.5955   21.4296 C   0  0  0  0  0  0  0  0  0  0  0  0
  -28.9594  -20.8737   21.9764 C   0  0  0  0  0  0  0  0  0  0  0  0
  -28.8287  -18.4786   22.2651 C   0  0  0  0  0  0  0  0  0  0  0  0
  -23.6749   -7.6273   21.1568 C   0  0  0  0  0  0  0  0  0  0  0  0
  -28.6242  -26.5722   19.9343 C   0  0  0  0  0  0  0  0  0  0  0  0
  -22.6782   -5.9586   22.4774 C   0  0  0  0  0  0  0  0  0  0  0  0
  -21.3452   -5.2383   24.8198 C   0  0  0  0  0  0  0  0  0  0  0  0
  -23.2459   -5.0244   23.3438 C   0  0  0  0  0  0  0  0  0  0  0  0
  -24.7196  -11.6976   20.6676 C   0  0  0  0  0  0  0  0  0  0  0  0
  -24.7034  -13.8956   20.6081 C   0  0  0  0  0  0  0  0  0  0  0  0
  -22.5560  -12.8846   21.3920 C   0  0  0  0  0  0  0  0  0  0  0  0
  -28.1738  -31.5821   17.8941 C   0  0  0  0  0  0  0  0  0  0  0  0
  -25.6075  -32.0273   19.8276 C   0  0  0  0  0  0  0  0  0  0  0  0
  -29.0854  -23.3498   21.5435 C   0  0  0  0  0  0  0  0  0  0  0  0
  -23.5317  -30.7643   22.2239 C   0  0  0  0  0  0  0  0  0  0  0  0
  -29.5861  -16.5640   20.8136 C   0  0  0  0  0  0  0  0  0  0  0  0
  -29.3642  -35.4641   14.8005 C   0  0  0  0  0  0  0  0  0  0  0  0
  -26.8019  -29.5277   17.3907 C   0  0  0  0  0  0  0  0  0  0  0  0
  -27.0386  -30.0038   20.2996 C   0  0  0  0  0  0  0  0  0  0  0  0
  -28.7700  -35.3258   16.1998 C   0  0  0  0  0  0  0  0  0  0  0  0
  -29.1855  -14.1096   18.2656 C   0  0  0  0  0  0  0  0  0  0  0  0
  -29.6107  -34.3743   17.0451 C   0  0  0  0  0  0  0  0  0  0  0  0
  -27.9211  -13.3556   18.6840 C   0  0  0  0  0  0  0  0  0  0  0  0
  -30.0274  -14.5189   19.4728 C   0  0  0  0  0  0  0  0  0  0  0  0
  -28.0397  -14.5119   20.9282 C   0  0  0  0  0  0  0  0  0  0  0  0
  -29.6353  -32.9683   16.4335 C   0  0  1  0  0  0  0  0  0  0  0  0
  -26.8193  -30.9368   17.9750 C   0  0  1  0  0  0  0  0  0  0  0  0
  -27.1266  -14.1356   19.7499 C   0  0  2  0  0  0  0  0  0  0  0  0
  -28.9081  -17.4634   24.5687 C   0  0  0  0  0  0  0  0  0  0  0  0
  -28.7437  -19.4242   19.9451 C   0  0  0  0  0  0  0  0  0  0  0  0
  -21.5491  -31.3772   23.6349 C   0  0  0  0  0  0  0  0  0  0  0  0
  -27.4083  -33.7176   21.6193 C   0  0  0  0  0  0  0  0  0  0  0  0
  -25.6926  -33.5011   23.4297 C   0  0  0  0  0  0  0  0  0  0  0  0
  -25.1066  -34.6378   21.2879 C   0  0  0  0  0  0  0  0  0  0  0  0
  -21.8843  -28.6018   21.0540 C   0  0  0  0  0  0  0  0  0  0  0  0
  -29.0673  -24.2707   20.3376 C   0  0  0  0  0  0  0  0  0  1  0  0
  -25.3972  -32.1265   21.3192 C   0  0  1  0  0  0  0  0  0  0  0  0
  -22.0179  -30.7418   22.3352 C   0  0  2  0  0  0  0  0  0  0  0  0
  -25.9127  -33.4726   21.9021 C   0  0  0  0  0  0  0  0  0  0  0  0
  -25.9372  -12.0294   20.2302 N   0  0  0  0  0  0  0  0  0  0  0  0
  -25.8966  -13.3725   20.2044 N   0  0  0  0  0  0  0  0  0  0  0  0
  -26.4137  -30.9704   19.3816 N   0  0  0  0  0  0  0  0  0  0  0  0
  -29.2097  -15.2571   20.4378 N   0  0  0  0  0  0  0  0  0  0  0  0
  -24.4917  -15.2284   20.6431 N   0  0  0  0  0  0  0  0  0  0  0  0
  -21.8850  -11.6844   21.6633 N   0  0  0  0  0  0  0  0  0  0  0  0
  -28.9787  -22.0208   21.1479 N   0  0  0  0  0  0  0  0  0  0  0  0
  -28.7148  -17.1790   21.7120 N   0  0  0  0  0  0  0  0  0  0  0  0
  -28.3991  -32.2717   16.7180 N   0  0  0  0  0  0  0  0  0  0  0  0
  -23.9776  -31.8806   21.5485 N   0  0  0  0  0  0  0  0  0  0  0  0
  -21.5160  -29.3393   22.2899 N   0  3  0  0  0  0  0  0  0  0  0  0
  -21.9550  -13.9738   21.5531 O   0  0  0  0  0  0  0  0  0  0  0  0
  -28.9560  -31.4643   18.8300 O   0  0  0  0  0  0  0  0  0  0  0  0
  -25.0704  -32.8529   19.0849 O   0  0  0  0  0  0  0  0  0  0  0  0
  -29.1832  -23.7878   22.6850 O   0  0  0  0  0  0  0  0  0  0  0  0
  -24.2473  -29.8818   22.6927 O   0  0  0  0  0  0  0  0  0  0  0  0
  -30.5916  -17.1083   20.3502 O   0  0  0  0  0  0  0  0  0  0  0  0
  -23.3390   -6.3178   21.3147 O   0  0  0  0  0  0  0  0  0  0  0  0
  -29.1959  -25.6344   20.7378 O   0  0  0  0  0  0  0  0  0  1  0  0
  -20.7057   -4.8937   25.9452 F   0  0  0  0  0  0  0  0  0  0  0  0
  -24.4318   -4.4703   23.0569 F   0  0  0  0  0  0  0  0  0  0  0  0
  1  2  1  0  0  0  0
  1  5  2  0  0  0  0
  2  6  2  0  0  0  0
  3 10  2  0  0  0  0
  3 17  1  0  0  0  0
  4 11  1  0  0  0  0
  4 17  2  0  0  0  0
  5 19  1  0  0  0  0
  6 21  1  0  0  0  0
  7 12  2  0  0  0  0
  7 20  1  0  0  0  0
  8  9  2  0  0  0  0
  8 23  1  0  0  0  0
  9 25  1  0  0  0  0
 10 27  1  0  0  0  0
 11 27  2  0  0  0  0
 12 28  1  0  0  0  0
 13 14  2  0  0  0  0
 13 29  1  0  0  0  0
 14 30  1  0  0  0  0
 15 22  1  0  0  0  0
 15 28  2  0  0  0  0
 16 30  2  0  0  0  0
 16 31  1  0  0  0  0
 17 32  1  0  0  0  0
 18 32  1  0  0  0  0
 18 33  2  0  0  0  0
 18 34  1  0  0  0  0
 19 21  2  0  0  0  0
 19 40  1  0  0  0  0
 20 22  2  0  0  0  0
 20 41  1  0  0  0  0
 21 49  1  0  0  0  0
 22 42  1  0  0  0  0
 23 26  2  0  0  0  0
 23 52  1  0  0  0  0
 24 25  2  0  0  0  0
 24 26  1  0  0  0  0
 24 53  1  0  0  0  0
 25 69  1  0  0  0  0
 26 70  1  0  0  0  0
 27 80  1  0  0  0  0
 28 81  1  0  0  0  0
 29 31  2  0  0  0  0
 29 80  1  0  0  0  0
 30 82  1  0  0  0  0
 31 83  1  0  0  0  0
 32 63  2  0  0  0  0
 33 64  1  0  0  0  0
 33 67  1  0  0  0  0
 34 68  1  0  0  0  0
 34 74  2  0  0  0  0
 35 50  1  0  0  0  0
 35 71  1  0  0  0  0
 35 75  2  0  0  0  0
 36 60  1  0  0  0  0
 36 65  1  0  0  0  0
 36 76  2  0  0  0  0
 37 59  1  0  0  0  0
 37 69  1  0  0  0  0
 37 77  2  0  0  0  0
 38 61  1  0  0  0  0
 38 72  1  0  0  0  0
 38 78  2  0  0  0  0
 39 66  1  0  0  0  0
 39 70  1  0  0  0  0
 39 79  2  0  0  0  0
 40 43  1  0  0  0  0
 41 50  1  0  0  0  0
 42 65  1  0  0  0  0
 43 45  1  0  0  0  0
 44 46  1  0  0  0  0
 44 47  1  0  0  0  0
 45 49  1  0  0  0  0
 46 51  1  0  0  0  0
 47 66  1  0  0  0  0
 48 51  1  0  0  0  0
 48 66  1  0  0  0  0
 49 71  1  0  0  0  0
 50 65  1  0  0  0  0
 51 64  1  0  0  0  0
 54 61  1  0  0  0  0
 55 62  1  0  0  0  0
 56 62  1  0  0  0  0
 57 62  1  0  0  0  0
 58 73  1  0  0  0  0
 59 81  1  0  0  0  0
 60 62  1  0  0  0  0
 60 72  1  0  0  0  0
 61 73  1  0  0  0  0
 63 64  1  0  0  0  0
M  CHG  1  73   1
M  ISO  4  39 100  59 101  70 100  81 101
M  END
> <Batch ID>
0009

> <Smiles>
CNC(C)C(=O)NC(C(=O)N1Cc2cc([101O:1][101CH2:1]C(=O)Nc3ccc(C)c([100NH:0][100C:0](=O)N4CCCC(n5nc(-c6ccc(Oc7ccc(F)cc7F)cc6)c(C(N)=O)c5N)C4)c3C)ccc2CC1C(=O)NC1CCCc2ccccc21)C(C)(C)C

> <Shape>
0.267

> <Color>
0.123

> <Negative vol penalty>
0.000

$$$$

  -OEChem-04052315383D

 87 94  0     1  0  0  0  0  0999 V2000
  -24.1670  -23.7296   22.3761 C   0  0  0  0  0  0  0  0  0  0  0  0
  -24.6701  -22.7230   21.5596 C   0  0  0  0  0  0  0  0  0  0  0  0
  -22.5814  -28.9933   20.7276 C   0  0  0  0  0  0  0  0  0  0  0  0
  -23.7010  -28.5335   22.8186 C   0  0  0  0  0  0  0  0  0  0  0  0
  -23.8350  -23.4476   23.6995 C   0  0  0  0  0  0  0  0  0  0  0  0
  -24.8303  -21.4315   22.0628 C   0  0  0  0  0  0  0  0  0  0  0  0
  -26.1238  -17.9292   18.8591 C   0  0  0  0  0  0  0  0  0  0  0  0
  -21.3593  -29.0598   21.3966 C   0  0  0  0  0  0  0  0  0  0  0  0
  -22.4788  -28.6000   23.4876 C   0  0  0  0  0  0  0  0  0  0  0  0
  -27.4004  -17.8494   18.3043 C   0  0  0  0  0  0  0  0  0  0  0  0
  -19.0871  -26.8959   22.6532 C   0  0  0  0  0  0  0  0  0  0  0  0
  -17.9995  -26.2356   22.0817 C   0  0  0  0  0  0  0  0  0  0  0  0
  -27.9273  -16.0267   19.7941 C   0  0  0  0  0  0  0  0  0  0  0  0
  -16.8071  -28.3313   21.9293 C   0  0  0  0  0  0  0  0  0  0  0  0
  -23.7523  -28.7301   21.4386 C   0  0  0  0  0  0  0  0  0  0  0  0
  -25.9090  -29.7201   20.5026 C   0  0  0  0  0  0  0  0  0  0  0  0
  -24.0032  -22.1547   24.2220 C   0  0  0  0  0  0  0  0  0  0  0  0
  -25.7424  -17.0641   19.8947 C   0  0  0  0  0  0  0  0  0  0  0  0
  -24.4785  -21.1214   23.3890 C   0  0  0  0  0  0  0  0  0  0  0  0
  -26.6444  -16.0959   20.3585 C   0  0  0  0  0  0  0  0  0  0  0  0
  -21.3079  -28.8632   22.7766 C   0  0  0  0  0  0  0  0  0  0  0  0
  -28.3033  -16.9000   18.7738 C   0  0  0  0  0  0  0  0  0  0  0  0
  -19.0347  -28.2740   22.8629 C   0  0  0  0  0  0  0  0  0  0  0  0
  -16.8595  -26.9533   21.7197 C   0  0  0  0  0  0  0  0  0  0  0  0
  -17.8947  -28.9917   22.5009 C   0  0  0  0  0  0  0  0  0  0  0  0
  -25.0150  -28.6607   20.7481 C   0  0  0  0  0  0  0  0  0  0  0  0
  -26.9494  -29.1399   19.8189 C   0  0  0  0  0  0  0  0  0  0  0  0
  -25.8081  -31.1047   20.8607 C   0  0  0  0  0  0  0  0  0  0  0  0
  -24.8417  -17.4458   22.9191 C   0  0  0  0  0  0  0  0  0  0  0  0
  -24.3003  -14.2518   22.7528 C   0  0  0  0  0  0  0  0  0  0  0  0
  -29.6810  -21.7717   22.2695 C   0  0  0  0  0  0  0  0  0  0  0  0
  -31.8544  -15.2707   18.7895 C   0  0  0  0  0  0  0  0  0  0  0  0
  -25.0032  -11.2683   21.2523 C   0  0  0  0  0  0  0  0  0  0  0  0
  -29.0629  -23.5423   19.5940 C   0  0  0  0  0  0  0  0  0  0  0  0
  -23.6206  -21.9031   25.6591 C   0  0  0  0  0  0  0  0  0  0  0  0
  -24.3526  -17.1453   20.4642 C   0  0  0  0  0  0  0  0  0  0  0  0
  -26.2772  -15.1304   21.4546 C   0  0  0  0  0  0  0  0  0  0  0  0
  -24.2375  -20.6277   26.2241 C   0  0  0  0  0  0  0  0  0  0  0  0
  -27.9222  -25.5116   16.8559 C   0  0  0  0  0  0  0  0  0  0  0  0
  -23.9982  -19.4675   25.2696 C   0  0  0  0  0  0  0  0  0  0  0  0
  -27.1284  -26.6376   17.5207 C   0  0  0  0  0  0  0  0  0  0  0  0
  -27.7493  -24.1865   17.5950 C   0  0  0  0  0  0  0  0  0  0  0  0
  -27.2562  -25.3645   19.7029 C   0  0  0  0  0  0  0  0  0  0  0  0
  -24.6899  -19.7163   23.9233 C   0  0  1  0  0  0  0  0  0  0  0  0
  -24.2460  -16.5542   21.8665 C   0  0  1  0  0  0  0  0  0  0  0  0
  -27.4437  -26.7329   19.0257 C   0  0  2  0  0  0  0  0  0  0  0  0
  -31.5094  -14.2219   16.5245 C   0  0  0  0  0  0  0  0  0  0  0  0
  -24.4328   -8.8269   21.3591 C   0  0  0  0  0  0  0  0  0  0  0  0
  -26.0600  -13.9513   25.2273 C   0  0  0  0  0  0  0  0  0  0  0  0
  -26.2291  -11.5045   24.7243 C   0  0  0  0  0  0  0  0  0  0  0  0
  -24.0077  -12.5222   25.2269 C   0  0  0  0  0  0  0  0  0  0  0  0
  -23.9287  -11.2800   18.4947 C   0  0  0  0  0  0  0  0  0  0  0  0
  -30.3046  -23.0177   21.6777 C   0  0  0  0  0  0  0  0  0  0  0  0
  -32.0028  -18.4635   22.2957 C   0  0  0  0  0  0  0  0  0  0  0  0
  -32.2122  -17.2599   21.3734 C   0  0  0  0  0  0  0  0  0  0  0  0
  -30.5365  -18.5820   22.7253 C   0  0  0  0  0  0  0  0  0  0  0  0
  -33.6627  -17.0954   20.9052 C   0  0  0  0  0  0  0  0  0  0  0  0
  -30.2897  -19.7805   23.6364 C   0  0  0  0  0  0  0  0  0  0  0  0
  -33.9207  -15.8715   20.0312 C   0  0  0  0  0  0  0  0  0  0  0  0
  -25.1233  -13.0130   23.0118 C   0  0  1  0  0  0  0  0  0  0  0  0
  -31.1990  -15.4131   17.4227 C   0  0  1  0  0  0  0  0  0  0  0  0
  -24.0996  -10.1684   20.7250 C   0  0  2  0  0  0  0  0  0  0  0  0
  -25.3629  -12.7671   24.5283 C   0  0  0  0  0  0  0  0  0  0  0  0
  -25.4494  -27.4958   20.2599 N   0  0  0  0  0  0  0  0  0  0  0  0
  -26.6277  -27.8198   19.7007 N   0  0  0  0  0  0  0  0  0  0  0  0
  -24.9088  -15.2537   21.9836 N   0  0  0  0  0  0  0  0  0  0  0  0
  -28.0653  -24.3450   19.0166 N   0  0  0  0  0  0  0  0  0  0  0  0
  -28.0989  -29.6353   19.3133 N   0  0  0  0  0  0  0  0  0  0  0  0
  -24.6724  -31.5324   21.5619 N   0  0  0  0  0  0  0  0  0  0  0  0
  -24.2695  -18.7020   22.9819 N   0  0  0  0  0  0  0  0  0  0  0  0
  -30.6044  -21.0308   23.0016 N   0  0  0  0  0  0  0  0  0  0  0  0
  -33.1098  -15.8608   18.8363 N   0  0  0  0  0  0  0  0  0  0  0  0
  -24.4403  -11.9192   22.3297 N   0  0  0  0  0  0  0  0  0  0  0  0
  -29.3042  -23.7611   20.9447 N   0  0  0  0  0  0  0  0  0  0  0  0
  -29.7638  -15.4953   17.6534 N   0  0  0  0  0  0  0  0  0  1  0  0
  -24.2480  -10.0398   19.2477 N   0  3  0  0  0  0  0  0  0  0  0  0
  -26.6908  -31.9412   20.5531 O   0  0  0  0  0  0  0  0  0  0  0  0
  -25.7520  -17.0247   23.6231 O   0  0  0  0  0  0  0  0  0  0  0  0
  -23.1569  -14.3247   23.2100 O   0  0  0  0  0  0  0  0  0  0  0  0
  -28.5102  -21.4504   22.0831 O   0  0  0  0  0  0  0  0  0  0  0  0
  -31.3082  -14.7065   19.7353 O   0  0  0  0  0  0  0  0  0  0  0  0
  -26.1005  -11.5221   20.7602 O   0  0  0  0  0  0  0  0  0  0  0  0
  -29.6957  -22.6972   18.9518 O   0  0  0  0  0  0  0  0  0  0  0  0
  -20.1156  -28.9283   23.4297 O   0  0  0  0  0  0  0  0  0  0  0  0
  -29.5502  -16.8204   18.2346 O   0  0  0  0  0  0  0  0  0  1  0  0
  -15.8158  -26.3192   21.1694 F   0  0  0  0  0  0  0  0  0  0  0  0
  -17.8390  -30.3159   22.6987 F   0  0  0  0  0  0  0  0  0  0  0  0
  1  2  1  0  0  0  0
  1  5  2  0  0  0  0
  2  6  2  0  0  0  0
  3  8  2  0  0  0  0
  3 15  1  0  0  0  0
  4  9  1  0  0  0  0
  4 15  2  0  0  0  0
  5 17  1  0  0  0  0
  6 19  1  0  0  0  0
  7 10  2  0  0  0  0
  7 18  1  0  0  0  0
  8 21  1  0  0  0  0
  9 21  2  0  0  0  0
 10 22  1  0  0  0  0
 11 12  2  0  0  0  0
 11 23  1  0  0  0  0
 12 24  1  0  0  0  0
 13 20  1  0  0  0  0
 13 22  2  0  0  0  0
 14 24  2  0  0  0  0
 14 25  1  0  0  0  0
 15 26  1  0  0  0  0
 16 26  1  0  0  0  0
 16 27  2  0  0  0  0
 16 28  1  0  0  0  0
 17 19  2  0  0  0  0
 17 35  1  0  0  0  0
 18 20  2  0  0  0  0
 18 36  1  0  0  0  0
 19 44  1  0  0  0  0
 20 37  1  0  0  0  0
 21 84  1  0  0  0  0
 22 85  1  0  0  0  0
 23 25  2  0  0  0  0
 23 84  1  0  0  0  0
 24 86  1  0  0  0  0
 25 87  1  0  0  0  0
 26 64  2  0  0  0  0
 27 65  1  0  0  0  0
 27 68  1  0  0  0  0
 28 69  1  0  0  0  0
 28 77  2  0  0  0  0
 29 45  1  0  0  0  0
 29 70  1  0  0  0  0
 29 78  2  0  0  0  0
 30 60  1  0  0  0  0
 30 66  1  0  0  0  0
 30 79  2  0  0  0  0
 31 53  1  0  0  0  0
 31 71  1  0  0  0  0
 31 80  2  0  0  0  0
 32 61  1  0  0  0  0
 32 72  1  0  0  0  0
 32 81  2  0  0  0  0
 33 62  1  0  0  0  0
 33 73  1  0  0  0  0
 33 82  2  0  0  0  0
 34 67  1  0  0  0  0
 34 74  1  0  0  0  0
 34 83  2  0  0  0  0
 35 38  1  0  0  0  0
 36 45  1  0  0  0  0
 37 66  1  0  0  0  0
 38 40  1  0  0  0  0
 39 41  1  0  0  0  0
 39 42  1  0  0  0  0
 40 44  1  0  0  0  0
 41 46  1  0  0  0  0
 42 67  1  0  0  0  0
 43 46  1  0  0  0  0
 43 67  1  0  0  0  0
 44 70  1  0  0  0  0
 45 66  1  0  0  0  0
 46 65  1  0  0  0  0
 47 61  1  0  0  0  0
 48 62  1  0  0  0  0
 49 63  1  0  0  0  0
 50 63  1  0  0  0  0
 51 63  1  0  0  0  0
 52 76  1  0  0  0  0
 53 74  1  0  0  0  0
 54 55  1  0  0  0  0
 54 56  1  0  0  0  0
 55 57  1  0  0  0  0
 56 58  1  0  0  0  0
 57 59  1  0  0  0  0
 58 71  1  0  0  0  0
 59 72  1  0  0  0  0
 60 63  1  0  0  0  0
 60 73  1  0  0  0  0
 61 75  1  0  0  0  0
 62 76  1  0  0  0  0
 64 65  1  0  0  0  0
 75 85  1  0  0  0  0
M  CHG  1  76   1
M  ISO  4  34 100  74 100  75 101  85 101
M  END
> <Batch ID>
0009

> <Smiles>
CNC(C)C(=O)NC(C(=O)N1Cc2cc([101O:1][101NH:1]C(C)C(=O)NCCCCCCNC(=O)C[100NH:0][100C:0](=O)N3CCCC(n4nc(-c5ccc(Oc6ccc(F)cc6F)cc5)c(C(N)=O)c4N)C3)ccc2CC1C(=O)NC1CCCc2ccccc21)C(C)(C)C

> <Shape>
0.211

> <Color>
0.060

> <Negative vol penalty>
0.000

$$$$

  -OEChem-04052315383D

 82 90  0     1  0  0  0  0  0999 V2000
  -23.4946  -30.7899   20.3359 C   0  0  0  0  0  0  0  0  0  0  0  0
  -23.6754  -29.4172   20.4724 C   0  0  0  0  0  0  0  0  0  0  0  0
  -23.0554   -9.8396   20.1012 C   0  0  0  0  0  0  0  0  0  0  0  0
  -23.7425  -10.0488   22.4079 C   0  0  0  0  0  0  0  0  0  0  0  0
  -24.2489  -31.6715   21.1089 C   0  0  0  0  0  0  0  0  0  0  0  0
  -24.6115  -28.9255   21.3814 C   0  0  0  0  0  0  0  0  0  0  0  0
  -24.1811  -23.7938   24.6959 C   0  0  0  0  0  0  0  0  0  0  0  0
  -22.2783   -8.7299   20.4333 C   0  0  0  0  0  0  0  0  0  0  0  0
  -22.9654   -8.9391   22.7401 C   0  0  0  0  0  0  0  0  0  0  0  0
  -24.7062  -22.5147   24.5169 C   0  0  0  0  0  0  0  0  0  0  0  0
  -19.7027   -8.2647   23.3063 C   0  0  0  0  0  0  0  0  0  0  0  0
  -18.9085   -8.3505   24.4497 C   0  0  0  0  0  0  0  0  0  0  0  0
  -26.5535  -23.0774   25.9627 C   0  0  0  0  0  0  0  0  0  0  0  0
  -31.8809  -18.5233   23.8390 C   0  0  0  0  0  0  0  0  0  0  0  0
  -32.1051  -16.6223   22.3650 C   0  0  0  0  0  0  0  0  0  0  0  0
  -29.9227  -17.5636   22.7989 C   0  0  0  0  0  0  0  0  0  0  0  0
  -20.0821   -6.4677   25.4061 C   0  0  0  0  0  0  0  0  0  0  0  0
  -23.7876  -10.4990   21.0885 C   0  0  0  0  0  0  0  0  0  0  0  0
  -24.1897  -12.9944   20.7433 C   0  0  0  0  0  0  0  0  0  0  0  0
  -25.1879  -31.1901   22.0348 C   0  0  0  0  0  0  0  0  0  0  0  0
  -24.8450  -24.7294   25.5023 C   0  0  0  0  0  0  0  0  0  0  0  0
  -25.3801  -29.8015   22.1666 C   0  0  0  0  0  0  0  0  0  0  0  0
  -26.0333  -24.3668   26.1524 C   0  0  0  0  0  0  0  0  0  0  0  0
  -32.6830  -17.5758   23.2031 C   0  0  0  0  0  0  0  0  0  0  0  0
  -30.5007  -18.5172   23.6370 C   0  0  0  0  0  0  0  0  0  0  0  0
  -30.7249  -16.6161   22.1629 C   0  0  0  0  0  0  0  0  0  0  0  0
  -22.2332   -8.2797   21.7527 C   0  0  0  0  0  0  0  0  0  0  0  0
  -25.8941  -22.1573   25.1481 C   0  0  0  0  0  0  0  0  0  0  0  0
  -20.6866   -7.2804   23.2127 C   0  0  0  0  0  0  0  0  0  0  0  0
  -19.0982   -7.4520   25.4996 C   0  0  0  0  0  0  0  0  0  0  0  0
  -20.8763   -6.3819   24.2626 C   0  0  0  0  0  0  0  0  0  0  0  0
  -24.5910  -11.6450   20.7460 C   0  0  0  0  0  0  0  0  0  0  0  0
  -25.3094  -13.6848   20.3481 C   0  0  0  0  0  0  0  0  0  0  0  0
  -22.9186  -13.5721   21.0691 C   0  0  0  0  0  0  0  0  0  0  0  0
  -26.1692  -27.5766   25.0091 C   0  0  0  0  0  0  0  0  0  0  0  0
  -26.5201  -27.5385   28.2337 C   0  0  0  0  0  0  0  0  0  0  0  0
  -28.3062  -19.6158   24.1948 C   0  0  0  0  0  0  0  0  0  0  0  0
  -26.7708  -25.7020   31.0992 C   0  0  0  0  0  0  0  0  0  0  0  0
  -30.7894  -14.6359   20.6070 C   0  0  0  0  0  0  0  0  0  0  0  0
  -26.0135  -32.1827   22.8143 C   0  0  0  0  0  0  0  0  0  0  0  0
  -24.2514  -26.0963   25.7066 C   0  0  0  0  0  0  0  0  0  0  0  0
  -26.7741  -25.3278   27.0447 C   0  0  0  0  0  0  0  0  0  0  0  0
  -26.7182  -31.5727   24.0232 C   0  0  0  0  0  0  0  0  0  0  0  0
  -29.6964  -12.0309   18.4399 C   0  0  0  0  0  0  0  0  0  0  0  0
  -27.3957  -30.2607   23.6404 C   0  0  0  0  0  0  0  0  0  0  0  0
  -28.2377  -11.8093   18.8465 C   0  0  0  0  0  0  0  0  0  0  0  0
  -30.5780  -12.3546   19.6448 C   0  0  0  0  0  0  0  0  0  0  0  0
  -28.6452  -13.2434   20.8871 C   0  0  0  0  0  0  0  0  0  0  0  0
  -26.3682  -29.2290   23.1595 C   0  0  1  0  0  0  0  0  0  0  0  0
  -25.2808  -27.1363   26.1380 C   0  0  1  0  0  0  0  0  0  0  0  0
  -27.7064  -12.9784   19.6988 C   0  0  2  0  0  0  0  0  0  0  0  0
  -34.1587  -17.5819   23.4205 C   0  0  0  0  0  0  0  0  0  0  0  0
  -27.0892  -25.9495   33.5761 C   0  0  0  0  0  0  0  0  0  0  0  0
  -29.4837  -28.1151   27.7927 C   0  0  0  0  0  0  0  0  0  0  0  0
  -29.9006  -27.4155   30.1602 C   0  0  0  0  0  0  0  0  0  0  0  0
  -28.4439  -29.3831   29.6810 C   0  0  0  0  0  0  0  0  0  0  0  0
  -24.1634  -24.4276   31.6788 C   0  0  0  0  0  0  0  0  0  0  0  0
  -27.8283  -20.7772   25.0465 C   0  0  0  0  0  0  0  0  0  1  0  0
  -27.5863  -27.0565   29.1875 C   0  0  1  0  0  0  0  0  0  0  0  0
  -26.0798  -25.8347   32.4443 C   0  0  2  0  0  0  0  0  0  0  0  0
  -28.8409  -27.9748   29.1870 C   0  0  0  0  0  0  0  0  0  0  0  0
  -25.8660  -11.4855   20.3812 N   0  0  0  0  0  0  0  0  0  0  0  0
  -26.2755  -12.7436   20.1456 N   0  0  0  0  0  0  0  0  0  0  0  0
  -26.1568  -26.6545   27.2079 N   0  0  0  0  0  0  0  0  0  0  0  0
  -30.0149  -13.4745   20.4022 N   0  0  0  0  0  0  0  0  0  0  0  0
  -25.5519  -14.9990   20.1574 N   0  0  0  0  0  0  0  0  0  0  0  0
  -21.8763  -12.7187   21.4562 N   0  0  0  0  0  0  0  0  0  0  0  0
  -29.6874  -19.4786   24.2825 N   0  0  0  0  0  0  0  0  0  0  0  0
  -30.1375  -15.6467   21.3127 N   0  0  0  0  0  0  0  0  0  0  0  0
  -25.6731  -28.6449   24.2865 N   0  0  0  0  0  0  0  0  0  0  0  0
  -26.9411  -26.9270   30.4895 N   0  0  0  0  0  0  0  0  0  0  0  0
  -25.2170  -24.6473   32.7028 N   0  3  0  0  0  0  0  0  0  0  0  0
  -22.7084  -14.8069   21.0026 O   0  0  0  0  0  0  0  0  0  0  0  0
  -27.2273  -26.9916   24.8095 O   0  0  0  0  0  0  0  0  0  0  0  0
  -26.0225  -28.6554   28.3972 O   0  0  0  0  0  0  0  0  0  0  0  0
  -27.5237  -18.9328   23.5424 O   0  0  0  0  0  0  0  0  0  0  0  0
  -27.1275  -24.6203   30.6374 O   0  0  0  0  0  0  0  0  0  0  0  0
  -31.9362  -14.7377   20.1637 O   0  0  0  0  0  0  0  0  0  0  0  0
  -21.4748   -7.1971   22.0772 O   0  0  0  0  0  0  0  0  0  0  0  0
  -26.4092  -20.9098   24.9746 O   0  0  0  0  0  0  0  0  0  1  0  0
  -18.3365   -7.5354   26.5983 F   0  0  0  0  0  0  0  0  0  0  0  0
  -21.8208   -5.4349   24.1790 F   0  0  0  0  0  0  0  0  0  0  0  0
  1  2  1  0  0  0  0
  1  5  2  0  0  0  0
  2  6  2  0  0  0  0
  3  8  2  0  0  0  0
  3 18  1  0  0  0  0
  4  9  1  0  0  0  0
  4 18  2  0  0  0  0
  5 20  1  0  0  0  0
  6 22  1  0  0  0  0
  7 10  2  0  0  0  0
  7 21  1  0  0  0  0
  8 27  1  0  0  0  0
  9 27  2  0  0  0  0
 10 28  1  0  0  0  0
 11 12  2  0  0  0  0
 11 29  1  0  0  0  0
 12 30  1  0  0  0  0
 13 23  1  0  0  0  0
 13 28  2  0  0  0  0
 14 24  2  0  0  0  0
 14 25  1  0  0  0  0
 15 24  1  0  0  0  0
 15 26  2  0  0  0  0
 16 25  2  0  0  0  0
 16 26  1  0  0  0  0
 17 30  2  0  0  0  0
 17 31  1  0  0  0  0
 18 32  1  0  0  0  0
 19 32  1  0  0  0  0
 19 33  2  0  0  0  0
 19 34  1  0  0  0  0
 20 22  2  0  0  0  0
 20 40  1  0  0  0  0
 21 23  2  0  0  0  0
 21 41  1  0  0  0  0
 22 49  1  0  0  0  0
 23 42  1  0  0  0  0
 24 52  1  0  0  0  0
 25 68  1  0  0  0  0
 26 69  1  0  0  0  0
 27 79  1  0  0  0  0
 28 80  1  0  0  0  0
 29 31  2  0  0  0  0
 29 79  1  0  0  0  0
 30 81  1  0  0  0  0
 31 82  1  0  0  0  0
 32 62  2  0  0  0  0
 33 63  1  0  0  0  0
 33 66  1  0  0  0  0
 34 67  1  0  0  0  0
 34 73  2  0  0  0  0
 35 50  1  0  0  0  0
 35 70  1  0  0  0  0
 35 74  2  0  0  0  0
 36 59  1  0  0  0  0
 36 64  1  0  0  0  0
 36 75  2  0  0  0  0
 37 58  1  0  0  0  0
 37 68  1  0  0  0  0
 37 76  2  0  0  0  0
 38 60  1  0  0  0  0
 38 71  1  0  0  0  0
 38 77  2  0  0  0  0
 39 65  1  0  0  0  0
 39 69  1  0  0  0  0
 39 78  2  0  0  0  0
 40 43  1  0  0  0  0
 41 50  1  0  0  0  0
 42 64  1  0  0  0  0
 43 45  1  0  0  0  0
 44 46  1  0  0  0  0
 44 47  1  0  0  0  0
 45 49  1  0  0  0  0
 46 51  1  0  0  0  0
 47 65  1  0  0  0  0
 48 51  1  0  0  0  0
 48 65  1  0  0  0  0
 49 70  1  0  0  0  0
 50 64  1  0  0  0  0
 51 63  1  0  0  0  0
 53 60  1  0  0  0  0
 54 61  1  0  0  0  0
 55 61  1  0  0  0  0
 56 61  1  0  0  0  0
 57 72  1  0  0  0  0
 58 80  1  0  0  0  0
 59 61  1  0  0  0  0
 59 71  1  0  0  0  0
 60 72  1  0  0  0  0
 62 63  1  0  0  0  0
M  CHG  1  72   1
M  ISO  4  39 100  58 101  69 100  80 101
M  END
> <Batch ID>
0009

> <Smiles>
CNC(C)C(=O)NC(C(=O)N1Cc2cc([101O:1][101CH2:1]C(=O)Nc3cc(C)cc([100NH:0][100C:0](=O)N4CCCC(n5nc(-c6ccc(Oc7ccc(F)cc7F)cc6)c(C(N)=O)c5N)C4)c3)ccc2CC1C(=O)NC1CCCc2ccccc21)C(C)(C)C

> <Shape>
0.229

> <Color>
0.201

> <Negative vol penalty>
0.000

$$$$

  -OEChem-04052315383D

 83 91  0     1  0  0  0  0  0999 V2000
  -20.5384  -34.0535   15.8537 C   0  0  0  0  0  0  0  0  0  0  0  0
  -21.4779  -33.0278   15.8281 C   0  0  0  0  0  0  0  0  0  0  0  0
  -24.0392   -9.4703   20.4954 C   0  0  0  0  0  0  0  0  0  0  0  0
  -23.3082   -9.7781   22.7775 C   0  0  0  0  0  0  0  0  0  0  0  0
  -20.5919  -35.0214   16.8559 C   0  0  0  0  0  0  0  0  0  0  0  0
  -22.4721  -32.9698   16.8041 C   0  0  0  0  0  0  0  0  0  0  0  0
  -24.9297  -27.9271   19.2610 C   0  0  0  0  0  0  0  0  0  0  0  0
  -23.9884   -8.0868   20.6657 C   0  0  0  0  0  0  0  0  0  0  0  0
  -23.2574   -8.3946   22.9478 C   0  0  0  0  0  0  0  0  0  0  0  0
  -26.1114  -27.2356   18.9978 C   0  0  0  0  0  0  0  0  0  0  0  0
  -22.5880   -4.9428   23.8728 C   0  0  0  0  0  0  0  0  0  0  0  0
  -21.4694   -4.4080   24.5117 C   0  0  0  0  0  0  0  0  0  0  0  0
  -30.5690  -20.3058   19.4465 C   0  0  0  0  0  0  0  0  0  0  0  0
  -27.1986  -28.4213   20.7954 C   0  0  0  0  0  0  0  0  0  0  0  0
  -31.0265  -22.6470   19.8292 C   0  0  0  0  0  0  0  0  0  0  0  0
  -20.0463   -5.3259   22.7884 C   0  0  0  0  0  0  0  0  0  0  0  0
  -23.6992  -10.3159   21.5513 C   0  0  0  0  0  0  0  0  0  0  0  0
  -29.2021  -20.5518   19.5754 C   0  0  0  0  0  0  0  0  0  0  0  0
  -22.7145  -12.5860   20.9307 C   0  0  0  0  0  0  0  0  0  0  0  0
  -21.5815  -34.9698   17.8503 C   0  0  0  0  0  0  0  0  0  0  0  0
  -24.8766  -28.8804   20.2881 C   0  0  0  0  0  0  0  0  0  0  0  0
  -22.5397  -33.9386   17.8197 C   0  0  0  0  0  0  0  0  0  0  0  0
  -26.0143  -29.1217   21.0713 C   0  0  0  0  0  0  0  0  0  0  0  0
  -29.6595  -22.8930   19.9580 C   0  0  0  0  0  0  0  0  0  0  0  0
  -23.5974   -7.5489   21.8919 C   0  0  0  0  0  0  0  0  0  0  0  0
  -27.2468  -27.4847   19.7632 C   0  0  0  0  0  0  0  0  0  0  0  0
  -22.4358   -5.6693   22.6918 C   0  0  0  0  0  0  0  0  0  0  0  0
  -20.1985   -4.5995   23.9695 C   0  0  0  0  0  0  0  0  0  0  0  0
  -31.4812  -21.3534   19.5734 C   0  0  0  0  0  0  0  0  0  0  0  0
  -21.1650   -5.8608   22.1496 C   0  0  0  0  0  0  0  0  0  0  0  0
  -28.7473  -21.8454   19.8311 C   0  0  0  0  0  0  0  0  0  0  0  0
  -23.7520  -11.7452   21.3762 C   0  0  0  0  0  0  0  0  0  0  0  0
  -23.2652  -13.8442   20.9383 C   0  0  0  0  0  0  0  0  0  0  0  0
  -28.2566  -19.4543   19.4431 C   0  0  0  0  0  0  0  0  0  0  0  0
  -28.4958  -18.1695   19.7816 C   0  0  0  0  0  0  0  0  0  0  0  0
  -21.3730  -12.2589   20.5447 C   0  0  0  0  0  0  0  0  0  0  0  0
  -27.4262  -17.1684   19.5960 C   0  0  0  0  0  0  0  0  0  0  0  0
  -24.3167  -32.0066   20.4201 C   0  0  0  0  0  0  0  0  0  0  0  0
  -24.4416  -31.4989   23.6215 C   0  0  0  0  0  0  0  0  0  0  0  0
  -25.5546  -29.5705   26.2079 C   0  0  0  0  0  0  0  0  0  0  0  0
  -21.6276  -36.0652   18.8859 C   0  0  0  0  0  0  0  0  0  0  0  0
  -23.5868  -29.5985   20.5767 C   0  0  0  0  0  0  0  0  0  0  0  0
  -26.0038  -30.1205   22.1986 C   0  0  0  0  0  0  0  0  0  0  0  0
  -22.4864  -35.7199   20.0999 C   0  0  0  0  0  0  0  0  0  0  0  0
  -27.5987  -15.5447   22.8772 C   0  0  0  0  0  0  0  0  0  0  0  0
  -23.8221  -35.1302   19.6585 C   0  0  0  0  0  0  0  0  0  0  0  0
  -26.5523  -14.4452   22.7161 C   0  0  0  0  0  0  0  0  0  0  0  0
  -28.3358  -15.8285   21.5692 C   0  0  0  0  0  0  0  0  0  0  0  0
  -26.3802  -15.0404   20.2674 C   0  0  0  0  0  0  0  0  0  0  0  0
  -23.6184  -33.8277   18.8753 C   0  0  1  0  0  0  0  0  0  0  0  0
  -23.7900  -30.9190   21.3132 C   0  0  1  0  0  0  0  0  0  0  0  0
  -25.5938  -14.7712   21.5598 C   0  0  1  0  0  0  0  0  0  0  0  0
  -25.5287  -29.4296   28.7133 C   0  0  0  0  0  0  0  0  0  0  0  0
  -26.5316  -33.7173   23.7655 C   0  0  0  0  0  0  0  0  0  0  0  0
  -27.1442  -32.8965   26.0500 C   0  0  0  0  0  0  0  0  0  0  0  0
  -24.8432  -33.7535   25.6100 C   0  0  0  0  0  0  0  0  0  0  0  0
  -24.1524  -26.9646   26.1627 C   0  0  0  0  0  0  0  0  0  0  0  0
  -30.0863  -25.3186   20.3583 C   0  0  0  0  0  0  0  0  0  0  0  0
  -29.2749  -26.5780   20.6121 C   0  0  0  0  0  0  0  0  0  1  0  0
  -25.5331  -31.5125   24.6644 C   0  0  1  0  0  0  0  0  0  0  0  0
  -24.8415  -29.0074   27.4240 C   0  0  2  0  0  0  0  0  0  0  0  0
  -26.0141  -32.9525   25.0000 C   0  0  0  0  0  0  0  0  0  0  0  0
  -24.8767  -12.4129   21.6469 N   0  0  0  0  0  0  0  0  0  0  0  0
  -24.5491  -13.6867   21.3707 N   0  0  0  0  0  0  0  0  0  0  0  0
  -27.3968  -16.0796   20.4657 N   0  0  0  0  0  0  0  0  0  0  0  0
  -24.7207  -30.8017   22.4376 N   0  0  0  0  0  0  0  0  0  0  0  0
  -22.7715  -15.0590   20.6171 N   0  0  0  0  0  0  0  0  0  0  0  0
  -20.9713  -10.9171   20.5962 N   0  0  0  0  0  0  0  0  0  0  0  0
  -29.2107  -24.1784   20.2124 N   0  0  0  0  0  0  0  0  0  0  0  0
  -23.3323  -32.7341   19.7790 N   0  0  0  0  0  0  0  0  0  0  0  0
  -25.0124  -30.7742   25.8099 N   0  0  0  0  0  0  0  0  0  0  0  0
  -24.8203  -27.5183   27.3686 N   0  3  0  0  0  0  0  0  0  0  0  0
  -20.5599  -13.1285   20.1496 O   0  0  0  0  0  0  0  0  0  0  0  0
  -26.6256  -17.3551   18.6779 O   0  0  0  0  0  0  0  0  0  0  0  0
  -25.5266  -32.1742   20.3213 O   0  0  0  0  0  0  0  0  0  0  0  0
  -23.3778  -32.0793   23.8520 O   0  0  0  0  0  0  0  0  0  0  0  0
  -26.5005  -29.0015   25.6676 O   0  0  0  0  0  0  0  0  0  0  0  0
  -23.5475   -6.1990   22.0583 O   0  0  0  0  0  0  0  0  0  0  0  0
  -28.4017  -26.8117   19.5079 O   0  0  0  0  0  0  0  0  0  1  0  0
  -19.1245   -4.0845   24.5823 F   0  0  0  0  0  0  0  0  0  0  0  0
  -32.7939  -21.1174   19.4505 F   0  0  0  0  0  0  0  0  0  0  0  0
  -21.0127   -6.5568   21.0146 F   0  0  0  0  0  0  0  0  0  0  0  0
  -27.4328  -22.0866   19.9559 F   0  0  0  0  0  0  0  0  0  0  0  0
  1  2  1  0  0  0  0
  1  5  2  0  0  0  0
  2  6  2  0  0  0  0
  3  8  2  0  0  0  0
  3 17  1  0  0  0  0
  4  9  1  0  0  0  0
  4 17  2  0  0  0  0
  5 20  1  0  0  0  0
  6 22  1  0  0  0  0
  7 10  2  0  0  0  0
  7 21  1  0  0  0  0
  8 25  1  0  0  0  0
  9 25  2  0  0  0  0
 10 26  1  0  0  0  0
 11 12  2  0  0  0  0
 11 27  1  0  0  0  0
 12 28  1  0  0  0  0
 13 18  2  0  0  0  0
 13 29  1  0  0  0  0
 14 23  1  0  0  0  0
 14 26  2  0  0  0  0
 15 24  1  0  0  0  0
 15 29  2  0  0  0  0
 16 28  2  0  0  0  0
 16 30  1  0  0  0  0
 17 32  1  0  0  0  0
 18 31  1  0  0  0  0
 18 34  1  0  0  0  0
 19 32  1  0  0  0  0
 19 33  2  0  0  0  0
 19 36  1  0  0  0  0
 20 22  2  0  0  0  0
 20 41  1  0  0  0  0
 21 23  2  0  0  0  0
 21 42  1  0  0  0  0
 22 50  1  0  0  0  0
 23 43  1  0  0  0  0
 24 31  2  0  0  0  0
 24 69  1  0  0  0  0
 25 78  1  0  0  0  0
 26 79  1  0  0  0  0
 27 30  2  0  0  0  0
 27 78  1  0  0  0  0
 28 80  1  0  0  0  0
 29 81  1  0  0  0  0
 30 82  1  0  0  0  0
 31 83  1  0  0  0  0
 32 63  2  0  0  0  0
 33 64  1  0  0  0  0
 33 67  1  0  0  0  0
 34 35  2  0  0  0  0
 35 37  1  0  0  0  0
 36 68  1  0  0  0  0
 36 73  2  0  0  0  0
 37 65  1  0  0  0  0
 37 74  2  0  0  0  0
 38 51  1  0  0  0  0
 38 70  1  0  0  0  0
 38 75  2  0  0  0  0
 39 60  1  0  0  0  0
 39 66  1  0  0  0  0
 39 76  2  0  0  0  0
 40 61  1  0  0  0  0
 40 71  1  0  0  0  0
 40 77  2  0  0  0  0
 41 44  1  0  0  0  0
 42 51  1  0  0  0  0
 43 66  1  0  0  0  0
 44 46  1  0  0  0  0
 45 47  1  0  0  0  0
 45 48  1  0  0  0  0
 46 50  1  0  0  0  0
 47 52  1  0  0  0  0
 48 65  1  0  0  0  0
 49 52  1  0  0  0  0
 49 65  1  0  0  0  0
 50 70  1  0  0  0  0
 51 66  1  0  0  0  0
 52 64  1  0  0  0  0
 53 61  1  0  0  0  0
 54 62  1  0  0  0  0
 55 62  1  0  0  0  0
 56 62  1  0  0  0  0
 57 72  1  0  0  0  0
 58 59  1  0  0  0  0
 58 69  1  0  0  0  0
 59 79  1  0  0  0  0
 60 62  1  0  0  0  0
 60 71  1  0  0  0  0
 61 72  1  0  0  0  0
 63 64  1  0  0  0  0
M  CHG  1  72   1
M  ISO  4  35 100  37 100  59 101  79 101
M  END
> <Batch ID>
0009

> <Smiles>
CNC(C)C(=O)NC(C(=O)N1Cc2cc([101O:1][101CH2:1]CNc3cc(F)cc(C=[100CH:0][100C:0](=O)N4CCCC(n5nc(-c6ccc(Oc7ccc(F)cc7F)cc6)c(C(N)=O)c5N)C4)c3F)ccc2CC1C(=O)NC1CCCc2ccccc21)C(C)(C)C

> <Shape>
0.296

> <Color>
0.121

> <Negative vol penalty>
0.000

$$$$

  -OEChem-04052315383D

 85 93  0     1  0  0  0  0  0999 V2000
  -30.7575  -28.1298    9.3698 C   0  0  0  0  0  0  0  0  0  0  0  0
  -31.4362  -27.3615   10.3103 C   0  0  0  0  0  0  0  0  0  0  0  0
  -22.9903   -9.9162   19.9774 C   0  0  0  0  0  0  0  0  0  0  0  0
  -23.7207   -9.9445   22.2801 C   0  0  0  0  0  0  0  0  0  0  0  0
  -29.5913  -28.8027    9.7316 C   0  0  0  0  0  0  0  0  0  0  0  0
  -30.9496  -27.2667   11.6136 C   0  0  0  0  0  0  0  0  0  0  0  0
  -31.0259  -22.5194   13.3750 C   0  0  0  0  0  0  0  0  0  0  0  0
  -30.7639  -19.7546   21.4123 C   0  0  0  0  0  0  0  0  0  0  0  0
  -22.2161   -8.7853   20.2368 C   0  0  0  0  0  0  0  0  0  0  0  0
  -22.9464   -8.8136   22.5396 C   0  0  0  0  0  0  0  0  0  0  0  0
  -32.2543  -22.0195   13.8050 C   0  0  0  0  0  0  0  0  0  0  0  0
  -23.1653   -5.4767   22.0421 C   0  0  0  0  0  0  0  0  0  0  0  0
  -23.7470   -4.4496   22.7853 C   0  0  0  0  0  0  0  0  0  0  0  0
  -29.8320  -19.2247   22.3046 C   0  0  0  0  0  0  0  0  0  0  0  0
  -31.6283  -22.4648   16.0917 C   0  0  0  0  0  0  0  0  0  0  0  0
  -31.2473  -17.5322   20.5971 C   0  0  0  0  0  0  0  0  0  0  0  0
  -22.0285   -4.6924   24.4660 C   0  0  0  0  0  0  0  0  0  0  0  0
  -23.7427  -10.4957   20.9990 C   0  0  0  0  0  0  0  0  0  0  0  0
  -24.1460  -13.0097   20.8411 C   0  0  0  0  0  0  0  0  0  0  0  0
  -29.0848  -28.7082   11.0374 C   0  0  0  0  0  0  0  0  0  0  0  0
  -30.0923  -23.0067   14.3009 C   0  0  0  0  0  0  0  0  0  0  0  0
  -29.7762  -27.9400   11.9936 C   0  0  0  0  0  0  0  0  0  0  0  0
  -30.3877  -22.9680   15.6711 C   0  0  0  0  0  0  0  0  0  0  0  0
  -31.4716  -18.9084   20.5585 C   0  0  0  0  0  0  0  0  0  0  0  0
  -30.3153  -17.0023   21.4894 C   0  0  0  0  0  0  0  0  0  0  0  0
  -22.1941   -8.2341   21.5179 C   0  0  0  0  0  0  0  0  0  0  0  0
  -32.5568  -21.9948   15.1633 C   0  0  0  0  0  0  0  0  0  0  0  0
  -22.0152   -6.1117   22.5109 C   0  0  0  0  0  0  0  0  0  0  0  0
  -23.1786   -4.0574   23.9972 C   0  0  0  0  0  0  0  0  0  0  0  0
  -21.4468   -5.7196   23.7228 C   0  0  0  0  0  0  0  0  0  0  0  0
  -29.6077  -17.8485   22.3432 C   0  0  0  0  0  0  0  0  0  0  0  0
  -24.5431  -11.6636   20.7315 C   0  0  0  0  0  0  0  0  0  0  0  0
  -25.2603  -13.7269   20.4798 C   0  0  0  0  0  0  0  0  0  0  0  0
  -22.8829  -13.5624   21.2344 C   0  0  0  0  0  0  0  0  0  0  0  0
  -28.7256  -25.8262   14.8363 C   0  0  0  0  0  0  0  0  0  0  0  0
  -27.0003  -24.1404   17.0051 C   0  0  0  0  0  0  0  0  0  0  0  0
  -34.0816  -19.4700   17.9352 C   0  0  0  0  0  0  0  0  0  0  0  0
  -26.7787  -21.4088   19.0388 C   0  0  0  0  0  0  0  0  0  0  0  0
  -30.7471  -14.6462   20.7091 C   0  0  0  0  0  0  0  0  0  0  0  0
  -27.8465  -29.4918   11.3942 C   0  0  0  0  0  0  0  0  0  0  0  0
  -28.7609  -23.5180   13.8229 C   0  0  0  0  0  0  0  0  0  0  0  0
  -29.4116  -23.4605   16.7070 C   0  0  0  0  0  0  0  0  0  0  0  0
  -27.1921  -29.0371   12.6963 C   0  0  0  0  0  0  0  0  0  0  0  0
  -29.6060  -12.2191   18.3672 C   0  0  0  0  0  0  0  0  0  0  0  0
  -28.2414  -28.8682   13.7905 C   0  0  0  0  0  0  0  0  0  0  0  0
  -28.1545  -11.9690   18.7826 C   0  0  0  0  0  0  0  0  0  0  0  0
  -30.5108  -12.4468   19.5769 C   0  0  0  0  0  0  0  0  0  0  0  0
  -28.6041  -13.2396   20.9204 C   0  0  0  0  0  0  0  0  0  0  0  0
  -29.2662  -27.7925   13.4107 C   0  0  1  0  0  0  0  0  0  0  0  0
  -28.0925  -24.4637   14.8160 C   0  0  1  0  0  0  0  0  0  0  0  0
  -27.6426  -13.0692   19.7329 C   0  0  2  0  0  0  0  0  0  0  0  0
  -25.2655  -20.3223   20.7203 C   0  0  0  0  0  0  0  0  0  0  0  0
  -27.8406  -26.2031   19.0905 C   0  0  0  0  0  0  0  0  0  0  0  0
  -27.1246  -24.5935   20.8695 C   0  0  0  0  0  0  0  0  0  0  0  0
  -25.4521  -25.4780   19.2438 C   0  0  0  0  0  0  0  0  0  0  0  0
  -26.4951  -18.9728   17.3821 C   0  0  0  0  0  0  0  0  0  0  0  0
  -33.1670  -18.5960   18.7547 C   0  0  0  0  0  0  0  0  0  0  0  0
  -35.1513  -19.5530   15.6851 C   0  0  0  0  0  0  0  0  0  0  0  0
  -34.3594  -20.4892   14.7898 C   0  0  0  0  0  0  0  0  0  1  0  0
  -27.1661  -23.7908   18.4643 C   0  0  1  0  0  0  0  0  0  0  0  0
  -25.6637  -20.4015   19.2547 C   0  0  2  0  0  0  0  0  0  0  0  0
  -26.9153  -25.0088   19.3976 C   0  0  0  0  0  0  0  0  0  0  0  0
  -25.8106  -11.5308   20.3317 N   0  0  0  0  0  0  0  0  0  0  0  0
  -26.2196  -12.8027   20.1868 N   0  0  0  0  0  0  0  0  0  0  0  0
  -28.1258  -23.9568   16.1894 N   0  0  0  0  0  0  0  0  0  0  0  0
  -29.9653  -13.5054   20.4293 N   0  0  0  0  0  0  0  0  0  0  0  0
  -25.5032  -15.0516   20.3871 N   0  0  0  0  0  0  0  0  0  0  0  0
  -21.8454  -12.6833   21.5735 N   0  0  0  0  0  0  0  0  0  0  0  0
  -30.1115  -15.6001   21.5032 N   0  0  0  0  0  0  0  0  0  0  0  0
  -32.3875  -19.4299   19.6814 N   0  0  0  0  0  0  0  0  0  0  0  0
  -28.7113  -26.4715   13.6145 N   0  0  0  0  0  0  0  0  0  0  0  0
  -34.3166  -18.9273   16.6762 N   0  0  0  0  0  0  0  0  0  0  0  0
  -26.2855  -22.6549   18.7146 N   0  0  0  0  0  0  0  0  0  0  0  0
  -26.0970  -19.0462   18.8115 N   0  3  0  0  0  0  0  0  0  0  0  0
  -22.6753  -14.7991   21.2680 O   0  0  0  0  0  0  0  0  0  0  0  0
  -29.1913  -26.2605   15.8833 O   0  0  0  0  0  0  0  0  0  0  0  0
  -25.9102  -24.5540   16.6024 O   0  0  0  0  0  0  0  0  0  0  0  0
  -34.5500  -20.5291   18.3444 O   0  0  0  0  0  0  0  0  0  0  0  0
  -27.9681  -21.1200   19.1506 O   0  0  0  0  0  0  0  0  0  0  0  0
  -31.8858  -14.7802   20.2537 O   0  0  0  0  0  0  0  0  0  0  0  0
  -21.4385   -7.1307   21.7715 O   0  0  0  0  0  0  0  0  0  0  0  0
  -33.7553  -21.5080   15.5857 O   0  0  0  0  0  0  0  0  0  1  0  0
  -23.7364   -3.0701   24.7100 F   0  0  0  0  0  0  0  0  0  0  0  0
  -20.3413   -6.3252   24.1777 F   0  0  0  0  0  0  0  0  0  0  0  0
  -28.4445  -17.2349   23.4635 Cl  0  0  0  0  0  0  0  0  0  0  0  0
  1  2  1  0  0  0  0
  1  5  2  0  0  0  0
  2  6  2  0  0  0  0
  3  9  2  0  0  0  0
  3 18  1  0  0  0  0
  4 10  1  0  0  0  0
  4 18  2  0  0  0  0
  5 20  1  0  0  0  0
  6 22  1  0  0  0  0
  7 11  2  0  0  0  0
  7 21  1  0  0  0  0
  8 14  2  0  0  0  0
  8 24  1  0  0  0  0
  9 26  1  0  0  0  0
 10 26  2  0  0  0  0
 11 27  1  0  0  0  0
 12 13  2  0  0  0  0
 12 28  1  0  0  0  0
 13 29  1  0  0  0  0
 14 31  1  0  0  0  0
 15 23  1  0  0  0  0
 15 27  2  0  0  0  0
 16 24  2  0  0  0  0
 16 25  1  0  0  0  0
 17 29  2  0  0  0  0
 17 30  1  0  0  0  0
 18 32  1  0  0  0  0
 19 32  1  0  0  0  0
 19 33  2  0  0  0  0
 19 34  1  0  0  0  0
 20 22  2  0  0  0  0
 20 40  1  0  0  0  0
 21 23  2  0  0  0  0
 21 41  1  0  0  0  0
 22 49  1  0  0  0  0
 23 42  1  0  0  0  0
 24 70  1  0  0  0  0
 25 31  2  0  0  0  0
 25 69  1  0  0  0  0
 26 81  1  0  0  0  0
 27 82  1  0  0  0  0
 28 30  2  0  0  0  0
 28 81  1  0  0  0  0
 29 83  1  0  0  0  0
 30 84  1  0  0  0  0
 31 85  1  0  0  0  0
 32 63  2  0  0  0  0
 33 64  1  0  0  0  0
 33 67  1  0  0  0  0
 34 68  1  0  0  0  0
 34 75  2  0  0  0  0
 35 50  1  0  0  0  0
 35 71  1  0  0  0  0
 35 76  2  0  0  0  0
 36 60  1  0  0  0  0
 36 65  1  0  0  0  0
 36 77  2  0  0  0  0
 37 57  1  0  0  0  0
 37 72  1  0  0  0  0
 37 78  2  0  0  0  0
 38 61  1  0  0  0  0
 38 73  1  0  0  0  0
 38 79  2  0  0  0  0
 39 66  1  0  0  0  0
 39 69  1  0  0  0  0
 39 80  2  0  0  0  0
 40 43  1  0  0  0  0
 41 50  1  0  0  0  0
 42 65  1  0  0  0  0
 43 45  1  0  0  0  0
 44 46  1  0  0  0  0
 44 47  1  0  0  0  0
 45 49  1  0  0  0  0
 46 51  1  0  0  0  0
 47 66  1  0  0  0  0
 48 51  1  0  0  0  0
 48 66  1  0  0  0  0
 49 71  1  0  0  0  0
 50 65  1  0  0  0  0
 51 64  1  0  0  0  0
 52 61  1  0  0  0  0
 53 62  1  0  0  0  0
 54 62  1  0  0  0  0
 55 62  1  0  0  0  0
 56 74  1  0  0  0  0
 57 70  1  0  0  0  0
 58 59  1  0  0  0  0
 58 72  1  0  0  0  0
 59 82  1  0  0  0  0
 60 62  1  0  0  0  0
 60 73  1  0  0  0  0
 61 74  1  0  0  0  0
 63 64  1  0  0  0  0
M  CHG  1  74   1
M  ISO  4  39 100  59 101  69 100  82 101
M  END
> <Batch ID>
0009

> <Smiles>
CNC(C)C(=O)NC(C(=O)N1Cc2cc([101O:1][101CH2:1]CNC(=O)CNc3ccc(Cl)c([100NH:0][100C:0](=O)N4CCCC(n5nc(-c6ccc(Oc7ccc(F)cc7F)cc6)c(C(N)=O)c5N)C4)c3)ccc2CC1C(=O)NC1CCCc2ccccc21)C(C)(C)C

> <Shape>
0.209

> <Color>
0.195

> <Negative vol penalty>
0.000

$$$$

  -OEChem-04052315383D

 81 89  0     1  0  0  0  0  0999 V2000
  -27.1711  -30.0565   18.2472 C   0  0  0  0  0  0  0  0  0  0  0  0
  -27.0950  -28.6906   18.5004 C   0  0  0  0  0  0  0  0  0  0  0  0
  -30.5958  -23.0971   20.3979 C   0  0  0  0  0  0  0  0  0  0  0  0
  -29.0068  -23.0097   18.5801 C   0  0  0  0  0  0  0  0  0  0  0  0
  -26.4069  -30.9474   18.9995 C   0  0  0  0  0  0  0  0  0  0  0  0
  -26.2553  -28.2150   19.5070 C   0  0  0  0  0  0  0  0  0  0  0  0
  -23.1140  -22.9578   19.5026 C   0  0  0  0  0  0  0  0  0  0  0  0
  -23.7410  -13.0238   22.5742 C   0  0  0  0  0  0  0  0  0  0  0  0
  -24.7233  -13.5878   21.7603 C   0  0  0  0  0  0  0  0  0  0  0  0
  -31.2305  -24.1808   19.7910 C   0  0  0  0  0  0  0  0  0  0  0  0
  -29.6415  -24.0934   17.9732 C   0  0  0  0  0  0  0  0  0  0  0  0
  -23.3674  -21.7133   20.0776 C   0  0  0  0  0  0  0  0  0  0  0  0
  -32.4148  -24.6362   16.1171 C   0  0  0  0  0  0  0  0  0  0  0  0
  -32.6611  -24.5584   14.7464 C   0  0  0  0  0  0  0  0  0  0  0  0
  -22.0011  -22.3171   21.9718 C   0  0  0  0  0  0  0  0  0  0  0  0
  -22.3146  -14.9326   22.1754 C   0  0  0  0  0  0  0  0  0  0  0  0
  -31.3087  -26.5287   14.3915 C   0  0  0  0  0  0  0  0  0  0  0  0
  -29.4839  -22.5116   19.7924 C   0  0  0  0  0  0  0  0  0  0  0  0
  -27.7675  -21.4361   21.3433 C   0  0  0  0  0  0  0  0  0  0  0  0
  -25.5502  -30.4817   20.0094 C   0  0  0  0  0  0  0  0  0  0  0  0
  -22.3098  -23.8971   20.1640 C   0  0  0  0  0  0  0  0  0  0  0  0
  -25.4799  -29.1007   20.2744 C   0  0  0  0  0  0  0  0  0  0  0  0
  -21.7370  -23.5719   21.4018 C   0  0  0  0  0  0  0  0  0  0  0  0
  -22.5366  -13.6962   22.7817 C   0  0  0  0  0  0  0  0  0  0  0  0
  -24.5014  -14.8242   21.1539 C   0  0  0  0  0  0  0  0  0  0  0  0
  -30.7534  -24.6790   18.5786 C   0  0  0  0  0  0  0  0  0  0  0  0
  -22.8133  -21.3938   21.3137 C   0  0  0  0  0  0  0  0  0  0  0  0
  -31.6154  -25.6602   16.6251 C   0  0  0  0  0  0  0  0  0  0  0  0
  -23.2970  -15.4966   21.3614 C   0  0  0  0  0  0  0  0  0  0  0  0
  -32.1081  -25.5046   13.8836 C   0  0  0  0  0  0  0  0  0  0  0  0
  -31.0623  -26.6064   15.7623 C   0  0  0  0  0  0  0  0  0  0  0  0
  -28.8281  -21.3918   20.4186 C   0  0  0  0  0  0  0  0  0  0  0  0
  -27.5084  -20.1185   21.6320 C   0  0  0  0  0  0  0  0  0  0  0  0
  -27.0782  -22.5672   21.8921 C   0  0  0  0  0  0  0  0  0  0  0  0
  -22.7667  -26.8217   21.3222 C   0  0  0  0  0  0  0  0  0  0  0  0
  -19.5687  -26.6907   21.8492 C   0  0  0  0  0  0  0  0  0  0  0  0
  -16.7900  -24.7718   22.3427 C   0  0  0  0  0  0  0  0  0  0  0  0
  -26.7574  -14.8382   20.0329 C   0  0  0  0  0  0  0  0  0  0  0  0
  -24.7792  -31.4868   20.8279 C   0  0  0  0  0  0  0  0  0  0  0  0
  -22.0243  -25.2250   19.5179 C   0  0  0  0  0  0  0  0  0  0  0  0
  -20.8501  -24.5373   22.1433 C   0  0  0  0  0  0  0  0  0  0  0  0
  -23.6323  -30.8715   21.6255 C   0  0  0  0  0  0  0  0  0  0  0  0
  -30.1138  -15.9264   20.5096 C   0  0  0  0  0  0  0  0  0  0  0  0
  -24.0983  -29.6086   22.3430 C   0  0  0  0  0  0  0  0  0  0  0  0
  -29.9913  -17.4490   20.6045 C   0  0  0  0  0  0  0  0  0  0  0  0
  -29.1314  -15.3404   19.4971 C   0  0  0  0  0  0  0  0  0  0  0  0
  -27.6071  -17.2536   19.7893 C   0  0  0  0  0  0  0  0  0  0  0  0
  -24.5621  -28.5442   21.3413 C   0  0  1  0  0  0  0  0  0  0  0  0
  -21.6096  -26.2995   20.5184 C   0  0  1  0  0  0  0  0  0  0  0  0
  -28.5319  -17.8831   20.8439 C   0  0  2  0  0  0  0  0  0  0  0  0
  -21.4865  -13.0929   23.6521 C   0  0  0  0  0  0  0  0  0  0  0  0
  -14.3259  -24.9499   22.7831 C   0  0  0  0  0  0  0  0  0  0  0  0
  -20.1436  -27.4283   24.7536 C   0  0  0  0  0  0  0  0  0  0  0  0
  -17.8287  -26.6696   25.3316 C   0  0  0  0  0  0  0  0  0  0  0  0
  -18.1577  -28.5777   23.7588 C   0  0  0  0  0  0  0  0  0  0  0  0
  -16.1212  -23.3505   19.8344 C   0  0  0  0  0  0  0  0  0  0  0  0
  -23.2867  -19.0858   20.9903 C   0  0  0  0  0  0  0  0  0  1  0  0
  -22.8091  -17.8063   21.6494 C   0  0  0  0  0  0  0  0  0  0  0  0
  -18.6908  -26.2297   22.9876 C   0  0  1  0  0  0  0  0  0  0  0  0
  -15.4064  -24.8239   21.7204 C   0  0  2  0  0  0  0  0  0  0  0  0
  -18.7234  -27.2086   24.1951 C   0  0  0  0  0  0  0  0  0  0  0  0
  -29.2162  -20.1448   20.1386 N   0  0  0  0  0  0  0  0  0  0  0  0
  -28.3952  -19.3934   20.8918 N   0  0  0  0  0  0  0  0  0  0  0  0
  -20.6059  -25.8253   21.4733 N   0  0  0  0  0  0  0  0  0  0  0  0
  -27.7689  -15.7912   19.7892 N   0  0  0  0  0  0  0  0  0  0  0  0
  -26.6109  -19.5211   22.4444 N   0  0  0  0  0  0  0  0  0  0  0  0
  -27.4715  -23.8501   21.4876 N   0  0  0  0  0  0  0  0  0  0  0  0
  -25.5099  -15.3851   20.3317 N   0  0  0  0  0  0  0  0  0  0  0  0
  -23.4224  -27.8881   20.7371 N   0  0  0  0  0  0  0  0  0  0  0  0
  -17.3623  -26.0239   22.4210 N   0  0  0  0  0  0  0  0  0  0  0  0
  -15.1468  -23.5871   20.9305 N   0  3  0  0  0  0  0  0  0  0  0  0
  -26.1521  -22.4444   22.7292 O   0  0  0  0  0  0  0  0  0  0  0  0
  -23.0432  -26.2970   22.3945 O   0  0  0  0  0  0  0  0  0  0  0  0
  -19.3382  -27.7752   21.3086 O   0  0  0  0  0  0  0  0  0  0  0  0
  -17.3095  -23.7256   22.7249 O   0  0  0  0  0  0  0  0  0  0  0  0
  -26.9876  -13.6265   20.0072 O   0  0  0  0  0  0  0  0  0  0  0  0
  -31.3724  -25.7365   17.9862 O   0  0  0  0  0  0  0  0  0  0  0  0
  -23.0595  -20.1800   21.8776 O   0  0  0  0  0  0  0  0  0  1  0  0
  -23.0593  -16.7121   20.7757 O   0  0  0  0  0  0  0  0  0  0  0  0
  -32.3460  -25.4307   12.5675 F   0  0  0  0  0  0  0  0  0  0  0  0
  -30.2945  -27.5932   16.2445 F   0  0  0  0  0  0  0  0  0  0  0  0
  1  2  1  0  0  0  0
  1  5  2  0  0  0  0
  2  6  2  0  0  0  0
  3 10  2  0  0  0  0
  3 18  1  0  0  0  0
  4 11  1  0  0  0  0
  4 18  2  0  0  0  0
  5 20  1  0  0  0  0
  6 22  1  0  0  0  0
  7 12  2  0  0  0  0
  7 21  1  0  0  0  0
  8  9  2  0  0  0  0
  8 24  1  0  0  0  0
  9 25  1  0  0  0  0
 10 26  1  0  0  0  0
 11 26  2  0  0  0  0
 12 27  1  0  0  0  0
 13 14  2  0  0  0  0
 13 28  1  0  0  0  0
 14 30  1  0  0  0  0
 15 23  1  0  0  0  0
 15 27  2  0  0  0  0
 16 24  2  0  0  0  0
 16 29  1  0  0  0  0
 17 30  2  0  0  0  0
 17 31  1  0  0  0  0
 18 32  1  0  0  0  0
 19 32  1  0  0  0  0
 19 33  2  0  0  0  0
 19 34  1  0  0  0  0
 20 22  2  0  0  0  0
 20 39  1  0  0  0  0
 21 23  2  0  0  0  0
 21 40  1  0  0  0  0
 22 48  1  0  0  0  0
 23 41  1  0  0  0  0
 24 51  1  0  0  0  0
 25 29  2  0  0  0  0
 25 68  1  0  0  0  0
 26 77  1  0  0  0  0
 27 78  1  0  0  0  0
 28 31  2  0  0  0  0
 28 77  1  0  0  0  0
 29 79  1  0  0  0  0
 30 80  1  0  0  0  0
 31 81  1  0  0  0  0
 32 62  2  0  0  0  0
 33 63  1  0  0  0  0
 33 66  1  0  0  0  0
 34 67  1  0  0  0  0
 34 72  2  0  0  0  0
 35 49  1  0  0  0  0
 35 69  1  0  0  0  0
 35 73  2  0  0  0  0
 36 59  1  0  0  0  0
 36 64  1  0  0  0  0
 36 74  2  0  0  0  0
 37 60  1  0  0  0  0
 37 70  1  0  0  0  0
 37 75  2  0  0  0  0
 38 65  1  0  0  0  0
 38 68  1  0  0  0  0
 38 76  2  0  0  0  0
 39 42  1  0  0  0  0
 40 49  1  0  0  0  0
 41 64  1  0  0  0  0
 42 44  1  0  0  0  0
 43 45  1  0  0  0  0
 43 46  1  0  0  0  0
 44 48  1  0  0  0  0
 45 50  1  0  0  0  0
 46 65  1  0  0  0  0
 47 50  1  0  0  0  0
 47 65  1  0  0  0  0
 48 69  1  0  0  0  0
 49 64  1  0  0  0  0
 50 63  1  0  0  0  0
 52 60  1  0  0  0  0
 53 61  1  0  0  0  0
 54 61  1  0  0  0  0
 55 61  1  0  0  0  0
 56 71  1  0  0  0  0
 57 58  1  0  0  0  0
 57 78  1  0  0  0  0
 58 79  1  0  0  0  0
 59 61  1  0  0  0  0
 59 70  1  0  0  0  0
 60 71  1  0  0  0  0
 62 63  1  0  0  0  0
M  CHG  1  71   1
M  ISO  4  38 100  57 101  68 100  78 101
M  END
> <Batch ID>
0009

> <Smiles>
CNC(C)C(=O)NC(C(=O)N1Cc2cc([101O:1][101CH2:1]COc3cc(C)ccc3[100NH:0][100C:0](=O)N3CCCC(n4nc(-c5ccc(Oc6ccc(F)cc6F)cc5)c(C(N)=O)c4N)C3)ccc2CC1C(=O)NC1CCCc2ccccc21)C(C)(C)C

> <Shape>
0.211

> <Color>
0.057

> <Negative vol penalty>
0.000

$$$$

  -OEChem-04052315383D

 83 91  0     1  0  0  0  0  0999 V2000
  -19.1769  -30.7801   24.8767 C   0  0  0  0  0  0  0  0  0  0  0  0
  -20.5253  -30.5219   24.6520 C   0  0  0  0  0  0  0  0  0  0  0  0
  -24.6285  -14.6784   20.5438 C   0  0  0  0  0  0  0  0  0  0  0  0
  -26.8812  -14.4569   21.3885 C   0  0  0  0  0  0  0  0  0  0  0  0
  -18.2079  -29.9253   24.3530 C   0  0  0  0  0  0  0  0  0  0  0  0
  -20.9056  -29.4079   23.9044 C   0  0  0  0  0  0  0  0  0  0  0  0
  -25.6931  -28.9809   20.1092 C   0  0  0  0  0  0  0  0  0  0  0  0
  -24.5722  -13.3007   20.3329 C   0  0  0  0  0  0  0  0  0  0  0  0
  -26.8248  -13.0792   21.1777 C   0  0  0  0  0  0  0  0  0  0  0  0
  -26.9724  -28.4503   20.2691 C   0  0  0  0  0  0  0  0  0  0  0  0
  -24.0839  -10.5150   22.1860 C   0  0  0  0  0  0  0  0  0  0  0  0
  -22.9306   -9.8437   22.5921 C   0  0  0  0  0  0  0  0  0  0  0  0
  -26.2317  -26.3807   19.2754 C   0  0  0  0  0  0  0  0  0  0  0  0
  -33.7062  -21.2519   20.6857 C   0  0  0  0  0  0  0  0  0  0  0  0
  -32.4675  -23.3193   20.8540 C   0  0  0  0  0  0  0  0  0  0  0  0
  -22.5493   -9.1232   20.3177 C   0  0  0  0  0  0  0  0  0  0  0  0
  -25.7831  -15.2565   21.0716 C   0  0  0  0  0  0  0  0  0  0  0  0
  -25.4737  -17.3773   22.4550 C   0  0  0  0  0  0  0  0  0  0  0  0
  -18.5762  -28.8056   23.5905 C   0  0  0  0  0  0  0  0  0  0  0  0
  -24.6689  -28.2103   19.5402 C   0  0  0  0  0  0  0  0  0  0  0  0
  -19.9407  -28.5365   23.3712 C   0  0  0  0  0  0  0  0  0  0  0  0
  -24.9409  -26.9047   19.1070 C   0  0  0  0  0  0  0  0  0  0  0  0
  -33.6282  -22.5837   21.0930 C   0  0  0  0  0  0  0  0  0  0  0  0
  -32.6233  -20.6558   20.0393 C   0  0  0  0  0  0  0  0  0  0  0  0
  -31.3846  -22.7232   20.2076 C   0  0  0  0  0  0  0  0  0  0  0  0
  -31.4626  -21.3914   19.8003 C   0  0  0  0  0  0  0  0  0  0  0  0
  -25.6703  -12.5011   20.6498 C   0  0  0  0  0  0  0  0  0  0  0  0
  -27.2412  -27.1490   19.8549 C   0  0  0  0  0  0  0  0  0  0  0  0
  -24.4698  -10.4904   20.8458 C   0  0  0  0  0  0  0  0  0  0  0  0
  -22.1633   -9.1478   21.6579 C   0  0  0  0  0  0  0  0  0  0  0  0
  -23.7026   -9.7945   19.9117 C   0  0  0  0  0  0  0  0  0  0  0  0
  -25.8421  -16.6796   21.2892 C   0  0  0  0  0  0  0  0  0  0  0  0
  -25.7161  -18.6960   22.1570 C   0  0  0  0  0  0  0  0  0  0  0  0
  -24.9587  -16.8781   23.6964 C   0  0  0  0  0  0  0  0  0  0  0  0
  -21.8575  -27.1214   20.5470 C   0  0  0  0  0  0  0  0  0  0  0  0
  -21.5700  -26.1481   17.4660 C   0  0  0  0  0  0  0  0  0  0  0  0
  -30.1358  -24.8645   19.7724 C   0  0  0  0  0  0  0  0  0  0  0  0
  -23.1093  -25.2716   14.5490 C   0  0  0  0  0  0  0  0  0  0  0  0
  -29.4193  -21.4017   18.3268 C   0  0  0  0  0  0  0  0  0  0  0  0
  -17.4946  -27.8841   23.0850 C   0  0  0  0  0  0  0  0  0  0  0  0
  -23.3011  -28.8064   19.3502 C   0  0  0  0  0  0  0  0  0  0  0  0
  -23.8815  -26.0431   18.4717 C   0  0  0  0  0  0  0  0  0  0  0  0
  -17.9677  -26.9338   21.9879 C   0  0  0  0  0  0  0  0  0  0  0  0
  -25.8764  -21.7303   18.4554 C   0  0  0  0  0  0  0  0  0  0  0  0
  -19.2967  -26.2923   22.3739 C   0  0  0  0  0  0  0  0  0  0  0  0
  -25.4325  -20.5394   19.3079 C   0  0  0  0  0  0  0  0  0  0  0  0
  -27.0576  -21.3741   17.5545 C   0  0  0  0  0  0  0  0  0  0  0  0
  -27.7651  -19.5896   19.0987 C   0  0  0  0  0  0  0  0  0  0  0  0
  -20.3919  -27.3521   22.5444 C   0  0  1  0  0  0  0  0  0  0  0  0
  -22.2026  -27.7548   19.2289 C   0  0  1  0  0  0  0  0  0  0  0  0
  -26.6195  -19.9182   20.0699 C   0  0  2  0  0  0  0  0  0  0  0  0
  -34.7857  -23.2199   21.7855 C   0  0  0  0  0  0  0  0  0  0  0  0
  -32.7374  -19.2275   19.6146 C   0  0  0  0  0  0  0  0  0  0  0  0
  -22.6122  -24.4871   12.2177 C   0  0  0  0  0  0  0  0  0  0  0  0
  -20.9786  -23.3524   18.5355 C   0  0  0  0  0  0  0  0  0  0  0  0
  -21.4325  -22.4550   16.2427 C   0  0  0  0  0  0  0  0  0  0  0  0
  -19.5524  -24.0540   16.6047 C   0  0  0  0  0  0  0  0  0  0  0  0
  -24.3740  -27.6636   13.3499 C   0  0  0  0  0  0  0  0  0  0  0  0
  -28.6940  -25.2888   19.5637 C   0  0  0  0  0  0  0  0  0  1  0  0
  -21.9335  -24.8983   16.7013 C   0  0  1  0  0  0  0  0  0  0  0  0
  -22.8589  -25.6921   13.1120 C   0  0  2  0  0  0  0  0  0  0  0  0
  -20.9939  -23.7052   17.0348 C   0  0  0  0  0  0  0  0  0  0  0  0
  -26.2846  -17.4881   20.3225 N   0  0  0  0  0  0  0  0  0  0  0  0
  -26.1958  -18.7076   20.8803 N   0  0  0  0  0  0  0  0  0  0  0  0
  -22.5583  -26.6688   18.3134 N   0  0  0  0  0  0  0  0  0  0  0  0
  -28.1455  -20.7951   18.3457 N   0  0  0  0  0  0  0  0  0  0  0  0
  -25.5633  -19.8352   22.8650 N   0  0  0  0  0  0  0  0  0  0  0  0
  -24.7703  -15.4961   23.8342 N   0  0  0  0  0  0  0  0  0  0  0  0
  -30.2187  -23.4915   19.9779 N   0  0  0  0  0  0  0  0  0  0  0  0
  -30.3651  -20.7821   19.1430 N   0  0  0  0  0  0  0  0  0  0  0  0
  -20.8762  -27.7907   21.2531 N   0  0  0  0  0  0  0  0  0  0  0  0
  -21.9472  -25.2720   15.2911 N   0  0  0  0  0  0  0  0  0  0  0  0
  -24.0325  -26.4403   12.5792 N   0  3  0  0  0  0  0  0  0  0  0  0
  -24.6584  -17.6366   24.6493 O   0  0  0  0  0  0  0  0  0  0  0  0
  -22.4374  -26.1001   20.8967 O   0  0  0  0  0  0  0  0  0  0  0  0
  -20.4530  -26.6482   17.3116 O   0  0  0  0  0  0  0  0  0  0  0  0
  -31.0543  -25.6771   19.7503 O   0  0  0  0  0  0  0  0  0  0  0  0
  -24.2237  -24.9691   14.9699 O   0  0  0  0  0  0  0  0  0  0  0  0
  -29.6464  -22.4134   17.6584 O   0  0  0  0  0  0  0  0  0  0  0  0
  -25.6155  -11.1568   20.4444 O   0  0  0  0  0  0  0  0  0  0  0  0
  -28.4888  -26.6285   20.0104 O   0  0  0  0  0  0  0  0  0  1  0  0
  -21.0567   -8.5019   22.0483 F   0  0  0  0  0  0  0  0  0  0  0  0
  -24.0689   -9.7664   18.6230 F   0  0  0  0  0  0  0  0  0  0  0  0
  1  2  1  0  0  0  0
  1  5  2  0  0  0  0
  2  6  2  0  0  0  0
  3  8  2  0  0  0  0
  3 17  1  0  0  0  0
  4  9  1  0  0  0  0
  4 17  2  0  0  0  0
  5 19  1  0  0  0  0
  6 21  1  0  0  0  0
  7 10  2  0  0  0  0
  7 20  1  0  0  0  0
  8 27  1  0  0  0  0
  9 27  2  0  0  0  0
 10 28  1  0  0  0  0
 11 12  2  0  0  0  0
 11 29  1  0  0  0  0
 12 30  1  0  0  0  0
 13 22  1  0  0  0  0
 13 28  2  0  0  0  0
 14 23  1  0  0  0  0
 14 24  2  0  0  0  0
 15 23  2  0  0  0  0
 15 25  1  0  0  0  0
 16 30  2  0  0  0  0
 16 31  1  0  0  0  0
 17 32  1  0  0  0  0
 18 32  1  0  0  0  0
 18 33  2  0  0  0  0
 18 34  1  0  0  0  0
 19 21  2  0  0  0  0
 19 40  1  0  0  0  0
 20 22  2  0  0  0  0
 20 41  1  0  0  0  0
 21 49  1  0  0  0  0
 22 42  1  0  0  0  0
 23 52  1  0  0  0  0
 24 26  1  0  0  0  0
 24 53  1  0  0  0  0
 25 26  2  0  0  0  0
 25 69  1  0  0  0  0
 26 70  1  0  0  0  0
 27 80  1  0  0  0  0
 28 81  1  0  0  0  0
 29 31  2  0  0  0  0
 29 80  1  0  0  0  0
 30 82  1  0  0  0  0
 31 83  1  0  0  0  0
 32 63  2  0  0  0  0
 33 64  1  0  0  0  0
 33 67  1  0  0  0  0
 34 68  1  0  0  0  0
 34 74  2  0  0  0  0
 35 50  1  0  0  0  0
 35 71  1  0  0  0  0
 35 75  2  0  0  0  0
 36 60  1  0  0  0  0
 36 65  1  0  0  0  0
 36 76  2  0  0  0  0
 37 59  1  0  0  0  0
 37 69  1  0  0  0  0
 37 77  2  0  0  0  0
 38 61  1  0  0  0  0
 38 72  1  0  0  0  0
 38 78  2  0  0  0  0
 39 66  1  0  0  0  0
 39 70  1  0  0  0  0
 39 79  2  0  0  0  0
 40 43  1  0  0  0  0
 41 50  1  0  0  0  0
 42 65  1  0  0  0  0
 43 45  1  0  0  0  0
 44 46  1  0  0  0  0
 44 47  1  0  0  0  0
 45 49  1  0  0  0  0
 46 51  1  0  0  0  0
 47 66  1  0  0  0  0
 48 51  1  0  0  0  0
 48 66  1  0  0  0  0
 49 71  1  0  0  0  0
 50 65  1  0  0  0  0
 51 64  1  0  0  0  0
 54 61  1  0  0  0  0
 55 62  1  0  0  0  0
 56 62  1  0  0  0  0
 57 62  1  0  0  0  0
 58 73  1  0  0  0  0
 59 81  1  0  0  0  0
 60 62  1  0  0  0  0
 60 72  1  0  0  0  0
 61 73  1  0  0  0  0
 63 64  1  0  0  0  0
M  CHG  1  73   1
M  ISO  4  39 100  59 101  70 100  81 101
M  END
> <Batch ID>
0009

> <Smiles>
CNC(C)C(=O)NC(C(=O)N1Cc2cc([101O:1][101CH2:1]C(=O)Nc3cc(C)cc(C)c3[100NH:0][100C:0](=O)N3CCCC(n4nc(-c5ccc(Oc6ccc(F)cc6F)cc5)c(C(N)=O)c4N)C3)ccc2CC1C(=O)NC1CCCc2ccccc21)C(C)(C)C

> <Shape>
0.217

> <Color>
0.094

> <Negative vol penalty>
0.000

$$$$

  -OEChem-04052315383D

 80 88  0     1  0  0  0  0  0999 V2000
  -16.6850  -27.6375   24.1017 C   0  0  0  0  0  0  0  0  0  0  0  0
  -17.3767  -26.7062   23.3338 C   0  0  0  0  0  0  0  0  0  0  0  0
  -22.8346  -10.8731   21.3570 C   0  0  0  0  0  0  0  0  0  0  0  0
  -24.5472   -9.1707   21.2807 C   0  0  0  0  0  0  0  0  0  0  0  0
  -17.0753  -28.9760   24.0907 C   0  0  0  0  0  0  0  0  0  0  0  0
  -18.4584  -27.1131   22.5535 C   0  0  0  0  0  0  0  0  0  0  0  0
  -22.4209  -23.9840   22.9432 C   0  0  0  0  0  0  0  0  0  0  0  0
  -21.8595   -9.8858   21.4986 C   0  0  0  0  0  0  0  0  0  0  0  0
  -23.5721   -8.1834   21.4223 C   0  0  0  0  0  0  0  0  0  0  0  0
  -22.3621  -22.7898   22.2262 C   0  0  0  0  0  0  0  0  0  0  0  0
  -21.5682   -5.2325   22.1258 C   0  0  0  0  0  0  0  0  0  0  0  0
  -21.8156   -4.2008   23.0312 C   0  0  0  0  0  0  0  0  0  0  0  0
  -23.7632  -23.7548   20.5159 C   0  0  0  0  0  0  0  0  0  0  0  0
  -21.9733   -5.8122   24.8244 C   0  0  0  0  0  0  0  0  0  0  0  0
  -24.1785  -10.5155   21.2481 C   0  0  0  0  0  0  0  0  0  0  0  0
  -25.8862  -12.1927   22.1304 C   0  0  0  0  0  0  0  0  0  0  0  0
  -18.1683  -29.3978   23.3174 C   0  0  0  0  0  0  0  0  0  0  0  0
  -23.1435  -25.0780   22.4459 C   0  0  0  0  0  0  0  0  0  0  0  0
  -18.8627  -28.4587   22.5311 C   0  0  0  0  0  0  0  0  0  0  0  0
  -23.8317  -24.9609   21.2299 C   0  0  0  0  0  0  0  0  0  0  0  0
  -22.2282   -8.5410   21.5312 C   0  0  0  0  0  0  0  0  0  0  0  0
  -23.0309  -22.6760   21.0109 C   0  0  0  0  0  0  0  0  0  0  0  0
  -21.5235   -6.5542   22.5696 C   0  0  0  0  0  0  0  0  0  0  0  0
  -22.0181   -4.4906   24.3805 C   0  0  0  0  0  0  0  0  0  0  0  0
  -21.7260   -6.8440   23.9189 C   0  0  0  0  0  0  0  0  0  0  0  0
  -25.1862  -11.5349   21.1013 C   0  0  0  0  0  0  0  0  0  0  0  0
  -26.7229  -13.0626   21.4749 C   0  0  0  0  0  0  0  0  0  0  0  0
  -25.7889  -12.0317   23.5518 C   0  0  0  0  0  0  0  0  0  0  0  0
  -22.4031  -28.0396   21.5602 C   0  0  0  0  0  0  0  0  0  0  0  0
  -25.6202  -28.3414   21.2736 C   0  0  0  0  0  0  0  0  0  0  0  0
  -28.6419  -26.8261   20.8052 C   0  0  0  0  0  0  0  0  0  0  0  0
  -24.0541  -15.2412   17.9067 C   0  0  0  0  0  0  0  0  0  0  0  0
  -18.5234  -30.8635   23.3010 C   0  0  0  0  0  0  0  0  0  0  0  0
  -23.2191  -26.3504   23.2445 C   0  0  0  0  0  0  0  0  0  0  0  0
  -24.6381  -26.0993   20.6622 C   0  0  0  0  0  0  0  0  0  0  0  0
  -19.9136  -31.1472   22.7379 C   0  0  0  0  0  0  0  0  0  0  0  0
  -26.1266  -12.6054   16.8525 C   0  0  0  0  0  0  0  0  0  0  0  0
  -20.1349  -30.3686   21.4450 C   0  0  0  0  0  0  0  0  0  0  0  0
  -27.3484  -12.6810   17.7640 C   0  0  0  0  0  0  0  0  0  0  0  0
  -25.6430  -13.9981   16.4752 C   0  0  0  0  0  0  0  0  0  0  0  0
  -24.8541  -17.5602   18.5277 C   0  0  0  0  0  0  0  0  0  0  0  0
  -26.4857  -14.9464   18.6057 C   0  0  0  0  0  0  0  0  0  0  0  0
  -24.2140  -18.8161   17.9510 C   0  0  0  0  0  0  0  0  0  0  0  0
  -21.9737  -18.0097   18.6926 C   0  0  0  0  0  0  0  0  0  0  0  0
  -20.0568  -28.8570   21.6910 C   0  0  1  0  0  0  0  0  0  0  0  0
  -23.5614  -27.5700   22.3942 C   0  0  1  0  0  0  0  0  0  0  0  0
  -27.1487  -13.6017   18.9805 C   0  0  1  0  0  0  0  0  0  0  0  0
  -22.6094  -16.7407   19.2622 C   0  0  2  0  0  0  0  0  0  0  0  0
  -23.3363  -15.5184   21.3180 C   0  0  0  0  0  0  0  0  0  0  0  0
  -31.0882  -27.3379   20.5789 C   0  0  0  0  0  0  0  0  0  0  0  0
  -25.1484  -29.3241   18.4237 C   0  0  0  0  0  0  0  0  0  0  0  0
  -27.5723  -28.9091   17.9538 C   0  0  0  0  0  0  0  0  0  0  0  0
  -26.9071  -30.5799   19.6826 C   0  0  0  0  0  0  0  0  0  0  0  0
  -29.3173  -25.2235   23.1998 C   0  0  0  0  0  0  0  0  0  0  0  0
  -22.7810  -16.7957   20.7833 C   0  0  0  0  0  0  0  0  0  0  0  0
  -22.3433  -20.4351   18.2489 C   0  0  0  0  0  0  0  0  0  0  0  0
  -23.0675  -21.6031   18.8888 C   0  0  0  0  0  0  0  0  0  1  0  0
  -26.6208  -28.1149   20.1662 C   0  0  1  0  0  0  0  0  0  0  0  0
  -29.9649  -26.9699   21.5357 C   0  0  2  0  0  0  0  0  0  0  0  0
  -26.5454  -29.2110   19.0660 C   0  0  0  0  0  0  0  0  0  0  0  0
  -25.5467  -11.9514   19.8845 N   0  0  0  0  0  0  0  0  0  0  0  0
  -26.4823  -12.8803   20.1448 N   0  0  0  0  0  0  0  0  0  0  0  0
  -24.6763  -27.3248   21.4772 N   0  0  0  0  0  0  0  0  0  0  0  0
  -25.3672  -14.8076   17.6608 N   0  0  0  0  0  0  0  0  0  0  0  0
  -23.8960  -16.4479   18.6069 N   0  0  0  0  0  0  0  0  0  0  0  0
  -27.6336  -13.9581   21.9122 N   0  0  0  0  0  0  0  0  0  0  0  0
  -24.8782  -11.0939   24.0572 N   0  0  0  0  0  0  0  0  0  0  0  0
  -21.2825  -28.3790   22.2939 N   0  0  0  0  0  0  0  0  0  0  0  0
  -27.9248  -28.0038   20.8107 N   0  0  0  0  0  0  0  0  0  0  0  0
  -22.9623  -19.1485   18.7209 N   0  3  2  0  0  0  0  0  0  0  0  0
  -30.3242  -25.6920   22.2130 N   0  3  0  0  0  0  0  0  0  0  0  0
  -26.4771  -12.7114   24.3505 O   0  0  0  0  0  0  0  0  0  0  0  0
  -22.5182  -28.0917   20.3413 O   0  0  0  0  0  0  0  0  0  0  0  0
  -25.6785  -29.3789   21.9384 O   0  0  0  0  0  0  0  0  0  0  0  0
  -28.2824  -25.7753   20.2789 O   0  0  0  0  0  0  0  0  0  0  0  0
  -23.0771  -14.5778   17.5365 O   0  0  0  0  0  0  0  0  0  0  0  0
  -21.2770   -7.5773   21.6696 O   0  0  0  0  0  0  0  0  0  0  0  0
  -22.9743  -21.5034   20.3036 O   0  0  0  0  0  0  0  0  0  1  0  0
  -22.2541   -3.4995   25.2502 F   0  0  0  0  0  0  0  0  0  0  0  0
  -21.6831   -8.1117   24.3514 F   0  0  0  0  0  0  0  0  0  0  0  0
  1  2  1  0  0  0  0
  1  5  2  0  0  0  0
  2  6  2  0  0  0  0
  3  8  2  0  0  0  0
  3 15  1  0  0  0  0
  4  9  1  0  0  0  0
  4 15  2  0  0  0  0
  5 17  1  0  0  0  0
  6 19  1  0  0  0  0
  7 10  2  0  0  0  0
  7 18  1  0  0  0  0
  8 21  1  0  0  0  0
  9 21  2  0  0  0  0
 10 22  1  0  0  0  0
 11 12  2  0  0  0  0
 11 23  1  0  0  0  0
 12 24  1  0  0  0  0
 13 20  1  0  0  0  0
 13 22  2  0  0  0  0
 14 24  2  0  0  0  0
 14 25  1  0  0  0  0
 15 26  1  0  0  0  0
 16 26  1  0  0  0  0
 16 27  2  0  0  0  0
 16 28  1  0  0  0  0
 17 19  2  0  0  0  0
 17 33  1  0  0  0  0
 18 20  2  0  0  0  0
 18 34  1  0  0  0  0
 19 45  1  0  0  0  0
 20 35  1  0  0  0  0
 21 77  1  0  0  0  0
 22 78  1  0  0  0  0
 23 25  2  0  0  0  0
 23 77  1  0  0  0  0
 24 79  1  0  0  0  0
 25 80  1  0  0  0  0
 26 61  2  0  0  0  0
 27 62  1  0  0  0  0
 27 66  1  0  0  0  0
 28 67  1  0  0  0  0
 28 72  2  0  0  0  0
 29 46  1  0  0  0  0
 29 68  1  0  0  0  0
 29 73  2  0  0  0  0
 30 58  1  0  0  0  0
 30 63  1  0  0  0  0
 30 74  2  0  0  0  0
 31 59  1  0  0  0  0
 31 69  1  0  0  0  0
 31 75  2  0  0  0  0
 32 64  1  0  0  0  0
 32 65  1  0  0  0  0
 32 76  2  0  0  0  0
 33 36  1  0  0  0  0
 34 46  1  0  0  0  0
 35 63  1  0  0  0  0
 36 38  1  0  0  0  0
 37 39  1  0  0  0  0
 37 40  1  0  0  0  0
 38 45  1  0  0  0  0
 39 47  1  0  0  0  0
 40 64  1  0  0  0  0
 41 43  1  0  0  0  0
 41 65  1  0  0  0  0
 42 47  1  0  0  0  0
 42 64  1  0  0  0  0
 43 70  1  0  0  0  0
 44 48  1  0  0  0  0
 44 70  1  0  0  0  0
 45 68  1  0  0  0  0
 46 63  1  0  0  0  0
 47 62  1  0  0  0  0
 48 55  1  0  0  0  0
 48 65  1  0  0  0  0
 49 55  1  0  0  0  0
 50 59  1  0  0  0  0
 51 60  1  0  0  0  0
 52 60  1  0  0  0  0
 53 60  1  0  0  0  0
 54 71  1  0  0  0  0
 56 57  1  0  0  0  0
 56 70  1  0  0  0  0
 57 78  1  0  0  0  0
 58 60  1  0  0  0  0
 58 69  1  0  0  0  0
 59 71  1  0  0  0  0
 61 62  1  0  0  0  0
M  CHG  2  70   1  71   1
M  ISO  4  32 100  57 101  65 100  78 101
M  END
> <Batch ID>
0009

> <Smiles>
CCC1CN(C[101CH2:1][101O:1]c2ccc3c(c2)CN(C(=O)C(NC(=O)C(C)NC)C(C)(C)C)C(C(=O)NC2CCCc4ccccc42)C3)CC[100N:0]1[100C:0](=O)N1CCCC(n2nc(-c3ccc(Oc4ccc(F)cc4F)cc3)c(C(N)=O)c2N)C1

> <Shape>
0.226

> <Color>
0.082

> <Negative vol penalty>
0.000

$$$$

  -OEChem-04052315383D

 85 93  0     1  0  0  0  0  0999 V2000
  -24.8640  -35.7551   15.7471 C   0  0  0  0  0  0  0  0  0  0  0  0
  -25.0115  -34.3726   15.6998 C   0  0  0  0  0  0  0  0  0  0  0  0
  -23.3485  -10.3038   21.6079 C   0  0  0  0  0  0  0  0  0  0  0  0
  -22.6860  -12.4252   22.5553 C   0  0  0  0  0  0  0  0  0  0  0  0
  -25.2178  -36.4537   16.9007 C   0  0  0  0  0  0  0  0  0  0  0  0
  -25.5141  -33.6879   16.8058 C   0  0  0  0  0  0  0  0  0  0  0  0
  -23.9219  -28.0872   18.7038 C   0  0  0  0  0  0  0  0  0  0  0  0
  -22.3644   -9.6610   22.3588 C   0  0  0  0  0  0  0  0  0  0  0  0
  -21.7018  -11.7825   23.3062 C   0  0  0  0  0  0  0  0  0  0  0  0
  -24.5091  -26.8350   18.5280 C   0  0  0  0  0  0  0  0  0  0  0  0
  -21.9493   -8.6164   25.5464 C   0  0  0  0  0  0  0  0  0  0  0  0
  -22.3033   -7.4388   26.2048 C   0  0  0  0  0  0  0  0  0  0  0  0
  -25.5995  -27.0524   20.6688 C   0  0  0  0  0  0  0  0  0  0  0  0
  -30.5703  -19.1912   20.3053 C   0  0  0  0  0  0  0  0  0  0  0  0
  -28.8457  -20.5083   18.5521 C   0  0  0  0  0  0  0  0  0  0  0  0
  -20.6192   -6.2357   24.9584 C   0  0  0  0  0  0  0  0  0  0  0  0
  -23.5094  -11.6859   21.7061 C   0  0  0  0  0  0  0  0  0  0  0  0
  -24.3933  -12.8872   19.6365 C   0  0  0  0  0  0  0  0  0  0  0  0
  -25.7158  -35.7762   18.0248 C   0  0  0  0  0  0  0  0  0  0  0  0
  -24.1781  -28.8374   19.8605 C   0  0  0  0  0  0  0  0  0  0  0  0
  -25.8761  -34.3783   17.9750 C   0  0  0  0  0  0  0  0  0  0  0  0
  -25.0122  -28.3127   20.8581 C   0  0  0  0  0  0  0  0  0  0  0  0
  -30.7417  -20.5515   20.0489 C   0  0  0  0  0  0  0  0  0  0  0  0
  -29.5366  -18.4894   19.6850 C   0  0  0  0  0  0  0  0  0  0  0  0
  -29.8794  -21.2101   19.1723 C   0  0  0  0  0  0  0  0  0  0  0  0
  -21.5410  -10.4003   23.2079 C   0  0  0  0  0  0  0  0  0  0  0  0
  -25.3504  -26.3187   19.5092 C   0  0  0  0  0  0  0  0  0  0  0  0
  -20.9302   -8.6037   24.5940 C   0  0  0  0  0  0  0  0  0  0  0  0
  -28.6743  -19.1480   18.8085 C   0  0  0  0  0  0  0  0  0  0  0  0
  -21.6383   -6.2485   25.9108 C   0  0  0  0  0  0  0  0  0  0  0  0
  -20.2652   -7.4133   24.3000 C   0  0  0  0  0  0  0  0  0  0  0  0
  -24.5262  -12.3504   20.9311 C   0  0  0  0  0  0  0  0  0  0  0  0
  -25.6333  -13.4035   19.3499 C   0  0  0  0  0  0  0  0  0  0  0  0
  -23.2509  -12.9166   18.7705 C   0  0  0  0  0  0  0  0  0  0  0  0
  -25.5107  -31.6617   20.4529 C   0  0  0  0  0  0  0  0  0  0  0  0
  -24.5309  -31.0513   23.4843 C   0  0  0  0  0  0  0  0  0  0  0  0
  -23.6533  -28.7381   25.8350 C   0  0  0  0  0  0  0  0  0  0  0  0
  -30.1511  -16.3164   20.8017 C   0  0  0  0  0  0  0  0  0  0  0  0
  -26.1292  -36.5796   19.2324 C   0  0  0  0  0  0  0  0  0  0  0  0
  -23.5156  -30.1748   20.0471 C   0  0  0  0  0  0  0  0  0  0  0  0
  -25.3032  -29.0695   22.1273 C   0  0  0  0  0  0  0  0  0  0  0  0
  -26.3021  -35.7377   20.4940 C   0  0  0  0  0  0  0  0  0  0  0  0
  -30.0533  -12.8894   21.7626 C   0  0  0  0  0  0  0  0  0  0  0  0
  -27.1119  -34.4812   20.1904 C   0  0  0  0  0  0  0  0  0  0  0  0
  -28.5957  -12.4878   21.5254 C   0  0  0  0  0  0  0  0  0  0  0  0
  -30.1697  -14.3211   22.2827 C   0  0  0  0  0  0  0  0  0  0  0  0
  -28.0263  -14.9327   21.2335 C   0  0  0  0  0  0  0  0  0  0  0  0
  -26.3944  -33.5972   19.1631 C   0  0  1  0  0  0  0  0  0  0  0  0
  -24.2545  -31.0753   21.0323 C   0  0  1  0  0  0  0  0  0  0  0  0
  -27.8623  -13.5208   20.6476 C   0  0  2  0  0  0  0  0  0  0  0  0
  -31.8578  -21.2785   20.7259 C   0  0  0  0  0  0  0  0  0  0  0  0
  -22.9379  -28.5393   28.2321 C   0  0  0  0  0  0  0  0  0  0  0  0
  -27.4034  -31.5556   24.3810 C   0  0  0  0  0  0  0  0  0  0  0  0
  -26.8480  -30.4392   26.5520 C   0  0  0  0  0  0  0  0  0  0  0  0
  -25.6558  -32.5260   25.8839 C   0  0  0  0  0  0  0  0  0  0  0  0
  -30.8883  -23.0118   17.7953 C   0  0  0  0  0  0  0  0  0  0  0  0
  -21.0695  -27.5065   25.0827 C   0  0  0  0  0  0  0  0  0  0  0  0
  -26.4039  -18.4425   18.8676 C   0  0  0  0  0  0  0  0  0  0  0  0
  -27.9741  -23.8648   19.1301 C   0  0  0  0  0  0  0  0  0  0  0  0
  -29.3622  -23.5815   19.6913 C   0  0  0  0  0  0  0  0  0  0  0  0
  -27.1977  -24.8876   19.9513 C   0  0  0  0  0  0  0  0  0  1  0  0
  -25.1341  -30.3624   24.6845 C   0  0  1  0  0  0  0  0  0  0  0  0
  -22.4748  -28.6689   26.7894 C   0  0  2  0  0  0  0  0  0  0  0  0
  -26.2566  -31.2071   25.3507 C   0  0  0  0  0  0  0  0  0  0  0  0
  -25.7539  -12.5106   21.4322 N   0  0  0  0  0  0  0  0  0  0  0  0
  -26.4037  -13.1539   20.4473 N   0  0  0  0  0  0  0  0  0  0  0  0
  -24.6369  -30.3755   22.2604 N   0  0  0  0  0  0  0  0  0  0  0  0
  -29.4548  -15.2442   21.3987 N   0  0  0  0  0  0  0  0  0  0  0  0
  -26.1290  -14.0419   18.2687 N   0  0  0  0  0  0  0  0  0  0  0  0
  -22.0554  -12.3409   19.2218 N   0  0  0  0  0  0  0  0  0  0  0  0
  -29.3752  -17.1079   19.9554 N   0  0  0  0  0  0  0  0  0  0  0  0
  -25.3197  -32.8607   19.7930 N   0  0  0  0  0  0  0  0  0  0  0  0
  -24.0219  -30.0405   25.5722 N   0  0  0  0  0  0  0  0  0  0  0  0
  -30.0362  -22.5775   18.9039 N   0  0  3  0  0  0  0  0  0  0  0  0
  -21.6137  -27.4966   26.4650 N   0  3  0  0  0  0  0  0  0  0  0  0
  -23.2938  -13.4235   17.6239 O   0  0  0  0  0  0  0  0  0  0  0  0
  -26.5749  -31.0709   20.5953 O   0  0  0  0  0  0  0  0  0  0  0  0
  -23.9795  -32.1453   23.6287 O   0  0  0  0  0  0  0  0  0  0  0  0
  -24.1953  -27.7368   25.3722 O   0  0  0  0  0  0  0  0  0  0  0  0
  -31.3540  -16.5015   21.0034 O   0  0  0  0  0  0  0  0  0  0  0  0
  -20.5804   -9.7735   23.9407 O   0  0  0  0  0  0  0  0  0  0  0  0
  -27.6586  -18.4804   18.1913 O   0  0  0  0  0  0  0  0  0  0  0  0
  -25.9254  -25.0970   19.3399 O   0  0  0  0  0  0  0  0  0  1  0  0
  -21.9794   -5.1174   26.5420 F   0  0  0  0  0  0  0  0  0  0  0  0
  -19.2862   -7.3946   23.3852 F   0  0  0  0  0  0  0  0  0  0  0  0
  1  2  1  0  0  0  0
  1  5  2  0  0  0  0
  2  6  2  0  0  0  0
  3  8  2  0  0  0  0
  3 17  1  0  0  0  0
  4  9  1  0  0  0  0
  4 17  2  0  0  0  0
  5 19  1  0  0  0  0
  6 21  1  0  0  0  0
  7 10  2  0  0  0  0
  7 20  1  0  0  0  0
  8 26  1  0  0  0  0
  9 26  2  0  0  0  0
 10 27  1  0  0  0  0
 11 12  2  0  0  0  0
 11 28  1  0  0  0  0
 12 30  1  0  0  0  0
 13 22  1  0  0  0  0
 13 27  2  0  0  0  0
 14 23  1  0  0  0  0
 14 24  2  0  0  0  0
 15 25  1  0  0  0  0
 15 29  2  0  0  0  0
 16 30  2  0  0  0  0
 16 31  1  0  0  0  0
 17 32  1  0  0  0  0
 18 32  1  0  0  0  0
 18 33  2  0  0  0  0
 18 34  1  0  0  0  0
 19 21  2  0  0  0  0
 19 39  1  0  0  0  0
 20 22  2  0  0  0  0
 20 40  1  0  0  0  0
 21 48  1  0  0  0  0
 22 41  1  0  0  0  0
 23 25  2  0  0  0  0
 23 51  1  0  0  0  0
 24 29  1  0  0  0  0
 24 71  1  0  0  0  0
 25 74  1  0  0  0  0
 26 81  1  0  0  0  0
 27 83  1  0  0  0  0
 28 31  2  0  0  0  0
 28 81  1  0  0  0  0
 29 82  1  0  0  0  0
 30 84  1  0  0  0  0
 31 85  1  0  0  0  0
 32 65  2  0  0  0  0
 33 66  1  0  0  0  0
 33 69  1  0  0  0  0
 34 70  1  0  0  0  0
 34 76  2  0  0  0  0
 35 49  1  0  0  0  0
 35 72  1  0  0  0  0
 35 77  2  0  0  0  0
 36 62  1  0  0  0  0
 36 67  1  0  0  0  0
 36 78  2  0  0  0  0
 37 63  1  0  0  0  0
 37 73  1  0  0  0  0
 37 79  2  0  0  0  0
 38 68  1  0  0  0  0
 38 71  1  0  0  0  0
 38 80  2  0  0  0  0
 39 42  1  0  0  0  0
 40 49  1  0  0  0  0
 41 67  1  0  0  0  0
 42 44  1  0  0  0  0
 43 45  1  0  0  0  0
 43 46  1  0  0  0  0
 44 48  1  0  0  0  0
 45 50  1  0  0  0  0
 46 68  1  0  0  0  0
 47 50  1  0  0  0  0
 47 68  1  0  0  0  0
 48 72  1  0  0  0  0
 49 67  1  0  0  0  0
 50 66  1  0  0  0  0
 52 63  1  0  0  0  0
 53 64  1  0  0  0  0
 54 64  1  0  0  0  0
 55 64  1  0  0  0  0
 56 74  1  0  0  0  0
 57 75  1  0  0  0  0
 58 82  1  0  0  0  0
 59 60  1  0  0  0  0
 59 61  1  0  0  0  0
 60 74  1  0  0  0  0
 61 83  1  0  0  0  0
 62 64  1  0  0  0  0
 62 73  1  0  0  0  0
 63 75  1  0  0  0  0
 65 66  1  0  0  0  0
M  CHG  1  75   1
M  ISO  4  38 100  61 101  71 100  83 101
M  END
> <Batch ID>
0009

> <Smiles>
CNC(C)C(=O)NC(C(=O)N1Cc2cc([101O:1][101CH2:1]CCN(C)c3cc(OC)c([100NH:0][100C:0](=O)N4CCCC(n5nc(-c6ccc(Oc7ccc(F)cc7F)cc6)c(C(N)=O)c5N)C4)cc3C)ccc2CC1C(=O)NC1CCCc2ccccc21)C(C)(C)C

> <Shape>
0.266

> <Color>
0.074

> <Negative vol penalty>
0.000

$$$$

  -OEChem-04052315383D

 88 96  0     1  0  0  0  0  0999 V2000
  -27.3325  -33.7962   26.3196 C   0  0  0  0  0  0  0  0  0  0  0  0
  -27.6391  -32.6173   25.6477 C   0  0  0  0  0  0  0  0  0  0  0  0
  -23.0290  -14.1514   20.3313 C   0  0  0  0  0  0  0  0  0  0  0  0
  -25.2492  -14.8367   20.9934 C   0  0  0  0  0  0  0  0  0  0  0  0
  -26.0047  -34.1059   26.6114 C   0  0  0  0  0  0  0  0  0  0  0  0
  -26.6181  -31.7467   25.2680 C   0  0  0  0  0  0  0  0  0  0  0  0
  -27.1740  -30.0495   20.5293 C   0  0  0  0  0  0  0  0  0  0  0  0
  -23.4778  -12.8389   20.1849 C   0  0  0  0  0  0  0  0  0  0  0  0
  -25.6980  -13.5242   20.8470 C   0  0  0  0  0  0  0  0  0  0  0  0
  -28.1068  -29.0343   20.3219 C   0  0  0  0  0  0  0  0  0  0  0  0
  -23.9557   -9.2407   19.9852 C   0  0  0  0  0  0  0  0  0  0  0  0
  -23.1620   -8.2215   20.5112 C   0  0  0  0  0  0  0  0  0  0  0  0
  -26.3245  -27.4089   20.3013 C   0  0  0  0  0  0  0  0  0  0  0  0
  -27.1051  -23.8514   17.4830 C   0  0  0  0  0  0  0  0  0  0  0  0
  -29.2873  -23.2428   19.1110 C   0  0  0  0  0  0  0  0  0  0  0  0
  -23.3833   -9.1865   22.7150 C   0  0  0  0  0  0  0  0  0  0  0  0
  -23.9147  -15.1504   20.7355 C   0  0  0  0  0  0  0  0  0  0  0  0
  -22.9225  -17.0998   22.0481 C   0  0  0  0  0  0  0  0  0  0  0  0
  -24.9661  -33.2434   26.2266 C   0  0  0  0  0  0  0  0  0  0  0  0
  -25.8081  -29.7502   20.6353 C   0  0  0  0  0  0  0  0  0  0  0  0
  -25.2753  -32.0445   25.5561 C   0  0  0  0  0  0  0  0  0  0  0  0
  -25.3760  -28.4224   20.5075 C   0  0  0  0  0  0  0  0  0  0  0  0
  -28.2029  -24.7108   17.5279 C   0  0  0  0  0  0  0  0  0  0  0  0
  -27.0983  -22.6878   18.2523 C   0  0  0  0  0  0  0  0  0  0  0  0
  -29.2940  -24.4065   18.3418 C   0  0  0  0  0  0  0  0  0  0  0  0
  -24.8123  -12.5253   20.4427 C   0  0  0  0  0  0  0  0  0  0  0  0
  -27.6824  -27.7135   20.2107 C   0  0  0  0  0  0  0  0  0  0  0  0
  -24.4633  -10.2329   20.8241 C   0  0  0  0  0  0  0  0  0  0  0  0
  -28.1894  -22.3835   19.0662 C   0  0  0  0  0  0  0  0  0  0  0  0
  -22.8758   -8.1944   21.8761 C   0  0  0  0  0  0  0  0  0  0  0  0
  -24.1771  -10.2058   22.1890 C   0  0  0  0  0  0  0  0  0  0  0  0
  -23.4518  -16.5065   20.8864 C   0  0  0  0  0  0  0  0  0  0  0  0
  -22.6364  -18.3902   21.6748 C   0  0  0  0  0  0  0  0  0  0  0  0
  -22.7086  -16.5349   23.3485 C   0  0  0  0  0  0  0  0  0  0  0  0
  -23.6090  -30.0807   22.9066 C   0  0  0  0  0  0  0  0  0  0  0  0
  -21.6045  -29.0547   20.5717 C   0  0  0  0  0  0  0  0  0  0  0  0
  -27.1793  -26.3175   15.8862 C   0  0  0  0  0  0  0  0  0  0  0  0
  -21.1979  -27.3396   17.6494 C   0  0  0  0  0  0  0  0  0  0  0  0
  -24.8186  -21.9927   17.4363 C   0  0  0  0  0  0  0  0  0  0  0  0
  -23.5501  -33.5978   26.6058 C   0  0  0  0  0  0  0  0  0  0  0  0
  -24.8119  -30.8597   20.8324 C   0  0  0  0  0  0  0  0  0  0  0  0
  -23.9190  -28.0507   20.5937 C   0  0  0  0  0  0  0  0  0  0  0  0
  -22.4968  -32.8032   25.8379 C   0  0  0  0  0  0  0  0  0  0  0  0
  -21.4240  -20.9997   17.8466 C   0  0  0  0  0  0  0  0  0  0  0  0
  -22.8559  -31.3208   25.8181 C   0  0  0  0  0  0  0  0  0  0  0  0
  -21.5101  -19.7925   18.7833 C   0  0  0  0  0  0  0  0  0  0  0  0
  -22.5948  -21.0415   16.8662 C   0  0  0  0  0  0  0  0  0  0  0  0
  -24.0110  -19.7578   18.4205 C   0  0  0  0  0  0  0  0  0  0  0  0
  -24.1936  -31.0867   25.1059 C   0  0  1  0  0  0  0  0  0  0  0  0
  -23.4963  -30.3809   21.4386 C   0  0  1  0  0  0  0  0  0  0  0  0
  -22.8879  -19.7086   19.4692 C   0  0  2  0  0  0  0  0  0  0  0  0
  -27.5482  -27.6224   15.2262 C   0  0  0  0  0  0  0  0  0  0  0  0
  -32.2762  -24.5497   17.0063 C   0  0  0  0  0  0  0  0  0  0  0  0
  -19.4367  -26.6411   16.0039 C   0  0  0  0  0  0  0  0  0  0  0  0
  -20.6521  -26.8990   22.5098 C   0  0  0  0  0  0  0  0  0  0  0  0
  -19.6445  -25.6912   20.5620 C   0  0  0  0  0  0  0  0  0  0  0  0
  -18.8349  -27.9717   21.1675 C   0  0  0  0  0  0  0  0  0  0  0  0
  -22.4987  -28.8301   15.4481 C   0  0  0  0  0  0  0  0  0  0  0  0
  -27.6711  -21.3513   21.1451 C   0  0  0  0  0  0  0  0  0  0  0  0
  -31.1779  -25.5409   17.1912 C   0  0  0  0  0  0  0  0  0  0  0  0
  -30.8141  -25.8764   19.6414 C   0  0  0  0  0  0  0  0  0  0  0  0
  -29.9628  -27.1036   19.9209 C   0  0  0  0  0  0  0  0  0  1  0  0
  -21.1121  -27.7074   20.1012 C   0  0  1  0  0  0  0  0  0  0  0  0
  -20.4711  -27.6958   16.3651 C   0  0  2  0  0  0  0  0  0  0  0  0
  -20.0886  -27.0738   21.0854 C   0  0  0  0  0  0  0  0  0  0  0  0
  -23.5001  -17.3507   19.8525 N   0  0  0  0  0  0  0  0  0  0  0  0
  -22.9974  -18.4876   20.3632 N   0  0  0  0  0  0  0  0  0  0  0  0
  -22.9841  -29.1704   20.7933 N   0  0  0  0  0  0  0  0  0  0  0  0
  -23.8669  -20.9621   17.5876 N   0  0  0  0  0  0  0  0  0  0  0  0
  -22.1137  -19.4398   22.3438 N   0  0  0  0  0  0  0  0  0  0  0  0
  -23.0584  -15.1944   23.5604 N   0  0  0  0  0  0  0  0  0  0  0  0
  -28.1874  -25.8710   16.7484 N   0  0  0  0  0  0  0  0  0  0  0  0
  -25.9757  -21.8251   18.1962 N   0  0  0  0  0  0  0  0  0  0  0  0
  -24.0210  -31.1558   23.6707 N   0  0  0  0  0  0  0  0  0  0  0  0
  -20.5967  -27.9097   18.7515 N   0  0  0  0  0  0  0  0  0  0  0  0
  -30.4073  -25.2552   18.4018 N   0  0  3  0  0  0  0  0  0  0  0  0
  -21.4384  -27.8111   15.2373 N   0  3  0  0  0  0  0  0  0  0  0  0
  -22.2065  -17.1946   24.2899 O   0  0  0  0  0  0  0  0  0  0  0  0
  -23.3405  -28.9573   23.3159 O   0  0  0  0  0  0  0  0  0  0  0  0
  -20.7959  -29.9727   20.7297 O   0  0  0  0  0  0  0  0  0  0  0  0
  -26.1050  -25.7750   15.6483 O   0  0  0  0  0  0  0  0  0  0  0  0
  -22.1968  -26.6240   17.6729 O   0  0  0  0  0  0  0  0  0  0  0  0
  -24.6100  -22.9669   16.7087 O   0  0  0  0  0  0  0  0  0  0  0  0
  -25.2505  -11.2446   20.3002 O   0  0  0  0  0  0  0  0  0  0  0  0
  -28.2025  -21.2516   19.8258 O   0  0  0  0  0  0  0  0  0  0  0  0
  -28.5910  -26.7206   20.0089 O   0  0  0  0  0  0  0  0  0  1  0  0
  -22.1123   -7.2164   22.3809 F   0  0  0  0  0  0  0  0  0  0  0  0
  -24.6609  -11.1568   22.9997 F   0  0  0  0  0  0  0  0  0  0  0  0
  1  2  1  0  0  0  0
  1  5  2  0  0  0  0
  2  6  2  0  0  0  0
  3  8  2  0  0  0  0
  3 17  1  0  0  0  0
  4  9  1  0  0  0  0
  4 17  2  0  0  0  0
  5 19  1  0  0  0  0
  6 21  1  0  0  0  0
  7 10  2  0  0  0  0
  7 20  1  0  0  0  0
  8 26  1  0  0  0  0
  9 26  2  0  0  0  0
 10 27  1  0  0  0  0
 11 12  2  0  0  0  0
 11 28  1  0  0  0  0
 12 30  1  0  0  0  0
 13 22  1  0  0  0  0
 13 27  2  0  0  0  0
 14 23  1  0  0  0  0
 14 24  2  0  0  0  0
 15 25  1  0  0  0  0
 15 29  2  0  0  0  0
 16 30  2  0  0  0  0
 16 31  1  0  0  0  0
 17 32  1  0  0  0  0
 18 32  1  0  0  0  0
 18 33  2  0  0  0  0
 18 34  1  0  0  0  0
 19 21  2  0  0  0  0
 19 40  1  0  0  0  0
 20 22  2  0  0  0  0
 20 41  1  0  0  0  0
 21 49  1  0  0  0  0
 22 42  1  0  0  0  0
 23 25  2  0  0  0  0
 23 72  1  0  0  0  0
 24 29  1  0  0  0  0
 24 73  1  0  0  0  0
 25 76  1  0  0  0  0
 26 84  1  0  0  0  0
 27 86  1  0  0  0  0
 28 31  2  0  0  0  0
 28 84  1  0  0  0  0
 29 85  1  0  0  0  0
 30 87  1  0  0  0  0
 31 88  1  0  0  0  0
 32 66  2  0  0  0  0
 33 67  1  0  0  0  0
 33 70  1  0  0  0  0
 34 71  1  0  0  0  0
 34 78  2  0  0  0  0
 35 50  1  0  0  0  0
 35 74  1  0  0  0  0
 35 79  2  0  0  0  0
 36 63  1  0  0  0  0
 36 68  1  0  0  0  0
 36 80  2  0  0  0  0
 37 52  1  0  0  0  0
 37 72  1  0  0  0  0
 37 81  2  0  0  0  0
 38 64  1  0  0  0  0
 38 75  1  0  0  0  0
 38 82  2  0  0  0  0
 39 69  1  0  0  0  0
 39 73  1  0  0  0  0
 39 83  2  0  0  0  0
 40 43  1  0  0  0  0
 41 50  1  0  0  0  0
 42 68  1  0  0  0  0
 43 45  1  0  0  0  0
 44 46  1  0  0  0  0
 44 47  1  0  0  0  0
 45 49  1  0  0  0  0
 46 51  1  0  0  0  0
 47 69  1  0  0  0  0
 48 51  1  0  0  0  0
 48 69  1  0  0  0  0
 49 74  1  0  0  0  0
 50 68  1  0  0  0  0
 51 67  1  0  0  0  0
 53 60  1  0  0  0  0
 54 64  1  0  0  0  0
 55 65  1  0  0  0  0
 56 65  1  0  0  0  0
 57 65  1  0  0  0  0
 58 77  1  0  0  0  0
 59 85  1  0  0  0  0
 60 76  1  0  0  0  0
 61 62  1  0  0  0  0
 61 76  1  0  0  0  0
 62 86  1  0  0  0  0
 63 65  1  0  0  0  0
 63 75  1  0  0  0  0
 64 77  1  0  0  0  0
 66 67  1  0  0  0  0
M  CHG  1  77   1
M  ISO  4  39 100  62 101  73 100  86 101
M  END
> <Batch ID>
0009

> <Smiles>
CCN(C[101CH2:1][101O:1]c1ccc2c(c1)CN(C(=O)C(NC(=O)C(C)NC)C(C)(C)C)C(C(=O)NC1CCCc3ccccc31)C2)c1cc(OC)c([100NH:0][100C:0](=O)N2CCCC(n3nc(-c4ccc(Oc5ccc(F)cc5F)cc4)c(C(N)=O)c3N)C2)cc1NC(C)=O

> <Shape>
0.265

> <Color>
0.084

> <Negative vol penalty>
0.000

$$$$

  -OEChem-04052315383D

 84 92  0     1  0  0  0  0  0999 V2000
  -38.1583  -29.2840   24.3759 C   0  0  0  0  0  0  0  0  0  0  0  0
  -37.1852  -28.4271   23.8720 C   0  0  0  0  0  0  0  0  0  0  0  0
  -23.3946   -9.7153   20.0083 C   0  0  0  0  0  0  0  0  0  0  0  0
  -23.9684   -9.9779   22.3404 C   0  0  0  0  0  0  0  0  0  0  0  0
  -37.7938  -30.3297   25.2231 C   0  0  0  0  0  0  0  0  0  0  0  0
  -35.8469  -28.6146   24.2158 C   0  0  0  0  0  0  0  0  0  0  0  0
  -32.7451  -28.2307   20.2313 C   0  0  0  0  0  0  0  0  0  0  0  0
  -30.4446  -18.4850   20.5867 C   0  0  0  0  0  0  0  0  0  0  0  0
  -30.4525  -19.8767   20.4948 C   0  0  0  0  0  0  0  0  0  0  0  0
  -22.7705   -8.5021   20.2984 C   0  0  0  0  0  0  0  0  0  0  0  0
  -23.3442   -8.7647   22.6306 C   0  0  0  0  0  0  0  0  0  0  0  0
  -32.4421  -26.9463   19.7817 C   0  0  0  0  0  0  0  0  0  0  0  0
  -20.1916   -7.6303   23.0721 C   0  0  0  0  0  0  0  0  0  0  0  0
  -19.3556   -7.5838   24.1877 C   0  0  0  0  0  0  0  0  0  0  0  0
  -30.3320  -27.0428   20.9468 C   0  0  0  0  0  0  0  0  0  0  0  0
  -28.6706  -18.6030   22.2226 C   0  0  0  0  0  0  0  0  0  0  0  0
  -20.7497   -5.8673   25.1609 C   0  0  0  0  0  0  0  0  0  0  0  0
  -23.9936  -10.4532   21.0293 C   0  0  0  0  0  0  0  0  0  0  0  0
  -24.0524  -12.9860   20.7306 C   0  0  0  0  0  0  0  0  0  0  0  0
  -36.4492  -30.5360   25.5698 C   0  0  0  0  0  0  0  0  0  0  0  0
  -31.8471  -28.9278   21.0523 C   0  0  0  0  0  0  0  0  0  0  0  0
  -35.4641  -29.6632   25.0695 C   0  0  0  0  0  0  0  0  0  0  0  0
  -30.6248  -28.3370   21.4033 C   0  0  0  0  0  0  0  0  0  0  0  0
  -29.5536  -17.8481   21.4506 C   0  0  0  0  0  0  0  0  0  0  0  0
  -29.5695  -20.6317   21.2668 C   0  0  0  0  0  0  0  0  0  0  0  0
  -22.7453   -8.0268   21.6095 C   0  0  0  0  0  0  0  0  0  0  0  0
  -31.2367  -26.3510   20.1418 C   0  0  0  0  0  0  0  0  0  0  0  0
  -21.3067   -6.7952   23.0009 C   0  0  0  0  0  0  0  0  0  0  0  0
  -28.6786  -19.9949   22.1307 C   0  0  0  0  0  0  0  0  0  0  0  0
  -19.6346   -6.7024   25.2321 C   0  0  0  0  0  0  0  0  0  0  0  0
  -21.5857   -5.9137   24.0453 C   0  0  0  0  0  0  0  0  0  0  0  0
  -24.6390  -11.7062   20.7302 C   0  0  0  0  0  0  0  0  0  0  0  0
  -25.0765  -13.8332   20.3841 C   0  0  0  0  0  0  0  0  0  0  0  0
  -22.7026  -13.3742   21.0185 C   0  0  0  0  0  0  0  0  0  0  0  0
  -31.9514  -30.0939   24.0075 C   0  0  0  0  0  0  0  0  0  0  0  0
  -29.0590  -31.3246   23.2063 C   0  0  0  0  0  0  0  0  0  0  0  0
  -30.4122  -22.8209   20.3552 C   0  0  0  0  0  0  0  0  0  0  0  0
  -26.2735  -31.1367   21.2435 C   0  0  0  0  0  0  0  0  0  0  0  0
  -30.3569  -15.5373   20.8492 C   0  0  0  0  0  0  0  0  0  0  0  0
  -36.1091  -31.6511   26.5266 C   0  0  0  0  0  0  0  0  0  0  0  0
  -32.1771  -30.3230   21.5070 C   0  0  0  0  0  0  0  0  0  0  0  0
  -29.6177  -29.0510   22.2661 C   0  0  0  0  0  0  0  0  0  0  0  0
  -34.6251  -32.0086   26.5426 C   0  0  0  0  0  0  0  0  0  0  0  0
  -29.7134  -12.8436   18.6116 C   0  0  0  0  0  0  0  0  0  0  0  0
  -33.7728  -30.7461   26.6227 C   0  0  0  0  0  0  0  0  0  0  0  0
  -28.2876  -12.4129   18.9633 C   0  0  0  0  0  0  0  0  0  0  0  0
  -30.5002  -13.2662   19.8510 C   0  0  0  0  0  0  0  0  0  0  0  0
  -28.4214  -13.8536   21.0354 C   0  0  0  0  0  0  0  0  0  0  0  0
  -33.9990  -29.8492   25.3996 C   0  0  1  0  0  0  0  0  0  0  0  0
  -31.4145  -30.7389   22.7611 C   0  0  1  0  0  0  0  0  0  0  0  0
  -27.5692  -13.4808   19.8112 C   0  0  2  0  0  0  0  0  0  0  0  0
  -25.6445  -21.7307   23.0106 C   0  0  0  0  0  0  0  0  0  0  0  0
  -24.0640  -32.2582   20.8467 C   0  0  0  0  0  0  0  0  0  0  0  0
  -27.9419  -30.0085   25.7223 C   0  0  0  0  0  0  0  0  0  0  0  0
  -25.6420  -30.3400   24.7904 C   0  0  0  0  0  0  0  0  0  0  0  0
  -27.0830  -32.3158   25.2827 C   0  0  0  0  0  0  0  0  0  0  0  0
  -26.9905  -31.8213   18.4549 C   0  0  0  0  0  0  0  0  0  0  0  0
  -30.1106  -24.2957   20.5466 C   0  0  0  0  0  0  0  0  0  1  0  0
  -26.4180  -20.4674   22.6987 C   0  0  0  0  0  0  0  0  0  0  0  0
  -27.6304  -30.8458   23.2999 C   0  0  1  0  0  0  0  0  0  0  0  0
  -25.5297  -32.1931   20.4466 C   0  0  2  0  0  0  0  0  0  0  0  0
  -27.0939  -30.8630   24.7591 C   0  0  0  0  0  0  0  0  0  0  0  0
  -25.9351  -11.7332   20.4088 N   0  0  0  0  0  0  0  0  0  0  0  0
  -26.1715  -13.0402   20.2039 N   0  0  0  0  0  0  0  0  0  0  0  0
  -29.9891  -30.4109   22.6907 N   0  0  0  0  0  0  0  0  0  0  0  0
  -29.7605  -14.2827   20.6023 N   0  0  0  0  0  0  0  0  0  0  0  0
  -25.1381  -15.1716   20.2190 N   0  0  0  0  0  0  0  0  0  0  0  0
  -21.7783  -12.3766   21.3574 N   0  0  0  0  0  0  0  0  0  0  0  0
  -29.5903  -22.0428   21.1633 N   0  0  0  0  0  0  0  0  0  0  0  0
  -29.5463  -16.4342   21.5443 N   0  0  0  0  0  0  0  0  0  0  0  0
  -33.2833  -30.3675   24.2535 N   0  0  0  0  0  0  0  0  0  0  0  0
  -26.8625  -31.6682   22.3712 N   0  0  0  0  0  0  0  0  0  0  0  0
  -25.6060  -31.8917   18.9891 N   0  3  0  0  0  0  0  0  0  0  0  0
  -22.3233  -14.5685   20.9604 O   0  0  0  0  0  0  0  0  0  0  0  0
  -31.2116  -29.4007   24.6959 O   0  0  0  0  0  0  0  0  0  0  0  0
  -29.3381  -32.4696   23.5704 O   0  0  0  0  0  0  0  0  0  0  0  0
  -31.2786  -22.4382   19.5758 O   0  0  0  0  0  0  0  0  0  0  0  0
  -26.3236  -29.9571   20.9019 O   0  0  0  0  0  0  0  0  0  0  0  0
  -31.4921  -15.8065   20.4482 O   0  0  0  0  0  0  0  0  0  0  0  0
  -22.1361   -6.8431   21.8930 O   0  0  0  0  0  0  0  0  0  0  0  0
  -30.9387  -25.0971   19.7049 O   0  0  0  0  0  0  0  0  0  1  0  0
  -27.8086  -20.7138   22.8952 O   0  0  0  0  0  0  0  0  0  0  0  0
  -18.8326   -6.6589   26.3040 F   0  0  0  0  0  0  0  0  0  0  0  0
  -22.6561   -5.1099   23.9830 F   0  0  0  0  0  0  0  0  0  0  0  0
  1  2  1  0  0  0  0
  1  5  2  0  0  0  0
  2  6  2  0  0  0  0
  3 10  2  0  0  0  0
  3 18  1  0  0  0  0
  4 11  1  0  0  0  0
  4 18  2  0  0  0  0
  5 20  1  0  0  0  0
  6 22  1  0  0  0  0
  7 12  2  0  0  0  0
  7 21  1  0  0  0  0
  8  9  2  0  0  0  0
  8 24  1  0  0  0  0
  9 25  1  0  0  0  0
 10 26  1  0  0  0  0
 11 26  2  0  0  0  0
 12 27  1  0  0  0  0
 13 14  2  0  0  0  0
 13 28  1  0  0  0  0
 14 30  1  0  0  0  0
 15 23  1  0  0  0  0
 15 27  2  0  0  0  0
 16 24  2  0  0  0  0
 16 29  1  0  0  0  0
 17 30  2  0  0  0  0
 17 31  1  0  0  0  0
 18 32  1  0  0  0  0
 19 32  1  0  0  0  0
 19 33  2  0  0  0  0
 19 34  1  0  0  0  0
 20 22  2  0  0  0  0
 20 40  1  0  0  0  0
 21 23  2  0  0  0  0
 21 41  1  0  0  0  0
 22 49  1  0  0  0  0
 23 42  1  0  0  0  0
 24 70  1  0  0  0  0
 25 29  2  0  0  0  0
 25 69  1  0  0  0  0
 26 80  1  0  0  0  0
 27 81  1  0  0  0  0
 28 31  2  0  0  0  0
 28 80  1  0  0  0  0
 29 82  1  0  0  0  0
 30 83  1  0  0  0  0
 31 84  1  0  0  0  0
 32 63  2  0  0  0  0
 33 64  1  0  0  0  0
 33 67  1  0  0  0  0
 34 68  1  0  0  0  0
 34 74  2  0  0  0  0
 35 50  1  0  0  0  0
 35 71  1  0  0  0  0
 35 75  2  0  0  0  0
 36 60  1  0  0  0  0
 36 65  1  0  0  0  0
 36 76  2  0  0  0  0
 37 58  1  0  0  0  0
 37 69  1  0  0  0  0
 37 77  2  0  0  0  0
 38 61  1  0  0  0  0
 38 72  1  0  0  0  0
 38 78  2  0  0  0  0
 39 66  1  0  0  0  0
 39 70  1  0  0  0  0
 39 79  2  0  0  0  0
 40 43  1  0  0  0  0
 41 50  1  0  0  0  0
 42 65  1  0  0  0  0
 43 45  1  0  0  0  0
 44 46  1  0  0  0  0
 44 47  1  0  0  0  0
 45 49  1  0  0  0  0
 46 51  1  0  0  0  0
 47 66  1  0  0  0  0
 48 51  1  0  0  0  0
 48 66  1  0  0  0  0
 49 71  1  0  0  0  0
 50 65  1  0  0  0  0
 51 64  1  0  0  0  0
 52 59  1  0  0  0  0
 53 61  1  0  0  0  0
 54 62  1  0  0  0  0
 55 62  1  0  0  0  0
 56 62  1  0  0  0  0
 57 73  1  0  0  0  0
 58 81  1  0  0  0  0
 59 82  1  0  0  0  0
 60 62  1  0  0  0  0
 60 72  1  0  0  0  0
 61 73  1  0  0  0  0
 63 64  1  0  0  0  0
M  CHG  1  73   1
M  ISO  4  39 100  58 101  70 100  81 101
M  END
> <Batch ID>
0009

> <Smiles>
CCOc1cc([100NH:0][100C:0](=O)N2CCCC(n3nc(-c4ccc(Oc5ccc(F)cc5F)cc4)c(C(N)=O)c3N)C2)ccc1NC(=O)[101CH2:1][101O:1]c1ccc2c(c1)CN(C(=O)C(NC(=O)C(C)NC)C(C)(C)C)C(C(=O)NC1CCCc3ccccc31)C2

> <Shape>
0.296

> <Color>
0.191

> <Negative vol penalty>
0.000

$$$$

  -OEChem-04052315383D

 81 89  0     1  0  0  0  0  0999 V2000
  -37.3764  -32.2060   24.9929 C   0  0  0  0  0  0  0  0  0  0  0  0
  -36.5378  -31.3806   25.7352 C   0  0  0  0  0  0  0  0  0  0  0  0
  -23.0518   -9.9221   19.9051 C   0  0  0  0  0  0  0  0  0  0  0  0
  -23.8359   -9.8474   22.1890 C   0  0  0  0  0  0  0  0  0  0  0  0
  -36.9545  -32.6974   23.7583 C   0  0  0  0  0  0  0  0  0  0  0  0
  -35.2762  -31.0471   25.2436 C   0  0  0  0  0  0  0  0  0  0  0  0
  -33.4095  -24.1714   24.1797 C   0  0  0  0  0  0  0  0  0  0  0  0
  -22.2970   -8.7702   20.1264 C   0  0  0  0  0  0  0  0  0  0  0  0
  -23.0811   -8.6955   22.4105 C   0  0  0  0  0  0  0  0  0  0  0  0
  -32.9029  -22.8720   24.1484 C   0  0  0  0  0  0  0  0  0  0  0  0
  -19.8503   -7.9160   23.0227 C   0  0  0  0  0  0  0  0  0  0  0  0
  -19.1054   -7.8475   24.1999 C   0  0  0  0  0  0  0  0  0  0  0  0
  -30.8082  -23.6985   23.2669 C   0  0  0  0  0  0  0  0  0  0  0  0
  -31.5778  -17.5465   21.2548 C   0  0  0  0  0  0  0  0  0  0  0  0
  -30.8045  -18.5365   23.7457 C   0  0  0  0  0  0  0  0  0  0  0  0
  -20.3315   -5.8734   24.8609 C   0  0  0  0  0  0  0  0  0  0  0  0
  -23.8213  -10.4607   20.9363 C   0  0  0  0  0  0  0  0  0  0  0  0
  -24.1916  -12.9843   20.8927 C   0  0  0  0  0  0  0  0  0  0  0  0
  -35.6910  -32.3619   23.2469 C   0  0  0  0  0  0  0  0  0  0  0  0
  -32.6218  -25.2388   23.7397 C   0  0  0  0  0  0  0  0  0  0  0  0
  -34.8365  -31.5356   24.0015 C   0  0  0  0  0  0  0  0  0  0  0  0
  -31.3147  -25.0008   23.2842 C   0  0  0  0  0  0  0  0  0  0  0  0
  -32.1042  -18.7513   21.7204 C   0  0  0  0  0  0  0  0  0  0  0  0
  -30.2780  -17.3317   23.2800 C   0  0  0  0  0  0  0  0  0  0  0  0
  -30.6646  -16.8366   22.0346 C   0  0  0  0  0  0  0  0  0  0  0  0
  -22.3117   -8.1569   21.3791 C   0  0  0  0  0  0  0  0  0  0  0  0
  -31.6053  -22.6362   23.6934 C   0  0  0  0  0  0  0  0  0  0  0  0
  -20.8358   -6.9632   22.7645 C   0  0  0  0  0  0  0  0  0  0  0  0
  -31.7175  -19.2464   22.9658 C   0  0  0  0  0  0  0  0  0  0  0  0
  -19.3460   -6.8262   25.1191 C   0  0  0  0  0  0  0  0  0  0  0  0
  -21.0764   -5.9419   23.6836 C   0  0  0  0  0  0  0  0  0  0  0  0
  -24.6016  -11.6503   20.7081 C   0  0  0  0  0  0  0  0  0  0  0  0
  -25.2887  -13.7324   20.5415 C   0  0  0  0  0  0  0  0  0  0  0  0
  -22.9318  -13.5011   21.3417 C   0  0  0  0  0  0  0  0  0  0  0  0
  -32.3598  -28.9329   23.1385 C   0  0  0  0  0  0  0  0  0  0  0  0
  -30.9958  -27.5452   20.7670 C   0  0  0  0  0  0  0  0  0  0  0  0
  -29.9631  -25.6327   18.1377 C   0  0  0  0  0  0  0  0  0  0  0  0
  -30.7683  -14.7092   20.6895 C   0  0  0  0  0  0  0  0  0  0  0  0
  -35.2601  -32.9557   21.9291 C   0  0  0  0  0  0  0  0  0  0  0  0
  -33.1045  -26.6620   23.8134 C   0  0  0  0  0  0  0  0  0  0  0  0
  -30.4913  -26.1837   22.8532 C   0  0  0  0  0  0  0  0  0  0  0  0
  -34.0565  -32.2515   21.3082 C   0  0  0  0  0  0  0  0  0  0  0  0
  -29.6006  -12.3849   18.2582 C   0  0  0  0  0  0  0  0  0  0  0  0
  -32.9688  -32.0307   22.3546 C   0  0  0  0  0  0  0  0  0  0  0  0
  -28.1622  -12.0963   18.6940 C   0  0  0  0  0  0  0  0  0  0  0  0
  -30.5309  -12.5648   19.4564 C   0  0  0  0  0  0  0  0  0  0  0  0
  -28.6474  -13.2668   20.8807 C   0  0  0  0  0  0  0  0  0  0  0  0
  -33.4706  -31.1313   23.4907 C   0  0  1  0  0  0  0  0  0  0  0  0
  -32.5943  -27.5332   22.6515 C   0  0  1  0  0  0  0  0  0  0  0  0
  -27.6602  -13.1423   19.7087 C   0  0  2  0  0  0  0  0  0  0  0  0
  -29.3017  -16.5921   24.1361 C   0  0  0  0  0  0  0  0  0  0  0  0
  -32.4407  -20.6954   20.1732 C   0  0  0  0  0  0  0  0  0  0  0  0
  -28.9432  -25.8125   15.8519 C   0  0  0  0  0  0  0  0  0  0  0  0
  -28.2766  -28.1089   22.0287 C   0  0  0  0  0  0  0  0  0  0  0  0
  -27.2084  -27.3440   19.8975 C   0  0  0  0  0  0  0  0  0  0  0  0
  -28.7105  -29.3355   19.8929 C   0  0  0  0  0  0  0  0  0  0  0  0
  -32.3138  -24.3654   16.8622 C   0  0  0  0  0  0  0  0  0  0  0  0
  -33.0792  -19.4982   20.8712 C   0  0  0  0  0  0  0  0  0  0  0  0
  -29.7099  -27.0300   20.1719 C   0  0  1  0  0  0  0  0  0  0  0  0
  -30.2366  -25.7358   16.6481 C   0  0  2  0  0  0  0  0  0  0  0  0
  -28.4941  -27.9375   20.5120 C   0  0  0  0  0  0  0  0  0  0  0  0
  -25.8608  -11.5533   20.2732 N   0  0  0  0  0  0  0  0  0  0  0  0
  -26.2514  -12.8359   20.1815 N   0  0  0  0  0  0  0  0  0  0  0  0
  -31.3159  -27.1066   22.0576 N   0  0  0  0  0  0  0  0  0  0  0  0
  -29.9935  -13.5735   20.3721 N   0  0  0  0  0  0  0  0  0  0  0  0
  -25.5140  -15.0630   20.5084 N   0  0  0  0  0  0  0  0  0  0  0  0
  -21.9129  -12.5933   21.6610 N   0  0  0  0  0  0  0  0  0  0  0  0
  -30.1406  -15.6150   21.5438 N   0  0  0  0  0  0  0  0  0  0  0  0
  -33.4756  -29.7455   23.0735 N   0  0  0  0  0  0  0  0  0  0  0  0
  -29.9560  -26.8718   18.7426 N   0  0  0  0  0  0  0  0  0  0  0  0
  -31.0073  -24.5494   16.1796 N   0  3  0  0  0  0  0  0  0  0  0  0
  -22.7107  -14.7319   21.4406 O   0  0  0  0  0  0  0  0  0  0  0  0
  -31.2483  -29.2538   23.5424 O   0  0  0  0  0  0  0  0  0  0  0  0
  -31.6967  -28.3200   20.1099 O   0  0  0  0  0  0  0  0  0  0  0  0
  -29.7710  -24.5606   18.7070 O   0  0  0  0  0  0  0  0  0  0  0  0
  -31.8944  -14.8797   20.2151 O   0  0  0  0  0  0  0  0  0  0  0  0
  -21.5751   -7.0330   21.5956 O   0  0  0  0  0  0  0  0  0  0  0  0
  -31.1186  -21.3647   23.6612 O   0  0  0  0  0  0  0  0  0  1  0  0
  -32.2271  -20.4340   23.4398 O   0  0  0  0  0  0  0  0  0  1  0  0
  -18.6316   -6.7615   26.2503 F   0  0  0  0  0  0  0  0  0  0  0  0
  -22.0227   -5.0244   23.4417 F   0  0  0  0  0  0  0  0  0  0  0  0
  1  2  1  0  0  0  0
  1  5  2  0  0  0  0
  2  6  2  0  0  0  0
  3  8  2  0  0  0  0
  3 17  1  0  0  0  0
  4  9  1  0  0  0  0
  4 17  2  0  0  0  0
  5 19  1  0  0  0  0
  6 21  1  0  0  0  0
  7 10  2  0  0  0  0
  7 20  1  0  0  0  0
  8 26  1  0  0  0  0
  9 26  2  0  0  0  0
 10 27  1  0  0  0  0
 11 12  2  0  0  0  0
 11 28  1  0  0  0  0
 12 30  1  0  0  0  0
 13 22  1  0  0  0  0
 13 27  2  0  0  0  0
 14 23  1  0  0  0  0
 14 25  2  0  0  0  0
 15 24  2  0  0  0  0
 15 29  1  0  0  0  0
 16 30  2  0  0  0  0
 16 31  1  0  0  0  0
 17 32  1  0  0  0  0
 18 32  1  0  0  0  0
 18 33  2  0  0  0  0
 18 34  1  0  0  0  0
 19 21  2  0  0  0  0
 19 39  1  0  0  0  0
 20 22  2  0  0  0  0
 20 40  1  0  0  0  0
 21 48  1  0  0  0  0
 22 41  1  0  0  0  0
 23 29  2  0  0  0  0
 23 58  1  0  0  0  0
 24 25  1  0  0  0  0
 24 51  1  0  0  0  0
 25 68  1  0  0  0  0
 26 77  1  0  0  0  0
 27 78  1  0  0  0  0
 28 31  2  0  0  0  0
 28 77  1  0  0  0  0
 29 79  1  0  0  0  0
 30 80  1  0  0  0  0
 31 81  1  0  0  0  0
 32 62  2  0  0  0  0
 33 63  1  0  0  0  0
 33 66  1  0  0  0  0
 34 67  1  0  0  0  0
 34 72  2  0  0  0  0
 35 49  1  0  0  0  0
 35 69  1  0  0  0  0
 35 73  2  0  0  0  0
 36 59  1  0  0  0  0
 36 64  1  0  0  0  0
 36 74  2  0  0  0  0
 37 60  1  0  0  0  0
 37 70  1  0  0  0  0
 37 75  2  0  0  0  0
 38 65  1  0  0  0  0
 38 68  1  0  0  0  0
 38 76  2  0  0  0  0
 39 42  1  0  0  0  0
 40 49  1  0  0  0  0
 41 64  1  0  0  0  0
 42 44  1  0  0  0  0
 43 45  1  0  0  0  0
 43 46  1  0  0  0  0
 44 48  1  0  0  0  0
 45 50  1  0  0  0  0
 46 65  1  0  0  0  0
 47 50  1  0  0  0  0
 47 65  1  0  0  0  0
 48 69  1  0  0  0  0
 49 64  1  0  0  0  0
 50 63  1  0  0  0  0
 52 58  1  0  0  0  0
 53 60  1  0  0  0  0
 54 61  1  0  0  0  0
 55 61  1  0  0  0  0
 56 61  1  0  0  0  0
 57 71  1  0  0  0  0
 59 61  1  0  0  0  0
 59 70  1  0  0  0  0
 60 71  1  0  0  0  0
 62 63  1  0  0  0  0
 78 79  1  0  0  0  0
M  CHG  1  71   1
M  ISO  4  38 100  68 100  78 101  79 101
M  END
> <Batch ID>
0009

> <Smiles>
CCc1cc([100NH:0][100C:0](=O)N2CCCC(n3nc(-c4ccc(Oc5ccc(F)cc5F)cc4)c(C(N)=O)c3N)C2)c(C)cc1[101O:1][101O:1]c1ccc2c(c1)CN(C(=O)C(NC(=O)C(C)NC)C(C)(C)C)C(C(=O)NC1CCCc3ccccc31)C2

> <Shape>
0.239

> <Color>
0.203

> <Negative vol penalty>
0.000

$$$$

  -OEChem-04052315383D

 86 94  0     1  0  0  0  0  0999 V2000
  -29.3177  -32.6260   23.5508 C   0  0  0  0  0  0  0  0  0  0  0  0
  -29.4999  -31.3394   24.0476 C   0  0  0  0  0  0  0  0  0  0  0  0
  -23.1044   -9.8590   21.4112 C   0  0  0  0  0  0  0  0  0  0  0  0
  -23.8605  -10.7037   23.5447 C   0  0  0  0  0  0  0  0  0  0  0  0
  -28.0329  -33.1581   23.4511 C   0  0  0  0  0  0  0  0  0  0  0  0
  -28.3973  -30.5845   24.4462 C   0  0  0  0  0  0  0  0  0  0  0  0
  -28.6080  -25.8077   22.7781 C   0  0  0  0  0  0  0  0  0  0  0  0
  -22.3833   -8.8585   22.0628 C   0  0  0  0  0  0  0  0  0  0  0  0
  -23.1394   -9.7033   24.1964 C   0  0  0  0  0  0  0  0  0  0  0  0
  -29.4472  -24.9304   23.4634 C   0  0  0  0  0  0  0  0  0  0  0  0
  -23.0212   -5.8776   23.5227 C   0  0  0  0  0  0  0  0  0  0  0  0
  -23.1100   -4.5811   23.0161 C   0  0  0  0  0  0  0  0  0  0  0  0
  -27.5422  -24.0423   24.6473 C   0  0  0  0  0  0  0  0  0  0  0  0
  -31.9530  -17.2439   21.3673 C   0  0  0  0  0  0  0  0  0  0  0  0
  -30.3454  -19.3828   22.1569 C   0  0  0  0  0  0  0  0  0  0  0  0
  -20.7232   -4.5638   22.6420 C   0  0  0  0  0  0  0  0  0  0  0  0
  -23.8431  -10.7816   22.1521 C   0  0  0  0  0  0  0  0  0  0  0  0
  -24.1347  -13.1012   21.1313 C   0  0  0  0  0  0  0  0  0  0  0  0
  -26.9132  -32.4058   23.8396 C   0  0  0  0  0  0  0  0  0  0  0  0
  -27.2286  -25.8165   23.0305 C   0  0  0  0  0  0  0  0  0  0  0  0
  -27.0963  -31.1075   24.3528 C   0  0  0  0  0  0  0  0  0  0  0  0
  -26.6872  -24.9190   23.9619 C   0  0  0  0  0  0  0  0  0  0  0  0
  -32.5356  -18.3988   21.8890 C   0  0  0  0  0  0  0  0  0  0  0  0
  -30.5665  -17.1584   21.2402 C   0  0  0  0  0  0  0  0  0  0  0  0
  -31.7319  -19.4682   22.2839 C   0  0  0  0  0  0  0  0  0  0  0  0
  -22.4007   -8.7807   23.4554 C   0  0  0  0  0  0  0  0  0  0  0  0
  -28.9148  -24.0495   24.4003 C   0  0  0  0  0  0  0  0  0  0  0  0
  -21.7834   -6.5172   23.5891 C   0  0  0  0  0  0  0  0  0  0  0  0
  -29.7627  -18.2278   21.6351 C   0  0  0  0  0  0  0  0  0  0  0  0
  -21.9610   -3.9242   22.5757 C   0  0  0  0  0  0  0  0  0  0  0  0
  -20.6344   -5.8603   23.1487 C   0  0  0  0  0  0  0  0  0  0  0  0
  -24.5887  -11.8149   21.4795 C   0  0  0  0  0  0  0  0  0  0  0  0
  -25.2123  -13.6910   20.5169 C   0  0  0  0  0  0  0  0  0  0  0  0
  -22.8536  -13.7086   21.3443 C   0  0  0  0  0  0  0  0  0  0  0  0
  -25.1646  -27.9651   24.1382 C   0  0  0  0  0  0  0  0  0  0  0  0
  -22.9843  -25.6840   23.3861 C   0  0  0  0  0  0  0  0  0  0  0  0
  -22.3148  -22.3810   22.8490 C   0  0  0  0  0  0  0  0  0  0  0  0
  -30.6563  -14.8340   20.2731 C   0  0  0  0  0  0  0  0  0  0  0  0
  -25.5478  -33.0411   23.7577 C   0  0  0  0  0  0  0  0  0  0  0  0
  -26.3333  -26.7505   22.2634 C   0  0  0  0  0  0  0  0  0  0  0  0
  -25.2105  -24.8746   24.2547 C   0  0  0  0  0  0  0  0  0  0  0  0
  -24.4020  -32.0366   23.8505 C   0  0  0  0  0  0  0  0  0  0  0  0
  -29.5938  -11.7098   18.9360 C   0  0  0  0  0  0  0  0  0  0  0  0
  -24.6410  -31.0588   24.9967 C   0  0  0  0  0  0  0  0  0  0  0  0
  -28.1596  -11.5644   19.4499 C   0  0  0  0  0  0  0  0  0  0  0  0
  -30.5023  -12.3724   19.9701 C   0  0  0  0  0  0  0  0  0  0  0  0
  -28.5792  -13.5079   21.0100 C   0  0  0  0  0  0  0  0  0  0  0  0
  -25.9233  -30.2484   24.7721 C   0  0  1  0  0  0  0  0  0  0  0  0
  -25.0118  -27.0288   22.9731 C   0  0  1  0  0  0  0  0  0  0  0  0
  -27.6118  -12.9046   19.9785 C   0  0  2  0  0  0  0  0  0  0  0  0
  -34.0233  -18.4641   22.0129 C   0  0  0  0  0  0  0  0  0  0  0  0
  -26.3537  -17.5231   22.5704 C   0  0  0  0  0  0  0  0  0  0  0  0
  -20.4331  -20.8183   22.2881 C   0  0  0  0  0  0  0  0  0  0  0  0
  -21.9497  -25.9066   26.2479 C   0  0  0  0  0  0  0  0  0  0  0  0
  -20.7647  -23.7264   25.9151 C   0  0  0  0  0  0  0  0  0  0  0  0
  -20.1663  -25.6968   24.5073 C   0  0  0  0  0  0  0  0  0  0  0  0
  -32.6735  -21.7355   21.9191 C   0  0  0  0  0  0  0  0  0  0  0  0
  -23.6320  -21.5074   20.3469 C   0  0  0  0  0  0  0  0  0  0  0  0
  -31.2790  -21.3655   24.9059 C   0  0  0  0  0  0  0  0  0  0  0  0
  -32.5188  -20.7934   24.2293 C   0  0  0  0  0  0  0  0  0  0  0  0
  -27.6465  -18.2969   22.7178 C   0  0  0  0  0  0  0  0  0  0  0  0
  -30.9080  -22.7523   24.3937 C   0  0  0  0  0  0  0  0  0  1  0  0
  -22.3662  -24.5146   24.1137 C   0  0  1  0  0  0  0  0  0  0  0  0
  -21.5629  -21.6736   21.7360 C   0  0  2  0  0  0  0  0  0  0  0  0
  -21.3399  -24.9630   25.1921 C   0  0  0  0  0  0  0  0  0  0  0  0
  -25.8558  -11.5995   21.1163 N   0  0  0  0  0  0  0  0  0  0  0  0
  -26.2073  -12.7583   20.5334 N   0  0  0  0  0  0  0  0  0  0  0  0
  -24.3772  -25.8119   23.4835 N   0  0  0  0  0  0  0  0  0  0  0  0
  -29.9216  -13.6386   20.4220 N   0  0  0  0  0  0  0  0  0  0  0  0
  -25.3962  -14.9111   19.9694 N   0  0  0  0  0  0  0  0  0  0  0  0
  -21.8595  -12.9620   21.9914 N   0  0  0  0  0  0  0  0  0  0  0  0
  -29.9893  -15.9787   20.7084 N   0  0  0  0  0  0  0  0  0  0  0  0
  -25.6938  -29.1971   23.8043 N   0  0  0  0  0  0  0  0  0  0  0  0
  -21.8097  -23.6420   23.0854 N   0  0  0  0  0  0  0  0  0  0  0  0
  -32.3004  -20.6364   22.8116 N   0  0  3  0  0  0  0  0  0  0  0  0
  -22.4859  -20.7930   20.9657 N   0  3  0  0  0  0  0  0  0  0  0  0
  -22.5928  -14.8730   20.9573 O   0  0  0  0  0  0  0  0  0  0  0  0
  -24.8260  -27.5975   25.2571 O   0  0  0  0  0  0  0  0  0  0  0  0
  -22.2589  -26.4516   22.7488 O   0  0  0  0  0  0  0  0  0  0  0  0
  -23.2538  -21.8649   23.4512 O   0  0  0  0  0  0  0  0  0  0  0  0
  -31.7825  -14.8451   19.7696 O   0  0  0  0  0  0  0  0  0  0  0  0
  -21.6970   -7.8047   24.0916 O   0  0  0  0  0  0  0  0  0  0  0  0
  -29.7318  -23.1926   25.0711 O   0  0  0  0  0  0  0  0  0  1  0  0
  -28.4060  -18.1649   21.5184 O   0  0  0  0  0  0  0  0  0  0  0  0
  -22.0466   -2.6797   22.0878 F   0  0  0  0  0  0  0  0  0  0  0  0
  -19.4426   -6.4701   23.2088 F   0  0  0  0  0  0  0  0  0  0  0  0
  1  2  1  0  0  0  0
  1  5  2  0  0  0  0
  2  6  2  0  0  0  0
  3  8  2  0  0  0  0
  3 17  1  0  0  0  0
  4  9  1  0  0  0  0
  4 17  2  0  0  0  0
  5 19  1  0  0  0  0
  6 21  1  0  0  0  0
  7 10  2  0  0  0  0
  7 20  1  0  0  0  0
  8 26  1  0  0  0  0
  9 26  2  0  0  0  0
 10 27  1  0  0  0  0
 11 12  2  0  0  0  0
 11 28  1  0  0  0  0
 12 30  1  0  0  0  0
 13 22  1  0  0  0  0
 13 27  2  0  0  0  0
 14 23  2  0  0  0  0
 14 24  1  0  0  0  0
 15 25  2  0  0  0  0
 15 29  1  0  0  0  0
 16 30  2  0  0  0  0
 16 31  1  0  0  0  0
 17 32  1  0  0  0  0
 18 32  1  0  0  0  0
 18 33  2  0  0  0  0
 18 34  1  0  0  0  0
 19 21  2  0  0  0  0
 19 39  1  0  0  0  0
 20 22  2  0  0  0  0
 20 40  1  0  0  0  0
 21 48  1  0  0  0  0
 22 41  1  0  0  0  0
 23 25  1  0  0  0  0
 23 51  1  0  0  0  0
 24 29  2  0  0  0  0
 24 72  1  0  0  0  0
 25 75  1  0  0  0  0
 26 82  1  0  0  0  0
 27 83  1  0  0  0  0
 28 31  2  0  0  0  0
 28 82  1  0  0  0  0
 29 84  1  0  0  0  0
 30 85  1  0  0  0  0
 31 86  1  0  0  0  0
 32 66  2  0  0  0  0
 33 67  1  0  0  0  0
 33 70  1  0  0  0  0
 34 71  1  0  0  0  0
 34 77  2  0  0  0  0
 35 49  1  0  0  0  0
 35 73  1  0  0  0  0
 35 78  2  0  0  0  0
 36 63  1  0  0  0  0
 36 68  1  0  0  0  0
 36 79  2  0  0  0  0
 37 64  1  0  0  0  0
 37 74  1  0  0  0  0
 37 80  2  0  0  0  0
 38 69  1  0  0  0  0
 38 72  1  0  0  0  0
 38 81  2  0  0  0  0
 39 42  1  0  0  0  0
 40 49  1  0  0  0  0
 41 68  1  0  0  0  0
 42 44  1  0  0  0  0
 43 45  1  0  0  0  0
 43 46  1  0  0  0  0
 44 48  1  0  0  0  0
 45 50  1  0  0  0  0
 46 69  1  0  0  0  0
 47 50  1  0  0  0  0
 47 69  1  0  0  0  0
 48 73  1  0  0  0  0
 49 68  1  0  0  0  0
 50 67  1  0  0  0  0
 52 61  1  0  0  0  0
 53 64  1  0  0  0  0
 54 65  1  0  0  0  0
 55 65  1  0  0  0  0
 56 65  1  0  0  0  0
 57 75  1  0  0  0  0
 58 76  1  0  0  0  0
 59 60  1  0  0  0  0
 59 62  1  0  0  0  0
 60 75  1  0  0  0  0
 61 84  1  0  0  0  0
 62 83  1  0  0  0  0
 63 65  1  0  0  0  0
 63 74  1  0  0  0  0
 64 76  1  0  0  0  0
 66 67  1  0  0  0  0
M  CHG  1  76   1
M  ISO  4  38 100  62 101  72 100  83 101
M  END
> <Batch ID>
0009

> <Smiles>
CCOc1cc(N(C)CC[101CH2:1][101O:1]c2ccc3c(c2)CN(C(=O)C(NC(=O)C(C)NC)C(C)(C)C)C(C(=O)NC2CCCc4ccccc42)C3)c(C)cc1[100NH:0][100C:0](=O)N1CCCC(n2nc(-c3ccc(Oc4ccc(F)cc4F)cc3)c(C(N)=O)c2N)C1

> <Shape>
0.223

> <Color>
0.156

> <Negative vol penalty>
0.000

$$$$

  -OEChem-04052315383D

 84 92  0     1  0  0  0  0  0999 V2000
  -20.8406  -29.3343   29.8511 C   0  0  0  0  0  0  0  0  0  0  0  0
  -21.7689  -28.3008   29.7751 C   0  0  0  0  0  0  0  0  0  0  0  0
  -23.2135   -9.6705   20.5619 C   0  0  0  0  0  0  0  0  0  0  0  0
  -23.8860  -10.2076   22.8193 C   0  0  0  0  0  0  0  0  0  0  0  0
  -20.2498  -29.8260   28.6878 C   0  0  0  0  0  0  0  0  0  0  0  0
  -22.1061  -27.7577   28.5358 C   0  0  0  0  0  0  0  0  0  0  0  0
  -27.5844  -25.6262   26.8182 C   0  0  0  0  0  0  0  0  0  0  0  0
  -32.3019  -18.3519   22.5947 C   0  0  0  0  0  0  0  0  0  0  0  0
  -31.7754  -17.2707   21.8880 C   0  0  0  0  0  0  0  0  0  0  0  0
  -22.5153   -8.5592   21.0342 C   0  0  0  0  0  0  0  0  0  0  0  0
  -23.1878   -9.0963   23.2917 C   0  0  0  0  0  0  0  0  0  0  0  0
  -28.1110  -24.3369   26.7535 C   0  0  0  0  0  0  0  0  0  0  0  0
  -19.5552   -7.9342   22.5443 C   0  0  0  0  0  0  0  0  0  0  0  0
  -18.2710   -7.7156   22.0459 C   0  0  0  0  0  0  0  0  0  0  0  0
  -27.5366  -24.2262   24.4131 C   0  0  0  0  0  0  0  0  0  0  0  0
  -30.0707  -19.2101   22.9440 C   0  0  0  0  0  0  0  0  0  0  0  0
  -18.9696   -5.5678   21.1879 C   0  0  0  0  0  0  0  0  0  0  0  0
  -23.8989  -10.4947   21.4544 C   0  0  0  0  0  0  0  0  0  0  0  0
  -24.1270  -12.9506   20.8031 C   0  0  0  0  0  0  0  0  0  0  0  0
  -20.5871  -29.2951   27.4328 C   0  0  0  0  0  0  0  0  0  0  0  0
  -27.0191  -26.2220   25.6815 C   0  0  0  0  0  0  0  0  0  0  0  0
  -21.5182  -28.2419   27.3548 C   0  0  0  0  0  0  0  0  0  0  0  0
  -27.0058  -25.5241   24.4654 C   0  0  0  0  0  0  0  0  0  0  0  0
  -31.4495  -19.3216   23.1227 C   0  0  0  0  0  0  0  0  0  0  0  0
  -30.3966  -17.1591   21.7093 C   0  0  0  0  0  0  0  0  0  0  0  0
  -22.5025   -8.2721   22.3992 C   0  0  0  0  0  0  0  0  0  0  0  0
  -28.0846  -23.6356   25.5516 C   0  0  0  0  0  0  0  0  0  0  0  0
  -20.5467   -6.9697   22.3644 C   0  0  0  0  0  0  0  0  0  0  0  0
  -29.5442  -18.1289   22.2373 C   0  0  0  0  0  0  0  0  0  0  0  0
  -17.9781   -6.5324   21.3677 C   0  0  0  0  0  0  0  0  0  0  0  0
  -20.2539   -5.7865   21.6863 C   0  0  0  0  0  0  0  0  0  0  0  0
  -24.6208  -11.6425   20.9670 C   0  0  0  0  0  0  0  0  0  0  0  0
  -25.1959  -13.6626   20.3162 C   0  0  0  0  0  0  0  0  0  0  0  0
  -22.8191  -13.4752   21.0674 C   0  0  0  0  0  0  0  0  0  0  0  0
  -24.1272  -27.2959   24.9153 C   0  0  0  0  0  0  0  0  0  0  0  0
  -25.6430  -28.3165   22.2352 C   0  0  0  0  0  0  0  0  0  0  0  0
  -28.2672  -27.9702   20.0809 C   0  0  0  0  0  0  0  0  0  0  0  0
  -30.5971  -15.0123   20.4066 C   0  0  0  0  0  0  0  0  0  0  0  0
  -19.8869  -29.8273   26.2076 C   0  0  0  0  0  0  0  0  0  0  0  0
  -26.4793  -27.6237   25.7614 C   0  0  0  0  0  0  0  0  0  0  0  0
  -26.4286  -26.1267   23.2116 C   0  0  0  0  0  0  0  0  0  0  0  0
  -20.5777  -29.4507   24.8994 C   0  0  0  0  0  0  0  0  0  0  0  0
  -29.6856  -12.0924   18.5844 C   0  0  0  0  0  0  0  0  0  0  0  0
  -20.9448  -27.9701   24.8966 C   0  0  0  0  0  0  0  0  0  0  0  0
  -28.2460  -11.8227   19.0283 C   0  0  0  0  0  0  0  0  0  0  0  0
  -30.5435  -12.6211   19.7325 C   0  0  0  0  0  0  0  0  0  0  0  0
  -28.5546  -13.5207   20.8745 C   0  0  0  0  0  0  0  0  0  0  0  0
  -21.9284  -27.6434   26.0268 C   0  0  1  0  0  0  0  0  0  0  0  0
  -25.4636  -27.9360   24.6668 C   0  0  1  0  0  0  0  0  0  0  0  0
  -27.6356  -13.0482   19.7362 C   0  0  2  0  0  0  0  0  0  0  0  0
  -29.2155  -28.9235   17.9622 C   0  0  0  0  0  0  0  0  0  0  0  0
  -23.5202  -26.8340   20.6209 C   0  0  0  0  0  0  0  0  0  0  0  0
  -25.0170  -27.0105   18.6217 C   0  0  0  0  0  0  0  0  0  0  0  0
  -24.1445  -29.0782   19.7108 C   0  0  0  0  0  0  0  0  0  0  0  0
  -33.4263  -20.5238   24.0212 C   0  0  0  0  0  0  0  0  0  0  0  0
  -30.7643  -28.8004   21.4352 C   0  0  0  0  0  0  0  0  0  0  0  0
  -27.4667  -17.3324   23.0775 C   0  0  0  0  0  0  0  0  0  0  0  0
  -30.5482  -20.9992   25.7219 C   0  0  0  0  0  0  0  0  0  0  0  0
  -31.1271  -21.4361   24.3817 C   0  0  0  0  0  0  0  0  0  0  0  0
  -29.6745  -22.0672   26.3692 C   0  0  0  0  0  0  0  0  0  1  0  0
  -25.9309  -27.7220   20.8777 C   0  0  1  0  0  0  0  0  0  0  0  0
  -29.2195  -28.9890   19.4815 C   0  0  2  0  0  0  0  0  0  0  0  0
  -24.6624  -27.6488   19.9817 C   0  0  0  0  0  0  0  0  0  0  0  0
  -25.9035  -11.5274   20.6128 N   0  0  0  0  0  0  0  0  0  0  0  0
  -26.2247  -12.7722   20.2214 N   0  0  0  0  0  0  0  0  0  0  0  0
  -25.9074  -27.4974   23.3420 N   0  0  0  0  0  0  0  0  0  0  0  0
  -29.9047  -13.7841   20.3524 N   0  0  0  0  0  0  0  0  0  0  0  0
  -25.3466  -14.9570   19.9640 N   0  0  0  0  0  0  0  0  0  0  0  0
  -21.8387  -12.6062   21.5654 N   0  0  0  0  0  0  0  0  0  0  0  0
  -29.8772  -16.0547   20.9894 N   0  0  0  0  0  0  0  0  0  0  0  0
  -23.2656  -28.0676   25.6714 N   0  0  0  0  0  0  0  0  0  0  0  0
  -27.0192  -28.5102   20.3094 N   0  0  0  0  0  0  0  0  0  0  0  0
  -31.9788  -20.4082   23.8338 N   0  0  3  0  0  0  0  0  0  0  0  0
  -30.6096  -28.7423   19.9589 N   0  3  0  0  0  0  0  0  0  0  0  0
  -22.5238  -14.6753   20.8524 O   0  0  0  0  0  0  0  0  0  0  0  0
  -23.8943  -26.1848   24.4539 O   0  0  0  0  0  0  0  0  0  0  0  0
  -25.2066  -29.4677   22.3110 O   0  0  0  0  0  0  0  0  0  0  0  0
  -28.5962  -26.8102   20.3190 O   0  0  0  0  0  0  0  0  0  0  0  0
  -31.7338  -15.1374   19.9437 O   0  0  0  0  0  0  0  0  0  0  0  0
  -21.8211   -7.1879   22.8605 O   0  0  0  0  0  0  0  0  0  0  0  0
  -28.1937  -18.0387   22.0747 O   0  0  0  0  0  0  0  0  0  0  0  0
  -28.5974  -22.3768   25.4858 O   0  0  0  0  0  0  0  0  0  1  0  0
  -16.7443   -6.3219   20.8905 F   0  0  0  0  0  0  0  0  0  0  0  0
  -21.2019   -4.8557   21.5114 F   0  0  0  0  0  0  0  0  0  0  0  0
  1  2  1  0  0  0  0
  1  5  2  0  0  0  0
  2  6  2  0  0  0  0
  3 10  2  0  0  0  0
  3 18  1  0  0  0  0
  4 11  1  0  0  0  0
  4 18  2  0  0  0  0
  5 20  1  0  0  0  0
  6 22  1  0  0  0  0
  7 12  2  0  0  0  0
  7 21  1  0  0  0  0
  8  9  2  0  0  0  0
  8 24  1  0  0  0  0
  9 25  1  0  0  0  0
 10 26  1  0  0  0  0
 11 26  2  0  0  0  0
 12 27  1  0  0  0  0
 13 14  2  0  0  0  0
 13 28  1  0  0  0  0
 14 30  1  0  0  0  0
 15 23  1  0  0  0  0
 15 27  2  0  0  0  0
 16 24  2  0  0  0  0
 16 29  1  0  0  0  0
 17 30  2  0  0  0  0
 17 31  1  0  0  0  0
 18 32  1  0  0  0  0
 19 32  1  0  0  0  0
 19 33  2  0  0  0  0
 19 34  1  0  0  0  0
 20 22  2  0  0  0  0
 20 39  1  0  0  0  0
 21 23  2  0  0  0  0
 21 40  1  0  0  0  0
 22 48  1  0  0  0  0
 23 41  1  0  0  0  0
 24 73  1  0  0  0  0
 25 29  2  0  0  0  0
 25 70  1  0  0  0  0
 26 80  1  0  0  0  0
 27 82  1  0  0  0  0
 28 31  2  0  0  0  0
 28 80  1  0  0  0  0
 29 81  1  0  0  0  0
 30 83  1  0  0  0  0
 31 84  1  0  0  0  0
 32 64  2  0  0  0  0
 33 65  1  0  0  0  0
 33 68  1  0  0  0  0
 34 69  1  0  0  0  0
 34 75  2  0  0  0  0
 35 49  1  0  0  0  0
 35 71  1  0  0  0  0
 35 76  2  0  0  0  0
 36 61  1  0  0  0  0
 36 66  1  0  0  0  0
 36 77  2  0  0  0  0
 37 62  1  0  0  0  0
 37 72  1  0  0  0  0
 37 78  2  0  0  0  0
 38 67  1  0  0  0  0
 38 70  1  0  0  0  0
 38 79  2  0  0  0  0
 39 42  1  0  0  0  0
 40 49  1  0  0  0  0
 41 66  1  0  0  0  0
 42 44  1  0  0  0  0
 43 45  1  0  0  0  0
 43 46  1  0  0  0  0
 44 48  1  0  0  0  0
 45 50  1  0  0  0  0
 46 67  1  0  0  0  0
 47 50  1  0  0  0  0
 47 67  1  0  0  0  0
 48 71  1  0  0  0  0
 49 66  1  0  0  0  0
 50 65  1  0  0  0  0
 51 62  1  0  0  0  0
 52 63  1  0  0  0  0
 53 63  1  0  0  0  0
 54 63  1  0  0  0  0
 55 73  1  0  0  0  0
 56 74  1  0  0  0  0
 57 81  1  0  0  0  0
 58 59  1  0  0  0  0
 58 60  1  0  0  0  0
 59 73  1  0  0  0  0
 60 82  1  0  0  0  0
 61 63  1  0  0  0  0
 61 72  1  0  0  0  0
 62 74  1  0  0  0  0
 64 65  1  0  0  0  0
M  CHG  1  74   1
M  ISO  4  38 100  60 101  70 100  82 101
M  END
> <Batch ID>
0009

> <Smiles>
CNC(C)C(=O)NC(C(=O)N1Cc2cc([101O:1][101CH2:1]CCN(C)c3ccc([100NH:0][100C:0](=O)N4CCCC(n5nc(-c6ccc(Oc7ccc(F)cc7F)cc6)c(C(N)=O)c5N)C4)c(OC)c3)ccc2CC1C(=O)NC1CCCc2ccccc21)C(C)(C)C

> <Shape>
0.218

> <Color>
0.184

> <Negative vol penalty>
0.000

$$$$

  -OEChem-04052315383D

 89 97  0     1  0  0  0  0  0999 V2000
  -27.7987  -17.6869   18.1747 C   0  0  0  0  0  0  0  0  0  0  0  0
  -27.2161  -35.6077   23.5023 C   0  0  0  0  0  0  0  0  0  0  0  0
  -27.5656  -34.2767   23.2979 C   0  0  0  0  0  0  0  0  0  0  0  0
  -24.2204   -8.8171   20.3793 C   0  0  0  0  0  0  0  0  0  0  0  0
  -22.8594  -10.5856   21.3051 C   0  0  0  0  0  0  0  0  0  0  0  0
  -25.9082  -35.9375   23.8550 C   0  0  0  0  0  0  0  0  0  0  0  0
  -26.6075  -33.2746   23.4471 C   0  0  0  0  0  0  0  0  0  0  0  0
  -26.7620  -29.8661   19.7051 C   0  0  0  0  0  0  0  0  0  0  0  0
  -23.2860   -7.8740   20.8070 C   0  0  0  0  0  0  0  0  0  0  0  0
  -21.9249   -9.6425   21.7328 C   0  0  0  0  0  0  0  0  0  0  0  0
  -27.7681  -28.9026   19.7625 C   0  0  0  0  0  0  0  0  0  0  0  0
  -22.4497   -6.3288   23.6944 C   0  0  0  0  0  0  0  0  0  0  0  0
  -22.9306   -5.1788   24.3202 C   0  0  0  0  0  0  0  0  0  0  0  0
  -28.7624  -19.8869   18.5633 C   0  0  0  0  0  0  0  0  0  0  0  0
  -26.1856  -27.3116   20.6478 C   0  0  0  0  0  0  0  0  0  0  0  0
  -29.5140  -19.1584   21.1493 C   0  0  0  0  0  0  0  0  0  0  0  0
  -21.9164   -3.8187   22.6001 C   0  0  0  0  0  0  0  0  0  0  0  0
  -28.4780  -18.6064   19.0376 C   0  0  0  0  0  0  0  0  0  0  0  0
  -24.0071  -10.1730   20.6284 C   0  0  0  0  0  0  0  0  0  0  0  0
  -24.9996  -11.8171   18.9492 C   0  0  0  0  0  0  0  0  0  0  0  0
  -24.9312  -34.9398   23.9992 C   0  0  0  0  0  0  0  0  0  0  0  0
  -25.4605  -29.5622   20.1295 C   0  0  0  0  0  0  0  0  0  0  0  0
  -25.2855  -33.5913   23.8034 C   0  0  0  0  0  0  0  0  0  0  0  0
  -25.1642  -28.2722   20.5923 C   0  0  0  0  0  0  0  0  0  0  0  0
  -29.4226  -20.8032   19.3820 C   0  0  0  0  0  0  0  0  0  0  0  0
  -28.8538  -18.2421   20.3306 C   0  0  0  0  0  0  0  0  0  0  0  0
  -29.7984  -20.4390   20.6749 C   0  0  0  0  0  0  0  0  0  0  0  0
  -22.1382   -8.2867   21.4837 C   0  0  0  0  0  0  0  0  0  0  0  0
  -27.4807  -27.6260   20.2367 C   0  0  0  0  0  0  0  0  0  0  0  0
  -21.7021   -6.2239   22.5215 C   0  0  0  0  0  0  0  0  0  0  0  0
  -22.6640   -3.9237   23.7730 C   0  0  0  0  0  0  0  0  0  0  0  0
  -21.4355   -4.9688   21.9743 C   0  0  0  0  0  0  0  0  0  0  0  0
  -24.9723  -11.1476   20.1873 C   0  0  0  0  0  0  0  0  0  0  0  0
  -26.1043  -12.6299   19.0227 C   0  0  0  0  0  0  0  0  0  0  0  0
  -24.1062  -11.7135   17.8326 C   0  0  0  0  0  0  0  0  0  0  0  0
  -23.5330  -30.6519   22.4101 C   0  0  0  0  0  0  0  0  0  0  0  0
  -21.3825  -28.6788   20.9942 C   0  0  0  0  0  0  0  0  0  0  0  0
  -29.1855  -24.5032   19.5372 C   0  0  0  0  0  0  0  0  0  0  0  0
  -20.8118  -25.9251   19.0608 C   0  0  0  0  0  0  0  0  0  0  0  0
  -29.3211  -16.2389   21.7850 C   0  0  0  0  0  0  0  0  0  0  0  0
  -23.5419  -35.3408   24.4279 C   0  0  0  0  0  0  0  0  0  0  0  0
  -24.3802  -30.6047   20.0361 C   0  0  0  0  0  0  0  0  0  0  0  0
  -23.7783  -27.8894   21.0409 C   0  0  0  0  0  0  0  0  0  0  0  0
  -22.4962  -34.2524   24.1998 C   0  0  0  0  0  0  0  0  0  0  0  0
  -29.8677  -12.7756   22.4045 C   0  0  0  0  0  0  0  0  0  0  0  0
  -23.0104  -32.9053   24.6973 C   0  0  0  0  0  0  0  0  0  0  0  0
  -28.6451  -12.0984   21.7811 C   0  0  0  0  0  0  0  0  0  0  0  0
  -29.5071  -14.1105   23.0540 C   0  0  0  0  0  0  0  0  0  0  0  0
  -27.5654  -14.3727   21.5606 C   0  0  0  0  0  0  0  0  0  0  0  0
  -24.2685  -32.4781   23.9316 C   0  0  1  0  0  0  0  0  0  0  0  0
  -23.2093  -30.3378   20.9769 C   0  0  1  0  0  0  0  0  0  0  0  0
  -27.8907  -13.0555   20.8375 C   0  0  2  0  0  0  0  0  0  0  0  0
  -32.4966  -20.4864   22.5220 C   0  0  0  0  0  0  0  0  0  0  0  0
  -29.2642  -21.5419   23.6132 C   0  0  0  0  0  0  0  0  0  0  0  0
  -18.9498  -24.5389   18.1077 C   0  0  0  0  0  0  0  0  0  0  0  0
  -20.9166  -27.4239   23.7361 C   0  0  0  0  0  0  0  0  0  0  0  0
  -19.8167  -25.4905   22.5870 C   0  0  0  0  0  0  0  0  0  0  0  0
  -18.8422  -27.7779   22.3847 C   0  0  0  0  0  0  0  0  0  0  0  0
  -21.6621  -26.4844   16.2817 C   0  0  0  0  0  0  0  0  0  0  0  0
  -29.7173  -22.1741   18.8455 C   0  0  0  0  0  0  0  0  0  0  0  0
  -28.0634  -25.3224   20.1381 C   0  0  0  0  0  0  0  0  0  1  0  0
  -31.9147  -21.4234   21.5190 C   0  0  0  0  0  0  0  0  0  0  0  0
  -29.7147  -22.2433   22.3772 C   0  0  0  0  0  0  0  0  0  0  0  0
  -20.9869  -27.2317   21.1623 C   0  0  1  0  0  0  0  0  0  0  0  0
  -19.8986  -25.7030   17.8686 C   0  0  2  0  0  0  0  0  0  0  0  0
  -20.1672  -26.9885   22.4610 C   0  0  0  0  0  0  0  0  0  0  0  0
  -27.2485  -16.9419   17.4754 N   0  0  0  0  0  0  0  0  0  0  0  0
  -25.9798  -11.5041   20.9886 N   0  0  0  0  0  0  0  0  0  0  0  0
  -26.6505  -12.4064   20.2523 N   0  0  0  0  0  0  0  0  0  0  0  0
  -22.7578  -28.9454   20.9364 N   0  0  0  0  0  0  0  0  0  0  0  0
  -28.7988  -14.9666   22.0999 N   0  0  0  0  0  0  0  0  0  0  0  0
  -26.6520  -13.5069   18.1548 N   0  0  0  0  0  0  0  0  0  0  0  0
  -23.0220  -10.8301   17.9242 N   0  0  0  0  0  0  0  0  0  0  0  0
  -28.5796  -16.9492   20.8414 N   0  0  0  0  0  0  0  0  0  0  0  0
  -23.9150  -31.9621   22.6265 N   0  0  0  0  0  0  0  0  0  0  0  0
  -28.8277  -23.1718   19.3935 N   0  0  0  0  0  0  0  0  0  0  0  0
  -20.2911  -26.8537   19.9370 N   0  0  0  0  0  0  0  0  0  0  0  0
  -30.4680  -21.3541   21.5168 N   0  0  0  0  0  0  0  0  0  0  0  0
  -20.7022  -25.4114   16.6479 N   0  3  0  0  0  0  0  0  0  0  0  0
  -24.2740  -12.3723   16.7784 O   0  0  0  0  0  0  0  0  0  0  0  0
  -23.4414  -29.7711   23.2572 O   0  0  0  0  0  0  0  0  0  0  0  0
  -20.5035  -29.5402   20.9098 O   0  0  0  0  0  0  0  0  0  0  0  0
  -30.2699  -24.9886   19.2267 O   0  0  0  0  0  0  0  0  0  0  0  0
  -21.8785  -25.3313   19.2025 O   0  0  0  0  0  0  0  0  0  0  0  0
  -30.3651  -16.6558   22.2932 O   0  0  0  0  0  0  0  0  0  0  0  0
  -21.2260   -7.3667   21.9010 O   0  0  0  0  0  0  0  0  0  0  0  0
  -28.4610  -26.6840   20.2944 O   0  0  0  0  0  0  0  0  0  1  0  0
  -23.1272   -2.8194   24.3732 F   0  0  0  0  0  0  0  0  0  0  0  0
  -20.7188   -4.8618   20.8470 F   0  0  0  0  0  0  0  0  0  0  0  0
  1 18  1  0  0  0  0
  1 67  3  0  0  0  0
  2  3  1  0  0  0  0
  2  6  2  0  0  0  0
  3  7  2  0  0  0  0
  4  9  2  0  0  0  0
  4 19  1  0  0  0  0
  5 10  1  0  0  0  0
  5 19  2  0  0  0  0
  6 21  1  0  0  0  0
  7 23  1  0  0  0  0
  8 11  2  0  0  0  0
  8 22  1  0  0  0  0
  9 28  1  0  0  0  0
 10 28  2  0  0  0  0
 11 29  1  0  0  0  0
 12 13  2  0  0  0  0
 12 30  1  0  0  0  0
 13 31  1  0  0  0  0
 14 18  2  0  0  0  0
 14 25  1  0  0  0  0
 15 24  1  0  0  0  0
 15 29  2  0  0  0  0
 16 26  2  0  0  0  0
 16 27  1  0  0  0  0
 17 31  2  0  0  0  0
 17 32  1  0  0  0  0
 18 26  1  0  0  0  0
 19 33  1  0  0  0  0
 20 33  1  0  0  0  0
 20 34  2  0  0  0  0
 20 35  1  0  0  0  0
 21 23  2  0  0  0  0
 21 41  1  0  0  0  0
 22 24  2  0  0  0  0
 22 42  1  0  0  0  0
 23 50  1  0  0  0  0
 24 43  1  0  0  0  0
 25 27  2  0  0  0  0
 25 60  1  0  0  0  0
 26 74  1  0  0  0  0
 27 78  1  0  0  0  0
 28 86  1  0  0  0  0
 29 87  1  0  0  0  0
 30 32  2  0  0  0  0
 30 86  1  0  0  0  0
 31 88  1  0  0  0  0
 32 89  1  0  0  0  0
 33 68  2  0  0  0  0
 34 69  1  0  0  0  0
 34 72  1  0  0  0  0
 35 73  1  0  0  0  0
 35 80  2  0  0  0  0
 36 51  1  0  0  0  0
 36 75  1  0  0  0  0
 36 81  2  0  0  0  0
 37 64  1  0  0  0  0
 37 70  1  0  0  0  0
 37 82  2  0  0  0  0
 38 61  1  0  0  0  0
 38 76  1  0  0  0  0
 38 83  2  0  0  0  0
 39 65  1  0  0  0  0
 39 77  1  0  0  0  0
 39 84  2  0  0  0  0
 40 71  1  0  0  0  0
 40 74  1  0  0  0  0
 40 85  2  0  0  0  0
 41 44  1  0  0  0  0
 42 51  1  0  0  0  0
 43 70  1  0  0  0  0
 44 46  1  0  0  0  0
 45 47  1  0  0  0  0
 45 48  1  0  0  0  0
 46 50  1  0  0  0  0
 47 52  1  0  0  0  0
 48 71  1  0  0  0  0
 49 52  1  0  0  0  0
 49 71  1  0  0  0  0
 50 75  1  0  0  0  0
 51 70  1  0  0  0  0
 52 69  1  0  0  0  0
 53 62  1  0  0  0  0
 54 63  1  0  0  0  0
 55 65  1  0  0  0  0
 56 66  1  0  0  0  0
 57 66  1  0  0  0  0
 58 66  1  0  0  0  0
 59 79  1  0  0  0  0
 60 76  1  0  0  0  0
 61 87  1  0  0  0  0
 62 78  1  0  0  0  0
 63 78  1  0  0  0  0
 64 66  1  0  0  0  0
 64 77  1  0  0  0  0
 65 79  1  0  0  0  0
 68 69  1  0  0  0  0
M  CHG  1  79   1
M  ISO  4  40 100  61 101  74 100  87 101
M  END
> <Batch ID>
0009

> <Smiles>
CCN(CC)c1cc([100NH:0][100C:0](=O)N2CCCC(n3nc(-c4ccc(Oc5ccc(F)cc5F)cc4)c(C(N)=O)c3N)C2)c(C#N)cc1CNC(=O)[101CH2:1][101O:1]c1ccc2c(c1)CN(C(=O)C(NC(=O)C(C)NC)C(C)(C)C)C(C(=O)NC1CCCc3ccccc31)C2

> <Shape>
0.356

> <Color>
0.122

> <Negative vol penalty>
0.000

$$$$

  -OEChem-04052315383D

 88 96  0     1  0  0  0  0  0999 V2000
  -25.0542  -35.8887   23.4578 C   0  0  0  0  0  0  0  0  0  0  0  0
  -25.5668  -35.0122   22.5069 C   0  0  0  0  0  0  0  0  0  0  0  0
  -24.3110   -8.9218   20.1652 C   0  0  0  0  0  0  0  0  0  0  0  0
  -22.8278  -10.3309   21.4503 C   0  0  0  0  0  0  0  0  0  0  0  0
  -25.2723  -35.6496   24.8140 C   0  0  0  0  0  0  0  0  0  0  0  0
  -26.2989  -33.8965   22.9115 C   0  0  0  0  0  0  0  0  0  0  0  0
  -24.9560  -29.6888   20.4342 C   0  0  0  0  0  0  0  0  0  0  0  0
  -23.5427   -7.8070   20.5007 C   0  0  0  0  0  0  0  0  0  0  0  0
  -22.0595   -9.2162   21.7858 C   0  0  0  0  0  0  0  0  0  0  0  0
  -25.4441  -29.5300   19.1380 C   0  0  0  0  0  0  0  0  0  0  0  0
  -19.6944   -7.2927   20.3273 C   0  0  0  0  0  0  0  0  0  0  0  0
  -18.3076   -7.4124   20.2373 C   0  0  0  0  0  0  0  0  0  0  0  0
  -27.1569  -28.0495   19.9708 C   0  0  0  0  0  0  0  0  0  0  0  0
  -29.2329  -19.0300   20.7408 C   0  0  0  0  0  0  0  0  0  0  0  0
  -27.2020  -20.2989   19.3097 C   0  0  0  0  0  0  0  0  0  0  0  0
  -18.1117   -6.9157   22.5936 C   0  0  0  0  0  0  0  0  0  0  0  0
  -23.9536  -10.1838   20.6400 C   0  0  0  0  0  0  0  0  0  0  0  0
  -24.5813  -12.1785   19.1789 C   0  0  0  0  0  0  0  0  0  0  0  0
  -25.9992  -34.5252   25.2359 C   0  0  0  0  0  0  0  0  0  0  0  0
  -25.5725  -29.0368   21.5118 C   0  0  0  0  0  0  0  0  0  0  0  0
  -26.5281  -33.6428   24.2746 C   0  0  0  0  0  0  0  0  0  0  0  0
  -26.6732  -28.1998   21.2795 C   0  0  0  0  0  0  0  0  0  0  0  0
  -29.5248  -20.1458   19.9563 C   0  0  0  0  0  0  0  0  0  0  0  0
  -26.9100  -19.1831   20.0941 C   0  0  0  0  0  0  0  0  0  0  0  0
  -27.9255  -18.5486   20.8096 C   0  0  0  0  0  0  0  0  0  0  0  0
  -28.5094  -20.7803   19.2408 C   0  0  0  0  0  0  0  0  0  0  0  0
  -22.4169   -7.9542   21.3110 C   0  0  0  0  0  0  0  0  0  0  0  0
  -26.5465  -28.7125   18.9065 C   0  0  0  0  0  0  0  0  0  0  0  0
  -20.2899   -6.9844   21.5505 C   0  0  0  0  0  0  0  0  0  0  0  0
  -17.5163   -7.2239   21.3704 C   0  0  0  0  0  0  0  0  0  0  0  0
  -19.4985   -6.7960   22.6836 C   0  0  0  0  0  0  0  0  0  0  0  0
  -24.7472  -11.3356   20.2942 C   0  0  0  0  0  0  0  0  0  0  0  0
  -25.5784  -13.1147   19.3047 C   0  0  0  0  0  0  0  0  0  0  0  0
  -23.6125  -12.1204   18.1236 C   0  0  0  0  0  0  0  0  0  0  0  0
  -27.0546  -29.9874   24.1582 C   0  0  0  0  0  0  0  0  0  0  0  0
  -27.0755  -26.8120   24.8208 C   0  0  0  0  0  0  0  0  0  0  0  0
  -28.4383  -23.7551   16.9463 C   0  0  0  0  0  0  0  0  0  0  0  0
  -26.9602  -23.6077   23.6520 C   0  0  0  0  0  0  0  0  0  0  0  0
  -28.5528  -16.6798   22.3781 C   0  0  0  0  0  0  0  0  0  0  0  0
  -26.2494  -34.3340   26.7108 C   0  0  0  0  0  0  0  0  0  0  0  0
  -25.0174  -29.1974   22.9005 C   0  0  0  0  0  0  0  0  0  0  0  0
  -27.3583  -27.4615   22.3993 C   0  0  0  0  0  0  0  0  0  0  0  0
  -26.7162  -32.9262   27.0720 C   0  0  0  0  0  0  0  0  0  0  0  0
  -29.5788  -13.2704   22.4022 C   0  0  0  0  0  0  0  0  0  0  0  0
  -27.8164  -32.4679   26.1200 C   0  0  0  0  0  0  0  0  0  0  0  0
  -28.3996  -12.5324   21.7642 C   0  0  0  0  0  0  0  0  0  0  0  0
  -29.1137  -14.4324   23.2780 C   0  0  0  0  0  0  0  0  0  0  0  0
  -27.0300  -14.6453   21.9811 C   0  0  0  0  0  0  0  0  0  0  0  0
  -27.3061  -32.4082   24.6752 C   0  0  1  0  0  0  0  0  0  0  0  0
  -26.0393  -28.8924   23.9914 C   0  0  1  0  0  0  0  0  0  0  0  0
  -27.4515  -13.5067   21.0379 C   0  0  2  0  0  0  0  0  0  0  0  0
  -30.9337  -20.6400   19.8994 C   0  0  0  0  0  0  0  0  0  0  0  0
  -25.5009  -18.6887   20.1484 C   0  0  0  0  0  0  0  0  0  0  0  0
  -27.0361  -21.2232   24.4301 C   0  0  0  0  0  0  0  0  0  0  0  0
  -30.0896  -27.0456   25.2344 C   0  0  0  0  0  0  0  0  0  0  0  0
  -30.2360  -24.5521   25.0628 C   0  0  0  0  0  0  0  0  0  0  0  0
  -28.9166  -25.5985   26.9031 C   0  0  0  0  0  0  0  0  0  0  0  0
  -26.1365  -24.3056   16.0837 C   0  0  0  0  0  0  0  0  0  0  0  0
  -24.2578  -23.0507   22.5816 C   0  0  0  0  0  0  0  0  0  0  0  0
  -27.7933  -22.5984   17.6892 C   0  0  0  0  0  0  0  0  0  0  0  0
  -27.4193  -26.9978   15.8605 C   0  0  0  0  0  0  0  0  0  0  0  0
  -28.0660  -25.6901   15.4243 C   0  0  0  0  0  0  0  0  0  0  0  0
  -27.6503  -27.3110   17.3339 C   0  0  0  0  0  0  0  0  0  1  0  0
  -28.0194  -25.6676   24.5405 C   0  0  1  0  0  0  0  0  0  0  0  0
  -26.1426  -22.4053   24.0881 C   0  0  2  0  0  0  0  0  0  0  0  0
  -29.3039  -25.7313   25.4141 C   0  0  0  0  0  0  0  0  0  0  0  0
  -25.7693  -11.7037   21.0712 N   0  0  0  0  0  0  0  0  0  0  0  0
  -26.2548  -12.7882   20.4432 N   0  0  0  0  0  0  0  0  0  0  0  0
  -26.7823  -27.6559   23.7401 N   0  0  0  0  0  0  0  0  0  0  0  0
  -28.2228  -15.3155   22.5223 N   0  0  0  0  0  0  0  0  0  0  0  0
  -25.9339  -14.1770   18.5514 N   0  0  0  0  0  0  0  0  0  0  0  0
  -22.6590  -11.0935   18.1477 N   0  0  0  0  0  0  0  0  0  0  0  0
  -27.6482  -17.4139   21.6118 N   0  0  0  0  0  0  0  0  0  0  0  0
  -28.7824  -21.8935   18.4533 N   0  0  0  0  0  0  0  0  0  0  0  0
  -26.5088  -31.2181   24.4696 N   0  0  0  0  0  0  0  0  0  0  0  0
  -27.2409  -24.4455   24.7106 N   0  0  0  0  0  0  0  0  0  0  0  0
  -27.5808  -24.5638   16.1729 N   0  0  0  0  0  0  0  0  0  0  0  0
  -25.2105  -21.9910   23.0016 N   0  3  0  0  0  0  0  0  0  0  0  0
  -23.6031  -12.9448   17.1781 O   0  0  0  0  0  0  0  0  0  0  0  0
  -28.2452  -29.7341   24.0164 O   0  0  0  0  0  0  0  0  0  0  0  0
  -26.6099  -26.9479   25.9549 O   0  0  0  0  0  0  0  0  0  0  0  0
  -29.6520  -23.9609   17.0297 O   0  0  0  0  0  0  0  0  0  0  0  0
  -27.3174  -23.7841   22.4893 O   0  0  0  0  0  0  0  0  0  0  0  0
  -29.5777  -17.1554   22.8735 O   0  0  0  0  0  0  0  0  0  0  0  0
  -21.6668   -6.8667   21.6384 O   0  0  0  0  0  0  0  0  0  0  0  0
  -27.0253  -28.5562   17.6423 O   0  0  0  0  0  0  0  0  0  1  0  0
  -16.1847   -7.3405   21.2841 F   0  0  0  0  0  0  0  0  0  0  0  0
  -20.0650   -6.5008   23.8617 F   0  0  0  0  0  0  0  0  0  0  0  0
  1  2  1  0  0  0  0
  1  5  2  0  0  0  0
  2  6  2  0  0  0  0
  3  8  2  0  0  0  0
  3 17  1  0  0  0  0
  4  9  1  0  0  0  0
  4 17  2  0  0  0  0
  5 19  1  0  0  0  0
  6 21  1  0  0  0  0
  7 10  2  0  0  0  0
  7 20  1  0  0  0  0
  8 27  1  0  0  0  0
  9 27  2  0  0  0  0
 10 28  1  0  0  0  0
 11 12  2  0  0  0  0
 11 29  1  0  0  0  0
 12 30  1  0  0  0  0
 13 22  1  0  0  0  0
 13 28  2  0  0  0  0
 14 23  1  0  0  0  0
 14 25  2  0  0  0  0
 15 24  2  0  0  0  0
 15 26  1  0  0  0  0
 16 30  2  0  0  0  0
 16 31  1  0  0  0  0
 17 32  1  0  0  0  0
 18 32  1  0  0  0  0
 18 33  2  0  0  0  0
 18 34  1  0  0  0  0
 19 21  2  0  0  0  0
 19 40  1  0  0  0  0
 20 22  2  0  0  0  0
 20 41  1  0  0  0  0
 21 49  1  0  0  0  0
 22 42  1  0  0  0  0
 23 26  2  0  0  0  0
 23 52  1  0  0  0  0
 24 25  1  0  0  0  0
 24 53  1  0  0  0  0
 25 73  1  0  0  0  0
 26 74  1  0  0  0  0
 27 85  1  0  0  0  0
 28 86  1  0  0  0  0
 29 31  2  0  0  0  0
 29 85  1  0  0  0  0
 30 87  1  0  0  0  0
 31 88  1  0  0  0  0
 32 67  2  0  0  0  0
 33 68  1  0  0  0  0
 33 71  1  0  0  0  0
 34 72  1  0  0  0  0
 34 79  2  0  0  0  0
 35 50  1  0  0  0  0
 35 75  1  0  0  0  0
 35 80  2  0  0  0  0
 36 64  1  0  0  0  0
 36 69  1  0  0  0  0
 36 81  2  0  0  0  0
 37 60  1  0  0  0  0
 37 77  1  0  0  0  0
 37 82  2  0  0  0  0
 38 65  1  0  0  0  0
 38 76  1  0  0  0  0
 38 83  2  0  0  0  0
 39 70  1  0  0  0  0
 39 73  1  0  0  0  0
 39 84  2  0  0  0  0
 40 43  1  0  0  0  0
 41 50  1  0  0  0  0
 42 69  1  0  0  0  0
 43 45  1  0  0  0  0
 44 46  1  0  0  0  0
 44 47  1  0  0  0  0
 45 49  1  0  0  0  0
 46 51  1  0  0  0  0
 47 70  1  0  0  0  0
 48 51  1  0  0  0  0
 48 70  1  0  0  0  0
 49 75  1  0  0  0  0
 50 69  1  0  0  0  0
 51 68  1  0  0  0  0
 54 65  1  0  0  0  0
 55 66  1  0  0  0  0
 56 66  1  0  0  0  0
 57 66  1  0  0  0  0
 58 77  1  0  0  0  0
 59 78  1  0  0  0  0
 60 74  1  0  0  0  0
 61 62  1  0  0  0  0
 61 63  1  0  0  0  0
 62 77  1  0  0  0  0
 63 86  1  0  0  0  0
 64 66  1  0  0  0  0
 64 76  1  0  0  0  0
 65 78  1  0  0  0  0
 67 68  1  0  0  0  0
M  CHG  1  78   1
M  ISO  4  39 100  63 101  73 100  86 101
M  END
> <Batch ID>
0009

> <Smiles>
CNC(C)C(=O)NC(C(=O)N1Cc2cc([101O:1][101CH2:1]CCN(C)C(=O)CNc3cc(C)c([100NH:0][100C:0](=O)N4CCCC(n5nc(-c6ccc(Oc7ccc(F)cc7F)cc6)c(C(N)=O)c5N)C4)cc3C)ccc2CC1C(=O)NC1CCCc2ccccc21)C(C)(C)C

> <Shape>
0.226

> <Color>
0.076

> <Negative vol penalty>
0.000

$$$$

  -OEChem-04052315383D

 82 90  0     1  0  0  0  0  0999 V2000
  -29.4609  -33.9616   26.0651 C   0  0  0  0  0  0  0  0  0  0  0  0
  -29.6130  -32.8665   25.2207 C   0  0  0  0  0  0  0  0  0  0  0  0
  -24.6254   -9.0141   21.3663 C   0  0  0  0  0  0  0  0  0  0  0  0
  -23.3749  -10.8876   22.2399 C   0  0  0  0  0  0  0  0  0  0  0  0
  -28.2344  -34.1977   26.6847 C   0  0  0  0  0  0  0  0  0  0  0  0
  -28.5389  -32.0061   24.9963 C   0  0  0  0  0  0  0  0  0  0  0  0
  -27.2088  -29.0561   19.7969 C   0  0  0  0  0  0  0  0  0  0  0  0
  -28.2583  -19.0882   20.2571 C   0  0  0  0  0  0  0  0  0  0  0  0
  -27.8311  -20.4045   20.0827 C   0  0  0  0  0  0  0  0  0  0  0  0
  -24.0837   -8.1918   22.3542 C   0  0  0  0  0  0  0  0  0  0  0  0
  -22.8332  -10.0653   23.2279 C   0  0  0  0  0  0  0  0  0  0  0  0
  -27.4513  -27.7511   19.3704 C   0  0  0  0  0  0  0  0  0  0  0  0
  -21.1749   -6.5638   22.9211 C   0  0  0  0  0  0  0  0  0  0  0  0
  -20.7074   -5.3078   22.5345 C   0  0  0  0  0  0  0  0  0  0  0  0
  -25.2378  -27.1124   20.0857 C   0  0  0  0  0  0  0  0  0  0  0  0
  -26.2425  -18.5979   21.4954 C   0  0  0  0  0  0  0  0  0  0  0  0
  -22.2821   -4.2592   24.0373 C   0  0  0  0  0  0  0  0  0  0  0  0
  -24.2711  -10.3620   21.3092 C   0  0  0  0  0  0  0  0  0  0  0  0
  -24.3057  -11.4600   19.0068 C   0  0  0  0  0  0  0  0  0  0  0  0
  -27.1420  -33.3453   26.4602 C   0  0  0  0  0  0  0  0  0  0  0  0
  -25.9808  -29.3971   20.3819 C   0  0  0  0  0  0  0  0  0  0  0  0
  -27.2970  -32.2302   25.6146 C   0  0  0  0  0  0  0  0  0  0  0  0
  -24.9812  -28.4230   20.5164 C   0  0  0  0  0  0  0  0  0  0  0  0
  -27.4640  -18.1849   20.9633 C   0  0  0  0  0  0  0  0  0  0  0  0
  -26.6097  -20.8176   20.6148 C   0  0  0  0  0  0  0  0  0  0  0  0
  -23.1876   -8.7174   23.2850 C   0  0  0  0  0  0  0  0  0  0  0  0
  -26.4669  -26.7783   19.5174 C   0  0  0  0  0  0  0  0  0  0  0  0
  -22.1961   -6.6675   23.8657 C   0  0  0  0  0  0  0  0  0  0  0  0
  -21.2610   -4.1555   23.0926 C   0  0  0  0  0  0  0  0  0  0  0  0
  -25.8153  -19.9143   21.3211 C   0  0  0  0  0  0  0  0  0  0  0  0
  -22.7496   -5.5153   24.4238 C   0  0  0  0  0  0  0  0  0  0  0  0
  -24.8308  -11.2121   20.2892 C   0  0  0  0  0  0  0  0  0  0  0  0
  -25.2014  -12.3274   18.4309 C   0  0  0  0  0  0  0  0  0  0  0  0
  -23.1148  -10.9516   18.3912 C   0  0  0  0  0  0  0  0  0  0  0  0
  -25.0781  -30.4896   23.2271 C   0  0  0  0  0  0  0  0  0  0  0  0
  -22.1722  -30.6800   21.7983 C   0  0  0  0  0  0  0  0  0  0  0  0
  -26.8424  -23.1750   19.7648 C   0  0  0  0  0  0  0  0  0  0  0  0
  -20.0775  -29.5876   19.3354 C   0  0  0  0  0  0  0  0  0  0  0  0
  -29.0827  -16.2756   20.6787 C   0  0  0  0  0  0  0  0  0  0  0  0
  -25.8494  -33.6143   27.1893 C   0  0  0  0  0  0  0  0  0  0  0  0
  -25.7250  -30.8155   20.8123 C   0  0  0  0  0  0  0  0  0  0  0  0
  -23.6386  -28.7425   21.1196 C   0  0  0  0  0  0  0  0  0  0  0  0
  -24.6534  -32.8673   26.6047 C   0  0  0  0  0  0  0  0  0  0  0  0
  -29.8337  -13.5387   18.5288 C   0  0  0  0  0  0  0  0  0  0  0  0
  -25.0100  -31.4067   26.3474 C   0  0  0  0  0  0  0  0  0  0  0  0
  -28.5857  -12.6570   18.6148 C   0  0  0  0  0  0  0  0  0  0  0  0
  -30.1628  -14.1883   19.8717 C   0  0  0  0  0  0  0  0  0  0  0  0
  -27.8072  -14.0443   20.5786 C   0  0  0  0  0  0  0  0  0  0  0  0
  -26.1482  -31.2882   25.3267 C   0  0  1  0  0  0  0  0  0  0  0  0
  -24.6261  -30.9318   21.8641 C   0  0  1  0  0  0  0  0  0  0  0  0
  -27.3984  -13.4199   19.2345 C   0  0  2  0  0  0  0  0  0  0  0  0
  -17.7527  -29.9008   18.4441 C   0  0  0  0  0  0  0  0  0  0  0  0
  -21.0648  -29.0297   24.1135 C   0  0  0  0  0  0  0  0  0  0  0  0
  -19.0308  -28.5762   22.7259 C   0  0  0  0  0  0  0  0  0  0  0  0
  -19.5956  -30.9161   23.3806 C   0  0  0  0  0  0  0  0  0  0  0  0
  -21.0837  -30.5122   16.7103 C   0  0  0  0  0  0  0  0  0  0  0  0
  -26.0333  -24.4580   19.8076 C   0  0  0  0  0  0  0  0  0  1  0  0
  -20.9985  -29.7450   21.6336 C   0  0  1  0  0  0  0  0  0  0  0  0
  -19.2052  -30.3408   18.3474 C   0  0  2  0  0  0  0  0  0  0  0  0
  -20.1983  -29.5600   22.9538 C   0  0  0  0  0  0  0  0  0  0  0  0
  -25.9716  -11.8689   20.5151 N   0  0  0  0  0  0  0  0  0  0  0  0
  -26.1709  -12.5380   19.3668 N   0  0  0  0  0  0  0  0  0  0  0  0
  -23.4389  -30.1419   21.5309 N   0  0  0  0  0  0  0  0  0  0  0  0
  -28.9928  -14.8963   20.3958 N   0  0  0  0  0  0  0  0  0  0  0  0
  -25.2465  -12.9230   17.2202 N   0  0  0  0  0  0  0  0  0  0  0  0
  -22.3079  -10.0704   19.1238 N   0  0  0  0  0  0  0  0  0  0  0  0
  -26.1792  -22.1538   20.4367 N   0  0  0  0  0  0  0  0  0  0  0  0
  -27.8980  -16.8478   21.1411 N   0  0  0  0  0  0  0  0  0  0  0  0
  -25.6472  -31.4953   23.9848 N   0  0  0  0  0  0  0  0  0  0  0  0
  -20.2094  -30.2717   20.5253 N   0  0  0  0  0  0  0  0  0  0  0  0
  -19.6766  -30.1028   16.9539 N   0  3  0  0  0  0  0  0  0  0  0  0
  -22.7849  -11.2565   17.2200 O   0  0  0  0  0  0  0  0  0  0  0  0
  -24.9208  -29.3228   23.5668 O   0  0  0  0  0  0  0  0  0  0  0  0
  -21.9717  -31.8470   22.1444 O   0  0  0  0  0  0  0  0  0  0  0  0
  -27.9277  -23.1185   19.1961 O   0  0  0  0  0  0  0  0  0  0  0  0
  -20.5876  -28.4993   19.0788 O   0  0  0  0  0  0  0  0  0  0  0  0
  -30.1257  -16.9089   20.4965 O   0  0  0  0  0  0  0  0  0  0  0  0
  -22.6586   -7.9153   24.2490 O   0  0  0  0  0  0  0  0  0  0  0  0
  -26.7013  -25.5036   19.1026 O   0  0  0  0  0  0  0  0  0  1  0  0
  -20.8108   -2.9494   22.7225 F   0  0  0  0  0  0  0  0  0  0  0  0
  -24.6401  -20.3006   21.8382 F   0  0  0  0  0  0  0  0  0  0  0  0
  -23.7300   -5.6086   25.3326 F   0  0  0  0  0  0  0  0  0  0  0  0
  1  2  1  0  0  0  0
  1  5  2  0  0  0  0
  2  6  2  0  0  0  0
  3 10  2  0  0  0  0
  3 18  1  0  0  0  0
  4 11  1  0  0  0  0
  4 18  2  0  0  0  0
  5 20  1  0  0  0  0
  6 22  1  0  0  0  0
  7 12  2  0  0  0  0
  7 21  1  0  0  0  0
  8  9  2  0  0  0  0
  8 24  1  0  0  0  0
  9 25  1  0  0  0  0
 10 26  1  0  0  0  0
 11 26  2  0  0  0  0
 12 27  1  0  0  0  0
 13 14  2  0  0  0  0
 13 28  1  0  0  0  0
 14 29  1  0  0  0  0
 15 23  1  0  0  0  0
 15 27  2  0  0  0  0
 16 24  2  0  0  0  0
 16 30  1  0  0  0  0
 17 29  2  0  0  0  0
 17 31  1  0  0  0  0
 18 32  1  0  0  0  0
 19 32  1  0  0  0  0
 19 33  2  0  0  0  0
 19 34  1  0  0  0  0
 20 22  2  0  0  0  0
 20 40  1  0  0  0  0
 21 23  2  0  0  0  0
 21 41  1  0  0  0  0
 22 49  1  0  0  0  0
 23 42  1  0  0  0  0
 24 68  1  0  0  0  0
 25 30  2  0  0  0  0
 25 67  1  0  0  0  0
 26 78  1  0  0  0  0
 27 79  1  0  0  0  0
 28 31  2  0  0  0  0
 28 78  1  0  0  0  0
 29 80  1  0  0  0  0
 30 81  1  0  0  0  0
 31 82  1  0  0  0  0
 32 61  2  0  0  0  0
 33 62  1  0  0  0  0
 33 65  1  0  0  0  0
 34 66  1  0  0  0  0
 34 72  2  0  0  0  0
 35 50  1  0  0  0  0
 35 69  1  0  0  0  0
 35 73  2  0  0  0  0
 36 58  1  0  0  0  0
 36 63  1  0  0  0  0
 36 74  2  0  0  0  0
 37 57  1  0  0  0  0
 37 67  1  0  0  0  0
 37 75  2  0  0  0  0
 38 59  1  0  0  0  0
 38 70  1  0  0  0  0
 38 76  2  0  0  0  0
 39 64  1  0  0  0  0
 39 68  1  0  0  0  0
 39 77  2  0  0  0  0
 40 43  1  0  0  0  0
 41 50  1  0  0  0  0
 42 63  1  0  0  0  0
 43 45  1  0  0  0  0
 44 46  1  0  0  0  0
 44 47  1  0  0  0  0
 45 49  1  0  0  0  0
 46 51  1  0  0  0  0
 47 64  1  0  0  0  0
 48 51  1  0  0  0  0
 48 64  1  0  0  0  0
 49 69  1  0  0  0  0
 50 63  1  0  0  0  0
 51 62  1  0  0  0  0
 52 59  1  0  0  0  0
 53 60  1  0  0  0  0
 54 60  1  0  0  0  0
 55 60  1  0  0  0  0
 56 71  1  0  0  0  0
 57 79  1  0  0  0  0
 58 60  1  0  0  0  0
 58 70  1  0  0  0  0
 59 71  1  0  0  0  0
 61 62  1  0  0  0  0
M  CHG  1  71   1
M  ISO  4  39 100  57 101  68 100  79 101
M  END
> <Batch ID>
0009

> <Smiles>
CNC(C)C(=O)NC(C(=O)N1Cc2cc([101O:1][101CH2:1]C(=O)Nc3ccc([100NH:0][100C:0](=O)N4CCCC(n5nc(-c6ccc(Oc7ccc(F)cc7F)cc6)c(C(N)=O)c5N)C4)cc3F)ccc2CC1C(=O)NC1CCCc2ccccc21)C(C)(C)C

> <Shape>
0.309

> <Color>
0.101

> <Negative vol penalty>
0.000

$$$$
