
  -OEChem-04052315413D

 84 92  0     1  0  0  0  0  0999 V2000
  -34.3539  -34.9507   21.3156 C   0  0  0  0  0  0  0  0  0  0  0  0
  -34.3154  -33.5656   21.4400 C   0  0  0  0  0  0  0  0  0  0  0  0
  -23.0003   -9.8947   19.9815 C   0  0  0  0  0  0  0  0  0  0  0  0
  -23.7284   -9.9432   22.2847 C   0  0  0  0  0  0  0  0  0  0  0  0
  -33.2922  -35.7215   21.7874 C   0  0  0  0  0  0  0  0  0  0  0  0
  -33.2156  -32.9506   22.0371 C   0  0  0  0  0  0  0  0  0  0  0  0
  -30.7779  -27.5298   20.5612 C   0  0  0  0  0  0  0  0  0  0  0  0
  -31.3949  -18.9743   20.5315 C   0  0  0  0  0  0  0  0  0  0  0  0
  -31.1945  -17.5944   20.5660 C   0  0  0  0  0  0  0  0  0  0  0  0
  -22.2345   -8.7597   20.2475 C   0  0  0  0  0  0  0  0  0  0  0  0
  -22.9626   -8.8081   22.5507 C   0  0  0  0  0  0  0  0  0  0  0  0
  -30.9181  -26.2569   21.1126 C   0  0  0  0  0  0  0  0  0  0  0  0
  -23.2074   -5.4698   22.0745 C   0  0  0  0  0  0  0  0  0  0  0  0
  -23.7962   -4.4520   22.8246 C   0  0  0  0  0  0  0  0  0  0  0  0
  -28.9112  -26.6027   22.4057 C   0  0  0  0  0  0  0  0  0  0  0  0
  -29.7460  -19.2574   22.2745 C   0  0  0  0  0  0  0  0  0  0  0  0
  -22.0744   -4.6923   24.5024 C   0  0  0  0  0  0  0  0  0  0  0  0
  -23.7473  -10.4865   21.0001 C   0  0  0  0  0  0  0  0  0  0  0  0
  -24.1316  -13.0024   20.8266 C   0  0  0  0  0  0  0  0  0  0  0  0
  -32.1744  -35.1150   22.3819 C   0  0  0  0  0  0  0  0  0  0  0  0
  -29.7076  -28.3542   20.9368 C   0  0  0  0  0  0  0  0  0  0  0  0
  -32.1385  -33.7141   22.5185 C   0  0  0  0  0  0  0  0  0  0  0  0
  -28.7583  -27.8846   21.8557 C   0  0  0  0  0  0  0  0  0  0  0  0
  -30.6707  -19.8058   21.3858 C   0  0  0  0  0  0  0  0  0  0  0  0
  -30.2698  -17.0459   21.4546 C   0  0  0  0  0  0  0  0  0  0  0  0
  -22.2156   -8.2164   21.5321 C   0  0  0  0  0  0  0  0  0  0  0  0
  -29.9862  -25.7943   22.0371 C   0  0  0  0  0  0  0  0  0  0  0  0
  -22.0521   -6.0991   22.5383 C   0  0  0  0  0  0  0  0  0  0  0  0
  -29.5455  -17.8774   22.3089 C   0  0  0  0  0  0  0  0  0  0  0  0
  -23.2297   -4.0632   24.0385 C   0  0  0  0  0  0  0  0  0  0  0  0
  -21.4856   -5.7103   23.7522 C   0  0  0  0  0  0  0  0  0  0  0  0
  -24.5391  -11.6587   20.7258 C   0  0  0  0  0  0  0  0  0  0  0  0
  -25.2407  -13.7258   20.4616 C   0  0  0  0  0  0  0  0  0  0  0  0
  -22.8640  -13.5479   21.2154 C   0  0  0  0  0  0  0  0  0  0  0  0
  -29.4485  -31.1862   22.3567 C   0  0  0  0  0  0  0  0  0  0  0  0
  -26.3019  -30.8100   21.6638 C   0  0  0  0  0  0  0  0  0  0  0  0
  -30.2432  -22.1732   22.1252 C   0  0  0  0  0  0  0  0  0  0  0  0
  -23.7186  -28.6856   20.9854 C   0  0  0  0  0  0  0  0  0  0  0  0
  -30.7201  -14.6883   20.6896 C   0  0  0  0  0  0  0  0  0  0  0  0
  -31.0722  -35.9929   22.9195 C   0  0  0  0  0  0  0  0  0  0  0  0
  -29.5557  -29.7144   20.3127 C   0  0  0  0  0  0  0  0  0  0  0  0
  -27.5799  -28.7228   22.2768 C   0  0  0  0  0  0  0  0  0  0  0  0
  -29.7754  -35.2386   23.2015 C   0  0  0  0  0  0  0  0  0  0  0  0
  -29.5996  -12.2378   18.3622 C   0  0  0  0  0  0  0  0  0  0  0  0
  -30.0632  -33.9480   23.9620 C   0  0  0  0  0  0  0  0  0  0  0  0
  -28.1497  -11.9792   18.7780 C   0  0  0  0  0  0  0  0  0  0  0  0
  -30.5016  -12.4801   19.5711 C   0  0  0  0  0  0  0  0  0  0  0  0
  -28.5878  -13.2668   20.9081 C   0  0  0  0  0  0  0  0  0  0  0  0
  -30.9518  -33.0084   23.1380 C   0  0  1  0  0  0  0  0  0  0  0  0
  -28.7122  -30.6671   21.1542 C   0  0  1  0  0  0  0  0  0  0  0  0
  -27.6286  -13.0815   19.7209 C   0  0  2  0  0  0  0  0  0  0  0  0
  -26.3598  -16.6845   23.4856 C   0  0  0  0  0  0  0  0  0  0  0  0
  -21.2565  -28.6700   20.5003 C   0  0  0  0  0  0  0  0  0  0  0  0
  -25.7196  -31.3191   24.6154 C   0  0  0  0  0  0  0  0  0  0  0  0
  -23.4312  -30.3692   24.2560 C   0  0  0  0  0  0  0  0  0  0  0  0
  -24.1318  -32.4272   23.0325 C   0  0  0  0  0  0  0  0  0  0  0  0
  -24.1326  -27.4557   18.3256 C   0  0  0  0  0  0  0  0  0  0  0  0
  -30.7515  -23.5584   21.7709 C   0  0  0  0  0  0  0  0  0  1  0  0
  -27.2855  -17.7983   23.0450 C   0  0  0  0  0  0  0  0  0  0  0  0
  -25.1177  -30.1953   22.3702 C   0  0  1  0  0  0  0  0  0  0  0  0
  -22.6545  -28.7071   19.9029 C   0  0  2  0  0  0  0  0  0  0  0  0
  -24.6232  -31.0624   23.5622 C   0  0  0  0  0  0  0  0  0  0  0  0
  -25.8079  -11.5330   20.3279 N   0  0  0  0  0  0  0  0  0  0  0  0
  -26.2073  -12.8071   20.1753 N   0  0  0  0  0  0  0  0  0  0  0  0
  -27.4786  -30.0479   21.6433 N   0  0  0  0  0  0  0  0  0  0  0  0
  -29.9474  -13.5399   20.4164 N   0  0  0  0  0  0  0  0  0  0  0  0
  -25.4736  -15.0517   20.3608 N   0  0  0  0  0  0  0  0  0  0  0  0
  -21.8329  -12.6631   21.5592 N   0  0  0  0  0  0  0  0  0  0  0  0
  -30.8737  -21.2058   21.3501 N   0  0  0  0  0  0  0  0  0  0  0  0
  -30.0766  -15.6424   21.4772 N   0  0  0  0  0  0  0  0  0  0  0  0
  -30.1717  -32.3394   22.1190 N   0  0  0  0  0  0  0  0  0  0  0  0
  -24.1081  -29.9588   21.3440 N   0  0  0  0  0  0  0  0  0  0  0  0
  -22.8109  -27.5322   18.9995 N   0  3  0  0  0  0  0  0  0  0  0  0
  -22.6469  -14.7831   21.2409 O   0  0  0  0  0  0  0  0  0  0  0  0
  -29.3653  -30.5859   23.4218 O   0  0  0  0  0  0  0  0  0  0  0  0
  -26.1850  -31.9221   21.1431 O   0  0  0  0  0  0  0  0  0  0  0  0
  -29.3895  -22.0037   22.9895 O   0  0  0  0  0  0  0  0  0  0  0  0
  -24.1574  -27.6438   21.4675 O   0  0  0  0  0  0  0  0  0  0  0  0
  -31.8582  -14.8281   20.2343 O   0  0  0  0  0  0  0  0  0  0  0  0
  -21.4682   -7.1090   21.7920 O   0  0  0  0  0  0  0  0  0  0  0  0
  -30.1210  -24.5526   22.5773 O   0  0  0  0  0  0  0  0  0  1  0  0
  -28.6358  -17.3621   23.1837 O   0  0  0  0  0  0  0  0  0  0  0  0
  -23.7944   -3.0846   24.7581 F   0  0  0  0  0  0  0  0  0  0  0  0
  -20.3751   -6.3103   24.2024 F   0  0  0  0  0  0  0  0  0  0  0  0
  1  2  1  0  0  0  0
  1  5  2  0  0  0  0
  2  6  2  0  0  0  0
  3 10  2  0  0  0  0
  3 18  1  0  0  0  0
  4 11  1  0  0  0  0
  4 18  2  0  0  0  0
  5 20  1  0  0  0  0
  6 22  1  0  0  0  0
  7 12  2  0  0  0  0
  7 21  1  0  0  0  0
  8  9  2  0  0  0  0
  8 24  1  0  0  0  0
  9 25  1  0  0  0  0
 10 26  1  0  0  0  0
 11 26  2  0  0  0  0
 12 27  1  0  0  0  0
 13 14  2  0  0  0  0
 13 28  1  0  0  0  0
 14 30  1  0  0  0  0
 15 23  1  0  0  0  0
 15 27  2  0  0  0  0
 16 24  2  0  0  0  0
 16 29  1  0  0  0  0
 17 30  2  0  0  0  0
 17 31  1  0  0  0  0
 18 32  1  0  0  0  0
 19 32  1  0  0  0  0
 19 33  2  0  0  0  0
 19 34  1  0  0  0  0
 20 22  2  0  0  0  0
 20 40  1  0  0  0  0
 21 23  2  0  0  0  0
 21 41  1  0  0  0  0
 22 49  1  0  0  0  0
 23 42  1  0  0  0  0
 24 69  1  0  0  0  0
 25 29  2  0  0  0  0
 25 70  1  0  0  0  0
 26 80  1  0  0  0  0
 27 81  1  0  0  0  0
 28 31  2  0  0  0  0
 28 80  1  0  0  0  0
 29 82  1  0  0  0  0
 30 83  1  0  0  0  0
 31 84  1  0  0  0  0
 32 63  2  0  0  0  0
 33 64  1  0  0  0  0
 33 67  1  0  0  0  0
 34 68  1  0  0  0  0
 34 74  2  0  0  0  0
 35 50  1  0  0  0  0
 35 71  1  0  0  0  0
 35 75  2  0  0  0  0
 36 60  1  0  0  0  0
 36 65  1  0  0  0  0
 36 76  2  0  0  0  0
 37 58  1  0  0  0  0
 37 69  1  0  0  0  0
 37 77  2  0  0  0  0
 38 61  1  0  0  0  0
 38 72  1  0  0  0  0
 38 78  2  0  0  0  0
 39 66  1  0  0  0  0
 39 70  1  0  0  0  0
 39 79  2  0  0  0  0
 40 43  1  0  0  0  0
 41 50  1  0  0  0  0
 42 65  1  0  0  0  0
 43 45  1  0  0  0  0
 44 46  1  0  0  0  0
 44 47  1  0  0  0  0
 45 49  1  0  0  0  0
 46 51  1  0  0  0  0
 47 66  1  0  0  0  0
 48 51  1  0  0  0  0
 48 66  1  0  0  0  0
 49 71  1  0  0  0  0
 50 65  1  0  0  0  0
 51 64  1  0  0  0  0
 52 59  1  0  0  0  0
 53 61  1  0  0  0  0
 54 62  1  0  0  0  0
 55 62  1  0  0  0  0
 56 62  1  0  0  0  0
 57 73  1  0  0  0  0
 58 81  1  0  0  0  0
 59 82  1  0  0  0  0
 60 62  1  0  0  0  0
 60 72  1  0  0  0  0
 61 73  1  0  0  0  0
 63 64  1  0  0  0  0
M  CHG  1  73   1
M  ISO  4  39 100  58 101  70 100  81 101
M  END
> <Batch ID>
0010

> <Smiles>
CCOc1cc(NC(=O)[101CH2:1][101O:1]c2ccc3c(c2)CN(C(=O)C(NC(=O)C(C)NC)C(C)(C)C)C(C(=O)NC2CCCc4ccccc42)C3)ccc1[100NH:0][100C:0](=O)N1CCCC(n2nc(-c3ccc(Oc4ccc(F)cc4F)cc3)c(C(N)=O)c2N)C1

> <Shape>
0.308

> <Color>
0.194

> <Negative vol penalty>
0.000

$$$$

  -OEChem-04052315413D

 81 89  0     1  0  0  0  0  0999 V2000
  -17.7155  -33.3419   18.0836 C   0  0  0  0  0  0  0  0  0  0  0  0
  -18.9138  -32.9824   17.4751 C   0  0  0  0  0  0  0  0  0  0  0  0
  -24.8012  -10.2786   22.6259 C   0  0  0  0  0  0  0  0  0  0  0  0
  -24.4888  -11.7693   24.5013 C   0  0  0  0  0  0  0  0  0  0  0  0
  -17.7254  -33.9232   19.3508 C   0  0  0  0  0  0  0  0  0  0  0  0
  -20.1229  -33.2051   18.1332 C   0  0  0  0  0  0  0  0  0  0  0  0
  -24.6112  -27.7615   19.5870 C   0  0  0  0  0  0  0  0  0  0  0  0
  -29.5131  -20.7821   21.9189 C   0  0  0  0  0  0  0  0  0  0  0  0
  -24.3855   -9.2034   23.4112 C   0  0  0  0  0  0  0  0  0  0  0  0
  -24.0729  -10.6941   25.2866 C   0  0  0  0  0  0  0  0  0  0  0  0
  -25.6185  -26.8047   19.7133 C   0  0  0  0  0  0  0  0  0  0  0  0
  -29.3851  -22.1504   22.1577 C   0  0  0  0  0  0  0  0  0  0  0  0
  -21.4645   -7.9153   24.5255 C   0  0  0  0  0  0  0  0  0  0  0  0
  -20.5567   -7.0164   23.9656 C   0  0  0  0  0  0  0  0  0  0  0  0
  -27.0248  -28.4182   20.8389 C   0  0  0  0  0  0  0  0  0  0  0  0
  -27.1423  -20.6374   21.4769 C   0  0  0  0  0  0  0  0  0  0  0  0
  -22.1505   -5.2245   24.2582 C   0  0  0  0  0  0  0  0  0  0  0  0
  -24.8529  -11.5615   23.1710 C   0  0  0  0  0  0  0  0  0  0  0  0
  -24.4755  -13.5061   21.5635 C   0  0  0  0  0  0  0  0  0  0  0  0
  -18.9346  -34.1443   20.0288 C   0  0  0  0  0  0  0  0  0  0  0  0
  -24.8012  -29.0475   20.1004 C   0  0  0  0  0  0  0  0  0  0  0  0
  -20.1490  -33.7912   19.4101 C   0  0  0  0  0  0  0  0  0  0  0  0
  -26.0146  -29.3772   20.7264 C   0  0  0  0  0  0  0  0  0  0  0  0
  -28.3917  -20.0256   21.5784 C   0  0  0  0  0  0  0  0  0  0  0  0
  -24.0213   -9.4111   24.7416 C   0  0  0  0  0  0  0  0  0  0  0  0
  -26.8224  -27.1323   20.3375 C   0  0  0  0  0  0  0  0  0  0  0  0
  -22.7154   -7.4688   24.9517 C   0  0  0  0  0  0  0  0  0  0  0  0
  -28.1357  -22.7621   22.0562 C   0  0  0  0  0  0  0  0  0  0  0  0
  -20.8997   -5.6710   23.8320 C   0  0  0  0  0  0  0  0  0  0  0  0
  -27.0143  -22.0057   21.7158 C   0  0  0  0  0  0  0  0  0  0  0  0
  -23.0584   -6.1234   24.8181 C   0  0  0  0  0  0  0  0  0  0  0  0
  -25.2829  -12.6725   22.3604 C   0  0  0  0  0  0  0  0  0  0  0  0
  -25.3542  -14.3993   21.0010 C   0  0  0  0  0  0  0  0  0  0  0  0
  -23.0579  -13.4758   21.3509 C   0  0  0  0  0  0  0  0  0  0  0  0
  -23.3724  -32.4735   20.6455 C   0  0  0  0  0  0  0  0  0  0  0  0
  -24.8881  -31.7227   23.2046 C   0  0  0  0  0  0  0  0  0  0  0  0
  -26.3005  -30.3471   25.9886 C   0  0  0  0  0  0  0  0  0  0  0  0
  -29.6878  -17.8733   21.3941 C   0  0  0  0  0  0  0  0  0  0  0  0
  -18.8980  -34.8190   21.3772 C   0  0  0  0  0  0  0  0  0  0  0  0
  -23.7676  -30.1278   19.9324 C   0  0  0  0  0  0  0  0  0  0  0  0
  -26.1880  -30.7830   21.2329 C   0  0  0  0  0  0  0  0  0  0  0  0
  -20.1981  -34.6777   22.1645 C   0  0  0  0  0  0  0  0  0  0  0  0
  -30.4150  -14.4228   20.9013 C   0  0  0  0  0  0  0  0  0  0  0  0
  -21.3979  -34.9814   21.2727 C   0  0  0  0  0  0  0  0  0  0  0  0
  -29.0782  -13.7284   21.1714 C   0  0  0  0  0  0  0  0  0  0  0  0
  -30.6319  -15.6163   21.8299 C   0  0  0  0  0  0  0  0  0  0  0  0
  -28.2019  -15.9022   22.1169 C   0  0  0  0  0  0  0  0  0  0  0  0
  -21.4794  -33.9940   20.1023 C   0  0  1  0  0  0  0  0  0  0  0  0
  -23.7025  -31.0923   21.1301 C   0  0  1  0  0  0  0  0  0  0  0  0
  -27.9093  -14.7331   21.1623 C   0  0  2  0  0  0  0  0  0  0  0  0
  -26.8460  -30.8668   28.3823 C   0  0  0  0  0  0  0  0  0  0  0  0
  -27.2368  -33.4417   22.2923 C   0  0  0  0  0  0  0  0  0  0  0  0
  -28.2509  -33.1347   24.5607 C   0  0  0  0  0  0  0  0  0  0  0  0
  -26.0517  -34.2882   24.3254 C   0  0  0  0  0  0  0  0  0  0  0  0
  -24.5818  -28.1504   26.9783 C   0  0  0  0  0  0  0  0  0  0  0  0
  -28.6649  -26.3010   21.5911 C   0  0  0  0  0  0  0  0  0  1  0  0
  -29.1408  -24.9163   21.9857 C   0  0  0  0  0  0  0  0  0  0  0  0
  -26.1840  -31.7882   23.9726 C   0  0  1  0  0  0  0  0  0  0  0  0
  -25.8232  -30.2708   27.4276 C   0  0  2  0  0  0  0  0  0  0  0  0
  -26.9242  -33.1407   23.7717 C   0  0  0  0  0  0  0  0  0  0  0  0
  -26.5752  -13.0063   22.3111 N   0  0  0  0  0  0  0  0  0  0  0  0
  -26.5866  -14.0595   21.4764 N   0  0  0  0  0  0  0  0  0  0  0  0
  -24.9536  -31.2347   21.8939 N   0  0  0  0  0  0  0  0  0  0  0  0
  -29.4868  -16.5270   21.7655 N   0  0  0  0  0  0  0  0  0  0  0  0
  -25.1853  -15.4344   20.1511 N   0  0  0  0  0  0  0  0  0  0  0  0
  -22.3048  -12.4921   22.0063 N   0  0  0  0  0  0  0  0  0  0  0  0
  -28.5216  -18.6356   21.3358 N   0  0  0  0  0  0  0  0  0  0  0  0
  -22.0175  -32.7263   20.5470 N   0  0  0  0  0  0  0  0  0  0  0  0
  -25.8510  -31.4898   25.3613 N   0  0  0  0  0  0  0  0  0  0  0  0
  -25.5846  -28.8529   27.8197 N   0  3  0  0  0  0  0  0  0  0  0  0
  -22.4784  -14.2864   20.5889 O   0  0  0  0  0  0  0  0  0  0  0  0
  -24.2795  -33.2539   20.3813 O   0  0  0  0  0  0  0  0  0  0  0  0
  -23.8455  -32.0986   23.7477 O   0  0  0  0  0  0  0  0  0  0  0  0
  -27.0049  -29.4816   25.4736 O   0  0  0  0  0  0  0  0  0  0  0  0
  -30.8084  -18.3104   21.1197 O   0  0  0  0  0  0  0  0  0  0  0  0
  -23.6153   -8.3622   25.5081 O   0  0  0  0  0  0  0  0  0  0  0  0
  -27.7998  -26.1921   20.4615 O   0  0  0  0  0  0  0  0  0  1  0  0
  -28.0119  -24.1064   22.2905 O   0  0  0  0  0  0  0  0  0  0  0  0
  -20.0272   -4.8077   23.2957 F   0  0  0  0  0  0  0  0  0  0  0  0
  -25.8115  -22.5881   21.6156 F   0  0  0  0  0  0  0  0  0  0  0  0
  -24.2582   -5.6883   25.2268 F   0  0  0  0  0  0  0  0  0  0  0  0
  1  2  1  0  0  0  0
  1  5  2  0  0  0  0
  2  6  2  0  0  0  0
  3  9  2  0  0  0  0
  3 18  1  0  0  0  0
  4 10  1  0  0  0  0
  4 18  2  0  0  0  0
  5 20  1  0  0  0  0
  6 22  1  0  0  0  0
  7 11  2  0  0  0  0
  7 21  1  0  0  0  0
  8 12  2  0  0  0  0
  8 24  1  0  0  0  0
  9 25  1  0  0  0  0
 10 25  2  0  0  0  0
 11 26  1  0  0  0  0
 12 28  1  0  0  0  0
 13 14  2  0  0  0  0
 13 27  1  0  0  0  0
 14 29  1  0  0  0  0
 15 23  1  0  0  0  0
 15 26  2  0  0  0  0
 16 24  2  0  0  0  0
 16 30  1  0  0  0  0
 17 29  2  0  0  0  0
 17 31  1  0  0  0  0
 18 32  1  0  0  0  0
 19 32  1  0  0  0  0
 19 33  2  0  0  0  0
 19 34  1  0  0  0  0
 20 22  2  0  0  0  0
 20 39  1  0  0  0  0
 21 23  2  0  0  0  0
 21 40  1  0  0  0  0
 22 48  1  0  0  0  0
 23 41  1  0  0  0  0
 24 67  1  0  0  0  0
 25 76  1  0  0  0  0
 26 77  1  0  0  0  0
 27 31  2  0  0  0  0
 27 76  1  0  0  0  0
 28 30  2  0  0  0  0
 28 78  1  0  0  0  0
 29 79  1  0  0  0  0
 30 80  1  0  0  0  0
 31 81  1  0  0  0  0
 32 61  2  0  0  0  0
 33 62  1  0  0  0  0
 33 65  1  0  0  0  0
 34 66  1  0  0  0  0
 34 71  2  0  0  0  0
 35 49  1  0  0  0  0
 35 68  1  0  0  0  0
 35 72  2  0  0  0  0
 36 58  1  0  0  0  0
 36 63  1  0  0  0  0
 36 73  2  0  0  0  0
 37 59  1  0  0  0  0
 37 69  1  0  0  0  0
 37 74  2  0  0  0  0
 38 64  1  0  0  0  0
 38 67  1  0  0  0  0
 38 75  2  0  0  0  0
 39 42  1  0  0  0  0
 40 49  1  0  0  0  0
 41 63  1  0  0  0  0
 42 44  1  0  0  0  0
 43 45  1  0  0  0  0
 43 46  1  0  0  0  0
 44 48  1  0  0  0  0
 45 50  1  0  0  0  0
 46 64  1  0  0  0  0
 47 50  1  0  0  0  0
 47 64  1  0  0  0  0
 48 68  1  0  0  0  0
 49 63  1  0  0  0  0
 50 62  1  0  0  0  0
 51 59  1  0  0  0  0
 52 60  1  0  0  0  0
 53 60  1  0  0  0  0
 54 60  1  0  0  0  0
 55 70  1  0  0  0  0
 56 57  1  0  0  0  0
 56 77  1  0  0  0  0
 57 78  1  0  0  0  0
 58 60  1  0  0  0  0
 58 69  1  0  0  0  0
 59 70  1  0  0  0  0
 61 62  1  0  0  0  0
M  CHG  1  70   1
M  ISO  4  38 100  56 101  67 100  77 101
M  END
> <Batch ID>
0010

> <Smiles>
CNC(C)C(=O)NC(C(=O)N1Cc2cc([101O:1][101CH2:1]COc3ccc([100NH:0][100C:0](=O)N4CCCC(n5nc(-c6ccc(Oc7ccc(F)cc7F)cc6)c(C(N)=O)c5N)C4)cc3F)ccc2CC1C(=O)NC1CCCc2ccccc21)C(C)(C)C

> <Shape>
0.265

> <Color>
0.145

> <Negative vol penalty>
0.000

$$$$

  -OEChem-04052315413D

 81 89  0     1  0  0  0  0  0999 V2000
  -24.5738  -32.0556   29.0851 C   0  0  0  0  0  0  0  0  0  0  0  0
  -25.3302  -31.2090   28.2810 C   0  0  0  0  0  0  0  0  0  0  0  0
  -24.5838   -8.9930   21.5609 C   0  0  0  0  0  0  0  0  0  0  0  0
  -23.9301  -10.7076   23.1324 C   0  0  0  0  0  0  0  0  0  0  0  0
  -23.2505  -32.3371   28.7479 C   0  0  0  0  0  0  0  0  0  0  0  0
  -24.7634  -30.6426   27.1398 C   0  0  0  0  0  0  0  0  0  0  0  0
  -27.5845  -29.4338   21.8402 C   0  0  0  0  0  0  0  0  0  0  0  0
  -26.0332  -20.6131   19.0839 C   0  0  0  0  0  0  0  0  0  0  0  0
  -28.3128  -21.0359   19.7633 C   0  0  0  0  0  0  0  0  0  0  0  0
  -26.2893  -19.2420   19.0780 C   0  0  0  0  0  0  0  0  0  0  0  0
  -28.5689  -19.6648   19.7575 C   0  0  0  0  0  0  0  0  0  0  0  0
  -24.1521   -8.0111   22.4525 C   0  0  0  0  0  0  0  0  0  0  0  0
  -23.4983   -9.7257   24.0241 C   0  0  0  0  0  0  0  0  0  0  0  0
  -28.1273  -28.2632   21.3122 C   0  0  0  0  0  0  0  0  0  0  0  0
  -22.8900   -5.0635   24.1653 C   0  0  0  0  0  0  0  0  0  0  0  0
  -22.1309   -4.0112   23.6535 C   0  0  0  0  0  0  0  0  0  0  0  0
  -26.0782  -27.8657   20.1028 C   0  0  0  0  0  0  0  0  0  0  0  0
  -20.4569   -5.5836   22.9034 C   0  0  0  0  0  0  0  0  0  0  0  0
  -24.4729  -10.3413   21.9008 C   0  0  0  0  0  0  0  0  0  0  0  0
  -24.1598  -11.9867   19.9767 C   0  0  0  0  0  0  0  0  0  0  0  0
  -22.6702  -31.7815   27.5968 C   0  0  0  0  0  0  0  0  0  0  0  0
  -26.2784  -29.8242   21.5115 C   0  0  0  0  0  0  0  0  0  0  0  0
  -23.4307  -30.9159   26.7877 C   0  0  0  0  0  0  0  0  0  0  0  0
  -25.5221  -29.0431   20.6259 C   0  0  0  0  0  0  0  0  0  0  0  0
  -27.0450  -21.5101   19.4265 C   0  0  0  0  0  0  0  0  0  0  0  0
  -27.5571  -18.7678   19.4148 C   0  0  0  0  0  0  0  0  0  0  0  0
  -23.6093   -8.3774   23.6841 C   0  0  0  0  0  0  0  0  0  0  0  0
  -27.3731  -27.4774   20.4456 C   0  0  0  0  0  0  0  0  0  0  0  0
  -22.4325   -6.3759   24.0463 C   0  0  0  0  0  0  0  0  0  0  0  0
  -20.9144   -4.2712   23.0225 C   0  0  0  0  0  0  0  0  0  0  0  0
  -21.2160   -6.6359   23.4154 C   0  0  0  0  0  0  0  0  0  0  0  0
  -24.9192  -11.3560   20.9804 C   0  0  0  0  0  0  0  0  0  0  0  0
  -25.0349  -12.8643   19.3845 C   0  0  0  0  0  0  0  0  0  0  0  0
  -22.7863  -11.7963   19.6123 C   0  0  0  0  0  0  0  0  0  0  0  0
  -23.5940  -30.2814   23.1513 C   0  0  0  0  0  0  0  0  0  0  0  0
  -22.4912  -31.3523   20.2948 C   0  0  0  0  0  0  0  0  0  0  0  0
  -27.6711  -23.9268   19.7453 C   0  0  0  0  0  0  0  0  0  0  0  0
  -22.7599  -31.3303   16.8927 C   0  0  0  0  0  0  0  0  0  0  0  0
  -29.0196  -16.7391   19.7174 C   0  0  0  0  0  0  0  0  0  0  0  0
  -21.2216  -32.0776   27.2989 C   0  0  0  0  0  0  0  0  0  0  0  0
  -25.7170  -31.1037   22.0684 C   0  0  0  0  0  0  0  0  0  0  0  0
  -24.1224  -29.4288   20.2255 C   0  0  0  0  0  0  0  0  0  0  0  0
  -20.8113  -31.7344   25.8692 C   0  0  0  0  0  0  0  0  0  0  0  0
  -30.0527  -13.3346   19.8560 C   0  0  0  0  0  0  0  0  0  0  0  0
  -21.3270  -30.3517   25.4832 C   0  0  0  0  0  0  0  0  0  0  0  0
  -28.7467  -12.5682   20.0783 C   0  0  0  0  0  0  0  0  0  0  0  0
  -30.0634  -14.6660   20.6050 C   0  0  0  0  0  0  0  0  0  0  0  0
  -27.6023  -14.7679   20.5667 C   0  0  0  0  0  0  0  0  0  0  0  0
  -22.8590  -30.3018   25.5283 C   0  0  1  0  0  0  0  0  0  0  0  0
  -24.1918  -31.1363   22.0699 C   0  0  1  0  0  0  0  0  0  0  0  0
  -27.5182  -13.4498   19.7799 C   0  0  2  0  0  0  0  0  0  0  0  0
  -21.6939  -32.2743   14.8264 C   0  0  0  0  0  0  0  0  0  0  0  0
  -20.1808  -29.3813   20.5893 C   0  0  0  0  0  0  0  0  0  0  0  0
  -19.7107  -29.6750   18.1478 C   0  0  0  0  0  0  0  0  0  0  0  0
  -19.5309  -31.6242   19.6941 C   0  0  0  0  0  0  0  0  0  0  0  0
  -25.2535  -32.7114   16.0967 C   0  0  0  0  0  0  0  0  0  0  0  0
  -26.9897  -25.2775   19.6276 C   0  0  0  0  0  0  0  0  0  1  0  0
  -21.8158  -30.7173   19.1034 C   0  0  1  0  0  0  0  0  0  0  0  0
  -22.7785  -32.4579   15.8765 C   0  0  2  0  0  0  0  0  0  0  0  0
  -20.3352  -30.3409   19.3925 C   0  0  0  0  0  0  0  0  0  0  0  0
  -26.1797  -11.7955   21.0261 N   0  0  0  0  0  0  0  0  0  0  0  0
  -26.2191  -12.7116   20.0437 N   0  0  0  0  0  0  0  0  0  0  0  0
  -23.6156  -30.6853   20.8015 N   0  0  0  0  0  0  0  0  0  0  0  0
  -28.8721  -15.4491   20.2696 N   0  0  0  0  0  0  0  0  0  0  0  0
  -24.8991  -13.7439   18.3695 N   0  0  0  0  0  0  0  0  0  0  0  0
  -22.0305  -10.8547   20.3240 N   0  0  0  0  0  0  0  0  0  0  0  0
  -26.7856  -22.9012   19.4322 N   0  0  0  0  0  0  0  0  0  0  0  0
  -27.8175  -17.3750   19.4089 N   0  0  0  0  0  0  0  0  0  0  0  0
  -23.4201  -30.9370   24.3552 N   0  0  0  0  0  0  0  0  0  0  0  0
  -21.9901  -31.6463   17.9922 N   0  0  0  0  0  0  0  0  0  0  0  0
  -24.0977  -32.5106   15.1853 N   0  3  0  0  0  0  0  0  0  0  0  0
  -22.2497  -12.4303   18.6723 O   0  0  0  0  0  0  0  0  0  0  0  0
  -23.3101  -29.1138   22.9107 O   0  0  0  0  0  0  0  0  0  0  0  0
  -22.0422  -32.4053   20.7544 O   0  0  0  0  0  0  0  0  0  0  0  0
  -28.8478  -23.8276   20.0773 O   0  0  0  0  0  0  0  0  0  0  0  0
  -23.3647  -30.2734   16.7261 O   0  0  0  0  0  0  0  0  0  0  0  0
  -30.1309  -17.2316   19.5066 O   0  0  0  0  0  0  0  0  0  0  0  0
  -23.1877   -7.4196   24.5544 O   0  0  0  0  0  0  0  0  0  0  0  0
  -27.9002  -26.3340   19.9294 O   0  0  0  0  0  0  0  0  0  1  0  0
  -20.1862   -3.2608   22.5296 F   0  0  0  0  0  0  0  0  0  0  0  0
  -20.7719   -7.8947   23.2970 F   0  0  0  0  0  0  0  0  0  0  0  0
  1  2  1  0  0  0  0
  1  5  2  0  0  0  0
  2  6  2  0  0  0  0
  3 12  2  0  0  0  0
  3 19  1  0  0  0  0
  4 13  1  0  0  0  0
  4 19  2  0  0  0  0
  5 21  1  0  0  0  0
  6 23  1  0  0  0  0
  7 14  2  0  0  0  0
  7 22  1  0  0  0  0
  8 10  2  0  0  0  0
  8 25  1  0  0  0  0
  9 11  1  0  0  0  0
  9 25  2  0  0  0  0
 10 26  1  0  0  0  0
 11 26  2  0  0  0  0
 12 27  1  0  0  0  0
 13 27  2  0  0  0  0
 14 28  1  0  0  0  0
 15 16  2  0  0  0  0
 15 29  1  0  0  0  0
 16 30  1  0  0  0  0
 17 24  1  0  0  0  0
 17 28  2  0  0  0  0
 18 30  2  0  0  0  0
 18 31  1  0  0  0  0
 19 32  1  0  0  0  0
 20 32  1  0  0  0  0
 20 33  2  0  0  0  0
 20 34  1  0  0  0  0
 21 23  2  0  0  0  0
 21 40  1  0  0  0  0
 22 24  2  0  0  0  0
 22 41  1  0  0  0  0
 23 49  1  0  0  0  0
 24 42  1  0  0  0  0
 25 67  1  0  0  0  0
 26 68  1  0  0  0  0
 27 78  1  0  0  0  0
 28 79  1  0  0  0  0
 29 31  2  0  0  0  0
 29 78  1  0  0  0  0
 30 80  1  0  0  0  0
 31 81  1  0  0  0  0
 32 61  2  0  0  0  0
 33 62  1  0  0  0  0
 33 65  1  0  0  0  0
 34 66  1  0  0  0  0
 34 72  2  0  0  0  0
 35 50  1  0  0  0  0
 35 69  1  0  0  0  0
 35 73  2  0  0  0  0
 36 58  1  0  0  0  0
 36 63  1  0  0  0  0
 36 74  2  0  0  0  0
 37 57  1  0  0  0  0
 37 67  1  0  0  0  0
 37 75  2  0  0  0  0
 38 59  1  0  0  0  0
 38 70  1  0  0  0  0
 38 76  2  0  0  0  0
 39 64  1  0  0  0  0
 39 68  1  0  0  0  0
 39 77  2  0  0  0  0
 40 43  1  0  0  0  0
 41 50  1  0  0  0  0
 42 63  1  0  0  0  0
 43 45  1  0  0  0  0
 44 46  1  0  0  0  0
 44 47  1  0  0  0  0
 45 49  1  0  0  0  0
 46 51  1  0  0  0  0
 47 64  1  0  0  0  0
 48 51  1  0  0  0  0
 48 64  1  0  0  0  0
 49 69  1  0  0  0  0
 50 63  1  0  0  0  0
 51 62  1  0  0  0  0
 52 59  1  0  0  0  0
 53 60  1  0  0  0  0
 54 60  1  0  0  0  0
 55 60  1  0  0  0  0
 56 71  1  0  0  0  0
 57 79  1  0  0  0  0
 58 60  1  0  0  0  0
 58 70  1  0  0  0  0
 59 71  1  0  0  0  0
 61 62  1  0  0  0  0
M  CHG  1  71   1
M  ISO  4  39 100  57 101  68 100  79 101
M  END
> <Batch ID>
0010

> <Smiles>
CNC(C)C(=O)NC(C(=O)N1Cc2cc([101O:1][101CH2:1]C(=O)Nc3ccc([100NH:0][100C:0](=O)N4CCCC(n5nc(-c6ccc(Oc7ccc(F)cc7F)cc6)c(C(N)=O)c5N)C4)cc3)ccc2CC1C(=O)NC1CCCc2ccccc21)C(C)(C)C

> <Shape>
0.258

> <Color>
0.118

> <Negative vol penalty>
0.000

$$$$

  -OEChem-04052315413D

 84 92  0     1  0  0  0  0  0999 V2000
  -34.0757  -35.0491   22.0077 C   0  0  0  0  0  0  0  0  0  0  0  0
  -34.0606  -33.6597   22.0766 C   0  0  0  0  0  0  0  0  0  0  0  0
  -23.0675   -9.8868   19.9316 C   0  0  0  0  0  0  0  0  0  0  0  0
  -23.8475   -9.8589   22.2180 C   0  0  0  0  0  0  0  0  0  0  0  0
  -33.0137  -35.7836   22.5339 C   0  0  0  0  0  0  0  0  0  0  0  0
  -32.9839  -33.0039   22.6726 C   0  0  0  0  0  0  0  0  0  0  0  0
  -30.5936  -27.6093   21.0323 C   0  0  0  0  0  0  0  0  0  0  0  0
  -22.3251   -8.7304   20.1707 C   0  0  0  0  0  0  0  0  0  0  0  0
  -23.1051   -8.7025   22.4572 C   0  0  0  0  0  0  0  0  0  0  0  0
  -30.7652  -26.3177   21.5283 C   0  0  0  0  0  0  0  0  0  0  0  0
  -19.8819   -7.8972   23.0760 C   0  0  0  0  0  0  0  0  0  0  0  0
  -19.1353   -7.8400   24.2528 C   0  0  0  0  0  0  0  0  0  0  0  0
  -28.7834  -26.5796   22.8787 C   0  0  0  0  0  0  0  0  0  0  0  0
  -29.7238  -19.2615   22.4323 C   0  0  0  0  0  0  0  0  0  0  0  0
  -31.1563  -17.6876   20.6285 C   0  0  0  0  0  0  0  0  0  0  0  0
  -20.3820   -5.8911   24.9490 C   0  0  0  0  0  0  0  0  0  0  0  0
  -23.8287  -10.4510   20.9552 C   0  0  0  0  0  0  0  0  0  0  0  0
  -24.1710  -12.9776   20.8702 C   0  0  0  0  0  0  0  0  0  0  0  0
  -31.9190  -35.1361   23.1280 C   0  0  0  0  0  0  0  0  0  0  0  0
  -29.5201  -28.4011   21.4648 C   0  0  0  0  0  0  0  0  0  0  0  0
  -31.9070  -33.7305   23.2083 C   0  0  0  0  0  0  0  0  0  0  0  0
  -28.5991  -27.8800   22.3847 C   0  0  0  0  0  0  0  0  0  0  0  0
  -30.6196  -19.8577   21.5448 C   0  0  0  0  0  0  0  0  0  0  0  0
  -30.2605  -17.0913   21.5160 C   0  0  0  0  0  0  0  0  0  0  0  0
  -22.3439   -8.1382   21.4335 C   0  0  0  0  0  0  0  0  0  0  0  0
  -29.8616  -25.8037   22.4538 C   0  0  0  0  0  0  0  0  0  0  0  0
  -20.8785   -6.9513   22.8357 C   0  0  0  0  0  0  0  0  0  0  0  0
  -29.5443  -17.8782   22.4179 C   0  0  0  0  0  0  0  0  0  0  0  0
  -19.3853   -6.8370   25.1893 C   0  0  0  0  0  0  0  0  0  0  0  0
  -31.3358  -19.0708   20.6429 C   0  0  0  0  0  0  0  0  0  0  0  0
  -21.1286   -5.9483   23.7722 C   0  0  0  0  0  0  0  0  0  0  0  0
  -24.5963  -11.6453   20.7087 C   0  0  0  0  0  0  0  0  0  0  0  0
  -25.2604  -13.7319   20.5086 C   0  0  0  0  0  0  0  0  0  0  0  0
  -22.9046  -13.4876   21.3080 C   0  0  0  0  0  0  0  0  0  0  0  0
  -29.2516  -31.1692   23.0040 C   0  0  0  0  0  0  0  0  0  0  0  0
  -26.0959  -30.7718   22.3665 C   0  0  0  0  0  0  0  0  0  0  0  0
  -30.1741  -22.1864   22.3890 C   0  0  0  0  0  0  0  0  0  0  0  0
  -23.5295  -28.6361   21.6600 C   0  0  0  0  0  0  0  0  0  0  0  0
  -30.7286  -14.7721   20.6509 C   0  0  0  0  0  0  0  0  0  0  0  0
  -30.8165  -35.9743   23.7251 C   0  0  0  0  0  0  0  0  0  0  0  0
  -29.3339  -29.7827   20.9000 C   0  0  0  0  0  0  0  0  0  0  0  0
  -27.4184  -28.6819   22.8657 C   0  0  0  0  0  0  0  0  0  0  0  0
  -29.5378  -35.1889   24.0050 C   0  0  0  0  0  0  0  0  0  0  0  0
  -29.5919  -12.3948   18.2564 C   0  0  0  0  0  0  0  0  0  0  0  0
  -29.8619  -33.8734   24.7060 C   0  0  0  0  0  0  0  0  0  0  0  0
  -28.1559  -12.0974   18.6943 C   0  0  0  0  0  0  0  0  0  0  0  0
  -30.5177  -12.6050   19.4533 C   0  0  0  0  0  0  0  0  0  0  0  0
  -28.6234  -13.3095   20.8620 C   0  0  0  0  0  0  0  0  0  0  0  0
  -30.7453  -32.9819   23.8249 C   0  0  1  0  0  0  0  0  0  0  0  0
  -28.4958  -30.6874   21.7980 C   0  0  1  0  0  0  0  0  0  0  0  0
  -27.6401  -13.1545   19.6904 C   0  0  2  0  0  0  0  0  0  0  0  0
  -21.0575  -28.6014   21.2295 C   0  0  0  0  0  0  0  0  0  0  0  0
  -25.5737  -31.1524   25.3485 C   0  0  0  0  0  0  0  0  0  0  0  0
  -23.2920  -30.1820   25.0018 C   0  0  0  0  0  0  0  0  0  0  0  0
  -23.9340  -32.2983   23.8477 C   0  0  0  0  0  0  0  0  0  0  0  0
  -23.9008  -27.5209   18.9439 C   0  0  0  0  0  0  0  0  0  0  0  0
  -27.3138  -17.1785   22.8552 C   0  0  0  0  0  0  0  0  0  0  0  0
  -30.6536  -23.5925   22.0800 C   0  0  0  0  0  0  0  0  0  1  0  0
  -24.9374  -30.1107   23.0734 C   0  0  1  0  0  0  0  0  0  0  0  0
  -22.4408  -28.6844   20.6032 C   0  0  2  0  0  0  0  0  0  0  0  0
  -24.4575  -30.9212   24.3104 C   0  0  0  0  0  0  0  0  0  0  0  0
  -25.8573  -11.5552   20.2778 N   0  0  0  0  0  0  0  0  0  0  0  0
  -26.2339  -12.8403   20.1655 N   0  0  0  0  0  0  0  0  0  0  0  0
  -27.2830  -30.0297   22.2889 N   0  0  0  0  0  0  0  0  0  0  0  0
  -29.9671  -13.6228   20.3510 N   0  0  0  0  0  0  0  0  0  0  0  0
  -25.4710  -15.0642   20.4538 N   0  0  0  0  0  0  0  0  0  0  0  0
  -21.8951  -12.5740   21.6405 N   0  0  0  0  0  0  0  0  0  0  0  0
  -30.8010  -21.2610   21.5615 N   0  0  0  0  0  0  0  0  0  0  0  0
  -30.0890  -15.6850   21.4888 N   0  0  0  0  0  0  0  0  0  0  0  0
  -29.9521  -32.3423   22.7972 N   0  0  0  0  0  0  0  0  0  0  0  0
  -23.9082  -29.8998   22.0612 N   0  0  0  0  0  0  0  0  0  0  0  0
  -22.5939  -27.5494   19.6496 N   0  3  0  0  0  0  0  0  0  0  0  0
  -22.6696  -14.7173   21.3859 O   0  0  0  0  0  0  0  0  0  0  0  0
  -29.2016  -30.5253   24.0454 O   0  0  0  0  0  0  0  0  0  0  0  0
  -25.9507  -31.9020   21.8941 O   0  0  0  0  0  0  0  0  0  0  0  0
  -29.3429  -21.9689   23.2645 O   0  0  0  0  0  0  0  0  0  0  0  0
  -23.9946  -27.5827   22.0895 O   0  0  0  0  0  0  0  0  0  0  0  0
  -31.8536  -14.9473   20.1759 O   0  0  0  0  0  0  0  0  0  0  0  0
  -21.6195   -7.0099   21.6672 O   0  0  0  0  0  0  0  0  0  0  0  0
  -28.6638  -17.3155   23.2932 O   0  0  0  0  0  0  0  0  0  0  0  0
  -30.0271  -24.5435   22.9400 O   0  0  0  0  0  0  0  0  0  1  0  0
  -18.6693   -6.7831   26.3201 F   0  0  0  0  0  0  0  0  0  0  0  0
  -32.2010  -19.6330   19.7868 F   0  0  0  0  0  0  0  0  0  0  0  0
  -22.0855   -5.0375   23.5474 F   0  0  0  0  0  0  0  0  0  0  0  0
  1  2  1  0  0  0  0
  1  5  2  0  0  0  0
  2  6  2  0  0  0  0
  3  8  2  0  0  0  0
  3 17  1  0  0  0  0
  4  9  1  0  0  0  0
  4 17  2  0  0  0  0
  5 19  1  0  0  0  0
  6 21  1  0  0  0  0
  7 10  2  0  0  0  0
  7 20  1  0  0  0  0
  8 25  1  0  0  0  0
  9 25  2  0  0  0  0
 10 26  1  0  0  0  0
 11 12  2  0  0  0  0
 11 27  1  0  0  0  0
 12 29  1  0  0  0  0
 13 22  1  0  0  0  0
 13 26  2  0  0  0  0
 14 23  1  0  0  0  0
 14 28  2  0  0  0  0
 15 24  2  0  0  0  0
 15 30  1  0  0  0  0
 16 29  2  0  0  0  0
 16 31  1  0  0  0  0
 17 32  1  0  0  0  0
 18 32  1  0  0  0  0
 18 33  2  0  0  0  0
 18 34  1  0  0  0  0
 19 21  2  0  0  0  0
 19 40  1  0  0  0  0
 20 22  2  0  0  0  0
 20 41  1  0  0  0  0
 21 49  1  0  0  0  0
 22 42  1  0  0  0  0
 23 30  2  0  0  0  0
 23 68  1  0  0  0  0
 24 28  1  0  0  0  0
 24 69  1  0  0  0  0
 25 79  1  0  0  0  0
 26 81  1  0  0  0  0
 27 31  2  0  0  0  0
 27 79  1  0  0  0  0
 28 80  1  0  0  0  0
 29 82  1  0  0  0  0
 30 83  1  0  0  0  0
 31 84  1  0  0  0  0
 32 62  2  0  0  0  0
 33 63  1  0  0  0  0
 33 66  1  0  0  0  0
 34 67  1  0  0  0  0
 34 73  2  0  0  0  0
 35 50  1  0  0  0  0
 35 70  1  0  0  0  0
 35 74  2  0  0  0  0
 36 59  1  0  0  0  0
 36 64  1  0  0  0  0
 36 75  2  0  0  0  0
 37 58  1  0  0  0  0
 37 68  1  0  0  0  0
 37 76  2  0  0  0  0
 38 60  1  0  0  0  0
 38 71  1  0  0  0  0
 38 77  2  0  0  0  0
 39 65  1  0  0  0  0
 39 69  1  0  0  0  0
 39 78  2  0  0  0  0
 40 43  1  0  0  0  0
 41 50  1  0  0  0  0
 42 64  1  0  0  0  0
 43 45  1  0  0  0  0
 44 46  1  0  0  0  0
 44 47  1  0  0  0  0
 45 49  1  0  0  0  0
 46 51  1  0  0  0  0
 47 65  1  0  0  0  0
 48 51  1  0  0  0  0
 48 65  1  0  0  0  0
 49 70  1  0  0  0  0
 50 64  1  0  0  0  0
 51 63  1  0  0  0  0
 52 60  1  0  0  0  0
 53 61  1  0  0  0  0
 54 61  1  0  0  0  0
 55 61  1  0  0  0  0
 56 72  1  0  0  0  0
 57 80  1  0  0  0  0
 58 81  1  0  0  0  0
 59 61  1  0  0  0  0
 59 71  1  0  0  0  0
 60 72  1  0  0  0  0
 62 63  1  0  0  0  0
M  CHG  1  72   1
M  ISO  4  39 100  58 101  69 100  81 101
M  END
> <Batch ID>
0010

> <Smiles>
CNC(C)C(=O)NC(C(=O)N1Cc2cc([101O:1][101CH2:1]C(=O)Nc3cc(OC)c([100NH:0][100C:0](=O)N4CCCC(n5nc(-c6ccc(Oc7ccc(F)cc7F)cc6)c(C(N)=O)c5N)C4)cc3F)ccc2CC1C(=O)NC1CCCc2ccccc21)C(C)(C)C

> <Shape>
0.293

> <Color>
0.188

> <Negative vol penalty>
0.000

$$$$

  -OEChem-04052315413D

 83 91  0     1  0  0  0  0  0999 V2000
  -30.8515  -31.8179   24.9125 C   0  0  0  0  0  0  0  0  0  0  0  0
  -30.3588  -30.6859   24.2712 C   0  0  0  0  0  0  0  0  0  0  0  0
  -24.6249   -8.9677   21.3589 C   0  0  0  0  0  0  0  0  0  0  0  0
  -23.3467  -10.8314   22.2130 C   0  0  0  0  0  0  0  0  0  0  0  0
  -29.9790  -32.6705   25.5875 C   0  0  0  0  0  0  0  0  0  0  0  0
  -28.9933  -30.4053   24.3055 C   0  0  0  0  0  0  0  0  0  0  0  0
  -27.1795  -29.0256   19.7831 C   0  0  0  0  0  0  0  0  0  0  0  0
  -27.7948  -20.3729   20.1270 C   0  0  0  0  0  0  0  0  0  0  0  0
  -28.2153  -19.0566   20.3168 C   0  0  0  0  0  0  0  0  0  0  0  0
  -24.0726   -8.1406   22.3369 C   0  0  0  0  0  0  0  0  0  0  0  0
  -22.7943  -10.0044   23.1910 C   0  0  0  0  0  0  0  0  0  0  0  0
  -27.4304  -27.7184   19.3683 C   0  0  0  0  0  0  0  0  0  0  0  0
  -21.1664   -6.4914   22.8536 C   0  0  0  0  0  0  0  0  0  0  0  0
  -20.7144   -5.2325   22.4583 C   0  0  0  0  0  0  0  0  0  0  0  0
  -25.2031  -27.0833   20.0428 C   0  0  0  0  0  0  0  0  0  0  0  0
  -25.7527  -19.8935   21.3257 C   0  0  0  0  0  0  0  0  0  0  0  0
  -22.2710   -4.1937   23.9863 C   0  0  0  0  0  0  0  0  0  0  0  0
  -24.2620  -10.3131   21.2969 C   0  0  0  0  0  0  0  0  0  0  0  0
  -24.3275  -11.4134   18.9963 C   0  0  0  0  0  0  0  0  0  0  0  0
  -28.6009  -32.4054   25.6219 C   0  0  0  0  0  0  0  0  0  0  0  0
  -25.9402  -29.3696   20.3419 C   0  0  0  0  0  0  0  0  0  0  0  0
  -28.1017  -31.2545   24.9827 C   0  0  0  0  0  0  0  0  0  0  0  0
  -24.9381  -28.3962   20.4616 C   0  0  0  0  0  0  0  0  0  0  0  0
  -26.5635  -20.7914   20.6315 C   0  0  0  0  0  0  0  0  0  0  0  0
  -27.4045  -18.1587   21.0111 C   0  0  0  0  0  0  0  0  0  0  0  0
  -23.1573   -8.6590   23.2529 C   0  0  0  0  0  0  0  0  0  0  0  0
  -26.4431  -26.7464   19.5008 C   0  0  0  0  0  0  0  0  0  0  0  0
  -22.1708   -6.6016   23.8153 C   0  0  0  0  0  0  0  0  0  0  0  0
  -26.1732  -18.5771   21.5156 C   0  0  0  0  0  0  0  0  0  0  0  0
  -21.2667   -4.0836   23.0246 C   0  0  0  0  0  0  0  0  0  0  0  0
  -22.7231   -5.4527   24.3816 C   0  0  0  0  0  0  0  0  0  0  0  0
  -24.8327  -11.1681   20.2872 C   0  0  0  0  0  0  0  0  0  0  0  0
  -25.2265  -12.2878   18.4362 C   0  0  0  0  0  0  0  0  0  0  0  0
  -23.1507  -10.8972   18.3604 C   0  0  0  0  0  0  0  0  0  0  0  0
  -24.9813  -30.4768   23.1630 C   0  0  0  0  0  0  0  0  0  0  0  0
  -22.1043  -30.6598   21.6758 C   0  0  0  0  0  0  0  0  0  0  0  0
  -26.8133  -23.1444   19.7741 C   0  0  0  0  0  0  0  0  0  0  0  0
  -20.0588  -29.5546   19.1776 C   0  0  0  0  0  0  0  0  0  0  0  0
  -29.0413  -16.2613   20.7520 C   0  0  0  0  0  0  0  0  0  0  0  0
  -27.7029  -33.3308   26.4041 C   0  0  0  0  0  0  0  0  0  0  0  0
  -25.6761  -30.7901   20.7598 C   0  0  0  0  0  0  0  0  0  0  0  0
  -23.5838  -28.7187   21.0363 C   0  0  0  0  0  0  0  0  0  0  0  0
  -26.2215  -33.1634   26.0760 C   0  0  0  0  0  0  0  0  0  0  0  0
  -29.8477  -13.5317   18.6128 C   0  0  0  0  0  0  0  0  0  0  0  0
  -25.8425  -31.6859   26.0575 C   0  0  0  0  0  0  0  0  0  0  0  0
  -28.6048  -12.6412   18.6771 C   0  0  0  0  0  0  0  0  0  0  0  0
  -30.1497  -14.1824   19.9615 C   0  0  0  0  0  0  0  0  0  0  0  0
  -27.7837  -14.0211   20.6287 C   0  0  0  0  0  0  0  0  0  0  0  0
  -26.6237  -30.9295   24.9764 C   0  0  1  0  0  0  0  0  0  0  0  0
  -24.5565  -30.9119   21.7890 C   0  0  1  0  0  0  0  0  0  0  0  0
  -27.4019  -13.3950   19.2775 C   0  0  2  0  0  0  0  0  0  0  0  0
  -17.7522  -29.8632   18.2387 C   0  0  0  0  0  0  0  0  0  0  0  0
  -20.9511  -29.0214   23.9771 C   0  0  0  0  0  0  0  0  0  0  0  0
  -18.9450  -28.5608   22.5518 C   0  0  0  0  0  0  0  0  0  0  0  0
  -19.4969  -30.9040   23.2055 C   0  0  0  0  0  0  0  0  0  0  0  0
  -21.1170  -30.4656   16.5681 C   0  0  0  0  0  0  0  0  0  0  0  0
  -24.4208  -16.9718   21.4281 C   0  0  0  0  0  0  0  0  0  0  0  0
  -26.0037  -24.4276   19.7942 C   0  0  0  0  0  0  0  0  0  1  0  0
  -20.9341  -29.7238   21.4927 C   0  0  1  0  0  0  0  0  0  0  0  0
  -19.2064  -30.3028   18.1686 C   0  0  2  0  0  0  0  0  0  0  0  0
  -20.1078  -29.5457   22.7976 C   0  0  0  0  0  0  0  0  0  0  0  0
  -25.9649  -11.8327   20.5327 N   0  0  0  0  0  0  0  0  0  0  0  0
  -26.1786  -12.5043   19.3884 N   0  0  0  0  0  0  0  0  0  0  0  0
  -23.3761  -30.1203   21.4364 N   0  0  0  0  0  0  0  0  0  0  0  0
  -28.9660  -14.8816   20.4665 N   0  0  0  0  0  0  0  0  0  0  0  0
  -25.2876  -12.8848   17.2270 N   0  0  0  0  0  0  0  0  0  0  0  0
  -22.3379  -10.0096   19.0787 N   0  0  0  0  0  0  0  0  0  0  0  0
  -26.1368  -22.1267   20.4380 N   0  0  0  0  0  0  0  0  0  0  0  0
  -27.8450  -16.8246   21.1950 N   0  0  0  0  0  0  0  0  0  0  0  0
  -26.0547  -31.1839   23.6703 N   0  0  0  0  0  0  0  0  0  0  0  0
  -20.1671  -30.2449   20.3663 N   0  0  0  0  0  0  0  0  0  0  0  0
  -19.7053  -30.0575   16.7859 N   0  3  0  0  0  0  0  0  0  0  0  0
  -22.8382  -11.2008   17.1841 O   0  0  0  0  0  0  0  0  0  0  0  0
  -24.3790  -29.5678   23.7221 O   0  0  0  0  0  0  0  0  0  0  0  0
  -21.8972  -31.8285   22.0118 O   0  0  0  0  0  0  0  0  0  0  0  0
  -27.9097  -23.0850   19.2274 O   0  0  0  0  0  0  0  0  0  0  0  0
  -20.5739  -28.4650   18.9367 O   0  0  0  0  0  0  0  0  0  0  0  0
  -30.0827  -16.9021   20.5879 O   0  0  0  0  0  0  0  0  0  0  0  0
  -22.6180   -7.8522   24.2073 O   0  0  0  0  0  0  0  0  0  0  0  0
  -25.3649  -17.7154   22.1954 O   0  0  0  0  0  0  0  0  0  0  0  0
  -26.6856  -25.4696   19.0973 O   0  0  0  0  0  0  0  0  0  1  0  0
  -20.8314   -2.8748   22.6460 F   0  0  0  0  0  0  0  0  0  0  0  0
  -23.6874   -5.5522   25.3068 F   0  0  0  0  0  0  0  0  0  0  0  0
  1  2  1  0  0  0  0
  1  5  2  0  0  0  0
  2  6  2  0  0  0  0
  3 10  2  0  0  0  0
  3 18  1  0  0  0  0
  4 11  1  0  0  0  0
  4 18  2  0  0  0  0
  5 20  1  0  0  0  0
  6 22  1  0  0  0  0
  7 12  2  0  0  0  0
  7 21  1  0  0  0  0
  8  9  2  0  0  0  0
  8 24  1  0  0  0  0
  9 25  1  0  0  0  0
 10 26  1  0  0  0  0
 11 26  2  0  0  0  0
 12 27  1  0  0  0  0
 13 14  2  0  0  0  0
 13 28  1  0  0  0  0
 14 30  1  0  0  0  0
 15 23  1  0  0  0  0
 15 27  2  0  0  0  0
 16 24  2  0  0  0  0
 16 29  1  0  0  0  0
 17 30  2  0  0  0  0
 17 31  1  0  0  0  0
 18 32  1  0  0  0  0
 19 32  1  0  0  0  0
 19 33  2  0  0  0  0
 19 34  1  0  0  0  0
 20 22  2  0  0  0  0
 20 40  1  0  0  0  0
 21 23  2  0  0  0  0
 21 41  1  0  0  0  0
 22 49  1  0  0  0  0
 23 42  1  0  0  0  0
 24 68  1  0  0  0  0
 25 29  2  0  0  0  0
 25 69  1  0  0  0  0
 26 79  1  0  0  0  0
 27 81  1  0  0  0  0
 28 31  2  0  0  0  0
 28 79  1  0  0  0  0
 29 80  1  0  0  0  0
 30 82  1  0  0  0  0
 31 83  1  0  0  0  0
 32 62  2  0  0  0  0
 33 63  1  0  0  0  0
 33 66  1  0  0  0  0
 34 67  1  0  0  0  0
 34 73  2  0  0  0  0
 35 50  1  0  0  0  0
 35 70  1  0  0  0  0
 35 74  2  0  0  0  0
 36 59  1  0  0  0  0
 36 64  1  0  0  0  0
 36 75  2  0  0  0  0
 37 58  1  0  0  0  0
 37 68  1  0  0  0  0
 37 76  2  0  0  0  0
 38 60  1  0  0  0  0
 38 71  1  0  0  0  0
 38 77  2  0  0  0  0
 39 65  1  0  0  0  0
 39 69  1  0  0  0  0
 39 78  2  0  0  0  0
 40 43  1  0  0  0  0
 41 50  1  0  0  0  0
 42 64  1  0  0  0  0
 43 45  1  0  0  0  0
 44 46  1  0  0  0  0
 44 47  1  0  0  0  0
 45 49  1  0  0  0  0
 46 51  1  0  0  0  0
 47 65  1  0  0  0  0
 48 51  1  0  0  0  0
 48 65  1  0  0  0  0
 49 70  1  0  0  0  0
 50 64  1  0  0  0  0
 51 63  1  0  0  0  0
 52 60  1  0  0  0  0
 53 61  1  0  0  0  0
 54 61  1  0  0  0  0
 55 61  1  0  0  0  0
 56 72  1  0  0  0  0
 57 80  1  0  0  0  0
 58 81  1  0  0  0  0
 59 61  1  0  0  0  0
 59 71  1  0  0  0  0
 60 72  1  0  0  0  0
 62 63  1  0  0  0  0
M  CHG  1  72   1
M  ISO  4  39 100  58 101  69 100  81 101
M  END
> <Batch ID>
0010

> <Smiles>
CNC(C)C(=O)NC(C(=O)N1Cc2cc([101O:1][101CH2:1]C(=O)Nc3ccc([100NH:0][100C:0](=O)N4CCCC(n5nc(-c6ccc(Oc7ccc(F)cc7F)cc6)c(C(N)=O)c5N)C4)c(OC)c3)ccc2CC1C(=O)NC1CCCc2ccccc21)C(C)(C)C

> <Shape>
0.306

> <Color>
0.100

> <Negative vol penalty>
0.000

$$$$

  -OEChem-04052315413D

 84 92  0     1  0  0  0  0  0999 V2000
  -29.4913  -36.5464   20.8950 C   0  0  0  0  0  0  0  0  0  0  0  0
  -29.7270  -35.1877   21.0786 C   0  0  0  0  0  0  0  0  0  0  0  0
  -23.5991   -9.6488   19.9786 C   0  0  0  0  0  0  0  0  0  0  0  0
  -24.1349   -9.9166   22.3192 C   0  0  0  0  0  0  0  0  0  0  0  0
  -28.2637  -37.0957   21.2626 C   0  0  0  0  0  0  0  0  0  0  0  0
  -28.7355  -34.3776   21.6309 C   0  0  0  0  0  0  0  0  0  0  0  0
  -27.5660  -28.5278   20.2461 C   0  0  0  0  0  0  0  0  0  0  0  0
  -23.0660   -8.3877   20.2449 C   0  0  0  0  0  0  0  0  0  0  0  0
  -23.6017   -8.6554   22.5855 C   0  0  0  0  0  0  0  0  0  0  0  0
  -27.9225  -27.3288   20.8618 C   0  0  0  0  0  0  0  0  0  0  0  0
  -20.5404   -7.2805   22.9835 C   0  0  0  0  0  0  0  0  0  0  0  0
  -19.7024   -7.1536   24.0913 C   0  0  0  0  0  0  0  0  0  0  0  0
  -25.7994  -27.2926   22.0066 C   0  0  0  0  0  0  0  0  0  0  0  0
  -29.9795  -18.8832   20.7400 C   0  0  0  0  0  0  0  0  0  0  0  0
  -28.1143  -20.2910   22.2638 C   0  0  0  0  0  0  0  0  0  0  0  0
  -21.2147   -5.5314   25.0495 C   0  0  0  0  0  0  0  0  0  0  0  0
  -24.1336  -10.4132   21.0157 C   0  0  0  0  0  0  0  0  0  0  0  0
  -24.0038  -12.9477   20.7564 C   0  0  0  0  0  0  0  0  0  0  0  0
  -27.2531  -36.2902   21.8108 C   0  0  0  0  0  0  0  0  0  0  0  0
  -26.3260  -29.1248   20.5148 C   0  0  0  0  0  0  0  0  0  0  0  0
  -27.4937  -34.9169   22.0074 C   0  0  0  0  0  0  0  0  0  0  0  0
  -25.4286  -28.4978   21.3911 C   0  0  0  0  0  0  0  0  0  0  0  0
  -29.1183  -18.1973   21.5963 C   0  0  0  0  0  0  0  0  0  0  0  0
  -28.9755  -20.9769   21.4075 C   0  0  0  0  0  0  0  0  0  0  0  0
  -23.0673   -7.8910   21.5483 C   0  0  0  0  0  0  0  0  0  0  0  0
  -27.0403  -26.7125   21.7444 C   0  0  0  0  0  0  0  0  0  0  0  0
  -21.7156   -6.5328   22.9087 C   0  0  0  0  0  0  0  0  0  0  0  0
  -29.9082  -20.2731   20.6456 C   0  0  0  0  0  0  0  0  0  0  0  0
  -20.0395   -6.2791   25.1243 C   0  0  0  0  0  0  0  0  0  0  0  0
  -22.0527   -5.6583   23.9417 C   0  0  0  0  0  0  0  0  0  0  0  0
  -28.1857  -18.9011   22.3582 C   0  0  0  0  0  0  0  0  0  0  0  0
  -24.6850  -11.7158   20.7412 C   0  0  0  0  0  0  0  0  0  0  0  0
  -24.9636  -13.8749   20.4315 C   0  0  0  0  0  0  0  0  0  0  0  0
  -22.6265  -13.2288   21.0390 C   0  0  0  0  0  0  0  0  0  0  0  0
  -25.3938  -31.8846   21.7869 C   0  0  0  0  0  0  0  0  0  0  0  0
  -22.4481  -30.8461   20.9111 C   0  0  0  0  0  0  0  0  0  0  0  0
  -28.0226  -23.2267   22.0110 C   0  0  0  0  0  0  0  0  0  0  0  0
  -20.4074  -28.2147   20.1642 C   0  0  0  0  0  0  0  0  0  0  0  0
  -30.0974  -15.9633   20.9663 C   0  0  0  0  0  0  0  0  0  0  0  0
  -25.9594  -36.9379   22.2366 C   0  0  0  0  0  0  0  0  0  0  0  0
  -25.9456  -30.4045   19.8220 C   0  0  0  0  0  0  0  0  0  0  0  0
  -24.0770  -29.0874   21.6977 C   0  0  0  0  0  0  0  0  0  0  0  0
  -24.8266  -35.9412   22.4684 C   0  0  0  0  0  0  0  0  0  0  0  0
  -29.6743  -13.2648   18.6824 C   0  0  0  0  0  0  0  0  0  0  0  0
  -25.3157  -34.7617   23.3029 C   0  0  0  0  0  0  0  0  0  0  0  0
  -28.2825  -12.7226   19.0156 C   0  0  0  0  0  0  0  0  0  0  0  0
  -30.4183  -13.7255   19.9345 C   0  0  0  0  0  0  0  0  0  0  0  0
  -28.2928  -14.1362   21.1106 C   0  0  0  0  0  0  0  0  0  0  0  0
  -26.4341  -34.0009   22.5805 C   0  0  1  0  0  0  0  0  0  0  0  0
  -24.8672  -31.1880   20.5641 C   0  0  1  0  0  0  0  0  0  0  0  0
  -27.4798  -13.7199   19.8739 C   0  0  2  0  0  0  0  0  0  0  0  0
  -18.0416  -27.6765   19.5233 C   0  0  0  0  0  0  0  0  0  0  0  0
  -21.5633  -31.3145   23.7934 C   0  0  0  0  0  0  0  0  0  0  0  0
  -19.5483  -29.9023   23.3308 C   0  0  0  0  0  0  0  0  0  0  0  0
  -19.9012  -32.0220   22.0639 C   0  0  0  0  0  0  0  0  0  0  0  0
  -21.2538  -27.0156   17.5942 C   0  0  0  0  0  0  0  0  0  0  0  0
  -30.3138  -21.1254   18.4627 C   0  0  0  0  0  0  0  0  0  0  0  0
  -28.2622  -24.6754   21.6283 C   0  0  0  0  0  0  0  0  0  1  0  0
  -21.3663  -30.0224   21.5668 C   0  0  1  0  0  0  0  0  0  0  0  0
  -19.4421  -27.9829   19.0158 C   0  0  2  0  0  0  0  0  0  0  0  0
  -20.6210  -30.8049   22.6846 C   0  0  0  0  0  0  0  0  0  0  0  0
  -25.9776  -11.8452   20.4310 N   0  0  0  0  0  0  0  0  0  0  0  0
  -26.1164  -13.1694   20.2482 N   0  0  0  0  0  0  0  0  0  0  0  0
  -23.7538  -30.3430   21.0003 N   0  0  0  0  0  0  0  0  0  0  0  0
  -29.5988  -14.6715   20.6952 N   0  0  0  0  0  0  0  0  0  0  0  0
  -24.9255  -15.2166   20.2874 N   0  0  0  0  0  0  0  0  0  0  0  0
  -21.7775  -12.1594   21.3550 N   0  0  0  0  0  0  0  0  0  0  0  0
  -28.8911  -22.3869   21.3221 N   0  0  0  0  0  0  0  0  0  0  0  0
  -29.2167  -16.7856   21.6683 N   0  0  0  0  0  0  0  0  0  0  0  0
  -25.8821  -33.1544   21.5446 N   0  0  0  0  0  0  0  0  0  0  0  0
  -20.5025  -29.5512   20.4896 N   0  0  0  0  0  0  0  0  0  0  0  0
  -19.8992  -26.8384   18.1779 N   0  3  0  0  0  0  0  0  0  0  0  0
  -22.1589  -14.3920   20.9962 O   0  0  0  0  0  0  0  0  0  0  0  0
  -25.3582  -31.3130   22.8703 O   0  0  0  0  0  0  0  0  0  0  0  0
  -22.1449  -31.8937   20.3346 O   0  0  0  0  0  0  0  0  0  0  0  0
  -27.1613  -22.9114   22.8255 O   0  0  0  0  0  0  0  0  0  0  0  0
  -21.0135  -27.3011   20.7197 O   0  0  0  0  0  0  0  0  0  0  0  0
  -31.2120  -16.3232   20.5788 O   0  0  0  0  0  0  0  0  0  0  0  0
  -22.5469   -6.6605   21.8086 O   0  0  0  0  0  0  0  0  0  0  0  0
  -30.7586  -20.9241   19.8024 O   0  0  0  0  0  0  0  0  0  0  0  0
  -27.3860  -25.5425   22.3473 O   0  0  0  0  0  0  0  0  0  1  0  0
  -19.2354   -6.1585   26.1888 F   0  0  0  0  0  0  0  0  0  0  0  0
  -23.1810   -4.9382   23.8760 F   0  0  0  0  0  0  0  0  0  0  0  0
  -27.1014  -18.0908   23.4319 Cl  0  0  0  0  0  0  0  0  0  0  0  0
  1  2  1  0  0  0  0
  1  5  2  0  0  0  0
  2  6  2  0  0  0  0
  3  8  2  0  0  0  0
  3 17  1  0  0  0  0
  4  9  1  0  0  0  0
  4 17  2  0  0  0  0
  5 19  1  0  0  0  0
  6 21  1  0  0  0  0
  7 10  2  0  0  0  0
  7 20  1  0  0  0  0
  8 25  1  0  0  0  0
  9 25  2  0  0  0  0
 10 26  1  0  0  0  0
 11 12  2  0  0  0  0
 11 27  1  0  0  0  0
 12 29  1  0  0  0  0
 13 22  1  0  0  0  0
 13 26  2  0  0  0  0
 14 23  2  0  0  0  0
 14 28  1  0  0  0  0
 15 24  1  0  0  0  0
 15 31  2  0  0  0  0
 16 29  2  0  0  0  0
 16 30  1  0  0  0  0
 17 32  1  0  0  0  0
 18 32  1  0  0  0  0
 18 33  2  0  0  0  0
 18 34  1  0  0  0  0
 19 21  2  0  0  0  0
 19 40  1  0  0  0  0
 20 22  2  0  0  0  0
 20 41  1  0  0  0  0
 21 49  1  0  0  0  0
 22 42  1  0  0  0  0
 23 31  1  0  0  0  0
 23 69  1  0  0  0  0
 24 28  2  0  0  0  0
 24 68  1  0  0  0  0
 25 79  1  0  0  0  0
 26 81  1  0  0  0  0
 27 30  2  0  0  0  0
 27 79  1  0  0  0  0
 28 80  1  0  0  0  0
 29 82  1  0  0  0  0
 30 83  1  0  0  0  0
 31 84  1  0  0  0  0
 32 62  2  0  0  0  0
 33 63  1  0  0  0  0
 33 66  1  0  0  0  0
 34 67  1  0  0  0  0
 34 73  2  0  0  0  0
 35 50  1  0  0  0  0
 35 70  1  0  0  0  0
 35 74  2  0  0  0  0
 36 59  1  0  0  0  0
 36 64  1  0  0  0  0
 36 75  2  0  0  0  0
 37 58  1  0  0  0  0
 37 68  1  0  0  0  0
 37 76  2  0  0  0  0
 38 60  1  0  0  0  0
 38 71  1  0  0  0  0
 38 77  2  0  0  0  0
 39 65  1  0  0  0  0
 39 69  1  0  0  0  0
 39 78  2  0  0  0  0
 40 43  1  0  0  0  0
 41 50  1  0  0  0  0
 42 64  1  0  0  0  0
 43 45  1  0  0  0  0
 44 46  1  0  0  0  0
 44 47  1  0  0  0  0
 45 49  1  0  0  0  0
 46 51  1  0  0  0  0
 47 65  1  0  0  0  0
 48 51  1  0  0  0  0
 48 65  1  0  0  0  0
 49 70  1  0  0  0  0
 50 64  1  0  0  0  0
 51 63  1  0  0  0  0
 52 60  1  0  0  0  0
 53 61  1  0  0  0  0
 54 61  1  0  0  0  0
 55 61  1  0  0  0  0
 56 72  1  0  0  0  0
 57 80  1  0  0  0  0
 58 81  1  0  0  0  0
 59 61  1  0  0  0  0
 59 71  1  0  0  0  0
 60 72  1  0  0  0  0
 62 63  1  0  0  0  0
M  CHG  1  72   1
M  ISO  4  39 100  58 101  69 100  81 101
M  END
> <Batch ID>
0010

> <Smiles>
CNC(C)C(=O)NC(C(=O)N1Cc2cc([101O:1][101CH2:1]C(=O)Nc3cc(Cl)c([100NH:0][100C:0](=O)N4CCCC(n5nc(-c6ccc(Oc7ccc(F)cc7F)cc6)c(C(N)=O)c5N)C4)cc3OC)ccc2CC1C(=O)NC1CCCc2ccccc21)C(C)(C)C

> <Shape>
0.327

> <Color>
0.154

> <Negative vol penalty>
0.000

$$$$

  -OEChem-04052315413D

 81 89  0     1  0  0  0  0  0999 V2000
  -17.7155  -33.3419   18.0836 C   0  0  0  0  0  0  0  0  0  0  0  0
  -18.9138  -32.9824   17.4751 C   0  0  0  0  0  0  0  0  0  0  0  0
  -24.8012  -10.2786   22.6259 C   0  0  0  0  0  0  0  0  0  0  0  0
  -24.4888  -11.7693   24.5013 C   0  0  0  0  0  0  0  0  0  0  0  0
  -17.7254  -33.9232   19.3508 C   0  0  0  0  0  0  0  0  0  0  0  0
  -20.1229  -33.2051   18.1332 C   0  0  0  0  0  0  0  0  0  0  0  0
  -24.6112  -27.7615   19.5870 C   0  0  0  0  0  0  0  0  0  0  0  0
  -29.5131  -20.7821   21.9189 C   0  0  0  0  0  0  0  0  0  0  0  0
  -24.3855   -9.2034   23.4112 C   0  0  0  0  0  0  0  0  0  0  0  0
  -24.0729  -10.6941   25.2866 C   0  0  0  0  0  0  0  0  0  0  0  0
  -25.6185  -26.8047   19.7133 C   0  0  0  0  0  0  0  0  0  0  0  0
  -29.3851  -22.1504   22.1577 C   0  0  0  0  0  0  0  0  0  0  0  0
  -21.4645   -7.9153   24.5255 C   0  0  0  0  0  0  0  0  0  0  0  0
  -20.5567   -7.0164   23.9656 C   0  0  0  0  0  0  0  0  0  0  0  0
  -27.0248  -28.4182   20.8389 C   0  0  0  0  0  0  0  0  0  0  0  0
  -27.1423  -20.6374   21.4769 C   0  0  0  0  0  0  0  0  0  0  0  0
  -22.1505   -5.2245   24.2582 C   0  0  0  0  0  0  0  0  0  0  0  0
  -24.8529  -11.5615   23.1710 C   0  0  0  0  0  0  0  0  0  0  0  0
  -24.4755  -13.5061   21.5635 C   0  0  0  0  0  0  0  0  0  0  0  0
  -18.9346  -34.1443   20.0288 C   0  0  0  0  0  0  0  0  0  0  0  0
  -24.8012  -29.0475   20.1004 C   0  0  0  0  0  0  0  0  0  0  0  0
  -20.1490  -33.7912   19.4101 C   0  0  0  0  0  0  0  0  0  0  0  0
  -26.0146  -29.3772   20.7264 C   0  0  0  0  0  0  0  0  0  0  0  0
  -28.3917  -20.0256   21.5784 C   0  0  0  0  0  0  0  0  0  0  0  0
  -24.0213   -9.4111   24.7416 C   0  0  0  0  0  0  0  0  0  0  0  0
  -26.8224  -27.1323   20.3375 C   0  0  0  0  0  0  0  0  0  0  0  0
  -22.7154   -7.4688   24.9517 C   0  0  0  0  0  0  0  0  0  0  0  0
  -28.1357  -22.7621   22.0562 C   0  0  0  0  0  0  0  0  0  0  0  0
  -20.8997   -5.6710   23.8320 C   0  0  0  0  0  0  0  0  0  0  0  0
  -27.0143  -22.0057   21.7158 C   0  0  0  0  0  0  0  0  0  0  0  0
  -23.0584   -6.1234   24.8181 C   0  0  0  0  0  0  0  0  0  0  0  0
  -25.2829  -12.6725   22.3604 C   0  0  0  0  0  0  0  0  0  0  0  0
  -25.3542  -14.3993   21.0010 C   0  0  0  0  0  0  0  0  0  0  0  0
  -23.0579  -13.4758   21.3509 C   0  0  0  0  0  0  0  0  0  0  0  0
  -23.3724  -32.4735   20.6455 C   0  0  0  0  0  0  0  0  0  0  0  0
  -24.8881  -31.7227   23.2046 C   0  0  0  0  0  0  0  0  0  0  0  0
  -26.3005  -30.3471   25.9886 C   0  0  0  0  0  0  0  0  0  0  0  0
  -29.6878  -17.8733   21.3941 C   0  0  0  0  0  0  0  0  0  0  0  0
  -18.8980  -34.8190   21.3772 C   0  0  0  0  0  0  0  0  0  0  0  0
  -23.7676  -30.1278   19.9324 C   0  0  0  0  0  0  0  0  0  0  0  0
  -26.1880  -30.7830   21.2329 C   0  0  0  0  0  0  0  0  0  0  0  0
  -20.1981  -34.6777   22.1645 C   0  0  0  0  0  0  0  0  0  0  0  0
  -30.4150  -14.4228   20.9013 C   0  0  0  0  0  0  0  0  0  0  0  0
  -21.3979  -34.9814   21.2727 C   0  0  0  0  0  0  0  0  0  0  0  0
  -29.0782  -13.7284   21.1714 C   0  0  0  0  0  0  0  0  0  0  0  0
  -30.6319  -15.6163   21.8299 C   0  0  0  0  0  0  0  0  0  0  0  0
  -28.2019  -15.9022   22.1169 C   0  0  0  0  0  0  0  0  0  0  0  0
  -21.4794  -33.9940   20.1023 C   0  0  1  0  0  0  0  0  0  0  0  0
  -23.7025  -31.0923   21.1301 C   0  0  1  0  0  0  0  0  0  0  0  0
  -27.9093  -14.7331   21.1623 C   0  0  2  0  0  0  0  0  0  0  0  0
  -26.8460  -30.8668   28.3823 C   0  0  0  0  0  0  0  0  0  0  0  0
  -27.2368  -33.4417   22.2923 C   0  0  0  0  0  0  0  0  0  0  0  0
  -28.2509  -33.1347   24.5607 C   0  0  0  0  0  0  0  0  0  0  0  0
  -26.0517  -34.2882   24.3254 C   0  0  0  0  0  0  0  0  0  0  0  0
  -24.5818  -28.1504   26.9783 C   0  0  0  0  0  0  0  0  0  0  0  0
  -28.6649  -26.3010   21.5911 C   0  0  0  0  0  0  0  0  0  1  0  0
  -29.1408  -24.9163   21.9857 C   0  0  0  0  0  0  0  0  0  0  0  0
  -26.1840  -31.7882   23.9726 C   0  0  1  0  0  0  0  0  0  0  0  0
  -25.8232  -30.2708   27.4276 C   0  0  2  0  0  0  0  0  0  0  0  0
  -26.9242  -33.1407   23.7717 C   0  0  0  0  0  0  0  0  0  0  0  0
  -26.5752  -13.0063   22.3111 N   0  0  0  0  0  0  0  0  0  0  0  0
  -26.5866  -14.0595   21.4764 N   0  0  0  0  0  0  0  0  0  0  0  0
  -24.9536  -31.2347   21.8939 N   0  0  0  0  0  0  0  0  0  0  0  0
  -29.4868  -16.5270   21.7655 N   0  0  0  0  0  0  0  0  0  0  0  0
  -25.1853  -15.4344   20.1511 N   0  0  0  0  0  0  0  0  0  0  0  0
  -22.3048  -12.4921   22.0063 N   0  0  0  0  0  0  0  0  0  0  0  0
  -28.5216  -18.6356   21.3358 N   0  0  0  0  0  0  0  0  0  0  0  0
  -22.0175  -32.7263   20.5470 N   0  0  0  0  0  0  0  0  0  0  0  0
  -25.8510  -31.4898   25.3613 N   0  0  0  0  0  0  0  0  0  0  0  0
  -25.5846  -28.8529   27.8197 N   0  3  0  0  0  0  0  0  0  0  0  0
  -22.4784  -14.2864   20.5889 O   0  0  0  0  0  0  0  0  0  0  0  0
  -24.2795  -33.2539   20.3813 O   0  0  0  0  0  0  0  0  0  0  0  0
  -23.8455  -32.0986   23.7477 O   0  0  0  0  0  0  0  0  0  0  0  0
  -27.0049  -29.4816   25.4736 O   0  0  0  0  0  0  0  0  0  0  0  0
  -30.8084  -18.3104   21.1197 O   0  0  0  0  0  0  0  0  0  0  0  0
  -23.6153   -8.3622   25.5081 O   0  0  0  0  0  0  0  0  0  0  0  0
  -27.7998  -26.1921   20.4615 O   0  0  0  0  0  0  0  0  0  1  0  0
  -28.0119  -24.1064   22.2905 O   0  0  0  0  0  0  0  0  0  0  0  0
  -20.0272   -4.8077   23.2957 F   0  0  0  0  0  0  0  0  0  0  0  0
  -25.8115  -22.5881   21.6156 F   0  0  0  0  0  0  0  0  0  0  0  0
  -24.2582   -5.6883   25.2268 F   0  0  0  0  0  0  0  0  0  0  0  0
  1  2  1  0  0  0  0
  1  5  2  0  0  0  0
  2  6  2  0  0  0  0
  3  9  2  0  0  0  0
  3 18  1  0  0  0  0
  4 10  1  0  0  0  0
  4 18  2  0  0  0  0
  5 20  1  0  0  0  0
  6 22  1  0  0  0  0
  7 11  2  0  0  0  0
  7 21  1  0  0  0  0
  8 12  2  0  0  0  0
  8 24  1  0  0  0  0
  9 25  1  0  0  0  0
 10 25  2  0  0  0  0
 11 26  1  0  0  0  0
 12 28  1  0  0  0  0
 13 14  2  0  0  0  0
 13 27  1  0  0  0  0
 14 29  1  0  0  0  0
 15 23  1  0  0  0  0
 15 26  2  0  0  0  0
 16 24  2  0  0  0  0
 16 30  1  0  0  0  0
 17 29  2  0  0  0  0
 17 31  1  0  0  0  0
 18 32  1  0  0  0  0
 19 32  1  0  0  0  0
 19 33  2  0  0  0  0
 19 34  1  0  0  0  0
 20 22  2  0  0  0  0
 20 39  1  0  0  0  0
 21 23  2  0  0  0  0
 21 40  1  0  0  0  0
 22 48  1  0  0  0  0
 23 41  1  0  0  0  0
 24 67  1  0  0  0  0
 25 76  1  0  0  0  0
 26 77  1  0  0  0  0
 27 31  2  0  0  0  0
 27 76  1  0  0  0  0
 28 30  2  0  0  0  0
 28 78  1  0  0  0  0
 29 79  1  0  0  0  0
 30 80  1  0  0  0  0
 31 81  1  0  0  0  0
 32 61  2  0  0  0  0
 33 62  1  0  0  0  0
 33 65  1  0  0  0  0
 34 66  1  0  0  0  0
 34 71  2  0  0  0  0
 35 49  1  0  0  0  0
 35 68  1  0  0  0  0
 35 72  2  0  0  0  0
 36 58  1  0  0  0  0
 36 63  1  0  0  0  0
 36 73  2  0  0  0  0
 37 59  1  0  0  0  0
 37 69  1  0  0  0  0
 37 74  2  0  0  0  0
 38 64  1  0  0  0  0
 38 67  1  0  0  0  0
 38 75  2  0  0  0  0
 39 42  1  0  0  0  0
 40 49  1  0  0  0  0
 41 63  1  0  0  0  0
 42 44  1  0  0  0  0
 43 45  1  0  0  0  0
 43 46  1  0  0  0  0
 44 48  1  0  0  0  0
 45 50  1  0  0  0  0
 46 64  1  0  0  0  0
 47 50  1  0  0  0  0
 47 64  1  0  0  0  0
 48 68  1  0  0  0  0
 49 63  1  0  0  0  0
 50 62  1  0  0  0  0
 51 59  1  0  0  0  0
 52 60  1  0  0  0  0
 53 60  1  0  0  0  0
 54 60  1  0  0  0  0
 55 70  1  0  0  0  0
 56 57  1  0  0  0  0
 56 77  1  0  0  0  0
 57 78  1  0  0  0  0
 58 60  1  0  0  0  0
 58 69  1  0  0  0  0
 59 70  1  0  0  0  0
 61 62  1  0  0  0  0
M  CHG  1  70   1
M  ISO  4  38 100  56 101  67 100  77 101
M  END
> <Batch ID>
0010

> <Smiles>
CNC(C)C(=O)NC(C(=O)N1Cc2cc([101O:1][101CH2:1]COc3ccc([100NH:0][100C:0](=O)N4CCCC(n5nc(-c6ccc(Oc7ccc(F)cc7F)cc6)c(C(N)=O)c5N)C4)cc3F)ccc2CC1C(=O)NC1CCCc2ccccc21)C(C)(C)C

> <Shape>
0.265

> <Color>
0.145

> <Negative vol penalty>
0.000

$$$$

  -OEChem-04052315413D

 94102  0     1  0  0  0  0  0999 V2000
  -26.6665  -32.8143   22.7984 C   0  0  0  0  0  0  0  0  0  0  0  0
  -27.6686  -31.8496   22.8159 C   0  0  0  0  0  0  0  0  0  0  0  0
  -23.1064   -9.8825   21.3989 C   0  0  0  0  0  0  0  0  0  0  0  0
  -23.8551  -10.7224   23.5368 C   0  0  0  0  0  0  0  0  0  0  0  0
  -25.4364  -32.5294   22.2070 C   0  0  0  0  0  0  0  0  0  0  0  0
  -27.4409  -30.5989   22.2430 C   0  0  0  0  0  0  0  0  0  0  0  0
  -31.5200  -27.0934   19.3140 C   0  0  0  0  0  0  0  0  0  0  0  0
  -31.9660  -17.2663   21.4094 C   0  0  0  0  0  0  0  0  0  0  0  0
  -32.5348  -18.4254   21.9371 C   0  0  0  0  0  0  0  0  0  0  0  0
  -22.3809   -8.8822   22.0459 C   0  0  0  0  0  0  0  0  0  0  0  0
  -23.1295   -9.7221   24.1839 C   0  0  0  0  0  0  0  0  0  0  0  0
  -32.2834  -26.0010   19.7234 C   0  0  0  0  0  0  0  0  0  0  0  0
  -23.0077   -5.8977   23.5034 C   0  0  0  0  0  0  0  0  0  0  0  0
  -23.0964   -4.6019   22.9950 C   0  0  0  0  0  0  0  0  0  0  0  0
  -29.7656  -18.2318   21.6600 C   0  0  0  0  0  0  0  0  0  0  0  0
  -30.6205  -24.5069   18.8169 C   0  0  0  0  0  0  0  0  0  0  0  0
  -20.7111   -4.5893   22.6111 C   0  0  0  0  0  0  0  0  0  0  0  0
  -23.8435  -10.8026   22.1443 C   0  0  0  0  0  0  0  0  0  0  0  0
  -30.3344  -19.3910   22.1878 C   0  0  0  0  0  0  0  0  0  0  0  0
  -24.1433  -13.1234   21.1286 C   0  0  0  0  0  0  0  0  0  0  0  0
  -25.1968  -31.2779   21.6180 C   0  0  0  0  0  0  0  0  0  0  0  0
  -30.2938  -26.9004   18.6616 C   0  0  0  0  0  0  0  0  0  0  0  0
  -26.2061  -30.2964   21.6444 C   0  0  0  0  0  0  0  0  0  0  0  0
  -29.8447  -25.5986   18.3980 C   0  0  0  0  0  0  0  0  0  0  0  0
  -30.5814  -17.1695   21.2708 C   0  0  0  0  0  0  0  0  0  0  0  0
  -31.7190  -19.4878   22.3263 C   0  0  0  0  0  0  0  0  0  0  0  0
  -22.3924   -8.8020   23.4384 C   0  0  0  0  0  0  0  0  0  0  0  0
  -31.8323  -24.7075   19.4775 C   0  0  0  0  0  0  0  0  0  0  0  0
  -21.7707   -6.5393   23.5658 C   0  0  0  0  0  0  0  0  0  0  0  0
  -21.9482   -3.9477   22.5488 C   0  0  0  0  0  0  0  0  0  0  0  0
  -20.6225   -5.8851   23.1195 C   0  0  0  0  0  0  0  0  0  0  0  0
  -24.5936  -11.8358   21.4765 C   0  0  0  0  0  0  0  0  0  0  0  0
  -25.2243  -13.7123   20.5196 C   0  0  0  0  0  0  0  0  0  0  0  0
  -29.4549  -20.4839   22.5840 C   0  0  0  0  0  0  0  0  0  0  0  0
  -22.8623  -13.7326   21.3374 C   0  0  0  0  0  0  0  0  0  0  0  0
  -27.2706  -27.6441   19.3024 C   0  0  0  0  0  0  0  0  0  0  0  0
  -21.7074  -17.8584   20.0758 C   0  0  0  0  0  0  0  0  0  0  0  0
  -26.7605  -26.4837   16.3165 C   0  0  0  0  0  0  0  0  0  0  0  0
  -27.8121  -24.4645   13.7741 C   0  0  0  0  0  0  0  0  0  0  0  0
  -30.6712  -14.8465   20.3002 C   0  0  0  0  0  0  0  0  0  0  0  0
  -23.8350  -30.9998   21.0326 C   0  0  0  0  0  0  0  0  0  0  0  0
  -29.4950  -28.0894   18.2026 C   0  0  0  0  0  0  0  0  0  0  0  0
  -28.5450  -25.3376   17.6830 C   0  0  0  0  0  0  0  0  0  0  0  0
  -23.8036  -29.7795   20.1160 C   0  0  0  0  0  0  0  0  0  0  0  0
  -29.6090  -11.7263   18.9536 C   0  0  0  0  0  0  0  0  0  0  0  0
  -24.5288  -28.6052   20.7656 C   0  0  0  0  0  0  0  0  0  0  0  0
  -28.1724  -11.5826   19.4613 C   0  0  0  0  0  0  0  0  0  0  0  0
  -30.5144  -12.3857   19.9925 C   0  0  0  0  0  0  0  0  0  0  0  0
  -28.5889  -13.5228   21.0263 C   0  0  0  0  0  0  0  0  0  0  0  0
  -26.0057  -28.9366   21.0113 C   0  0  1  0  0  0  0  0  0  0  0  0
  -28.0155  -27.7746   18.0041 C   0  0  1  0  0  0  0  0  0  0  0  0
  -27.6248  -12.9228   19.9899 C   0  0  2  0  0  0  0  0  0  0  0  0
  -20.3249  -17.3421   20.3767 C   0  0  0  0  0  0  0  0  0  0  0  0
  -27.1668  -23.6943   11.4746 C   0  0  0  0  0  0  0  0  0  0  0  0
  -24.6511  -24.6418   17.5281 C   0  0  0  0  0  0  0  0  0  0  0  0
  -24.7337  -23.2810   15.4282 C   0  0  0  0  0  0  0  0  0  0  0  0
  -24.0084  -25.6661   15.3389 C   0  0  0  0  0  0  0  0  0  0  0  0
  -33.1207  -20.5594   24.0719 C   0  0  0  0  0  0  0  0  0  0  0  0
  -30.2734  -25.5930   12.5792 C   0  0  0  0  0  0  0  0  0  0  0  0
  -22.3178  -18.8406   21.0553 C   0  0  0  0  0  0  0  0  0  0  0  0
  -23.6976  -19.3308   20.6273 C   0  0  0  0  0  0  0  0  0  0  0  0
  -24.3321  -20.2702   21.6568 C   0  0  0  0  0  0  0  0  0  0  0  0
  -25.6999  -20.7683   21.1841 C   0  0  0  0  0  0  0  0  0  0  0  0
  -26.3520  -21.6765   22.2308 C   0  0  0  0  0  0  0  0  0  0  0  0
  -33.5001  -22.4725   21.7586 C   0  0  0  0  0  0  0  0  0  0  0  0
  -27.7436  -22.1430   21.8163 C   0  0  0  0  0  0  0  0  0  0  0  0
  -32.1526  -21.9292   22.2185 C   0  0  0  0  0  0  0  0  0  0  0  0
  -33.3873  -23.8105   21.0374 C   0  0  0  0  0  0  0  0  0  1  0  0
  -26.4461  -25.1259   15.7365 C   0  0  1  0  0  0  0  0  0  0  0  0
  -27.9545  -24.7132   12.2833 C   0  0  2  0  0  0  0  0  0  0  0  0
  -24.9834  -24.6833   16.0231 C   0  0  0  0  0  0  0  0  0  0  0  0
  -25.8619  -11.6188   21.1182 N   0  0  0  0  0  0  0  0  0  0  0  0
  -26.2177  -12.7779   20.5387 N   0  0  0  0  0  0  0  0  0  0  0  0
  -27.7968  -26.5328   17.2596 N   0  0  0  0  0  0  0  0  0  0  0  0
  -29.9339  -13.6522   20.4440 N   0  0  0  0  0  0  0  0  0  0  0  0
  -25.4126  -14.9331   19.9749 N   0  0  0  0  0  0  0  0  0  0  0  0
  -21.8643  -12.9866   21.9791 N   0  0  0  0  0  0  0  0  0  0  0  0
  -30.0044  -15.9916   20.7346 N   0  0  0  0  0  0  0  0  0  0  0  0
  -28.6490  -21.0403   21.5861 N   0  0  0  0  0  0  0  0  0  0  0  0
  -26.7581  -28.8355   19.7792 N   0  0  0  0  0  0  0  0  0  0  0  0
  -26.7808  -25.2003   14.3184 N   0  0  0  0  0  0  0  0  0  0  0  0
  -32.3106  -20.6439   22.8551 N   0  0  3  0  0  0  0  0  0  0  0  0
  -29.3863  -24.6291   11.8786 N   0  3  0  0  0  0  0  0  0  0  0  0
  -29.4555  -20.8971   23.7554 O   0  0  0  0  0  0  0  0  0  0  0  0
  -22.6050  -14.8980   20.9512 O   0  0  0  0  0  0  0  0  0  0  0  0
  -27.1670  -26.5437   19.8316 O   0  0  0  0  0  0  0  0  0  0  0  0
  -22.3249  -17.4847   19.0783 O   0  0  0  0  0  0  0  0  0  0  0  0
  -26.1153  -27.4658   15.9412 O   0  0  0  0  0  0  0  0  0  0  0  0
  -28.5404  -23.6918   14.3930 O   0  0  0  0  0  0  0  0  0  0  0  0
  -31.7995  -14.8566   19.8013 O   0  0  0  0  0  0  0  0  0  0  0  0
  -21.6844   -7.8262   24.0701 O   0  0  0  0  0  0  0  0  0  0  0  0
  -32.5752  -23.6394   19.8766 O   0  0  0  0  0  0  0  0  0  1  0  0
  -22.0337   -2.7038   22.0591 F   0  0  0  0  0  0  0  0  0  0  0  0
  -19.4315   -6.4968   23.1758 F   0  0  0  0  0  0  0  0  0  0  0  0
  1  2  1  0  0  0  0
  1  5  2  0  0  0  0
  2  6  2  0  0  0  0
  3 10  2  0  0  0  0
  3 18  1  0  0  0  0
  4 11  1  0  0  0  0
  4 18  2  0  0  0  0
  5 21  1  0  0  0  0
  6 23  1  0  0  0  0
  7 12  2  0  0  0  0
  7 22  1  0  0  0  0
  8  9  2  0  0  0  0
  8 25  1  0  0  0  0
  9 26  1  0  0  0  0
 10 27  1  0  0  0  0
 11 27  2  0  0  0  0
 12 28  1  0  0  0  0
 13 14  2  0  0  0  0
 13 29  1  0  0  0  0
 14 30  1  0  0  0  0
 15 19  1  0  0  0  0
 15 25  2  0  0  0  0
 16 24  1  0  0  0  0
 16 28  2  0  0  0  0
 17 30  2  0  0  0  0
 17 31  1  0  0  0  0
 18 32  1  0  0  0  0
 19 26  2  0  0  0  0
 19 34  1  0  0  0  0
 20 32  1  0  0  0  0
 20 33  2  0  0  0  0
 20 35  1  0  0  0  0
 21 23  2  0  0  0  0
 21 41  1  0  0  0  0
 22 24  2  0  0  0  0
 22 42  1  0  0  0  0
 23 50  1  0  0  0  0
 24 43  1  0  0  0  0
 25 78  1  0  0  0  0
 26 82  1  0  0  0  0
 27 91  1  0  0  0  0
 28 92  1  0  0  0  0
 29 31  2  0  0  0  0
 29 91  1  0  0  0  0
 30 93  1  0  0  0  0
 31 94  1  0  0  0  0
 32 72  2  0  0  0  0
 33 73  1  0  0  0  0
 33 76  1  0  0  0  0
 34 79  1  0  0  0  0
 34 84  2  0  0  0  0
 35 77  1  0  0  0  0
 35 85  2  0  0  0  0
 36 51  1  0  0  0  0
 36 80  1  0  0  0  0
 36 86  2  0  0  0  0
 37 53  1  0  0  0  0
 37 60  1  0  0  0  0
 37 87  2  0  0  0  0
 38 69  1  0  0  0  0
 38 74  1  0  0  0  0
 38 88  2  0  0  0  0
 39 70  1  0  0  0  0
 39 81  1  0  0  0  0
 39 89  2  0  0  0  0
 40 75  1  0  0  0  0
 40 78  1  0  0  0  0
 40 90  2  0  0  0  0
 41 44  1  0  0  0  0
 42 51  1  0  0  0  0
 43 74  1  0  0  0  0
 44 46  1  0  0  0  0
 45 47  1  0  0  0  0
 45 48  1  0  0  0  0
 46 50  1  0  0  0  0
 47 52  1  0  0  0  0
 48 75  1  0  0  0  0
 49 52  1  0  0  0  0
 49 75  1  0  0  0  0
 50 80  1  0  0  0  0
 51 74  1  0  0  0  0
 52 73  1  0  0  0  0
 54 70  1  0  0  0  0
 55 71  1  0  0  0  0
 56 71  1  0  0  0  0
 57 71  1  0  0  0  0
 58 82  1  0  0  0  0
 59 83  1  0  0  0  0
 60 61  1  0  0  0  0
 61 62  1  0  0  0  0
 62 63  1  0  0  0  0
 63 64  1  0  0  0  0
 64 66  1  0  0  0  0
 65 67  1  0  0  0  0
 65 68  1  0  0  0  0
 66 79  1  0  0  0  0
 67 82  1  0  0  0  0
 68 92  1  0  0  0  0
 69 71  1  0  0  0  0
 69 81  1  0  0  0  0
 70 83  1  0  0  0  0
 72 73  1  0  0  0  0
M  CHG  1  83   1
M  ISO  4  40 100  68 101  78 100  92 101
M  END
> <Batch ID>
0010

> <Smiles>
CNC(C)C(=O)NC(C(=O)N1Cc2cc([101O:1][101CH2:1]CCN(C)c3ccc([100NH:0][100C:0](=O)N4CCCC(n5nc(-c6ccc(Oc7ccc(F)cc7F)cc6)c(C(N)=O)c5N)C4)cc3C(=O)NCCCCCCC(C)=O)ccc2CC1C(=O)NC1CCCc2ccccc21)C(C)(C)C

> <Shape>
0.279

> <Color>
0.174

> <Negative vol penalty>
0.000

$$$$

  -OEChem-04052315413D

 84 92  0     1  0  0  0  0  0999 V2000
  -32.6267  -31.8243   19.3500 C   0  0  0  0  0  0  0  0  0  0  0  0
  -32.5418  -30.8249   20.3140 C   0  0  0  0  0  0  0  0  0  0  0  0
  -23.1009   -9.8846   19.9402 C   0  0  0  0  0  0  0  0  0  0  0  0
  -23.8542   -9.9041   22.2357 C   0  0  0  0  0  0  0  0  0  0  0  0
  -31.6586  -31.9112   18.3504 C   0  0  0  0  0  0  0  0  0  0  0  0
  -31.4880  -29.9123   20.2796 C   0  0  0  0  0  0  0  0  0  0  0  0
  -31.6851  -23.9995   21.8624 C   0  0  0  0  0  0  0  0  0  0  0  0
  -22.3666   -8.7255   20.1910 C   0  0  0  0  0  0  0  0  0  0  0  0
  -23.1198   -8.7451   22.4865 C   0  0  0  0  0  0  0  0  0  0  0  0
  -31.3196  -23.3278   23.0282 C   0  0  0  0  0  0  0  0  0  0  0  0
  -19.8972   -7.9201   23.0820 C   0  0  0  0  0  0  0  0  0  0  0  0
  -19.1373   -7.8764   24.2508 C   0  0  0  0  0  0  0  0  0  0  0  0
  -29.1774  -22.8067   22.0492 C   0  0  0  0  0  0  0  0  0  0  0  0
  -32.0219  -16.6994   22.5447 C   0  0  0  0  0  0  0  0  0  0  0  0
  -31.8215  -18.4506   24.1970 C   0  0  0  0  0  0  0  0  0  0  0  0
  -20.3938   -5.9519   24.9957 C   0  0  0  0  0  0  0  0  0  0  0  0
  -23.8447  -10.4739   20.9625 C   0  0  0  0  0  0  0  0  0  0  0  0
  -24.1645  -13.0017   20.8370 C   0  0  0  0  0  0  0  0  0  0  0  0
  -30.5977  -30.9933   18.2981 C   0  0  0  0  0  0  0  0  0  0  0  0
  -30.7938  -24.0893   20.7835 C   0  0  0  0  0  0  0  0  0  0  0  0
  -30.5040  -29.9878   19.2792 C   0  0  0  0  0  0  0  0  0  0  0  0
  -29.5349  -23.4779   20.8699 C   0  0  0  0  0  0  0  0  0  0  0  0
  -30.6352  -16.6818   22.3952 C   0  0  0  0  0  0  0  0  0  0  0  0
  -30.4348  -18.4330   24.0474 C   0  0  0  0  0  0  0  0  0  0  0  0
  -22.3760   -8.1558   21.4642 C   0  0  0  0  0  0  0  0  0  0  0  0
  -30.0645  -22.7338   23.1228 C   0  0  0  0  0  0  0  0  0  0  0  0
  -20.9054   -6.9797   22.8699 C   0  0  0  0  0  0  0  0  0  0  0  0
  -29.8416  -17.5486   23.1465 C   0  0  0  0  0  0  0  0  0  0  0  0
  -19.3856   -6.8924   25.2077 C   0  0  0  0  0  0  0  0  0  0  0  0
  -32.6150  -17.5838   23.4456 C   0  0  0  0  0  0  0  0  0  0  0  0
  -21.1537   -5.9956   23.8268 C   0  0  0  0  0  0  0  0  0  0  0  0
  -24.6039  -11.6709   20.7039 C   0  0  0  0  0  0  0  0  0  0  0  0
  -25.2509  -13.7599   20.4749 C   0  0  0  0  0  0  0  0  0  0  0  0
  -22.8882  -13.5072   21.2510 C   0  0  0  0  0  0  0  0  0  0  0  0
  -29.3543  -26.4763   19.2559 C   0  0  0  0  0  0  0  0  0  0  0  0
  -28.3658  -24.0998   17.2817 C   0  0  0  0  0  0  0  0  0  0  0  0
  -27.7032  -20.7801   16.8494 C   0  0  0  0  0  0  0  0  0  0  0  0
  -30.7071  -14.8546   20.6624 C   0  0  0  0  0  0  0  0  0  0  0  0
  -29.5491  -31.1562   17.2264 C   0  0  0  0  0  0  0  0  0  0  0  0
  -31.2133  -24.7944   19.5229 C   0  0  0  0  0  0  0  0  0  0  0  0
  -28.5491  -23.5283   19.7322 C   0  0  0  0  0  0  0  0  0  0  0  0
  -28.6709  -29.9214   17.0409 C   0  0  0  0  0  0  0  0  0  0  0  0
  -29.6209  -12.4249   18.2971 C   0  0  0  0  0  0  0  0  0  0  0  0
  -28.2008  -29.3928   18.3923 C   0  0  0  0  0  0  0  0  0  0  0  0
  -28.1827  -12.1217   18.7234 C   0  0  0  0  0  0  0  0  0  0  0  0
  -30.5305  -12.6649   19.5008 C   0  0  0  0  0  0  0  0  0  0  0  0
  -28.6133  -13.3759   20.8748 C   0  0  0  0  0  0  0  0  0  0  0  0
  -29.3895  -28.9642   19.2610 C   0  0  1  0  0  0  0  0  0  0  0  0
  -30.0320  -25.2651   18.6801 C   0  0  1  0  0  0  0  0  0  0  0  0
  -27.6454  -13.1910   19.6947 C   0  0  2  0  0  0  0  0  0  0  0  0
  -26.8722  -19.1438   15.1378 C   0  0  0  0  0  0  0  0  0  0  0  0
  -29.1223  -20.6305   26.7439 C   0  0  0  0  0  0  0  0  0  0  0  0
  -25.5132  -25.0871   17.7263 C   0  0  0  0  0  0  0  0  0  0  0  0
  -24.6902  -22.9093   16.8056 C   0  0  0  0  0  0  0  0  0  0  0  0
  -26.0374  -24.4396   15.3683 C   0  0  0  0  0  0  0  0  0  0  0  0
  -30.2409  -19.2581   16.9028 C   0  0  0  0  0  0  0  0  0  0  0  0
  -27.9315  -18.4003   22.0142 C   0  0  0  0  0  0  0  0  0  0  0  0
  -30.7493  -21.4614   25.0117 C   0  0  0  0  0  0  0  0  0  1  0  0
  -27.1752  -23.1728   17.2372 C   0  0  1  0  0  0  0  0  0  0  0  0
  -28.0949  -19.8096   15.7497 C   0  0  2  0  0  0  0  0  0  0  0  0
  -30.2116  -20.2397   25.7538 C   0  0  2  0  0  0  0  0  0  0  0  0
  -25.8716  -23.9027   16.8067 C   0  0  0  0  0  0  0  0  0  0  0  0
  -25.8708  -11.5853   20.2895 N   0  0  0  0  0  0  0  0  0  0  0  0
  -26.2366  -12.8718   20.1589 N   0  0  0  0  0  0  0  0  0  0  0  0
  -29.0035  -24.2347   18.5231 N   0  0  0  0  0  0  0  0  0  0  0  0
  -29.9599  -13.6930   20.3739 N   0  0  0  0  0  0  0  0  0  0  0  0
  -25.4497  -15.0930   20.3991 N   0  0  0  0  0  0  0  0  0  0  0  0
  -21.8835  -12.5900   21.5878 N   0  0  0  0  0  0  0  0  0  0  0  0
  -30.0492  -15.7759   21.4766 N   0  0  0  0  0  0  0  0  0  0  0  0
  -29.6613  -19.2967   24.8008 N   0  0  0  0  0  0  0  0  0  0  0  0
  -29.8914  -27.6766   18.8312 N   0  0  0  0  0  0  0  0  0  0  0  0
  -27.5537  -22.0636   16.3683 N   0  0  0  0  0  0  0  0  0  0  0  0
  -28.9876  -18.7461   16.2912 N   0  3  0  0  0  0  0  0  0  0  0  0
  -22.6409  -14.7358   21.3046 O   0  0  0  0  0  0  0  0  0  0  0  0
  -28.4129  -26.3326   20.0271 O   0  0  0  0  0  0  0  0  0  0  0  0
  -28.7215  -24.6773   16.2513 O   0  0  0  0  0  0  0  0  0  0  0  0
  -27.5420  -20.4334   18.0174 O   0  0  0  0  0  0  0  0  0  0  0  0
  -31.8360  -15.0322   20.1975 O   0  0  0  0  0  0  0  0  0  0  0  0
  -21.6594   -7.0249   21.7093 O   0  0  0  0  0  0  0  0  0  0  0  0
  -28.4844  -17.5325   22.9999 O   0  0  0  0  0  0  0  0  0  0  0  0
  -29.7050  -22.0782   24.2598 O   0  0  0  0  0  0  0  0  0  1  0  0
  -18.6569   -6.8515   26.3308 F   0  0  0  0  0  0  0  0  0  0  0  0
  -33.9467  -17.5995   23.5898 F   0  0  0  0  0  0  0  0  0  0  0  0
  -22.1216   -5.0902   23.6292 F   0  0  0  0  0  0  0  0  0  0  0  0
  1  2  1  0  0  0  0
  1  5  2  0  0  0  0
  2  6  2  0  0  0  0
  3  8  2  0  0  0  0
  3 17  1  0  0  0  0
  4  9  1  0  0  0  0
  4 17  2  0  0  0  0
  5 19  1  0  0  0  0
  6 21  1  0  0  0  0
  7 10  2  0  0  0  0
  7 20  1  0  0  0  0
  8 25  1  0  0  0  0
  9 25  2  0  0  0  0
 10 26  1  0  0  0  0
 11 12  2  0  0  0  0
 11 27  1  0  0  0  0
 12 29  1  0  0  0  0
 13 22  1  0  0  0  0
 13 26  2  0  0  0  0
 14 23  2  0  0  0  0
 14 30  1  0  0  0  0
 15 24  1  0  0  0  0
 15 30  2  0  0  0  0
 16 29  2  0  0  0  0
 16 31  1  0  0  0  0
 17 32  1  0  0  0  0
 18 32  1  0  0  0  0
 18 33  2  0  0  0  0
 18 34  1  0  0  0  0
 19 21  2  0  0  0  0
 19 39  1  0  0  0  0
 20 22  2  0  0  0  0
 20 40  1  0  0  0  0
 21 48  1  0  0  0  0
 22 41  1  0  0  0  0
 23 28  1  0  0  0  0
 23 69  1  0  0  0  0
 24 28  2  0  0  0  0
 24 70  1  0  0  0  0
 25 79  1  0  0  0  0
 26 81  1  0  0  0  0
 27 31  2  0  0  0  0
 27 79  1  0  0  0  0
 28 80  1  0  0  0  0
 29 82  1  0  0  0  0
 30 83  1  0  0  0  0
 31 84  1  0  0  0  0
 32 63  2  0  0  0  0
 33 64  1  0  0  0  0
 33 67  1  0  0  0  0
 34 68  1  0  0  0  0
 34 74  2  0  0  0  0
 35 49  1  0  0  0  0
 35 71  1  0  0  0  0
 35 75  2  0  0  0  0
 36 59  1  0  0  0  0
 36 65  1  0  0  0  0
 36 76  2  0  0  0  0
 37 60  1  0  0  0  0
 37 72  1  0  0  0  0
 37 77  2  0  0  0  0
 38 66  1  0  0  0  0
 38 69  1  0  0  0  0
 38 78  2  0  0  0  0
 39 42  1  0  0  0  0
 40 49  1  0  0  0  0
 41 65  1  0  0  0  0
 42 44  1  0  0  0  0
 43 45  1  0  0  0  0
 43 46  1  0  0  0  0
 44 48  1  0  0  0  0
 45 50  1  0  0  0  0
 46 66  1  0  0  0  0
 47 50  1  0  0  0  0
 47 66  1  0  0  0  0
 48 71  1  0  0  0  0
 49 65  1  0  0  0  0
 50 64  1  0  0  0  0
 51 60  1  0  0  0  0
 52 61  1  0  0  0  0
 53 62  1  0  0  0  0
 54 62  1  0  0  0  0
 55 62  1  0  0  0  0
 56 73  1  0  0  0  0
 57 80  1  0  0  0  0
 58 61  1  0  0  0  0
 58 81  1  0  0  0  0
 59 62  1  0  0  0  0
 59 72  1  0  0  0  0
 60 73  1  0  0  0  0
 61 70  1  0  0  0  0
 63 64  1  0  0  0  0
M  CHG  1  73   1
M  ISO  4  38 100  58 101  69 100  81 101
M  END
> <Batch ID>
0010

> <Smiles>
CNC(C)C(=O)NC(C(=O)N1Cc2cc([101O:1][101CH2:1]C(C)Nc3cc(F)cc([100NH:0][100C:0](=O)N4CCCC(n5nc(-c6ccc(Oc7ccc(F)cc7F)cc6)c(C(N)=O)c5N)C4)c3OC)ccc2CC1C(=O)NC1CCCc2ccccc21)C(C)(C)C

> <Shape>
0.237

> <Color>
0.213

> <Negative vol penalty>
0.000

$$$$

  -OEChem-04052315413D

 82 90  0     1  0  0  0  0  0999 V2000
  -29.4672  -33.9674   26.0575 C   0  0  0  0  0  0  0  0  0  0  0  0
  -29.6188  -32.8719   25.2135 C   0  0  0  0  0  0  0  0  0  0  0  0
  -24.6252   -9.0147   21.3673 C   0  0  0  0  0  0  0  0  0  0  0  0
  -23.3766  -10.8879   22.2444 C   0  0  0  0  0  0  0  0  0  0  0  0
  -28.2412  -34.2032   26.6783 C   0  0  0  0  0  0  0  0  0  0  0  0
  -28.5449  -32.0108   24.9908 C   0  0  0  0  0  0  0  0  0  0  0  0
  -27.2104  -29.0574   19.7944 C   0  0  0  0  0  0  0  0  0  0  0  0
  -27.8372  -20.4031   20.0854 C   0  0  0  0  0  0  0  0  0  0  0  0
  -28.2619  -19.0861   20.2607 C   0  0  0  0  0  0  0  0  0  0  0  0
  -24.0847   -8.1918   22.3553 C   0  0  0  0  0  0  0  0  0  0  0  0
  -22.8361  -10.0649   23.2324 C   0  0  0  0  0  0  0  0  0  0  0  0
  -27.4532  -27.7523   19.3684 C   0  0  0  0  0  0  0  0  0  0  0  0
  -21.1762   -6.5642   22.9251 C   0  0  0  0  0  0  0  0  0  0  0  0
  -20.7078   -5.3086   22.5382 C   0  0  0  0  0  0  0  0  0  0  0  0
  -25.2408  -27.1127   20.0866 C   0  0  0  0  0  0  0  0  0  0  0  0
  -25.8207  -19.9178   21.3245 C   0  0  0  0  0  0  0  0  0  0  0  0
  -22.2843   -4.2583   24.0377 C   0  0  0  0  0  0  0  0  0  0  0  0
  -24.2712  -10.3628   21.3118 C   0  0  0  0  0  0  0  0  0  0  0  0
  -24.3028  -11.4627   19.0103 C   0  0  0  0  0  0  0  0  0  0  0  0
  -27.1489  -33.3500   26.4555 C   0  0  0  0  0  0  0  0  0  0  0  0
  -25.9829  -29.3980   20.3807 C   0  0  0  0  0  0  0  0  0  0  0  0
  -27.3036  -32.2346   25.6103 C   0  0  0  0  0  0  0  0  0  0  0  0
  -24.9840  -28.4234   20.5169 C   0  0  0  0  0  0  0  0  0  0  0  0
  -26.6166  -20.8190   20.6174 C   0  0  0  0  0  0  0  0  0  0  0  0
  -27.4660  -18.1849   20.9679 C   0  0  0  0  0  0  0  0  0  0  0  0
  -23.1901   -8.7168   23.2878 C   0  0  0  0  0  0  0  0  0  0  0  0
  -26.4694  -26.7790   19.5171 C   0  0  0  0  0  0  0  0  0  0  0  0
  -22.1988   -6.6668   23.8683 C   0  0  0  0  0  0  0  0  0  0  0  0
  -21.2617   -4.1557   23.0945 C   0  0  0  0  0  0  0  0  0  0  0  0
  -26.2454  -18.6007   21.4998 C   0  0  0  0  0  0  0  0  0  0  0  0
  -22.7528   -5.5139   24.4246 C   0  0  0  0  0  0  0  0  0  0  0  0
  -24.8296  -11.2135   20.2918 C   0  0  0  0  0  0  0  0  0  0  0  0
  -25.1979  -12.3304   18.4338 C   0  0  0  0  0  0  0  0  0  0  0  0
  -23.1108  -10.9552   18.3960 C   0  0  0  0  0  0  0  0  0  0  0  0
  -25.0829  -30.4916   23.2264 C   0  0  0  0  0  0  0  0  0  0  0  0
  -22.1752  -30.6797   21.8008 C   0  0  0  0  0  0  0  0  0  0  0  0
  -26.8471  -23.1760   19.7659 C   0  0  0  0  0  0  0  0  0  0  0  0
  -20.0783  -29.5848   19.3409 C   0  0  0  0  0  0  0  0  0  0  0  0
  -29.0837  -16.2754   20.6792 C   0  0  0  0  0  0  0  0  0  0  0  0
  -25.8571  -33.6187   27.1860 C   0  0  0  0  0  0  0  0  0  0  0  0
  -25.7269  -30.8165   20.8106 C   0  0  0  0  0  0  0  0  0  0  0  0
  -23.6420  -28.7425   21.1214 C   0  0  0  0  0  0  0  0  0  0  0  0
  -24.6608  -32.8708   26.6031 C   0  0  0  0  0  0  0  0  0  0  0  0
  -29.8307  -13.5400   18.5259 C   0  0  0  0  0  0  0  0  0  0  0  0
  -25.0179  -31.4102   26.3463 C   0  0  0  0  0  0  0  0  0  0  0  0
  -28.5825  -12.6587   18.6130 C   0  0  0  0  0  0  0  0  0  0  0  0
  -30.1620  -14.1884   19.8688 C   0  0  0  0  0  0  0  0  0  0  0  0
  -27.8074  -14.0446   20.5791 C   0  0  0  0  0  0  0  0  0  0  0  0
  -26.1549  -31.2918   25.3243 C   0  0  1  0  0  0  0  0  0  0  0  0
  -24.6291  -30.9327   21.8636 C   0  0  1  0  0  0  0  0  0  0  0  0
  -27.3964  -13.4214   19.2351 C   0  0  2  0  0  0  0  0  0  0  0  0
  -17.7523  -29.8963   18.4521 C   0  0  0  0  0  0  0  0  0  0  0  0
  -21.0714  -29.0300   24.1181 C   0  0  0  0  0  0  0  0  0  0  0  0
  -19.0360  -28.5747   22.7331 C   0  0  0  0  0  0  0  0  0  0  0  0
  -19.6003  -30.9152   23.3859 C   0  0  0  0  0  0  0  0  0  0  0  0
  -21.0811  -30.5085   16.7141 C   0  0  0  0  0  0  0  0  0  0  0  0
  -26.0374  -24.4587   19.8089 C   0  0  0  0  0  0  0  0  0  1  0  0
  -21.0019  -29.7439   21.6379 C   0  0  1  0  0  0  0  0  0  0  0  0
  -19.2045  -30.3371   18.3535 C   0  0  2  0  0  0  0  0  0  0  0  0
  -20.2033  -29.5592   22.9591 C   0  0  0  0  0  0  0  0  0  0  0  0
  -25.9711  -11.8698   20.5165 N   0  0  0  0  0  0  0  0  0  0  0  0
  -26.1688  -12.5398   19.3684 N   0  0  0  0  0  0  0  0  0  0  0  0
  -23.4420  -30.1421   21.5322 N   0  0  0  0  0  0  0  0  0  0  0  0
  -28.9930  -14.8963   20.3953 N   0  0  0  0  0  0  0  0  0  0  0  0
  -25.2413  -12.9269   17.2236 N   0  0  0  0  0  0  0  0  0  0  0  0
  -22.3047  -10.0736   19.1291 N   0  0  0  0  0  0  0  0  0  0  0  0
  -26.1853  -22.1549   20.4391 N   0  0  0  0  0  0  0  0  0  0  0  0
  -27.8999  -16.8475   21.1438 N   0  0  0  0  0  0  0  0  0  0  0  0
  -25.6524  -31.4980   23.9829 N   0  0  0  0  0  0  0  0  0  0  0  0
  -20.2112  -30.2696   20.5303 N   0  0  0  0  0  0  0  0  0  0  0  0
  -19.6744  -30.0985   16.9595 N   0  3  0  0  0  0  0  0  0  0  0  0
  -22.7792  -11.2612   17.2256 O   0  0  0  0  0  0  0  0  0  0  0  0
  -24.9266  -29.3248   23.5669 O   0  0  0  0  0  0  0  0  0  0  0  0
  -21.9746  -31.8467   22.1465 O   0  0  0  0  0  0  0  0  0  0  0  0
  -27.9319  -23.1198   19.1960 O   0  0  0  0  0  0  0  0  0  0  0  0
  -20.5887  -28.4966   19.0842 O   0  0  0  0  0  0  0  0  0  0  0  0
  -30.1266  -16.9085   20.4960 O   0  0  0  0  0  0  0  0  0  0  0  0
  -22.6623   -7.9141   24.2519 O   0  0  0  0  0  0  0  0  0  0  0  0
  -26.7040  -25.5042   19.1027 O   0  0  0  0  0  0  0  0  0  1  0  0
  -20.8107   -2.9501   22.7240 F   0  0  0  0  0  0  0  0  0  0  0  0
  -25.4715  -17.7428   22.1800 F   0  0  0  0  0  0  0  0  0  0  0  0
  -23.7346   -5.6062   25.3320 F   0  0  0  0  0  0  0  0  0  0  0  0
  1  2  1  0  0  0  0
  1  5  2  0  0  0  0
  2  6  2  0  0  0  0
  3 10  2  0  0  0  0
  3 18  1  0  0  0  0
  4 11  1  0  0  0  0
  4 18  2  0  0  0  0
  5 20  1  0  0  0  0
  6 22  1  0  0  0  0
  7 12  2  0  0  0  0
  7 21  1  0  0  0  0
  8  9  2  0  0  0  0
  8 24  1  0  0  0  0
  9 25  1  0  0  0  0
 10 26  1  0  0  0  0
 11 26  2  0  0  0  0
 12 27  1  0  0  0  0
 13 14  2  0  0  0  0
 13 28  1  0  0  0  0
 14 29  1  0  0  0  0
 15 23  1  0  0  0  0
 15 27  2  0  0  0  0
 16 24  2  0  0  0  0
 16 30  1  0  0  0  0
 17 29  2  0  0  0  0
 17 31  1  0  0  0  0
 18 32  1  0  0  0  0
 19 32  1  0  0  0  0
 19 33  2  0  0  0  0
 19 34  1  0  0  0  0
 20 22  2  0  0  0  0
 20 40  1  0  0  0  0
 21 23  2  0  0  0  0
 21 41  1  0  0  0  0
 22 49  1  0  0  0  0
 23 42  1  0  0  0  0
 24 67  1  0  0  0  0
 25 30  2  0  0  0  0
 25 68  1  0  0  0  0
 26 78  1  0  0  0  0
 27 79  1  0  0  0  0
 28 31  2  0  0  0  0
 28 78  1  0  0  0  0
 29 80  1  0  0  0  0
 30 81  1  0  0  0  0
 31 82  1  0  0  0  0
 32 61  2  0  0  0  0
 33 62  1  0  0  0  0
 33 65  1  0  0  0  0
 34 66  1  0  0  0  0
 34 72  2  0  0  0  0
 35 50  1  0  0  0  0
 35 69  1  0  0  0  0
 35 73  2  0  0  0  0
 36 58  1  0  0  0  0
 36 63  1  0  0  0  0
 36 74  2  0  0  0  0
 37 57  1  0  0  0  0
 37 67  1  0  0  0  0
 37 75  2  0  0  0  0
 38 59  1  0  0  0  0
 38 70  1  0  0  0  0
 38 76  2  0  0  0  0
 39 64  1  0  0  0  0
 39 68  1  0  0  0  0
 39 77  2  0  0  0  0
 40 43  1  0  0  0  0
 41 50  1  0  0  0  0
 42 63  1  0  0  0  0
 43 45  1  0  0  0  0
 44 46  1  0  0  0  0
 44 47  1  0  0  0  0
 45 49  1  0  0  0  0
 46 51  1  0  0  0  0
 47 64  1  0  0  0  0
 48 51  1  0  0  0  0
 48 64  1  0  0  0  0
 49 69  1  0  0  0  0
 50 63  1  0  0  0  0
 51 62  1  0  0  0  0
 52 59  1  0  0  0  0
 53 60  1  0  0  0  0
 54 60  1  0  0  0  0
 55 60  1  0  0  0  0
 56 71  1  0  0  0  0
 57 79  1  0  0  0  0
 58 60  1  0  0  0  0
 58 70  1  0  0  0  0
 59 71  1  0  0  0  0
 61 62  1  0  0  0  0
M  CHG  1  71   1
M  ISO  4  39 100  57 101  68 100  79 101
M  END
> <Batch ID>
0010

> <Smiles>
CNC(C)C(=O)NC(C(=O)N1Cc2cc([101O:1][101CH2:1]C(=O)Nc3ccc([100NH:0][100C:0](=O)N4CCCC(n5nc(-c6ccc(Oc7ccc(F)cc7F)cc6)c(C(N)=O)c5N)C4)c(F)c3)ccc2CC1C(=O)NC1CCCc2ccccc21)C(C)(C)C

> <Shape>
0.309

> <Color>
0.101

> <Negative vol penalty>
0.000

$$$$

  -OEChem-04052315413D

 84 92  0     1  0  0  0  0  0999 V2000
  -30.2201  -31.5850   26.0195 C   0  0  0  0  0  0  0  0  0  0  0  0
  -29.7498  -30.5270   25.2482 C   0  0  0  0  0  0  0  0  0  0  0  0
  -24.3766   -9.4568   21.5462 C   0  0  0  0  0  0  0  0  0  0  0  0
  -24.7493  -10.6465   23.6157 C   0  0  0  0  0  0  0  0  0  0  0  0
  -29.3196  -32.4769   26.6003 C   0  0  0  0  0  0  0  0  0  0  0  0
  -28.3786  -30.3597   25.0581 C   0  0  0  0  0  0  0  0  0  0  0  0
  -27.1955  -29.3346   20.2421 C   0  0  0  0  0  0  0  0  0  0  0  0
  -30.0120  -20.8990   19.6728 C   0  0  0  0  0  0  0  0  0  0  0  0
  -29.9889  -19.5097   19.7952 C   0  0  0  0  0  0  0  0  0  0  0  0
  -24.0115   -8.3192   22.2659 C   0  0  0  0  0  0  0  0  0  0  0  0
  -24.3841   -9.5088   24.3354 C   0  0  0  0  0  0  0  0  0  0  0  0
  -27.4088  -28.0305   19.7978 C   0  0  0  0  0  0  0  0  0  0  0  0
  -22.6341   -5.2126   23.5570 C   0  0  0  0  0  0  0  0  0  0  0  0
  -21.4986   -4.5181   23.1400 C   0  0  0  0  0  0  0  0  0  0  0  0
  -25.0619  -27.5540   20.0883 C   0  0  0  0  0  0  0  0  0  0  0  0
  -27.7764  -21.0162   20.5813 C   0  0  0  0  0  0  0  0  0  0  0  0
  -20.1556   -6.4922   23.5091 C   0  0  0  0  0  0  0  0  0  0  0  0
  -24.7455  -10.6205   22.2211 C   0  0  0  0  0  0  0  0  0  0  0  0
  -24.2772  -12.8305   21.0361 C   0  0  0  0  0  0  0  0  0  0  0  0
  -27.9370  -32.3262   26.4093 C   0  0  0  0  0  0  0  0  0  0  0  0
  -25.9136  -29.7558   20.6238 C   0  0  0  0  0  0  0  0  0  0  0  0
  -27.4586  -31.2497   25.6381 C   0  0  0  0  0  0  0  0  0  0  0  0
  -24.8345  -28.8648   20.5347 C   0  0  0  0  0  0  0  0  0  0  0  0
  -28.9057  -21.6522   20.0659 C   0  0  0  0  0  0  0  0  0  0  0  0
  -28.8596  -18.8736   20.3105 C   0  0  0  0  0  0  0  0  0  0  0  0
  -24.0152   -8.3451   23.6605 C   0  0  0  0  0  0  0  0  0  0  0  0
  -26.3425  -27.1391   19.7236 C   0  0  0  0  0  0  0  0  0  0  0  0
  -22.5304   -6.5469   23.9501 C   0  0  0  0  0  0  0  0  0  0  0  0
  -27.7533  -19.6269   20.7036 C   0  0  0  0  0  0  0  0  0  0  0  0
  -20.2594   -5.1579   23.1160 C   0  0  0  0  0  0  0  0  0  0  0  0
  -21.2912   -7.1867   23.9261 C   0  0  0  0  0  0  0  0  0  0  0  0
  -25.1233  -11.7959   21.4782 C   0  0  0  0  0  0  0  0  0  0  0  0
  -25.1139  -13.7034   20.3845 C   0  0  0  0  0  0  0  0  0  0  0  0
  -22.8616  -12.9884   21.1997 C   0  0  0  0  0  0  0  0  0  0  0  0
  -24.6116  -30.8146   23.3234 C   0  0  0  0  0  0  0  0  0  0  0  0
  -22.0247  -31.3011   21.4277 C   0  0  0  0  0  0  0  0  0  0  0  0
  -27.7180  -23.7822   19.7106 C   0  0  0  0  0  0  0  0  0  0  0  0
  -20.3176  -30.4801   18.5889 C   0  0  0  0  0  0  0  0  0  0  0  0
  -29.8723  -16.5786   20.0790 C   0  0  0  0  0  0  0  0  0  0  0  0
  -27.0002  -33.2880   27.0962 C   0  0  0  0  0  0  0  0  0  0  0  0
  -25.6952  -31.1738   21.0756 C   0  0  0  0  0  0  0  0  0  0  0  0
  -23.4353  -29.2735   20.9135 C   0  0  0  0  0  0  0  0  0  0  0  0
  -25.5799  -33.2589   26.5373 C   0  0  0  0  0  0  0  0  0  0  0  0
  -29.9469  -13.1968   18.9678 C   0  0  0  0  0  0  0  0  0  0  0  0
  -25.0981  -31.8203   26.3785 C   0  0  0  0  0  0  0  0  0  0  0  0
  -28.6290  -12.6160   19.4855 C   0  0  0  0  0  0  0  0  0  0  0  0
  -30.5543  -14.1923   19.9545 C   0  0  0  0  0  0  0  0  0  0  0  0
  -28.3350  -14.6880   20.9022 C   0  0  0  0  0  0  0  0  0  0  0  0
  -25.9796  -31.0494   25.3884 C   0  0  1  0  0  0  0  0  0  0  0  0
  -24.4409  -31.3431   21.9272 C   0  0  1  0  0  0  0  0  0  0  0  0
  -27.6523  -13.7288   19.9136 C   0  0  2  0  0  0  0  0  0  0  0  0
  -18.2161  -31.0203   17.3283 C   0  0  0  0  0  0  0  0  0  0  0  0
  -20.4055  -29.6653   23.4309 C   0  0  0  0  0  0  0  0  0  0  0  0
  -18.6180  -29.4359   21.6929 C   0  0  0  0  0  0  0  0  0  0  0  0
  -19.2360  -31.6943   22.5534 C   0  0  0  0  0  0  0  0  0  0  0  0
  -30.2163  -23.7998   20.0489 C   0  0  0  0  0  0  0  0  0  0  0  0
  -21.8365  -31.4131   16.2265 C   0  0  0  0  0  0  0  0  0  0  0  0
  -25.6297  -18.6457   20.2752 C   0  0  0  0  0  0  0  0  0  0  0  0
  -27.8291  -25.2912   19.5470 C   0  0  0  0  0  0  0  0  0  1  0  0
  -20.8302  -30.4746   21.0162 C   0  0  1  0  0  0  0  0  0  0  0  0
  -19.6923  -31.3399   17.5054 C   0  0  2  0  0  0  0  0  0  0  0  0
  -19.7990  -30.3090   22.1680 C   0  0  0  0  0  0  0  0  0  0  0  0
  -26.3995  -11.9918   21.1363 N   0  0  0  0  0  0  0  0  0  0  0  0
  -26.3616  -13.1596   20.4723 N   0  0  0  0  0  0  0  0  0  0  0  0
  -23.2739  -30.6686   21.3551 N   0  0  0  0  0  0  0  0  0  0  0  0
  -29.5732  -15.2195   20.3113 N   0  0  0  0  0  0  0  0  0  0  0  0
  -24.8966  -14.8754   19.7508 N   0  0  0  0  0  0  0  0  0  0  0  0
  -22.1549  -11.9980   21.8954 N   0  0  0  0  0  0  0  0  0  0  0  0
  -28.8509  -17.4616   20.4278 N   0  0  0  0  0  0  0  0  0  0  0  0
  -25.6426  -31.4071   24.0272 N   0  0  0  0  0  0  0  0  0  0  0  0
  -20.2904  -31.1064   19.8171 N   0  0  0  0  0  0  0  0  0  0  0  0
  -28.9297  -23.0953   19.9379 N   0  0  0  0  0  0  0  0  0  0  0  0
  -20.3814  -31.1147   16.2033 N   0  3  0  0  0  0  0  0  0  0  0  0
  -22.2392  -13.9702   20.7284 O   0  0  0  0  0  0  0  0  0  0  0  0
  -23.8623  -29.9353   23.7324 O   0  0  0  0  0  0  0  0  0  0  0  0
  -21.8563  -32.4671   21.7932 O   0  0  0  0  0  0  0  0  0  0  0  0
  -26.6079  -23.2542   19.6076 O   0  0  0  0  0  0  0  0  0  0  0  0
  -20.7803  -29.3630   18.3687 O   0  0  0  0  0  0  0  0  0  0  0  0
  -30.9442  -16.9312   19.5802 O   0  0  0  0  0  0  0  0  0  0  0  0
  -23.6588   -7.2352   24.3631 O   0  0  0  0  0  0  0  0  0  0  0  0
  -26.6391  -19.0251   21.2081 O   0  0  0  0  0  0  0  0  0  0  0  0
  -26.5481  -25.8654   19.2908 O   0  0  0  0  0  0  0  0  0  1  0  0
  -19.1693   -4.4913   22.7141 F   0  0  0  0  0  0  0  0  0  0  0  0
  -21.1855   -8.4688   24.3015 F   0  0  0  0  0  0  0  0  0  0  0  0
  1  2  1  0  0  0  0
  1  5  2  0  0  0  0
  2  6  2  0  0  0  0
  3 10  2  0  0  0  0
  3 18  1  0  0  0  0
  4 11  1  0  0  0  0
  4 18  2  0  0  0  0
  5 20  1  0  0  0  0
  6 22  1  0  0  0  0
  7 12  2  0  0  0  0
  7 21  1  0  0  0  0
  8  9  2  0  0  0  0
  8 24  1  0  0  0  0
  9 25  1  0  0  0  0
 10 26  1  0  0  0  0
 11 26  2  0  0  0  0
 12 27  1  0  0  0  0
 13 14  2  0  0  0  0
 13 28  1  0  0  0  0
 14 30  1  0  0  0  0
 15 23  1  0  0  0  0
 15 27  2  0  0  0  0
 16 24  2  0  0  0  0
 16 29  1  0  0  0  0
 17 30  2  0  0  0  0
 17 31  1  0  0  0  0
 18 32  1  0  0  0  0
 19 32  1  0  0  0  0
 19 33  2  0  0  0  0
 19 34  1  0  0  0  0
 20 22  2  0  0  0  0
 20 40  1  0  0  0  0
 21 23  2  0  0  0  0
 21 41  1  0  0  0  0
 22 49  1  0  0  0  0
 23 42  1  0  0  0  0
 24 72  1  0  0  0  0
 25 29  2  0  0  0  0
 25 69  1  0  0  0  0
 26 80  1  0  0  0  0
 27 82  1  0  0  0  0
 28 31  2  0  0  0  0
 28 80  1  0  0  0  0
 29 81  1  0  0  0  0
 30 83  1  0  0  0  0
 31 84  1  0  0  0  0
 32 63  2  0  0  0  0
 33 64  1  0  0  0  0
 33 67  1  0  0  0  0
 34 68  1  0  0  0  0
 34 74  2  0  0  0  0
 35 50  1  0  0  0  0
 35 70  1  0  0  0  0
 35 75  2  0  0  0  0
 36 60  1  0  0  0  0
 36 65  1  0  0  0  0
 36 76  2  0  0  0  0
 37 59  1  0  0  0  0
 37 72  1  0  0  0  0
 37 77  2  0  0  0  0
 38 61  1  0  0  0  0
 38 71  1  0  0  0  0
 38 78  2  0  0  0  0
 39 66  1  0  0  0  0
 39 69  1  0  0  0  0
 39 79  2  0  0  0  0
 40 43  1  0  0  0  0
 41 50  1  0  0  0  0
 42 65  1  0  0  0  0
 43 45  1  0  0  0  0
 44 46  1  0  0  0  0
 44 47  1  0  0  0  0
 45 49  1  0  0  0  0
 46 51  1  0  0  0  0
 47 66  1  0  0  0  0
 48 51  1  0  0  0  0
 48 66  1  0  0  0  0
 49 70  1  0  0  0  0
 50 65  1  0  0  0  0
 51 64  1  0  0  0  0
 52 61  1  0  0  0  0
 53 62  1  0  0  0  0
 54 62  1  0  0  0  0
 55 62  1  0  0  0  0
 56 72  1  0  0  0  0
 57 73  1  0  0  0  0
 58 81  1  0  0  0  0
 59 82  1  0  0  0  0
 60 62  1  0  0  0  0
 60 71  1  0  0  0  0
 61 73  1  0  0  0  0
 63 64  1  0  0  0  0
M  CHG  1  73   1
M  ISO  4  39 100  59 101  69 100  82 101
M  END
> <Batch ID>
0010

> <Smiles>
CNC(C)C(=O)NC(C(=O)N1Cc2cc([101O:1][101CH2:1]C(=O)N(C)c3ccc([100NH:0][100C:0](=O)N4CCCC(n5nc(-c6ccc(Oc7ccc(F)cc7F)cc6)c(C(N)=O)c5N)C4)c(OC)c3)ccc2CC1C(=O)NC1CCCc2ccccc21)C(C)(C)C

> <Shape>
0.355

> <Color>
0.140

> <Negative vol penalty>
0.000

$$$$

  -OEChem-04052315413D

 82 90  0     1  0  0  0  0  0999 V2000
  -27.3112  -30.2189   18.6029 C   0  0  0  0  0  0  0  0  0  0  0  0
  -27.2595  -28.8379   18.7627 C   0  0  0  0  0  0  0  0  0  0  0  0
  -30.7468  -23.2381   20.7011 C   0  0  0  0  0  0  0  0  0  0  0  0
  -29.3769  -23.2198   18.7111 C   0  0  0  0  0  0  0  0  0  0  0  0
  -26.4312  -31.0350   19.3125 C   0  0  0  0  0  0  0  0  0  0  0  0
  -26.3284  -28.2722   19.6331 C   0  0  0  0  0  0  0  0  0  0  0  0
  -23.4155  -22.9295   18.9428 C   0  0  0  0  0  0  0  0  0  0  0  0
  -31.4051  -24.3771   20.2375 C   0  0  0  0  0  0  0  0  0  0  0  0
  -30.0352  -24.3589   18.2475 C   0  0  0  0  0  0  0  0  0  0  0  0
  -23.6490  -21.6592   19.4677 C   0  0  0  0  0  0  0  0  0  0  0  0
  -33.2002  -27.4997   19.7455 C   0  0  0  0  0  0  0  0  0  0  0  0
  -33.4133  -28.5393   20.6508 C   0  0  0  0  0  0  0  0  0  0  0  0
  -22.0509  -22.0964   21.2210 C   0  0  0  0  0  0  0  0  0  0  0  0
  -22.6257  -14.7278   21.0150 C   0  0  0  0  0  0  0  0  0  0  0  0
  -25.1162  -13.4885   20.8046 C   0  0  0  0  0  0  0  0  0  0  0  0
  -31.0282  -28.7429   20.9783 C   0  0  0  0  0  0  0  0  0  0  0  0
  -29.7328  -22.6594   19.9379 C   0  0  0  0  0  0  0  0  0  0  0  0
  -27.8939  -21.4355   21.2139 C   0  0  0  0  0  0  0  0  0  0  0  0
  -25.4824  -30.4785   20.1847 C   0  0  0  0  0  0  0  0  0  0  0  0
  -22.5044  -23.7984   19.5604 C   0  0  0  0  0  0  0  0  0  0  0  0
  -25.4358  -29.0817   20.3560 C   0  0  0  0  0  0  0  0  0  0  0  0
  -21.8057  -23.3763   20.7005 C   0  0  0  0  0  0  0  0  0  0  0  0
  -22.8238  -13.4623   21.5670 C   0  0  0  0  0  0  0  0  0  0  0  0
  -24.9181  -14.7541   20.2525 C   0  0  0  0  0  0  0  0  0  0  0  0
  -31.0493  -24.9375   19.0107 C   0  0  0  0  0  0  0  0  0  0  0  0
  -22.9688  -21.2435   20.6086 C   0  0  0  0  0  0  0  0  0  0  0  0
  -31.9012  -27.0818   19.4565 C   0  0  0  0  0  0  0  0  0  0  0  0
  -23.6728  -15.3737   20.3577 C   0  0  0  0  0  0  0  0  0  0  0  0
  -32.3273  -29.1608   21.2672 C   0  0  0  0  0  0  0  0  0  0  0  0
  -24.0690  -12.8426   21.4619 C   0  0  0  0  0  0  0  0  0  0  0  0
  -30.8152  -27.7033   20.0730 C   0  0  0  0  0  0  0  0  0  0  0  0
  -29.0527  -21.4825   20.4160 C   0  0  0  0  0  0  0  0  0  0  0  0
  -27.6531  -20.0949   21.3910 C   0  0  0  0  0  0  0  0  0  0  0  0
  -27.1056  -22.5077   21.7473 C   0  0  0  0  0  0  0  0  0  0  0  0
  -22.7106  -26.6554   20.9383 C   0  0  0  0  0  0  0  0  0  0  0  0
  -19.4806  -26.3897   21.0768 C   0  0  0  0  0  0  0  0  0  0  0  0
  -16.7403  -24.3562   21.1237 C   0  0  0  0  0  0  0  0  0  0  0  0
  -27.2839  -14.9079   19.4006 C   0  0  0  0  0  0  0  0  0  0  0  0
  -24.5836  -31.4040   20.9659 C   0  0  0  0  0  0  0  0  0  0  0  0
  -22.2440  -25.1555   18.9664 C   0  0  0  0  0  0  0  0  0  0  0  0
  -20.8023  -24.2635   21.3894 C   0  0  0  0  0  0  0  0  0  0  0  0
  -23.3771  -30.7026   21.5847 C   0  0  0  0  0  0  0  0  0  0  0  0
  -30.5225  -16.0638   20.3238 C   0  0  0  0  0  0  0  0  0  0  0  0
  -23.8061  -29.4116   22.2746 C   0  0  0  0  0  0  0  0  0  0  0  0
  -30.3335  -17.5727   20.4958 C   0  0  0  0  0  0  0  0  0  0  0  0
  -29.6827  -15.5147   19.1719 C   0  0  0  0  0  0  0  0  0  0  0  0
  -28.0651  -17.3585   19.4023 C   0  0  0  0  0  0  0  0  0  0  0  0
  -24.4234  -28.4290   21.2721 C   0  0  1  0  0  0  0  0  0  0  0  0
  -21.6751  -26.1496   19.9741 C   0  0  1  0  0  0  0  0  0  0  0  0
  -28.8413  -17.9464   20.5920 C   0  0  2  0  0  0  0  0  0  0  0  0
  -14.2368  -24.4276   21.2812 C   0  0  0  0  0  0  0  0  0  0  0  0
  -19.6874  -26.9568   24.0678 C   0  0  0  0  0  0  0  0  0  0  0  0
  -17.3526  -26.0897   24.3228 C   0  0  0  0  0  0  0  0  0  0  0  0
  -17.7864  -28.1044   22.9174 C   0  0  0  0  0  0  0  0  0  0  0  0
  -16.4212  -23.0788   18.4732 C   0  0  0  0  0  0  0  0  0  0  0  0
  -23.5658  -18.9772   20.2046 C   0  0  0  0  0  0  0  0  0  1  0  0
  -23.0655  -17.6435   20.7248 C   0  0  0  0  0  0  0  0  0  0  0  0
  -18.4958  -25.8290   22.0742 C   0  0  1  0  0  0  0  0  0  0  0  0
  -15.4367  -24.4045   20.3472 C   0  0  2  0  0  0  0  0  0  0  0  0
  -18.3508  -26.7287   23.3339 C   0  0  0  0  0  0  0  0  0  0  0  0
  -29.5161  -20.2684   20.1076 N   0  0  0  0  0  0  0  0  0  0  0  0
  -28.6440  -19.4458   20.7150 N   0  0  0  0  0  0  0  0  0  0  0  0
  -20.5871  -25.5836   20.7741 N   0  0  0  0  0  0  0  0  0  0  0  0
  -28.2802  -15.9046   19.3325 N   0  0  0  0  0  0  0  0  0  0  0  0
  -21.7635  -12.8104   22.2304 N   0  0  0  0  0  0  0  0  0  0  0  0
  -26.6927  -19.4199   22.0575 N   0  0  0  0  0  0  0  0  0  0  0  0
  -27.4939  -23.8253   21.4688 N   0  0  0  0  0  0  0  0  0  0  0  0
  -25.9912  -15.3967   19.5867 N   0  0  0  0  0  0  0  0  0  0  0  0
  -23.3874  -27.7775   20.4997 N   0  0  0  0  0  0  0  0  0  0  0  0
  -17.2506  -25.6181   21.3440 N   0  0  0  0  0  0  0  0  0  0  0  0
  -15.3183  -23.2135   19.4593 N   0  3  0  0  0  0  0  0  0  0  0  0
  -26.0963  -22.3036   22.4638 O   0  0  0  0  0  0  0  0  0  0  0  0
  -22.8817  -26.0718   22.0022 O   0  0  0  0  0  0  0  0  0  0  0  0
  -19.2720  -27.4990   20.5792 O   0  0  0  0  0  0  0  0  0  0  0  0
  -17.2525  -23.3045   21.5006 O   0  0  0  0  0  0  0  0  0  0  0  0
  -27.5604  -13.7078   19.3284 O   0  0  0  0  0  0  0  0  0  0  0  0
  -31.6913  -26.0491   18.5581 O   0  0  0  0  0  0  0  0  0  0  0  0
  -23.1954  -20.0044   21.1234 O   0  0  0  0  0  0  0  0  0  1  0  0
  -23.4572  -16.6163   19.8223 O   0  0  0  0  0  0  0  0  0  0  0  0
  -32.5321  -30.1580   22.1377 F   0  0  0  0  0  0  0  0  0  0  0  0
  -24.2716  -11.6277   21.9910 F   0  0  0  0  0  0  0  0  0  0  0  0
  -29.5650  -27.3054   19.8002 F   0  0  0  0  0  0  0  0  0  0  0  0
  1  2  1  0  0  0  0
  1  5  2  0  0  0  0
  2  6  2  0  0  0  0
  3  8  2  0  0  0  0
  3 17  1  0  0  0  0
  4  9  1  0  0  0  0
  4 17  2  0  0  0  0
  5 19  1  0  0  0  0
  6 21  1  0  0  0  0
  7 10  2  0  0  0  0
  7 20  1  0  0  0  0
  8 25  1  0  0  0  0
  9 25  2  0  0  0  0
 10 26  1  0  0  0  0
 11 12  2  0  0  0  0
 11 27  1  0  0  0  0
 12 29  1  0  0  0  0
 13 22  1  0  0  0  0
 13 26  2  0  0  0  0
 14 23  2  0  0  0  0
 14 28  1  0  0  0  0
 15 24  1  0  0  0  0
 15 30  2  0  0  0  0
 16 29  2  0  0  0  0
 16 31  1  0  0  0  0
 17 32  1  0  0  0  0
 18 32  1  0  0  0  0
 18 33  2  0  0  0  0
 18 34  1  0  0  0  0
 19 21  2  0  0  0  0
 19 39  1  0  0  0  0
 20 22  2  0  0  0  0
 20 40  1  0  0  0  0
 21 48  1  0  0  0  0
 22 41  1  0  0  0  0
 23 30  1  0  0  0  0
 23 65  1  0  0  0  0
 24 28  2  0  0  0  0
 24 68  1  0  0  0  0
 25 77  1  0  0  0  0
 26 78  1  0  0  0  0
 27 31  2  0  0  0  0
 27 77  1  0  0  0  0
 28 79  1  0  0  0  0
 29 80  1  0  0  0  0
 30 81  1  0  0  0  0
 31 82  1  0  0  0  0
 32 61  2  0  0  0  0
 33 62  1  0  0  0  0
 33 66  1  0  0  0  0
 34 67  1  0  0  0  0
 34 72  2  0  0  0  0
 35 49  1  0  0  0  0
 35 69  1  0  0  0  0
 35 73  2  0  0  0  0
 36 58  1  0  0  0  0
 36 63  1  0  0  0  0
 36 74  2  0  0  0  0
 37 59  1  0  0  0  0
 37 70  1  0  0  0  0
 37 75  2  0  0  0  0
 38 64  1  0  0  0  0
 38 68  1  0  0  0  0
 38 76  2  0  0  0  0
 39 42  1  0  0  0  0
 40 49  1  0  0  0  0
 41 63  1  0  0  0  0
 42 44  1  0  0  0  0
 43 45  1  0  0  0  0
 43 46  1  0  0  0  0
 44 48  1  0  0  0  0
 45 50  1  0  0  0  0
 46 64  1  0  0  0  0
 47 50  1  0  0  0  0
 47 64  1  0  0  0  0
 48 69  1  0  0  0  0
 49 63  1  0  0  0  0
 50 62  1  0  0  0  0
 51 59  1  0  0  0  0
 52 60  1  0  0  0  0
 53 60  1  0  0  0  0
 54 60  1  0  0  0  0
 55 71  1  0  0  0  0
 56 57  1  0  0  0  0
 56 78  1  0  0  0  0
 57 79  1  0  0  0  0
 58 60  1  0  0  0  0
 58 70  1  0  0  0  0
 59 71  1  0  0  0  0
 61 62  1  0  0  0  0
M  CHG  1  71   1
M  ISO  4  38 100  56 101  68 100  78 101
M  END
> <Batch ID>
0010

> <Smiles>
CNC(C)C(=O)NC(C(=O)N1Cc2cc([101O:1][101CH2:1]COc3cc(N)c(F)cc3[100NH:0][100C:0](=O)N3CCCC(n4nc(-c5ccc(Oc6ccc(F)cc6F)cc5)c(C(N)=O)c4N)C3)ccc2CC1C(=O)NC1CCCc2ccccc21)C(C)(C)C

> <Shape>
0.249

> <Color>
0.061

> <Negative vol penalty>
0.000

$$$$

  -OEChem-04052315413D

 83 91  0     1  0  0  0  0  0999 V2000
  -28.8000  -29.9101   27.5057 C   0  0  0  0  0  0  0  0  0  0  0  0
  -28.5258  -29.0582   26.4406 C   0  0  0  0  0  0  0  0  0  0  0  0
  -24.2803   -9.5089   21.9509 C   0  0  0  0  0  0  0  0  0  0  0  0
  -24.7220  -11.0865   23.7267 C   0  0  0  0  0  0  0  0  0  0  0  0
  -27.8095  -30.7666   27.9846 C   0  0  0  0  0  0  0  0  0  0  0  0
  -27.2606  -29.0617   25.8544 C   0  0  0  0  0  0  0  0  0  0  0  0
  -27.4639  -29.0362   20.7944 C   0  0  0  0  0  0  0  0  0  0  0  0
  -27.4487  -19.3987   19.4475 C   0  0  0  0  0  0  0  0  0  0  0  0
  -27.5682  -20.7782   19.6150 C   0  0  0  0  0  0  0  0  0  0  0  0
  -23.9839   -8.5274   22.8966 C   0  0  0  0  0  0  0  0  0  0  0  0
  -24.4255  -10.1050   24.6724 C   0  0  0  0  0  0  0  0  0  0  0  0
  -27.7399  -27.8184   20.1744 C   0  0  0  0  0  0  0  0  0  0  0  0
  -21.3842   -7.6952   24.8921 C   0  0  0  0  0  0  0  0  0  0  0  0
  -20.2473   -6.9149   24.6820 C   0  0  0  0  0  0  0  0  0  0  0  0
  -25.3902  -27.5277   19.7127 C   0  0  0  0  0  0  0  0  0  0  0  0
  -29.8432  -19.2241   19.1768 C   0  0  0  0  0  0  0  0  0  0  0  0
  -21.6208   -4.9279   24.6298 C   0  0  0  0  0  0  0  0  0  0  0  0
  -24.6494  -10.7885   22.3659 C   0  0  0  0  0  0  0  0  0  0  0  0
  -24.0602  -12.7155   20.8016 C   0  0  0  0  0  0  0  0  0  0  0  0
  -26.5345  -30.7875   27.3977 C   0  0  0  0  0  0  0  0  0  0  0  0
  -26.1454  -29.5045   20.8880 C   0  0  0  0  0  0  0  0  0  0  0  0
  -26.2518  -29.9183   26.3267 C   0  0  0  0  0  0  0  0  0  0  0  0
  -25.1003  -28.7530   20.3321 C   0  0  0  0  0  0  0  0  0  0  0  0
  -28.5862  -18.6216   19.2285 C   0  0  0  0  0  0  0  0  0  0  0  0
  -28.8252  -21.3808   19.5634 C   0  0  0  0  0  0  0  0  0  0  0  0
  -24.0565   -8.8254   24.2573 C   0  0  0  0  0  0  0  0  0  0  0  0
  -26.7027  -27.0625   19.6360 C   0  0  0  0  0  0  0  0  0  0  0  0
  -22.6394   -7.0919   24.9710 C   0  0  0  0  0  0  0  0  0  0  0  0
  -20.3656   -5.5312   24.5509 C   0  0  0  0  0  0  0  0  0  0  0  0
  -29.9627  -20.6037   19.3443 C   0  0  0  0  0  0  0  0  0  0  0  0
  -22.7577   -5.7083   24.8399 C   0  0  0  0  0  0  0  0  0  0  0  0
  -24.9563  -11.8026   21.3895 C   0  0  0  0  0  0  0  0  0  0  0  0
  -24.8383  -13.4593   19.9485 C   0  0  0  0  0  0  0  0  0  0  0  0
  -22.6506  -12.8768   21.0083 C   0  0  0  0  0  0  0  0  0  0  0  0
  -24.1710  -30.1835   23.2848 C   0  0  0  0  0  0  0  0  0  0  0  0
  -22.2584  -31.2507   20.8920 C   0  0  0  0  0  0  0  0  0  0  0  0
  -27.8805  -23.6450   19.3297 C   0  0  0  0  0  0  0  0  0  0  0  0
  -21.4026  -31.1216   17.5909 C   0  0  0  0  0  0  0  0  0  0  0  0
  -29.4923  -16.3046   18.8319 C   0  0  0  0  0  0  0  0  0  0  0  0
  -25.4819  -31.6969   27.9805 C   0  0  0  0  0  0  0  0  0  0  0  0
  -25.8672  -30.8330   21.5364 C   0  0  0  0  0  0  0  0  0  0  0  0
  -23.6698  -29.2210   20.3885 C   0  0  0  0  0  0  0  0  0  0  0  0
  -24.2813  -31.9064   27.0612 C   0  0  0  0  0  0  0  0  0  0  0  0
  -29.6070  -12.7728   18.3962 C   0  0  0  0  0  0  0  0  0  0  0  0
  -23.8045  -30.5733   26.4935 C   0  0  0  0  0  0  0  0  0  0  0  0
  -28.3336  -12.2806   19.0877 C   0  0  0  0  0  0  0  0  0  0  0  0
  -30.2345  -13.9527   19.1362 C   0  0  0  0  0  0  0  0  0  0  0  0
  -28.0521  -14.5839   20.0890 C   0  0  0  0  0  0  0  0  0  0  0  0
  -24.8990  -29.9105   25.6483 C   0  0  1  0  0  0  0  0  0  0  0  0
  -24.4299  -30.9678   22.0296 C   0  0  1  0  0  0  0  0  0  0  0  0
  -27.3483  -13.4378   19.3441 C   0  0  2  0  0  0  0  0  0  0  0  0
  -19.7750  -32.0803   15.9388 C   0  0  0  0  0  0  0  0  0  0  0  0
  -20.0655  -29.4474   22.0096 C   0  0  0  0  0  0  0  0  0  0  0  0
  -18.8425  -29.7078   19.8405 C   0  0  0  0  0  0  0  0  0  0  0  0
  -19.2835  -31.7046   21.2692 C   0  0  0  0  0  0  0  0  0  0  0  0
  -30.1756  -23.3591   20.3330 C   0  0  0  0  0  0  0  0  0  0  0  0
  -23.5727  -32.3110   15.9676 C   0  0  0  0  0  0  0  0  0  0  0  0
  -28.0978  -25.1408   19.5068 C   0  0  0  0  0  0  0  0  0  1  0  0
  -21.1979  -30.6313   20.0141 C   0  0  1  0  0  0  0  0  0  0  0  0
  -21.1509  -32.2183   16.5719 C   0  0  2  0  0  0  0  0  0  0  0  0
  -19.8740  -30.3628   20.7839 C   0  0  0  0  0  0  0  0  0  0  0  0
  -26.2078  -11.9510   20.9471 N   0  0  0  0  0  0  0  0  0  0  0  0
  -26.1037  -12.9657   20.0721 N   0  0  0  0  0  0  0  0  0  0  0  0
  -23.4481  -30.5234   21.0383 N   0  0  0  0  0  0  0  0  0  0  0  0
  -29.2438  -15.0119   19.3397 N   0  0  0  0  0  0  0  0  0  0  0  0
  -24.5566  -14.4807   19.1120 N   0  0  0  0  0  0  0  0  0  0  0  0
  -22.0078  -12.0288   21.9205 N   0  0  0  0  0  0  0  0  0  0  0  0
  -28.4650  -17.2202   19.0576 N   0  0  0  0  0  0  0  0  0  0  0  0
  -24.9815  -30.5374   24.3466 N   0  0  0  0  0  0  0  0  0  0  0  0
  -21.0514  -31.5172   18.8642 N   0  0  0  0  0  0  0  0  0  0  0  0
  -28.9460  -22.8142   19.7372 N   0  0  0  0  0  0  0  0  0  0  0  0
  -22.1738  -32.1643   15.4895 N   0  3  0  0  0  0  0  0  0  0  0  0
  -21.9780  -13.7362   20.3899 O   0  0  0  0  0  0  0  0  0  0  0  0
  -23.2994  -29.3222   23.2901 O   0  0  0  0  0  0  0  0  0  0  0  0
  -22.0421  -32.3431   21.4226 O   0  0  0  0  0  0  0  0  0  0  0  0
  -26.8250  -23.2543   18.8246 O   0  0  0  0  0  0  0  0  0  0  0  0
  -21.8611  -30.0225   17.2870 O   0  0  0  0  0  0  0  0  0  0  0  0
  -30.5276  -16.5722   18.2166 O   0  0  0  0  0  0  0  0  0  0  0  0
  -23.7671   -7.8680   25.1804 O   0  0  0  0  0  0  0  0  0  0  0  0
  -26.9693  -25.8732   19.0308 O   0  0  0  0  0  0  0  0  0  1  0  0
  -19.2736   -4.7818   24.3507 F   0  0  0  0  0  0  0  0  0  0  0  0
  -31.1758  -21.1722   19.2912 F   0  0  0  0  0  0  0  0  0  0  0  0
  -23.9608   -5.1229   24.9160 F   0  0  0  0  0  0  0  0  0  0  0  0
  1  2  1  0  0  0  0
  1  5  2  0  0  0  0
  2  6  2  0  0  0  0
  3 10  2  0  0  0  0
  3 18  1  0  0  0  0
  4 11  1  0  0  0  0
  4 18  2  0  0  0  0
  5 20  1  0  0  0  0
  6 22  1  0  0  0  0
  7 12  2  0  0  0  0
  7 21  1  0  0  0  0
  8  9  2  0  0  0  0
  8 24  1  0  0  0  0
  9 25  1  0  0  0  0
 10 26  1  0  0  0  0
 11 26  2  0  0  0  0
 12 27  1  0  0  0  0
 13 14  2  0  0  0  0
 13 28  1  0  0  0  0
 14 29  1  0  0  0  0
 15 23  1  0  0  0  0
 15 27  2  0  0  0  0
 16 24  2  0  0  0  0
 16 30  1  0  0  0  0
 17 29  2  0  0  0  0
 17 31  1  0  0  0  0
 18 32  1  0  0  0  0
 19 32  1  0  0  0  0
 19 33  2  0  0  0  0
 19 34  1  0  0  0  0
 20 22  2  0  0  0  0
 20 40  1  0  0  0  0
 21 23  2  0  0  0  0
 21 41  1  0  0  0  0
 22 49  1  0  0  0  0
 23 42  1  0  0  0  0
 24 68  1  0  0  0  0
 25 30  2  0  0  0  0
 25 71  1  0  0  0  0
 26 79  1  0  0  0  0
 27 80  1  0  0  0  0
 28 31  2  0  0  0  0
 28 79  1  0  0  0  0
 29 81  1  0  0  0  0
 30 82  1  0  0  0  0
 31 83  1  0  0  0  0
 32 62  2  0  0  0  0
 33 63  1  0  0  0  0
 33 66  1  0  0  0  0
 34 67  1  0  0  0  0
 34 73  2  0  0  0  0
 35 50  1  0  0  0  0
 35 69  1  0  0  0  0
 35 74  2  0  0  0  0
 36 59  1  0  0  0  0
 36 64  1  0  0  0  0
 36 75  2  0  0  0  0
 37 58  1  0  0  0  0
 37 71  1  0  0  0  0
 37 76  2  0  0  0  0
 38 60  1  0  0  0  0
 38 70  1  0  0  0  0
 38 77  2  0  0  0  0
 39 65  1  0  0  0  0
 39 68  1  0  0  0  0
 39 78  2  0  0  0  0
 40 43  1  0  0  0  0
 41 50  1  0  0  0  0
 42 64  1  0  0  0  0
 43 45  1  0  0  0  0
 44 46  1  0  0  0  0
 44 47  1  0  0  0  0
 45 49  1  0  0  0  0
 46 51  1  0  0  0  0
 47 65  1  0  0  0  0
 48 51  1  0  0  0  0
 48 65  1  0  0  0  0
 49 69  1  0  0  0  0
 50 64  1  0  0  0  0
 51 63  1  0  0  0  0
 52 60  1  0  0  0  0
 53 61  1  0  0  0  0
 54 61  1  0  0  0  0
 55 61  1  0  0  0  0
 56 71  1  0  0  0  0
 57 72  1  0  0  0  0
 58 80  1  0  0  0  0
 59 61  1  0  0  0  0
 59 70  1  0  0  0  0
 60 72  1  0  0  0  0
 62 63  1  0  0  0  0
M  CHG  1  72   1
M  ISO  4  39 100  58 101  68 100  80 101
M  END
> <Batch ID>
0010

> <Smiles>
CNC(C)C(=O)NC(C(=O)N1Cc2cc([101O:1][101CH2:1]C(=O)N(C)c3ccc([100NH:0][100C:0](=O)N4CCCC(n5nc(-c6ccc(Oc7ccc(F)cc7F)cc6)c(C(N)=O)c5N)C4)cc3F)ccc2CC1C(=O)NC1CCCc2ccccc21)C(C)(C)C

> <Shape>
0.297

> <Color>
0.120

> <Negative vol penalty>
0.000

$$$$

  -OEChem-04052315413D

 83 91  0     1  0  0  0  0  0999 V2000
  -30.8515  -31.8179   24.9125 C   0  0  0  0  0  0  0  0  0  0  0  0
  -30.3588  -30.6859   24.2712 C   0  0  0  0  0  0  0  0  0  0  0  0
  -24.6249   -8.9677   21.3589 C   0  0  0  0  0  0  0  0  0  0  0  0
  -23.3467  -10.8314   22.2130 C   0  0  0  0  0  0  0  0  0  0  0  0
  -29.9790  -32.6705   25.5875 C   0  0  0  0  0  0  0  0  0  0  0  0
  -28.9933  -30.4053   24.3055 C   0  0  0  0  0  0  0  0  0  0  0  0
  -27.1795  -29.0256   19.7831 C   0  0  0  0  0  0  0  0  0  0  0  0
  -27.7948  -20.3729   20.1270 C   0  0  0  0  0  0  0  0  0  0  0  0
  -28.2153  -19.0566   20.3168 C   0  0  0  0  0  0  0  0  0  0  0  0
  -24.0726   -8.1406   22.3369 C   0  0  0  0  0  0  0  0  0  0  0  0
  -22.7943  -10.0044   23.1910 C   0  0  0  0  0  0  0  0  0  0  0  0
  -27.4304  -27.7184   19.3683 C   0  0  0  0  0  0  0  0  0  0  0  0
  -21.1664   -6.4914   22.8536 C   0  0  0  0  0  0  0  0  0  0  0  0
  -20.7144   -5.2325   22.4583 C   0  0  0  0  0  0  0  0  0  0  0  0
  -25.2031  -27.0833   20.0428 C   0  0  0  0  0  0  0  0  0  0  0  0
  -25.7527  -19.8935   21.3257 C   0  0  0  0  0  0  0  0  0  0  0  0
  -22.2710   -4.1937   23.9863 C   0  0  0  0  0  0  0  0  0  0  0  0
  -24.2620  -10.3131   21.2969 C   0  0  0  0  0  0  0  0  0  0  0  0
  -24.3275  -11.4134   18.9963 C   0  0  0  0  0  0  0  0  0  0  0  0
  -28.6009  -32.4054   25.6219 C   0  0  0  0  0  0  0  0  0  0  0  0
  -25.9402  -29.3696   20.3419 C   0  0  0  0  0  0  0  0  0  0  0  0
  -28.1017  -31.2545   24.9827 C   0  0  0  0  0  0  0  0  0  0  0  0
  -24.9381  -28.3962   20.4616 C   0  0  0  0  0  0  0  0  0  0  0  0
  -26.5635  -20.7914   20.6315 C   0  0  0  0  0  0  0  0  0  0  0  0
  -27.4045  -18.1587   21.0111 C   0  0  0  0  0  0  0  0  0  0  0  0
  -23.1573   -8.6590   23.2529 C   0  0  0  0  0  0  0  0  0  0  0  0
  -26.4431  -26.7464   19.5008 C   0  0  0  0  0  0  0  0  0  0  0  0
  -22.1708   -6.6016   23.8153 C   0  0  0  0  0  0  0  0  0  0  0  0
  -26.1732  -18.5771   21.5156 C   0  0  0  0  0  0  0  0  0  0  0  0
  -21.2667   -4.0836   23.0246 C   0  0  0  0  0  0  0  0  0  0  0  0
  -22.7231   -5.4527   24.3816 C   0  0  0  0  0  0  0  0  0  0  0  0
  -24.8327  -11.1681   20.2872 C   0  0  0  0  0  0  0  0  0  0  0  0
  -25.2265  -12.2878   18.4362 C   0  0  0  0  0  0  0  0  0  0  0  0
  -23.1507  -10.8972   18.3604 C   0  0  0  0  0  0  0  0  0  0  0  0
  -24.9813  -30.4768   23.1630 C   0  0  0  0  0  0  0  0  0  0  0  0
  -22.1043  -30.6598   21.6758 C   0  0  0  0  0  0  0  0  0  0  0  0
  -26.8133  -23.1444   19.7741 C   0  0  0  0  0  0  0  0  0  0  0  0
  -20.0588  -29.5546   19.1776 C   0  0  0  0  0  0  0  0  0  0  0  0
  -29.0413  -16.2613   20.7520 C   0  0  0  0  0  0  0  0  0  0  0  0
  -27.7029  -33.3308   26.4041 C   0  0  0  0  0  0  0  0  0  0  0  0
  -25.6761  -30.7901   20.7598 C   0  0  0  0  0  0  0  0  0  0  0  0
  -23.5838  -28.7187   21.0363 C   0  0  0  0  0  0  0  0  0  0  0  0
  -26.2215  -33.1634   26.0760 C   0  0  0  0  0  0  0  0  0  0  0  0
  -29.8477  -13.5317   18.6128 C   0  0  0  0  0  0  0  0  0  0  0  0
  -25.8425  -31.6859   26.0575 C   0  0  0  0  0  0  0  0  0  0  0  0
  -28.6048  -12.6412   18.6771 C   0  0  0  0  0  0  0  0  0  0  0  0
  -30.1497  -14.1824   19.9615 C   0  0  0  0  0  0  0  0  0  0  0  0
  -27.7837  -14.0211   20.6287 C   0  0  0  0  0  0  0  0  0  0  0  0
  -26.6237  -30.9295   24.9764 C   0  0  1  0  0  0  0  0  0  0  0  0
  -24.5565  -30.9119   21.7890 C   0  0  1  0  0  0  0  0  0  0  0  0
  -27.4019  -13.3950   19.2775 C   0  0  2  0  0  0  0  0  0  0  0  0
  -17.7522  -29.8632   18.2387 C   0  0  0  0  0  0  0  0  0  0  0  0
  -20.9511  -29.0214   23.9771 C   0  0  0  0  0  0  0  0  0  0  0  0
  -18.9450  -28.5608   22.5518 C   0  0  0  0  0  0  0  0  0  0  0  0
  -19.4969  -30.9040   23.2055 C   0  0  0  0  0  0  0  0  0  0  0  0
  -21.1170  -30.4656   16.5681 C   0  0  0  0  0  0  0  0  0  0  0  0
  -24.4208  -16.9718   21.4281 C   0  0  0  0  0  0  0  0  0  0  0  0
  -26.0037  -24.4276   19.7942 C   0  0  0  0  0  0  0  0  0  1  0  0
  -20.9341  -29.7238   21.4927 C   0  0  1  0  0  0  0  0  0  0  0  0
  -19.2064  -30.3028   18.1686 C   0  0  2  0  0  0  0  0  0  0  0  0
  -20.1078  -29.5457   22.7976 C   0  0  0  0  0  0  0  0  0  0  0  0
  -25.9649  -11.8327   20.5327 N   0  0  0  0  0  0  0  0  0  0  0  0
  -26.1786  -12.5043   19.3884 N   0  0  0  0  0  0  0  0  0  0  0  0
  -23.3761  -30.1203   21.4364 N   0  0  0  0  0  0  0  0  0  0  0  0
  -28.9660  -14.8816   20.4665 N   0  0  0  0  0  0  0  0  0  0  0  0
  -25.2876  -12.8848   17.2270 N   0  0  0  0  0  0  0  0  0  0  0  0
  -22.3379  -10.0096   19.0787 N   0  0  0  0  0  0  0  0  0  0  0  0
  -26.1368  -22.1267   20.4380 N   0  0  0  0  0  0  0  0  0  0  0  0
  -27.8450  -16.8246   21.1950 N   0  0  0  0  0  0  0  0  0  0  0  0
  -26.0547  -31.1839   23.6703 N   0  0  0  0  0  0  0  0  0  0  0  0
  -20.1671  -30.2449   20.3663 N   0  0  0  0  0  0  0  0  0  0  0  0
  -19.7053  -30.0575   16.7859 N   0  3  0  0  0  0  0  0  0  0  0  0
  -22.8382  -11.2008   17.1841 O   0  0  0  0  0  0  0  0  0  0  0  0
  -24.3790  -29.5678   23.7221 O   0  0  0  0  0  0  0  0  0  0  0  0
  -21.8972  -31.8285   22.0118 O   0  0  0  0  0  0  0  0  0  0  0  0
  -27.9097  -23.0850   19.2274 O   0  0  0  0  0  0  0  0  0  0  0  0
  -20.5739  -28.4650   18.9367 O   0  0  0  0  0  0  0  0  0  0  0  0
  -30.0827  -16.9021   20.5879 O   0  0  0  0  0  0  0  0  0  0  0  0
  -22.6180   -7.8522   24.2073 O   0  0  0  0  0  0  0  0  0  0  0  0
  -25.3649  -17.7154   22.1954 O   0  0  0  0  0  0  0  0  0  0  0  0
  -26.6856  -25.4696   19.0973 O   0  0  0  0  0  0  0  0  0  1  0  0
  -20.8314   -2.8748   22.6460 F   0  0  0  0  0  0  0  0  0  0  0  0
  -23.6874   -5.5522   25.3068 F   0  0  0  0  0  0  0  0  0  0  0  0
  1  2  1  0  0  0  0
  1  5  2  0  0  0  0
  2  6  2  0  0  0  0
  3 10  2  0  0  0  0
  3 18  1  0  0  0  0
  4 11  1  0  0  0  0
  4 18  2  0  0  0  0
  5 20  1  0  0  0  0
  6 22  1  0  0  0  0
  7 12  2  0  0  0  0
  7 21  1  0  0  0  0
  8  9  2  0  0  0  0
  8 24  1  0  0  0  0
  9 25  1  0  0  0  0
 10 26  1  0  0  0  0
 11 26  2  0  0  0  0
 12 27  1  0  0  0  0
 13 14  2  0  0  0  0
 13 28  1  0  0  0  0
 14 30  1  0  0  0  0
 15 23  1  0  0  0  0
 15 27  2  0  0  0  0
 16 24  2  0  0  0  0
 16 29  1  0  0  0  0
 17 30  2  0  0  0  0
 17 31  1  0  0  0  0
 18 32  1  0  0  0  0
 19 32  1  0  0  0  0
 19 33  2  0  0  0  0
 19 34  1  0  0  0  0
 20 22  2  0  0  0  0
 20 40  1  0  0  0  0
 21 23  2  0  0  0  0
 21 41  1  0  0  0  0
 22 49  1  0  0  0  0
 23 42  1  0  0  0  0
 24 68  1  0  0  0  0
 25 29  2  0  0  0  0
 25 69  1  0  0  0  0
 26 79  1  0  0  0  0
 27 81  1  0  0  0  0
 28 31  2  0  0  0  0
 28 79  1  0  0  0  0
 29 80  1  0  0  0  0
 30 82  1  0  0  0  0
 31 83  1  0  0  0  0
 32 62  2  0  0  0  0
 33 63  1  0  0  0  0
 33 66  1  0  0  0  0
 34 67  1  0  0  0  0
 34 73  2  0  0  0  0
 35 50  1  0  0  0  0
 35 70  1  0  0  0  0
 35 74  2  0  0  0  0
 36 59  1  0  0  0  0
 36 64  1  0  0  0  0
 36 75  2  0  0  0  0
 37 58  1  0  0  0  0
 37 68  1  0  0  0  0
 37 76  2  0  0  0  0
 38 60  1  0  0  0  0
 38 71  1  0  0  0  0
 38 77  2  0  0  0  0
 39 65  1  0  0  0  0
 39 69  1  0  0  0  0
 39 78  2  0  0  0  0
 40 43  1  0  0  0  0
 41 50  1  0  0  0  0
 42 64  1  0  0  0  0
 43 45  1  0  0  0  0
 44 46  1  0  0  0  0
 44 47  1  0  0  0  0
 45 49  1  0  0  0  0
 46 51  1  0  0  0  0
 47 65  1  0  0  0  0
 48 51  1  0  0  0  0
 48 65  1  0  0  0  0
 49 70  1  0  0  0  0
 50 64  1  0  0  0  0
 51 63  1  0  0  0  0
 52 60  1  0  0  0  0
 53 61  1  0  0  0  0
 54 61  1  0  0  0  0
 55 61  1  0  0  0  0
 56 72  1  0  0  0  0
 57 80  1  0  0  0  0
 58 81  1  0  0  0  0
 59 61  1  0  0  0  0
 59 71  1  0  0  0  0
 60 72  1  0  0  0  0
 62 63  1  0  0  0  0
M  CHG  1  72   1
M  ISO  4  39 100  58 101  69 100  81 101
M  END
> <Batch ID>
0010

> <Smiles>
CNC(C)C(=O)NC(C(=O)N1Cc2cc([101O:1][101CH2:1]C(=O)Nc3ccc([100NH:0][100C:0](=O)N4CCCC(n5nc(-c6ccc(Oc7ccc(F)cc7F)cc6)c(C(N)=O)c5N)C4)c(OC)c3)ccc2CC1C(=O)NC1CCCc2ccccc21)C(C)(C)C

> <Shape>
0.306

> <Color>
0.100

> <Negative vol penalty>
0.000

$$$$

  -OEChem-04052315413D

 85 93  0     1  0  0  0  0  0999 V2000
  -27.1943  -35.0576   24.2178 C   0  0  0  0  0  0  0  0  0  0  0  0
  -27.5348  -33.7593   23.8518 C   0  0  0  0  0  0  0  0  0  0  0  0
  -22.1471  -11.0254   21.1800 C   0  0  0  0  0  0  0  0  0  0  0  0
  -24.2923  -11.9289   21.8273 C   0  0  0  0  0  0  0  0  0  0  0  0
  -25.9005  -35.3414   24.6531 C   0  0  0  0  0  0  0  0  0  0  0  0
  -26.5818  -32.7437   23.9220 C   0  0  0  0  0  0  0  0  0  0  0  0
  -26.5955  -29.7796   19.8160 C   0  0  0  0  0  0  0  0  0  0  0  0
  -25.8900  -20.0384   17.1939 C   0  0  0  0  0  0  0  0  0  0  0  0
  -27.1350  -20.5808   16.8756 C   0  0  0  0  0  0  0  0  0  0  0  0
  -22.7094   -9.7518   21.0944 C   0  0  0  0  0  0  0  0  0  0  0  0
  -24.8545  -10.6553   21.7418 C   0  0  0  0  0  0  0  0  0  0  0  0
  -27.6022  -28.8191   19.7275 C   0  0  0  0  0  0  0  0  0  0  0  0
  -23.6142   -7.2806   23.2175 C   0  0  0  0  0  0  0  0  0  0  0  0
  -22.9075   -6.2205   23.7853 C   0  0  0  0  0  0  0  0  0  0  0  0
  -26.0518  -27.1333   20.4849 C   0  0  0  0  0  0  0  0  0  0  0  0
  -26.7703  -19.2554   19.3032 C   0  0  0  0  0  0  0  0  0  0  0  0
  -22.7917   -5.1415   21.6267 C   0  0  0  0  0  0  0  0  0  0  0  0
  -22.9386  -12.1140   21.5464 C   0  0  0  0  0  0  0  0  0  0  0  0
  -21.7671  -14.0245   22.7652 C   0  0  0  0  0  0  0  0  0  0  0  0
  -24.9286  -34.3307   24.7194 C   0  0  0  0  0  0  0  0  0  0  0  0
  -25.3102  -29.4257   20.2508 C   0  0  0  0  0  0  0  0  0  0  0  0
  -25.2742  -33.0140   24.3599 C   0  0  0  0  0  0  0  0  0  0  0  0
  -25.0299  -28.0907   20.5756 C   0  0  0  0  0  0  0  0  0  0  0  0
  -28.0154  -19.7978   18.9849 C   0  0  0  0  0  0  0  0  0  0  0  0
  -25.7076  -19.3757   18.4077 C   0  0  0  0  0  0  0  0  0  0  0  0
  -28.1977  -20.4605   17.7711 C   0  0  0  0  0  0  0  0  0  0  0  0
  -24.0631   -9.5667   21.3754 C   0  0  0  0  0  0  0  0  0  0  0  0
  -27.3311  -27.4962   20.0647 C   0  0  0  0  0  0  0  0  0  0  0  0
  -23.9096   -7.2712   21.8542 C   0  0  0  0  0  0  0  0  0  0  0  0
  -22.4962   -5.1510   22.9899 C   0  0  0  0  0  0  0  0  0  0  0  0
  -23.4984   -6.2017   21.0589 C   0  0  0  0  0  0  0  0  0  0  0  0
  -22.3585  -13.4300   21.6344 C   0  0  0  0  0  0  0  0  0  0  0  0
  -21.3745  -15.2679   22.3337 C   0  0  0  0  0  0  0  0  0  0  0  0
  -21.5887  -13.4996   24.0875 C   0  0  0  0  0  0  0  0  0  0  0  0
  -23.4688  -30.2449   22.7088 C   0  0  0  0  0  0  0  0  0  0  0  0
  -21.2659  -28.4374   21.1589 C   0  0  0  0  0  0  0  0  0  0  0  0
  -29.7586  -22.3678   17.7921 C   0  0  0  0  0  0  0  0  0  0  0  0
  -20.6220  -25.9175   18.9492 C   0  0  0  0  0  0  0  0  0  0  0  0
  -23.2831  -18.8607   17.9572 C   0  0  0  0  0  0  0  0  0  0  0  0
  -23.5563  -34.6763   25.2412 C   0  0  0  0  0  0  0  0  0  0  0  0
  -24.2283  -30.4686   20.3152 C   0  0  0  0  0  0  0  0  0  0  0  0
  -23.6611  -27.6554   21.0284 C   0  0  0  0  0  0  0  0  0  0  0  0
  -22.5019  -33.6172   24.9301 C   0  0  0  0  0  0  0  0  0  0  0  0
  -19.9830  -17.5950   18.3862 C   0  0  0  0  0  0  0  0  0  0  0  0
  -23.0328  -32.2242   25.2533 C   0  0  0  0  0  0  0  0  0  0  0  0
  -20.1629  -16.4413   19.3755 C   0  0  0  0  0  0  0  0  0  0  0  0
  -21.1564  -17.6961   17.4133 C   0  0  0  0  0  0  0  0  0  0  0  0
  -22.6612  -16.6085   19.0325 C   0  0  0  0  0  0  0  0  0  0  0  0
  -24.2614  -31.8901   24.3987 C   0  0  1  0  0  0  0  0  0  0  0  0
  -23.0924  -30.0935   21.2621 C   0  0  1  0  0  0  0  0  0  0  0  0
  -21.5352  -16.5070   20.0743 C   0  0  2  0  0  0  0  0  0  0  0  0
  -29.1355  -19.6561   19.9637 C   0  0  0  0  0  0  0  0  0  0  0  0
  -18.7248  -24.6417   17.9145 C   0  0  0  0  0  0  0  0  0  0  0  0
  -20.8998  -26.8796   23.7568 C   0  0  0  0  0  0  0  0  0  0  0  0
  -19.7565  -25.0847   22.4379 C   0  0  0  0  0  0  0  0  0  0  0  0
  -18.7775  -27.3772   22.5309 C   0  0  0  0  0  0  0  0  0  0  0  0
  -30.4561  -20.2033   16.6950 C   0  0  0  0  0  0  0  0  0  0  0  0
  -21.3702  -26.7895   16.2218 C   0  0  0  0  0  0  0  0  0  0  0  0
  -28.6620  -23.0809   18.5799 C   0  0  0  0  0  0  0  0  0  0  0  0
  -29.0345  -24.5178   18.9419 C   0  0  0  0  0  0  0  0  0  0  0  0
  -27.9076  -25.2203   19.6856 C   0  0  0  0  0  0  0  0  0  1  0  0
  -20.8753  -26.9793   21.1770 C   0  0  1  0  0  0  0  0  0  0  0  0
  -19.6654  -25.8284   17.7738 C   0  0  2  0  0  0  0  0  0  0  0  0
  -20.1037  -26.5884   22.4690 C   0  0  0  0  0  0  0  0  0  0  0  0
  -22.3449  -14.2299   20.5649 N   0  0  0  0  0  0  0  0  0  0  0  0
  -21.7401  -15.3397   21.0217 N   0  0  0  0  0  0  0  0  0  0  0  0
  -22.6384  -28.7131   21.0812 N   0  0  0  0  0  0  0  0  0  0  0  0
  -22.4226  -17.7588   18.1466 N   0  0  0  0  0  0  0  0  0  0  0  0
  -20.7557  -16.2959   22.9523 N   0  0  0  0  0  0  0  0  0  0  0  0
  -22.0508  -12.2049   24.3604 N   0  0  0  0  0  0  0  0  0  0  0  0
  -24.4421  -18.8271   18.7320 N   0  0  0  0  0  0  0  0  0  0  0  0
  -23.8598  -31.5236   23.0576 N   0  0  0  0  0  0  0  0  0  0  0  0
  -20.1347  -26.7397   19.9431 N   0  0  0  0  0  0  0  0  0  0  0  0
  -29.4824  -21.0324   17.4224 N   0  0  0  0  0  0  0  0  0  0  0  0
  -20.4233  -25.6790   16.4994 N   0  3  0  0  0  0  0  0  0  0  0  0
  -21.0211  -14.1530   24.9955 O   0  0  0  0  0  0  0  0  0  0  0  0
  -23.4076  -29.2739   23.4539 O   0  0  0  0  0  0  0  0  0  0  0  0
  -20.3852  -29.2999   21.2045 O   0  0  0  0  0  0  0  0  0  0  0  0
  -30.8125  -22.9622   17.5520 O   0  0  0  0  0  0  0  0  0  0  0  0
  -21.6926  -25.3149   18.9839 O   0  0  0  0  0  0  0  0  0  0  0  0
  -22.9991  -19.7809   17.1861 O   0  0  0  0  0  0  0  0  0  0  0  0
  -24.6120   -8.3240   21.2922 O   0  0  0  0  0  0  0  0  0  0  0  0
  -28.3120  -26.5568   19.9798 O   0  0  0  0  0  0  0  0  0  1  0  0
  -21.8189   -4.1323   23.5356 F   0  0  0  0  0  0  0  0  0  0  0  0
  -23.7802   -6.1865   19.7489 F   0  0  0  0  0  0  0  0  0  0  0  0
  1  2  1  0  0  0  0
  1  5  2  0  0  0  0
  2  6  2  0  0  0  0
  3 10  2  0  0  0  0
  3 18  1  0  0  0  0
  4 11  1  0  0  0  0
  4 18  2  0  0  0  0
  5 20  1  0  0  0  0
  6 22  1  0  0  0  0
  7 12  2  0  0  0  0
  7 21  1  0  0  0  0
  8  9  2  0  0  0  0
  8 25  1  0  0  0  0
  9 26  1  0  0  0  0
 10 27  1  0  0  0  0
 11 27  2  0  0  0  0
 12 28  1  0  0  0  0
 13 14  2  0  0  0  0
 13 29  1  0  0  0  0
 14 30  1  0  0  0  0
 15 23  1  0  0  0  0
 15 28  2  0  0  0  0
 16 24  1  0  0  0  0
 16 25  2  0  0  0  0
 17 30  2  0  0  0  0
 17 31  1  0  0  0  0
 18 32  1  0  0  0  0
 19 32  1  0  0  0  0
 19 33  2  0  0  0  0
 19 34  1  0  0  0  0
 20 22  2  0  0  0  0
 20 40  1  0  0  0  0
 21 23  2  0  0  0  0
 21 41  1  0  0  0  0
 22 49  1  0  0  0  0
 23 42  1  0  0  0  0
 24 26  2  0  0  0  0
 24 52  1  0  0  0  0
 25 71  1  0  0  0  0
 26 74  1  0  0  0  0
 27 82  1  0  0  0  0
 28 83  1  0  0  0  0
 29 31  2  0  0  0  0
 29 82  1  0  0  0  0
 30 84  1  0  0  0  0
 31 85  1  0  0  0  0
 32 65  2  0  0  0  0
 33 66  1  0  0  0  0
 33 69  1  0  0  0  0
 34 70  1  0  0  0  0
 34 76  2  0  0  0  0
 35 50  1  0  0  0  0
 35 72  1  0  0  0  0
 35 77  2  0  0  0  0
 36 62  1  0  0  0  0
 36 67  1  0  0  0  0
 36 78  2  0  0  0  0
 37 59  1  0  0  0  0
 37 74  1  0  0  0  0
 37 79  2  0  0  0  0
 38 63  1  0  0  0  0
 38 73  1  0  0  0  0
 38 80  2  0  0  0  0
 39 68  1  0  0  0  0
 39 71  1  0  0  0  0
 39 81  2  0  0  0  0
 40 43  1  0  0  0  0
 41 50  1  0  0  0  0
 42 67  1  0  0  0  0
 43 45  1  0  0  0  0
 44 46  1  0  0  0  0
 44 47  1  0  0  0  0
 45 49  1  0  0  0  0
 46 51  1  0  0  0  0
 47 68  1  0  0  0  0
 48 51  1  0  0  0  0
 48 68  1  0  0  0  0
 49 72  1  0  0  0  0
 50 67  1  0  0  0  0
 51 66  1  0  0  0  0
 53 63  1  0  0  0  0
 54 64  1  0  0  0  0
 55 64  1  0  0  0  0
 56 64  1  0  0  0  0
 57 74  1  0  0  0  0
 58 75  1  0  0  0  0
 59 60  1  0  0  0  0
 60 61  1  0  0  0  0
 61 83  1  0  0  0  0
 62 64  1  0  0  0  0
 62 73  1  0  0  0  0
 63 75  1  0  0  0  0
 65 66  1  0  0  0  0
M  CHG  1  75   1
M  ISO  4  39 100  61 101  71 100  83 101
M  END
> <Batch ID>
0010

> <Smiles>
CNC(C)C(=O)NC(C(=O)N1Cc2cc([101O:1][101CH2:1]CCC(=O)N(C)c3ccc([100NH:0][100C:0](=O)N4CCCC(n5nc(-c6ccc(Oc7ccc(F)cc7F)cc6)c(C(N)=O)c5N)C4)cc3C)ccc2CC1C(=O)NC1CCCc2ccccc21)C(C)(C)C

> <Shape>
0.264

> <Color>
0.074

> <Negative vol penalty>
0.000

$$$$

  -OEChem-04052315413D

 81 89  0     1  0  0  0  0  0999 V2000
  -24.5738  -32.0556   29.0851 C   0  0  0  0  0  0  0  0  0  0  0  0
  -25.3302  -31.2090   28.2810 C   0  0  0  0  0  0  0  0  0  0  0  0
  -24.5838   -8.9930   21.5609 C   0  0  0  0  0  0  0  0  0  0  0  0
  -23.9301  -10.7076   23.1324 C   0  0  0  0  0  0  0  0  0  0  0  0
  -23.2505  -32.3371   28.7479 C   0  0  0  0  0  0  0  0  0  0  0  0
  -24.7634  -30.6426   27.1398 C   0  0  0  0  0  0  0  0  0  0  0  0
  -27.5845  -29.4338   21.8402 C   0  0  0  0  0  0  0  0  0  0  0  0
  -26.0332  -20.6131   19.0839 C   0  0  0  0  0  0  0  0  0  0  0  0
  -28.3128  -21.0359   19.7633 C   0  0  0  0  0  0  0  0  0  0  0  0
  -26.2893  -19.2420   19.0780 C   0  0  0  0  0  0  0  0  0  0  0  0
  -28.5689  -19.6648   19.7575 C   0  0  0  0  0  0  0  0  0  0  0  0
  -24.1521   -8.0111   22.4525 C   0  0  0  0  0  0  0  0  0  0  0  0
  -23.4983   -9.7257   24.0241 C   0  0  0  0  0  0  0  0  0  0  0  0
  -28.1273  -28.2632   21.3122 C   0  0  0  0  0  0  0  0  0  0  0  0
  -22.8900   -5.0635   24.1653 C   0  0  0  0  0  0  0  0  0  0  0  0
  -22.1309   -4.0112   23.6535 C   0  0  0  0  0  0  0  0  0  0  0  0
  -26.0782  -27.8657   20.1028 C   0  0  0  0  0  0  0  0  0  0  0  0
  -20.4569   -5.5836   22.9034 C   0  0  0  0  0  0  0  0  0  0  0  0
  -24.4729  -10.3413   21.9008 C   0  0  0  0  0  0  0  0  0  0  0  0
  -24.1598  -11.9867   19.9767 C   0  0  0  0  0  0  0  0  0  0  0  0
  -22.6702  -31.7815   27.5968 C   0  0  0  0  0  0  0  0  0  0  0  0
  -26.2784  -29.8242   21.5115 C   0  0  0  0  0  0  0  0  0  0  0  0
  -23.4307  -30.9159   26.7877 C   0  0  0  0  0  0  0  0  0  0  0  0
  -25.5221  -29.0431   20.6259 C   0  0  0  0  0  0  0  0  0  0  0  0
  -27.0450  -21.5101   19.4265 C   0  0  0  0  0  0  0  0  0  0  0  0
  -27.5571  -18.7678   19.4148 C   0  0  0  0  0  0  0  0  0  0  0  0
  -23.6093   -8.3774   23.6841 C   0  0  0  0  0  0  0  0  0  0  0  0
  -27.3731  -27.4774   20.4456 C   0  0  0  0  0  0  0  0  0  0  0  0
  -22.4325   -6.3759   24.0463 C   0  0  0  0  0  0  0  0  0  0  0  0
  -20.9144   -4.2712   23.0225 C   0  0  0  0  0  0  0  0  0  0  0  0
  -21.2160   -6.6359   23.4154 C   0  0  0  0  0  0  0  0  0  0  0  0
  -24.9192  -11.3560   20.9804 C   0  0  0  0  0  0  0  0  0  0  0  0
  -25.0349  -12.8643   19.3845 C   0  0  0  0  0  0  0  0  0  0  0  0
  -22.7863  -11.7963   19.6123 C   0  0  0  0  0  0  0  0  0  0  0  0
  -23.5940  -30.2814   23.1513 C   0  0  0  0  0  0  0  0  0  0  0  0
  -22.4912  -31.3523   20.2948 C   0  0  0  0  0  0  0  0  0  0  0  0
  -27.6711  -23.9268   19.7453 C   0  0  0  0  0  0  0  0  0  0  0  0
  -22.7599  -31.3303   16.8927 C   0  0  0  0  0  0  0  0  0  0  0  0
  -29.0196  -16.7391   19.7174 C   0  0  0  0  0  0  0  0  0  0  0  0
  -21.2216  -32.0776   27.2989 C   0  0  0  0  0  0  0  0  0  0  0  0
  -25.7170  -31.1037   22.0684 C   0  0  0  0  0  0  0  0  0  0  0  0
  -24.1224  -29.4288   20.2255 C   0  0  0  0  0  0  0  0  0  0  0  0
  -20.8113  -31.7344   25.8692 C   0  0  0  0  0  0  0  0  0  0  0  0
  -30.0527  -13.3346   19.8560 C   0  0  0  0  0  0  0  0  0  0  0  0
  -21.3270  -30.3517   25.4832 C   0  0  0  0  0  0  0  0  0  0  0  0
  -28.7467  -12.5682   20.0783 C   0  0  0  0  0  0  0  0  0  0  0  0
  -30.0634  -14.6660   20.6050 C   0  0  0  0  0  0  0  0  0  0  0  0
  -27.6023  -14.7679   20.5667 C   0  0  0  0  0  0  0  0  0  0  0  0
  -22.8590  -30.3018   25.5283 C   0  0  1  0  0  0  0  0  0  0  0  0
  -24.1918  -31.1363   22.0699 C   0  0  1  0  0  0  0  0  0  0  0  0
  -27.5182  -13.4498   19.7799 C   0  0  2  0  0  0  0  0  0  0  0  0
  -21.6939  -32.2743   14.8264 C   0  0  0  0  0  0  0  0  0  0  0  0
  -20.1808  -29.3813   20.5893 C   0  0  0  0  0  0  0  0  0  0  0  0
  -19.7107  -29.6750   18.1478 C   0  0  0  0  0  0  0  0  0  0  0  0
  -19.5309  -31.6242   19.6941 C   0  0  0  0  0  0  0  0  0  0  0  0
  -25.2535  -32.7114   16.0967 C   0  0  0  0  0  0  0  0  0  0  0  0
  -26.9897  -25.2775   19.6276 C   0  0  0  0  0  0  0  0  0  1  0  0
  -21.8158  -30.7173   19.1034 C   0  0  1  0  0  0  0  0  0  0  0  0
  -22.7785  -32.4579   15.8765 C   0  0  2  0  0  0  0  0  0  0  0  0
  -20.3352  -30.3409   19.3925 C   0  0  0  0  0  0  0  0  0  0  0  0
  -26.1797  -11.7955   21.0261 N   0  0  0  0  0  0  0  0  0  0  0  0
  -26.2191  -12.7116   20.0437 N   0  0  0  0  0  0  0  0  0  0  0  0
  -23.6156  -30.6853   20.8015 N   0  0  0  0  0  0  0  0  0  0  0  0
  -28.8721  -15.4491   20.2696 N   0  0  0  0  0  0  0  0  0  0  0  0
  -24.8991  -13.7439   18.3695 N   0  0  0  0  0  0  0  0  0  0  0  0
  -22.0305  -10.8547   20.3240 N   0  0  0  0  0  0  0  0  0  0  0  0
  -26.7856  -22.9012   19.4322 N   0  0  0  0  0  0  0  0  0  0  0  0
  -27.8175  -17.3750   19.4089 N   0  0  0  0  0  0  0  0  0  0  0  0
  -23.4201  -30.9370   24.3552 N   0  0  0  0  0  0  0  0  0  0  0  0
  -21.9901  -31.6463   17.9922 N   0  0  0  0  0  0  0  0  0  0  0  0
  -24.0977  -32.5106   15.1853 N   0  3  0  0  0  0  0  0  0  0  0  0
  -22.2497  -12.4303   18.6723 O   0  0  0  0  0  0  0  0  0  0  0  0
  -23.3101  -29.1138   22.9107 O   0  0  0  0  0  0  0  0  0  0  0  0
  -22.0422  -32.4053   20.7544 O   0  0  0  0  0  0  0  0  0  0  0  0
  -28.8478  -23.8276   20.0773 O   0  0  0  0  0  0  0  0  0  0  0  0
  -23.3647  -30.2734   16.7261 O   0  0  0  0  0  0  0  0  0  0  0  0
  -30.1309  -17.2316   19.5066 O   0  0  0  0  0  0  0  0  0  0  0  0
  -23.1877   -7.4196   24.5544 O   0  0  0  0  0  0  0  0  0  0  0  0
  -27.9002  -26.3340   19.9294 O   0  0  0  0  0  0  0  0  0  1  0  0
  -20.1862   -3.2608   22.5296 F   0  0  0  0  0  0  0  0  0  0  0  0
  -20.7719   -7.8947   23.2970 F   0  0  0  0  0  0  0  0  0  0  0  0
  1  2  1  0  0  0  0
  1  5  2  0  0  0  0
  2  6  2  0  0  0  0
  3 12  2  0  0  0  0
  3 19  1  0  0  0  0
  4 13  1  0  0  0  0
  4 19  2  0  0  0  0
  5 21  1  0  0  0  0
  6 23  1  0  0  0  0
  7 14  2  0  0  0  0
  7 22  1  0  0  0  0
  8 10  2  0  0  0  0
  8 25  1  0  0  0  0
  9 11  1  0  0  0  0
  9 25  2  0  0  0  0
 10 26  1  0  0  0  0
 11 26  2  0  0  0  0
 12 27  1  0  0  0  0
 13 27  2  0  0  0  0
 14 28  1  0  0  0  0
 15 16  2  0  0  0  0
 15 29  1  0  0  0  0
 16 30  1  0  0  0  0
 17 24  1  0  0  0  0
 17 28  2  0  0  0  0
 18 30  2  0  0  0  0
 18 31  1  0  0  0  0
 19 32  1  0  0  0  0
 20 32  1  0  0  0  0
 20 33  2  0  0  0  0
 20 34  1  0  0  0  0
 21 23  2  0  0  0  0
 21 40  1  0  0  0  0
 22 24  2  0  0  0  0
 22 41  1  0  0  0  0
 23 49  1  0  0  0  0
 24 42  1  0  0  0  0
 25 67  1  0  0  0  0
 26 68  1  0  0  0  0
 27 78  1  0  0  0  0
 28 79  1  0  0  0  0
 29 31  2  0  0  0  0
 29 78  1  0  0  0  0
 30 80  1  0  0  0  0
 31 81  1  0  0  0  0
 32 61  2  0  0  0  0
 33 62  1  0  0  0  0
 33 65  1  0  0  0  0
 34 66  1  0  0  0  0
 34 72  2  0  0  0  0
 35 50  1  0  0  0  0
 35 69  1  0  0  0  0
 35 73  2  0  0  0  0
 36 58  1  0  0  0  0
 36 63  1  0  0  0  0
 36 74  2  0  0  0  0
 37 57  1  0  0  0  0
 37 67  1  0  0  0  0
 37 75  2  0  0  0  0
 38 59  1  0  0  0  0
 38 70  1  0  0  0  0
 38 76  2  0  0  0  0
 39 64  1  0  0  0  0
 39 68  1  0  0  0  0
 39 77  2  0  0  0  0
 40 43  1  0  0  0  0
 41 50  1  0  0  0  0
 42 63  1  0  0  0  0
 43 45  1  0  0  0  0
 44 46  1  0  0  0  0
 44 47  1  0  0  0  0
 45 49  1  0  0  0  0
 46 51  1  0  0  0  0
 47 64  1  0  0  0  0
 48 51  1  0  0  0  0
 48 64  1  0  0  0  0
 49 69  1  0  0  0  0
 50 63  1  0  0  0  0
 51 62  1  0  0  0  0
 52 59  1  0  0  0  0
 53 60  1  0  0  0  0
 54 60  1  0  0  0  0
 55 60  1  0  0  0  0
 56 71  1  0  0  0  0
 57 79  1  0  0  0  0
 58 60  1  0  0  0  0
 58 70  1  0  0  0  0
 59 71  1  0  0  0  0
 61 62  1  0  0  0  0
M  CHG  1  71   1
M  ISO  4  39 100  57 101  68 100  79 101
M  END
> <Batch ID>
0010

> <Smiles>
CNC(C)C(=O)NC(C(=O)N1Cc2cc([101O:1][101CH2:1]C(=O)Nc3ccc([100NH:0][100C:0](=O)N4CCCC(n5nc(-c6ccc(Oc7ccc(F)cc7F)cc6)c(C(N)=O)c5N)C4)cc3)ccc2CC1C(=O)NC1CCCc2ccccc21)C(C)(C)C

> <Shape>
0.258

> <Color>
0.118

> <Negative vol penalty>
0.000

$$$$

  -OEChem-04052315413D

 89 97  0     1  0  0  0  0  0999 V2000
  -25.6791   -0.2002   35.9800 C   0  0  0  0  0  0  0  0  0  0  0  0
  -26.6404   -1.1199   35.5732 C   0  0  0  0  0  0  0  0  0  0  0  0
  -23.2882   -9.8003   19.9131 C   0  0  0  0  0  0  0  0  0  0  0  0
  -23.7417   -9.9400   22.2820 C   0  0  0  0  0  0  0  0  0  0  0  0
  -33.6023  -11.9582   24.7724 C   0  0  0  0  0  0  0  0  0  0  0  0
  -25.2480    0.7914   35.0997 C   0  0  0  0  0  0  0  0  0  0  0  0
  -27.1721   -1.0478   34.2861 C   0  0  0  0  0  0  0  0  0  0  0  0
  -27.4590   -5.5804   32.0461 C   0  0  0  0  0  0  0  0  0  0  0  0
  -32.8164  -12.2767   23.6649 C   0  0  0  0  0  0  0  0  0  0  0  0
  -22.5625   -8.6274   20.1211 C   0  0  0  0  0  0  0  0  0  0  0  0
  -23.0159   -8.7671   22.4901 C   0  0  0  0  0  0  0  0  0  0  0  0
  -28.5107   -6.4130   32.4261 C   0  0  0  0  0  0  0  0  0  0  0  0
  -19.7695   -7.8546   22.7107 C   0  0  0  0  0  0  0  0  0  0  0  0
  -18.8684   -7.8321   23.7752 C   0  0  0  0  0  0  0  0  0  0  0  0
  -31.6924  -12.2723   26.2182 C   0  0  0  0  0  0  0  0  0  0  0  0
  -29.7283   -5.7689   30.4458 C   0  0  0  0  0  0  0  0  0  0  0  0
  -20.0760   -5.9848   24.7583 C   0  0  0  0  0  0  0  0  0  0  0  0
  -23.8778  -10.4566   20.9936 C   0  0  0  0  0  0  0  0  0  0  0  0
  -33.0403  -11.9559   26.0491 C   0  0  0  0  0  0  0  0  0  0  0  0
  -24.1360  -12.9868   20.7959 C   0  0  0  0  0  0  0  0  0  0  0  0
  -25.7676    0.8697   33.7979 C   0  0  0  0  0  0  0  0  0  0  0  0
  -27.5388   -4.8262   30.8666 C   0  0  0  0  0  0  0  0  0  0  0  0
  -26.7486   -0.0534   33.3880 C   0  0  0  0  0  0  0  0  0  0  0  0
  -28.6752   -4.9294   30.0517 C   0  0  0  0  0  0  0  0  0  0  0  0
  -31.4685  -12.5931   23.8341 C   0  0  0  0  0  0  0  0  0  0  0  0
  -22.4264   -8.1108   21.4096 C   0  0  0  0  0  0  0  0  0  0  0  0
  -29.6468   -6.5052   31.6275 C   0  0  0  0  0  0  0  0  0  0  0  0
  -20.8239   -6.9422   22.6700 C   0  0  0  0  0  0  0  0  0  0  0  0
  -30.9064  -12.5909   25.1107 C   0  0  0  0  0  0  0  0  0  0  0  0
  -19.0217   -6.8972   24.7990 C   0  0  0  0  0  0  0  0  0  0  0  0
  -20.9771   -6.0074   23.6938 C   0  0  0  0  0  0  0  0  0  0  0  0
  -24.6280  -11.6679   20.7793 C   0  0  0  0  0  0  0  0  0  0  0  0
  -25.2368  -13.7673   20.5400 C   0  0  0  0  0  0  0  0  0  0  0  0
  -33.8773  -11.6163   27.2286 C   0  0  0  0  0  0  0  0  0  0  0  0
  -22.8030  -13.4638   21.0225 C   0  0  0  0  0  0  0  0  0  0  0  0
  -27.5256   -1.7217   30.1840 C   0  0  0  0  0  0  0  0  0  0  0  0
  -27.4569   -2.7926   27.1228 C   0  0  0  0  0  0  0  0  0  0  0  0
  -28.1342   -5.3073   24.9173 C   0  0  0  0  0  0  0  0  0  0  0  0
  -31.0985  -12.9549   21.3686 C   0  0  0  0  0  0  0  0  0  0  0  0
  -25.3054    1.9881   32.8979 C   0  0  0  0  0  0  0  0  0  0  0  0
  -26.3845   -3.9532   30.4570 C   0  0  0  0  0  0  0  0  0  0  0  0
  -28.8016   -4.1561   28.7655 C   0  0  0  0  0  0  0  0  0  0  0  0
  -25.6452    1.7657   31.4264 C   0  0  0  0  0  0  0  0  0  0  0  0
  -29.4611  -13.6601   18.2866 C   0  0  0  0  0  0  0  0  0  0  0  0
  -27.0937    1.3120   31.2757 C   0  0  0  0  0  0  0  0  0  0  0  0
  -27.9903  -13.3552   18.5793 C   0  0  0  0  0  0  0  0  0  0  0  0
  -30.3956  -12.6850   19.0005 C   0  0  0  0  0  0  0  0  0  0  0  0
  -28.7045  -12.2554   20.7398 C   0  0  0  0  0  0  0  0  0  0  0  0
  -27.3310   -0.0231   31.9916 C   0  0  1  0  0  0  0  0  0  0  0  0
  -26.7897   -2.8378   29.4982 C   0  0  1  0  0  0  0  0  0  0  0  0
  -27.7270  -13.2512   20.0944 C   0  0  2  0  0  0  0  0  0  0  0  0
  -26.4196  -10.9997   25.9616 C   0  0  0  0  0  0  0  0  0  0  0  0
  -28.1698   -6.5417   22.7327 C   0  0  0  0  0  0  0  0  0  0  0  0
  -29.8942   -1.0373   26.5861 C   0  0  0  0  0  0  0  0  0  0  0  0
  -30.2808   -2.3381   24.4821 C   0  0  0  0  0  0  0  0  0  0  0  0
  -28.1788   -1.0253   24.7663 C   0  0  0  0  0  0  0  0  0  0  0  0
  -25.5061   -6.5599   25.4493 C   0  0  0  0  0  0  0  0  0  0  0  0
  -27.3558  -12.0309   25.3576 C   0  0  0  0  0  0  0  0  0  0  0  0
  -32.8507   -9.8916   30.3018 C   0  0  0  0  0  0  0  0  0  0  0  0
  -33.3440  -11.2761   30.7326 C   0  0  0  0  0  0  0  0  0  0  0  0
  -31.9877   -9.2490   31.3861 C   0  0  0  0  0  0  0  0  0  0  0  0
  -34.1992  -11.9518   29.6658 C   0  0  0  0  0  0  0  0  0  0  0  0
  -28.7724  -11.8920   25.8938 C   0  0  0  0  0  0  0  0  0  0  0  0
  -31.4582   -7.8892   30.9499 C   0  0  0  0  0  0  0  0  0  1  0  0
  -28.4998   -3.1535   26.0928 C   0  0  1  0  0  0  0  0  0  0  0  0
  -27.2952   -5.9387   23.8209 C   0  0  2  0  0  0  0  0  0  0  0  0
  -29.2121   -1.9018   25.5070 C   0  0  0  0  0  0  0  0  0  0  0  0
  -25.9394  -11.6099   20.5322 N   0  0  0  0  0  0  0  0  0  0  0  0
  -26.2806  -12.9021   20.3911 N   0  0  0  0  0  0  0  0  0  0  0  0
  -27.6490   -3.3114   28.4112 N   0  0  0  0  0  0  0  0  0  0  0  0
  -30.0904  -12.6422   20.4322 N   0  0  0  0  0  0  0  0  0  0  0  0
  -25.4041  -15.1023   20.4301 N   0  0  0  0  0  0  0  0  0  0  0  0
  -21.7911  -12.5263   21.2707 N   0  0  0  0  0  0  0  0  0  0  0  0
  -30.6828  -12.9125   22.6990 N   0  0  0  0  0  0  0  0  0  0  0  0
  -33.4791  -12.1675   28.4414 N   0  0  0  0  0  0  0  0  0  0  0  0
  -26.8117   -1.1192   31.2022 N   0  0  0  0  0  0  0  0  0  0  0  0
  -27.8222   -3.9762   25.0966 N   0  0  0  0  0  0  0  0  0  0  0  0
  -26.4344   -7.0173   24.3835 N   0  3  0  0  0  0  0  0  0  0  0  0
  -34.8650  -10.9021   27.0778 O   0  0  0  0  0  0  0  0  0  0  0  0
  -22.5146  -14.6841   20.9891 O   0  0  0  0  0  0  0  0  0  0  0  0
  -28.6569   -1.4280   29.8157 O   0  0  0  0  0  0  0  0  0  0  0  0
  -26.5030   -2.0827   26.7946 O   0  0  0  0  0  0  0  0  0  0  0  0
  -28.9840   -5.9314   25.5487 O   0  0  0  0  0  0  0  0  0  0  0  0
  -32.2388  -13.2658   21.0151 O   0  0  0  0  0  0  0  0  0  0  0  0
  -21.7181   -6.9664   21.6130 O   0  0  0  0  0  0  0  0  0  0  0  0
  -30.6750   -7.3166   31.9964 O   0  0  0  0  0  0  0  0  0  1  0  0
  -29.5913  -12.8958   25.2980 O   0  0  0  0  0  0  0  0  0  0  0  0
  -18.1571   -6.8767   25.8219 F   0  0  0  0  0  0  0  0  0  0  0  0
  -21.9888   -5.1291   23.6608 F   0  0  0  0  0  0  0  0  0  0  0  0
  1  2  1  0  0  0  0
  1  6  2  0  0  0  0
  2  7  2  0  0  0  0
  3 10  2  0  0  0  0
  3 18  1  0  0  0  0
  4 11  1  0  0  0  0
  4 18  2  0  0  0  0
  5  9  2  0  0  0  0
  5 19  1  0  0  0  0
  6 21  1  0  0  0  0
  7 23  1  0  0  0  0
  8 12  2  0  0  0  0
  8 22  1  0  0  0  0
  9 25  1  0  0  0  0
 10 26  1  0  0  0  0
 11 26  2  0  0  0  0
 12 27  1  0  0  0  0
 13 14  2  0  0  0  0
 13 28  1  0  0  0  0
 14 30  1  0  0  0  0
 15 19  2  0  0  0  0
 15 29  1  0  0  0  0
 16 24  1  0  0  0  0
 16 27  2  0  0  0  0
 17 30  2  0  0  0  0
 17 31  1  0  0  0  0
 18 32  1  0  0  0  0
 19 34  1  0  0  0  0
 20 32  1  0  0  0  0
 20 33  2  0  0  0  0
 20 35  1  0  0  0  0
 21 23  2  0  0  0  0
 21 40  1  0  0  0  0
 22 24  2  0  0  0  0
 22 41  1  0  0  0  0
 23 49  1  0  0  0  0
 24 42  1  0  0  0  0
 25 29  2  0  0  0  0
 25 74  1  0  0  0  0
 26 85  1  0  0  0  0
 27 86  1  0  0  0  0
 28 31  2  0  0  0  0
 28 85  1  0  0  0  0
 29 87  1  0  0  0  0
 30 88  1  0  0  0  0
 31 89  1  0  0  0  0
 32 68  2  0  0  0  0
 33 69  1  0  0  0  0
 33 72  1  0  0  0  0
 34 75  1  0  0  0  0
 34 79  2  0  0  0  0
 35 73  1  0  0  0  0
 35 80  2  0  0  0  0
 36 50  1  0  0  0  0
 36 76  1  0  0  0  0
 36 81  2  0  0  0  0
 37 65  1  0  0  0  0
 37 70  1  0  0  0  0
 37 82  2  0  0  0  0
 38 66  1  0  0  0  0
 38 77  1  0  0  0  0
 38 83  2  0  0  0  0
 39 71  1  0  0  0  0
 39 74  1  0  0  0  0
 39 84  2  0  0  0  0
 40 43  1  0  0  0  0
 41 50  1  0  0  0  0
 42 70  1  0  0  0  0
 43 45  1  0  0  0  0
 44 46  1  0  0  0  0
 44 47  1  0  0  0  0
 45 49  1  0  0  0  0
 46 51  1  0  0  0  0
 47 71  1  0  0  0  0
 48 51  1  0  0  0  0
 48 71  1  0  0  0  0
 49 76  1  0  0  0  0
 50 70  1  0  0  0  0
 51 69  1  0  0  0  0
 52 58  1  0  0  0  0
 53 66  1  0  0  0  0
 54 67  1  0  0  0  0
 55 67  1  0  0  0  0
 56 67  1  0  0  0  0
 57 78  1  0  0  0  0
 58 63  1  0  0  0  0
 59 60  1  0  0  0  0
 59 61  1  0  0  0  0
 60 62  1  0  0  0  0
 61 64  1  0  0  0  0
 62 75  1  0  0  0  0
 63 87  1  0  0  0  0
 64 86  1  0  0  0  0
 65 67  1  0  0  0  0
 65 77  1  0  0  0  0
 66 78  1  0  0  0  0
 68 69  1  0  0  0  0
M  CHG  1  78   1
M  ISO  4  39 100  64 101  74 100  86 101
M  END
> <Batch ID>
0010

> <Smiles>
CCCOc1cc(C(=O)NCCCC[101CH2:1][101O:1]c2ccc3c(c2)CN(C(=O)C(NC(=O)C(C)NC)C(C)(C)C)C(C(=O)NC2CCCc4ccccc42)C3)ccc1[100NH:0][100C:0](=O)N1CCCC(n2nc(-c3ccc(Oc4ccc(F)cc4F)cc3)c(C(N)=O)c2N)C1

> <Shape>
0.131

> <Color>
0.167

> <Negative vol penalty>
0.000

$$$$

  -OEChem-04052315413D

 84 92  0     1  0  0  0  0  0999 V2000
  -38.2472  -31.9545   16.3307 C   0  0  0  0  0  0  0  0  0  0  0  0
  -38.2554  -30.7337   16.9978 C   0  0  0  0  0  0  0  0  0  0  0  0
  -23.0207   -9.8587   20.0240 C   0  0  0  0  0  0  0  0  0  0  0  0
  -23.7012  -10.0172   22.3367 C   0  0  0  0  0  0  0  0  0  0  0  0
  -37.2610  -32.8975   16.6170 C   0  0  0  0  0  0  0  0  0  0  0  0
  -37.2778  -30.4557   17.9526 C   0  0  0  0  0  0  0  0  0  0  0  0
  -34.7368  -25.0120   19.1425 C   0  0  0  0  0  0  0  0  0  0  0  0
  -22.2571   -8.7312   20.3259 C   0  0  0  0  0  0  0  0  0  0  0  0
  -22.9376   -8.8897   22.6387 C   0  0  0  0  0  0  0  0  0  0  0  0
  -34.9878  -24.0542   20.1239 C   0  0  0  0  0  0  0  0  0  0  0  0
  -23.2139   -5.5351   22.3200 C   0  0  0  0  0  0  0  0  0  0  0  0
  -23.7940   -4.5568   23.1274 C   0  0  0  0  0  0  0  0  0  0  0  0
  -33.2091  -24.9746   21.4686 C   0  0  0  0  0  0  0  0  0  0  0  0
  -30.4110  -18.5370   23.8033 C   0  0  0  0  0  0  0  0  0  0  0  0
  -31.9835  -16.6667   22.4571 C   0  0  0  0  0  0  0  0  0  0  0  0
  -22.0367   -4.8601   24.7575 C   0  0  0  0  0  0  0  0  0  0  0  0
  -23.7428  -10.5017   21.0294 C   0  0  0  0  0  0  0  0  0  0  0  0
  -24.1141  -13.0100   20.7492 C   0  0  0  0  0  0  0  0  0  0  0  0
  -36.2652  -32.6270   17.5688 C   0  0  0  0  0  0  0  0  0  0  0  0
  -33.7255  -25.9668   19.3219 C   0  0  0  0  0  0  0  0  0  0  0  0
  -36.2781  -31.3965   18.2529 C   0  0  0  0  0  0  0  0  0  0  0  0
  -32.9456  -25.9419   20.4868 C   0  0  0  0  0  0  0  0  0  0  0  0
  -31.7938  -18.5279   23.9859 C   0  0  0  0  0  0  0  0  0  0  0  0
  -30.6006  -16.6758   22.2746 C   0  0  0  0  0  0  0  0  0  0  0  0
  -22.2155   -8.2467   21.6332 C   0  0  0  0  0  0  0  0  0  0  0  0
  -34.2258  -24.0371   21.2885 C   0  0  0  0  0  0  0  0  0  0  0  0
  -22.0453   -6.1761   22.7313 C   0  0  0  0  0  0  0  0  0  0  0  0
  -23.2054   -4.2192   24.3461 C   0  0  0  0  0  0  0  0  0  0  0  0
  -32.5801  -17.5928   23.3128 C   0  0  0  0  0  0  0  0  0  0  0  0
  -21.4567   -5.8386   23.9500 C   0  0  0  0  0  0  0  0  0  0  0  0
  -29.8144  -17.6109   22.9477 C   0  0  0  0  0  0  0  0  0  0  0  0
  -24.5323  -11.6661   20.7180 C   0  0  0  0  0  0  0  0  0  0  0  0
  -25.2256  -13.7243   20.3741 C   0  0  0  0  0  0  0  0  0  0  0  0
  -22.8352  -13.5631   21.0872 C   0  0  0  0  0  0  0  0  0  0  0  0
  -33.6451  -29.1379   19.5253 C   0  0  0  0  0  0  0  0  0  0  0  0
  -30.4357  -28.6667   19.5356 C   0  0  0  0  0  0  0  0  0  0  0  0
  -33.5540  -21.2641   23.5261 C   0  0  0  0  0  0  0  0  0  0  0  0
  -27.8173  -26.5701   20.1641 C   0  0  0  0  0  0  0  0  0  0  0  0
  -30.6928  -14.7372   20.6684 C   0  0  0  0  0  0  0  0  0  0  0  0
  -35.2476  -33.6962   17.8786 C   0  0  0  0  0  0  0  0  0  0  0  0
  -33.4496  -26.9768   18.2419 C   0  0  0  0  0  0  0  0  0  0  0  0
  -31.8348  -26.9323   20.7188 C   0  0  0  0  0  0  0  0  0  0  0  0
  -34.0275  -33.1754   18.6339 C   0  0  0  0  0  0  0  0  0  0  0  0
  -29.6362  -12.1753   18.4329 C   0  0  0  0  0  0  0  0  0  0  0  0
  -34.4582  -32.2767   19.7887 C   0  0  0  0  0  0  0  0  0  0  0  0
  -28.1798  -11.9250   18.8307 C   0  0  0  0  0  0  0  0  0  0  0  0
  -30.5117  -12.4790   19.6474 C   0  0  0  0  0  0  0  0  0  0  0  0
  -28.5658  -13.3111   20.9083 C   0  0  0  0  0  0  0  0  0  0  0  0
  -35.2201  -31.0481   19.2772 C   0  0  1  0  0  0  0  0  0  0  0  0
  -32.7348  -28.2222   18.7570 C   0  0  1  0  0  0  0  0  0  0  0  0
  -27.6324  -13.0650   19.7118 C   0  0  2  0  0  0  0  0  0  0  0  0
  -25.3100  -26.4798   20.1133 C   0  0  0  0  0  0  0  0  0  0  0  0
  -30.3267  -30.3236   22.0955 C   0  0  0  0  0  0  0  0  0  0  0  0
  -28.0285  -29.4171   22.5016 C   0  0  0  0  0  0  0  0  0  0  0  0
  -28.4842  -30.7918   20.4705 C   0  0  0  0  0  0  0  0  0  0  0  0
  -27.8209  -24.3742   18.1799 C   0  0  0  0  0  0  0  0  0  0  0  0
  -32.4330  -19.5261   24.9075 C   0  0  0  0  0  0  0  0  0  0  0  0
  -33.3606  -22.6859   23.0439 C   0  0  0  0  0  0  0  0  0  1  0  0
  -29.3925  -28.4360   20.6021 C   0  0  1  0  0  0  0  0  0  0  0  0
  -26.5927  -26.2133   19.3411 C   0  0  2  0  0  0  0  0  0  0  0  0
  -29.0801  -29.7245   21.4142 C   0  0  0  0  0  0  0  0  0  0  0  0
  -25.8098  -11.5321   20.3518 N   0  0  0  0  0  0  0  0  0  0  0  0
  -26.2038  -12.8009   20.1494 N   0  0  0  0  0  0  0  0  0  0  0  0
  -31.6079  -27.9040   19.6363 N   0  0  0  0  0  0  0  0  0  0  0  0
  -29.9333  -13.5718   20.4322 N   0  0  0  0  0  0  0  0  0  0  0  0
  -25.4518  -15.0460   20.2178 N   0  0  0  0  0  0  0  0  0  0  0  0
  -21.8031  -12.6870   21.4501 N   0  0  0  0  0  0  0  0  0  0  0  0
  -30.0270  -15.7212   21.3985 N   0  0  0  0  0  0  0  0  0  0  0  0
  -34.2989  -30.0691   18.7411 N   0  0  0  0  0  0  0  0  0  0  0  0
  -32.4967  -20.8432   24.3175 N   0  0  0  0  0  0  0  0  0  0  0  0
  -28.2354  -27.8619   19.9238 N   0  0  0  0  0  0  0  0  0  0  0  0
  -26.6237  -24.7716   18.9646 N   0  3  0  0  0  0  0  0  0  0  0  0
  -22.6095  -14.7965   21.0521 O   0  0  0  0  0  0  0  0  0  0  0  0
  -33.7458  -29.0101   20.7399 O   0  0  0  0  0  0  0  0  0  0  0  0
  -30.2156  -29.4881   18.6420 O   0  0  0  0  0  0  0  0  0  0  0  0
  -34.5398  -20.5922   23.2352 O   0  0  0  0  0  0  0  0  0  0  0  0
  -28.3476  -25.7830   20.9450 O   0  0  0  0  0  0  0  0  0  0  0  0
  -31.8389  -14.8648   20.2302 O   0  0  0  0  0  0  0  0  0  0  0  0
  -21.4702   -7.1466   21.9282 O   0  0  0  0  0  0  0  0  0  0  0  0
  -34.4691  -23.1036   22.2483 O   0  0  0  0  0  0  0  0  0  1  0  0
  -23.7616   -3.2786   25.1207 F   0  0  0  0  0  0  0  0  0  0  0  0
  -33.9096  -17.5763   23.4822 F   0  0  0  0  0  0  0  0  0  0  0  0
  -20.3333   -6.4500   24.3500 F   0  0  0  0  0  0  0  0  0  0  0  0
  -28.0986  -17.6569   22.7507 Cl  0  0  0  0  0  0  0  0  0  0  0  0
  1  2  1  0  0  0  0
  1  5  2  0  0  0  0
  2  6  2  0  0  0  0
  3  8  2  0  0  0  0
  3 17  1  0  0  0  0
  4  9  1  0  0  0  0
  4 17  2  0  0  0  0
  5 19  1  0  0  0  0
  6 21  1  0  0  0  0
  7 10  2  0  0  0  0
  7 20  1  0  0  0  0
  8 25  1  0  0  0  0
  9 25  2  0  0  0  0
 10 26  1  0  0  0  0
 11 12  2  0  0  0  0
 11 27  1  0  0  0  0
 12 28  1  0  0  0  0
 13 22  1  0  0  0  0
 13 26  2  0  0  0  0
 14 23  1  0  0  0  0
 14 31  2  0  0  0  0
 15 24  2  0  0  0  0
 15 29  1  0  0  0  0
 16 28  2  0  0  0  0
 16 30  1  0  0  0  0
 17 32  1  0  0  0  0
 18 32  1  0  0  0  0
 18 33  2  0  0  0  0
 18 34  1  0  0  0  0
 19 21  2  0  0  0  0
 19 40  1  0  0  0  0
 20 22  2  0  0  0  0
 20 41  1  0  0  0  0
 21 49  1  0  0  0  0
 22 42  1  0  0  0  0
 23 29  2  0  0  0  0
 23 57  1  0  0  0  0
 24 31  1  0  0  0  0
 24 68  1  0  0  0  0
 25 79  1  0  0  0  0
 26 80  1  0  0  0  0
 27 30  2  0  0  0  0
 27 79  1  0  0  0  0
 28 81  1  0  0  0  0
 29 82  1  0  0  0  0
 30 83  1  0  0  0  0
 31 84  1  0  0  0  0
 32 62  2  0  0  0  0
 33 63  1  0  0  0  0
 33 66  1  0  0  0  0
 34 67  1  0  0  0  0
 34 73  2  0  0  0  0
 35 50  1  0  0  0  0
 35 69  1  0  0  0  0
 35 74  2  0  0  0  0
 36 59  1  0  0  0  0
 36 64  1  0  0  0  0
 36 75  2  0  0  0  0
 37 58  1  0  0  0  0
 37 70  1  0  0  0  0
 37 76  2  0  0  0  0
 38 60  1  0  0  0  0
 38 71  1  0  0  0  0
 38 77  2  0  0  0  0
 39 65  1  0  0  0  0
 39 68  1  0  0  0  0
 39 78  2  0  0  0  0
 40 43  1  0  0  0  0
 41 50  1  0  0  0  0
 42 64  1  0  0  0  0
 43 45  1  0  0  0  0
 44 46  1  0  0  0  0
 44 47  1  0  0  0  0
 45 49  1  0  0  0  0
 46 51  1  0  0  0  0
 47 65  1  0  0  0  0
 48 51  1  0  0  0  0
 48 65  1  0  0  0  0
 49 69  1  0  0  0  0
 50 64  1  0  0  0  0
 51 63  1  0  0  0  0
 52 60  1  0  0  0  0
 53 61  1  0  0  0  0
 54 61  1  0  0  0  0
 55 61  1  0  0  0  0
 56 72  1  0  0  0  0
 57 70  1  0  0  0  0
 58 80  1  0  0  0  0
 59 61  1  0  0  0  0
 59 71  1  0  0  0  0
 60 72  1  0  0  0  0
 62 63  1  0  0  0  0
M  CHG  1  72   1
M  ISO  4  39 100  58 101  68 100  80 101
M  END
> <Batch ID>
0010

> <Smiles>
CNC(C)C(=O)NC(C(=O)N1Cc2cc([101O:1][101CH2:1]C(=O)NCc3cc(Cl)c([100NH:0][100C:0](=O)N4CCCC(n5nc(-c6ccc(Oc7ccc(F)cc7F)cc6)c(C(N)=O)c5N)C4)cc3F)ccc2CC1C(=O)NC1CCCc2ccccc21)C(C)(C)C

> <Shape>
0.228

> <Color>
0.200

> <Negative vol penalty>
0.000

$$$$

  -OEChem-04052315413D

 90 98  0     1  0  0  0  0  0999 V2000
  -41.2661  -17.8431   16.5228 C   0  0  0  0  0  0  0  0  0  0  0  0
  -39.9445  -17.4773   16.7575 C   0  0  0  0  0  0  0  0  0  0  0  0
  -23.0733   -9.8705   19.9407 C   0  0  0  0  0  0  0  0  0  0  0  0
  -23.8315   -9.8771   22.2347 C   0  0  0  0  0  0  0  0  0  0  0  0
  -41.6601  -19.1706   16.6854 C   0  0  0  0  0  0  0  0  0  0  0  0
  -39.0164  -18.4387   17.1560 C   0  0  0  0  0  0  0  0  0  0  0  0
  -33.0784  -18.6604   15.6740 C   0  0  0  0  0  0  0  0  0  0  0  0
  -32.0663  -16.5869   22.5388 C   0  0  0  0  0  0  0  0  0  0  0  0
  -32.6758  -17.4631   23.4367 C   0  0  0  0  0  0  0  0  0  0  0  0
  -22.3282   -8.7180   20.1903 C   0  0  0  0  0  0  0  0  0  0  0  0
  -23.0864   -8.7246   22.4843 C   0  0  0  0  0  0  0  0  0  0  0  0
  -31.9268  -18.2638   16.3526 C   0  0  0  0  0  0  0  0  0  0  0  0
  -19.3782   -7.9242   21.6394 C   0  0  0  0  0  0  0  0  0  0  0  0
  -18.0716   -7.8790   21.1532 C   0  0  0  0  0  0  0  0  0  0  0  0
  -30.5100  -18.3410   24.0500 C   0  0  0  0  0  0  0  0  0  0  0  0
  -31.6257  -20.5211   17.1482 C   0  0  0  0  0  0  0  0  0  0  0  0
  -18.6306   -5.9353   19.8316 C   0  0  0  0  0  0  0  0  0  0  0  0
  -23.8250  -10.4500   20.9629 C   0  0  0  0  0  0  0  0  0  0  0  0
  -29.9006  -17.4647   23.1520 C   0  0  0  0  0  0  0  0  0  0  0  0
  -24.1691  -12.9748   20.8429 C   0  0  0  0  0  0  0  0  0  0  0  0
  -40.7342  -20.1505   17.0767 C   0  0  0  0  0  0  0  0  0  0  0  0
  -33.5190  -19.9901   15.7365 C   0  0  0  0  0  0  0  0  0  0  0  0
  -39.3987  -19.7803   17.3253 C   0  0  0  0  0  0  0  0  0  0  0  0
  -32.7817  -20.9325   16.4675 C   0  0  0  0  0  0  0  0  0  0  0  0
  -30.6787  -16.5877   22.3964 C   0  0  0  0  0  0  0  0  0  0  0  0
  -31.8976  -18.3402   24.1924 C   0  0  0  0  0  0  0  0  0  0  0  0
  -22.3347   -8.1451   21.4620 C   0  0  0  0  0  0  0  0  0  0  0  0
  -31.2019  -19.1936   17.0922 C   0  0  0  0  0  0  0  0  0  0  0  0
  -20.3110   -6.9749   21.2217 C   0  0  0  0  0  0  0  0  0  0  0  0
  -17.6978   -6.8846   20.2493 C   0  0  0  0  0  0  0  0  0  0  0  0
  -19.9372   -5.9805   20.3178 C   0  0  0  0  0  0  0  0  0  0  0  0
  -24.5953  -11.6402   20.7056 C   0  0  0  0  0  0  0  0  0  0  0  0
  -25.2622  -13.7233   20.4803 C   0  0  0  0  0  0  0  0  0  0  0  0
  -28.4347  -17.4912   23.0259 C   0  0  0  0  0  0  0  0  0  0  0  0
  -22.8988  -13.4918   21.2608 C   0  0  0  0  0  0  0  0  0  0  0  0
  -36.1364  -21.4377   16.8123 C   0  0  0  0  0  0  0  0  0  0  0  0
  -34.7557  -24.0608   15.4950 C   0  0  0  0  0  0  0  0  0  0  0  0
  -31.9022  -25.6253   14.4668 C   0  0  0  0  0  0  0  0  0  0  0  0
  -30.7292  -14.7641   20.6590 C   0  0  0  0  0  0  0  0  0  0  0  0
  -33.4961  -20.1933   24.8034 C   0  0  0  0  0  0  0  0  0  0  0  0
  -41.2176  -21.5639   17.2852 C   0  0  0  0  0  0  0  0  0  0  0  0
  -34.7484  -20.4077   14.9770 C   0  0  0  0  0  0  0  0  0  0  0  0
  -33.2012  -22.3767   16.5499 C   0  0  0  0  0  0  0  0  0  0  0  0
  -40.0895  -22.5905   17.3472 C   0  0  0  0  0  0  0  0  0  0  0  0
  -29.6144  -12.3510   18.2902 C   0  0  0  0  0  0  0  0  0  0  0  0
  -38.9718  -22.1009   18.2625 C   0  0  0  0  0  0  0  0  0  0  0  0
  -28.1742  -12.0607   18.7187 C   0  0  0  0  0  0  0  0  0  0  0  0
  -30.5288  -12.5791   19.4925 C   0  0  0  0  0  0  0  0  0  0  0  0
  -28.6215  -13.3054   20.8723 C   0  0  0  0  0  0  0  0  0  0  0  0
  -38.3571  -20.7988   17.7349 C   0  0  1  0  0  0  0  0  0  0  0  0
  -35.3902  -21.6763   15.5301 C   0  0  1  0  0  0  0  0  0  0  0  0
  -27.6494  -13.1329   19.6937 C   0  0  2  0  0  0  0  0  0  0  0  0
  -24.2435  -19.4200   22.7221 C   0  0  0  0  0  0  0  0  0  0  0  0
  -31.0866  -27.7775   13.4669 C   0  0  0  0  0  0  0  0  0  0  0  0
  -35.0924  -25.4402   18.1956 C   0  0  0  0  0  0  0  0  0  0  0  0
  -33.4504  -27.1715   17.4377 C   0  0  0  0  0  0  0  0  0  0  0  0
  -35.6064  -26.8809   16.2171 C   0  0  0  0  0  0  0  0  0  0  0  0
  -30.8332  -24.2448   12.0772 C   0  0  0  0  0  0  0  0  0  0  0  0
  -25.7607  -19.4089   22.8436 C   0  0  0  0  0  0  0  0  0  0  0  0
  -28.9934  -18.5859   19.8850 C   0  0  0  0  0  0  0  0  0  0  0  0
  -26.4175  -18.3839   21.9269 C   0  0  0  0  0  0  0  0  0  0  0  0
  -28.6155  -19.2467   21.2038 C   0  0  0  0  0  0  0  0  0  0  0  0
  -29.7544  -19.5189   18.9509 C   0  0  0  0  0  0  0  0  0  1  0  0
  -33.8023  -25.1254   15.9815 C   0  0  1  0  0  0  0  0  0  0  0  0
  -31.5638  -26.3617   13.1833 C   0  0  2  0  0  0  0  0  0  0  0  0
  -34.4808  -26.1270   16.9582 C   0  0  0  0  0  0  0  0  0  0  0  0
  -25.8604  -11.5432   20.2883 N   0  0  0  0  0  0  0  0  0  0  0  0
  -26.2385  -12.8264   20.1601 N   0  0  0  0  0  0  0  0  0  0  0  0
  -34.4135  -22.7346   15.7952 N   0  0  0  0  0  0  0  0  0  0  0  0
  -29.9701  -13.6106   20.3694 N   0  0  0  0  0  0  0  0  0  0  0  0
  -25.4738  -15.0546   20.4073 N   0  0  0  0  0  0  0  0  0  0  0  0
  -21.8858  -12.5836   21.5974 N   0  0  0  0  0  0  0  0  0  0  0  0
  -34.0563  -21.0330   25.7606 N   0  0  0  0  0  0  0  0  0  0  0  0
  -33.8954  -20.3528   23.4756 N   0  0  0  0  0  0  0  0  0  0  0  0
  -30.0820  -15.6898   21.4768 N   0  0  0  0  0  0  0  0  0  0  0  0
  -37.4577  -21.0739   16.6350 N   0  0  0  0  0  0  0  0  0  0  0  0
  -33.2380  -25.7447   14.7872 N   0  0  0  0  0  0  0  0  0  0  0  0
  -27.8777  -18.3650   22.0655 N   0  0  0  0  0  0  0  0  0  0  0  0
  -32.5145  -19.2277   25.1017 N   0  3  0  0  0  0  0  0  0  0  0  0
  -30.4891  -25.6432   12.4418 N   0  3  0  0  0  0  0  0  0  0  0  0
  -27.8107  -16.7339   23.7684 O   0  0  0  0  0  0  0  0  0  0  0  0
  -22.6636  -14.7226   21.3178 O   0  0  0  0  0  0  0  0  0  0  0  0
  -35.5568  -21.5750   17.8832 O   0  0  0  0  0  0  0  0  0  0  0  0
  -35.7631  -24.3931   14.8654 O   0  0  0  0  0  0  0  0  0  0  0  0
  -31.0646  -25.0090   15.1219 O   0  0  0  0  0  0  0  0  0  0  0  0
  -31.8588  -14.9318   20.1922 O   0  0  0  0  0  0  0  0  0  0  0  0
  -21.6076   -7.0206   21.7059 O   0  0  0  0  0  0  0  0  0  0  0  0
  -30.0779  -18.8091   17.7560 O   0  0  0  0  0  0  0  0  0  1  0  0
  -16.4427   -6.8404   19.7836 F   0  0  0  0  0  0  0  0  0  0  0  0
  -20.8287   -5.0651   19.9138 F   0  0  0  0  0  0  0  0  0  0  0  0
  1  2  1  0  0  0  0
  1  5  2  0  0  0  0
  2  6  2  0  0  0  0
  3 10  2  0  0  0  0
  3 18  1  0  0  0  0
  4 11  1  0  0  0  0
  4 18  2  0  0  0  0
  5 21  1  0  0  0  0
  6 23  1  0  0  0  0
  7 12  2  0  0  0  0
  7 22  1  0  0  0  0
  8  9  2  0  0  0  0
  8 25  1  0  0  0  0
  9 26  1  0  0  0  0
 10 27  1  0  0  0  0
 11 27  2  0  0  0  0
 12 28  1  0  0  0  0
 13 14  2  0  0  0  0
 13 29  1  0  0  0  0
 14 30  1  0  0  0  0
 15 19  1  0  0  0  0
 15 26  2  0  0  0  0
 16 24  1  0  0  0  0
 16 28  2  0  0  0  0
 17 30  2  0  0  0  0
 17 31  1  0  0  0  0
 18 32  1  0  0  0  0
 19 25  2  0  0  0  0
 19 34  1  0  0  0  0
 20 32  1  0  0  0  0
 20 33  2  0  0  0  0
 20 35  1  0  0  0  0
 21 23  2  0  0  0  0
 21 41  1  0  0  0  0
 22 24  2  0  0  0  0
 22 42  1  0  0  0  0
 23 50  1  0  0  0  0
 24 43  1  0  0  0  0
 25 75  1  0  0  0  0
 26 79  1  0  0  0  0
 27 87  1  0  0  0  0
 28 88  1  0  0  0  0
 29 31  2  0  0  0  0
 29 87  1  0  0  0  0
 30 89  1  0  0  0  0
 31 90  1  0  0  0  0
 32 67  2  0  0  0  0
 33 68  1  0  0  0  0
 33 71  1  0  0  0  0
 34 78  1  0  0  0  0
 34 81  2  0  0  0  0
 35 72  1  0  0  0  0
 35 82  2  0  0  0  0
 36 51  1  0  0  0  0
 36 76  1  0  0  0  0
 36 83  2  0  0  0  0
 37 64  1  0  0  0  0
 37 69  1  0  0  0  0
 37 84  2  0  0  0  0
 38 65  1  0  0  0  0
 38 77  1  0  0  0  0
 38 85  2  0  0  0  0
 39 70  1  0  0  0  0
 39 75  1  0  0  0  0
 39 86  2  0  0  0  0
 40 73  1  0  0  0  0
 40 74  1  0  0  0  0
 40 79  2  0  0  0  0
 41 44  1  0  0  0  0
 42 51  1  0  0  0  0
 43 69  1  0  0  0  0
 44 46  1  0  0  0  0
 45 47  1  0  0  0  0
 45 48  1  0  0  0  0
 46 50  1  0  0  0  0
 47 52  1  0  0  0  0
 48 70  1  0  0  0  0
 49 52  1  0  0  0  0
 49 70  1  0  0  0  0
 50 76  1  0  0  0  0
 51 69  1  0  0  0  0
 52 68  1  0  0  0  0
 53 59  1  0  0  0  0
 54 65  1  0  0  0  0
 55 66  1  0  0  0  0
 56 66  1  0  0  0  0
 57 66  1  0  0  0  0
 58 80  1  0  0  0  0
 59 61  1  0  0  0  0
 60 62  1  0  0  0  0
 60 63  1  0  0  0  0
 61 78  1  0  0  0  0
 62 78  1  0  0  0  0
 63 88  1  0  0  0  0
 64 66  1  0  0  0  0
 64 77  1  0  0  0  0
 65 80  1  0  0  0  0
 67 68  1  0  0  0  0
M  CHG  2  79   1  80   1
M  ISO  4  39 100  63 101  75 100  88 101
M  END
> <Batch ID>
0010

> <Smiles>
CCCN(CC[101CH2:1][101O:1]c1ccc2c(c1)CN(C(=O)C(NC(=O)C(C)NC)C(C)(C)C)C(C(=O)NC1CCCc3ccccc31)C2)C(=O)c1cc(N=C(N)N)ccc1[100NH:0][100C:0](=O)N1CCCC(n2nc(-c3ccc(Oc4ccc(F)cc4F)cc3)c(C(N)=O)c2N)C1

> <Shape>
0.169

> <Color>
0.176

> <Negative vol penalty>
0.000

$$$$

  -OEChem-04052315413D

 87 95  0     1  0  0  0  0  0999 V2000
  -16.0767  -27.1470   23.7529 C   0  0  0  0  0  0  0  0  0  0  0  0
  -17.3411  -27.3640   23.2148 C   0  0  0  0  0  0  0  0  0  0  0  0
  -26.4852  -12.6767   21.6447 C   0  0  0  0  0  0  0  0  0  0  0  0
  -25.9983  -13.7116   19.5166 C   0  0  0  0  0  0  0  0  0  0  0  0
  -15.7757  -25.9246   24.3519 C   0  0  0  0  0  0  0  0  0  0  0  0
  -18.3057  -26.3590   23.2765 C   0  0  0  0  0  0  0  0  0  0  0  0
  -20.7789  -25.7686   18.8970 C   0  0  0  0  0  0  0  0  0  0  0  0
  -27.1618  -25.8055   21.0674 C   0  0  0  0  0  0  0  0  0  0  0  0
  -26.2309  -26.8426   21.0110 C   0  0  0  0  0  0  0  0  0  0  0  0
  -25.2323  -12.0638   21.6334 C   0  0  0  0  0  0  0  0  0  0  0  0
  -24.7453  -13.0987   19.5053 C   0  0  0  0  0  0  0  0  0  0  0  0
  -21.7755  -26.6968   18.5984 C   0  0  0  0  0  0  0  0  0  0  0  0
  -23.7800   -9.3909   20.1572 C   0  0  0  0  0  0  0  0  0  0  0  0
  -23.7151   -8.0419   20.5057 C   0  0  0  0  0  0  0  0  0  0  0  0
  -23.4514  -25.1239   19.3308 C   0  0  0  0  0  0  0  0  0  0  0  0
  -28.6485  -27.0621   19.6364 C   0  0  0  0  0  0  0  0  0  0  0  0
  -22.2398   -8.5868   22.3397 C   0  0  0  0  0  0  0  0  0  0  0  0
  -26.8682  -13.5007   20.5864 C   0  0  0  0  0  0  0  0  0  0  0  0
  -29.3642  -13.6225   20.0735 C   0  0  0  0  0  0  0  0  0  0  0  0
  -16.7340  -24.9005   24.4124 C   0  0  0  0  0  0  0  0  0  0  0  0
  -21.1110  -24.5131   19.4258 C   0  0  0  0  0  0  0  0  0  0  0  0
  -18.0177  -25.1221   23.8781 C   0  0  0  0  0  0  0  0  0  0  0  0
  -22.4573  -24.1806   19.6329 C   0  0  0  0  0  0  0  0  0  0  0  0
  -28.3707  -25.9152   20.3802 C   0  0  0  0  0  0  0  0  0  0  0  0
  -26.5087  -27.9895   20.2672 C   0  0  0  0  0  0  0  0  0  0  0  0
  -24.3624  -12.2748   20.5637 C   0  0  0  0  0  0  0  0  0  0  0  0
  -23.1118  -26.3756   18.8180 C   0  0  0  0  0  0  0  0  0  0  0  0
  -23.0749  -10.3379   20.9000 C   0  0  0  0  0  0  0  0  0  0  0  0
  -27.7175  -28.0992   19.5799 C   0  0  0  0  0  0  0  0  0  0  0  0
  -22.9450   -7.6398   21.5970 C   0  0  0  0  0  0  0  0  0  0  0  0
  -22.3048   -9.9358   21.9912 C   0  0  0  0  0  0  0  0  0  0  0  0
  -28.1622  -14.1345   20.5978 C   0  0  0  0  0  0  0  0  0  0  0  0
  -30.2953  -14.5980   20.3339 C   0  0  0  0  0  0  0  0  0  0  0  0
  -29.6165  -12.3766   19.4104 C   0  0  0  0  0  0  0  0  0  0  0  0
  -20.4801  -22.9844   22.1404 C   0  0  0  0  0  0  0  0  0  0  0  0
  -21.9789  -20.5245   20.6488 C   0  0  0  0  0  0  0  0  0  0  0  0
  -29.2028  -23.6586   21.1272 C   0  0  0  0  0  0  0  0  0  0  0  0
  -24.1924  -19.5001   18.2618 C   0  0  0  0  0  0  0  0  0  0  0  0
  -29.7762  -20.4306   21.0869 C   0  0  0  0  0  0  0  0  0  0  0  0
  -16.3773  -23.6129   25.1119 C   0  0  0  0  0  0  0  0  0  0  0  0
  -20.0259  -23.5131   19.7176 C   0  0  0  0  0  0  0  0  0  0  0  0
  -22.8678  -22.8386   20.1797 C   0  0  0  0  0  0  0  0  0  0  0  0
  -17.3362  -22.4660   24.8029 C   0  0  0  0  0  0  0  0  0  0  0  0
  -31.2695  -18.1137   23.4321 C   0  0  0  0  0  0  0  0  0  0  0  0
  -18.7833  -22.9350   24.9154 C   0  0  0  0  0  0  0  0  0  0  0  0
  -30.7475  -16.7739   22.9101 C   0  0  0  0  0  0  0  0  0  0  0  0
  -30.2133  -19.2072   23.3016 C   0  0  0  0  0  0  0  0  0  0  0  0
  -29.1590  -18.0505   21.3979 C   0  0  0  0  0  0  0  0  0  0  0  0
  -19.0829  -24.0475   23.9035 C   0  0  1  0  0  0  0  0  0  0  0  0
  -20.4453  -22.4558   20.7343 C   0  0  1  0  0  0  0  0  0  0  0  0
  -30.1881  -16.9086   21.4814 C   0  0  2  0  0  0  0  0  0  0  0  0
  -25.2388  -17.4300   17.3042 C   0  0  0  0  0  0  0  0  0  0  0  0
  -23.8009  -20.3201   23.0878 C   0  0  0  0  0  0  0  0  0  0  0  0
  -25.3702  -18.9363   21.7127 C   0  0  0  0  0  0  0  0  0  0  0  0
  -23.0542  -18.1225   22.1564 C   0  0  0  0  0  0  0  0  0  0  0  0
  -25.1447  -29.6914   21.4518 C   0  0  0  0  0  0  0  0  0  0  0  0
  -23.0565  -20.0263   15.5801 C   0  0  0  0  0  0  0  0  0  0  0  0
  -28.6769  -30.2745   19.5202 C   0  0  0  0  0  0  0  0  0  0  0  0
  -30.4474  -22.8139   20.9243 C   0  0  0  0  0  0  0  0  0  0  0  0
  -24.9943  -29.4647   18.9670 C   0  0  0  0  0  0  0  0  0  0  0  0
  -23.7461  -28.6609   18.6431 C   0  0  0  0  0  0  0  0  0  1  0  0
  -23.4066  -20.0438   20.5512 C   0  0  1  0  0  0  0  0  0  0  0  0
  -24.0958  -18.4268   17.1926 C   0  0  2  0  0  0  0  0  0  0  0  0
  -23.9004  -19.3818   21.8685 C   0  0  0  0  0  0  0  0  0  0  0  0
  -28.3130  -15.3414   21.1497 N   0  0  0  0  0  0  0  0  0  0  0  0
  -29.6208  -15.5960   20.9737 N   0  0  0  0  0  0  0  0  0  0  0  0
  -21.7698  -21.8973   20.4552 N   0  0  0  0  0  0  0  0  0  0  0  0
  -29.7360  -19.2961   21.9144 N   0  0  0  0  0  0  0  0  0  0  0  0
  -31.6172  -14.6909   20.0758 N   0  0  0  0  0  0  0  0  0  0  0  0
  -28.5470  -11.4900   19.2248 N   0  0  0  0  0  0  0  0  0  0  0  0
  -29.3028  -24.8786   20.4390 N   0  0  0  0  0  0  0  0  0  0  0  0
  -19.2722  -23.4905   22.5812 N   0  0  0  0  0  0  0  0  0  0  0  0
  -23.4641  -19.1693   19.3849 N   0  0  0  0  0  0  0  0  0  0  0  0
  -30.3317  -21.5710   21.6541 N   0  0  0  0  0  0  0  0  0  0  0  0
  -25.5643  -29.0235   20.2194 N   0  0  3  0  0  0  0  0  0  0  0  0
  -24.1392  -19.0418   15.8359 N   0  3  0  0  0  0  0  0  0  0  0  0
  -30.7598  -12.0519   19.0094 O   0  0  0  0  0  0  0  0  0  0  0  0
  -21.5250  -22.9352   22.7787 O   0  0  0  0  0  0  0  0  0  0  0  0
  -21.0814  -19.7107   20.8810 O   0  0  0  0  0  0  0  0  0  0  0  0
  -28.2470  -23.2646   21.7878 O   0  0  0  0  0  0  0  0  0  0  0  0
  -24.8514  -20.5273   18.1168 O   0  0  0  0  0  0  0  0  0  0  0  0
  -29.3530  -20.4263   19.9259 O   0  0  0  0  0  0  0  0  0  0  0  0
  -23.1398  -11.6768   20.5522 O   0  0  0  0  0  0  0  0  0  0  0  0
  -28.0070  -29.2110   18.8467 O   0  0  0  0  0  0  0  0  0  0  0  0
  -24.0864  -27.2799   18.5281 O   0  0  0  0  0  0  0  0  0  1  0  0
  -22.8815   -6.3441   21.9306 F   0  0  0  0  0  0  0  0  0  0  0  0
  -21.6242  -10.8408   22.7078 F   0  0  0  0  0  0  0  0  0  0  0  0
  1  2  1  0  0  0  0
  1  5  2  0  0  0  0
  2  6  2  0  0  0  0
  3 10  2  0  0  0  0
  3 18  1  0  0  0  0
  4 11  1  0  0  0  0
  4 18  2  0  0  0  0
  5 20  1  0  0  0  0
  6 22  1  0  0  0  0
  7 12  2  0  0  0  0
  7 21  1  0  0  0  0
  8  9  2  0  0  0  0
  8 24  1  0  0  0  0
  9 25  1  0  0  0  0
 10 26  1  0  0  0  0
 11 26  2  0  0  0  0
 12 27  1  0  0  0  0
 13 14  2  0  0  0  0
 13 28  1  0  0  0  0
 14 30  1  0  0  0  0
 15 23  1  0  0  0  0
 15 27  2  0  0  0  0
 16 24  2  0  0  0  0
 16 29  1  0  0  0  0
 17 30  2  0  0  0  0
 17 31  1  0  0  0  0
 18 32  1  0  0  0  0
 19 32  1  0  0  0  0
 19 33  2  0  0  0  0
 19 34  1  0  0  0  0
 20 22  2  0  0  0  0
 20 40  1  0  0  0  0
 21 23  2  0  0  0  0
 21 41  1  0  0  0  0
 22 49  1  0  0  0  0
 23 42  1  0  0  0  0
 24 71  1  0  0  0  0
 25 29  2  0  0  0  0
 25 75  1  0  0  0  0
 26 83  1  0  0  0  0
 27 85  1  0  0  0  0
 28 31  2  0  0  0  0
 28 83  1  0  0  0  0
 29 84  1  0  0  0  0
 30 86  1  0  0  0  0
 31 87  1  0  0  0  0
 32 65  2  0  0  0  0
 33 66  1  0  0  0  0
 33 69  1  0  0  0  0
 34 70  1  0  0  0  0
 34 77  2  0  0  0  0
 35 50  1  0  0  0  0
 35 72  1  0  0  0  0
 35 78  2  0  0  0  0
 36 62  1  0  0  0  0
 36 67  1  0  0  0  0
 36 79  2  0  0  0  0
 37 59  1  0  0  0  0
 37 71  1  0  0  0  0
 37 80  2  0  0  0  0
 38 63  1  0  0  0  0
 38 73  1  0  0  0  0
 38 81  2  0  0  0  0
 39 68  1  0  0  0  0
 39 74  1  0  0  0  0
 39 82  2  0  0  0  0
 40 43  1  0  0  0  0
 41 50  1  0  0  0  0
 42 67  1  0  0  0  0
 43 45  1  0  0  0  0
 44 46  1  0  0  0  0
 44 47  1  0  0  0  0
 45 49  1  0  0  0  0
 46 51  1  0  0  0  0
 47 68  1  0  0  0  0
 48 51  1  0  0  0  0
 48 68  1  0  0  0  0
 49 72  1  0  0  0  0
 50 67  1  0  0  0  0
 51 66  1  0  0  0  0
 52 63  1  0  0  0  0
 53 64  1  0  0  0  0
 54 64  1  0  0  0  0
 55 64  1  0  0  0  0
 56 75  1  0  0  0  0
 57 76  1  0  0  0  0
 58 84  1  0  0  0  0
 59 74  1  0  0  0  0
 60 61  1  0  0  0  0
 60 75  1  0  0  0  0
 61 85  1  0  0  0  0
 62 64  1  0  0  0  0
 62 73  1  0  0  0  0
 63 76  1  0  0  0  0
 65 66  1  0  0  0  0
M  CHG  1  76   1
M  ISO  4  39 100  61 101  74 100  85 101
M  END
> <Batch ID>
0010

> <Smiles>
CNC(C)C(=O)NC(C(=O)N1Cc2cc([101O:1][101CH2:1]CN(C)c3ccc(NC(=O)C[100NH:0][100C:0](=O)N4CCCC(n5nc(-c6ccc(Oc7ccc(F)cc7F)cc6)c(C(N)=O)c5N)C4)cc3OC)ccc2CC1C(=O)NC1CCCc2ccccc21)C(C)(C)C

> <Shape>
0.217

> <Color>
0.070

> <Negative vol penalty>
0.000

$$$$

  -OEChem-04052315413D

 83 91  0     1  0  0  0  0  0999 V2000
  -19.0020  -33.2966   21.0881 C   0  0  0  0  0  0  0  0  0  0  0  0
  -20.3081  -33.0030   20.7095 C   0  0  0  0  0  0  0  0  0  0  0  0
  -24.5327  -14.2352   18.1875 C   0  0  0  0  0  0  0  0  0  0  0  0
  -25.6673  -15.4625   19.9320 C   0  0  0  0  0  0  0  0  0  0  0  0
  -18.4245  -32.6314   22.1688 C   0  0  0  0  0  0  0  0  0  0  0  0
  -21.0378  -32.0447   21.4120 C   0  0  0  0  0  0  0  0  0  0  0  0
  -25.1795  -28.1600   19.1183 C   0  0  0  0  0  0  0  0  0  0  0  0
  -30.0047  -24.6728   16.5272 C   0  0  0  0  0  0  0  0  0  0  0  0
  -29.6812  -23.4219   16.0018 C   0  0  0  0  0  0  0  0  0  0  0  0
  -24.7466  -13.0462   18.8848 C   0  0  0  0  0  0  0  0  0  0  0  0
  -25.8812  -14.2735   20.6293 C   0  0  0  0  0  0  0  0  0  0  0  0
  -26.5728  -28.1910   19.0771 C   0  0  0  0  0  0  0  0  0  0  0  0
  -24.6770   -9.7332   20.3796 C   0  0  0  0  0  0  0  0  0  0  0  0
  -23.6076   -8.8445   20.4895 C   0  0  0  0  0  0  0  0  0  0  0  0
  -26.6559  -26.8223   21.0617 C   0  0  0  0  0  0  0  0  0  0  0  0
  -30.0547  -23.7264   18.7496 C   0  0  0  0  0  0  0  0  0  0  0  0
  -22.3186  -10.5371   21.6343 C   0  0  0  0  0  0  0  0  0  0  0  0
  -24.9931  -15.4433   18.7111 C   0  0  0  0  0  0  0  0  0  0  0  0
  -23.6672  -17.5360   18.1024 C   0  0  0  0  0  0  0  0  0  0  0  0
  -19.1442  -31.6576   22.8789 C   0  0  0  0  0  0  0  0  0  0  0  0
  -24.5129  -27.4678   20.1395 C   0  0  0  0  0  0  0  0  0  0  0  0
  -20.4698  -31.3668   22.5040 C   0  0  0  0  0  0  0  0  0  0  0  0
  -25.2542  -26.7819   21.1122 C   0  0  0  0  0  0  0  0  0  0  0  0
  -30.1915  -24.8251   17.9011 C   0  0  0  0  0  0  0  0  0  0  0  0
  -29.5444  -22.3232   16.8502 C   0  0  0  0  0  0  0  0  0  0  0  0
  -29.7312  -22.4754   18.2241 C   0  0  0  0  0  0  0  0  0  0  0  0
  -25.4209  -13.0653   20.1057 C   0  0  0  0  0  0  0  0  0  0  0  0
  -27.3112  -27.5246   20.0505 C   0  0  0  0  0  0  0  0  0  0  0  0
  -24.5673  -11.0239   20.8971 C   0  0  0  0  0  0  0  0  0  0  0  0
  -22.4284   -9.2464   21.1169 C   0  0  0  0  0  0  0  0  0  0  0  0
  -23.3881  -11.4259   21.5244 C   0  0  0  0  0  0  0  0  0  0  0  0
  -24.7729  -16.6718   17.9910 C   0  0  0  0  0  0  0  0  0  0  0  0
  -23.9340  -18.5508   17.2162 C   0  0  0  0  0  0  0  0  0  0  0  0
  -22.5032  -17.4309   18.9329 C   0  0  0  0  0  0  0  0  0  0  0  0
  -22.5122  -28.2878   22.4694 C   0  0  0  0  0  0  0  0  0  0  0  0
  -22.3502  -25.0808   22.9293 C   0  0  0  0  0  0  0  0  0  0  0  0
  -23.8198  -22.0230   22.5590 C   0  0  0  0  0  0  0  0  0  0  0  0
  -29.0001  -20.7635   14.9482 C   0  0  0  0  0  0  0  0  0  0  0  0
  -18.4939  -30.9988   24.0696 C   0  0  0  0  0  0  0  0  0  0  0  0
  -23.0096  -27.4217   20.1546 C   0  0  0  0  0  0  0  0  0  0  0  0
  -24.5865  -26.0074   22.2180 C   0  0  0  0  0  0  0  0  0  0  0  0
  -19.2060  -29.7286   24.5274 C   0  0  0  0  0  0  0  0  0  0  0  0
  -26.2512  -19.4316   13.1188 C   0  0  0  0  0  0  0  0  0  0  0  0
  -20.7121  -29.9585   24.6026 C   0  0  0  0  0  0  0  0  0  0  0  0
  -25.4563  -18.6565   14.1720 C   0  0  0  0  0  0  0  0  0  0  0  0
  -27.7572  -19.3220   13.3506 C   0  0  0  0  0  0  0  0  0  0  0  0
  -27.4104  -18.9092   15.7545 C   0  0  0  0  0  0  0  0  0  0  0  0
  -21.2851  -30.3158   23.2258 C   0  0  1  0  0  0  0  0  0  0  0  0
  -22.4350  -27.1144   21.5340 C   0  0  1  0  0  0  0  0  0  0  0  0
  -25.8867  -19.0434   15.6005 C   0  0  2  0  0  0  0  0  0  0  0  0
  -24.0461  -19.5247   22.6277 C   0  0  0  0  0  0  0  0  0  0  0  0
  -23.0697  -25.5894   25.8505 C   0  0  0  0  0  0  0  0  0  0  0  0
  -23.6255  -23.1577   26.0645 C   0  0  0  0  0  0  0  0  0  0  0  0
  -21.2994  -23.8585   25.4983 C   0  0  0  0  0  0  0  0  0  0  0  0
  -29.1644  -21.5146   20.4560 C   0  0  0  0  0  0  0  0  0  0  0  0
  -30.6615  -27.2352   17.5398 C   0  0  0  0  0  0  0  0  0  0  0  0
  -22.6562  -21.7271   19.8540 C   0  0  0  0  0  0  0  0  0  0  0  0
  -30.7040  -26.2767   19.8481 C   0  0  0  0  0  0  0  0  0  0  0  0
  -29.3600  -26.4216   20.5422 C   0  0  0  0  0  0  0  0  0  1  0  0
  -23.1190  -24.0793   23.7569 C   0  0  1  0  0  0  0  0  0  0  0  0
  -23.2790  -20.7012   22.0445 C   0  0  2  0  0  0  0  0  0  0  0  0
  -22.7913  -24.1873   25.2730 C   0  0  0  0  0  0  0  0  0  0  0  0
  -25.6748  -17.1001   17.1038 N   0  0  0  0  0  0  0  0  0  0  0  0
  -25.1362  -18.2445   16.6496 N   0  0  0  0  0  0  0  0  0  0  0  0
  -23.1145  -25.9974   22.1933 N   0  0  0  0  0  0  0  0  0  0  0  0
  -28.0910  -19.7082   14.7233 N   0  0  0  0  0  0  0  0  0  0  0  0
  -23.2551  -19.6663   16.8740 N   0  0  0  0  0  0  0  0  0  0  0  0
  -22.3882  -16.3242   19.7852 N   0  0  0  0  0  0  0  0  0  0  0  0
  -29.2150  -21.0626   16.2932 N   0  0  0  0  0  0  0  0  0  0  0  0
  -29.5980  -21.3759   19.1017 N   0  0  0  0  0  0  0  0  0  0  0  0
  -21.4168  -29.1281   22.4095 N   0  0  0  0  0  0  0  0  0  0  0  0
  -22.8394  -22.7701   23.1770 N   0  0  0  0  0  0  0  0  0  0  0  0
  -30.5171  -26.0818   18.4285 N   0  0  3  0  0  0  0  0  0  0  0  0
  -23.3847  -20.6413   20.5592 N   0  3  0  0  0  0  0  0  0  0  0  0
  -21.5843  -18.2844   18.9075 O   0  0  0  0  0  0  0  0  0  0  0  0
  -23.4922  -28.4201   23.1931 O   0  0  0  0  0  0  0  0  0  0  0  0
  -21.1172  -25.0464   22.9300 O   0  0  0  0  0  0  0  0  0  0  0  0
  -24.9953  -22.3575   22.4293 O   0  0  0  0  0  0  0  0  0  0  0  0
  -29.5269  -21.3760   14.0159 O   0  0  0  0  0  0  0  0  0  0  0  0
  -25.6296  -11.9054   20.7865 O   0  0  0  0  0  0  0  0  0  0  0  0
  -28.6712  -27.5538   20.0130 O   0  0  0  0  0  0  0  0  0  1  0  0
  -21.4010   -8.3934   21.2210 F   0  0  0  0  0  0  0  0  0  0  0  0
  -23.2763  -12.6649   22.0224 F   0  0  0  0  0  0  0  0  0  0  0  0
  1  2  1  0  0  0  0
  1  5  2  0  0  0  0
  2  6  2  0  0  0  0
  3 10  2  0  0  0  0
  3 18  1  0  0  0  0
  4 11  1  0  0  0  0
  4 18  2  0  0  0  0
  5 20  1  0  0  0  0
  6 22  1  0  0  0  0
  7 12  2  0  0  0  0
  7 21  1  0  0  0  0
  8  9  2  0  0  0  0
  8 24  1  0  0  0  0
  9 25  1  0  0  0  0
 10 27  1  0  0  0  0
 11 27  2  0  0  0  0
 12 28  1  0  0  0  0
 13 14  2  0  0  0  0
 13 29  1  0  0  0  0
 14 30  1  0  0  0  0
 15 23  1  0  0  0  0
 15 28  2  0  0  0  0
 16 24  2  0  0  0  0
 16 26  1  0  0  0  0
 17 30  2  0  0  0  0
 17 31  1  0  0  0  0
 18 32  1  0  0  0  0
 19 32  1  0  0  0  0
 19 33  2  0  0  0  0
 19 34  1  0  0  0  0
 20 22  2  0  0  0  0
 20 39  1  0  0  0  0
 21 23  2  0  0  0  0
 21 40  1  0  0  0  0
 22 48  1  0  0  0  0
 23 41  1  0  0  0  0
 24 73  1  0  0  0  0
 25 26  2  0  0  0  0
 25 69  1  0  0  0  0
 26 70  1  0  0  0  0
 27 80  1  0  0  0  0
 28 81  1  0  0  0  0
 29 31  2  0  0  0  0
 29 80  1  0  0  0  0
 30 82  1  0  0  0  0
 31 83  1  0  0  0  0
 32 63  2  0  0  0  0
 33 64  1  0  0  0  0
 33 67  1  0  0  0  0
 34 68  1  0  0  0  0
 34 75  2  0  0  0  0
 35 49  1  0  0  0  0
 35 71  1  0  0  0  0
 35 76  2  0  0  0  0
 36 60  1  0  0  0  0
 36 65  1  0  0  0  0
 36 77  2  0  0  0  0
 37 61  1  0  0  0  0
 37 72  1  0  0  0  0
 37 78  2  0  0  0  0
 38 66  1  0  0  0  0
 38 69  1  0  0  0  0
 38 79  2  0  0  0  0
 39 42  1  0  0  0  0
 40 49  1  0  0  0  0
 41 65  1  0  0  0  0
 42 44  1  0  0  0  0
 43 45  1  0  0  0  0
 43 46  1  0  0  0  0
 44 48  1  0  0  0  0
 45 50  1  0  0  0  0
 46 66  1  0  0  0  0
 47 50  1  0  0  0  0
 47 66  1  0  0  0  0
 48 71  1  0  0  0  0
 49 65  1  0  0  0  0
 50 64  1  0  0  0  0
 51 61  1  0  0  0  0
 52 62  1  0  0  0  0
 53 62  1  0  0  0  0
 54 62  1  0  0  0  0
 55 70  1  0  0  0  0
 56 73  1  0  0  0  0
 57 74  1  0  0  0  0
 58 59  1  0  0  0  0
 58 73  1  0  0  0  0
 59 81  1  0  0  0  0
 60 62  1  0  0  0  0
 60 72  1  0  0  0  0
 61 74  1  0  0  0  0
 63 64  1  0  0  0  0
M  CHG  1  74   1
M  ISO  4  38 100  59 101  69 100  81 101
M  END
> <Batch ID>
0010

> <Smiles>
CNc1cc(N(C)C[101CH2:1][101O:1]c2ccc3c(c2)CN(C(=O)C(NC(=O)C(C)NC)C(C)(C)C)C(C(=O)NC2CCCc4ccccc42)C3)ccc1[100NH:0][100C:0](=O)N1CCCC(n2nc(-c3ccc(Oc4ccc(F)cc4F)cc3)c(C(N)=O)c2N)C1

> <Shape>
0.188

> <Color>
0.080

> <Negative vol penalty>
0.000

$$$$

  -OEChem-04052315413D

 85 93  0     1  0  0  0  0  0999 V2000
  -20.6590  -26.2855   26.1612 C   0  0  0  0  0  0  0  0  0  0  0  0
  -21.8776  -26.2026   25.4951 C   0  0  0  0  0  0  0  0  0  0  0  0
  -23.2484   -9.7100   21.5151 C   0  0  0  0  0  0  0  0  0  0  0  0
  -23.7875  -10.8426   23.5800 C   0  0  0  0  0  0  0  0  0  0  0  0
  -19.5438  -26.8101   25.5093 C   0  0  0  0  0  0  0  0  0  0  0  0
  -21.9813  -26.6434   24.1762 C   0  0  0  0  0  0  0  0  0  0  0  0
  -26.1315  -29.4342   23.3812 C   0  0  0  0  0  0  0  0  0  0  0  0
  -31.8199  -19.1280   21.5636 C   0  0  0  0  0  0  0  0  0  0  0  0
  -29.5299  -19.8974   21.5920 C   0  0  0  0  0  0  0  0  0  0  0  0
  -31.3918  -17.8693   21.1416 C   0  0  0  0  0  0  0  0  0  0  0  0
  -29.1018  -18.6387   21.1700 C   0  0  0  0  0  0  0  0  0  0  0  0
  -22.5778   -8.7200   22.2331 C   0  0  0  0  0  0  0  0  0  0  0  0
  -23.1168   -9.8526   24.2981 C   0  0  0  0  0  0  0  0  0  0  0  0
  -27.3397  -28.7528   23.2409 C   0  0  0  0  0  0  0  0  0  0  0  0
  -23.3805   -5.9833   24.0471 C   0  0  0  0  0  0  0  0  0  0  0  0
  -23.6159   -4.6549   23.6929 C   0  0  0  0  0  0  0  0  0  0  0  0
  -27.1802  -28.9758   20.8442 C   0  0  0  0  0  0  0  0  0  0  0  0
  -21.2691   -4.3723   23.1930 C   0  0  0  0  0  0  0  0  0  0  0  0
  -23.8534  -10.7713   22.1885 C   0  0  0  0  0  0  0  0  0  0  0  0
  -24.0046  -12.9877   20.9344 C   0  0  0  0  0  0  0  0  0  0  0  0
  -19.6362  -27.2664   24.1850 C   0  0  0  0  0  0  0  0  0  0  0  0
  -25.4319  -29.8827   22.2516 C   0  0  0  0  0  0  0  0  0  0  0  0
  -20.8659  -27.1734   23.5056 C   0  0  0  0  0  0  0  0  0  0  0  0
  -25.9646  -29.6649   20.9730 C   0  0  0  0  0  0  0  0  0  0  0  0
  -30.8890  -20.1420   21.7888 C   0  0  0  0  0  0  0  0  0  0  0  0
  -30.0328  -17.6247   20.9448 C   0  0  0  0  0  0  0  0  0  0  0  0
  -22.5120   -8.7913   23.6246 C   0  0  0  0  0  0  0  0  0  0  0  0
  -27.8628  -28.5210   21.9721 C   0  0  0  0  0  0  0  0  0  0  0  0
  -22.0894   -6.5062   23.9743 C   0  0  0  0  0  0  0  0  0  0  0  0
  -22.5603   -3.8494   23.2658 C   0  0  0  0  0  0  0  0  0  0  0  0
  -21.0337   -5.7008   23.5472 C   0  0  0  0  0  0  0  0  0  0  0  0
  -24.5468  -11.7940   21.4473 C   0  0  0  0  0  0  0  0  0  0  0  0
  -25.0634  -13.6088   20.3183 C   0  0  0  0  0  0  0  0  0  0  0  0
  -22.6638  -13.4900   21.0084 C   0  0  0  0  0  0  0  0  0  0  0  0
  -22.5771  -29.2741   20.9933 C   0  0  0  0  0  0  0  0  0  0  0  0
  -23.4001  -31.6585   18.9537 C   0  0  0  0  0  0  0  0  0  0  0  0
  -30.5373  -22.5363   22.4875 C   0  0  0  0  0  0  0  0  0  0  0  0
  -30.2358  -25.7936   22.2522 C   0  0  0  0  0  0  0  0  0  0  0  0
  -25.8791  -33.4724   17.4668 C   0  0  0  0  0  0  0  0  0  0  0  0
  -30.3896  -15.2303   20.2476 C   0  0  0  0  0  0  0  0  0  0  0  0
  -18.3919  -27.7820   23.5063 C   0  0  0  0  0  0  0  0  0  0  0  0
  -24.1432  -30.6396   22.4212 C   0  0  0  0  0  0  0  0  0  0  0  0
  -25.2627  -30.1437   19.7294 C   0  0  0  0  0  0  0  0  0  0  0  0
  -18.6764  -28.5732   22.2323 C   0  0  0  0  0  0  0  0  0  0  0  0
  -29.6956  -11.8962   19.2089 C   0  0  0  0  0  0  0  0  0  0  0  0
  -19.6836  -27.8331   21.3579 C   0  0  0  0  0  0  0  0  0  0  0  0
  -28.2496  -11.6706   19.6564 C   0  0  0  0  0  0  0  0  0  0  0  0
  -30.4734  -12.7471   20.2113 C   0  0  0  0  0  0  0  0  0  0  0  0
  -28.3944  -13.7985   21.0121 C   0  0  0  0  0  0  0  0  0  0  0  0
  -21.0242  -27.6640   22.0828 C   0  0  1  0  0  0  0  0  0  0  0  0
  -23.2592  -30.6001   21.1785 C   0  0  1  0  0  0  0  0  0  0  0  0
  -27.5527  -13.0010   20.0025 C   0  0  2  0  0  0  0  0  0  0  0  0
  -26.2438  -35.3283   15.8176 C   0  0  0  0  0  0  0  0  0  0  0  0
  -22.7938  -29.7376   16.6618 C   0  0  0  0  0  0  0  0  0  0  0  0
  -24.0528  -31.2717   15.1355 C   0  0  0  0  0  0  0  0  0  0  0  0
  -21.9989  -32.0807   16.2973 C   0  0  0  0  0  0  0  0  0  0  0  0
  -27.2031  -35.1719   19.4961 C   0  0  0  0  0  0  0  0  0  0  0  0
  -31.4044  -23.7025   22.9210 C   0  0  0  0  0  0  0  0  0  0  0  0
  -29.3632  -26.8873   22.8300 C   0  0  0  0  0  0  0  0  0  1  0  0
  -24.1196  -31.7310   17.6286 C   0  0  1  0  0  0  0  0  0  0  0  0
  -26.0615  -34.9683   17.2839 C   0  0  2  0  0  0  0  0  0  0  0  0
  -23.2538  -31.1944   16.4539 C   0  0  0  0  0  0  0  0  0  0  0  0
  -25.8489  -11.6625   21.1801 N   0  0  0  0  0  0  0  0  0  0  0  0
  -26.1336  -12.7816   20.4925 N   0  0  0  0  0  0  0  0  0  0  0  0
  -24.0027  -30.8734   19.9469 N   0  0  0  0  0  0  0  0  0  0  0  0
  -29.7552  -13.9931   20.4876 N   0  0  0  0  0  0  0  0  0  0  0  0
  -25.1739  -14.7765   19.6498 N   0  0  0  0  0  0  0  0  0  0  0  0
  -21.6997  -12.7250   21.6788 N   0  0  0  0  0  0  0  0  0  0  0  0
  -31.3231  -21.4191   22.2173 N   0  0  0  0  0  0  0  0  0  0  0  0
  -29.5975  -16.3461   20.5162 N   0  0  0  0  0  0  0  0  0  0  0  0
  -21.7738  -28.9016   22.0542 N   0  0  0  0  0  0  0  0  0  0  0  0
  -30.5765  -24.8507   23.2094 N   0  0  0  0  0  0  0  0  0  0  0  0
  -24.5468  -33.1171   17.4714 N   0  0  0  0  0  0  0  0  0  0  0  0
  -27.2585  -35.4401   18.0359 N   0  3  0  0  0  0  0  0  0  0  0  0
  -22.3268  -14.5772   20.4810 O   0  0  0  0  0  0  0  0  0  0  0  0
  -22.7645  -28.6369   19.9635 O   0  0  0  0  0  0  0  0  0  0  0  0
  -22.3461  -32.2813   19.1044 O   0  0  0  0  0  0  0  0  0  0  0  0
  -29.3156  -22.6217   22.4142 O   0  0  0  0  0  0  0  0  0  0  0  0
  -30.5834  -25.7735   21.0746 O   0  0  0  0  0  0  0  0  0  0  0  0
  -26.8241  -32.6962   17.5894 O   0  0  0  0  0  0  0  0  0  0  0  0
  -31.5406  -15.2950   19.8083 O   0  0  0  0  0  0  0  0  0  0  0  0
  -21.8574   -7.8255   24.3256 O   0  0  0  0  0  0  0  0  0  0  0  0
  -29.0416  -27.8556   21.8323 O   0  0  0  0  0  0  0  0  0  1  0  0
  -22.7867   -2.5742   22.9242 F   0  0  0  0  0  0  0  0  0  0  0  0
  -19.7914   -6.1979   23.4742 F   0  0  0  0  0  0  0  0  0  0  0  0
  1  2  1  0  0  0  0
  1  5  2  0  0  0  0
  2  6  2  0  0  0  0
  3 12  2  0  0  0  0
  3 19  1  0  0  0  0
  4 13  1  0  0  0  0
  4 19  2  0  0  0  0
  5 21  1  0  0  0  0
  6 23  1  0  0  0  0
  7 14  2  0  0  0  0
  7 22  1  0  0  0  0
  8 10  2  0  0  0  0
  8 25  1  0  0  0  0
  9 11  1  0  0  0  0
  9 25  2  0  0  0  0
 10 26  1  0  0  0  0
 11 26  2  0  0  0  0
 12 27  1  0  0  0  0
 13 27  2  0  0  0  0
 14 28  1  0  0  0  0
 15 16  2  0  0  0  0
 15 29  1  0  0  0  0
 16 30  1  0  0  0  0
 17 24  1  0  0  0  0
 17 28  2  0  0  0  0
 18 30  2  0  0  0  0
 18 31  1  0  0  0  0
 19 32  1  0  0  0  0
 20 32  1  0  0  0  0
 20 33  2  0  0  0  0
 20 34  1  0  0  0  0
 21 23  2  0  0  0  0
 21 41  1  0  0  0  0
 22 24  2  0  0  0  0
 22 42  1  0  0  0  0
 23 50  1  0  0  0  0
 24 43  1  0  0  0  0
 25 69  1  0  0  0  0
 26 70  1  0  0  0  0
 27 82  1  0  0  0  0
 28 83  1  0  0  0  0
 29 31  2  0  0  0  0
 29 82  1  0  0  0  0
 30 84  1  0  0  0  0
 31 85  1  0  0  0  0
 32 63  2  0  0  0  0
 33 64  1  0  0  0  0
 33 67  1  0  0  0  0
 34 68  1  0  0  0  0
 34 75  2  0  0  0  0
 35 51  1  0  0  0  0
 35 71  1  0  0  0  0
 35 76  2  0  0  0  0
 36 60  1  0  0  0  0
 36 65  1  0  0  0  0
 36 77  2  0  0  0  0
 37 58  1  0  0  0  0
 37 69  1  0  0  0  0
 37 78  2  0  0  0  0
 38 59  1  0  0  0  0
 38 72  1  0  0  0  0
 38 79  2  0  0  0  0
 39 61  1  0  0  0  0
 39 73  1  0  0  0  0
 39 80  2  0  0  0  0
 40 66  1  0  0  0  0
 40 70  1  0  0  0  0
 40 81  2  0  0  0  0
 41 44  1  0  0  0  0
 42 51  1  0  0  0  0
 43 65  1  0  0  0  0
 44 46  1  0  0  0  0
 45 47  1  0  0  0  0
 45 48  1  0  0  0  0
 46 50  1  0  0  0  0
 47 52  1  0  0  0  0
 48 66  1  0  0  0  0
 49 52  1  0  0  0  0
 49 66  1  0  0  0  0
 50 71  1  0  0  0  0
 51 65  1  0  0  0  0
 52 64  1  0  0  0  0
 53 61  1  0  0  0  0
 54 62  1  0  0  0  0
 55 62  1  0  0  0  0
 56 62  1  0  0  0  0
 57 74  1  0  0  0  0
 58 72  1  0  0  0  0
 59 83  1  0  0  0  0
 60 62  1  0  0  0  0
 60 73  1  0  0  0  0
 61 74  1  0  0  0  0
 63 64  1  0  0  0  0
M  CHG  1  74   1
M  ISO  4  40 100  59 101  70 100  83 101
M  END
> <Batch ID>
0010

> <Smiles>
CNC(C)C(=O)NC(C(=O)N1Cc2cc([101O:1][101CH2:1]C(=O)NCC(=O)Nc3ccc([100NH:0][100C:0](=O)N4CCCC(n5nc(-c6ccc(Oc7ccc(F)cc7F)cc6)c(C(N)=O)c5N)C4)cc3)ccc2CC1C(=O)NC1CCCc2ccccc21)C(C)(C)C

> <Shape>
0.288

> <Color>
0.179

> <Negative vol penalty>
0.000

$$$$

  -OEChem-04052315413D

 84 92  0     1  0  0  0  0  0999 V2000
  -34.3539  -34.9507   21.3156 C   0  0  0  0  0  0  0  0  0  0  0  0
  -34.3154  -33.5656   21.4400 C   0  0  0  0  0  0  0  0  0  0  0  0
  -23.0003   -9.8947   19.9815 C   0  0  0  0  0  0  0  0  0  0  0  0
  -23.7284   -9.9432   22.2847 C   0  0  0  0  0  0  0  0  0  0  0  0
  -33.2922  -35.7215   21.7874 C   0  0  0  0  0  0  0  0  0  0  0  0
  -33.2156  -32.9506   22.0371 C   0  0  0  0  0  0  0  0  0  0  0  0
  -30.7779  -27.5298   20.5612 C   0  0  0  0  0  0  0  0  0  0  0  0
  -31.3949  -18.9743   20.5315 C   0  0  0  0  0  0  0  0  0  0  0  0
  -31.1945  -17.5944   20.5660 C   0  0  0  0  0  0  0  0  0  0  0  0
  -22.2345   -8.7597   20.2475 C   0  0  0  0  0  0  0  0  0  0  0  0
  -22.9626   -8.8081   22.5507 C   0  0  0  0  0  0  0  0  0  0  0  0
  -30.9181  -26.2569   21.1126 C   0  0  0  0  0  0  0  0  0  0  0  0
  -23.2074   -5.4698   22.0745 C   0  0  0  0  0  0  0  0  0  0  0  0
  -23.7962   -4.4520   22.8246 C   0  0  0  0  0  0  0  0  0  0  0  0
  -28.9112  -26.6027   22.4057 C   0  0  0  0  0  0  0  0  0  0  0  0
  -29.7460  -19.2574   22.2745 C   0  0  0  0  0  0  0  0  0  0  0  0
  -22.0744   -4.6923   24.5024 C   0  0  0  0  0  0  0  0  0  0  0  0
  -23.7473  -10.4865   21.0001 C   0  0  0  0  0  0  0  0  0  0  0  0
  -24.1316  -13.0024   20.8266 C   0  0  0  0  0  0  0  0  0  0  0  0
  -32.1744  -35.1150   22.3819 C   0  0  0  0  0  0  0  0  0  0  0  0
  -29.7076  -28.3542   20.9368 C   0  0  0  0  0  0  0  0  0  0  0  0
  -32.1385  -33.7141   22.5185 C   0  0  0  0  0  0  0  0  0  0  0  0
  -28.7583  -27.8846   21.8557 C   0  0  0  0  0  0  0  0  0  0  0  0
  -30.6707  -19.8058   21.3858 C   0  0  0  0  0  0  0  0  0  0  0  0
  -30.2698  -17.0459   21.4546 C   0  0  0  0  0  0  0  0  0  0  0  0
  -22.2156   -8.2164   21.5321 C   0  0  0  0  0  0  0  0  0  0  0  0
  -29.9862  -25.7943   22.0371 C   0  0  0  0  0  0  0  0  0  0  0  0
  -22.0521   -6.0991   22.5383 C   0  0  0  0  0  0  0  0  0  0  0  0
  -29.5455  -17.8774   22.3089 C   0  0  0  0  0  0  0  0  0  0  0  0
  -23.2297   -4.0632   24.0385 C   0  0  0  0  0  0  0  0  0  0  0  0
  -21.4856   -5.7103   23.7522 C   0  0  0  0  0  0  0  0  0  0  0  0
  -24.5391  -11.6587   20.7258 C   0  0  0  0  0  0  0  0  0  0  0  0
  -25.2407  -13.7258   20.4616 C   0  0  0  0  0  0  0  0  0  0  0  0
  -22.8640  -13.5479   21.2154 C   0  0  0  0  0  0  0  0  0  0  0  0
  -29.4485  -31.1862   22.3567 C   0  0  0  0  0  0  0  0  0  0  0  0
  -26.3019  -30.8100   21.6638 C   0  0  0  0  0  0  0  0  0  0  0  0
  -30.2432  -22.1732   22.1252 C   0  0  0  0  0  0  0  0  0  0  0  0
  -23.7186  -28.6856   20.9854 C   0  0  0  0  0  0  0  0  0  0  0  0
  -30.7201  -14.6883   20.6896 C   0  0  0  0  0  0  0  0  0  0  0  0
  -31.0722  -35.9929   22.9195 C   0  0  0  0  0  0  0  0  0  0  0  0
  -29.5557  -29.7144   20.3127 C   0  0  0  0  0  0  0  0  0  0  0  0
  -27.5799  -28.7228   22.2768 C   0  0  0  0  0  0  0  0  0  0  0  0
  -29.7754  -35.2386   23.2015 C   0  0  0  0  0  0  0  0  0  0  0  0
  -29.5996  -12.2378   18.3622 C   0  0  0  0  0  0  0  0  0  0  0  0
  -30.0632  -33.9480   23.9620 C   0  0  0  0  0  0  0  0  0  0  0  0
  -28.1497  -11.9792   18.7780 C   0  0  0  0  0  0  0  0  0  0  0  0
  -30.5016  -12.4801   19.5711 C   0  0  0  0  0  0  0  0  0  0  0  0
  -28.5878  -13.2668   20.9081 C   0  0  0  0  0  0  0  0  0  0  0  0
  -30.9518  -33.0084   23.1380 C   0  0  1  0  0  0  0  0  0  0  0  0
  -28.7122  -30.6671   21.1542 C   0  0  1  0  0  0  0  0  0  0  0  0
  -27.6286  -13.0815   19.7209 C   0  0  2  0  0  0  0  0  0  0  0  0
  -26.3598  -16.6845   23.4856 C   0  0  0  0  0  0  0  0  0  0  0  0
  -21.2565  -28.6700   20.5003 C   0  0  0  0  0  0  0  0  0  0  0  0
  -25.7196  -31.3191   24.6154 C   0  0  0  0  0  0  0  0  0  0  0  0
  -23.4312  -30.3692   24.2560 C   0  0  0  0  0  0  0  0  0  0  0  0
  -24.1318  -32.4272   23.0325 C   0  0  0  0  0  0  0  0  0  0  0  0
  -24.1326  -27.4557   18.3256 C   0  0  0  0  0  0  0  0  0  0  0  0
  -30.7515  -23.5584   21.7709 C   0  0  0  0  0  0  0  0  0  1  0  0
  -27.2855  -17.7983   23.0450 C   0  0  0  0  0  0  0  0  0  0  0  0
  -25.1177  -30.1953   22.3702 C   0  0  1  0  0  0  0  0  0  0  0  0
  -22.6545  -28.7071   19.9029 C   0  0  2  0  0  0  0  0  0  0  0  0
  -24.6232  -31.0624   23.5622 C   0  0  0  0  0  0  0  0  0  0  0  0
  -25.8079  -11.5330   20.3279 N   0  0  0  0  0  0  0  0  0  0  0  0
  -26.2073  -12.8071   20.1753 N   0  0  0  0  0  0  0  0  0  0  0  0
  -27.4786  -30.0479   21.6433 N   0  0  0  0  0  0  0  0  0  0  0  0
  -29.9474  -13.5399   20.4164 N   0  0  0  0  0  0  0  0  0  0  0  0
  -25.4736  -15.0517   20.3608 N   0  0  0  0  0  0  0  0  0  0  0  0
  -21.8329  -12.6631   21.5592 N   0  0  0  0  0  0  0  0  0  0  0  0
  -30.8737  -21.2058   21.3501 N   0  0  0  0  0  0  0  0  0  0  0  0
  -30.0766  -15.6424   21.4772 N   0  0  0  0  0  0  0  0  0  0  0  0
  -30.1717  -32.3394   22.1190 N   0  0  0  0  0  0  0  0  0  0  0  0
  -24.1081  -29.9588   21.3440 N   0  0  0  0  0  0  0  0  0  0  0  0
  -22.8109  -27.5322   18.9995 N   0  3  0  0  0  0  0  0  0  0  0  0
  -22.6469  -14.7831   21.2409 O   0  0  0  0  0  0  0  0  0  0  0  0
  -29.3653  -30.5859   23.4218 O   0  0  0  0  0  0  0  0  0  0  0  0
  -26.1850  -31.9221   21.1431 O   0  0  0  0  0  0  0  0  0  0  0  0
  -29.3895  -22.0037   22.9895 O   0  0  0  0  0  0  0  0  0  0  0  0
  -24.1574  -27.6438   21.4675 O   0  0  0  0  0  0  0  0  0  0  0  0
  -31.8582  -14.8281   20.2343 O   0  0  0  0  0  0  0  0  0  0  0  0
  -21.4682   -7.1090   21.7920 O   0  0  0  0  0  0  0  0  0  0  0  0
  -30.1210  -24.5526   22.5773 O   0  0  0  0  0  0  0  0  0  1  0  0
  -28.6358  -17.3621   23.1837 O   0  0  0  0  0  0  0  0  0  0  0  0
  -23.7944   -3.0846   24.7581 F   0  0  0  0  0  0  0  0  0  0  0  0
  -20.3751   -6.3103   24.2024 F   0  0  0  0  0  0  0  0  0  0  0  0
  1  2  1  0  0  0  0
  1  5  2  0  0  0  0
  2  6  2  0  0  0  0
  3 10  2  0  0  0  0
  3 18  1  0  0  0  0
  4 11  1  0  0  0  0
  4 18  2  0  0  0  0
  5 20  1  0  0  0  0
  6 22  1  0  0  0  0
  7 12  2  0  0  0  0
  7 21  1  0  0  0  0
  8  9  2  0  0  0  0
  8 24  1  0  0  0  0
  9 25  1  0  0  0  0
 10 26  1  0  0  0  0
 11 26  2  0  0  0  0
 12 27  1  0  0  0  0
 13 14  2  0  0  0  0
 13 28  1  0  0  0  0
 14 30  1  0  0  0  0
 15 23  1  0  0  0  0
 15 27  2  0  0  0  0
 16 24  2  0  0  0  0
 16 29  1  0  0  0  0
 17 30  2  0  0  0  0
 17 31  1  0  0  0  0
 18 32  1  0  0  0  0
 19 32  1  0  0  0  0
 19 33  2  0  0  0  0
 19 34  1  0  0  0  0
 20 22  2  0  0  0  0
 20 40  1  0  0  0  0
 21 23  2  0  0  0  0
 21 41  1  0  0  0  0
 22 49  1  0  0  0  0
 23 42  1  0  0  0  0
 24 69  1  0  0  0  0
 25 29  2  0  0  0  0
 25 70  1  0  0  0  0
 26 80  1  0  0  0  0
 27 81  1  0  0  0  0
 28 31  2  0  0  0  0
 28 80  1  0  0  0  0
 29 82  1  0  0  0  0
 30 83  1  0  0  0  0
 31 84  1  0  0  0  0
 32 63  2  0  0  0  0
 33 64  1  0  0  0  0
 33 67  1  0  0  0  0
 34 68  1  0  0  0  0
 34 74  2  0  0  0  0
 35 50  1  0  0  0  0
 35 71  1  0  0  0  0
 35 75  2  0  0  0  0
 36 60  1  0  0  0  0
 36 65  1  0  0  0  0
 36 76  2  0  0  0  0
 37 58  1  0  0  0  0
 37 69  1  0  0  0  0
 37 77  2  0  0  0  0
 38 61  1  0  0  0  0
 38 72  1  0  0  0  0
 38 78  2  0  0  0  0
 39 66  1  0  0  0  0
 39 70  1  0  0  0  0
 39 79  2  0  0  0  0
 40 43  1  0  0  0  0
 41 50  1  0  0  0  0
 42 65  1  0  0  0  0
 43 45  1  0  0  0  0
 44 46  1  0  0  0  0
 44 47  1  0  0  0  0
 45 49  1  0  0  0  0
 46 51  1  0  0  0  0
 47 66  1  0  0  0  0
 48 51  1  0  0  0  0
 48 66  1  0  0  0  0
 49 71  1  0  0  0  0
 50 65  1  0  0  0  0
 51 64  1  0  0  0  0
 52 59  1  0  0  0  0
 53 61  1  0  0  0  0
 54 62  1  0  0  0  0
 55 62  1  0  0  0  0
 56 62  1  0  0  0  0
 57 73  1  0  0  0  0
 58 81  1  0  0  0  0
 59 82  1  0  0  0  0
 60 62  1  0  0  0  0
 60 72  1  0  0  0  0
 61 73  1  0  0  0  0
 63 64  1  0  0  0  0
M  CHG  1  73   1
M  ISO  4  39 100  58 101  70 100  81 101
M  END
> <Batch ID>
0010

> <Smiles>
CCOc1cc(NC(=O)[101CH2:1][101O:1]c2ccc3c(c2)CN(C(=O)C(NC(=O)C(C)NC)C(C)(C)C)C(C(=O)NC2CCCc4ccccc42)C3)ccc1[100NH:0][100C:0](=O)N1CCCC(n2nc(-c3ccc(Oc4ccc(F)cc4F)cc3)c(C(N)=O)c2N)C1

> <Shape>
0.308

> <Color>
0.194

> <Negative vol penalty>
0.000

$$$$

  -OEChem-04052315413D

 83 91  0     1  0  0  0  0  0999 V2000
  -17.9039  -25.4140   21.9100 C   0  0  0  0  0  0  0  0  0  0  0  0
  -19.1750  -24.9456   22.2263 C   0  0  0  0  0  0  0  0  0  0  0  0
  -23.9111   -9.9191   21.6834 C   0  0  0  0  0  0  0  0  0  0  0  0
  -24.4643  -11.0815   23.7279 C   0  0  0  0  0  0  0  0  0  0  0  0
  -17.7509  -26.6693   21.3230 C   0  0  0  0  0  0  0  0  0  0  0  0
  -20.2942  -25.7318   21.9547 C   0  0  0  0  0  0  0  0  0  0  0  0
  -25.4369  -26.0835   25.2615 C   0  0  0  0  0  0  0  0  0  0  0  0
  -31.3234  -20.2596   21.3009 C   0  0  0  0  0  0  0  0  0  0  0  0
  -30.9838  -18.9717   20.8866 C   0  0  0  0  0  0  0  0  0  0  0  0
  -23.4188   -8.8463   22.4265 C   0  0  0  0  0  0  0  0  0  0  0  0
  -23.9719  -10.0087   24.4711 C   0  0  0  0  0  0  0  0  0  0  0  0
  -26.6848  -25.4776   25.1223 C   0  0  0  0  0  0  0  0  0  0  0  0
  -20.6080   -8.0894   24.1469 C   0  0  0  0  0  0  0  0  0  0  0  0
  -19.3860   -7.5394   23.7600 C   0  0  0  0  0  0  0  0  0  0  0  0
  -27.5022  -27.4377   23.9782 C   0  0  0  0  0  0  0  0  0  0  0  0
  -28.9807  -20.8034   21.5311 C   0  0  0  0  0  0  0  0  0  0  0  0
  -20.4600   -5.4053   23.4010 C   0  0  0  0  0  0  0  0  0  0  0  0
  -24.4340  -11.0367   22.3341 C   0  0  0  0  0  0  0  0  0  0  0  0
  -24.2259  -13.2711   21.1210 C   0  0  0  0  0  0  0  0  0  0  0  0
  -18.8680  -27.4754   21.0529 C   0  0  0  0  0  0  0  0  0  0  0  0
  -25.2087  -27.3689   24.7495 C   0  0  0  0  0  0  0  0  0  0  0  0
  -20.1561  -26.9986   21.3622 C   0  0  0  0  0  0  0  0  0  0  0  0
  -26.2512  -28.0587   24.1144 C   0  0  0  0  0  0  0  0  0  0  0  0
  -30.3219  -21.1754   21.6233 C   0  0  0  0  0  0  0  0  0  0  0  0
  -29.6426  -18.5997   20.7944 C   0  0  0  0  0  0  0  0  0  0  0  0
  -23.4491   -8.8911   23.8204 C   0  0  0  0  0  0  0  0  0  0  0  0
  -27.7168  -26.1535   24.4781 C   0  0  0  0  0  0  0  0  0  0  0  0
  -21.7561   -7.2973   24.1608 C   0  0  0  0  0  0  0  0  0  0  0  0
  -19.3119   -6.1974   23.3871 C   0  0  0  0  0  0  0  0  0  0  0  0
  -21.6821   -5.9553   23.7878 C   0  0  0  0  0  0  0  0  0  0  0  0
  -28.6411  -19.5155   21.1167 C   0  0  0  0  0  0  0  0  0  0  0  0
  -24.9433  -12.1450   21.5670 C   0  0  0  0  0  0  0  0  0  0  0  0
  -25.1541  -14.0232   20.4432 C   0  0  0  0  0  0  0  0  0  0  0  0
  -22.8441  -13.6074   21.3032 C   0  0  0  0  0  0  0  0  0  0  0  0
  -23.2689  -28.5958   22.5505 C   0  0  0  0  0  0  0  0  0  0  0  0
  -24.4788  -31.4109   23.6152 C   0  0  0  0  0  0  0  0  0  0  0  0
  -29.8040  -23.5141   22.4019 C   0  0  0  0  0  0  0  0  0  0  0  0
  -27.0325  -33.0687   25.1570 C   0  0  0  0  0  0  0  0  0  0  0  0
  -30.2290  -16.2750   20.0210 C   0  0  0  0  0  0  0  0  0  0  0  0
  -18.6563  -28.8055   20.3740 C   0  0  0  0  0  0  0  0  0  0  0  0
  -23.8647  -28.0192   24.9314 C   0  0  0  0  0  0  0  0  0  0  0  0
  -26.0636  -29.4485   23.5651 C   0  0  0  0  0  0  0  0  0  0  0  0
  -19.8651  -29.7335   20.4621 C   0  0  0  0  0  0  0  0  0  0  0  0
  -29.8614  -12.8952   18.9630 C   0  0  0  0  0  0  0  0  0  0  0  0
  -21.1445  -28.9779   20.1168 C   0  0  0  0  0  0  0  0  0  0  0  0
  -28.4901  -12.4914   19.5094 C   0  0  0  0  0  0  0  0  0  0  0  0
  -30.6050  -13.8205   19.9245 C   0  0  0  0  0  0  0  0  0  0  0  0
  -28.4813  -14.6036   20.8971 C   0  0  0  0  0  0  0  0  0  0  0  0
  -21.3926  -27.8324   21.1057 C   0  0  1  0  0  0  0  0  0  0  0  0
  -23.5948  -29.1270   23.9177 C   0  0  1  0  0  0  0  0  0  0  0  0
  -27.6675  -13.7237   19.9342 C   0  0  2  0  0  0  0  0  0  0  0  0
  -27.7525  -35.3707   25.8495 C   0  0  0  0  0  0  0  0  0  0  0  0
  -25.1891  -32.0573   20.7191 C   0  0  0  0  0  0  0  0  0  0  0  0
  -26.7101  -33.8563   21.5668 C   0  0  0  0  0  0  0  0  0  0  0  0
  -24.2602  -33.9809   22.0196 C   0  0  0  0  0  0  0  0  0  0  0  0
  -27.1091  -32.3105   28.0167 C   0  0  0  0  0  0  0  0  0  0  0  0
  -30.5935  -24.7582   22.7928 C   0  0  0  0  0  0  0  0  0  0  0  0
  -29.7067  -25.9266   23.1956 C   0  0  0  0  0  0  0  0  0  1  0  0
  -25.6624  -32.2730   23.2480 C   0  0  1  0  0  0  0  0  0  0  0  0
  -27.0368  -34.0976   26.2732 C   0  0  2  0  0  0  0  0  0  0  0  0
  -25.4588  -33.0149   21.8969 C   0  0  0  0  0  0  0  0  0  0  0  0
  -26.2281  -12.1747   21.2030 N   0  0  0  0  0  0  0  0  0  0  0  0
  -26.3253  -13.3286   20.5211 N   0  0  0  0  0  0  0  0  0  0  0  0
  -24.7295  -30.0393   23.7621 N   0  0  0  0  0  0  0  0  0  0  0  0
  -29.7662  -14.9674   20.2794 N   0  0  0  0  0  0  0  0  0  0  0  0
  -25.0745  -15.2042   19.7941 N   0  0  0  0  0  0  0  0  0  0  0  0
  -22.0308  -12.7233   22.0250 N   0  0  0  0  0  0  0  0  0  0  0  0
  -30.6670  -22.4817   22.0443 N   0  0  0  0  0  0  0  0  0  0  0  0
  -29.3320  -17.2837   20.3708 N   0  0  0  0  0  0  0  0  0  0  0  0
  -21.9249  -28.3453   22.3499 N   0  0  0  0  0  0  0  0  0  0  0  0
  -25.8927  -33.1564   24.3860 N   0  0  0  0  0  0  0  0  0  0  0  0
  -27.7229  -33.5516   27.4782 N   0  3  0  0  0  0  0  0  0  0  0  0
  -22.3416  -14.6528   20.8255 O   0  0  0  0  0  0  0  0  0  0  0  0
  -24.1700  -28.4272   21.7372 O   0  0  0  0  0  0  0  0  0  0  0  0
  -23.3739  -31.9362   23.7731 O   0  0  0  0  0  0  0  0  0  0  0  0
  -28.5779  -23.4869   22.4191 O   0  0  0  0  0  0  0  0  0  0  0  0
  -27.9503  -32.2698   24.9839 O   0  0  0  0  0  0  0  0  0  0  0  0
  -31.3280  -16.4834   19.5008 O   0  0  0  0  0  0  0  0  0  0  0  0
  -22.9685   -7.8446   24.5458 O   0  0  0  0  0  0  0  0  0  0  0  0
  -28.9356  -25.5641   24.3403 O   0  0  0  0  0  0  0  0  0  1  0  0
  -18.1380   -5.6690   23.0171 F   0  0  0  0  0  0  0  0  0  0  0  0
  -22.7815   -5.1890   23.8002 F   0  0  0  0  0  0  0  0  0  0  0  0
  -26.9682  -19.0957   21.0166 Cl  0  0  0  0  0  0  0  0  0  0  0  0
  1  2  1  0  0  0  0
  1  5  2  0  0  0  0
  2  6  2  0  0  0  0
  3 10  2  0  0  0  0
  3 18  1  0  0  0  0
  4 11  1  0  0  0  0
  4 18  2  0  0  0  0
  5 20  1  0  0  0  0
  6 22  1  0  0  0  0
  7 12  2  0  0  0  0
  7 21  1  0  0  0  0
  8  9  2  0  0  0  0
  8 24  1  0  0  0  0
  9 25  1  0  0  0  0
 10 26  1  0  0  0  0
 11 26  2  0  0  0  0
 12 27  1  0  0  0  0
 13 14  2  0  0  0  0
 13 28  1  0  0  0  0
 14 29  1  0  0  0  0
 15 23  1  0  0  0  0
 15 27  2  0  0  0  0
 16 24  2  0  0  0  0
 16 31  1  0  0  0  0
 17 29  2  0  0  0  0
 17 30  1  0  0  0  0
 18 32  1  0  0  0  0
 19 32  1  0  0  0  0
 19 33  2  0  0  0  0
 19 34  1  0  0  0  0
 20 22  2  0  0  0  0
 20 40  1  0  0  0  0
 21 23  2  0  0  0  0
 21 41  1  0  0  0  0
 22 49  1  0  0  0  0
 23 42  1  0  0  0  0
 24 68  1  0  0  0  0
 25 31  2  0  0  0  0
 25 69  1  0  0  0  0
 26 79  1  0  0  0  0
 27 80  1  0  0  0  0
 28 30  2  0  0  0  0
 28 79  1  0  0  0  0
 29 81  1  0  0  0  0
 30 82  1  0  0  0  0
 31 83  1  0  0  0  0
 32 62  2  0  0  0  0
 33 63  1  0  0  0  0
 33 66  1  0  0  0  0
 34 67  1  0  0  0  0
 34 73  2  0  0  0  0
 35 50  1  0  0  0  0
 35 70  1  0  0  0  0
 35 74  2  0  0  0  0
 36 59  1  0  0  0  0
 36 64  1  0  0  0  0
 36 75  2  0  0  0  0
 37 57  1  0  0  0  0
 37 68  1  0  0  0  0
 37 76  2  0  0  0  0
 38 60  1  0  0  0  0
 38 71  1  0  0  0  0
 38 77  2  0  0  0  0
 39 65  1  0  0  0  0
 39 69  1  0  0  0  0
 39 78  2  0  0  0  0
 40 43  1  0  0  0  0
 41 50  1  0  0  0  0
 42 64  1  0  0  0  0
 43 45  1  0  0  0  0
 44 46  1  0  0  0  0
 44 47  1  0  0  0  0
 45 49  1  0  0  0  0
 46 51  1  0  0  0  0
 47 65  1  0  0  0  0
 48 51  1  0  0  0  0
 48 65  1  0  0  0  0
 49 70  1  0  0  0  0
 50 64  1  0  0  0  0
 51 63  1  0  0  0  0
 52 60  1  0  0  0  0
 53 61  1  0  0  0  0
 54 61  1  0  0  0  0
 55 61  1  0  0  0  0
 56 72  1  0  0  0  0
 57 58  1  0  0  0  0
 58 80  1  0  0  0  0
 59 61  1  0  0  0  0
 59 71  1  0  0  0  0
 60 72  1  0  0  0  0
 62 63  1  0  0  0  0
M  CHG  1  72   1
M  ISO  4  39 100  58 101  69 100  80 101
M  END
> <Batch ID>
0010

> <Smiles>
CNC(C)C(=O)NC(C(=O)N1Cc2cc([101O:1][101CH2:1]CC(=O)Nc3ccc([100NH:0][100C:0](=O)N4CCCC(n5nc(-c6ccc(Oc7ccc(F)cc7F)cc6)c(C(N)=O)c5N)C4)c(Cl)c3)ccc2CC1C(=O)NC1CCCc2ccccc21)C(C)(C)C

> <Shape>
0.286

> <Color>
0.137

> <Negative vol penalty>
0.000

$$$$

  -OEChem-04052315413D

 85 93  0     1  0  0  0  0  0999 V2000
  -28.8124  -33.5040   25.5279 C   0  0  0  0  0  0  0  0  0  0  0  0
  -28.7009  -32.2059   25.0399 C   0  0  0  0  0  0  0  0  0  0  0  0
  -24.6889   -8.7441   21.3315 C   0  0  0  0  0  0  0  0  0  0  0  0
  -23.2350  -10.6561   21.5916 C   0  0  0  0  0  0  0  0  0  0  0  0
  -27.6653  -34.2641   25.7521 C   0  0  0  0  0  0  0  0  0  0  0  0
  -27.4421  -31.6669   24.7768 C   0  0  0  0  0  0  0  0  0  0  0  0
  -27.2628  -29.2224   20.3454 C   0  0  0  0  0  0  0  0  0  0  0  0
  -28.0826  -20.2913   20.2065 C   0  0  0  0  0  0  0  0  0  0  0  0
  -28.3819  -18.9299   20.1561 C   0  0  0  0  0  0  0  0  0  0  0  0
  -23.9997   -8.0818   22.3473 C   0  0  0  0  0  0  0  0  0  0  0  0
  -22.5458   -9.9937   22.6075 C   0  0  0  0  0  0  0  0  0  0  0  0
  -27.8123  -27.9418   20.3020 C   0  0  0  0  0  0  0  0  0  0  0  0
  -21.0923   -6.3902   22.6923 C   0  0  0  0  0  0  0  0  0  0  0  0
  -20.7477   -5.0557   22.4785 C   0  0  0  0  0  0  0  0  0  0  0  0
  -25.6025  -26.9936   20.4934 C   0  0  0  0  0  0  0  0  0  0  0  0
  -25.7335  -19.7671   20.4166 C   0  0  0  0  0  0  0  0  0  0  0  0
  -22.0475   -4.4106   24.4102 C   0  0  0  0  0  0  0  0  0  0  0  0
  -24.3066  -10.0313   20.9536 C   0  0  0  0  0  0  0  0  0  0  0  0
  -24.7347  -10.6882   18.5261 C   0  0  0  0  0  0  0  0  0  0  0  0
  -26.3923  -33.7375   25.4826 C   0  0  0  0  0  0  0  0  0  0  0  0
  -25.8776  -29.3985   20.4744 C   0  0  0  0  0  0  0  0  0  0  0  0
  -26.2768  -32.4202   24.9990 C   0  0  0  0  0  0  0  0  0  0  0  0
  -25.0377  -28.2775   20.5357 C   0  0  0  0  0  0  0  0  0  0  0  0
  -26.0328  -18.4056   20.3661 C   0  0  0  0  0  0  0  0  0  0  0  0
  -26.7584  -20.7099   20.3369 C   0  0  0  0  0  0  0  0  0  0  0  0
  -27.3570  -17.9870   20.2358 C   0  0  0  0  0  0  0  0  0  0  0  0
  -22.9281   -8.7066   22.9853 C   0  0  0  0  0  0  0  0  0  0  0  0
  -26.9824  -26.8271   20.3789 C   0  0  0  0  0  0  0  0  0  0  0  0
  -21.9146   -6.7350   23.7650 C   0  0  0  0  0  0  0  0  0  0  0  0
  -21.2253   -4.0658   23.3374 C   0  0  0  0  0  0  0  0  0  0  0  0
  -22.3921   -5.7452   24.6240 C   0  0  0  0  0  0  0  0  0  0  0  0
  -25.0185  -10.7161   19.9047 C   0  0  0  0  0  0  0  0  0  0  0  0
  -25.6928  -11.4946   17.9620 C   0  0  0  0  0  0  0  0  0  0  0  0
  -23.6978   -9.9953   17.8188 C   0  0  0  0  0  0  0  0  0  0  0  0
  -23.9794  -30.7423   22.6411 C   0  0  0  0  0  0  0  0  0  0  0  0
  -21.6740  -30.0960   20.4526 C   0  0  0  0  0  0  0  0  0  0  0  0
  -27.3463  -23.1570   20.3277 C   0  0  0  0  0  0  0  0  0  0  0  0
  -20.6394  -28.2052   17.8066 C   0  0  0  0  0  0  0  0  0  0  0  0
  -28.9505  -16.0439   20.0586 C   0  0  0  0  0  0  0  0  0  0  0  0
  -25.1789  -34.5805   25.7855 C   0  0  0  0  0  0  0  0  0  0  0  0
  -25.2982  -30.7864   20.4929 C   0  0  0  0  0  0  0  0  0  0  0  0
  -23.5423  -28.4125   20.6543 C   0  0  0  0  0  0  0  0  0  0  0  0
  -23.9009  -34.0674   25.1269 C   0  0  0  0  0  0  0  0  0  0  0  0
  -30.1818  -13.0170   18.6447 C   0  0  0  0  0  0  0  0  0  0  0  0
  -23.7635  -32.5618   25.3291 C   0  0  0  0  0  0  0  0  0  0  0  0
  -28.9699  -12.0829   18.6763 C   0  0  0  0  0  0  0  0  0  0  0  0
  -30.2318  -13.9228   19.8738 C   0  0  0  0  0  0  0  0  0  0  0  0
  -27.7917  -13.7502   20.1659 C   0  0  0  0  0  0  0  0  0  0  0  0
  -24.9301  -31.8090   24.6780 C   0  0  1  0  0  0  0  0  0  0  0  0
  -23.9198  -30.8498   21.1436 C   0  0  1  0  0  0  0  0  0  0  0  0
  -27.6628  -12.8634   18.9166 C   0  0  2  0  0  0  0  0  0  0  0  0
  -18.6927  -27.8852   16.2556 C   0  0  0  0  0  0  0  0  0  0  0  0
  -23.5390  -18.1360   20.5980 C   0  0  0  0  0  0  0  0  0  0  0  0
  -25.0896  -16.4812   21.6904 C   0  0  0  0  0  0  0  0  0  0  0  0
  -24.7654  -16.4644   19.2255 C   0  0  0  0  0  0  0  0  0  0  0  0
  -20.1451  -28.6637   22.6709 C   0  0  0  0  0  0  0  0  0  0  0  0
  -18.7376  -27.5807   20.9061 C   0  0  0  0  0  0  0  0  0  0  0  0
  -18.7250  -30.0622   21.1603 C   0  0  0  0  0  0  0  0  0  0  0  0
  -22.2753  -28.8651   15.4302 C   0  0  0  0  0  0  0  0  0  0  0  0
  -26.6074  -24.4791   20.4211 C   0  0  0  0  0  0  0  0  0  1  0  0
  -20.7590  -28.9273   20.1770 C   0  0  1  0  0  0  0  0  0  0  0  0
  -20.0228  -28.5896   16.4738 C   0  0  2  0  0  0  0  0  0  0  0  0
  -24.9155  -17.4176   20.4559 C   0  0  0  0  0  0  0  0  0  0  0  0
  -19.6200  -28.8056   21.2283 C   0  0  0  0  0  0  0  0  0  0  0  0
  -26.0743  -11.4797   20.1985 N   0  0  0  0  0  0  0  0  0  0  0  0
  -26.4625  -11.9389   18.9966 N   0  0  0  0  0  0  0  0  0  0  0  0
  -23.0242  -29.7905   20.6747 N   0  0  0  0  0  0  0  0  0  0  0  0
  -28.9614  -14.6332   20.0356 N   0  0  0  0  0  0  0  0  0  0  0  0
  -25.9437  -11.8597   16.6868 N   0  0  0  0  0  0  0  0  0  0  0  0
  -22.7979   -9.2104   18.5526 N   0  0  0  0  0  0  0  0  0  0  0  0
  -26.4552  -22.0911   20.3908 N   0  0  0  0  0  0  0  0  0  0  0  0
  -27.6818  -16.6088   20.1844 N   0  0  0  0  0  0  0  0  0  0  0  0
  -24.7406  -31.7244   23.2458 N   0  0  0  0  0  0  0  0  0  0  0  0
  -20.2908  -29.0902   18.8049 N   0  0  0  0  0  0  0  0  0  0  0  0
  -20.9372  -28.2240   15.3553 N   0  3  0  0  0  0  0  0  0  0  0  0
  -23.5828  -10.0570   16.5712 O   0  0  0  0  0  0  0  0  0  0  0  0
  -23.3780  -29.8364   23.2062 O   0  0  0  0  0  0  0  0  0  0  0  0
  -21.2092  -31.2386   20.4631 O   0  0  0  0  0  0  0  0  0  0  0  0
  -28.5666  -23.1097   20.2135 O   0  0  0  0  0  0  0  0  0  0  0  0
  -21.3554  -27.2164   17.9488 O   0  0  0  0  0  0  0  0  0  0  0  0
  -29.9874  -16.7028   19.9457 O   0  0  0  0  0  0  0  0  0  0  0  0
  -22.2552   -8.0605   23.9764 O   0  0  0  0  0  0  0  0  0  0  0  0
  -27.5162  -25.5761   20.3374 O   0  0  0  0  0  0  0  0  0  1  0  0
  -20.8930   -2.7845   23.1329 F   0  0  0  0  0  0  0  0  0  0  0  0
  -23.1815   -6.0704   25.6570 F   0  0  0  0  0  0  0  0  0  0  0  0
  1  2  1  0  0  0  0
  1  5  2  0  0  0  0
  2  6  2  0  0  0  0
  3 10  2  0  0  0  0
  3 18  1  0  0  0  0
  4 11  1  0  0  0  0
  4 18  2  0  0  0  0
  5 20  1  0  0  0  0
  6 22  1  0  0  0  0
  7 12  2  0  0  0  0
  7 21  1  0  0  0  0
  8  9  2  0  0  0  0
  8 25  1  0  0  0  0
  9 26  1  0  0  0  0
 10 27  1  0  0  0  0
 11 27  2  0  0  0  0
 12 28  1  0  0  0  0
 13 14  2  0  0  0  0
 13 29  1  0  0  0  0
 14 30  1  0  0  0  0
 15 23  1  0  0  0  0
 15 28  2  0  0  0  0
 16 24  1  0  0  0  0
 16 25  2  0  0  0  0
 17 30  2  0  0  0  0
 17 31  1  0  0  0  0
 18 32  1  0  0  0  0
 19 32  1  0  0  0  0
 19 33  2  0  0  0  0
 19 34  1  0  0  0  0
 20 22  2  0  0  0  0
 20 40  1  0  0  0  0
 21 23  2  0  0  0  0
 21 41  1  0  0  0  0
 22 49  1  0  0  0  0
 23 42  1  0  0  0  0
 24 26  2  0  0  0  0
 24 63  1  0  0  0  0
 25 71  1  0  0  0  0
 26 72  1  0  0  0  0
 27 82  1  0  0  0  0
 28 83  1  0  0  0  0
 29 31  2  0  0  0  0
 29 82  1  0  0  0  0
 30 84  1  0  0  0  0
 31 85  1  0  0  0  0
 32 65  2  0  0  0  0
 33 66  1  0  0  0  0
 33 69  1  0  0  0  0
 34 70  1  0  0  0  0
 34 76  2  0  0  0  0
 35 50  1  0  0  0  0
 35 73  1  0  0  0  0
 35 77  2  0  0  0  0
 36 61  1  0  0  0  0
 36 67  1  0  0  0  0
 36 78  2  0  0  0  0
 37 60  1  0  0  0  0
 37 71  1  0  0  0  0
 37 79  2  0  0  0  0
 38 62  1  0  0  0  0
 38 74  1  0  0  0  0
 38 80  2  0  0  0  0
 39 68  1  0  0  0  0
 39 72  1  0  0  0  0
 39 81  2  0  0  0  0
 40 43  1  0  0  0  0
 41 50  1  0  0  0  0
 42 67  1  0  0  0  0
 43 45  1  0  0  0  0
 44 46  1  0  0  0  0
 44 47  1  0  0  0  0
 45 49  1  0  0  0  0
 46 51  1  0  0  0  0
 47 68  1  0  0  0  0
 48 51  1  0  0  0  0
 48 68  1  0  0  0  0
 49 73  1  0  0  0  0
 50 67  1  0  0  0  0
 51 66  1  0  0  0  0
 52 62  1  0  0  0  0
 53 63  1  0  0  0  0
 54 63  1  0  0  0  0
 55 63  1  0  0  0  0
 56 64  1  0  0  0  0
 57 64  1  0  0  0  0
 58 64  1  0  0  0  0
 59 75  1  0  0  0  0
 60 83  1  0  0  0  0
 61 64  1  0  0  0  0
 61 74  1  0  0  0  0
 62 75  1  0  0  0  0
 65 66  1  0  0  0  0
M  CHG  1  75   1
M  ISO  4  39 100  60 101  72 100  83 101
M  END
> <Batch ID>
0010

> <Smiles>
CNC(C)C(=O)NC(C(=O)N1Cc2cc([101O:1][101CH2:1]C(=O)Nc3ccc([100NH:0][100C:0](=O)N4CCCC(n5nc(-c6ccc(Oc7ccc(F)cc7F)cc6)c(C(N)=O)c5N)C4)c(C(C)(C)C)c3)ccc2CC1C(=O)NC1CCCc2ccccc21)C(C)(C)C

> <Shape>
0.306

> <Color>
0.100

> <Negative vol penalty>
0.000

$$$$

  -OEChem-04052315413D

 81 89  0     1  0  0  0  0  0999 V2000
  -27.5408  -32.5719   26.3809 C   0  0  0  0  0  0  0  0  0  0  0  0
  -27.7467  -31.4308   25.6121 C   0  0  0  0  0  0  0  0  0  0  0  0
  -24.4150  -10.6599   22.9637 C   0  0  0  0  0  0  0  0  0  0  0  0
  -24.4055  -12.3303   24.7092 C   0  0  0  0  0  0  0  0  0  0  0  0
  -26.2528  -32.9091   26.7947 C   0  0  0  0  0  0  0  0  0  0  0  0
  -26.6648  -30.6257   25.2577 C   0  0  0  0  0  0  0  0  0  0  0  0
  -26.7911  -29.2344   20.3901 C   0  0  0  0  0  0  0  0  0  0  0  0
  -30.2093  -20.4377   21.0045 C   0  0  0  0  0  0  0  0  0  0  0  0
  -23.9386   -9.7115   23.8687 C   0  0  0  0  0  0  0  0  0  0  0  0
  -23.9291  -11.3819   25.6142 C   0  0  0  0  0  0  0  0  0  0  0  0
  -27.6627  -28.2024   20.0453 C   0  0  0  0  0  0  0  0  0  0  0  0
  -30.2532  -21.8267   21.1237 C   0  0  0  0  0  0  0  0  0  0  0  0
  -20.9789   -8.8750   25.2733 C   0  0  0  0  0  0  0  0  0  0  0  0
  -19.9387   -8.0451   24.8552 C   0  0  0  0  0  0  0  0  0  0  0  0
  -25.8180  -26.6480   20.0584 C   0  0  0  0  0  0  0  0  0  0  0  0
  -27.8118  -20.5373   20.7236 C   0  0  0  0  0  0  0  0  0  0  0  0
  -21.3390   -6.1092   25.2140 C   0  0  0  0  0  0  0  0  0  0  0  0
  -24.6485  -11.9694   23.3839 C   0  0  0  0  0  0  0  0  0  0  0  0
  -24.3772  -13.8019   21.6300 C   0  0  0  0  0  0  0  0  0  0  0  0
  -25.1533  -32.1130   26.4370 C   0  0  0  0  0  0  0  0  0  0  0  0
  -25.4258  -28.9785   20.5826 C   0  0  0  0  0  0  0  0  0  0  0  0
  -25.3610  -30.9519   25.6682 C   0  0  0  0  0  0  0  0  0  0  0  0
  -24.9307  -27.6790   20.4031 C   0  0  0  0  0  0  0  0  0  0  0  0
  -28.9887  -19.7930   20.8044 C   0  0  0  0  0  0  0  0  0  0  0  0
  -23.6957  -10.0724   25.1940 C   0  0  0  0  0  0  0  0  0  0  0  0
  -27.1768  -26.9084   19.8822 C   0  0  0  0  0  0  0  0  0  0  0  0
  -22.1992   -8.3220   25.6617 C   0  0  0  0  0  0  0  0  0  0  0  0
  -29.0763  -22.5711   21.0430 C   0  0  0  0  0  0  0  0  0  0  0  0
  -20.1187   -6.6622   24.8255 C   0  0  0  0  0  0  0  0  0  0  0  0
  -22.3792   -6.9392   25.6321 C   0  0  0  0  0  0  0  0  0  0  0  0
  -27.8556  -21.9264   20.8429 C   0  0  0  0  0  0  0  0  0  0  0  0
  -25.1411  -12.9495   22.4496 C   0  0  0  0  0  0  0  0  0  0  0  0
  -25.3079  -14.5347   20.9349 C   0  0  0  0  0  0  0  0  0  0  0  0
  -22.9536  -13.9207   21.5080 C   0  0  0  0  0  0  0  0  0  0  0  0
  -23.4198  -29.2341   23.0350 C   0  0  0  0  0  0  0  0  0  0  0  0
  -21.2042  -28.4423   20.8020 C   0  0  0  0  0  0  0  0  0  0  0  0
  -20.5077  -26.9452   17.8153 C   0  0  0  0  0  0  0  0  0  0  0  0
  -30.0196  -17.4953   20.7406 C   0  0  0  0  0  0  0  0  0  0  0  0
  -23.7858  -32.4922   26.9476 C   0  0  0  0  0  0  0  0  0  0  0  0
  -24.4942  -30.1077   20.9282 C   0  0  0  0  0  0  0  0  0  0  0  0
  -23.4702  -27.3556   20.5784 C   0  0  0  0  0  0  0  0  0  0  0  0
  -22.6456  -31.7903   26.2143 C   0  0  0  0  0  0  0  0  0  0  0  0
  -30.3196  -13.9540   20.5247 C   0  0  0  0  0  0  0  0  0  0  0  0
  -22.9404  -30.3006   26.0706 C   0  0  0  0  0  0  0  0  0  0  0  0
  -28.9362  -13.4471   20.9388 C   0  0  0  0  0  0  0  0  0  0  0  0
  -30.7342  -15.1879   21.3242 C   0  0  0  0  0  0  0  0  0  0  0  0
  -28.3780  -15.7810   21.7315 C   0  0  0  0  0  0  0  0  0  0  0  0
  -24.2097  -30.0668   25.2426 C   0  0  1  0  0  0  0  0  0  0  0  0
  -23.2094  -29.6370   21.6029 C   0  0  1  0  0  0  0  0  0  0  0  0
  -27.8893  -14.5779   20.9085 C   0  0  2  0  0  0  0  0  0  0  0  0
  -18.6001  -26.4244   16.2703 C   0  0  0  0  0  0  0  0  0  0  0  0
  -20.3120  -26.1964   22.6647 C   0  0  0  0  0  0  0  0  0  0  0  0
  -19.1112  -25.1608   20.7272 C   0  0  0  0  0  0  0  0  0  0  0  0
  -18.4449  -27.4230   21.5405 C   0  0  0  0  0  0  0  0  0  0  0  0
  -21.6996  -28.5331   15.6205 C   0  0  0  0  0  0  0  0  0  0  0  0
  -29.3761  -26.0103   19.9934 C   0  0  0  0  0  0  0  0  0  1  0  0
  -29.9441  -24.6202   20.2039 C   0  0  0  0  0  0  0  0  0  0  0  0
  -20.6222  -27.1488   20.2850 C   0  0  1  0  0  0  0  0  0  0  0  0
  -19.7016  -27.4138   16.6174 C   0  0  2  0  0  0  0  0  0  0  0  0
  -19.6505  -26.4876   21.3028 C   0  0  0  0  0  0  0  0  0  0  0  0
  -26.4558  -13.1235   22.2909 N   0  0  0  0  0  0  0  0  0  0  0  0
  -26.5253  -14.0936   21.3635 N   0  0  0  0  0  0  0  0  0  0  0  0
  -22.6002  -28.4924   20.9224 N   0  0  0  0  0  0  0  0  0  0  0  0
  -29.6963  -16.2183   21.2461 N   0  0  0  0  0  0  0  0  0  0  0  0
  -25.1956  -15.5068   20.0050 N   0  0  0  0  0  0  0  0  0  0  0  0
  -22.1439  -13.0914   22.2961 N   0  0  0  0  0  0  0  0  0  0  0  0
  -28.9448  -18.3819   20.6835 N   0  0  0  0  0  0  0  0  0  0  0  0
  -23.9324  -30.2393   23.8327 N   0  0  0  0  0  0  0  0  0  0  0  0
  -20.0154  -27.4608   18.9955 N   0  0  0  0  0  0  0  0  0  0  0  0
  -20.5851  -27.5700   15.4274 N   0  3  0  0  0  0  0  0  0  0  0  0
  -22.4155  -14.7265   20.7113 O   0  0  0  0  0  0  0  0  0  0  0  0
  -23.1366  -28.0960   23.3903 O   0  0  0  0  0  0  0  0  0  0  0  0
  -20.4486  -29.3763   21.0816 O   0  0  0  0  0  0  0  0  0  0  0  0
  -21.4750  -26.1937   17.7144 O   0  0  0  0  0  0  0  0  0  0  0  0
  -31.1596  -17.7727   20.3591 O   0  0  0  0  0  0  0  0  0  0  0  0
  -23.2307   -9.1472   26.0773 O   0  0  0  0  0  0  0  0  0  0  0  0
  -28.0255  -25.8991   19.5463 O   0  0  0  0  0  0  0  0  0  1  0  0
  -29.1493  -23.9339   21.1634 O   0  0  0  0  0  0  0  0  0  0  0  0
  -19.1192   -5.8653   24.4255 F   0  0  0  0  0  0  0  0  0  0  0  0
  -23.5489   -6.4020   26.0051 F   0  0  0  0  0  0  0  0  0  0  0  0
  -26.3851  -22.8226   20.7394 Cl  0  0  0  0  0  0  0  0  0  0  0  0
  1  2  1  0  0  0  0
  1  5  2  0  0  0  0
  2  6  2  0  0  0  0
  3  9  2  0  0  0  0
  3 18  1  0  0  0  0
  4 10  1  0  0  0  0
  4 18  2  0  0  0  0
  5 20  1  0  0  0  0
  6 22  1  0  0  0  0
  7 11  2  0  0  0  0
  7 21  1  0  0  0  0
  8 12  2  0  0  0  0
  8 24  1  0  0  0  0
  9 25  1  0  0  0  0
 10 25  2  0  0  0  0
 11 26  1  0  0  0  0
 12 28  1  0  0  0  0
 13 14  2  0  0  0  0
 13 27  1  0  0  0  0
 14 29  1  0  0  0  0
 15 23  1  0  0  0  0
 15 26  2  0  0  0  0
 16 24  2  0  0  0  0
 16 31  1  0  0  0  0
 17 29  2  0  0  0  0
 17 30  1  0  0  0  0
 18 32  1  0  0  0  0
 19 32  1  0  0  0  0
 19 33  2  0  0  0  0
 19 34  1  0  0  0  0
 20 22  2  0  0  0  0
 20 39  1  0  0  0  0
 21 23  2  0  0  0  0
 21 40  1  0  0  0  0
 22 48  1  0  0  0  0
 23 41  1  0  0  0  0
 24 67  1  0  0  0  0
 25 76  1  0  0  0  0
 26 77  1  0  0  0  0
 27 30  2  0  0  0  0
 27 76  1  0  0  0  0
 28 31  2  0  0  0  0
 28 78  1  0  0  0  0
 29 79  1  0  0  0  0
 30 80  1  0  0  0  0
 31 81  1  0  0  0  0
 32 61  2  0  0  0  0
 33 62  1  0  0  0  0
 33 65  1  0  0  0  0
 34 66  1  0  0  0  0
 34 71  2  0  0  0  0
 35 49  1  0  0  0  0
 35 68  1  0  0  0  0
 35 72  2  0  0  0  0
 36 58  1  0  0  0  0
 36 63  1  0  0  0  0
 36 73  2  0  0  0  0
 37 59  1  0  0  0  0
 37 69  1  0  0  0  0
 37 74  2  0  0  0  0
 38 64  1  0  0  0  0
 38 67  1  0  0  0  0
 38 75  2  0  0  0  0
 39 42  1  0  0  0  0
 40 49  1  0  0  0  0
 41 63  1  0  0  0  0
 42 44  1  0  0  0  0
 43 45  1  0  0  0  0
 43 46  1  0  0  0  0
 44 48  1  0  0  0  0
 45 50  1  0  0  0  0
 46 64  1  0  0  0  0
 47 50  1  0  0  0  0
 47 64  1  0  0  0  0
 48 68  1  0  0  0  0
 49 63  1  0  0  0  0
 50 62  1  0  0  0  0
 51 59  1  0  0  0  0
 52 60  1  0  0  0  0
 53 60  1  0  0  0  0
 54 60  1  0  0  0  0
 55 70  1  0  0  0  0
 56 57  1  0  0  0  0
 56 77  1  0  0  0  0
 57 78  1  0  0  0  0
 58 60  1  0  0  0  0
 58 69  1  0  0  0  0
 59 70  1  0  0  0  0
 61 62  1  0  0  0  0
M  CHG  1  70   1
M  ISO  4  38 100  56 101  67 100  77 101
M  END
> <Batch ID>
0010

> <Smiles>
CNC(C)C(=O)NC(C(=O)N1Cc2cc([101O:1][101CH2:1]COc3ccc([100NH:0][100C:0](=O)N4CCCC(n5nc(-c6ccc(Oc7ccc(F)cc7F)cc6)c(C(N)=O)c5N)C4)cc3Cl)ccc2CC1C(=O)NC1CCCc2ccccc21)C(C)(C)C

> <Shape>
0.296

> <Color>
0.114

> <Negative vol penalty>
0.000

$$$$

  -OEChem-04052315413D

 82 90  0     1  0  0  0  0  0999 V2000
  -24.5775  -25.9682   36.9384 C   0  0  0  0  0  0  0  0  0  0  0  0
  -25.5147  -25.5869   35.9837 C   0  0  0  0  0  0  0  0  0  0  0  0
  -23.0742   -9.8686   19.9404 C   0  0  0  0  0  0  0  0  0  0  0  0
  -23.8338   -9.8748   22.2338 C   0  0  0  0  0  0  0  0  0  0  0  0
  -23.8030  -25.0014   37.5783 C   0  0  0  0  0  0  0  0  0  0  0  0
  -25.6788  -24.2384   35.6690 C   0  0  0  0  0  0  0  0  0  0  0  0
  -27.0489  -21.8777   30.1866 C   0  0  0  0  0  0  0  0  0  0  0  0
  -29.8813  -17.4535   23.1395 C   0  0  0  0  0  0  0  0  0  0  0  0
  -32.0652  -16.6033   22.5523 C   0  0  0  0  0  0  0  0  0  0  0  0
  -30.4686  -18.3363   24.0458 C   0  0  0  0  0  0  0  0  0  0  0  0
  -32.6526  -17.4861   23.4585 C   0  0  0  0  0  0  0  0  0  0  0  0
  -22.3295   -8.7159   20.1901 C   0  0  0  0  0  0  0  0  0  0  0  0
  -23.0891   -8.7221   22.4836 C   0  0  0  0  0  0  0  0  0  0  0  0
  -28.2493  -21.4443   29.6254 C   0  0  0  0  0  0  0  0  0  0  0  0
  -19.8603   -7.9263   23.0857 C   0  0  0  0  0  0  0  0  0  0  0  0
  -19.1032   -7.8867   24.2564 C   0  0  0  0  0  0  0  0  0  0  0  0
  -27.7247  -19.1790   30.2674 C   0  0  0  0  0  0  0  0  0  0  0  0
  -20.3433   -5.9484   24.9928 C   0  0  0  0  0  0  0  0  0  0  0  0
  -23.8264  -10.4480   20.9622 C   0  0  0  0  0  0  0  0  0  0  0  0
  -24.1698  -12.9730   20.8425 C   0  0  0  0  0  0  0  0  0  0  0  0
  -23.9509  -23.6411   37.2643 C   0  0  0  0  0  0  0  0  0  0  0  0
  -26.1810  -20.9650   30.8032 C   0  0  0  0  0  0  0  0  0  0  0  0
  -24.9066  -23.2524   36.3062 C   0  0  0  0  0  0  0  0  0  0  0  0
  -26.5127  -19.6029   30.8335 C   0  0  0  0  0  0  0  0  0  0  0  0
  -30.6796  -16.5869   22.3928 C   0  0  0  0  0  0  0  0  0  0  0  0
  -31.8542  -18.3526   24.2053 C   0  0  0  0  0  0  0  0  0  0  0  0
  -22.3369   -8.1426   21.4617 C   0  0  0  0  0  0  0  0  0  0  0  0
  -28.5887  -20.0952   29.6683 C   0  0  0  0  0  0  0  0  0  0  0  0
  -20.8589   -6.9769   22.8684 C   0  0  0  0  0  0  0  0  0  0  0  0
  -19.3447   -6.8978   25.2101 C   0  0  0  0  0  0  0  0  0  0  0  0
  -21.1004   -5.9880   23.8220 C   0  0  0  0  0  0  0  0  0  0  0  0
  -24.5962  -11.6384   20.7047 C   0  0  0  0  0  0  0  0  0  0  0  0
  -25.2625  -13.7218   20.4795 C   0  0  0  0  0  0  0  0  0  0  0  0
  -22.8997  -13.4896   21.2614 C   0  0  0  0  0  0  0  0  0  0  0  0
  -25.0412  -20.5908   33.7467 C   0  0  0  0  0  0  0  0  0  0  0  0
  -23.2609  -18.2707   32.3432 C   0  0  0  0  0  0  0  0  0  0  0  0
  -22.8988  -16.0502   29.7771 C   0  0  0  0  0  0  0  0  0  0  0  0
  -30.7294  -14.7638   20.6550 C   0  0  0  0  0  0  0  0  0  0  0  0
  -23.1244  -22.6284   38.0165 C   0  0  0  0  0  0  0  0  0  0  0  0
  -24.8774  -21.4445   31.3802 C   0  0  0  0  0  0  0  0  0  0  0  0
  -25.6060  -18.5798   31.4657 C   0  0  0  0  0  0  0  0  0  0  0  0
  -23.0967  -21.2528   37.3554 C   0  0  0  0  0  0  0  0  0  0  0  0
  -29.6137  -12.3509   18.2863 C   0  0  0  0  0  0  0  0  0  0  0  0
  -24.5037  -20.8288   36.9462 C   0  0  0  0  0  0  0  0  0  0  0  0
  -28.1738  -12.0603   18.7157 C   0  0  0  0  0  0  0  0  0  0  0  0
  -30.5288  -12.5790   19.4881 C   0  0  0  0  0  0  0  0  0  0  0  0
  -28.6222  -13.3046   20.8692 C   0  0  0  0  0  0  0  0  0  0  0  0
  -25.0964  -21.8016   35.9197 C   0  0  1  0  0  0  0  0  0  0  0  0
  -24.3094  -20.5026   32.4374 C   0  0  1  0  0  0  0  0  0  0  0  0
  -27.6494  -13.1321   19.6912 C   0  0  2  0  0  0  0  0  0  0  0  0
  -21.3598  -14.2622   28.9215 C   0  0  0  0  0  0  0  0  0  0  0  0
  -24.3109  -16.3522   34.4708 C   0  0  0  0  0  0  0  0  0  0  0  0
  -23.5309  -14.4504   33.0413 C   0  0  0  0  0  0  0  0  0  0  0  0
  -21.8810  -16.0919   33.9392 C   0  0  0  0  0  0  0  0  0  0  0  0
  -33.8988  -19.2575   25.2828 C   0  0  0  0  0  0  0  0  0  0  0  0
  -22.3889  -17.5290   27.2647 C   0  0  0  0  0  0  0  0  0  0  0  0
  -31.0777  -19.4702   27.1260 C   0  0  0  0  0  0  0  0  0  0  0  0
  -31.6493  -20.1604   25.8935 C   0  0  0  0  0  0  0  0  0  0  0  0
  -30.2643  -20.4084   28.0099 C   0  0  0  0  0  0  0  0  0  1  0  0
  -23.4431  -16.7954   32.0799 C   0  0  1  0  0  0  0  0  0  0  0  0
  -21.7197  -15.7390   28.8731 C   0  0  2  0  0  0  0  0  0  0  0  0
  -23.3097  -15.9418   33.3725 C   0  0  0  0  0  0  0  0  0  0  0  0
  -25.8611  -11.5418   20.2866 N   0  0  0  0  0  0  0  0  0  0  0  0
  -26.2389  -12.8251   20.1585 N   0  0  0  0  0  0  0  0  0  0  0  0
  -24.3456  -19.0989   32.0218 N   0  0  0  0  0  0  0  0  0  0  0  0
  -29.9704  -13.6101   20.3655 N   0  0  0  0  0  0  0  0  0  0  0  0
  -25.4738  -15.0531   20.4067 N   0  0  0  0  0  0  0  0  0  0  0  0
  -21.8871  -12.5810   21.5984 N   0  0  0  0  0  0  0  0  0  0  0  0
  -30.0825  -15.6891   21.4734 N   0  0  0  0  0  0  0  0  0  0  0  0
  -24.5421  -21.5505   34.6066 N   0  0  0  0  0  0  0  0  0  0  0  0
  -22.4892  -16.4469   31.0325 N   0  0  0  0  0  0  0  0  0  0  0  0
  -32.4443  -19.2409   25.1159 N   0  0  3  0  0  0  0  0  0  0  0  0
  -22.0393  -16.0988   27.4626 N   0  3  0  0  0  0  0  0  0  0  0  0
  -22.6642  -14.7203   21.3188 O   0  0  0  0  0  0  0  0  0  0  0  0
  -25.9876  -19.8425   33.9616 O   0  0  0  0  0  0  0  0  0  0  0  0
  -22.1927  -18.6743   32.8100 O   0  0  0  0  0  0  0  0  0  0  0  0
  -24.0666  -15.9477   29.4078 O   0  0  0  0  0  0  0  0  0  0  0  0
  -31.8586  -14.9318   20.1875 O   0  0  0  0  0  0  0  0  0  0  0  0
  -21.6102   -7.0180   21.7058 O   0  0  0  0  0  0  0  0  0  0  0  0
  -29.7601  -19.6697   29.1219 O   0  0  0  0  0  0  0  0  0  1  0  0
  -18.6186   -6.8609   26.3350 F   0  0  0  0  0  0  0  0  0  0  0  0
  -22.0591   -5.0739   23.6194 F   0  0  0  0  0  0  0  0  0  0  0  0
  1  2  1  0  0  0  0
  1  5  2  0  0  0  0
  2  6  2  0  0  0  0
  3 12  2  0  0  0  0
  3 19  1  0  0  0  0
  4 13  1  0  0  0  0
  4 19  2  0  0  0  0
  5 21  1  0  0  0  0
  6 23  1  0  0  0  0
  7 14  2  0  0  0  0
  7 22  1  0  0  0  0
  8 10  2  0  0  0  0
  8 25  1  0  0  0  0
  9 11  1  0  0  0  0
  9 25  2  0  0  0  0
 10 26  1  0  0  0  0
 11 26  2  0  0  0  0
 12 27  1  0  0  0  0
 13 27  2  0  0  0  0
 14 28  1  0  0  0  0
 15 16  2  0  0  0  0
 15 29  1  0  0  0  0
 16 30  1  0  0  0  0
 17 24  1  0  0  0  0
 17 28  2  0  0  0  0
 18 30  2  0  0  0  0
 18 31  1  0  0  0  0
 19 32  1  0  0  0  0
 20 32  1  0  0  0  0
 20 33  2  0  0  0  0
 20 34  1  0  0  0  0
 21 23  2  0  0  0  0
 21 39  1  0  0  0  0
 22 24  2  0  0  0  0
 22 40  1  0  0  0  0
 23 48  1  0  0  0  0
 24 41  1  0  0  0  0
 25 69  1  0  0  0  0
 26 72  1  0  0  0  0
 27 79  1  0  0  0  0
 28 80  1  0  0  0  0
 29 31  2  0  0  0  0
 29 79  1  0  0  0  0
 30 81  1  0  0  0  0
 31 82  1  0  0  0  0
 32 63  2  0  0  0  0
 33 64  1  0  0  0  0
 33 67  1  0  0  0  0
 34 68  1  0  0  0  0
 34 74  2  0  0  0  0
 35 49  1  0  0  0  0
 35 70  1  0  0  0  0
 35 75  2  0  0  0  0
 36 60  1  0  0  0  0
 36 65  1  0  0  0  0
 36 76  2  0  0  0  0
 37 61  1  0  0  0  0
 37 71  1  0  0  0  0
 37 77  2  0  0  0  0
 38 66  1  0  0  0  0
 38 69  1  0  0  0  0
 38 78  2  0  0  0  0
 39 42  1  0  0  0  0
 40 49  1  0  0  0  0
 41 65  1  0  0  0  0
 42 44  1  0  0  0  0
 43 45  1  0  0  0  0
 43 46  1  0  0  0  0
 44 48  1  0  0  0  0
 45 50  1  0  0  0  0
 46 66  1  0  0  0  0
 47 50  1  0  0  0  0
 47 66  1  0  0  0  0
 48 70  1  0  0  0  0
 49 65  1  0  0  0  0
 50 64  1  0  0  0  0
 51 61  1  0  0  0  0
 52 62  1  0  0  0  0
 53 62  1  0  0  0  0
 54 62  1  0  0  0  0
 55 72  1  0  0  0  0
 56 73  1  0  0  0  0
 57 58  1  0  0  0  0
 57 59  1  0  0  0  0
 58 72  1  0  0  0  0
 59 80  1  0  0  0  0
 60 62  1  0  0  0  0
 60 71  1  0  0  0  0
 61 73  1  0  0  0  0
 63 64  1  0  0  0  0
M  CHG  1  73   1
M  ISO  4  38 100  59 101  69 100  80 101
M  END
> <Batch ID>
0010

> <Smiles>
CNC(C)C(=O)NC(C(=O)N1Cc2cc([101O:1][101CH2:1]CCN(C)c3ccc([100NH:0][100C:0](=O)N4CCCC(n5nc(-c6ccc(Oc7ccc(F)cc7F)cc6)c(C(N)=O)c5N)C4)cc3)ccc2CC1C(=O)NC1CCCc2ccccc21)C(C)(C)C

> <Shape>
0.167

> <Color>
0.200

> <Negative vol penalty>
0.000

$$$$

  -OEChem-04052315413D

 82 90  0     1  0  0  0  0  0999 V2000
  -29.4609  -33.9616   26.0651 C   0  0  0  0  0  0  0  0  0  0  0  0
  -29.6130  -32.8665   25.2207 C   0  0  0  0  0  0  0  0  0  0  0  0
  -24.6254   -9.0141   21.3663 C   0  0  0  0  0  0  0  0  0  0  0  0
  -23.3749  -10.8876   22.2399 C   0  0  0  0  0  0  0  0  0  0  0  0
  -28.2344  -34.1977   26.6847 C   0  0  0  0  0  0  0  0  0  0  0  0
  -28.5389  -32.0061   24.9963 C   0  0  0  0  0  0  0  0  0  0  0  0
  -27.2088  -29.0561   19.7969 C   0  0  0  0  0  0  0  0  0  0  0  0
  -28.2583  -19.0882   20.2571 C   0  0  0  0  0  0  0  0  0  0  0  0
  -27.8311  -20.4045   20.0827 C   0  0  0  0  0  0  0  0  0  0  0  0
  -24.0837   -8.1918   22.3542 C   0  0  0  0  0  0  0  0  0  0  0  0
  -22.8332  -10.0653   23.2279 C   0  0  0  0  0  0  0  0  0  0  0  0
  -27.4513  -27.7511   19.3704 C   0  0  0  0  0  0  0  0  0  0  0  0
  -21.1749   -6.5638   22.9211 C   0  0  0  0  0  0  0  0  0  0  0  0
  -20.7074   -5.3078   22.5345 C   0  0  0  0  0  0  0  0  0  0  0  0
  -25.2378  -27.1124   20.0857 C   0  0  0  0  0  0  0  0  0  0  0  0
  -26.2425  -18.5979   21.4954 C   0  0  0  0  0  0  0  0  0  0  0  0
  -22.2821   -4.2592   24.0373 C   0  0  0  0  0  0  0  0  0  0  0  0
  -24.2711  -10.3620   21.3092 C   0  0  0  0  0  0  0  0  0  0  0  0
  -24.3057  -11.4600   19.0068 C   0  0  0  0  0  0  0  0  0  0  0  0
  -27.1420  -33.3453   26.4602 C   0  0  0  0  0  0  0  0  0  0  0  0
  -25.9808  -29.3971   20.3819 C   0  0  0  0  0  0  0  0  0  0  0  0
  -27.2970  -32.2302   25.6146 C   0  0  0  0  0  0  0  0  0  0  0  0
  -24.9812  -28.4230   20.5164 C   0  0  0  0  0  0  0  0  0  0  0  0
  -27.4640  -18.1849   20.9633 C   0  0  0  0  0  0  0  0  0  0  0  0
  -26.6097  -20.8176   20.6148 C   0  0  0  0  0  0  0  0  0  0  0  0
  -23.1876   -8.7174   23.2850 C   0  0  0  0  0  0  0  0  0  0  0  0
  -26.4669  -26.7783   19.5174 C   0  0  0  0  0  0  0  0  0  0  0  0
  -22.1961   -6.6675   23.8657 C   0  0  0  0  0  0  0  0  0  0  0  0
  -21.2610   -4.1555   23.0926 C   0  0  0  0  0  0  0  0  0  0  0  0
  -25.8153  -19.9143   21.3211 C   0  0  0  0  0  0  0  0  0  0  0  0
  -22.7496   -5.5153   24.4238 C   0  0  0  0  0  0  0  0  0  0  0  0
  -24.8308  -11.2121   20.2892 C   0  0  0  0  0  0  0  0  0  0  0  0
  -25.2014  -12.3274   18.4309 C   0  0  0  0  0  0  0  0  0  0  0  0
  -23.1148  -10.9516   18.3912 C   0  0  0  0  0  0  0  0  0  0  0  0
  -25.0781  -30.4896   23.2271 C   0  0  0  0  0  0  0  0  0  0  0  0
  -22.1722  -30.6800   21.7983 C   0  0  0  0  0  0  0  0  0  0  0  0
  -26.8424  -23.1750   19.7648 C   0  0  0  0  0  0  0  0  0  0  0  0
  -20.0775  -29.5876   19.3354 C   0  0  0  0  0  0  0  0  0  0  0  0
  -29.0827  -16.2756   20.6787 C   0  0  0  0  0  0  0  0  0  0  0  0
  -25.8494  -33.6143   27.1893 C   0  0  0  0  0  0  0  0  0  0  0  0
  -25.7250  -30.8155   20.8123 C   0  0  0  0  0  0  0  0  0  0  0  0
  -23.6386  -28.7425   21.1196 C   0  0  0  0  0  0  0  0  0  0  0  0
  -24.6534  -32.8673   26.6047 C   0  0  0  0  0  0  0  0  0  0  0  0
  -29.8337  -13.5387   18.5288 C   0  0  0  0  0  0  0  0  0  0  0  0
  -25.0100  -31.4067   26.3474 C   0  0  0  0  0  0  0  0  0  0  0  0
  -28.5857  -12.6570   18.6148 C   0  0  0  0  0  0  0  0  0  0  0  0
  -30.1628  -14.1883   19.8717 C   0  0  0  0  0  0  0  0  0  0  0  0
  -27.8072  -14.0443   20.5786 C   0  0  0  0  0  0  0  0  0  0  0  0
  -26.1482  -31.2882   25.3267 C   0  0  1  0  0  0  0  0  0  0  0  0
  -24.6261  -30.9318   21.8641 C   0  0  1  0  0  0  0  0  0  0  0  0
  -27.3984  -13.4199   19.2345 C   0  0  2  0  0  0  0  0  0  0  0  0
  -17.7527  -29.9008   18.4441 C   0  0  0  0  0  0  0  0  0  0  0  0
  -21.0648  -29.0297   24.1135 C   0  0  0  0  0  0  0  0  0  0  0  0
  -19.0308  -28.5762   22.7259 C   0  0  0  0  0  0  0  0  0  0  0  0
  -19.5956  -30.9161   23.3806 C   0  0  0  0  0  0  0  0  0  0  0  0
  -21.0837  -30.5122   16.7103 C   0  0  0  0  0  0  0  0  0  0  0  0
  -26.0333  -24.4580   19.8076 C   0  0  0  0  0  0  0  0  0  1  0  0
  -20.9985  -29.7450   21.6336 C   0  0  1  0  0  0  0  0  0  0  0  0
  -19.2052  -30.3408   18.3474 C   0  0  2  0  0  0  0  0  0  0  0  0
  -20.1983  -29.5600   22.9538 C   0  0  0  0  0  0  0  0  0  0  0  0
  -25.9716  -11.8689   20.5151 N   0  0  0  0  0  0  0  0  0  0  0  0
  -26.1709  -12.5380   19.3668 N   0  0  0  0  0  0  0  0  0  0  0  0
  -23.4389  -30.1419   21.5309 N   0  0  0  0  0  0  0  0  0  0  0  0
  -28.9928  -14.8963   20.3958 N   0  0  0  0  0  0  0  0  0  0  0  0
  -25.2465  -12.9230   17.2202 N   0  0  0  0  0  0  0  0  0  0  0  0
  -22.3079  -10.0704   19.1238 N   0  0  0  0  0  0  0  0  0  0  0  0
  -26.1792  -22.1538   20.4367 N   0  0  0  0  0  0  0  0  0  0  0  0
  -27.8980  -16.8478   21.1411 N   0  0  0  0  0  0  0  0  0  0  0  0
  -25.6472  -31.4953   23.9848 N   0  0  0  0  0  0  0  0  0  0  0  0
  -20.2094  -30.2717   20.5253 N   0  0  0  0  0  0  0  0  0  0  0  0
  -19.6766  -30.1028   16.9539 N   0  3  0  0  0  0  0  0  0  0  0  0
  -22.7849  -11.2565   17.2200 O   0  0  0  0  0  0  0  0  0  0  0  0
  -24.9208  -29.3228   23.5668 O   0  0  0  0  0  0  0  0  0  0  0  0
  -21.9717  -31.8470   22.1444 O   0  0  0  0  0  0  0  0  0  0  0  0
  -27.9277  -23.1185   19.1961 O   0  0  0  0  0  0  0  0  0  0  0  0
  -20.5876  -28.4993   19.0788 O   0  0  0  0  0  0  0  0  0  0  0  0
  -30.1257  -16.9089   20.4965 O   0  0  0  0  0  0  0  0  0  0  0  0
  -22.6586   -7.9153   24.2490 O   0  0  0  0  0  0  0  0  0  0  0  0
  -26.7013  -25.5036   19.1026 O   0  0  0  0  0  0  0  0  0  1  0  0
  -20.8108   -2.9494   22.7225 F   0  0  0  0  0  0  0  0  0  0  0  0
  -24.6401  -20.3006   21.8382 F   0  0  0  0  0  0  0  0  0  0  0  0
  -23.7300   -5.6086   25.3326 F   0  0  0  0  0  0  0  0  0  0  0  0
  1  2  1  0  0  0  0
  1  5  2  0  0  0  0
  2  6  2  0  0  0  0
  3 10  2  0  0  0  0
  3 18  1  0  0  0  0
  4 11  1  0  0  0  0
  4 18  2  0  0  0  0
  5 20  1  0  0  0  0
  6 22  1  0  0  0  0
  7 12  2  0  0  0  0
  7 21  1  0  0  0  0
  8  9  2  0  0  0  0
  8 24  1  0  0  0  0
  9 25  1  0  0  0  0
 10 26  1  0  0  0  0
 11 26  2  0  0  0  0
 12 27  1  0  0  0  0
 13 14  2  0  0  0  0
 13 28  1  0  0  0  0
 14 29  1  0  0  0  0
 15 23  1  0  0  0  0
 15 27  2  0  0  0  0
 16 24  2  0  0  0  0
 16 30  1  0  0  0  0
 17 29  2  0  0  0  0
 17 31  1  0  0  0  0
 18 32  1  0  0  0  0
 19 32  1  0  0  0  0
 19 33  2  0  0  0  0
 19 34  1  0  0  0  0
 20 22  2  0  0  0  0
 20 40  1  0  0  0  0
 21 23  2  0  0  0  0
 21 41  1  0  0  0  0
 22 49  1  0  0  0  0
 23 42  1  0  0  0  0
 24 68  1  0  0  0  0
 25 30  2  0  0  0  0
 25 67  1  0  0  0  0
 26 78  1  0  0  0  0
 27 79  1  0  0  0  0
 28 31  2  0  0  0  0
 28 78  1  0  0  0  0
 29 80  1  0  0  0  0
 30 81  1  0  0  0  0
 31 82  1  0  0  0  0
 32 61  2  0  0  0  0
 33 62  1  0  0  0  0
 33 65  1  0  0  0  0
 34 66  1  0  0  0  0
 34 72  2  0  0  0  0
 35 50  1  0  0  0  0
 35 69  1  0  0  0  0
 35 73  2  0  0  0  0
 36 58  1  0  0  0  0
 36 63  1  0  0  0  0
 36 74  2  0  0  0  0
 37 57  1  0  0  0  0
 37 67  1  0  0  0  0
 37 75  2  0  0  0  0
 38 59  1  0  0  0  0
 38 70  1  0  0  0  0
 38 76  2  0  0  0  0
 39 64  1  0  0  0  0
 39 68  1  0  0  0  0
 39 77  2  0  0  0  0
 40 43  1  0  0  0  0
 41 50  1  0  0  0  0
 42 63  1  0  0  0  0
 43 45  1  0  0  0  0
 44 46  1  0  0  0  0
 44 47  1  0  0  0  0
 45 49  1  0  0  0  0
 46 51  1  0  0  0  0
 47 64  1  0  0  0  0
 48 51  1  0  0  0  0
 48 64  1  0  0  0  0
 49 69  1  0  0  0  0
 50 63  1  0  0  0  0
 51 62  1  0  0  0  0
 52 59  1  0  0  0  0
 53 60  1  0  0  0  0
 54 60  1  0  0  0  0
 55 60  1  0  0  0  0
 56 71  1  0  0  0  0
 57 79  1  0  0  0  0
 58 60  1  0  0  0  0
 58 70  1  0  0  0  0
 59 71  1  0  0  0  0
 61 62  1  0  0  0  0
M  CHG  1  71   1
M  ISO  4  39 100  57 101  68 100  79 101
M  END
> <Batch ID>
0010

> <Smiles>
CNC(C)C(=O)NC(C(=O)N1Cc2cc([101O:1][101CH2:1]C(=O)Nc3ccc([100NH:0][100C:0](=O)N4CCCC(n5nc(-c6ccc(Oc7ccc(F)cc7F)cc6)c(C(N)=O)c5N)C4)cc3F)ccc2CC1C(=O)NC1CCCc2ccccc21)C(C)(C)C

> <Shape>
0.309

> <Color>
0.101

> <Negative vol penalty>
0.000

$$$$

  -OEChem-04052315413D

 83 91  0     1  0  0  0  0  0999 V2000
  -20.8639  -30.0469   27.2780 C   0  0  0  0  0  0  0  0  0  0  0  0
  -21.9672  -29.4056   26.7241 C   0  0  0  0  0  0  0  0  0  0  0  0
  -24.6218   -9.1013   22.1338 C   0  0  0  0  0  0  0  0  0  0  0  0
  -22.9744  -10.4457   20.9868 C   0  0  0  0  0  0  0  0  0  0  0  0
  -19.7012  -30.2064   26.5252 C   0  0  0  0  0  0  0  0  0  0  0  0
  -21.9081  -28.9224   25.4174 C   0  0  0  0  0  0  0  0  0  0  0  0
  -26.4826  -28.7378   21.3499 C   0  0  0  0  0  0  0  0  0  0  0  0
  -28.8769  -20.7113   22.7821 C   0  0  0  0  0  0  0  0  0  0  0  0
  -27.9154  -19.8178   23.2540 C   0  0  0  0  0  0  0  0  0  0  0  0
  -23.8054   -7.9793   21.9914 C   0  0  0  0  0  0  0  0  0  0  0  0
  -22.1579   -9.3237   20.8444 C   0  0  0  0  0  0  0  0  0  0  0  0
  -27.3462  -27.7169   20.9552 C   0  0  0  0  0  0  0  0  0  0  0  0
  -21.0600   -6.6914   23.4843 C   0  0  0  0  0  0  0  0  0  0  0  0
  -20.8928   -5.8671   24.5970 C   0  0  0  0  0  0  0  0  0  0  0  0
  -25.9048  -27.2293   19.0834 C   0  0  0  0  0  0  0  0  0  0  0  0
  -27.3217  -19.2560   20.9804 C   0  0  0  0  0  0  0  0  0  0  0  0
  -21.8268   -4.0119   23.3629 C   0  0  0  0  0  0  0  0  0  0  0  0
  -24.2062  -10.3345   21.6316 C   0  0  0  0  0  0  0  0  0  0  0  0
  -26.0387  -11.9446   20.8851 C   0  0  0  0  0  0  0  0  0  0  0  0
  -19.6310  -29.7334   25.2054 C   0  0  0  0  0  0  0  0  0  0  0  0
  -25.3160  -29.0054   20.6192 C   0  0  0  0  0  0  0  0  0  0  0  0
  -20.7428  -29.0744   24.6468 C   0  0  0  0  0  0  0  0  0  0  0  0
  -25.0293  -28.2558   19.4694 C   0  0  0  0  0  0  0  0  0  0  0  0
  -29.0608  -20.8772   21.4093 C   0  0  0  0  0  0  0  0  0  0  0  0
  -27.1378  -19.0901   22.3532 C   0  0  0  0  0  0  0  0  0  0  0  0
  -22.5735   -8.0905   21.3467 C   0  0  0  0  0  0  0  0  0  0  0  0
  -27.0559  -26.9606   19.8235 C   0  0  0  0  0  0  0  0  0  0  0  0
  -21.6106   -6.1760   22.3108 C   0  0  0  0  0  0  0  0  0  0  0  0
  -21.2762   -4.5273   24.5363 C   0  0  0  0  0  0  0  0  0  0  0  0
  -28.2832  -20.1496   20.5085 C   0  0  0  0  0  0  0  0  0  0  0  0
  -21.9940   -4.8362   22.2502 C   0  0  0  0  0  0  0  0  0  0  0  0
  -25.0489  -11.4939   21.7789 C   0  0  0  0  0  0  0  0  0  0  0  0
  -26.5474  -13.0746   21.4773 C   0  0  0  0  0  0  0  0  0  0  0  0
  -26.4606  -11.3912   19.6315 C   0  0  0  0  0  0  0  0  0  0  0  0
  -22.2028  -28.9253   21.2557 C   0  0  0  0  0  0  0  0  0  0  0  0
  -21.9589  -30.2046   18.2848 C   0  0  0  0  0  0  0  0  0  0  0  0
  -28.9403  -23.8719   20.0626 C   0  0  0  0  0  0  0  0  0  0  0  0
  -23.3431  -30.6420   15.1962 C   0  0  0  0  0  0  0  0  0  0  0  0
  -25.8486  -17.9022   24.1623 C   0  0  0  0  0  0  0  0  0  0  0  0
  -18.3365  -29.8871   24.4470 C   0  0  0  0  0  0  0  0  0  0  0  0
  -24.4085  -30.1276   21.0429 C   0  0  0  0  0  0  0  0  0  0  0  0
  -23.8002  -28.5165   18.6389 C   0  0  0  0  0  0  0  0  0  0  0  0
  -18.4838  -29.6787   22.9419 C   0  0  0  0  0  0  0  0  0  0  0  0
  -25.8774  -14.9386   26.1355 C   0  0  0  0  0  0  0  0  0  0  0  0
  -19.3082  -28.4279   22.6544 C   0  0  0  0  0  0  0  0  0  0  0  0
  -25.7458  -13.8153   25.1044 C   0  0  0  0  0  0  0  0  0  0  0  0
  -25.0507  -16.1635   25.7483 C   0  0  0  0  0  0  0  0  0  0  0  0
  -25.1670  -15.5540   23.3641 C   0  0  0  0  0  0  0  0  0  0  0  0
  -20.7259  -28.5585   23.2242 C   0  0  1  0  0  0  0  0  0  0  0  0
  -22.9844  -29.9751   20.5176 C   0  0  1  0  0  0  0  0  0  0  0  0
  -26.0332  -14.3232   23.6779 C   0  0  2  0  0  0  0  0  0  0  0  0
  -22.8907  -31.7016   12.9669 C   0  0  0  0  0  0  0  0  0  0  0  0
  -20.0208  -27.9473   17.6080 C   0  0  0  0  0  0  0  0  0  0  0  0
  -20.3491  -28.4858   15.1850 C   0  0  0  0  0  0  0  0  0  0  0  0
  -19.3628  -30.1895   16.7170 C   0  0  0  0  0  0  0  0  0  0  0  0
  -25.7106  -32.4034   15.4228 C   0  0  0  0  0  0  0  0  0  0  0  0
  -30.0982  -21.8386   20.9056 C   0  0  0  0  0  0  0  0  0  0  0  0
  -28.6326  -25.2990   20.4630 C   0  0  0  0  0  0  0  0  0  1  0  0
  -21.8262  -29.6469   16.8883 C   0  0  1  0  0  0  0  0  0  0  0  0
  -23.5216  -31.8820   14.3388 C   0  0  2  0  0  0  0  0  0  0  0  0
  -20.4120  -29.0610   16.6161 C   0  0  0  0  0  0  0  0  0  0  0  0
  -24.9340  -12.2740   22.8571 N   0  0  0  0  0  0  0  0  0  0  0  0
  -25.8584  -13.2261   22.6446 N   0  0  0  0  0  0  0  0  0  0  0  0
  -22.9407  -29.6203   19.0976 N   0  0  0  0  0  0  0  0  0  0  0  0
  -25.3794  -16.5905   24.3865 N   0  0  0  0  0  0  0  0  0  0  0  0
  -27.5124  -13.9435   21.1083 N   0  0  0  0  0  0  0  0  0  0  0  0
  -25.8324  -10.2264   19.1701 N   0  0  0  0  0  0  0  0  0  0  0  0
  -26.1597  -18.1838   22.8325 N   0  0  0  0  0  0  0  0  0  0  0  0
  -21.5382  -29.3989   22.3708 N   0  0  0  0  0  0  0  0  0  0  0  0
  -29.6716  -23.2125   21.0381 N   0  0  0  0  0  0  0  0  0  0  0  0
  -22.2122  -30.7222   15.9809 N   0  0  0  0  0  0  0  0  0  0  0  0
  -24.9701  -32.1801   14.1544 N   0  3  0  0  0  0  0  0  0  0  0  0
  -27.3791  -11.9049   18.9488 O   0  0  0  0  0  0  0  0  0  0  0  0
  -22.2015  -27.7714   20.8432 O   0  0  0  0  0  0  0  0  0  0  0  0
  -21.2237  -31.1296   18.6391 O   0  0  0  0  0  0  0  0  0  0  0  0
  -28.5735  -23.3875   18.9955 O   0  0  0  0  0  0  0  0  0  0  0  0
  -24.1264  -29.6953   15.1695 O   0  0  0  0  0  0  0  0  0  0  0  0
  -25.9916  -18.7070   25.0863 O   0  0  0  0  0  0  0  0  0  0  0  0
  -21.7767   -6.9959   21.2073 O   0  0  0  0  0  0  0  0  0  0  0  0
  -27.8968  -25.9631   19.4364 O   0  0  0  0  0  0  0  0  0  1  0  0
  -21.1169   -3.7362   25.6054 F   0  0  0  0  0  0  0  0  0  0  0  0
  -28.4526  -20.3021   19.1878 F   0  0  0  0  0  0  0  0  0  0  0  0
  -22.5246   -4.3357   21.1260 F   0  0  0  0  0  0  0  0  0  0  0  0
  1  2  1  0  0  0  0
  1  5  2  0  0  0  0
  2  6  2  0  0  0  0
  3 10  2  0  0  0  0
  3 18  1  0  0  0  0
  4 11  1  0  0  0  0
  4 18  2  0  0  0  0
  5 20  1  0  0  0  0
  6 22  1  0  0  0  0
  7 12  2  0  0  0  0
  7 21  1  0  0  0  0
  8  9  2  0  0  0  0
  8 24  1  0  0  0  0
  9 25  1  0  0  0  0
 10 26  1  0  0  0  0
 11 26  2  0  0  0  0
 12 27  1  0  0  0  0
 13 14  2  0  0  0  0
 13 28  1  0  0  0  0
 14 29  1  0  0  0  0
 15 23  1  0  0  0  0
 15 27  2  0  0  0  0
 16 25  2  0  0  0  0
 16 30  1  0  0  0  0
 17 29  2  0  0  0  0
 17 31  1  0  0  0  0
 18 32  1  0  0  0  0
 19 32  1  0  0  0  0
 19 33  2  0  0  0  0
 19 34  1  0  0  0  0
 20 22  2  0  0  0  0
 20 40  1  0  0  0  0
 21 23  2  0  0  0  0
 21 41  1  0  0  0  0
 22 49  1  0  0  0  0
 23 42  1  0  0  0  0
 24 30  2  0  0  0  0
 24 57  1  0  0  0  0
 25 68  1  0  0  0  0
 26 79  1  0  0  0  0
 27 80  1  0  0  0  0
 28 31  2  0  0  0  0
 28 79  1  0  0  0  0
 29 81  1  0  0  0  0
 30 82  1  0  0  0  0
 31 83  1  0  0  0  0
 32 62  2  0  0  0  0
 33 63  1  0  0  0  0
 33 66  1  0  0  0  0
 34 67  1  0  0  0  0
 34 73  2  0  0  0  0
 35 50  1  0  0  0  0
 35 69  1  0  0  0  0
 35 74  2  0  0  0  0
 36 59  1  0  0  0  0
 36 64  1  0  0  0  0
 36 75  2  0  0  0  0
 37 58  1  0  0  0  0
 37 70  1  0  0  0  0
 37 76  2  0  0  0  0
 38 60  1  0  0  0  0
 38 71  1  0  0  0  0
 38 77  2  0  0  0  0
 39 65  1  0  0  0  0
 39 68  1  0  0  0  0
 39 78  2  0  0  0  0
 40 43  1  0  0  0  0
 41 50  1  0  0  0  0
 42 64  1  0  0  0  0
 43 45  1  0  0  0  0
 44 46  1  0  0  0  0
 44 47  1  0  0  0  0
 45 49  1  0  0  0  0
 46 51  1  0  0  0  0
 47 65  1  0  0  0  0
 48 51  1  0  0  0  0
 48 65  1  0  0  0  0
 49 69  1  0  0  0  0
 50 64  1  0  0  0  0
 51 63  1  0  0  0  0
 52 60  1  0  0  0  0
 53 61  1  0  0  0  0
 54 61  1  0  0  0  0
 55 61  1  0  0  0  0
 56 72  1  0  0  0  0
 57 70  1  0  0  0  0
 58 80  1  0  0  0  0
 59 61  1  0  0  0  0
 59 71  1  0  0  0  0
 60 72  1  0  0  0  0
 62 63  1  0  0  0  0
M  CHG  1  72   1
M  ISO  4  39 100  58 101  68 100  80 101
M  END
> <Batch ID>
0010

> <Smiles>
CNC(C)C(=O)NC(C(=O)N1Cc2cc([101O:1][101CH2:1]C(=O)NCc3ccc([100NH:0][100C:0](=O)N4CCCC(n5nc(-c6ccc(Oc7ccc(F)cc7F)cc6)c(C(N)=O)c5N)C4)cc3F)ccc2CC1C(=O)NC1CCCc2ccccc21)C(C)(C)C

> <Shape>
0.256

> <Color>
0.119

> <Negative vol penalty>
0.000

$$$$

  -OEChem-04052315413D

 96105  0     1  0  0  0  0  0999 V2000
  -27.1362  -23.4021   27.1202 C   0  0  0  0  0  0  0  0  0  0  0  0
  -27.9649  -24.4934   26.8800 C   0  0  0  0  0  0  0  0  0  0  0  0
  -23.2533  -11.3354   22.5573 C   0  0  0  0  0  0  0  0  0  0  0  0
  -24.5204  -10.0069   20.9867 C   0  0  0  0  0  0  0  0  0  0  0  0
  -25.9840  -23.2217   26.3561 C   0  0  0  0  0  0  0  0  0  0  0  0
  -27.6424  -25.4044   25.8747 C   0  0  0  0  0  0  0  0  0  0  0  0
  -28.2018  -30.2137   27.3588 C   0  0  0  0  0  0  0  0  0  0  0  0
  -30.0861  -20.9255   19.9487 C   0  0  0  0  0  0  0  0  0  0  0  0
  -27.8733  -21.2596   20.8590 C   0  0  0  0  0  0  0  0  0  0  0  0
  -30.1078  -19.6340   20.4753 C   0  0  0  0  0  0  0  0  0  0  0  0
  -27.8949  -19.9681   21.3856 C   0  0  0  0  0  0  0  0  0  0  0  0
  -22.6194  -10.1827   23.0210 C   0  0  0  0  0  0  0  0  0  0  0  0
  -23.8865   -8.8541   21.4505 C   0  0  0  0  0  0  0  0  0  0  0  0
  -29.4994  -30.7225   27.3936 C   0  0  0  0  0  0  0  0  0  0  0  0
  -20.9059   -7.3125   21.0378 C   0  0  0  0  0  0  0  0  0  0  0  0
  -20.4390   -6.4032   20.0887 C   0  0  0  0  0  0  0  0  0  0  0  0
  -29.1240  -31.8086   25.2726 C   0  0  0  0  0  0  0  0  0  0  0  0
  -21.8721   -4.6954   21.0199 C   0  0  0  0  0  0  0  0  0  0  0  0
  -24.2038  -11.2475   21.5401 C   0  0  0  0  0  0  0  0  0  0  0  0
  -24.2508  -13.5663   20.4777 C   0  0  0  0  0  0  0  0  0  0  0  0
  -25.6421  -24.1362   25.3475 C   0  0  0  0  0  0  0  0  0  0  0  0
  -27.3578  -30.4900   26.2736 C   0  0  0  0  0  0  0  0  0  0  0  0
  -26.4852  -25.2353   25.0956 C   0  0  0  0  0  0  0  0  0  0  0  0
  -27.8153  -31.3042   25.2277 C   0  0  0  0  0  0  0  0  0  0  0  0
  -28.9689  -21.7383   20.1406 C   0  0  0  0  0  0  0  0  0  0  0  0
  -29.0122  -19.1554   21.1937 C   0  0  0  0  0  0  0  0  0  0  0  0
  -22.9360   -8.9421   22.4676 C   0  0  0  0  0  0  0  0  0  0  0  0
  -29.9617  -31.5176   26.3491 C   0  0  0  0  0  0  0  0  0  0  0  0
  -21.8559   -6.9133   21.9779 C   0  0  0  0  0  0  0  0  0  0  0  0
  -20.9221   -5.0947   20.0798 C   0  0  0  0  0  0  0  0  0  0  0  0
  -22.3390   -5.6048   21.9690 C   0  0  0  0  0  0  0  0  0  0  0  0
  -24.8585  -12.4379   21.0602 C   0  0  0  0  0  0  0  0  0  0  0  0
  -25.2956  -14.4125   20.1970 C   0  0  0  0  0  0  0  0  0  0  0  0
  -22.8657  -13.8263   20.2139 C   0  0  0  0  0  0  0  0  0  0  0  0
  -25.9032  -28.7339   24.0592 C   0  0  0  0  0  0  0  0  0  0  0  0
  -30.5429  -26.3025   22.3627 C   0  0  0  0  0  0  0  0  0  0  0  0
  -24.5476  -31.5698   23.2579 C   0  0  0  0  0  0  0  0  0  0  0  0
  -25.6188  -34.9985   22.9202 C   0  0  0  0  0  0  0  0  0  0  0  0
  -30.1048  -24.0037   20.1451 C   0  0  0  0  0  0  0  0  0  0  0  0
  -30.0628  -16.9075   21.6294 C   0  0  0  0  0  0  0  0  0  0  0  0
  -24.4115  -23.8735   24.5161 C   0  0  0  0  0  0  0  0  0  0  0  0
  -25.9518  -29.9557   26.2639 C   0  0  0  0  0  0  0  0  0  0  0  0
  -26.9419  -31.6472   24.0495 C   0  0  0  0  0  0  0  0  0  0  0  0
  -23.9434  -25.0889   23.7199 C   0  0  0  0  0  0  0  0  0  0  0  0
  -30.2938  -13.6177   20.2875 C   0  0  0  0  0  0  0  0  0  0  0  0
  -25.1230  -25.7529   23.0166 C   0  0  0  0  0  0  0  0  0  0  0  0
  -28.8503  -13.1103   20.3210 C   0  0  0  0  0  0  0  0  0  0  0  0
  -32.0251  -29.5506   22.6766 C   0  0  0  0  0  0  0  0  0  0  0  0
  -33.7442  -27.7802   23.2402 C   0  0  0  0  0  0  0  0  0  0  0  0
  -30.6171  -14.4886   21.5002 C   0  0  0  0  0  0  0  0  0  0  0  0
  -30.9333  -28.6053   23.1775 C   0  0  0  0  0  0  0  0  0  0  0  0
  -32.6112  -26.8757   23.7272 C   0  0  0  0  0  0  0  0  0  0  0  0
  -28.2437  -15.0941   21.7644 C   0  0  0  0  0  0  0  0  0  0  0  0
  -26.1562  -26.2588   24.0305 C   0  0  1  0  0  0  0  0  0  0  0  0
  -25.3521  -29.8772   24.8633 C   0  0  1  0  0  0  0  0  0  0  0  0
  -27.8516  -14.2655   20.5302 C   0  0  2  0  0  0  0  0  0  0  0  0
  -33.3884  -29.2672   23.3116 C   0  0  0  0  0  0  0  0  0  0  0  0
  -24.3305  -37.1401   23.1465 C   0  0  0  0  0  0  0  0  0  0  0  0
  -29.1094  -23.0561   18.0267 C   0  0  0  0  0  0  0  0  0  0  0  0
  -27.6355  -23.9400   19.8199 C   0  0  0  0  0  0  0  0  0  0  0  0
  -24.2118  -31.3492   20.2332 C   0  0  0  0  0  0  0  0  0  0  0  0
  -24.4967  -33.8324   20.0905 C   0  0  0  0  0  0  0  0  0  0  0  0
  -22.5748  -32.8701   21.3564 C   0  0  0  0  0  0  0  0  0  0  0  0
  -27.4903  -36.0442   24.9605 C   0  0  0  0  0  0  0  0  0  0  0  0
  -31.0421  -24.8826   22.2733 C   0  0  0  0  0  0  0  0  0  0  0  0
  -33.5702  -31.4993   26.4193 C   0  0  0  0  0  0  0  0  0  0  0  0
  -33.6232  -31.1484   24.9400 C   0  0  0  0  0  0  0  0  0  0  0  0
  -32.2133  -31.2405   27.0626 C   0  0  0  0  0  0  0  0  0  1  0  0
  -24.9051  -32.6991   22.3220 C   0  0  1  0  0  0  0  0  0  0  0  0
  -25.2631  -36.1561   23.8356 C   0  0  2  0  0  0  0  0  0  0  0  0
  -28.9451  -23.1608   19.5605 C   0  0  0  0  0  0  0  0  0  0  0  0
  -24.0671  -32.6715   21.0126 C   0  0  0  0  0  0  0  0  0  0  0  0
  -26.1864  -12.5536   21.1450 N   0  0  0  0  0  0  0  0  0  0  0  0
  -26.4218  -13.7646   20.6120 N   0  0  0  0  0  0  0  0  0  0  0  0
  -25.5773  -31.0957   24.0830 N   0  0  0  0  0  0  0  0  0  0  0  0
  -31.3509  -27.2075   23.0508 N   0  0  0  0  0  0  0  0  0  0  0  0
  -29.6318  -15.5640   21.6326 N   0  0  0  0  0  0  0  0  0  0  0  0
  -25.3517  -15.6400   19.6381 N   0  0  0  0  0  0  0  0  0  0  0  0
  -22.3361  -13.4346   18.9768 N   0  0  0  0  0  0  0  0  0  0  0  0
  -29.0337  -17.8434   21.7286 N   0  0  0  0  0  0  0  0  0  0  0  0
  -25.7069  -27.4939   24.6365 N   0  0  0  0  0  0  0  0  0  0  0  0
  -30.0669  -24.1404   21.5337 N   0  0  0  0  0  0  0  0  0  0  0  0
  -24.7663  -33.9289   23.0945 N   0  0  0  0  0  0  0  0  0  0  0  0
  -33.3699  -29.7026   24.7373 N   0  3  0  0  0  0  0  0  0  0  0  0
  -26.4944  -36.8865   24.2495 N   0  3  0  0  0  0  0  0  0  0  0  0
  -22.1237  -14.4040   21.0441 O   0  0  0  0  0  0  0  0  0  0  0  0
  -26.4637  -28.9598   22.9931 O   0  0  0  0  0  0  0  0  0  0  0  0
  -29.4675  -26.5970   21.8345 O   0  0  0  0  0  0  0  0  0  0  0  0
  -23.3953  -31.1295   23.2619 O   0  0  0  0  0  0  0  0  0  0  0  0
  -26.5567  -35.0404   22.1271 O   0  0  0  0  0  0  0  0  0  0  0  0
  -30.9764  -24.5070   19.4366 O   0  0  0  0  0  0  0  0  0  0  0  0
  -31.2544  -17.2065   21.5175 O   0  0  0  0  0  0  0  0  0  0  0  0
  -22.3179   -7.8170   22.9200 O   0  0  0  0  0  0  0  0  0  0  0  0
  -31.2280  -32.0150   26.3802 O   0  0  0  0  0  0  0  0  0  1  0  0
  -20.4725   -4.2211   19.1693 F   0  0  0  0  0  0  0  0  0  0  0  0
  -23.2508   -5.2151   22.8704 F   0  0  0  0  0  0  0  0  0  0  0  0
  1  2  1  0  0  0  0
  1  5  2  0  0  0  0
  2  6  2  0  0  0  0
  3 12  2  0  0  0  0
  3 19  1  0  0  0  0
  4 13  1  0  0  0  0
  4 19  2  0  0  0  0
  5 21  1  0  0  0  0
  6 23  1  0  0  0  0
  7 14  2  0  0  0  0
  7 22  1  0  0  0  0
  8 10  2  0  0  0  0
  8 25  1  0  0  0  0
  9 11  1  0  0  0  0
  9 25  2  0  0  0  0
 10 26  1  0  0  0  0
 11 26  2  0  0  0  0
 12 27  1  0  0  0  0
 13 27  2  0  0  0  0
 14 28  1  0  0  0  0
 15 16  2  0  0  0  0
 15 29  1  0  0  0  0
 16 30  1  0  0  0  0
 17 24  1  0  0  0  0
 17 28  2  0  0  0  0
 18 30  2  0  0  0  0
 18 31  1  0  0  0  0
 19 32  1  0  0  0  0
 20 32  1  0  0  0  0
 20 33  2  0  0  0  0
 20 34  1  0  0  0  0
 21 23  2  0  0  0  0
 21 41  1  0  0  0  0
 22 24  2  0  0  0  0
 22 42  1  0  0  0  0
 23 54  1  0  0  0  0
 24 43  1  0  0  0  0
 25 71  1  0  0  0  0
 26 80  1  0  0  0  0
 27 93  1  0  0  0  0
 28 94  1  0  0  0  0
 29 31  2  0  0  0  0
 29 93  1  0  0  0  0
 30 95  1  0  0  0  0
 31 96  1  0  0  0  0
 32 73  2  0  0  0  0
 33 74  1  0  0  0  0
 33 78  1  0  0  0  0
 34 79  1  0  0  0  0
 34 86  2  0  0  0  0
 35 55  1  0  0  0  0
 35 81  1  0  0  0  0
 35 87  2  0  0  0  0
 36 65  1  0  0  0  0
 36 76  1  0  0  0  0
 36 88  2  0  0  0  0
 37 69  1  0  0  0  0
 37 75  1  0  0  0  0
 37 89  2  0  0  0  0
 38 70  1  0  0  0  0
 38 83  1  0  0  0  0
 38 90  2  0  0  0  0
 39 71  1  0  0  0  0
 39 82  1  0  0  0  0
 39 91  2  0  0  0  0
 40 77  1  0  0  0  0
 40 80  1  0  0  0  0
 40 92  2  0  0  0  0
 41 44  1  0  0  0  0
 42 55  1  0  0  0  0
 43 75  1  0  0  0  0
 44 46  1  0  0  0  0
 45 47  1  0  0  0  0
 45 50  1  0  0  0  0
 46 54  1  0  0  0  0
 47 56  1  0  0  0  0
 48 51  1  0  0  0  0
 48 57  1  0  0  0  0
 49 52  1  0  0  0  0
 49 57  1  0  0  0  0
 50 77  1  0  0  0  0
 51 76  1  0  0  0  0
 52 76  1  0  0  0  0
 53 56  1  0  0  0  0
 53 77  1  0  0  0  0
 54 81  1  0  0  0  0
 55 75  1  0  0  0  0
 56 74  1  0  0  0  0
 57 84  1  0  0  0  0
 58 70  1  0  0  0  0
 59 71  1  0  0  0  0
 60 71  1  0  0  0  0
 61 72  1  0  0  0  0
 62 72  1  0  0  0  0
 63 72  1  0  0  0  0
 64 85  1  0  0  0  0
 65 82  1  0  0  0  0
 66 67  1  0  0  0  0
 66 68  1  0  0  0  0
 67 84  1  0  0  0  0
 68 94  1  0  0  0  0
 69 72  1  0  0  0  0
 69 83  1  0  0  0  0
 70 85  1  0  0  0  0
 73 74  1  0  0  0  0
M  CHG  2  84   1  85   1
M  ISO  4  40 100  68 101  80 100  94 101
M  END
> <Batch ID>
0010

> <Smiles>
CNC(C)C(=O)NC(C(=O)N1Cc2cc([101O:1][101CH2:1]CCNC3CCN(C(=O)CNC(=O)C(C)(C)c4ccc([100NH:0][100C:0](=O)N5CCCC(n6nc(-c7ccc(Oc8ccc(F)cc8F)cc7)c(C(N)=O)c6N)C5)cc4)CC3)ccc2CC1C(=O)NC1CCCc2ccccc21)C(C)(C)C

> <Shape>
0.302

> <Color>
0.111

> <Negative vol penalty>
0.000

$$$$

  -OEChem-04052315413D

 81 89  0     1  0  0  0  0  0999 V2000
  -18.5612  -31.7701   26.1841 C   0  0  0  0  0  0  0  0  0  0  0  0
  -19.9107  -31.4553   26.3070 C   0  0  0  0  0  0  0  0  0  0  0  0
  -24.7319  -10.0490   22.3108 C   0  0  0  0  0  0  0  0  0  0  0  0
  -24.7893  -11.5537   24.2001 C   0  0  0  0  0  0  0  0  0  0  0  0
  -17.8139  -31.2336   25.1364 C   0  0  0  0  0  0  0  0  0  0  0  0
  -20.5135  -30.6027   25.3828 C   0  0  0  0  0  0  0  0  0  0  0  0
  -26.7800  -29.4526   22.1079 C   0  0  0  0  0  0  0  0  0  0  0  0
  -29.5781  -21.7501   20.9856 C   0  0  0  0  0  0  0  0  0  0  0  0
  -29.6142  -20.3776   20.7400 C   0  0  0  0  0  0  0  0  0  0  0  0
  -24.4175   -8.9906   23.1632 C   0  0  0  0  0  0  0  0  0  0  0  0
  -24.4749  -10.4953   25.0525 C   0  0  0  0  0  0  0  0  0  0  0  0
  -27.6998  -28.4322   21.8703 C   0  0  0  0  0  0  0  0  0  0  0  0
  -21.6829   -7.8074   24.7615 C   0  0  0  0  0  0  0  0  0  0  0  0
  -20.6640   -6.9396   24.3688 C   0  0  0  0  0  0  0  0  0  0  0  0
  -26.3292  -27.6276   20.0556 C   0  0  0  0  0  0  0  0  0  0  0  0
  -27.1630  -21.6932   20.9490 C   0  0  0  0  0  0  0  0  0  0  0  0
  -22.2225   -5.0938   24.4044 C   0  0  0  0  0  0  0  0  0  0  0  0
  -24.9179  -11.3305   22.8292 C   0  0  0  0  0  0  0  0  0  0  0  0
  -24.3424  -13.2836   21.2923 C   0  0  0  0  0  0  0  0  0  0  0  0
  -18.4102  -30.3817   24.1933 C   0  0  0  0  0  0  0  0  0  0  0  0
  -25.6205  -29.5619   21.3269 C   0  0  0  0  0  0  0  0  0  0  0  0
  -19.7732  -30.0532   24.3222 C   0  0  0  0  0  0  0  0  0  0  0  0
  -25.3975  -28.6518   20.2837 C   0  0  0  0  0  0  0  0  0  0  0  0
  -28.3525  -22.4080   21.0902 C   0  0  0  0  0  0  0  0  0  0  0  0
  -28.4248  -19.6628   20.5988 C   0  0  0  0  0  0  0  0  0  0  0  0
  -24.2890   -9.2138   24.5340 C   0  0  0  0  0  0  0  0  0  0  0  0
  -27.4730  -27.5177   20.8459 C   0  0  0  0  0  0  0  0  0  0  0  0
  -22.9716   -7.3185   24.9755 C   0  0  0  0  0  0  0  0  0  0  0  0
  -20.9338   -5.5827   24.1903 C   0  0  0  0  0  0  0  0  0  0  0  0
  -27.1991  -20.3206   20.7033 C   0  0  0  0  0  0  0  0  0  0  0  0
  -23.2414   -5.9617   24.7970 C   0  0  0  0  0  0  0  0  0  0  0  0
  -25.2432  -12.4241   21.9493 C   0  0  0  0  0  0  0  0  0  0  0  0
  -25.1441  -14.1445   20.5834 C   0  0  0  0  0  0  0  0  0  0  0  0
  -22.9090  -13.3022   21.3205 C   0  0  0  0  0  0  0  0  0  0  0  0
  -22.4997  -29.4135   21.9118 C   0  0  0  0  0  0  0  0  0  0  0  0
  -22.2696  -30.2698   18.7916 C   0  0  0  0  0  0  0  0  0  0  0  0
  -23.7074  -30.3579   15.6978 C   0  0  0  0  0  0  0  0  0  0  0  0
  -29.5977  -17.4663   20.2170 C   0  0  0  0  0  0  0  0  0  0  0  0
  -17.5507  -29.7884   23.1052 C   0  0  0  0  0  0  0  0  0  0  0  0
  -24.6515  -30.6843   21.5787 C   0  0  0  0  0  0  0  0  0  0  0  0
  -24.1784  -28.7377   19.4035 C   0  0  0  0  0  0  0  0  0  0  0  0
  -18.3535  -29.1913   21.9523 C   0  0  0  0  0  0  0  0  0  0  0  0
  -30.1143  -13.9915   19.6368 C   0  0  0  0  0  0  0  0  0  0  0  0
  -19.4890  -28.3234   22.4857 C   0  0  0  0  0  0  0  0  0  0  0  0
  -28.8190  -13.3447   20.1327 C   0  0  0  0  0  0  0  0  0  0  0  0
  -30.5243  -15.1788   20.5063 C   0  0  0  0  0  0  0  0  0  0  0  0
  -28.1880  -15.5497   21.1943 C   0  0  0  0  0  0  0  0  0  0  0  0
  -20.4689  -29.1518   23.3254 C   0  0  1  0  0  0  0  0  0  0  0  0
  -23.2493  -30.3924   21.0531 C   0  0  1  0  0  0  0  0  0  0  0  0
  -27.6999  -14.3894   20.3116 C   0  0  2  0  0  0  0  0  0  0  0  0
  -23.2610  -31.0857   13.3380 C   0  0  0  0  0  0  0  0  0  0  0  0
  -20.4562  -27.8489   18.3905 C   0  0  0  0  0  0  0  0  0  0  0  0
  -20.8185  -28.0738   15.9234 C   0  0  0  0  0  0  0  0  0  0  0  0
  -19.7163  -29.9163   17.1934 C   0  0  0  0  0  0  0  0  0  0  0  0
  -25.9838  -32.2489   15.7275 C   0  0  0  0  0  0  0  0  0  0  0  0
  -29.4981  -24.5873   21.4945 C   0  0  0  0  0  0  0  0  0  0  0  0
  -29.1094  -26.0369   21.7322 C   0  0  0  0  0  0  0  0  0  1  0  0
  -22.1974  -29.5243   17.4809 C   0  0  1  0  0  0  0  0  0  0  0  0
  -23.8489  -31.4792   14.6843 C   0  0  2  0  0  0  0  0  0  0  0  0
  -20.8192  -28.8378   17.2647 C   0  0  0  0  0  0  0  0  0  0  0  0
  -26.5196  -12.7126   21.6814 N   0  0  0  0  0  0  0  0  0  0  0  0
  -26.4265  -13.7629   20.8482 N   0  0  0  0  0  0  0  0  0  0  0  0
  -23.2572  -29.8490   19.6934 N   0  0  0  0  0  0  0  0  0  0  0  0
  -29.4162  -16.1286   20.6275 N   0  0  0  0  0  0  0  0  0  0  0  0
  -24.8702  -15.1830   19.7656 N   0  0  0  0  0  0  0  0  0  0  0  0
  -22.2436  -12.3468   22.1007 N   0  0  0  0  0  0  0  0  0  0  0  0
  -28.4649  -18.2686   20.3489 N   0  0  0  0  0  0  0  0  0  0  0  0
  -28.3167  -23.7708   21.3347 N   0  0  0  0  0  0  0  0  0  0  0  0
  -21.3421  -29.9239   22.4676 N   0  0  0  0  0  0  0  0  0  0  0  0
  -22.5550  -30.4862   16.4439 N   0  0  0  0  0  0  0  0  0  0  0  0
  -25.2859  -31.8214   14.4876 N   0  3  0  0  0  0  0  0  0  0  0  0
  -22.2378  -14.1309   20.6600 O   0  0  0  0  0  0  0  0  0  0  0  0
  -22.9383  -28.2786   22.0581 O   0  0  0  0  0  0  0  0  0  0  0  0
  -21.4834  -31.1963   19.0044 O   0  0  0  0  0  0  0  0  0  0  0  0
  -24.5345  -29.4561   15.8133 O   0  0  0  0  0  0  0  0  0  0  0  0
  -30.6706  -17.8635   19.7552 O   0  0  0  0  0  0  0  0  0  0  0  0
  -23.9819   -8.1813   25.3661 O   0  0  0  0  0  0  0  0  0  0  0  0
  -28.3689  -26.5203   20.6122 O   0  0  0  0  0  0  0  0  0  1  0  0
  -19.9549   -4.7491   23.8147 F   0  0  0  0  0  0  0  0  0  0  0  0
  -26.0498  -19.6435   20.5689 F   0  0  0  0  0  0  0  0  0  0  0  0
  -24.4773   -5.4860   25.0023 F   0  0  0  0  0  0  0  0  0  0  0  0
  1  2  1  0  0  0  0
  1  5  2  0  0  0  0
  2  6  2  0  0  0  0
  3 10  2  0  0  0  0
  3 18  1  0  0  0  0
  4 11  1  0  0  0  0
  4 18  2  0  0  0  0
  5 20  1  0  0  0  0
  6 22  1  0  0  0  0
  7 12  2  0  0  0  0
  7 21  1  0  0  0  0
  8  9  2  0  0  0  0
  8 24  1  0  0  0  0
  9 25  1  0  0  0  0
 10 26  1  0  0  0  0
 11 26  2  0  0  0  0
 12 27  1  0  0  0  0
 13 14  2  0  0  0  0
 13 28  1  0  0  0  0
 14 29  1  0  0  0  0
 15 23  1  0  0  0  0
 15 27  2  0  0  0  0
 16 24  2  0  0  0  0
 16 30  1  0  0  0  0
 17 29  2  0  0  0  0
 17 31  1  0  0  0  0
 18 32  1  0  0  0  0
 19 32  1  0  0  0  0
 19 33  2  0  0  0  0
 19 34  1  0  0  0  0
 20 22  2  0  0  0  0
 20 39  1  0  0  0  0
 21 23  2  0  0  0  0
 21 40  1  0  0  0  0
 22 48  1  0  0  0  0
 23 41  1  0  0  0  0
 24 68  1  0  0  0  0
 25 30  2  0  0  0  0
 25 67  1  0  0  0  0
 26 77  1  0  0  0  0
 27 78  1  0  0  0  0
 28 31  2  0  0  0  0
 28 77  1  0  0  0  0
 29 79  1  0  0  0  0
 30 80  1  0  0  0  0
 31 81  1  0  0  0  0
 32 61  2  0  0  0  0
 33 62  1  0  0  0  0
 33 65  1  0  0  0  0
 34 66  1  0  0  0  0
 34 72  2  0  0  0  0
 35 49  1  0  0  0  0
 35 69  1  0  0  0  0
 35 73  2  0  0  0  0
 36 58  1  0  0  0  0
 36 63  1  0  0  0  0
 36 74  2  0  0  0  0
 37 59  1  0  0  0  0
 37 70  1  0  0  0  0
 37 75  2  0  0  0  0
 38 64  1  0  0  0  0
 38 67  1  0  0  0  0
 38 76  2  0  0  0  0
 39 42  1  0  0  0  0
 40 49  1  0  0  0  0
 41 63  1  0  0  0  0
 42 44  1  0  0  0  0
 43 45  1  0  0  0  0
 43 46  1  0  0  0  0
 44 48  1  0  0  0  0
 45 50  1  0  0  0  0
 46 64  1  0  0  0  0
 47 50  1  0  0  0  0
 47 64  1  0  0  0  0
 48 69  1  0  0  0  0
 49 63  1  0  0  0  0
 50 62  1  0  0  0  0
 51 59  1  0  0  0  0
 52 60  1  0  0  0  0
 53 60  1  0  0  0  0
 54 60  1  0  0  0  0
 55 71  1  0  0  0  0
 56 57  1  0  0  0  0
 56 68  1  0  0  0  0
 57 78  1  0  0  0  0
 58 60  1  0  0  0  0
 58 70  1  0  0  0  0
 59 71  1  0  0  0  0
 61 62  1  0  0  0  0
M  CHG  1  71   1
M  ISO  4  38 100  57 101  67 100  78 101
M  END
> <Batch ID>
0010

> <Smiles>
CNC(C)C(=O)NC(C(=O)N1Cc2cc([101O:1][101CH2:1]CNc3ccc([100NH:0][100C:0](=O)N4CCCC(n5nc(-c6ccc(Oc7ccc(F)cc7F)cc6)c(C(N)=O)c5N)C4)c(F)c3)ccc2CC1C(=O)NC1CCCc2ccccc21)C(C)(C)C

> <Shape>
0.285

> <Color>
0.137

> <Negative vol penalty>
0.000

$$$$

  -OEChem-04052315413D

 88 96  0     1  0  0  0  0  0999 V2000
  -16.9996  -25.8297   24.9370 C   0  0  0  0  0  0  0  0  0  0  0  0
  -18.2336  -25.5568   24.3554 C   0  0  0  0  0  0  0  0  0  0  0  0
  -23.0565  -11.3350   22.2400 C   0  0  0  0  0  0  0  0  0  0  0  0
  -22.7562  -13.6370   21.5712 C   0  0  0  0  0  0  0  0  0  0  0  0
  -16.4656  -27.1156   24.8653 C   0  0  0  0  0  0  0  0  0  0  0  0
  -18.9338  -26.5695   23.7007 C   0  0  0  0  0  0  0  0  0  0  0  0
  -23.8526  -26.6216   24.9040 C   0  0  0  0  0  0  0  0  0  0  0  0
  -22.0839  -11.4948   23.2269 C   0  0  0  0  0  0  0  0  0  0  0  0
  -21.7834  -13.7968   22.5581 C   0  0  0  0  0  0  0  0  0  0  0  0
  -24.6681  -25.6714   24.2909 C   0  0  0  0  0  0  0  0  0  0  0  0
  -18.5206  -13.0274   22.9849 C   0  0  0  0  0  0  0  0  0  0  0  0
  -17.3438  -13.6878   22.6319 C   0  0  0  0  0  0  0  0  0  0  0  0
  -25.4152  -27.3381   22.7152 C   0  0  0  0  0  0  0  0  0  0  0  0
  -30.5635  -19.9910   19.8142 C   0  0  0  0  0  0  0  0  0  0  0  0
  -31.1980  -17.6755   20.0840 C   0  0  0  0  0  0  0  0  0  0  0  0
  -29.0260  -18.2362   19.1867 C   0  0  0  0  0  0  0  0  0  0  0  0
  -17.7849  -15.3701   24.3089 C   0  0  0  0  0  0  0  0  0  0  0  0
  -23.3927  -12.4061   21.4122 C   0  0  0  0  0  0  0  0  0  0  0  0
  -24.1991  -11.8293   19.0617 C   0  0  0  0  0  0  0  0  0  0  0  0
  -17.1640  -28.1469   24.2178 C   0  0  0  0  0  0  0  0  0  0  0  0
  -23.8039  -27.9367   24.4196 C   0  0  0  0  0  0  0  0  0  0  0  0
  -18.4079  -27.8701   23.6191 C   0  0  0  0  0  0  0  0  0  0  0  0
  -24.6002  -28.3037   23.3254 C   0  0  0  0  0  0  0  0  0  0  0  0
  -31.4990  -19.0323   20.2033 C   0  0  0  0  0  0  0  0  0  0  0  0
  -29.3270  -19.5930   19.3060 C   0  0  0  0  0  0  0  0  0  0  0  0
  -29.9615  -17.2774   19.5757 C   0  0  0  0  0  0  0  0  0  0  0  0
  -21.4473  -12.7257   23.3859 C   0  0  0  0  0  0  0  0  0  0  0  0
  -25.4474  -26.0289   23.1946 C   0  0  0  0  0  0  0  0  0  0  0  0
  -19.3295  -13.5383   23.9999 C   0  0  0  0  0  0  0  0  0  0  0  0
  -16.9759  -14.8591   23.2938 C   0  0  0  0  0  0  0  0  0  0  0  0
  -18.9617  -14.7097   24.6619 C   0  0  0  0  0  0  0  0  0  0  0  0
  -24.3978  -12.2418   20.3929 C   0  0  0  0  0  0  0  0  0  0  0  0
  -25.4567  -11.8338   18.5095 C   0  0  0  0  0  0  0  0  0  0  0  0
  -22.9862  -11.4739   18.3848 C   0  0  0  0  0  0  0  0  0  0  0  0
  -21.5348  -29.7912   23.1886 C   0  0  0  0  0  0  0  0  0  0  0  0
  -23.8540  -32.0549   23.3264 C   0  0  0  0  0  0  0  0  0  0  0  0
  -28.5129  -21.9509   18.9593 C   0  0  0  0  0  0  0  0  0  0  0  0
  -27.1860  -32.7875   23.4138 C   0  0  0  0  0  0  0  0  0  0  0  0
  -30.4697  -14.8200   19.7969 C   0  0  0  0  0  0  0  0  0  0  0  0
  -16.5246  -29.5097   24.1250 C   0  0  0  0  0  0  0  0  0  0  0  0
  -22.9393  -28.9565   25.1086 C   0  0  0  0  0  0  0  0  0  0  0  0
  -24.5994  -29.7075   22.7795 C   0  0  0  0  0  0  0  0  0  0  0  0
  -17.5025  -30.6162   23.7380 C   0  0  0  0  0  0  0  0  0  0  0  0
  -30.0659  -11.2842   19.6875 C   0  0  0  0  0  0  0  0  0  0  0  0
  -18.3665  -30.1772   22.5600 C   0  0  0  0  0  0  0  0  0  0  0  0
  -28.5482  -11.0912   19.7287 C   0  0  0  0  0  0  0  0  0  0  0  0
  -30.5125  -12.4556   20.5604 C   0  0  0  0  0  0  0  0  0  0  0  0
  -28.3086  -13.5330   20.3343 C   0  0  0  0  0  0  0  0  0  0  0  0
  -19.2091  -28.9481   22.9218 C   0  0  1  0  0  0  0  0  0  0  0  0
  -22.5785  -30.1373   24.2125 C   0  0  1  0  0  0  0  0  0  0  0  0
  -27.8044  -12.4052   19.4192 C   0  0  2  0  0  0  0  0  0  0  0  0
  -28.7750  -34.7284   23.4860 C   0  0  0  0  0  0  0  0  0  0  0  0
  -23.3419  -32.5812   20.3648 C   0  0  0  0  0  0  0  0  0  0  0  0
  -25.5309  -33.7929   20.2732 C   0  0  0  0  0  0  0  0  0  0  0  0
  -23.7007  -34.6371   21.7429 C   0  0  0  0  0  0  0  0  0  0  0  0
  -28.3141  -31.9169   26.0077 C   0  0  0  0  0  0  0  0  0  0  0  0
  -27.2519  -22.6298   18.4385 C   0  0  0  0  0  0  0  0  0  0  0  0
  -26.9758  -23.9923   19.0729 C   0  0  0  0  0  0  0  0  0  0  0  0
  -26.7237  -23.8932   20.5779 C   0  0  0  0  0  0  0  0  0  0  0  0
  -26.4868  -25.2638   21.1970 C   0  0  0  0  0  0  0  0  0  1  0  0
  -24.9399  -32.5312   22.3921 C   0  0  1  0  0  0  0  0  0  0  0  0
  -27.9902  -33.7160   24.3057 C   0  0  2  0  0  0  0  0  0  0  0  0
  -32.8206  -19.4584   20.7480 C   0  0  0  0  0  0  0  0  0  0  0  0
  -24.3771  -33.3586   21.2021 C   0  0  0  0  0  0  0  0  0  0  0  0
  -25.6807  -12.4902   20.6697 N   0  0  0  0  0  0  0  0  0  0  0  0
  -26.2994  -12.2329   19.5048 N   0  0  0  0  0  0  0  0  0  0  0  0
  -23.7327  -30.6670   23.4835 N   0  0  0  0  0  0  0  0  0  0  0  0
  -29.7683  -13.6667   20.2078 N   0  0  0  0  0  0  0  0  0  0  0  0
  -25.9128  -11.5353   17.2745 N   0  0  0  0  0  0  0  0  0  0  0  0
  -21.7822  -11.5240   19.1006 N   0  0  0  0  0  0  0  0  0  0  0  0
  -28.3781  -20.5662   18.9116 N   0  0  0  0  0  0  0  0  0  0  0  0
  -29.6552  -15.8992   19.4558 N   0  0  0  0  0  0  0  0  0  0  0  0
  -20.3471  -29.3349   23.7278 N   0  0  0  0  0  0  0  0  0  0  0  0
  -25.9024  -33.2516   23.2185 N   0  0  0  0  0  0  0  0  0  0  0  0
  -28.9520  -32.9347   25.1336 N   0  3  0  0  0  0  0  0  0  0  0  0
  -22.9725  -11.1066   17.1855 O   0  0  0  0  0  0  0  0  0  0  0  0
  -21.7877  -29.9294   21.9975 O   0  0  0  0  0  0  0  0  0  0  0  0
  -23.1442  -32.8841   23.9012 O   0  0  0  0  0  0  0  0  0  0  0  0
  -29.4900  -22.5904   19.3342 O   0  0  0  0  0  0  0  0  0  0  0  0
  -27.6513  -31.7556   22.9349 O   0  0  0  0  0  0  0  0  0  0  0  0
  -31.7012  -14.8394   19.7249 O   0  0  0  0  0  0  0  0  0  0  0  0
  -20.4979  -12.8819   24.3487 O   0  0  0  0  0  0  0  0  0  0  0  0
  -26.2438  -25.1032   22.5940 O   0  0  0  0  0  0  0  0  0  1  0  0
  -15.8466  -15.4941   22.9537 F   0  0  0  0  0  0  0  0  0  0  0  0
  -19.7354  -15.2060   25.6370 F   0  0  0  0  0  0  0  0  0  0  0  0
  -32.9762  -20.8141   20.8085 F   0  0  0  0  0  0  0  0  0  0  0  0
  -33.0566  -19.0158   22.0183 F   0  0  0  0  0  0  0  0  0  0  0  0
  -33.8679  -19.0026   20.0008 F   0  0  0  0  0  0  0  0  0  0  0  0
  1  2  1  0  0  0  0
  1  5  2  0  0  0  0
  2  6  2  0  0  0  0
  3  8  2  0  0  0  0
  3 18  1  0  0  0  0
  4  9  1  0  0  0  0
  4 18  2  0  0  0  0
  5 20  1  0  0  0  0
  6 22  1  0  0  0  0
  7 10  2  0  0  0  0
  7 21  1  0  0  0  0
  8 27  1  0  0  0  0
  9 27  2  0  0  0  0
 10 28  1  0  0  0  0
 11 12  2  0  0  0  0
 11 29  1  0  0  0  0
 12 30  1  0  0  0  0
 13 23  1  0  0  0  0
 13 28  2  0  0  0  0
 14 24  1  0  0  0  0
 14 25  2  0  0  0  0
 15 24  2  0  0  0  0
 15 26  1  0  0  0  0
 16 25  1  0  0  0  0
 16 26  2  0  0  0  0
 17 30  2  0  0  0  0
 17 31  1  0  0  0  0
 18 32  1  0  0  0  0
 19 32  1  0  0  0  0
 19 33  2  0  0  0  0
 19 34  1  0  0  0  0
 20 22  2  0  0  0  0
 20 40  1  0  0  0  0
 21 23  2  0  0  0  0
 21 41  1  0  0  0  0
 22 49  1  0  0  0  0
 23 42  1  0  0  0  0
 24 63  1  0  0  0  0
 25 71  1  0  0  0  0
 26 72  1  0  0  0  0
 27 82  1  0  0  0  0
 28 83  1  0  0  0  0
 29 31  2  0  0  0  0
 29 82  1  0  0  0  0
 30 84  1  0  0  0  0
 31 85  1  0  0  0  0
 32 65  2  0  0  0  0
 33 66  1  0  0  0  0
 33 69  1  0  0  0  0
 34 70  1  0  0  0  0
 34 76  2  0  0  0  0
 35 50  1  0  0  0  0
 35 73  1  0  0  0  0
 35 77  2  0  0  0  0
 36 61  1  0  0  0  0
 36 67  1  0  0  0  0
 36 78  2  0  0  0  0
 37 57  1  0  0  0  0
 37 71  1  0  0  0  0
 37 79  2  0  0  0  0
 38 62  1  0  0  0  0
 38 74  1  0  0  0  0
 38 80  2  0  0  0  0
 39 68  1  0  0  0  0
 39 72  1  0  0  0  0
 39 81  2  0  0  0  0
 40 43  1  0  0  0  0
 41 50  1  0  0  0  0
 42 67  1  0  0  0  0
 43 45  1  0  0  0  0
 44 46  1  0  0  0  0
 44 47  1  0  0  0  0
 45 49  1  0  0  0  0
 46 51  1  0  0  0  0
 47 68  1  0  0  0  0
 48 51  1  0  0  0  0
 48 68  1  0  0  0  0
 49 73  1  0  0  0  0
 50 67  1  0  0  0  0
 51 66  1  0  0  0  0
 52 62  1  0  0  0  0
 53 64  1  0  0  0  0
 54 64  1  0  0  0  0
 55 64  1  0  0  0  0
 56 75  1  0  0  0  0
 57 58  1  0  0  0  0
 58 59  1  0  0  0  0
 59 60  1  0  0  0  0
 60 83  1  0  0  0  0
 61 64  1  0  0  0  0
 61 74  1  0  0  0  0
 62 75  1  0  0  0  0
 63 86  1  0  0  0  0
 63 87  1  0  0  0  0
 63 88  1  0  0  0  0
 65 66  1  0  0  0  0
M  CHG  1  75   1
M  ISO  4  39 100  60 101  72 100  83 101
M  END
> <Batch ID>
0010

> <Smiles>
CNC(C)C(=O)NC(C(=O)N1Cc2cc([101O:1][101CH2:1]CCCC(=O)Nc3cc([100NH:0][100C:0](=O)N4CCCC(n5nc(-c6ccc(Oc7ccc(F)cc7F)cc6)c(C(N)=O)c5N)C4)cc(C(F)(F)F)c3)ccc2CC1C(=O)NC1CCCc2ccccc21)C(C)(C)C

> <Shape>
0.238

> <Color>
0.090

> <Negative vol penalty>
0.000

$$$$

  -OEChem-04052315413D

 88 96  0     1  0  0  0  0  0999 V2000
  -33.9317  -31.7120   23.2251 C   0  0  0  0  0  0  0  0  0  0  0  0
  -33.6265  -30.4387   23.6952 C   0  0  0  0  0  0  0  0  0  0  0  0
  -23.0763   -9.8324   19.9923 C   0  0  0  0  0  0  0  0  0  0  0  0
  -23.8169   -9.9132   22.2906 C   0  0  0  0  0  0  0  0  0  0  0  0
  -33.3841  -32.1600   22.0237 C   0  0  0  0  0  0  0  0  0  0  0  0
  -32.7726  -29.6131   22.9647 C   0  0  0  0  0  0  0  0  0  0  0  0
  -34.4943  -24.8638   22.6114 C   0  0  0  0  0  0  0  0  0  0  0  0
  -32.6560  -17.5300   23.3122 C   0  0  0  0  0  0  0  0  0  0  0  0
  -32.0499  -16.6277   22.4381 C   0  0  0  0  0  0  0  0  0  0  0  0
  -22.3293   -8.6884   20.2732 C   0  0  0  0  0  0  0  0  0  0  0  0
  -23.0698   -8.7692   22.5716 C   0  0  0  0  0  0  0  0  0  0  0  0
  -34.3260  -24.0411   23.7243 C   0  0  0  0  0  0  0  0  0  0  0  0
  -19.8360   -7.9935   23.1724 C   0  0  0  0  0  0  0  0  0  0  0  0
  -19.0692   -7.9921   24.3375 C   0  0  0  0  0  0  0  0  0  0  0  0
  -32.4027  -23.0288   22.6776 C   0  0  0  0  0  0  0  0  0  0  0  0
  -30.4887  -18.4304   23.8859 C   0  0  0  0  0  0  0  0  0  0  0  0
  -20.3025   -6.0787   25.1468 C   0  0  0  0  0  0  0  0  0  0  0  0
  -23.8202  -10.4447   21.0010 C   0  0  0  0  0  0  0  0  0  0  0  0
  -24.1654  -12.9644   20.8021 C   0  0  0  0  0  0  0  0  0  0  0  0
  -32.5307  -31.3358   21.2732 C   0  0  0  0  0  0  0  0  0  0  0  0
  -33.6101  -24.7827   21.5260 C   0  0  0  0  0  0  0  0  0  0  0  0
  -32.2120  -30.0510   21.7528 C   0  0  0  0  0  0  0  0  0  0  0  0
  -32.5635  -23.8499   21.5510 C   0  0  0  0  0  0  0  0  0  0  0  0
  -31.8755  -18.4313   24.0361 C   0  0  0  0  0  0  0  0  0  0  0  0
  -30.6631  -16.6268   22.2879 C   0  0  0  0  0  0  0  0  0  0  0  0
  -22.3260   -8.1569   21.5628 C   0  0  0  0  0  0  0  0  0  0  0  0
  -33.2784  -23.1254   23.7588 C   0  0  0  0  0  0  0  0  0  0  0  0
  -20.8360   -7.0375   22.9944 C   0  0  0  0  0  0  0  0  0  0  0  0
  -19.3025   -7.0347   25.3247 C   0  0  0  0  0  0  0  0  0  0  0  0
  -21.0693   -6.0801   23.9816 C   0  0  0  0  0  0  0  0  0  0  0  0
  -29.8825  -17.5281   23.0118 C   0  0  0  0  0  0  0  0  0  0  0  0
  -24.5925  -11.6261   20.7113 C   0  0  0  0  0  0  0  0  0  0  0  0
  -25.2613  -13.7010   20.4239 C   0  0  0  0  0  0  0  0  0  0  0  0
  -22.8919  -13.4944   21.1933 C   0  0  0  0  0  0  0  0  0  0  0  0
  -31.5764  -26.7906   20.1347 C   0  0  0  0  0  0  0  0  0  0  0  0
  -31.2639  -24.3749   17.9924 C   0  0  0  0  0  0  0  0  0  0  0  0
  -33.8503  -19.4848   25.1912 C   0  0  0  0  0  0  0  0  0  0  0  0
  -31.5226  -21.0367   17.3319 C   0  0  0  0  0  0  0  0  0  0  0  0
  -30.7268  -14.7480   20.6108 C   0  0  0  0  0  0  0  0  0  0  0  0
  -31.9255  -31.8816   20.0042 C   0  0  0  0  0  0  0  0  0  0  0  0
  -33.8213  -25.6586   20.3216 C   0  0  0  0  0  0  0  0  0  0  0  0
  -31.5990  -23.7093   20.4028 C   0  0  0  0  0  0  0  0  0  0  0  0
  -31.3270  -30.8049   19.1027 C   0  0  0  0  0  0  0  0  0  0  0  0
  -29.6301  -12.2595   18.3126 C   0  0  0  0  0  0  0  0  0  0  0  0
  -30.4698  -29.8419   19.9179 C   0  0  0  0  0  0  0  0  0  0  0  0
  -28.1866  -11.9829   18.7393 C   0  0  0  0  0  0  0  0  0  0  0  0
  -30.5352  -12.5265   19.5139 C   0  0  0  0  0  0  0  0  0  0  0  0
  -28.6174  -13.2966   20.8548 C   0  0  0  0  0  0  0  0  0  0  0  0
  -31.3095  -29.1167   20.9765 C   0  0  1  0  0  0  0  0  0  0  0  0
  -32.5553  -25.8490   19.4920 C   0  0  1  0  0  0  0  0  0  0  0  0
  -27.6544  -13.0859   19.6751 C   0  0  2  0  0  0  0  0  0  0  0  0
  -31.1621  -19.3568   15.5030 C   0  0  0  0  0  0  0  0  0  0  0  0
  -28.2513  -24.5234   18.4532 C   0  0  0  0  0  0  0  0  0  0  0  0
  -28.0461  -22.2718   17.3777 C   0  0  0  0  0  0  0  0  0  0  0  0
  -28.9271  -24.2026   16.0668 C   0  0  0  0  0  0  0  0  0  0  0  0
  -28.3740  -20.0740   21.7548 C   0  0  0  0  0  0  0  0  0  0  0  0
  -28.0991  -18.2058   20.1753 C   0  0  0  0  0  0  0  0  0  0  0  0
  -34.3774  -20.2560   17.3277 C   0  0  0  0  0  0  0  0  0  0  0  0
  -34.0826  -20.5945   26.2103 C   0  0  0  0  0  0  0  0  0  0  0  0
  -34.2848  -21.9600   25.5712 C   0  0  0  0  0  0  0  0  0  1  0  0
  -30.3681  -23.1662   17.8672 C   0  0  1  0  0  0  0  0  0  0  0  0
  -32.1603  -20.2847   16.1776 C   0  0  2  0  0  0  0  0  0  0  0  0
  -28.9150  -23.5448   17.4639 C   0  0  0  0  0  0  0  0  0  0  0  0
  -25.8608  -11.5159   20.3070 N   0  0  0  0  0  0  0  0  0  0  0  0
  -26.2400  -12.7944   20.1403 N   0  0  0  0  0  0  0  0  0  0  0  0
  -31.8434  -24.5924   19.2505 N   0  0  0  0  0  0  0  0  0  0  0  0
  -29.9699  -13.5856   20.3527 N   0  0  0  0  0  0  0  0  0  0  0  0
  -25.4736  -15.0293   20.3096 N   0  0  0  0  0  0  0  0  0  0  0  0
  -21.8764  -12.5973   21.5514 N   0  0  0  0  0  0  0  0  0  0  0  0
  -32.4912  -19.3470   24.9223 N   0  0  0  0  0  0  0  0  0  0  0  0
  -30.0734  -15.6996   21.3933 N   0  0  0  0  0  0  0  0  0  0  0  0
  -32.0824  -28.0550   20.3682 N   0  0  0  0  0  0  0  0  0  0  0  0
  -31.0309  -22.2619   16.9338 N   0  0  0  0  0  0  0  0  0  0  0  0
  -27.8813  -18.6862   21.5635 N   0  0  0  0  0  0  0  0  0  0  0  0
  -33.3081  -19.4674   16.6629 N   0  3  0  0  0  0  0  0  0  0  0  0
  -22.6564  -14.7264   21.2088 O   0  0  0  0  0  0  0  0  0  0  0  0
  -30.4453  -26.3993   20.3977 O   0  0  0  0  0  0  0  0  0  0  0  0
  -31.4485  -25.0954   17.0083 O   0  0  0  0  0  0  0  0  0  0  0  0
  -34.7736  -18.8366   24.7101 O   0  0  0  0  0  0  0  0  0  0  0  0
  -31.4631  -20.5811   18.4719 O   0  0  0  0  0  0  0  0  0  0  0  0
  -31.8599  -14.9008   20.1475 O   0  0  0  0  0  0  0  0  0  0  0  0
  -27.7026  -16.2392   22.4157 O   0  0  0  0  0  0  0  0  0  0  0  0
  -27.5828  -18.1109   24.0790 O   0  0  0  0  0  0  0  0  0  0  0  0
  -21.5970   -7.0408   21.8374 O   0  0  0  0  0  0  0  0  0  0  0  0
  -33.1114  -22.3216   24.8441 O   0  0  0  0  0  0  0  0  0  1  0  0
  -18.5670   -7.0344   26.4443 F   0  0  0  0  0  0  0  0  0  0  0  0
  -22.0294   -5.1599   23.8168 F   0  0  0  0  0  0  0  0  0  0  0  0
  -28.1390  -17.5601   22.8498 S   0  0  0  0  0  0  0  0  0  0  0  0
  1  2  1  0  0  0  0
  1  5  2  0  0  0  0
  2  6  2  0  0  0  0
  3 10  2  0  0  0  0
  3 18  1  0  0  0  0
  4 11  1  0  0  0  0
  4 18  2  0  0  0  0
  5 20  1  0  0  0  0
  6 22  1  0  0  0  0
  7 12  2  0  0  0  0
  7 21  1  0  0  0  0
  8  9  2  0  0  0  0
  8 24  1  0  0  0  0
  9 25  1  0  0  0  0
 10 26  1  0  0  0  0
 11 26  2  0  0  0  0
 12 27  1  0  0  0  0
 13 14  2  0  0  0  0
 13 28  1  0  0  0  0
 14 29  1  0  0  0  0
 15 23  1  0  0  0  0
 15 27  2  0  0  0  0
 16 24  2  0  0  0  0
 16 31  1  0  0  0  0
 17 29  2  0  0  0  0
 17 30  1  0  0  0  0
 18 32  1  0  0  0  0
 19 32  1  0  0  0  0
 19 33  2  0  0  0  0
 19 34  1  0  0  0  0
 20 22  2  0  0  0  0
 20 40  1  0  0  0  0
 21 23  2  0  0  0  0
 21 41  1  0  0  0  0
 22 49  1  0  0  0  0
 23 42  1  0  0  0  0
 24 70  1  0  0  0  0
 25 31  2  0  0  0  0
 25 71  1  0  0  0  0
 26 84  1  0  0  0  0
 27 85  1  0  0  0  0
 28 30  2  0  0  0  0
 28 84  1  0  0  0  0
 29 86  1  0  0  0  0
 30 87  1  0  0  0  0
 31 88  1  0  0  0  0
 32 64  2  0  0  0  0
 33 65  1  0  0  0  0
 33 68  1  0  0  0  0
 34 69  1  0  0  0  0
 34 76  2  0  0  0  0
 35 50  1  0  0  0  0
 35 72  1  0  0  0  0
 35 77  2  0  0  0  0
 36 61  1  0  0  0  0
 36 66  1  0  0  0  0
 36 78  2  0  0  0  0
 37 59  1  0  0  0  0
 37 70  1  0  0  0  0
 37 79  2  0  0  0  0
 38 62  1  0  0  0  0
 38 73  1  0  0  0  0
 38 80  2  0  0  0  0
 39 67  1  0  0  0  0
 39 71  1  0  0  0  0
 39 81  2  0  0  0  0
 40 43  1  0  0  0  0
 41 50  1  0  0  0  0
 42 66  1  0  0  0  0
 43 45  1  0  0  0  0
 44 46  1  0  0  0  0
 44 47  1  0  0  0  0
 45 49  1  0  0  0  0
 46 51  1  0  0  0  0
 47 67  1  0  0  0  0
 48 51  1  0  0  0  0
 48 67  1  0  0  0  0
 49 72  1  0  0  0  0
 50 66  1  0  0  0  0
 51 65  1  0  0  0  0
 52 62  1  0  0  0  0
 53 63  1  0  0  0  0
 54 63  1  0  0  0  0
 55 63  1  0  0  0  0
 56 74  1  0  0  0  0
 57 74  1  0  0  0  0
 58 75  1  0  0  0  0
 59 60  1  0  0  0  0
 60 85  1  0  0  0  0
 61 63  1  0  0  0  0
 61 73  1  0  0  0  0
 62 75  1  0  0  0  0
 64 65  1  0  0  0  0
 74 88  1  0  0  0  0
 82 88  2  0  0  0  0
 83 88  2  0  0  0  0
M  CHG  1  75   1
M  ISO  4  39 100  60 101  71 100  85 101
M  END
> <Batch ID>
0010

> <Smiles>
CNC(C)C(=O)NC(C(=O)N1Cc2cc([101O:1][101CH2:1]CC(=O)Nc3ccc([100NH:0][100C:0](=O)N4CCCC(n5nc(-c6ccc(Oc7ccc(F)cc7F)cc6)c(C(N)=O)c5N)C4)c(S(=O)(=O)N(C)C)c3)ccc2CC1C(=O)NC1CCCc2ccccc21)C(C)(C)C

> <Shape>
0.234

> <Color>
0.186

> <Negative vol penalty>
0.000

$$$$

  -OEChem-04052315413D

 82 90  0     1  0  0  0  0  0999 V2000
  -29.4672  -33.9674   26.0575 C   0  0  0  0  0  0  0  0  0  0  0  0
  -29.6188  -32.8719   25.2135 C   0  0  0  0  0  0  0  0  0  0  0  0
  -24.6252   -9.0147   21.3673 C   0  0  0  0  0  0  0  0  0  0  0  0
  -23.3766  -10.8879   22.2444 C   0  0  0  0  0  0  0  0  0  0  0  0
  -28.2412  -34.2032   26.6783 C   0  0  0  0  0  0  0  0  0  0  0  0
  -28.5449  -32.0108   24.9908 C   0  0  0  0  0  0  0  0  0  0  0  0
  -27.2104  -29.0574   19.7944 C   0  0  0  0  0  0  0  0  0  0  0  0
  -27.8372  -20.4031   20.0854 C   0  0  0  0  0  0  0  0  0  0  0  0
  -28.2619  -19.0861   20.2607 C   0  0  0  0  0  0  0  0  0  0  0  0
  -24.0847   -8.1918   22.3553 C   0  0  0  0  0  0  0  0  0  0  0  0
  -22.8361  -10.0649   23.2324 C   0  0  0  0  0  0  0  0  0  0  0  0
  -27.4532  -27.7523   19.3684 C   0  0  0  0  0  0  0  0  0  0  0  0
  -21.1762   -6.5642   22.9251 C   0  0  0  0  0  0  0  0  0  0  0  0
  -20.7078   -5.3086   22.5382 C   0  0  0  0  0  0  0  0  0  0  0  0
  -25.2408  -27.1127   20.0866 C   0  0  0  0  0  0  0  0  0  0  0  0
  -25.8207  -19.9178   21.3245 C   0  0  0  0  0  0  0  0  0  0  0  0
  -22.2843   -4.2583   24.0377 C   0  0  0  0  0  0  0  0  0  0  0  0
  -24.2712  -10.3628   21.3118 C   0  0  0  0  0  0  0  0  0  0  0  0
  -24.3028  -11.4627   19.0103 C   0  0  0  0  0  0  0  0  0  0  0  0
  -27.1489  -33.3500   26.4555 C   0  0  0  0  0  0  0  0  0  0  0  0
  -25.9829  -29.3980   20.3807 C   0  0  0  0  0  0  0  0  0  0  0  0
  -27.3036  -32.2346   25.6103 C   0  0  0  0  0  0  0  0  0  0  0  0
  -24.9840  -28.4234   20.5169 C   0  0  0  0  0  0  0  0  0  0  0  0
  -26.6166  -20.8190   20.6174 C   0  0  0  0  0  0  0  0  0  0  0  0
  -27.4660  -18.1849   20.9679 C   0  0  0  0  0  0  0  0  0  0  0  0
  -23.1901   -8.7168   23.2878 C   0  0  0  0  0  0  0  0  0  0  0  0
  -26.4694  -26.7790   19.5171 C   0  0  0  0  0  0  0  0  0  0  0  0
  -22.1988   -6.6668   23.8683 C   0  0  0  0  0  0  0  0  0  0  0  0
  -21.2617   -4.1557   23.0945 C   0  0  0  0  0  0  0  0  0  0  0  0
  -26.2454  -18.6007   21.4998 C   0  0  0  0  0  0  0  0  0  0  0  0
  -22.7528   -5.5139   24.4246 C   0  0  0  0  0  0  0  0  0  0  0  0
  -24.8296  -11.2135   20.2918 C   0  0  0  0  0  0  0  0  0  0  0  0
  -25.1979  -12.3304   18.4338 C   0  0  0  0  0  0  0  0  0  0  0  0
  -23.1108  -10.9552   18.3960 C   0  0  0  0  0  0  0  0  0  0  0  0
  -25.0829  -30.4916   23.2264 C   0  0  0  0  0  0  0  0  0  0  0  0
  -22.1752  -30.6797   21.8008 C   0  0  0  0  0  0  0  0  0  0  0  0
  -26.8471  -23.1760   19.7659 C   0  0  0  0  0  0  0  0  0  0  0  0
  -20.0783  -29.5848   19.3409 C   0  0  0  0  0  0  0  0  0  0  0  0
  -29.0837  -16.2754   20.6792 C   0  0  0  0  0  0  0  0  0  0  0  0
  -25.8571  -33.6187   27.1860 C   0  0  0  0  0  0  0  0  0  0  0  0
  -25.7269  -30.8165   20.8106 C   0  0  0  0  0  0  0  0  0  0  0  0
  -23.6420  -28.7425   21.1214 C   0  0  0  0  0  0  0  0  0  0  0  0
  -24.6608  -32.8708   26.6031 C   0  0  0  0  0  0  0  0  0  0  0  0
  -29.8307  -13.5400   18.5259 C   0  0  0  0  0  0  0  0  0  0  0  0
  -25.0179  -31.4102   26.3463 C   0  0  0  0  0  0  0  0  0  0  0  0
  -28.5825  -12.6587   18.6130 C   0  0  0  0  0  0  0  0  0  0  0  0
  -30.1620  -14.1884   19.8688 C   0  0  0  0  0  0  0  0  0  0  0  0
  -27.8074  -14.0446   20.5791 C   0  0  0  0  0  0  0  0  0  0  0  0
  -26.1549  -31.2918   25.3243 C   0  0  1  0  0  0  0  0  0  0  0  0
  -24.6291  -30.9327   21.8636 C   0  0  1  0  0  0  0  0  0  0  0  0
  -27.3964  -13.4214   19.2351 C   0  0  2  0  0  0  0  0  0  0  0  0
  -17.7523  -29.8963   18.4521 C   0  0  0  0  0  0  0  0  0  0  0  0
  -21.0714  -29.0300   24.1181 C   0  0  0  0  0  0  0  0  0  0  0  0
  -19.0360  -28.5747   22.7331 C   0  0  0  0  0  0  0  0  0  0  0  0
  -19.6003  -30.9152   23.3859 C   0  0  0  0  0  0  0  0  0  0  0  0
  -21.0811  -30.5085   16.7141 C   0  0  0  0  0  0  0  0  0  0  0  0
  -26.0374  -24.4587   19.8089 C   0  0  0  0  0  0  0  0  0  1  0  0
  -21.0019  -29.7439   21.6379 C   0  0  1  0  0  0  0  0  0  0  0  0
  -19.2045  -30.3371   18.3535 C   0  0  2  0  0  0  0  0  0  0  0  0
  -20.2033  -29.5592   22.9591 C   0  0  0  0  0  0  0  0  0  0  0  0
  -25.9711  -11.8698   20.5165 N   0  0  0  0  0  0  0  0  0  0  0  0
  -26.1688  -12.5398   19.3684 N   0  0  0  0  0  0  0  0  0  0  0  0
  -23.4420  -30.1421   21.5322 N   0  0  0  0  0  0  0  0  0  0  0  0
  -28.9930  -14.8963   20.3953 N   0  0  0  0  0  0  0  0  0  0  0  0
  -25.2413  -12.9269   17.2236 N   0  0  0  0  0  0  0  0  0  0  0  0
  -22.3047  -10.0736   19.1291 N   0  0  0  0  0  0  0  0  0  0  0  0
  -26.1853  -22.1549   20.4391 N   0  0  0  0  0  0  0  0  0  0  0  0
  -27.8999  -16.8475   21.1438 N   0  0  0  0  0  0  0  0  0  0  0  0
  -25.6524  -31.4980   23.9829 N   0  0  0  0  0  0  0  0  0  0  0  0
  -20.2112  -30.2696   20.5303 N   0  0  0  0  0  0  0  0  0  0  0  0
  -19.6744  -30.0985   16.9595 N   0  3  0  0  0  0  0  0  0  0  0  0
  -22.7792  -11.2612   17.2256 O   0  0  0  0  0  0  0  0  0  0  0  0
  -24.9266  -29.3248   23.5669 O   0  0  0  0  0  0  0  0  0  0  0  0
  -21.9746  -31.8467   22.1465 O   0  0  0  0  0  0  0  0  0  0  0  0
  -27.9319  -23.1198   19.1960 O   0  0  0  0  0  0  0  0  0  0  0  0
  -20.5887  -28.4966   19.0842 O   0  0  0  0  0  0  0  0  0  0  0  0
  -30.1266  -16.9085   20.4960 O   0  0  0  0  0  0  0  0  0  0  0  0
  -22.6623   -7.9141   24.2519 O   0  0  0  0  0  0  0  0  0  0  0  0
  -26.7040  -25.5042   19.1027 O   0  0  0  0  0  0  0  0  0  1  0  0
  -20.8107   -2.9501   22.7240 F   0  0  0  0  0  0  0  0  0  0  0  0
  -25.4715  -17.7428   22.1800 F   0  0  0  0  0  0  0  0  0  0  0  0
  -23.7346   -5.6062   25.3320 F   0  0  0  0  0  0  0  0  0  0  0  0
  1  2  1  0  0  0  0
  1  5  2  0  0  0  0
  2  6  2  0  0  0  0
  3 10  2  0  0  0  0
  3 18  1  0  0  0  0
  4 11  1  0  0  0  0
  4 18  2  0  0  0  0
  5 20  1  0  0  0  0
  6 22  1  0  0  0  0
  7 12  2  0  0  0  0
  7 21  1  0  0  0  0
  8  9  2  0  0  0  0
  8 24  1  0  0  0  0
  9 25  1  0  0  0  0
 10 26  1  0  0  0  0
 11 26  2  0  0  0  0
 12 27  1  0  0  0  0
 13 14  2  0  0  0  0
 13 28  1  0  0  0  0
 14 29  1  0  0  0  0
 15 23  1  0  0  0  0
 15 27  2  0  0  0  0
 16 24  2  0  0  0  0
 16 30  1  0  0  0  0
 17 29  2  0  0  0  0
 17 31  1  0  0  0  0
 18 32  1  0  0  0  0
 19 32  1  0  0  0  0
 19 33  2  0  0  0  0
 19 34  1  0  0  0  0
 20 22  2  0  0  0  0
 20 40  1  0  0  0  0
 21 23  2  0  0  0  0
 21 41  1  0  0  0  0
 22 49  1  0  0  0  0
 23 42  1  0  0  0  0
 24 67  1  0  0  0  0
 25 30  2  0  0  0  0
 25 68  1  0  0  0  0
 26 78  1  0  0  0  0
 27 79  1  0  0  0  0
 28 31  2  0  0  0  0
 28 78  1  0  0  0  0
 29 80  1  0  0  0  0
 30 81  1  0  0  0  0
 31 82  1  0  0  0  0
 32 61  2  0  0  0  0
 33 62  1  0  0  0  0
 33 65  1  0  0  0  0
 34 66  1  0  0  0  0
 34 72  2  0  0  0  0
 35 50  1  0  0  0  0
 35 69  1  0  0  0  0
 35 73  2  0  0  0  0
 36 58  1  0  0  0  0
 36 63  1  0  0  0  0
 36 74  2  0  0  0  0
 37 57  1  0  0  0  0
 37 67  1  0  0  0  0
 37 75  2  0  0  0  0
 38 59  1  0  0  0  0
 38 70  1  0  0  0  0
 38 76  2  0  0  0  0
 39 64  1  0  0  0  0
 39 68  1  0  0  0  0
 39 77  2  0  0  0  0
 40 43  1  0  0  0  0
 41 50  1  0  0  0  0
 42 63  1  0  0  0  0
 43 45  1  0  0  0  0
 44 46  1  0  0  0  0
 44 47  1  0  0  0  0
 45 49  1  0  0  0  0
 46 51  1  0  0  0  0
 47 64  1  0  0  0  0
 48 51  1  0  0  0  0
 48 64  1  0  0  0  0
 49 69  1  0  0  0  0
 50 63  1  0  0  0  0
 51 62  1  0  0  0  0
 52 59  1  0  0  0  0
 53 60  1  0  0  0  0
 54 60  1  0  0  0  0
 55 60  1  0  0  0  0
 56 71  1  0  0  0  0
 57 79  1  0  0  0  0
 58 60  1  0  0  0  0
 58 70  1  0  0  0  0
 59 71  1  0  0  0  0
 61 62  1  0  0  0  0
M  CHG  1  71   1
M  ISO  4  39 100  57 101  68 100  79 101
M  END
> <Batch ID>
0010

> <Smiles>
CNC(C)C(=O)NC(C(=O)N1Cc2cc([101O:1][101CH2:1]C(=O)Nc3ccc([100NH:0][100C:0](=O)N4CCCC(n5nc(-c6ccc(Oc7ccc(F)cc7F)cc6)c(C(N)=O)c5N)C4)c(F)c3)ccc2CC1C(=O)NC1CCCc2ccccc21)C(C)(C)C

> <Shape>
0.309

> <Color>
0.101

> <Negative vol penalty>
0.000

$$$$

  -OEChem-04052315413D

 87 95  0     1  0  0  0  0  0999 V2000
  -29.4226  -29.0190   26.9103 C   0  0  0  0  0  0  0  0  0  0  0  0
  -28.9855  -28.2413   25.8428 C   0  0  0  0  0  0  0  0  0  0  0  0
  -24.4972   -9.0456   20.8977 C   0  0  0  0  0  0  0  0  0  0  0  0
  -22.7493  -10.7135   20.9052 C   0  0  0  0  0  0  0  0  0  0  0  0
  -28.5300  -29.8664   27.5654 C   0  0  0  0  0  0  0  0  0  0  0  0
  -27.6552  -28.3097   25.4304 C   0  0  0  0  0  0  0  0  0  0  0  0
  -27.1941  -28.5938   20.3954 C   0  0  0  0  0  0  0  0  0  0  0  0
  -23.5521   -8.0540   21.1607 C   0  0  0  0  0  0  0  0  0  0  0  0
  -21.8042   -9.7219   21.1682 C   0  0  0  0  0  0  0  0  0  0  0  0
  -27.3493  -27.4108   19.6741 C   0  0  0  0  0  0  0  0  0  0  0  0
  -21.8384   -6.8928   23.8326 C   0  0  0  0  0  0  0  0  0  0  0  0
  -22.1470   -5.9474   24.8106 C   0  0  0  0  0  0  0  0  0  0  0  0
  -24.9515  -27.2025   19.5114 C   0  0  0  0  0  0  0  0  0  0  0  0
  -27.7048  -20.0822   21.6163 C   0  0  0  0  0  0  0  0  0  0  0  0
  -26.9024  -20.6563   19.0069 C   0  0  0  0  0  0  0  0  0  0  0  0
  -21.9566   -4.1860   23.1680 C   0  0  0  0  0  0  0  0  0  0  0  0
  -24.0958  -10.3754   20.7700 C   0  0  0  0  0  0  0  0  0  0  0  0
  -25.4993  -11.8544   19.2370 C   0  0  0  0  0  0  0  0  0  0  0  0
  -27.1904  -29.9524   27.1547 C   0  0  0  0  0  0  0  0  0  0  0  0
  -25.9141  -29.0851   20.6900 C   0  0  0  0  0  0  0  0  0  0  0  0
  -26.7435  -29.1580   26.0815 C   0  0  0  0  0  0  0  0  0  0  0  0
  -24.7828  -28.3933   20.2344 C   0  0  0  0  0  0  0  0  0  0  0  0
  -27.4914  -19.0452   20.7082 C   0  0  0  0  0  0  0  0  0  0  0  0
  -22.2056   -8.3921   21.2959 C   0  0  0  0  0  0  0  0  0  0  0  0
  -26.2279  -26.7135   19.2344 C   0  0  0  0  0  0  0  0  0  0  0  0
  -21.5887   -6.4848   22.5223 C   0  0  0  0  0  0  0  0  0  0  0  0
  -27.1158  -21.6933   19.9150 C   0  0  0  0  0  0  0  0  0  0  0  0
  -22.2062   -4.5940   24.4783 C   0  0  0  0  0  0  0  0  0  0  0  0
  -21.6478   -5.1314   22.1900 C   0  0  0  0  0  0  0  0  0  0  0  0
  -27.5170  -21.4063   21.2197 C   0  0  0  0  0  0  0  0  0  0  0  0
  -27.0902  -19.3322   19.4035 C   0  0  0  0  0  0  0  0  0  0  0  0
  -25.0716  -11.4002   20.4990 C   0  0  0  0  0  0  0  0  0  0  0  0
  -26.4274  -12.8269   19.5184 C   0  0  0  0  0  0  0  0  0  0  0  0
  -25.0938  -11.4347   17.9273 C   0  0  0  0  0  0  0  0  0  0  0  0
  -24.2919  -29.6585   23.3627 C   0  0  0  0  0  0  0  0  0  0  0  0
  -22.1163  -30.9151   21.3109 C   0  0  0  0  0  0  0  0  0  0  0  0
  -20.8325  -31.0104   18.1503 C   0  0  0  0  0  0  0  0  0  0  0  0
  -28.0854  -17.2863   22.4111 C   0  0  0  0  0  0  0  0  0  0  0  0
  -26.2513  -30.8475   27.9239 C   0  0  0  0  0  0  0  0  0  0  0  0
  -25.7639  -30.3766   21.4461 C   0  0  0  0  0  0  0  0  0  0  0  0
  -23.3870  -28.8891   20.5069 C   0  0  0  0  0  0  0  0  0  0  0  0
  -24.9478  -31.1407   27.1856 C   0  0  0  0  0  0  0  0  0  0  0  0
  -28.6482  -14.0952   23.8866 C   0  0  0  0  0  0  0  0  0  0  0  0
  -24.3603  -29.8565   26.6090 C   0  0  0  0  0  0  0  0  0  0  0  0
  -27.8030  -13.1470   23.0330 C   0  0  0  0  0  0  0  0  0  0  0  0
  -27.9641  -15.4477   24.0783 C   0  0  0  0  0  0  0  0  0  0  0  0
  -26.6975  -15.1633   21.9845 C   0  0  0  0  0  0  0  0  0  0  0  0
  -25.3141  -29.2229   25.5890 C   0  0  1  0  0  0  0  0  0  0  0  0
  -24.4083  -30.5131   22.1324 C   0  0  1  0  0  0  0  0  0  0  0  0
  -27.3747  -13.8107   21.7095 C   0  0  2  0  0  0  0  0  0  0  0  0
  -19.0329  -32.1064   16.7873 C   0  0  0  0  0  0  0  0  0  0  0  0
  -20.0343  -29.0959   22.6015 C   0  0  0  0  0  0  0  0  0  0  0  0
  -18.5466  -29.5181   20.6325 C   0  0  0  0  0  0  0  0  0  0  0  0
  -19.2316  -31.4118   22.1046 C   0  0  0  0  0  0  0  0  0  0  0  0
  -30.4464  -21.9853   22.4131 C   0  0  0  0  0  0  0  0  0  0  0  0
  -29.8345  -23.9093   21.0044 C   0  0  0  0  0  0  0  0  0  0  0  0
  -22.8070  -32.2489   16.3264 C   0  0  0  0  0  0  0  0  0  0  0  0
  -25.3471  -24.5792   18.6646 C   0  0  0  0  0  0  0  0  0  1  0  0
  -25.9506  -23.1990   18.4899 C   0  0  0  0  0  0  0  0  0  0  0  0
  -20.9317  -30.3755   20.5464 C   0  0  1  0  0  0  0  0  0  0  0  0
  -20.4833  -32.1737   17.2395 C   0  0  2  0  0  0  0  0  0  0  0  0
  -19.7122  -30.0897   21.4676 C   0  0  0  0  0  0  0  0  0  0  0  0
  -25.6783  -12.0322   21.5072 N   0  0  0  0  0  0  0  0  0  0  0  0
  -26.4968  -12.8934   20.8789 N   0  0  0  0  0  0  0  0  0  0  0  0
  -23.2921  -30.1533   21.2555 N   0  0  0  0  0  0  0  0  0  0  0  0
  -27.5906  -16.0182   22.7822 N   0  0  0  0  0  0  0  0  0  0  0  0
  -27.1828  -13.6232   18.7324 N   0  0  0  0  0  0  0  0  0  0  0  0
  -24.1294  -10.4235   17.8185 N   0  0  0  0  0  0  0  0  0  0  0  0
  -27.6894  -17.7114   21.1434 N   0  0  0  0  0  0  0  0  0  0  0  0
  -25.2447  -29.9274   24.3267 N   0  0  0  0  0  0  0  0  0  0  0  0
  -20.6632  -31.3341   19.4799 N   0  0  0  0  0  0  0  0  0  0  0  0
  -29.4604  -23.0688   22.1701 N   0  0  0  0  0  0  0  0  0  0  0  0
  -21.3538  -32.1638   16.0299 N   0  3  0  0  0  0  0  0  0  0  0  0
  -25.5844  -11.9299   16.8845 O   0  0  0  0  0  0  0  0  0  0  0  0
  -23.4025  -28.8184   23.4329 O   0  0  0  0  0  0  0  0  0  0  0  0
  -22.0047  -31.9771   21.9284 O   0  0  0  0  0  0  0  0  0  0  0  0
  -21.2135  -29.9222   17.7246 O   0  0  0  0  0  0  0  0  0  0  0  0
  -28.8294  -17.9348   23.1515 O   0  0  0  0  0  0  0  0  0  0  0  0
  -26.9881  -23.8399   21.9723 O   0  0  0  0  0  0  0  0  0  0  0  0
  -27.5891  -22.1405   23.7144 O   0  0  0  0  0  0  0  0  0  0  0  0
  -21.2831   -7.4247   21.5523 O   0  0  0  0  0  0  0  0  0  0  0  0
  -26.3766  -25.5583   18.5307 O   0  0  0  0  0  0  0  0  0  1  0  0
  -26.9252  -22.9863   19.5039 O   0  0  0  0  0  0  0  0  0  0  0  0
  -22.5042   -3.6864   25.4173 F   0  0  0  0  0  0  0  0  0  0  0  0
  -21.4101   -4.7335   20.9326 F   0  0  0  0  0  0  0  0  0  0  0  0
  -27.7860  -22.6891   22.3781 S   0  0  0  0  0  0  0  0  0  0  0  0
  -26.8145  -18.0788   18.2468 Cl  0  0  0  0  0  0  0  0  0  0  0  0
  1  2  1  0  0  0  0
  1  5  2  0  0  0  0
  2  6  2  0  0  0  0
  3  8  2  0  0  0  0
  3 17  1  0  0  0  0
  4  9  1  0  0  0  0
  4 17  2  0  0  0  0
  5 19  1  0  0  0  0
  6 21  1  0  0  0  0
  7 10  2  0  0  0  0
  7 20  1  0  0  0  0
  8 24  1  0  0  0  0
  9 24  2  0  0  0  0
 10 25  1  0  0  0  0
 11 12  2  0  0  0  0
 11 26  1  0  0  0  0
 12 28  1  0  0  0  0
 13 22  1  0  0  0  0
 13 25  2  0  0  0  0
 14 23  2  0  0  0  0
 14 30  1  0  0  0  0
 15 27  1  0  0  0  0
 15 31  2  0  0  0  0
 16 28  2  0  0  0  0
 16 29  1  0  0  0  0
 17 32  1  0  0  0  0
 18 32  1  0  0  0  0
 18 33  2  0  0  0  0
 18 34  1  0  0  0  0
 19 21  2  0  0  0  0
 19 39  1  0  0  0  0
 20 22  2  0  0  0  0
 20 40  1  0  0  0  0
 21 48  1  0  0  0  0
 22 41  1  0  0  0  0
 23 31  1  0  0  0  0
 23 69  1  0  0  0  0
 24 81  1  0  0  0  0
 25 82  1  0  0  0  0
 26 29  2  0  0  0  0
 26 81  1  0  0  0  0
 27 30  2  0  0  0  0
 27 83  1  0  0  0  0
 28 84  1  0  0  0  0
 29 85  1  0  0  0  0
 30 86  1  0  0  0  0
 31 87  1  0  0  0  0
 32 63  2  0  0  0  0
 33 64  1  0  0  0  0
 33 67  1  0  0  0  0
 34 68  1  0  0  0  0
 34 74  2  0  0  0  0
 35 49  1  0  0  0  0
 35 70  1  0  0  0  0
 35 75  2  0  0  0  0
 36 60  1  0  0  0  0
 36 65  1  0  0  0  0
 36 76  2  0  0  0  0
 37 61  1  0  0  0  0
 37 71  1  0  0  0  0
 37 77  2  0  0  0  0
 38 66  1  0  0  0  0
 38 69  1  0  0  0  0
 38 78  2  0  0  0  0
 39 42  1  0  0  0  0
 40 49  1  0  0  0  0
 41 65  1  0  0  0  0
 42 44  1  0  0  0  0
 43 45  1  0  0  0  0
 43 46  1  0  0  0  0
 44 48  1  0  0  0  0
 45 50  1  0  0  0  0
 46 66  1  0  0  0  0
 47 50  1  0  0  0  0
 47 66  1  0  0  0  0
 48 70  1  0  0  0  0
 49 65  1  0  0  0  0
 50 64  1  0  0  0  0
 51 61  1  0  0  0  0
 52 62  1  0  0  0  0
 53 62  1  0  0  0  0
 54 62  1  0  0  0  0
 55 72  1  0  0  0  0
 56 72  1  0  0  0  0
 57 73  1  0  0  0  0
 58 59  1  0  0  0  0
 58 82  1  0  0  0  0
 59 83  1  0  0  0  0
 60 62  1  0  0  0  0
 60 71  1  0  0  0  0
 61 73  1  0  0  0  0
 63 64  1  0  0  0  0
 72 86  1  0  0  0  0
 79 86  2  0  0  0  0
 80 86  2  0  0  0  0
M  CHG  1  73   1
M  ISO  4  38 100  58 101  69 100  82 101
M  END
> <Batch ID>
0010

> <Smiles>
CNC(C)C(=O)NC(C(=O)N1Cc2cc([101O:1][101CH2:1]COc3cc(Cl)c([100NH:0][100C:0](=O)N4CCCC(n5nc(-c6ccc(Oc7ccc(F)cc7F)cc6)c(C(N)=O)c5N)C4)cc3S(=O)(=O)N(C)C)ccc2CC1C(=O)NC1CCCc2ccccc21)C(C)(C)C

> <Shape>
0.255

> <Color>
0.115

> <Negative vol penalty>
0.000

$$$$

  -OEChem-04052315413D

 83 91  0     1  0  0  0  0  0999 V2000
  -20.8639  -30.0469   27.2780 C   0  0  0  0  0  0  0  0  0  0  0  0
  -21.9672  -29.4056   26.7241 C   0  0  0  0  0  0  0  0  0  0  0  0
  -24.6218   -9.1013   22.1338 C   0  0  0  0  0  0  0  0  0  0  0  0
  -22.9744  -10.4457   20.9868 C   0  0  0  0  0  0  0  0  0  0  0  0
  -19.7012  -30.2064   26.5252 C   0  0  0  0  0  0  0  0  0  0  0  0
  -21.9081  -28.9224   25.4174 C   0  0  0  0  0  0  0  0  0  0  0  0
  -26.4826  -28.7378   21.3499 C   0  0  0  0  0  0  0  0  0  0  0  0
  -28.8769  -20.7113   22.7821 C   0  0  0  0  0  0  0  0  0  0  0  0
  -27.9154  -19.8178   23.2540 C   0  0  0  0  0  0  0  0  0  0  0  0
  -23.8054   -7.9793   21.9914 C   0  0  0  0  0  0  0  0  0  0  0  0
  -22.1579   -9.3237   20.8444 C   0  0  0  0  0  0  0  0  0  0  0  0
  -27.3462  -27.7169   20.9552 C   0  0  0  0  0  0  0  0  0  0  0  0
  -21.0600   -6.6914   23.4843 C   0  0  0  0  0  0  0  0  0  0  0  0
  -20.8928   -5.8671   24.5970 C   0  0  0  0  0  0  0  0  0  0  0  0
  -25.9048  -27.2293   19.0834 C   0  0  0  0  0  0  0  0  0  0  0  0
  -27.3217  -19.2560   20.9804 C   0  0  0  0  0  0  0  0  0  0  0  0
  -21.8268   -4.0119   23.3629 C   0  0  0  0  0  0  0  0  0  0  0  0
  -24.2062  -10.3345   21.6316 C   0  0  0  0  0  0  0  0  0  0  0  0
  -26.0387  -11.9446   20.8851 C   0  0  0  0  0  0  0  0  0  0  0  0
  -19.6310  -29.7334   25.2054 C   0  0  0  0  0  0  0  0  0  0  0  0
  -25.3160  -29.0054   20.6192 C   0  0  0  0  0  0  0  0  0  0  0  0
  -20.7428  -29.0744   24.6468 C   0  0  0  0  0  0  0  0  0  0  0  0
  -25.0293  -28.2558   19.4694 C   0  0  0  0  0  0  0  0  0  0  0  0
  -29.0608  -20.8772   21.4093 C   0  0  0  0  0  0  0  0  0  0  0  0
  -27.1378  -19.0901   22.3532 C   0  0  0  0  0  0  0  0  0  0  0  0
  -22.5735   -8.0905   21.3467 C   0  0  0  0  0  0  0  0  0  0  0  0
  -27.0559  -26.9606   19.8235 C   0  0  0  0  0  0  0  0  0  0  0  0
  -21.6106   -6.1760   22.3108 C   0  0  0  0  0  0  0  0  0  0  0  0
  -21.2762   -4.5273   24.5363 C   0  0  0  0  0  0  0  0  0  0  0  0
  -28.2832  -20.1496   20.5085 C   0  0  0  0  0  0  0  0  0  0  0  0
  -21.9940   -4.8362   22.2502 C   0  0  0  0  0  0  0  0  0  0  0  0
  -25.0489  -11.4939   21.7789 C   0  0  0  0  0  0  0  0  0  0  0  0
  -26.5474  -13.0746   21.4773 C   0  0  0  0  0  0  0  0  0  0  0  0
  -26.4606  -11.3912   19.6315 C   0  0  0  0  0  0  0  0  0  0  0  0
  -22.2028  -28.9253   21.2557 C   0  0  0  0  0  0  0  0  0  0  0  0
  -21.9589  -30.2046   18.2848 C   0  0  0  0  0  0  0  0  0  0  0  0
  -28.9403  -23.8719   20.0626 C   0  0  0  0  0  0  0  0  0  0  0  0
  -23.3431  -30.6420   15.1962 C   0  0  0  0  0  0  0  0  0  0  0  0
  -25.8486  -17.9022   24.1623 C   0  0  0  0  0  0  0  0  0  0  0  0
  -18.3365  -29.8871   24.4470 C   0  0  0  0  0  0  0  0  0  0  0  0
  -24.4085  -30.1276   21.0429 C   0  0  0  0  0  0  0  0  0  0  0  0
  -23.8002  -28.5165   18.6389 C   0  0  0  0  0  0  0  0  0  0  0  0
  -18.4838  -29.6787   22.9419 C   0  0  0  0  0  0  0  0  0  0  0  0
  -25.8774  -14.9386   26.1355 C   0  0  0  0  0  0  0  0  0  0  0  0
  -19.3082  -28.4279   22.6544 C   0  0  0  0  0  0  0  0  0  0  0  0
  -25.7458  -13.8153   25.1044 C   0  0  0  0  0  0  0  0  0  0  0  0
  -25.0507  -16.1635   25.7483 C   0  0  0  0  0  0  0  0  0  0  0  0
  -25.1670  -15.5540   23.3641 C   0  0  0  0  0  0  0  0  0  0  0  0
  -20.7259  -28.5585   23.2242 C   0  0  1  0  0  0  0  0  0  0  0  0
  -22.9844  -29.9751   20.5176 C   0  0  1  0  0  0  0  0  0  0  0  0
  -26.0332  -14.3232   23.6779 C   0  0  2  0  0  0  0  0  0  0  0  0
  -22.8907  -31.7016   12.9669 C   0  0  0  0  0  0  0  0  0  0  0  0
  -20.0208  -27.9473   17.6080 C   0  0  0  0  0  0  0  0  0  0  0  0
  -20.3491  -28.4858   15.1850 C   0  0  0  0  0  0  0  0  0  0  0  0
  -19.3628  -30.1895   16.7170 C   0  0  0  0  0  0  0  0  0  0  0  0
  -25.7106  -32.4034   15.4228 C   0  0  0  0  0  0  0  0  0  0  0  0
  -30.0982  -21.8386   20.9056 C   0  0  0  0  0  0  0  0  0  0  0  0
  -28.6326  -25.2990   20.4630 C   0  0  0  0  0  0  0  0  0  1  0  0
  -21.8262  -29.6469   16.8883 C   0  0  1  0  0  0  0  0  0  0  0  0
  -23.5216  -31.8820   14.3388 C   0  0  2  0  0  0  0  0  0  0  0  0
  -20.4120  -29.0610   16.6161 C   0  0  0  0  0  0  0  0  0  0  0  0
  -24.9340  -12.2740   22.8571 N   0  0  0  0  0  0  0  0  0  0  0  0
  -25.8584  -13.2261   22.6446 N   0  0  0  0  0  0  0  0  0  0  0  0
  -22.9407  -29.6203   19.0976 N   0  0  0  0  0  0  0  0  0  0  0  0
  -25.3794  -16.5905   24.3865 N   0  0  0  0  0  0  0  0  0  0  0  0
  -27.5124  -13.9435   21.1083 N   0  0  0  0  0  0  0  0  0  0  0  0
  -25.8324  -10.2264   19.1701 N   0  0  0  0  0  0  0  0  0  0  0  0
  -26.1597  -18.1838   22.8325 N   0  0  0  0  0  0  0  0  0  0  0  0
  -21.5382  -29.3989   22.3708 N   0  0  0  0  0  0  0  0  0  0  0  0
  -29.6716  -23.2125   21.0381 N   0  0  0  0  0  0  0  0  0  0  0  0
  -22.2122  -30.7222   15.9809 N   0  0  0  0  0  0  0  0  0  0  0  0
  -24.9701  -32.1801   14.1544 N   0  3  0  0  0  0  0  0  0  0  0  0
  -27.3791  -11.9049   18.9488 O   0  0  0  0  0  0  0  0  0  0  0  0
  -22.2015  -27.7714   20.8432 O   0  0  0  0  0  0  0  0  0  0  0  0
  -21.2237  -31.1296   18.6391 O   0  0  0  0  0  0  0  0  0  0  0  0
  -28.5735  -23.3875   18.9955 O   0  0  0  0  0  0  0  0  0  0  0  0
  -24.1264  -29.6953   15.1695 O   0  0  0  0  0  0  0  0  0  0  0  0
  -25.9916  -18.7070   25.0863 O   0  0  0  0  0  0  0  0  0  0  0  0
  -21.7767   -6.9959   21.2073 O   0  0  0  0  0  0  0  0  0  0  0  0
  -27.8968  -25.9631   19.4364 O   0  0  0  0  0  0  0  0  0  1  0  0
  -21.1169   -3.7362   25.6054 F   0  0  0  0  0  0  0  0  0  0  0  0
  -28.4526  -20.3021   19.1878 F   0  0  0  0  0  0  0  0  0  0  0  0
  -22.5246   -4.3357   21.1260 F   0  0  0  0  0  0  0  0  0  0  0  0
  1  2  1  0  0  0  0
  1  5  2  0  0  0  0
  2  6  2  0  0  0  0
  3 10  2  0  0  0  0
  3 18  1  0  0  0  0
  4 11  1  0  0  0  0
  4 18  2  0  0  0  0
  5 20  1  0  0  0  0
  6 22  1  0  0  0  0
  7 12  2  0  0  0  0
  7 21  1  0  0  0  0
  8  9  2  0  0  0  0
  8 24  1  0  0  0  0
  9 25  1  0  0  0  0
 10 26  1  0  0  0  0
 11 26  2  0  0  0  0
 12 27  1  0  0  0  0
 13 14  2  0  0  0  0
 13 28  1  0  0  0  0
 14 29  1  0  0  0  0
 15 23  1  0  0  0  0
 15 27  2  0  0  0  0
 16 25  2  0  0  0  0
 16 30  1  0  0  0  0
 17 29  2  0  0  0  0
 17 31  1  0  0  0  0
 18 32  1  0  0  0  0
 19 32  1  0  0  0  0
 19 33  2  0  0  0  0
 19 34  1  0  0  0  0
 20 22  2  0  0  0  0
 20 40  1  0  0  0  0
 21 23  2  0  0  0  0
 21 41  1  0  0  0  0
 22 49  1  0  0  0  0
 23 42  1  0  0  0  0
 24 30  2  0  0  0  0
 24 57  1  0  0  0  0
 25 68  1  0  0  0  0
 26 79  1  0  0  0  0
 27 80  1  0  0  0  0
 28 31  2  0  0  0  0
 28 79  1  0  0  0  0
 29 81  1  0  0  0  0
 30 82  1  0  0  0  0
 31 83  1  0  0  0  0
 32 62  2  0  0  0  0
 33 63  1  0  0  0  0
 33 66  1  0  0  0  0
 34 67  1  0  0  0  0
 34 73  2  0  0  0  0
 35 50  1  0  0  0  0
 35 69  1  0  0  0  0
 35 74  2  0  0  0  0
 36 59  1  0  0  0  0
 36 64  1  0  0  0  0
 36 75  2  0  0  0  0
 37 58  1  0  0  0  0
 37 70  1  0  0  0  0
 37 76  2  0  0  0  0
 38 60  1  0  0  0  0
 38 71  1  0  0  0  0
 38 77  2  0  0  0  0
 39 65  1  0  0  0  0
 39 68  1  0  0  0  0
 39 78  2  0  0  0  0
 40 43  1  0  0  0  0
 41 50  1  0  0  0  0
 42 64  1  0  0  0  0
 43 45  1  0  0  0  0
 44 46  1  0  0  0  0
 44 47  1  0  0  0  0
 45 49  1  0  0  0  0
 46 51  1  0  0  0  0
 47 65  1  0  0  0  0
 48 51  1  0  0  0  0
 48 65  1  0  0  0  0
 49 69  1  0  0  0  0
 50 64  1  0  0  0  0
 51 63  1  0  0  0  0
 52 60  1  0  0  0  0
 53 61  1  0  0  0  0
 54 61  1  0  0  0  0
 55 61  1  0  0  0  0
 56 72  1  0  0  0  0
 57 70  1  0  0  0  0
 58 80  1  0  0  0  0
 59 61  1  0  0  0  0
 59 71  1  0  0  0  0
 60 72  1  0  0  0  0
 62 63  1  0  0  0  0
M  CHG  1  72   1
M  ISO  4  39 100  58 101  68 100  80 101
M  END
> <Batch ID>
0010

> <Smiles>
CNC(C)C(=O)NC(C(=O)N1Cc2cc([101O:1][101CH2:1]C(=O)NCc3ccc([100NH:0][100C:0](=O)N4CCCC(n5nc(-c6ccc(Oc7ccc(F)cc7F)cc6)c(C(N)=O)c5N)C4)cc3F)ccc2CC1C(=O)NC1CCCc2ccccc21)C(C)(C)C

> <Shape>
0.256

> <Color>
0.119

> <Negative vol penalty>
0.000

$$$$

  -OEChem-04052315413D

 84 92  0     1  0  0  0  0  0999 V2000
  -23.7771  -36.7600   17.5946 C   0  0  0  0  0  0  0  0  0  0  0  0
  -23.5550  -35.4695   17.1248 C   0  0  0  0  0  0  0  0  0  0  0  0
  -24.6297   -8.6555   21.3970 C   0  0  0  0  0  0  0  0  0  0  0  0
  -23.0480  -10.4818   21.3946 C   0  0  0  0  0  0  0  0  0  0  0  0
  -24.6340  -36.9697   18.6742 C   0  0  0  0  0  0  0  0  0  0  0  0
  -24.1905  -34.3880   17.7337 C   0  0  0  0  0  0  0  0  0  0  0  0
  -23.1719  -27.4719   19.2979 C   0  0  0  0  0  0  0  0  0  0  0  0
  -23.8507   -7.9820   22.3378 C   0  0  0  0  0  0  0  0  0  0  0  0
  -22.2689   -9.8082   22.3354 C   0  0  0  0  0  0  0  0  0  0  0  0
  -23.7907  -26.2315   19.1488 C   0  0  0  0  0  0  0  0  0  0  0  0
  -21.0240   -6.1266   22.3621 C   0  0  0  0  0  0  0  0  0  0  0  0
  -20.7871   -4.7679   22.1543 C   0  0  0  0  0  0  0  0  0  0  0  0
  -25.1881  -26.7061   21.0570 C   0  0  0  0  0  0  0  0  0  0  0  0
  -21.8539   -4.2596   24.2616 C   0  0  0  0  0  0  0  0  0  0  0  0
  -24.2284   -9.9054   20.9254 C   0  0  0  0  0  0  0  0  0  0  0  0
  -24.9366  -10.5167   18.5521 C   0  0  0  0  0  0  0  0  0  0  0  0
  -25.2729  -35.8893   19.3029 C   0  0  0  0  0  0  0  0  0  0  0  0
  -23.5648  -28.3448   20.3227 C   0  0  0  0  0  0  0  0  0  0  0  0
  -25.0578  -34.5836   18.8219 C   0  0  0  0  0  0  0  0  0  0  0  0
  -24.5710  -27.9559   21.2185 C   0  0  0  0  0  0  0  0  0  0  0  0
  -22.6703   -8.5583   22.8070 C   0  0  0  0  0  0  0  0  0  0  0  0
  -24.8009  -25.8496   20.0267 C   0  0  0  0  0  0  0  0  0  0  0  0
  -21.6760   -6.5519   23.5196 C   0  0  0  0  0  0  0  0  0  0  0  0
  -21.2020   -3.8343   23.1040 C   0  0  0  0  0  0  0  0  0  0  0  0
  -22.0909   -5.6184   24.4694 C   0  0  0  0  0  0  0  0  0  0  0  0
  -25.0330  -10.6019   19.9540 C   0  0  0  0  0  0  0  0  0  0  0  0
  -25.9136  -11.3634   18.0886 C   0  0  0  0  0  0  0  0  0  0  0  0
  -28.7531  -19.9738   18.8632 C   0  0  0  0  0  0  0  0  0  0  0  0
  -28.7679  -18.6185   19.3350 C   0  0  0  0  0  0  0  0  0  0  0  0
  -29.4951  -20.9333   19.4324 C   0  0  0  0  0  0  0  0  0  0  0  0
  -29.5356  -18.2610   20.3758 C   0  0  0  0  0  0  0  0  0  0  0  0
  -30.3666  -20.5606   20.6033 C   0  0  0  0  0  0  0  0  0  0  0  0
  -24.0435   -9.7416   17.7413 C   0  0  0  0  0  0  0  0  0  0  0  0
  -24.8206  -31.2630   20.4251 C   0  0  0  0  0  0  0  0  0  0  0  0
  -24.3592  -30.9266   23.6183 C   0  0  0  0  0  0  0  0  0  0  0  0
  -23.9835  -28.8322   26.2865 C   0  0  0  0  0  0  0  0  0  0  0  0
  -28.4072  -16.1279   20.6637 C   0  0  0  0  0  0  0  0  0  0  0  0
  -26.2272  -36.1700   20.4365 C   0  0  0  0  0  0  0  0  0  0  0  0
  -22.8690  -29.6682   20.4863 C   0  0  0  0  0  0  0  0  0  0  0  0
  -25.0154  -28.8480   22.3477 C   0  0  0  0  0  0  0  0  0  0  0  0
  -26.5700  -34.9341   21.2643 C   0  0  0  0  0  0  0  0  0  0  0  0
  -30.1570  -13.1941   19.2531 C   0  0  0  0  0  0  0  0  0  0  0  0
  -26.9068  -33.7579   20.3534 C   0  0  0  0  0  0  0  0  0  0  0  0
  -29.0239  -12.1737   19.2024 C   0  0  0  0  0  0  0  0  0  0  0  0
  -30.0235  -14.1409   20.4452 C   0  0  0  0  0  0  0  0  0  0  0  0
  -27.5676  -13.8071   20.4615 C   0  0  0  0  0  0  0  0  0  0  0  0
  -25.7096  -33.3823   19.4718 C   0  0  1  0  0  0  0  0  0  0  0  0
  -23.7032  -30.6913   21.2510 C   0  0  1  0  0  0  0  0  0  0  0  0
  -27.6592  -12.8776   19.2415 C   0  0  2  0  0  0  0  0  0  0  0  0
  -23.6620  -28.8506   28.7752 C   0  0  0  0  0  0  0  0  0  0  0  0
  -27.3053  -31.6276   23.9913 C   0  0  0  0  0  0  0  0  0  0  0  0
  -27.1554  -30.7169   26.3186 C   0  0  0  0  0  0  0  0  0  0  0  0
  -25.7639  -32.6786   25.6568 C   0  0  0  0  0  0  0  0  0  0  0  0
  -31.1648  -18.8113   22.1482 C   0  0  0  0  0  0  0  0  0  0  0  0
  -29.9509  -22.5975   17.6770 C   0  0  0  0  0  0  0  0  0  0  0  0
  -21.3836  -27.4338   26.0775 C   0  0  0  0  0  0  0  0  0  0  0  0
  -27.4608  -23.4710   19.4646 C   0  0  0  0  0  0  0  0  0  0  0  0
  -28.9326  -23.2987   19.8201 C   0  0  0  0  0  0  0  0  0  0  0  0
  -26.7684  -24.5416   20.2996 C   0  0  0  0  0  0  0  0  0  1  0  0
  -25.1779  -30.3863   24.7657 C   0  0  1  0  0  0  0  0  0  0  0  0
  -22.9735  -28.8157   27.4197 C   0  0  2  0  0  0  0  0  0  0  0  0
  -26.3438  -31.3361   25.1607 C   0  0  0  0  0  0  0  0  0  0  0  0
  -25.9955  -11.4367   20.3548 N   0  0  0  0  0  0  0  0  0  0  0  0
  -26.5129  -11.8838   19.1979 N   0  0  0  0  0  0  0  0  0  0  0  0
  -30.3332  -19.2147   21.0139 N   0  0  0  0  0  0  0  0  0  0  0  0
  -24.3091  -30.1347   22.4623 N   0  0  0  0  0  0  0  0  0  0  0  0
  -28.6876  -14.7562   20.5017 N   0  0  0  0  0  0  0  0  0  0  0  0
  -26.3102  -11.7062   16.8446 N   0  0  0  0  0  0  0  0  0  0  0  0
  -23.1004   -8.9246   18.3797 N   0  0  0  0  0  0  0  0  0  0  0  0
  -29.5172  -16.9588   20.7899 N   0  0  0  0  0  0  0  0  0  0  0  0
  -24.7372  -32.6290   20.2342 N   0  0  0  0  0  0  0  0  0  0  0  0
  -24.2365  -30.1143   25.8465 N   0  0  0  0  0  0  0  0  0  0  0  0
  -29.5283  -22.2463   19.0329 N   0  0  3  0  0  0  0  0  0  0  0  0
  -22.1363  -27.5848   27.3494 N   0  3  0  0  0  0  0  0  0  0  0  0
  -31.0544  -21.4331   21.1369 O   0  0  0  0  0  0  0  0  0  0  0  0
  -24.0916   -9.7600   16.4880 O   0  0  0  0  0  0  0  0  0  0  0  0
  -25.6947  -30.5200   19.9943 O   0  0  0  0  0  0  0  0  0  0  0  0
  -23.7794  -32.0079   23.7455 O   0  0  0  0  0  0  0  0  0  0  0  0
  -24.4995  -27.8104   25.8391 O   0  0  0  0  0  0  0  0  0  0  0  0
  -27.2523  -16.5677   20.7013 O   0  0  0  0  0  0  0  0  0  0  0  0
  -21.9097   -7.9013   23.7248 O   0  0  0  0  0  0  0  0  0  0  0  0
  -25.4070  -24.6396   19.8831 O   0  0  0  0  0  0  0  0  0  1  0  0
  -20.9731   -2.5297   22.9051 F   0  0  0  0  0  0  0  0  0  0  0  0
  -22.7166   -6.0210   25.5839 F   0  0  0  0  0  0  0  0  0  0  0  0
  1  2  1  0  0  0  0
  1  5  2  0  0  0  0
  2  6  2  0  0  0  0
  3  8  2  0  0  0  0
  3 15  1  0  0  0  0
  4  9  1  0  0  0  0
  4 15  2  0  0  0  0
  5 17  1  0  0  0  0
  6 19  1  0  0  0  0
  7 10  2  0  0  0  0
  7 18  1  0  0  0  0
  8 21  1  0  0  0  0
  9 21  2  0  0  0  0
 10 22  1  0  0  0  0
 11 12  2  0  0  0  0
 11 23  1  0  0  0  0
 12 24  1  0  0  0  0
 13 20  1  0  0  0  0
 13 22  2  0  0  0  0
 14 24  2  0  0  0  0
 14 25  1  0  0  0  0
 15 26  1  0  0  0  0
 16 26  1  0  0  0  0
 16 27  2  0  0  0  0
 16 33  1  0  0  0  0
 17 19  2  0  0  0  0
 17 38  1  0  0  0  0
 18 20  2  0  0  0  0
 18 39  1  0  0  0  0
 19 47  1  0  0  0  0
 20 40  1  0  0  0  0
 21 81  1  0  0  0  0
 22 82  1  0  0  0  0
 23 25  2  0  0  0  0
 23 81  1  0  0  0  0
 24 83  1  0  0  0  0
 25 84  1  0  0  0  0
 26 63  2  0  0  0  0
 27 64  1  0  0  0  0
 27 68  1  0  0  0  0
 28 29  1  0  0  0  0
 28 30  2  0  0  0  0
 29 31  2  0  0  0  0
 30 32  1  0  0  0  0
 30 73  1  0  0  0  0
 31 65  1  0  0  0  0
 31 70  1  0  0  0  0
 32 65  1  0  0  0  0
 32 75  2  0  0  0  0
 33 69  1  0  0  0  0
 33 76  2  0  0  0  0
 34 48  1  0  0  0  0
 34 71  1  0  0  0  0
 34 77  2  0  0  0  0
 35 60  1  0  0  0  0
 35 66  1  0  0  0  0
 35 78  2  0  0  0  0
 36 61  1  0  0  0  0
 36 72  1  0  0  0  0
 36 79  2  0  0  0  0
 37 67  1  0  0  0  0
 37 70  1  0  0  0  0
 37 80  2  0  0  0  0
 38 41  1  0  0  0  0
 39 48  1  0  0  0  0
 40 66  1  0  0  0  0
 41 43  1  0  0  0  0
 42 44  1  0  0  0  0
 42 45  1  0  0  0  0
 43 47  1  0  0  0  0
 44 49  1  0  0  0  0
 45 67  1  0  0  0  0
 46 49  1  0  0  0  0
 46 67  1  0  0  0  0
 47 71  1  0  0  0  0
 48 66  1  0  0  0  0
 49 64  1  0  0  0  0
 50 61  1  0  0  0  0
 51 62  1  0  0  0  0
 52 62  1  0  0  0  0
 53 62  1  0  0  0  0
 54 65  1  0  0  0  0
 55 73  1  0  0  0  0
 56 74  1  0  0  0  0
 57 58  1  0  0  0  0
 57 59  1  0  0  0  0
 58 73  1  0  0  0  0
 59 82  1  0  0  0  0
 60 62  1  0  0  0  0
 60 72  1  0  0  0  0
 61 74  1  0  0  0  0
 63 64  1  0  0  0  0
M  CHG  1  74   1
M  ISO  4  37 100  59 101  70 100  82 101
M  END
> <Batch ID>
0010

> <Smiles>
CNC(C)C(=O)NC(C(=O)N1Cc2cc([101O:1][101CH2:1]CCN(C)c3ccc([100NH:0][100C:0](=O)N4CCCC(n5nc(-c6ccc(Oc7ccc(F)cc7F)cc6)c(C(N)=O)c5N)C4)n(C)c3=O)ccc2CC1C(=O)NC1CCCc2ccccc21)C(C)(C)C

> <Shape>
0.280

> <Color>
0.101

> <Negative vol penalty>
0.000

$$$$

  -OEChem-04052315413D

 82 90  0     1  0  0  0  0  0999 V2000
  -29.4609  -33.9616   26.0651 C   0  0  0  0  0  0  0  0  0  0  0  0
  -29.6130  -32.8665   25.2207 C   0  0  0  0  0  0  0  0  0  0  0  0
  -24.6254   -9.0141   21.3663 C   0  0  0  0  0  0  0  0  0  0  0  0
  -23.3749  -10.8876   22.2399 C   0  0  0  0  0  0  0  0  0  0  0  0
  -28.2344  -34.1977   26.6847 C   0  0  0  0  0  0  0  0  0  0  0  0
  -28.5389  -32.0061   24.9963 C   0  0  0  0  0  0  0  0  0  0  0  0
  -27.2088  -29.0561   19.7969 C   0  0  0  0  0  0  0  0  0  0  0  0
  -28.2583  -19.0882   20.2571 C   0  0  0  0  0  0  0  0  0  0  0  0
  -27.8311  -20.4045   20.0827 C   0  0  0  0  0  0  0  0  0  0  0  0
  -24.0837   -8.1918   22.3542 C   0  0  0  0  0  0  0  0  0  0  0  0
  -22.8332  -10.0653   23.2279 C   0  0  0  0  0  0  0  0  0  0  0  0
  -27.4513  -27.7511   19.3704 C   0  0  0  0  0  0  0  0  0  0  0  0
  -21.1749   -6.5638   22.9211 C   0  0  0  0  0  0  0  0  0  0  0  0
  -20.7074   -5.3078   22.5345 C   0  0  0  0  0  0  0  0  0  0  0  0
  -25.2378  -27.1124   20.0857 C   0  0  0  0  0  0  0  0  0  0  0  0
  -26.2425  -18.5979   21.4954 C   0  0  0  0  0  0  0  0  0  0  0  0
  -22.2821   -4.2592   24.0373 C   0  0  0  0  0  0  0  0  0  0  0  0
  -24.2711  -10.3620   21.3092 C   0  0  0  0  0  0  0  0  0  0  0  0
  -24.3057  -11.4600   19.0068 C   0  0  0  0  0  0  0  0  0  0  0  0
  -27.1420  -33.3453   26.4602 C   0  0  0  0  0  0  0  0  0  0  0  0
  -25.9808  -29.3971   20.3819 C   0  0  0  0  0  0  0  0  0  0  0  0
  -27.2970  -32.2302   25.6146 C   0  0  0  0  0  0  0  0  0  0  0  0
  -24.9812  -28.4230   20.5164 C   0  0  0  0  0  0  0  0  0  0  0  0
  -27.4640  -18.1849   20.9633 C   0  0  0  0  0  0  0  0  0  0  0  0
  -26.6097  -20.8176   20.6148 C   0  0  0  0  0  0  0  0  0  0  0  0
  -23.1876   -8.7174   23.2850 C   0  0  0  0  0  0  0  0  0  0  0  0
  -26.4669  -26.7783   19.5174 C   0  0  0  0  0  0  0  0  0  0  0  0
  -22.1961   -6.6675   23.8657 C   0  0  0  0  0  0  0  0  0  0  0  0
  -21.2610   -4.1555   23.0926 C   0  0  0  0  0  0  0  0  0  0  0  0
  -25.8153  -19.9143   21.3211 C   0  0  0  0  0  0  0  0  0  0  0  0
  -22.7496   -5.5153   24.4238 C   0  0  0  0  0  0  0  0  0  0  0  0
  -24.8308  -11.2121   20.2892 C   0  0  0  0  0  0  0  0  0  0  0  0
  -25.2014  -12.3274   18.4309 C   0  0  0  0  0  0  0  0  0  0  0  0
  -23.1148  -10.9516   18.3912 C   0  0  0  0  0  0  0  0  0  0  0  0
  -25.0781  -30.4896   23.2271 C   0  0  0  0  0  0  0  0  0  0  0  0
  -22.1722  -30.6800   21.7983 C   0  0  0  0  0  0  0  0  0  0  0  0
  -26.8424  -23.1750   19.7648 C   0  0  0  0  0  0  0  0  0  0  0  0
  -20.0775  -29.5876   19.3354 C   0  0  0  0  0  0  0  0  0  0  0  0
  -29.0827  -16.2756   20.6787 C   0  0  0  0  0  0  0  0  0  0  0  0
  -25.8494  -33.6143   27.1893 C   0  0  0  0  0  0  0  0  0  0  0  0
  -25.7250  -30.8155   20.8123 C   0  0  0  0  0  0  0  0  0  0  0  0
  -23.6386  -28.7425   21.1196 C   0  0  0  0  0  0  0  0  0  0  0  0
  -24.6534  -32.8673   26.6047 C   0  0  0  0  0  0  0  0  0  0  0  0
  -29.8337  -13.5387   18.5288 C   0  0  0  0  0  0  0  0  0  0  0  0
  -25.0100  -31.4067   26.3474 C   0  0  0  0  0  0  0  0  0  0  0  0
  -28.5857  -12.6570   18.6148 C   0  0  0  0  0  0  0  0  0  0  0  0
  -30.1628  -14.1883   19.8717 C   0  0  0  0  0  0  0  0  0  0  0  0
  -27.8072  -14.0443   20.5786 C   0  0  0  0  0  0  0  0  0  0  0  0
  -26.1482  -31.2882   25.3267 C   0  0  1  0  0  0  0  0  0  0  0  0
  -24.6261  -30.9318   21.8641 C   0  0  1  0  0  0  0  0  0  0  0  0
  -27.3984  -13.4199   19.2345 C   0  0  2  0  0  0  0  0  0  0  0  0
  -17.7527  -29.9008   18.4441 C   0  0  0  0  0  0  0  0  0  0  0  0
  -21.0648  -29.0297   24.1135 C   0  0  0  0  0  0  0  0  0  0  0  0
  -19.0308  -28.5762   22.7259 C   0  0  0  0  0  0  0  0  0  0  0  0
  -19.5956  -30.9161   23.3806 C   0  0  0  0  0  0  0  0  0  0  0  0
  -21.0837  -30.5122   16.7103 C   0  0  0  0  0  0  0  0  0  0  0  0
  -26.0333  -24.4580   19.8076 C   0  0  0  0  0  0  0  0  0  1  0  0
  -20.9985  -29.7450   21.6336 C   0  0  1  0  0  0  0  0  0  0  0  0
  -19.2052  -30.3408   18.3474 C   0  0  2  0  0  0  0  0  0  0  0  0
  -20.1983  -29.5600   22.9538 C   0  0  0  0  0  0  0  0  0  0  0  0
  -25.9716  -11.8689   20.5151 N   0  0  0  0  0  0  0  0  0  0  0  0
  -26.1709  -12.5380   19.3668 N   0  0  0  0  0  0  0  0  0  0  0  0
  -23.4389  -30.1419   21.5309 N   0  0  0  0  0  0  0  0  0  0  0  0
  -28.9928  -14.8963   20.3958 N   0  0  0  0  0  0  0  0  0  0  0  0
  -25.2465  -12.9230   17.2202 N   0  0  0  0  0  0  0  0  0  0  0  0
  -22.3079  -10.0704   19.1238 N   0  0  0  0  0  0  0  0  0  0  0  0
  -26.1792  -22.1538   20.4367 N   0  0  0  0  0  0  0  0  0  0  0  0
  -27.8980  -16.8478   21.1411 N   0  0  0  0  0  0  0  0  0  0  0  0
  -25.6472  -31.4953   23.9848 N   0  0  0  0  0  0  0  0  0  0  0  0
  -20.2094  -30.2717   20.5253 N   0  0  0  0  0  0  0  0  0  0  0  0
  -19.6766  -30.1028   16.9539 N   0  3  0  0  0  0  0  0  0  0  0  0
  -22.7849  -11.2565   17.2200 O   0  0  0  0  0  0  0  0  0  0  0  0
  -24.9208  -29.3228   23.5668 O   0  0  0  0  0  0  0  0  0  0  0  0
  -21.9717  -31.8470   22.1444 O   0  0  0  0  0  0  0  0  0  0  0  0
  -27.9277  -23.1185   19.1961 O   0  0  0  0  0  0  0  0  0  0  0  0
  -20.5876  -28.4993   19.0788 O   0  0  0  0  0  0  0  0  0  0  0  0
  -30.1257  -16.9089   20.4965 O   0  0  0  0  0  0  0  0  0  0  0  0
  -22.6586   -7.9153   24.2490 O   0  0  0  0  0  0  0  0  0  0  0  0
  -26.7013  -25.5036   19.1026 O   0  0  0  0  0  0  0  0  0  1  0  0
  -20.8108   -2.9494   22.7225 F   0  0  0  0  0  0  0  0  0  0  0  0
  -24.6401  -20.3006   21.8382 F   0  0  0  0  0  0  0  0  0  0  0  0
  -23.7300   -5.6086   25.3326 F   0  0  0  0  0  0  0  0  0  0  0  0
  1  2  1  0  0  0  0
  1  5  2  0  0  0  0
  2  6  2  0  0  0  0
  3 10  2  0  0  0  0
  3 18  1  0  0  0  0
  4 11  1  0  0  0  0
  4 18  2  0  0  0  0
  5 20  1  0  0  0  0
  6 22  1  0  0  0  0
  7 12  2  0  0  0  0
  7 21  1  0  0  0  0
  8  9  2  0  0  0  0
  8 24  1  0  0  0  0
  9 25  1  0  0  0  0
 10 26  1  0  0  0  0
 11 26  2  0  0  0  0
 12 27  1  0  0  0  0
 13 14  2  0  0  0  0
 13 28  1  0  0  0  0
 14 29  1  0  0  0  0
 15 23  1  0  0  0  0
 15 27  2  0  0  0  0
 16 24  2  0  0  0  0
 16 30  1  0  0  0  0
 17 29  2  0  0  0  0
 17 31  1  0  0  0  0
 18 32  1  0  0  0  0
 19 32  1  0  0  0  0
 19 33  2  0  0  0  0
 19 34  1  0  0  0  0
 20 22  2  0  0  0  0
 20 40  1  0  0  0  0
 21 23  2  0  0  0  0
 21 41  1  0  0  0  0
 22 49  1  0  0  0  0
 23 42  1  0  0  0  0
 24 68  1  0  0  0  0
 25 30  2  0  0  0  0
 25 67  1  0  0  0  0
 26 78  1  0  0  0  0
 27 79  1  0  0  0  0
 28 31  2  0  0  0  0
 28 78  1  0  0  0  0
 29 80  1  0  0  0  0
 30 81  1  0  0  0  0
 31 82  1  0  0  0  0
 32 61  2  0  0  0  0
 33 62  1  0  0  0  0
 33 65  1  0  0  0  0
 34 66  1  0  0  0  0
 34 72  2  0  0  0  0
 35 50  1  0  0  0  0
 35 69  1  0  0  0  0
 35 73  2  0  0  0  0
 36 58  1  0  0  0  0
 36 63  1  0  0  0  0
 36 74  2  0  0  0  0
 37 57  1  0  0  0  0
 37 67  1  0  0  0  0
 37 75  2  0  0  0  0
 38 59  1  0  0  0  0
 38 70  1  0  0  0  0
 38 76  2  0  0  0  0
 39 64  1  0  0  0  0
 39 68  1  0  0  0  0
 39 77  2  0  0  0  0
 40 43  1  0  0  0  0
 41 50  1  0  0  0  0
 42 63  1  0  0  0  0
 43 45  1  0  0  0  0
 44 46  1  0  0  0  0
 44 47  1  0  0  0  0
 45 49  1  0  0  0  0
 46 51  1  0  0  0  0
 47 64  1  0  0  0  0
 48 51  1  0  0  0  0
 48 64  1  0  0  0  0
 49 69  1  0  0  0  0
 50 63  1  0  0  0  0
 51 62  1  0  0  0  0
 52 59  1  0  0  0  0
 53 60  1  0  0  0  0
 54 60  1  0  0  0  0
 55 60  1  0  0  0  0
 56 71  1  0  0  0  0
 57 79  1  0  0  0  0
 58 60  1  0  0  0  0
 58 70  1  0  0  0  0
 59 71  1  0  0  0  0
 61 62  1  0  0  0  0
M  CHG  1  71   1
M  ISO  4  39 100  57 101  68 100  79 101
M  END
> <Batch ID>
0010

> <Smiles>
CNC(C)C(=O)NC(C(=O)N1Cc2cc([101O:1][101CH2:1]C(=O)Nc3ccc([100NH:0][100C:0](=O)N4CCCC(n5nc(-c6ccc(Oc7ccc(F)cc7F)cc6)c(C(N)=O)c5N)C4)cc3F)ccc2CC1C(=O)NC1CCCc2ccccc21)C(C)(C)C

> <Shape>
0.309

> <Color>
0.101

> <Negative vol penalty>
0.000

$$$$

  -OEChem-04052315413D

 82 90  0     1  0  0  0  0  0999 V2000
  -29.4609  -33.9616   26.0651 C   0  0  0  0  0  0  0  0  0  0  0  0
  -29.6130  -32.8665   25.2207 C   0  0  0  0  0  0  0  0  0  0  0  0
  -24.6254   -9.0141   21.3663 C   0  0  0  0  0  0  0  0  0  0  0  0
  -23.3749  -10.8876   22.2399 C   0  0  0  0  0  0  0  0  0  0  0  0
  -28.2344  -34.1977   26.6847 C   0  0  0  0  0  0  0  0  0  0  0  0
  -28.5389  -32.0061   24.9963 C   0  0  0  0  0  0  0  0  0  0  0  0
  -27.2088  -29.0561   19.7969 C   0  0  0  0  0  0  0  0  0  0  0  0
  -28.2583  -19.0882   20.2571 C   0  0  0  0  0  0  0  0  0  0  0  0
  -27.8311  -20.4045   20.0827 C   0  0  0  0  0  0  0  0  0  0  0  0
  -24.0837   -8.1918   22.3542 C   0  0  0  0  0  0  0  0  0  0  0  0
  -22.8332  -10.0653   23.2279 C   0  0  0  0  0  0  0  0  0  0  0  0
  -27.4513  -27.7511   19.3704 C   0  0  0  0  0  0  0  0  0  0  0  0
  -21.1749   -6.5638   22.9211 C   0  0  0  0  0  0  0  0  0  0  0  0
  -20.7074   -5.3078   22.5345 C   0  0  0  0  0  0  0  0  0  0  0  0
  -25.2378  -27.1124   20.0857 C   0  0  0  0  0  0  0  0  0  0  0  0
  -26.2425  -18.5979   21.4954 C   0  0  0  0  0  0  0  0  0  0  0  0
  -22.2821   -4.2592   24.0373 C   0  0  0  0  0  0  0  0  0  0  0  0
  -24.2711  -10.3620   21.3092 C   0  0  0  0  0  0  0  0  0  0  0  0
  -24.3057  -11.4600   19.0068 C   0  0  0  0  0  0  0  0  0  0  0  0
  -27.1420  -33.3453   26.4602 C   0  0  0  0  0  0  0  0  0  0  0  0
  -25.9808  -29.3971   20.3819 C   0  0  0  0  0  0  0  0  0  0  0  0
  -27.2970  -32.2302   25.6146 C   0  0  0  0  0  0  0  0  0  0  0  0
  -24.9812  -28.4230   20.5164 C   0  0  0  0  0  0  0  0  0  0  0  0
  -27.4640  -18.1849   20.9633 C   0  0  0  0  0  0  0  0  0  0  0  0
  -26.6097  -20.8176   20.6148 C   0  0  0  0  0  0  0  0  0  0  0  0
  -23.1876   -8.7174   23.2850 C   0  0  0  0  0  0  0  0  0  0  0  0
  -26.4669  -26.7783   19.5174 C   0  0  0  0  0  0  0  0  0  0  0  0
  -22.1961   -6.6675   23.8657 C   0  0  0  0  0  0  0  0  0  0  0  0
  -21.2610   -4.1555   23.0926 C   0  0  0  0  0  0  0  0  0  0  0  0
  -25.8153  -19.9143   21.3211 C   0  0  0  0  0  0  0  0  0  0  0  0
  -22.7496   -5.5153   24.4238 C   0  0  0  0  0  0  0  0  0  0  0  0
  -24.8308  -11.2121   20.2892 C   0  0  0  0  0  0  0  0  0  0  0  0
  -25.2014  -12.3274   18.4309 C   0  0  0  0  0  0  0  0  0  0  0  0
  -23.1148  -10.9516   18.3912 C   0  0  0  0  0  0  0  0  0  0  0  0
  -25.0781  -30.4896   23.2271 C   0  0  0  0  0  0  0  0  0  0  0  0
  -22.1722  -30.6800   21.7983 C   0  0  0  0  0  0  0  0  0  0  0  0
  -26.8424  -23.1750   19.7648 C   0  0  0  0  0  0  0  0  0  0  0  0
  -20.0775  -29.5876   19.3354 C   0  0  0  0  0  0  0  0  0  0  0  0
  -29.0827  -16.2756   20.6787 C   0  0  0  0  0  0  0  0  0  0  0  0
  -25.8494  -33.6143   27.1893 C   0  0  0  0  0  0  0  0  0  0  0  0
  -25.7250  -30.8155   20.8123 C   0  0  0  0  0  0  0  0  0  0  0  0
  -23.6386  -28.7425   21.1196 C   0  0  0  0  0  0  0  0  0  0  0  0
  -24.6534  -32.8673   26.6047 C   0  0  0  0  0  0  0  0  0  0  0  0
  -29.8337  -13.5387   18.5288 C   0  0  0  0  0  0  0  0  0  0  0  0
  -25.0100  -31.4067   26.3474 C   0  0  0  0  0  0  0  0  0  0  0  0
  -28.5857  -12.6570   18.6148 C   0  0  0  0  0  0  0  0  0  0  0  0
  -30.1628  -14.1883   19.8717 C   0  0  0  0  0  0  0  0  0  0  0  0
  -27.8072  -14.0443   20.5786 C   0  0  0  0  0  0  0  0  0  0  0  0
  -26.1482  -31.2882   25.3267 C   0  0  1  0  0  0  0  0  0  0  0  0
  -24.6261  -30.9318   21.8641 C   0  0  1  0  0  0  0  0  0  0  0  0
  -27.3984  -13.4199   19.2345 C   0  0  2  0  0  0  0  0  0  0  0  0
  -17.7527  -29.9008   18.4441 C   0  0  0  0  0  0  0  0  0  0  0  0
  -21.0648  -29.0297   24.1135 C   0  0  0  0  0  0  0  0  0  0  0  0
  -19.0308  -28.5762   22.7259 C   0  0  0  0  0  0  0  0  0  0  0  0
  -19.5956  -30.9161   23.3806 C   0  0  0  0  0  0  0  0  0  0  0  0
  -21.0837  -30.5122   16.7103 C   0  0  0  0  0  0  0  0  0  0  0  0
  -26.0333  -24.4580   19.8076 C   0  0  0  0  0  0  0  0  0  1  0  0
  -20.9985  -29.7450   21.6336 C   0  0  1  0  0  0  0  0  0  0  0  0
  -19.2052  -30.3408   18.3474 C   0  0  2  0  0  0  0  0  0  0  0  0
  -20.1983  -29.5600   22.9538 C   0  0  0  0  0  0  0  0  0  0  0  0
  -25.9716  -11.8689   20.5151 N   0  0  0  0  0  0  0  0  0  0  0  0
  -26.1709  -12.5380   19.3668 N   0  0  0  0  0  0  0  0  0  0  0  0
  -23.4389  -30.1419   21.5309 N   0  0  0  0  0  0  0  0  0  0  0  0
  -28.9928  -14.8963   20.3958 N   0  0  0  0  0  0  0  0  0  0  0  0
  -25.2465  -12.9230   17.2202 N   0  0  0  0  0  0  0  0  0  0  0  0
  -22.3079  -10.0704   19.1238 N   0  0  0  0  0  0  0  0  0  0  0  0
  -26.1792  -22.1538   20.4367 N   0  0  0  0  0  0  0  0  0  0  0  0
  -27.8980  -16.8478   21.1411 N   0  0  0  0  0  0  0  0  0  0  0  0
  -25.6472  -31.4953   23.9848 N   0  0  0  0  0  0  0  0  0  0  0  0
  -20.2094  -30.2717   20.5253 N   0  0  0  0  0  0  0  0  0  0  0  0
  -19.6766  -30.1028   16.9539 N   0  3  0  0  0  0  0  0  0  0  0  0
  -22.7849  -11.2565   17.2200 O   0  0  0  0  0  0  0  0  0  0  0  0
  -24.9208  -29.3228   23.5668 O   0  0  0  0  0  0  0  0  0  0  0  0
  -21.9717  -31.8470   22.1444 O   0  0  0  0  0  0  0  0  0  0  0  0
  -27.9277  -23.1185   19.1961 O   0  0  0  0  0  0  0  0  0  0  0  0
  -20.5876  -28.4993   19.0788 O   0  0  0  0  0  0  0  0  0  0  0  0
  -30.1257  -16.9089   20.4965 O   0  0  0  0  0  0  0  0  0  0  0  0
  -22.6586   -7.9153   24.2490 O   0  0  0  0  0  0  0  0  0  0  0  0
  -26.7013  -25.5036   19.1026 O   0  0  0  0  0  0  0  0  0  1  0  0
  -20.8108   -2.9494   22.7225 F   0  0  0  0  0  0  0  0  0  0  0  0
  -24.6401  -20.3006   21.8382 F   0  0  0  0  0  0  0  0  0  0  0  0
  -23.7300   -5.6086   25.3326 F   0  0  0  0  0  0  0  0  0  0  0  0
  1  2  1  0  0  0  0
  1  5  2  0  0  0  0
  2  6  2  0  0  0  0
  3 10  2  0  0  0  0
  3 18  1  0  0  0  0
  4 11  1  0  0  0  0
  4 18  2  0  0  0  0
  5 20  1  0  0  0  0
  6 22  1  0  0  0  0
  7 12  2  0  0  0  0
  7 21  1  0  0  0  0
  8  9  2  0  0  0  0
  8 24  1  0  0  0  0
  9 25  1  0  0  0  0
 10 26  1  0  0  0  0
 11 26  2  0  0  0  0
 12 27  1  0  0  0  0
 13 14  2  0  0  0  0
 13 28  1  0  0  0  0
 14 29  1  0  0  0  0
 15 23  1  0  0  0  0
 15 27  2  0  0  0  0
 16 24  2  0  0  0  0
 16 30  1  0  0  0  0
 17 29  2  0  0  0  0
 17 31  1  0  0  0  0
 18 32  1  0  0  0  0
 19 32  1  0  0  0  0
 19 33  2  0  0  0  0
 19 34  1  0  0  0  0
 20 22  2  0  0  0  0
 20 40  1  0  0  0  0
 21 23  2  0  0  0  0
 21 41  1  0  0  0  0
 22 49  1  0  0  0  0
 23 42  1  0  0  0  0
 24 68  1  0  0  0  0
 25 30  2  0  0  0  0
 25 67  1  0  0  0  0
 26 78  1  0  0  0  0
 27 79  1  0  0  0  0
 28 31  2  0  0  0  0
 28 78  1  0  0  0  0
 29 80  1  0  0  0  0
 30 81  1  0  0  0  0
 31 82  1  0  0  0  0
 32 61  2  0  0  0  0
 33 62  1  0  0  0  0
 33 65  1  0  0  0  0
 34 66  1  0  0  0  0
 34 72  2  0  0  0  0
 35 50  1  0  0  0  0
 35 69  1  0  0  0  0
 35 73  2  0  0  0  0
 36 58  1  0  0  0  0
 36 63  1  0  0  0  0
 36 74  2  0  0  0  0
 37 57  1  0  0  0  0
 37 67  1  0  0  0  0
 37 75  2  0  0  0  0
 38 59  1  0  0  0  0
 38 70  1  0  0  0  0
 38 76  2  0  0  0  0
 39 64  1  0  0  0  0
 39 68  1  0  0  0  0
 39 77  2  0  0  0  0
 40 43  1  0  0  0  0
 41 50  1  0  0  0  0
 42 63  1  0  0  0  0
 43 45  1  0  0  0  0
 44 46  1  0  0  0  0
 44 47  1  0  0  0  0
 45 49  1  0  0  0  0
 46 51  1  0  0  0  0
 47 64  1  0  0  0  0
 48 51  1  0  0  0  0
 48 64  1  0  0  0  0
 49 69  1  0  0  0  0
 50 63  1  0  0  0  0
 51 62  1  0  0  0  0
 52 59  1  0  0  0  0
 53 60  1  0  0  0  0
 54 60  1  0  0  0  0
 55 60  1  0  0  0  0
 56 71  1  0  0  0  0
 57 79  1  0  0  0  0
 58 60  1  0  0  0  0
 58 70  1  0  0  0  0
 59 71  1  0  0  0  0
 61 62  1  0  0  0  0
M  CHG  1  71   1
M  ISO  4  39 100  57 101  68 100  79 101
M  END
> <Batch ID>
0010

> <Smiles>
CNC(C)C(=O)NC(C(=O)N1Cc2cc([101O:1][101CH2:1]C(=O)Nc3ccc([100NH:0][100C:0](=O)N4CCCC(n5nc(-c6ccc(Oc7ccc(F)cc7F)cc6)c(C(N)=O)c5N)C4)cc3F)ccc2CC1C(=O)NC1CCCc2ccccc21)C(C)(C)C

> <Shape>
0.309

> <Color>
0.101

> <Negative vol penalty>
0.000

$$$$

  -OEChem-04052315413D

 88 96  0     1  0  0  0  0  0999 V2000
  -23.9206  -31.2835   21.4511 C   0  0  0  0  0  0  0  0  0  0  0  0
  -23.1891  -30.1264   21.2030 C   0  0  0  0  0  0  0  0  0  0  0  0
  -24.1280  -16.2016   25.5790 C   0  0  0  0  0  0  0  0  0  0  0  0
  -23.5203  -18.2364   24.4269 C   0  0  0  0  0  0  0  0  0  0  0  0
  -25.2958  -31.2999   21.2225 C   0  0  0  0  0  0  0  0  0  0  0  0
  -23.8325  -28.9853   20.7251 C   0  0  0  0  0  0  0  0  0  0  0  0
  -23.5146  -21.8374   21.0753 C   0  0  0  0  0  0  0  0  0  0  0  0
  -23.4859  -16.6609   26.7289 C   0  0  0  0  0  0  0  0  0  0  0  0
  -22.8781  -18.6957   25.5768 C   0  0  0  0  0  0  0  0  0  0  0  0
  -23.4692  -20.7193   20.2437 C   0  0  0  0  0  0  0  0  0  0  0  0
  -21.6967  -17.1420   29.8565 C   0  0  0  0  0  0  0  0  0  0  0  0
  -20.8756  -16.2469   30.5422 C   0  0  0  0  0  0  0  0  0  0  0  0
  -25.8618  -20.8398   19.9609 C   0  0  0  0  0  0  0  0  0  0  0  0
  -19.4964  -16.0039   28.5735 C   0  0  0  0  0  0  0  0  0  0  0  0
  -24.1452  -16.9894   24.4279 C   0  0  0  0  0  0  0  0  0  0  0  0
  -24.2452  -15.7570   22.1966 C   0  0  0  0  0  0  0  0  0  0  0  0
  -25.9579  -30.1555   20.7507 C   0  0  0  0  0  0  0  0  0  0  0  0
  -24.7347  -22.4727   21.3476 C   0  0  0  0  0  0  0  0  0  0  0  0
  -25.2177  -28.9868   20.4887 C   0  0  0  0  0  0  0  0  0  0  0  0
  -25.9204  -21.9643   20.7983 C   0  0  0  0  0  0  0  0  0  0  0  0
  -22.8610  -17.9080   26.7278 C   0  0  0  0  0  0  0  0  0  0  0  0
  -24.6425  -20.2220   19.6841 C   0  0  0  0  0  0  0  0  0  0  0  0
  -21.4176  -17.4681   28.5293 C   0  0  0  0  0  0  0  0  0  0  0  0
  -19.7755  -15.6778   29.9007 C   0  0  0  0  0  0  0  0  0  0  0  0
  -20.3175  -16.8990   27.8878 C   0  0  0  0  0  0  0  0  0  0  0  0
  -24.8088  -16.5157   23.2399 C   0  0  0  0  0  0  0  0  0  0  0  0
  -25.2794  -15.5666   21.3131 C   0  0  0  0  0  0  0  0  0  0  0  0
  -22.9065  -15.2680   22.0401 C   0  0  0  0  0  0  0  0  0  0  0  0
  -25.9200  -25.3742   20.8184 C   0  0  0  0  0  0  0  0  0  0  0  0
  -30.7185  -11.6603   20.5518 C   0  0  0  0  0  0  0  0  0  0  0  0
  -28.3963  -24.2611   22.5935 C   0  0  0  0  0  0  0  0  0  0  0  0
  -30.1606  -21.5751   23.7423 C   0  0  0  0  0  0  0  0  0  0  0  0
  -30.9609  -14.6878   21.2132 C   0  0  0  0  0  0  0  0  0  0  0  0
  -27.4383  -30.2357   20.4737 C   0  0  0  0  0  0  0  0  0  0  0  0
  -24.7703  -23.6618   22.2681 C   0  0  0  0  0  0  0  0  0  0  0  0
  -27.2584  -22.5977   21.0757 C   0  0  0  0  0  0  0  0  0  0  0  0
  -28.1045  -28.8705   20.3227 C   0  0  0  0  0  0  0  0  0  0  0  0
  -31.7773  -12.4500   23.9207 C   0  0  0  0  0  0  0  0  0  0  0  0
  -29.5761  -17.8120   20.4198 C   0  0  0  0  0  0  0  0  0  0  0  0
  -27.2786  -27.9717   19.4079 C   0  0  0  0  0  0  0  0  0  0  0  0
  -31.8497  -11.4521   22.7719 C   0  0  0  0  0  0  0  0  0  0  0  0
  -28.1559  -17.7435   20.9769 C   0  0  0  0  0  0  0  0  0  0  0  0
  -30.5602  -17.1236   21.3569 C   0  0  0  0  0  0  0  0  0  0  0  0
  -30.7509  -13.4605   23.4361 C   0  0  0  0  0  0  0  0  0  0  0  0
  -28.7960  -15.5967   22.1884 C   0  0  0  0  0  0  0  0  0  0  0  0
  -25.8836  -27.7214   19.9935 C   0  0  1  0  0  0  0  0  0  0  0  0
  -26.0020  -24.5385   22.0644 C   0  0  1  0  0  0  0  0  0  0  0  0
  -31.6444  -12.3131   21.5288 C   0  0  2  0  0  0  0  0  0  0  0  0
  -27.7582  -16.2900   21.2819 C   0  0  1  0  0  0  0  0  0  0  0  0
  -32.1567  -20.9823   25.1429 C   0  0  0  0  0  0  0  0  0  0  0  0
  -30.2418  -25.0835   20.3071 C   0  0  0  0  0  0  0  0  0  0  0  0
  -32.0219  -23.6421   21.3181 C   0  0  0  0  0  0  0  0  0  0  0  0
  -31.1230  -25.5891   22.5924 C   0  0  0  0  0  0  0  0  0  0  0  0
  -28.5024  -20.0656   25.6738 C   0  0  0  0  0  0  0  0  0  0  0  0
  -28.3917  -15.2424   16.6102 C   0  0  0  0  0  0  0  0  0  0  0  0
  -27.0757  -15.9451   16.2688 C   0  0  0  0  0  0  0  0  0  0  0  0
  -28.1509  -13.8031   17.0690 C   0  0  0  0  0  0  0  0  0  0  0  0
  -27.3165  -17.3943   15.8413 C   0  0  0  0  0  0  0  0  0  0  0  0
  -29.4633  -13.1109   17.4424 C   0  0  0  0  0  0  0  0  0  0  0  0
  -26.0295  -18.1489   15.4946 C   0  0  0  0  0  0  0  0  0  0  0  0
  -29.2241  -11.6580   17.8637 C   0  0  0  0  0  0  0  0  0  0  0  0
  -25.0269  -18.3127   16.6378 C   0  0  0  0  0  0  0  0  0  0  0  0
  -30.5209  -10.9220   18.1857 C   0  0  0  0  0  0  0  0  0  0  0  0
  -25.5915  -19.0444   17.8487 C   0  0  0  0  0  0  0  0  0  1  0  0
  -29.6838  -23.5320   22.2939 C   0  0  1  0  0  0  0  0  0  0  0  0
  -30.6536  -21.2133   25.1317 C   0  0  2  0  0  0  0  0  0  0  0  0
  -30.7423  -24.4507   21.6209 C   0  0  0  0  0  0  0  0  0  0  0  0
  -26.1008  -16.7886   23.0393 N   0  0  0  0  0  0  0  0  0  0  0  0
  -26.3577  -16.1980   21.8597 N   0  0  0  0  0  0  0  0  0  0  0  0
  -27.2403  -23.7619   21.9768 N   0  0  0  0  0  0  0  0  0  0  0  0
  -30.1535  -15.7476   21.6463 N   0  0  0  0  0  0  0  0  0  0  0  0
  -30.9742  -13.5272   21.9920 N   0  0  0  0  0  0  0  0  0  0  0  0
  -25.3626  -14.9223   20.1297 N   0  0  0  0  0  0  0  0  0  0  0  0
  -21.9692  -15.5544   23.0420 N   0  0  0  0  0  0  0  0  0  0  0  0
  -25.9490  -26.7360   21.0514 N   0  0  0  0  0  0  0  0  0  0  0  0
  -31.2406  -11.5227   19.2749 N   0  0  0  0  0  0  0  0  0  0  0  0
  -30.1207  -22.9405   23.5540 N   0  0  0  0  0  0  0  0  0  0  0  0
  -29.9837  -19.9717   25.6121 N   0  3  0  0  0  0  0  0  0  0  0  0
  -22.5562  -14.5830   21.0494 O   0  0  0  0  0  0  0  0  0  0  0  0
  -25.8381  -24.8243   19.7263 O   0  0  0  0  0  0  0  0  0  0  0  0
  -29.6063  -11.3013   20.9205 O   0  0  0  0  0  0  0  0  0  0  0  0
  -28.4144  -25.2332   23.3526 O   0  0  0  0  0  0  0  0  0  0  0  0
  -29.8462  -20.7309   22.9063 O   0  0  0  0  0  0  0  0  0  0  0  0
  -31.6537  -14.7812   20.1915 O   0  0  0  0  0  0  0  0  0  0  0  0
  -22.2341  -18.3564   27.8497 O   0  0  0  0  0  0  0  0  0  0  0  0
  -24.6005  -19.1237   18.8660 O   0  0  0  0  0  0  0  0  0  1  0  0
  -18.9880  -14.8170   30.5589 F   0  0  0  0  0  0  0  0  0  0  0  0
  -20.0450  -17.2076   26.6125 F   0  0  0  0  0  0  0  0  0  0  0  0
  1  2  1  0  0  0  0
  1  5  2  0  0  0  0
  2  6  2  0  0  0  0
  3  8  2  0  0  0  0
  3 15  1  0  0  0  0
  4  9  1  0  0  0  0
  4 15  2  0  0  0  0
  5 17  1  0  0  0  0
  6 19  1  0  0  0  0
  7 10  2  0  0  0  0
  7 18  1  0  0  0  0
  8 21  1  0  0  0  0
  9 21  2  0  0  0  0
 10 22  1  0  0  0  0
 11 12  2  0  0  0  0
 11 23  1  0  0  0  0
 12 24  1  0  0  0  0
 13 20  1  0  0  0  0
 13 22  2  0  0  0  0
 14 24  2  0  0  0  0
 14 25  1  0  0  0  0
 15 26  1  0  0  0  0
 16 26  1  0  0  0  0
 16 27  2  0  0  0  0
 16 28  1  0  0  0  0
 17 19  2  0  0  0  0
 17 34  1  0  0  0  0
 18 20  2  0  0  0  0
 18 35  1  0  0  0  0
 19 46  1  0  0  0  0
 20 36  1  0  0  0  0
 21 85  1  0  0  0  0
 22 86  1  0  0  0  0
 23 25  2  0  0  0  0
 23 85  1  0  0  0  0
 24 87  1  0  0  0  0
 25 88  1  0  0  0  0
 26 68  2  0  0  0  0
 27 69  1  0  0  0  0
 27 73  1  0  0  0  0
 28 74  1  0  0  0  0
 28 79  2  0  0  0  0
 29 47  1  0  0  0  0
 29 75  1  0  0  0  0
 29 80  2  0  0  0  0
 30 48  1  0  0  0  0
 30 76  1  0  0  0  0
 30 81  2  0  0  0  0
 31 65  1  0  0  0  0
 31 70  1  0  0  0  0
 31 82  2  0  0  0  0
 32 66  1  0  0  0  0
 32 77  1  0  0  0  0
 32 83  2  0  0  0  0
 33 71  1  0  0  0  0
 33 72  1  0  0  0  0
 33 84  2  0  0  0  0
 34 37  1  0  0  0  0
 35 47  1  0  0  0  0
 36 70  1  0  0  0  0
 37 40  1  0  0  0  0
 38 41  1  0  0  0  0
 38 44  1  0  0  0  0
 39 42  1  0  0  0  0
 39 43  1  0  0  0  0
 40 46  1  0  0  0  0
 41 48  1  0  0  0  0
 42 49  1  0  0  0  0
 43 71  1  0  0  0  0
 44 72  1  0  0  0  0
 45 49  1  0  0  0  0
 45 71  1  0  0  0  0
 46 75  1  0  0  0  0
 47 70  1  0  0  0  0
 48 72  1  0  0  0  0
 49 69  1  0  0  0  0
 50 66  1  0  0  0  0
 51 67  1  0  0  0  0
 52 67  1  0  0  0  0
 53 67  1  0  0  0  0
 54 78  1  0  0  0  0
 55 56  1  0  0  0  0
 55 57  1  0  0  0  0
 56 58  1  0  0  0  0
 57 59  1  0  0  0  0
 58 60  1  0  0  0  0
 59 61  1  0  0  0  0
 60 62  1  0  0  0  0
 61 63  1  0  0  0  0
 62 64  1  0  0  0  0
 63 76  1  0  0  0  0
 64 86  1  0  0  0  0
 65 67  1  0  0  0  0
 65 77  1  0  0  0  0
 66 78  1  0  0  0  0
 68 69  1  0  0  0  0
M  CHG  1  78   1
M  ISO  4  33 100  64 101  72 100  86 101
M  END
> <Batch ID>
0010

> <Smiles>
CNC(C)C(=O)NC(C(=O)N1Cc2cc([101O:1][101CH2:1]CCCCCCCCCNC(=O)C3CCC[100N:0]3[100C:0](=O)N3CCCC(n4nc(-c5ccc(Oc6ccc(F)cc6F)cc5)c(C(N)=O)c4N)C3)ccc2CC1C(=O)NC1CCCc2ccccc21)C(C)(C)C

> <Shape>
0.150

> <Color>
0.097

> <Negative vol penalty>
0.000

$$$$

  -OEChem-04052315413D

 85 93  0     1  0  0  0  0  0999 V2000
  -38.5142  -22.8814   11.4888 C   0  0  0  0  0  0  0  0  0  0  0  0
  -38.3584  -21.9410   12.5021 C   0  0  0  0  0  0  0  0  0  0  0  0
  -23.0768   -9.8660   19.9424 C   0  0  0  0  0  0  0  0  0  0  0  0
  -23.8350   -9.8766   22.2363 C   0  0  0  0  0  0  0  0  0  0  0  0
  -38.5280  -24.2410   11.7973 C   0  0  0  0  0  0  0  0  0  0  0  0
  -38.2174  -22.3597   13.8247 C   0  0  0  0  0  0  0  0  0  0  0  0
  -34.8078  -19.7251   18.1767 C   0  0  0  0  0  0  0  0  0  0  0  0
  -22.3330   -8.7131   20.1935 C   0  0  0  0  0  0  0  0  0  0  0  0
  -23.0912   -8.7236   22.4875 C   0  0  0  0  0  0  0  0  0  0  0  0
  -35.1237  -18.8472   19.2126 C   0  0  0  0  0  0  0  0  0  0  0  0
  -19.8628   -7.9258   23.0888 C   0  0  0  0  0  0  0  0  0  0  0  0
  -19.1050   -7.8874   24.2591 C   0  0  0  0  0  0  0  0  0  0  0  0
  -35.2970  -20.7124   20.7325 C   0  0  0  0  0  0  0  0  0  0  0  0
  -32.0616  -16.6023   22.5371 C   0  0  0  0  0  0  0  0  0  0  0  0
  -30.4889  -18.3463   24.0430 C   0  0  0  0  0  0  0  0  0  0  0  0
  -20.3463   -5.9514   24.9993 C   0  0  0  0  0  0  0  0  0  0  0  0
  -23.8278  -10.4478   20.9638 C   0  0  0  0  0  0  0  0  0  0  0  0
  -24.1691  -12.9728   20.8404 C   0  0  0  0  0  0  0  0  0  0  0  0
  -38.3774  -24.6770   13.1232 C   0  0  0  0  0  0  0  0  0  0  0  0
  -34.7448  -21.1066   18.4089 C   0  0  0  0  0  0  0  0  0  0  0  0
  -38.2305  -23.7264   14.1514 C   0  0  0  0  0  0  0  0  0  0  0  0
  -34.9777  -21.6055   19.6984 C   0  0  0  0  0  0  0  0  0  0  0  0
  -30.6746  -16.5951   22.3889 C   0  0  0  0  0  0  0  0  0  0  0  0
  -32.6622  -17.4814   23.4383 C   0  0  0  0  0  0  0  0  0  0  0  0
  -22.3402   -8.1418   21.4660 C   0  0  0  0  0  0  0  0  0  0  0  0
  -35.3712  -19.3410   20.4901 C   0  0  0  0  0  0  0  0  0  0  0  0
  -20.8623   -6.9770   22.8736 C   0  0  0  0  0  0  0  0  0  0  0  0
  -29.8883  -17.4672   23.1419 C   0  0  0  0  0  0  0  0  0  0  0  0
  -19.3468   -6.9002   25.2145 C   0  0  0  0  0  0  0  0  0  0  0  0
  -31.8759  -18.3534   24.1912 C   0  0  0  0  0  0  0  0  0  0  0  0
  -21.1041   -5.9898   23.8289 C   0  0  0  0  0  0  0  0  0  0  0  0
  -24.5968  -11.6385   20.7049 C   0  0  0  0  0  0  0  0  0  0  0  0
  -25.2613  -13.7221   20.4768 C   0  0  0  0  0  0  0  0  0  0  0  0
  -22.8982  -13.4889   21.2576 C   0  0  0  0  0  0  0  0  0  0  0  0
  -36.3236  -23.6394   17.3151 C   0  0  0  0  0  0  0  0  0  0  0  0
  -34.1162  -25.2735   19.0410 C   0  0  0  0  0  0  0  0  0  0  0  0
  -31.8922  -25.2864   21.6296 C   0  0  0  0  0  0  0  0  0  0  0  0
  -30.7271  -14.7693   20.6540 C   0  0  0  0  0  0  0  0  0  0  0  0
  -38.4461  -26.1553   13.4135 C   0  0  0  0  0  0  0  0  0  0  0  0
  -34.3765  -22.0381   17.2867 C   0  0  0  0  0  0  0  0  0  0  0  0
  -34.9026  -23.0784   20.0044 C   0  0  0  0  0  0  0  0  0  0  0  0
  -37.9150  -26.5302   14.7947 C   0  0  0  0  0  0  0  0  0  0  0  0
  -29.6151  -12.3517   18.2885 C   0  0  0  0  0  0  0  0  0  0  0  0
  -38.4788  -25.5911   15.8563 C   0  0  0  0  0  0  0  0  0  0  0  0
  -28.1752  -12.0604   18.7174 C   0  0  0  0  0  0  0  0  0  0  0  0
  -30.5293  -12.5825   19.4905 C   0  0  0  0  0  0  0  0  0  0  0  0
  -28.6211  -13.3085   20.8692 C   0  0  0  0  0  0  0  0  0  0  0  0
  -38.0499  -24.1422   15.5952 C   0  0  1  0  0  0  0  0  0  0  0  0
  -34.8449  -23.4709   17.5215 C   0  0  1  0  0  0  0  0  0  0  0  0
  -27.6492  -13.1333   19.6910 C   0  0  2  0  0  0  0  0  0  0  0  0
  -26.4623  -16.5375   23.7675 C   0  0  0  0  0  0  0  0  0  0  0  0
  -30.2625  -26.7785   22.8191 C   0  0  0  0  0  0  0  0  0  0  0  0
  -36.2459  -16.5033   23.5896 C   0  0  0  0  0  0  0  0  0  0  0  0
  -36.4338  -26.7057   20.4149 C   0  0  0  0  0  0  0  0  0  0  0  0
  -34.8330  -27.4423   22.1934 C   0  0  0  0  0  0  0  0  0  0  0  0
  -34.4964  -28.1763   19.8332 C   0  0  0  0  0  0  0  0  0  0  0  0
  -29.6139  -23.5147   20.9743 C   0  0  0  0  0  0  0  0  0  0  0  0
  -27.7682  -17.1822   24.1809 C   0  0  0  0  0  0  0  0  0  0  0  0
  -35.1295  -17.1716   21.4343 C   0  0  0  0  0  0  0  0  0  1  0  0
  -34.0267  -25.7732   20.4628 C   0  0  1  0  0  0  0  0  0  0  0  0
  -30.4490  -25.7490   21.7154 C   0  0  2  0  0  0  0  0  0  0  0  0
  -34.9241  -16.6138   22.8410 C   0  0  2  0  0  0  0  0  0  0  0  0
  -34.9509  -26.9967   20.7202 C   0  0  0  0  0  0  0  0  0  0  0  0
  -25.8620  -11.5423   20.2877 N   0  0  0  0  0  0  0  0  0  0  0  0
  -26.2387  -12.8258   20.1578 N   0  0  0  0  0  0  0  0  0  0  0  0
  -34.5451  -23.9493   18.8726 N   0  0  0  0  0  0  0  0  0  0  0  0
  -29.9694  -13.6145   20.3659 N   0  0  0  0  0  0  0  0  0  0  0  0
  -25.4715  -15.0535   20.4020 N   0  0  0  0  0  0  0  0  0  0  0  0
  -21.8863  -12.5800   21.5955 N   0  0  0  0  0  0  0  0  0  0  0  0
  -30.0789  -15.6954   21.4706 N   0  0  0  0  0  0  0  0  0  0  0  0
  -34.0372  -17.4864   23.5842 N   0  0  0  0  0  0  0  0  0  0  0  0
  -36.6797  -23.9375   16.0136 N   0  0  0  0  0  0  0  0  0  0  0  0
  -32.6130  -26.0280   20.7177 N   0  0  0  0  0  0  0  0  0  0  0  0
  -29.5502  -24.5933   21.9938 N   0  3  0  0  0  0  0  0  0  0  0  0
  -22.6616  -14.7196   21.3130 O   0  0  0  0  0  0  0  0  0  0  0  0
  -37.0851  -23.5099   18.2665 O   0  0  0  0  0  0  0  0  0  0  0  0
  -33.8097  -26.0280   18.1145 O   0  0  0  0  0  0  0  0  0  0  0  0
  -32.3368  -24.3621   22.3068 O   0  0  0  0  0  0  0  0  0  0  0  0
  -31.8565  -14.9376   20.1870 O   0  0  0  0  0  0  0  0  0  0  0  0
  -21.6143   -7.0169   21.7115 O   0  0  0  0  0  0  0  0  0  0  0  0
  -35.6803  -18.4862   21.5029 O   0  0  0  0  0  0  0  0  0  1  0  0
  -28.5314  -17.4759   23.0129 O   0  0  0  0  0  0  0  0  0  0  0  0
  -18.6200   -6.8644   26.3390 F   0  0  0  0  0  0  0  0  0  0  0  0
  -32.4428  -19.2026   25.0597 F   0  0  0  0  0  0  0  0  0  0  0  0
  -22.0638   -5.0762   23.6283 F   0  0  0  0  0  0  0  0  0  0  0  0
  1  2  1  0  0  0  0
  1  5  2  0  0  0  0
  2  6  2  0  0  0  0
  3  8  2  0  0  0  0
  3 17  1  0  0  0  0
  4  9  1  0  0  0  0
  4 17  2  0  0  0  0
  5 19  1  0  0  0  0
  6 21  1  0  0  0  0
  7 10  2  0  0  0  0
  7 20  1  0  0  0  0
  8 25  1  0  0  0  0
  9 25  2  0  0  0  0
 10 26  1  0  0  0  0
 11 12  2  0  0  0  0
 11 27  1  0  0  0  0
 12 29  1  0  0  0  0
 13 22  1  0  0  0  0
 13 26  2  0  0  0  0
 14 23  1  0  0  0  0
 14 24  2  0  0  0  0
 15 28  1  0  0  0  0
 15 30  2  0  0  0  0
 16 29  2  0  0  0  0
 16 31  1  0  0  0  0
 17 32  1  0  0  0  0
 18 32  1  0  0  0  0
 18 33  2  0  0  0  0
 18 34  1  0  0  0  0
 19 21  2  0  0  0  0
 19 39  1  0  0  0  0
 20 22  2  0  0  0  0
 20 40  1  0  0  0  0
 21 48  1  0  0  0  0
 22 41  1  0  0  0  0
 23 28  2  0  0  0  0
 23 70  1  0  0  0  0
 24 30  1  0  0  0  0
 24 71  1  0  0  0  0
 25 80  1  0  0  0  0
 26 81  1  0  0  0  0
 27 31  2  0  0  0  0
 27 80  1  0  0  0  0
 28 82  1  0  0  0  0
 29 83  1  0  0  0  0
 30 84  1  0  0  0  0
 31 85  1  0  0  0  0
 32 64  2  0  0  0  0
 33 65  1  0  0  0  0
 33 68  1  0  0  0  0
 34 69  1  0  0  0  0
 34 75  2  0  0  0  0
 35 49  1  0  0  0  0
 35 72  1  0  0  0  0
 35 76  2  0  0  0  0
 36 60  1  0  0  0  0
 36 66  1  0  0  0  0
 36 77  2  0  0  0  0
 37 61  1  0  0  0  0
 37 73  1  0  0  0  0
 37 78  2  0  0  0  0
 38 67  1  0  0  0  0
 38 70  1  0  0  0  0
 38 79  2  0  0  0  0
 39 42  1  0  0  0  0
 40 49  1  0  0  0  0
 41 66  1  0  0  0  0
 42 44  1  0  0  0  0
 43 45  1  0  0  0  0
 43 46  1  0  0  0  0
 44 48  1  0  0  0  0
 45 50  1  0  0  0  0
 46 67  1  0  0  0  0
 47 50  1  0  0  0  0
 47 67  1  0  0  0  0
 48 72  1  0  0  0  0
 49 66  1  0  0  0  0
 50 65  1  0  0  0  0
 51 58  1  0  0  0  0
 52 61  1  0  0  0  0
 53 62  1  0  0  0  0
 54 63  1  0  0  0  0
 55 63  1  0  0  0  0
 56 63  1  0  0  0  0
 57 74  1  0  0  0  0
 58 82  1  0  0  0  0
 59 62  1  0  0  0  0
 59 81  1  0  0  0  0
 60 63  1  0  0  0  0
 60 73  1  0  0  0  0
 61 74  1  0  0  0  0
 62 71  1  0  0  0  0
 64 65  1  0  0  0  0
M  CHG  1  74   1
M  ISO  4  38 100  59 101  70 100  81 101
M  END
> <Batch ID>
0010

> <Smiles>
CCOc1cc(F)c(NC(C)[101CH2:1][101O:1]c2ccc3c(c2)CN(C(=O)C(NC(=O)C(C)NC)C(C)(C)C)C(C(=O)NC2CCCc4ccccc42)C3)cc1[100NH:0][100C:0](=O)N1CCCC(n2nc(-c3ccc(Oc4ccc(F)cc4F)cc3)c(C(N)=O)c2N)C1

> <Shape>
0.181

> <Color>
0.192

> <Negative vol penalty>
0.000

$$$$

  -OEChem-04052315413D

 82 90  0     1  0  0  0  0  0999 V2000
  -29.4609  -33.9616   26.0651 C   0  0  0  0  0  0  0  0  0  0  0  0
  -29.6130  -32.8665   25.2207 C   0  0  0  0  0  0  0  0  0  0  0  0
  -24.6254   -9.0141   21.3663 C   0  0  0  0  0  0  0  0  0  0  0  0
  -23.3749  -10.8876   22.2399 C   0  0  0  0  0  0  0  0  0  0  0  0
  -28.2344  -34.1977   26.6847 C   0  0  0  0  0  0  0  0  0  0  0  0
  -28.5389  -32.0061   24.9963 C   0  0  0  0  0  0  0  0  0  0  0  0
  -27.2088  -29.0561   19.7969 C   0  0  0  0  0  0  0  0  0  0  0  0
  -28.2583  -19.0882   20.2571 C   0  0  0  0  0  0  0  0  0  0  0  0
  -27.8311  -20.4045   20.0827 C   0  0  0  0  0  0  0  0  0  0  0  0
  -24.0837   -8.1918   22.3542 C   0  0  0  0  0  0  0  0  0  0  0  0
  -22.8332  -10.0653   23.2279 C   0  0  0  0  0  0  0  0  0  0  0  0
  -27.4513  -27.7511   19.3704 C   0  0  0  0  0  0  0  0  0  0  0  0
  -21.1749   -6.5638   22.9211 C   0  0  0  0  0  0  0  0  0  0  0  0
  -20.7074   -5.3078   22.5345 C   0  0  0  0  0  0  0  0  0  0  0  0
  -25.2378  -27.1124   20.0857 C   0  0  0  0  0  0  0  0  0  0  0  0
  -26.2425  -18.5979   21.4954 C   0  0  0  0  0  0  0  0  0  0  0  0
  -22.2821   -4.2592   24.0373 C   0  0  0  0  0  0  0  0  0  0  0  0
  -24.2711  -10.3620   21.3092 C   0  0  0  0  0  0  0  0  0  0  0  0
  -24.3057  -11.4600   19.0068 C   0  0  0  0  0  0  0  0  0  0  0  0
  -27.1420  -33.3453   26.4602 C   0  0  0  0  0  0  0  0  0  0  0  0
  -25.9808  -29.3971   20.3819 C   0  0  0  0  0  0  0  0  0  0  0  0
  -27.2970  -32.2302   25.6146 C   0  0  0  0  0  0  0  0  0  0  0  0
  -24.9812  -28.4230   20.5164 C   0  0  0  0  0  0  0  0  0  0  0  0
  -27.4640  -18.1849   20.9633 C   0  0  0  0  0  0  0  0  0  0  0  0
  -26.6097  -20.8176   20.6148 C   0  0  0  0  0  0  0  0  0  0  0  0
  -23.1876   -8.7174   23.2850 C   0  0  0  0  0  0  0  0  0  0  0  0
  -26.4669  -26.7783   19.5174 C   0  0  0  0  0  0  0  0  0  0  0  0
  -22.1961   -6.6675   23.8657 C   0  0  0  0  0  0  0  0  0  0  0  0
  -21.2610   -4.1555   23.0926 C   0  0  0  0  0  0  0  0  0  0  0  0
  -25.8153  -19.9143   21.3211 C   0  0  0  0  0  0  0  0  0  0  0  0
  -22.7496   -5.5153   24.4238 C   0  0  0  0  0  0  0  0  0  0  0  0
  -24.8308  -11.2121   20.2892 C   0  0  0  0  0  0  0  0  0  0  0  0
  -25.2014  -12.3274   18.4309 C   0  0  0  0  0  0  0  0  0  0  0  0
  -23.1148  -10.9516   18.3912 C   0  0  0  0  0  0  0  0  0  0  0  0
  -25.0781  -30.4896   23.2271 C   0  0  0  0  0  0  0  0  0  0  0  0
  -22.1722  -30.6800   21.7983 C   0  0  0  0  0  0  0  0  0  0  0  0
  -26.8424  -23.1750   19.7648 C   0  0  0  0  0  0  0  0  0  0  0  0
  -20.0775  -29.5876   19.3354 C   0  0  0  0  0  0  0  0  0  0  0  0
  -29.0827  -16.2756   20.6787 C   0  0  0  0  0  0  0  0  0  0  0  0
  -25.8494  -33.6143   27.1893 C   0  0  0  0  0  0  0  0  0  0  0  0
  -25.7250  -30.8155   20.8123 C   0  0  0  0  0  0  0  0  0  0  0  0
  -23.6386  -28.7425   21.1196 C   0  0  0  0  0  0  0  0  0  0  0  0
  -24.6534  -32.8673   26.6047 C   0  0  0  0  0  0  0  0  0  0  0  0
  -29.8337  -13.5387   18.5288 C   0  0  0  0  0  0  0  0  0  0  0  0
  -25.0100  -31.4067   26.3474 C   0  0  0  0  0  0  0  0  0  0  0  0
  -28.5857  -12.6570   18.6148 C   0  0  0  0  0  0  0  0  0  0  0  0
  -30.1628  -14.1883   19.8717 C   0  0  0  0  0  0  0  0  0  0  0  0
  -27.8072  -14.0443   20.5786 C   0  0  0  0  0  0  0  0  0  0  0  0
  -26.1482  -31.2882   25.3267 C   0  0  1  0  0  0  0  0  0  0  0  0
  -24.6261  -30.9318   21.8641 C   0  0  1  0  0  0  0  0  0  0  0  0
  -27.3984  -13.4199   19.2345 C   0  0  2  0  0  0  0  0  0  0  0  0
  -17.7527  -29.9008   18.4441 C   0  0  0  0  0  0  0  0  0  0  0  0
  -21.0648  -29.0297   24.1135 C   0  0  0  0  0  0  0  0  0  0  0  0
  -19.0308  -28.5762   22.7259 C   0  0  0  0  0  0  0  0  0  0  0  0
  -19.5956  -30.9161   23.3806 C   0  0  0  0  0  0  0  0  0  0  0  0
  -21.0837  -30.5122   16.7103 C   0  0  0  0  0  0  0  0  0  0  0  0
  -26.0333  -24.4580   19.8076 C   0  0  0  0  0  0  0  0  0  1  0  0
  -20.9985  -29.7450   21.6336 C   0  0  1  0  0  0  0  0  0  0  0  0
  -19.2052  -30.3408   18.3474 C   0  0  2  0  0  0  0  0  0  0  0  0
  -20.1983  -29.5600   22.9538 C   0  0  0  0  0  0  0  0  0  0  0  0
  -25.9716  -11.8689   20.5151 N   0  0  0  0  0  0  0  0  0  0  0  0
  -26.1709  -12.5380   19.3668 N   0  0  0  0  0  0  0  0  0  0  0  0
  -23.4389  -30.1419   21.5309 N   0  0  0  0  0  0  0  0  0  0  0  0
  -28.9928  -14.8963   20.3958 N   0  0  0  0  0  0  0  0  0  0  0  0
  -25.2465  -12.9230   17.2202 N   0  0  0  0  0  0  0  0  0  0  0  0
  -22.3079  -10.0704   19.1238 N   0  0  0  0  0  0  0  0  0  0  0  0
  -26.1792  -22.1538   20.4367 N   0  0  0  0  0  0  0  0  0  0  0  0
  -27.8980  -16.8478   21.1411 N   0  0  0  0  0  0  0  0  0  0  0  0
  -25.6472  -31.4953   23.9848 N   0  0  0  0  0  0  0  0  0  0  0  0
  -20.2094  -30.2717   20.5253 N   0  0  0  0  0  0  0  0  0  0  0  0
  -19.6766  -30.1028   16.9539 N   0  3  0  0  0  0  0  0  0  0  0  0
  -22.7849  -11.2565   17.2200 O   0  0  0  0  0  0  0  0  0  0  0  0
  -24.9208  -29.3228   23.5668 O   0  0  0  0  0  0  0  0  0  0  0  0
  -21.9717  -31.8470   22.1444 O   0  0  0  0  0  0  0  0  0  0  0  0
  -27.9277  -23.1185   19.1961 O   0  0  0  0  0  0  0  0  0  0  0  0
  -20.5876  -28.4993   19.0788 O   0  0  0  0  0  0  0  0  0  0  0  0
  -30.1257  -16.9089   20.4965 O   0  0  0  0  0  0  0  0  0  0  0  0
  -22.6586   -7.9153   24.2490 O   0  0  0  0  0  0  0  0  0  0  0  0
  -26.7013  -25.5036   19.1026 O   0  0  0  0  0  0  0  0  0  1  0  0
  -20.8108   -2.9494   22.7225 F   0  0  0  0  0  0  0  0  0  0  0  0
  -24.6401  -20.3006   21.8382 F   0  0  0  0  0  0  0  0  0  0  0  0
  -23.7300   -5.6086   25.3326 F   0  0  0  0  0  0  0  0  0  0  0  0
  1  2  1  0  0  0  0
  1  5  2  0  0  0  0
  2  6  2  0  0  0  0
  3 10  2  0  0  0  0
  3 18  1  0  0  0  0
  4 11  1  0  0  0  0
  4 18  2  0  0  0  0
  5 20  1  0  0  0  0
  6 22  1  0  0  0  0
  7 12  2  0  0  0  0
  7 21  1  0  0  0  0
  8  9  2  0  0  0  0
  8 24  1  0  0  0  0
  9 25  1  0  0  0  0
 10 26  1  0  0  0  0
 11 26  2  0  0  0  0
 12 27  1  0  0  0  0
 13 14  2  0  0  0  0
 13 28  1  0  0  0  0
 14 29  1  0  0  0  0
 15 23  1  0  0  0  0
 15 27  2  0  0  0  0
 16 24  2  0  0  0  0
 16 30  1  0  0  0  0
 17 29  2  0  0  0  0
 17 31  1  0  0  0  0
 18 32  1  0  0  0  0
 19 32  1  0  0  0  0
 19 33  2  0  0  0  0
 19 34  1  0  0  0  0
 20 22  2  0  0  0  0
 20 40  1  0  0  0  0
 21 23  2  0  0  0  0
 21 41  1  0  0  0  0
 22 49  1  0  0  0  0
 23 42  1  0  0  0  0
 24 68  1  0  0  0  0
 25 30  2  0  0  0  0
 25 67  1  0  0  0  0
 26 78  1  0  0  0  0
 27 79  1  0  0  0  0
 28 31  2  0  0  0  0
 28 78  1  0  0  0  0
 29 80  1  0  0  0  0
 30 81  1  0  0  0  0
 31 82  1  0  0  0  0
 32 61  2  0  0  0  0
 33 62  1  0  0  0  0
 33 65  1  0  0  0  0
 34 66  1  0  0  0  0
 34 72  2  0  0  0  0
 35 50  1  0  0  0  0
 35 69  1  0  0  0  0
 35 73  2  0  0  0  0
 36 58  1  0  0  0  0
 36 63  1  0  0  0  0
 36 74  2  0  0  0  0
 37 57  1  0  0  0  0
 37 67  1  0  0  0  0
 37 75  2  0  0  0  0
 38 59  1  0  0  0  0
 38 70  1  0  0  0  0
 38 76  2  0  0  0  0
 39 64  1  0  0  0  0
 39 68  1  0  0  0  0
 39 77  2  0  0  0  0
 40 43  1  0  0  0  0
 41 50  1  0  0  0  0
 42 63  1  0  0  0  0
 43 45  1  0  0  0  0
 44 46  1  0  0  0  0
 44 47  1  0  0  0  0
 45 49  1  0  0  0  0
 46 51  1  0  0  0  0
 47 64  1  0  0  0  0
 48 51  1  0  0  0  0
 48 64  1  0  0  0  0
 49 69  1  0  0  0  0
 50 63  1  0  0  0  0
 51 62  1  0  0  0  0
 52 59  1  0  0  0  0
 53 60  1  0  0  0  0
 54 60  1  0  0  0  0
 55 60  1  0  0  0  0
 56 71  1  0  0  0  0
 57 79  1  0  0  0  0
 58 60  1  0  0  0  0
 58 70  1  0  0  0  0
 59 71  1  0  0  0  0
 61 62  1  0  0  0  0
M  CHG  1  71   1
M  ISO  4  39 100  57 101  68 100  79 101
M  END
> <Batch ID>
0010

> <Smiles>
CNC(C)C(=O)NC(C(=O)N1Cc2cc([101O:1][101CH2:1]C(=O)Nc3ccc([100NH:0][100C:0](=O)N4CCCC(n5nc(-c6ccc(Oc7ccc(F)cc7F)cc6)c(C(N)=O)c5N)C4)cc3F)ccc2CC1C(=O)NC1CCCc2ccccc21)C(C)(C)C

> <Shape>
0.309

> <Color>
0.101

> <Negative vol penalty>
0.000

$$$$

  -OEChem-04052315413D

 82 90  0     1  0  0  0  0  0999 V2000
  -20.2130  -29.2246   24.2821 C   0  0  0  0  0  0  0  0  0  0  0  0
  -21.3273  -28.4571   23.9585 C   0  0  0  0  0  0  0  0  0  0  0  0
  -23.0780   -9.8644   19.9418 C   0  0  0  0  0  0  0  0  0  0  0  0
  -23.8330   -9.8778   22.2368 C   0  0  0  0  0  0  0  0  0  0  0  0
  -19.9014  -29.4701   25.6187 C   0  0  0  0  0  0  0  0  0  0  0  0
  -22.1313  -27.9356   24.9714 C   0  0  0  0  0  0  0  0  0  0  0  0
  -25.0820  -22.5692   24.9343 C   0  0  0  0  0  0  0  0  0  0  0  0
  -22.3341   -8.7116   20.1933 C   0  0  0  0  0  0  0  0  0  0  0  0
  -23.0890   -8.7250   22.4883 C   0  0  0  0  0  0  0  0  0  0  0  0
  -26.4045  -22.2278   24.6545 C   0  0  0  0  0  0  0  0  0  0  0  0
  -19.8599   -7.9276   23.0861 C   0  0  0  0  0  0  0  0  0  0  0  0
  -19.1004   -7.8906   24.2555 C   0  0  0  0  0  0  0  0  0  0  0  0
  -26.9113  -22.2835   27.0123 C   0  0  0  0  0  0  0  0  0  0  0  0
  -32.0601  -16.5874   22.5244 C   0  0  0  0  0  0  0  0  0  0  0  0
  -31.9134  -18.3425   24.1782 C   0  0  0  0  0  0  0  0  0  0  0  0
  -20.3410   -5.9556   24.9997 C   0  0  0  0  0  0  0  0  0  0  0  0
  -23.8276  -10.4475   20.9636 C   0  0  0  0  0  0  0  0  0  0  0  0
  -24.1687  -12.9724   20.8375 C   0  0  0  0  0  0  0  0  0  0  0  0
  -20.6965  -28.9433   26.6487 C   0  0  0  0  0  0  0  0  0  0  0  0
  -24.6661  -22.7813   26.2566 C   0  0  0  0  0  0  0  0  0  0  0  0
  -21.8308  -28.1754   26.3230 C   0  0  0  0  0  0  0  0  0  0  0  0
  -25.5823  -22.6249   27.3064 C   0  0  0  0  0  0  0  0  0  0  0  0
  -32.6810  -17.4600   23.4181 C   0  0  0  0  0  0  0  0  0  0  0  0
  -30.6716  -16.5974   22.3907 C   0  0  0  0  0  0  0  0  0  0  0  0
  -30.5250  -18.3524   24.0446 C   0  0  0  0  0  0  0  0  0  0  0  0
  -22.3395   -8.1420   21.4665 C   0  0  0  0  0  0  0  0  0  0  0  0
  -27.3200  -22.0878   25.6933 C   0  0  0  0  0  0  0  0  0  0  0  0
  -20.8598   -6.9786   22.8735 C   0  0  0  0  0  0  0  0  0  0  0  0
  -19.3410   -6.9046   25.2123 C   0  0  0  0  0  0  0  0  0  0  0  0
  -21.1004   -5.9926   23.8303 C   0  0  0  0  0  0  0  0  0  0  0  0
  -29.9041  -17.4799   23.1508 C   0  0  0  0  0  0  0  0  0  0  0  0
  -24.5968  -11.6379   20.7043 C   0  0  0  0  0  0  0  0  0  0  0  0
  -25.2614  -13.7213   20.4745 C   0  0  0  0  0  0  0  0  0  0  0  0
  -22.8972  -13.4889   21.2523 C   0  0  0  0  0  0  0  0  0  0  0  0
  -23.4838  -25.2536   27.8670 C   0  0  0  0  0  0  0  0  0  0  0  0
  -23.1571  -23.0577   30.2320 C   0  0  0  0  0  0  0  0  0  0  0  0
  -24.1708  -20.0997   31.5992 C   0  0  0  0  0  0  0  0  0  0  0  0
  -30.7268  -14.7694   20.6581 C   0  0  0  0  0  0  0  0  0  0  0  0
  -20.3468  -29.2751   28.0778 C   0  0  0  0  0  0  0  0  0  0  0  0
  -23.2297  -23.1228   26.5437 C   0  0  0  0  0  0  0  0  0  0  0  0
  -25.1814  -22.8218   28.7448 C   0  0  0  0  0  0  0  0  0  0  0  0
  -21.0363  -28.3737   29.0986 C   0  0  0  0  0  0  0  0  0  0  0  0
  -29.6183  -12.3488   18.2939 C   0  0  0  0  0  0  0  0  0  0  0  0
  -22.5179  -28.2268   28.7666 C   0  0  0  0  0  0  0  0  0  0  0  0
  -28.1779  -12.0579   18.7212 C   0  0  0  0  0  0  0  0  0  0  0  0
  -30.5308  -12.5812   19.4969 C   0  0  0  0  0  0  0  0  0  0  0  0
  -28.6206  -13.3087   20.8722 C   0  0  0  0  0  0  0  0  0  0  0  0
  -22.7133  -27.5717   27.3939 C   0  0  1  0  0  0  0  0  0  0  0  0
  -23.0381  -23.8188   27.8877 C   0  0  1  0  0  0  0  0  0  0  0  0
  -27.6504  -13.1319   19.6927 C   0  0  2  0  0  0  0  0  0  0  0  0
  -34.1656  -17.4500   23.5604 C   0  0  0  0  0  0  0  0  0  0  0  0
  -23.7451  -18.5844   33.5538 C   0  0  0  0  0  0  0  0  0  0  0  0
  -24.7101  -24.9606   32.0424 C   0  0  0  0  0  0  0  0  0  0  0  0
  -25.0731  -23.0514   33.6208 C   0  0  0  0  0  0  0  0  0  0  0  0
  -22.7578  -23.8423   33.1343 C   0  0  0  0  0  0  0  0  0  0  0  0
  -23.3416  -17.8700   29.8385 C   0  0  0  0  0  0  0  0  0  0  0  0
  -30.3878  -20.1658   25.7529 C   0  0  0  0  0  0  0  0  0  0  0  0
  -29.3117  -21.0083   26.4171 C   0  0  0  0  0  0  0  0  0  1  0  0
  -24.0294  -22.5650   31.3613 C   0  0  1  0  0  0  0  0  0  0  0  0
  -23.3861  -18.9053   32.1112 C   0  0  2  0  0  0  0  0  0  0  0  0
  -24.1509  -23.6029   32.5126 C   0  0  0  0  0  0  0  0  0  0  0  0
  -25.8625  -11.5414   20.2890 N   0  0  0  0  0  0  0  0  0  0  0  0
  -26.2392  -12.8248   20.1580 N   0  0  0  0  0  0  0  0  0  0  0  0
  -23.7672  -23.1609   28.9739 N   0  0  0  0  0  0  0  0  0  0  0  0
  -29.9696  -13.6142   20.3703 N   0  0  0  0  0  0  0  0  0  0  0  0
  -25.4714  -15.0527   20.3984 N   0  0  0  0  0  0  0  0  0  0  0  0
  -21.8849  -12.5802   21.5899 N   0  0  0  0  0  0  0  0  0  0  0  0
  -30.0773  -15.6964   21.4726 N   0  0  0  0  0  0  0  0  0  0  0  0
  -29.7936  -19.2419   24.8141 N   0  0  0  0  0  0  0  0  0  0  0  0
  -22.4993  -26.1430   27.4807 N   0  0  0  0  0  0  0  0  0  0  0  0
  -23.4772  -21.2787   31.7723 N   0  0  0  0  0  0  0  0  0  0  0  0
  -23.6702  -17.7030   31.2777 N   0  3  0  0  0  0  0  0  0  0  0  0
  -22.6603  -14.7195   21.3059 O   0  0  0  0  0  0  0  0  0  0  0  0
  -24.6352  -25.5332   28.1798 O   0  0  0  0  0  0  0  0  0  0  0  0
  -21.9760  -23.3338   30.4564 O   0  0  0  0  0  0  0  0  0  0  0  0
  -25.2889  -19.9974   31.0994 O   0  0  0  0  0  0  0  0  0  0  0  0
  -31.8568  -14.9373   20.1924 O   0  0  0  0  0  0  0  0  0  0  0  0
  -21.6135   -7.0172   21.7123 O   0  0  0  0  0  0  0  0  0  0  0  0
  -28.6116  -21.7553   25.4230 O   0  0  0  0  0  0  0  0  0  1  0  0
  -18.6127   -6.8700   26.3359 F   0  0  0  0  0  0  0  0  0  0  0  0
  -22.0605   -5.0790   23.6322 F   0  0  0  0  0  0  0  0  0  0  0  0
  -28.1770  -17.4930   22.9845 Cl  0  0  0  0  0  0  0  0  0  0  0  0
  1  2  1  0  0  0  0
  1  5  2  0  0  0  0
  2  6  2  0  0  0  0
  3  8  2  0  0  0  0
  3 17  1  0  0  0  0
  4  9  1  0  0  0  0
  4 17  2  0  0  0  0
  5 19  1  0  0  0  0
  6 21  1  0  0  0  0
  7 10  2  0  0  0  0
  7 20  1  0  0  0  0
  8 26  1  0  0  0  0
  9 26  2  0  0  0  0
 10 27  1  0  0  0  0
 11 12  2  0  0  0  0
 11 28  1  0  0  0  0
 12 29  1  0  0  0  0
 13 22  1  0  0  0  0
 13 27  2  0  0  0  0
 14 23  1  0  0  0  0
 14 24  2  0  0  0  0
 15 23  2  0  0  0  0
 15 25  1  0  0  0  0
 16 29  2  0  0  0  0
 16 30  1  0  0  0  0
 17 32  1  0  0  0  0
 18 32  1  0  0  0  0
 18 33  2  0  0  0  0
 18 34  1  0  0  0  0
 19 21  2  0  0  0  0
 19 39  1  0  0  0  0
 20 22  2  0  0  0  0
 20 40  1  0  0  0  0
 21 48  1  0  0  0  0
 22 41  1  0  0  0  0
 23 51  1  0  0  0  0
 24 31  1  0  0  0  0
 24 68  1  0  0  0  0
 25 31  2  0  0  0  0
 25 69  1  0  0  0  0
 26 78  1  0  0  0  0
 27 79  1  0  0  0  0
 28 30  2  0  0  0  0
 28 78  1  0  0  0  0
 29 80  1  0  0  0  0
 30 81  1  0  0  0  0
 31 82  1  0  0  0  0
 32 62  2  0  0  0  0
 33 63  1  0  0  0  0
 33 66  1  0  0  0  0
 34 67  1  0  0  0  0
 34 73  2  0  0  0  0
 35 49  1  0  0  0  0
 35 70  1  0  0  0  0
 35 74  2  0  0  0  0
 36 59  1  0  0  0  0
 36 64  1  0  0  0  0
 36 75  2  0  0  0  0
 37 60  1  0  0  0  0
 37 71  1  0  0  0  0
 37 76  2  0  0  0  0
 38 65  1  0  0  0  0
 38 68  1  0  0  0  0
 38 77  2  0  0  0  0
 39 42  1  0  0  0  0
 40 49  1  0  0  0  0
 41 64  1  0  0  0  0
 42 44  1  0  0  0  0
 43 45  1  0  0  0  0
 43 46  1  0  0  0  0
 44 48  1  0  0  0  0
 45 50  1  0  0  0  0
 46 65  1  0  0  0  0
 47 50  1  0  0  0  0
 47 65  1  0  0  0  0
 48 70  1  0  0  0  0
 49 64  1  0  0  0  0
 50 63  1  0  0  0  0
 52 60  1  0  0  0  0
 53 61  1  0  0  0  0
 54 61  1  0  0  0  0
 55 61  1  0  0  0  0
 56 72  1  0  0  0  0
 57 58  1  0  0  0  0
 57 69  1  0  0  0  0
 58 79  1  0  0  0  0
 59 61  1  0  0  0  0
 59 71  1  0  0  0  0
 60 72  1  0  0  0  0
 62 63  1  0  0  0  0
M  CHG  1  72   1
M  ISO  4  38 100  58 101  68 100  79 101
M  END
> <Batch ID>
0010

> <Smiles>
CNC(C)C(=O)NC(C(=O)N1Cc2cc([101O:1][101CH2:1]CNc3cc(C)cc([100NH:0][100C:0](=O)N4CCCC(n5nc(-c6ccc(Oc7ccc(F)cc7F)cc6)c(C(N)=O)c5N)C4)c3Cl)ccc2CC1C(=O)NC1CCCc2ccccc21)C(C)(C)C

> <Shape>
0.182

> <Color>
0.196

> <Negative vol penalty>
0.000

$$$$

  -OEChem-04052315413D

 82 90  0     1  0  0  0  0  0999 V2000
  -39.3964  -28.9430   21.8906 C   0  0  0  0  0  0  0  0  0  0  0  0
  -38.3722  -28.2573   22.5358 C   0  0  0  0  0  0  0  0  0  0  0  0
  -23.0070   -9.8885   19.9649 C   0  0  0  0  0  0  0  0  0  0  0  0
  -23.7378   -9.9140   22.2676 C   0  0  0  0  0  0  0  0  0  0  0  0
  -39.2260  -29.3716   20.5748 C   0  0  0  0  0  0  0  0  0  0  0  0
  -37.1765  -28.0006   21.8658 C   0  0  0  0  0  0  0  0  0  0  0  0
  -35.5522  -23.2518   22.5407 C   0  0  0  0  0  0  0  0  0  0  0  0
  -32.6297  -17.4393   23.5072 C   0  0  0  0  0  0  0  0  0  0  0  0
  -32.0404  -16.5521   22.6065 C   0  0  0  0  0  0  0  0  0  0  0  0
  -22.2463   -8.7473   20.2189 C   0  0  0  0  0  0  0  0  0  0  0  0
  -22.9771   -8.7728   22.5216 C   0  0  0  0  0  0  0  0  0  0  0  0
  -34.9279  -22.9586   23.7523 C   0  0  0  0  0  0  0  0  0  0  0  0
  -23.2354   -5.4411   22.0073 C   0  0  0  0  0  0  0  0  0  0  0  0
  -23.8294   -4.4173   22.7451 C   0  0  0  0  0  0  0  0  0  0  0  0
  -32.7744  -23.1502   22.6822 C   0  0  0  0  0  0  0  0  0  0  0  0
  -30.4510  -18.3240   24.0615 C   0  0  0  0  0  0  0  0  0  0  0  0
  -22.1088   -4.6313   24.4275 C   0  0  0  0  0  0  0  0  0  0  0  0
  -23.7528  -10.4719   20.9892 C   0  0  0  0  0  0  0  0  0  0  0  0
  -24.1262  -12.9912   20.8438 C   0  0  0  0  0  0  0  0  0  0  0  0
  -38.0312  -29.1116   19.8852 C   0  0  0  0  0  0  0  0  0  0  0  0
  -34.7907  -23.5076   21.3912 C   0  0  0  0  0  0  0  0  0  0  0  0
  -36.9894  -28.4273   20.5400 C   0  0  0  0  0  0  0  0  0  0  0  0
  -33.3915  -23.4440   21.4566 C   0  0  0  0  0  0  0  0  0  0  0  0
  -31.8350  -18.3252   24.2348 C   0  0  0  0  0  0  0  0  0  0  0  0
  -30.6564  -16.5510   22.4332 C   0  0  0  0  0  0  0  0  0  0  0  0
  -22.2313   -8.1894   21.4972 C   0  0  0  0  0  0  0  0  0  0  0  0
  -33.5387  -22.9106   23.8238 C   0  0  0  0  0  0  0  0  0  0  0  0
  -22.0780   -6.0602   22.4796 C   0  0  0  0  0  0  0  0  0  0  0  0
  -23.2661   -4.0124   23.9552 C   0  0  0  0  0  0  0  0  0  0  0  0
  -29.8616  -17.4369   23.1607 C   0  0  0  0  0  0  0  0  0  0  0  0
  -21.5147   -5.6552   23.6897 C   0  0  0  0  0  0  0  0  0  0  0  0
  -24.5392  -11.6504   20.7273 C   0  0  0  0  0  0  0  0  0  0  0  0
  -25.2318  -13.7234   20.4857 C   0  0  0  0  0  0  0  0  0  0  0  0
  -22.8568  -13.5269   21.2403 C   0  0  0  0  0  0  0  0  0  0  0  0
  -34.4288  -25.9973   19.4485 C   0  0  0  0  0  0  0  0  0  0  0  0
  -32.6381  -23.9044   17.7352 C   0  0  0  0  0  0  0  0  0  0  0  0
  -30.7454  -21.0649   17.6969 C   0  0  0  0  0  0  0  0  0  0  0  0
  -30.7074  -14.7065   20.7181 C   0  0  0  0  0  0  0  0  0  0  0  0
  -37.8754  -29.6360   18.4797 C   0  0  0  0  0  0  0  0  0  0  0  0
  -35.4799  -23.7962   20.0858 C   0  0  0  0  0  0  0  0  0  0  0  0
  -32.5291  -23.6908   20.2468 C   0  0  0  0  0  0  0  0  0  0  0  0
  -36.7195  -28.9958   17.7154 C   0  0  0  0  0  0  0  0  0  0  0  0
  -29.5944  -12.2778   18.3644 C   0  0  0  0  0  0  0  0  0  0  0  0
  -35.4640  -28.9567   18.5808 C   0  0  0  0  0  0  0  0  0  0  0  0
  -28.1460  -12.0084   18.7789 C   0  0  0  0  0  0  0  0  0  0  0  0
  -30.4968  -12.5102   19.5749 C   0  0  0  0  0  0  0  0  0  0  0  0
  -28.5813  -13.2735   20.9229 C   0  0  0  0  0  0  0  0  0  0  0  0
  -35.6871  -28.1081   19.8385 C   0  0  1  0  0  0  0  0  0  0  0  0
  -34.5944  -24.5462   19.0956 C   0  0  1  0  0  0  0  0  0  0  0  0
  -27.6215  -13.0977   19.7349 C   0  0  2  0  0  0  0  0  0  0  0  0
  -29.3819  -19.6270   16.1572 C   0  0  0  0  0  0  0  0  0  0  0  0
  -30.3855  -25.9611   17.8133 C   0  0  0  0  0  0  0  0  0  0  0  0
  -28.8006  -24.1483   17.1275 C   0  0  0  0  0  0  0  0  0  0  0  0
  -30.6694  -24.8079   15.6124 C   0  0  0  0  0  0  0  0  0  0  0  0
  -32.4886  -18.7178   18.1566 C   0  0  0  0  0  0  0  0  0  0  0  0
  -32.6187  -21.0152   26.7581 C   0  0  0  0  0  0  0  0  0  0  0  0
  -31.6773  -20.1554   25.9232 C   0  0  0  0  0  0  0  0  0  0  0  0
  -33.6314  -21.7804   25.9143 C   0  0  0  0  0  0  0  0  0  1  0  0
  -31.1818  -23.5069   17.7188 C   0  0  1  0  0  0  0  0  0  0  0  0
  -30.7531  -19.8616   16.7714 C   0  0  2  0  0  0  0  0  0  0  0  0
  -30.2752  -24.6032   17.0914 C   0  0  0  0  0  0  0  0  0  0  0  0
  -25.8081  -11.5347   20.3264 N   0  0  0  0  0  0  0  0  0  0  0  0
  -26.2019  -12.8121   20.1878 N   0  0  0  0  0  0  0  0  0  0  0  0
  -33.2497  -23.9752   18.9949 N   0  0  0  0  0  0  0  0  0  0  0  0
  -29.9391  -13.5580   20.4328 N   0  0  0  0  0  0  0  0  0  0  0  0
  -25.4590  -15.0513   20.3997 N   0  0  0  0  0  0  0  0  0  0  0  0
  -21.8299  -12.6338   21.5753 N   0  0  0  0  0  0  0  0  0  0  0  0
  -30.0608  -15.6488   21.5171 N   0  0  0  0  0  0  0  0  0  0  0  0
  -32.4207  -19.2063   25.1303 N   0  0  0  0  0  0  0  0  0  0  0  0
  -35.6174  -26.6989   19.5163 N   0  0  0  0  0  0  0  0  0  0  0  0
  -31.1182  -22.2177   17.0388 N   0  0  0  0  0  0  0  0  0  0  0  0
  -31.1490  -18.6351   17.5197 N   0  3  0  0  0  0  0  0  0  0  0  0
  -22.6345  -14.7608   21.2800 O   0  0  0  0  0  0  0  0  0  0  0  0
  -33.3058  -26.4474   19.6433 O   0  0  0  0  0  0  0  0  0  0  0  0
  -33.2136  -24.1364   16.6691 O   0  0  0  0  0  0  0  0  0  0  0  0
  -30.4357  -20.9902   18.8839 O   0  0  0  0  0  0  0  0  0  0  0  0
  -31.8442  -14.8563   20.2630 O   0  0  0  0  0  0  0  0  0  0  0  0
  -21.4890   -7.0760   21.7455 O   0  0  0  0  0  0  0  0  0  0  0  0
  -32.9268  -22.6252   25.0054 O   0  0  0  0  0  0  0  0  0  1  0  0
  -23.8359   -3.0281   24.6629 F   0  0  0  0  0  0  0  0  0  0  0  0
  -28.5304  -17.4447   23.0017 F   0  0  0  0  0  0  0  0  0  0  0  0
  -20.4022   -6.2454   24.1480 F   0  0  0  0  0  0  0  0  0  0  0  0
  1  2  1  0  0  0  0
  1  5  2  0  0  0  0
  2  6  2  0  0  0  0
  3 10  2  0  0  0  0
  3 18  1  0  0  0  0
  4 11  1  0  0  0  0
  4 18  2  0  0  0  0
  5 20  1  0  0  0  0
  6 22  1  0  0  0  0
  7 12  2  0  0  0  0
  7 21  1  0  0  0  0
  8  9  2  0  0  0  0
  8 24  1  0  0  0  0
  9 25  1  0  0  0  0
 10 26  1  0  0  0  0
 11 26  2  0  0  0  0
 12 27  1  0  0  0  0
 13 14  2  0  0  0  0
 13 28  1  0  0  0  0
 14 29  1  0  0  0  0
 15 23  1  0  0  0  0
 15 27  2  0  0  0  0
 16 24  2  0  0  0  0
 16 30  1  0  0  0  0
 17 29  2  0  0  0  0
 17 31  1  0  0  0  0
 18 32  1  0  0  0  0
 19 32  1  0  0  0  0
 19 33  2  0  0  0  0
 19 34  1  0  0  0  0
 20 22  2  0  0  0  0
 20 39  1  0  0  0  0
 21 23  2  0  0  0  0
 21 40  1  0  0  0  0
 22 48  1  0  0  0  0
 23 41  1  0  0  0  0
 24 69  1  0  0  0  0
 25 30  2  0  0  0  0
 25 68  1  0  0  0  0
 26 78  1  0  0  0  0
 27 79  1  0  0  0  0
 28 31  2  0  0  0  0
 28 78  1  0  0  0  0
 29 80  1  0  0  0  0
 30 81  1  0  0  0  0
 31 82  1  0  0  0  0
 32 62  2  0  0  0  0
 33 63  1  0  0  0  0
 33 66  1  0  0  0  0
 34 67  1  0  0  0  0
 34 73  2  0  0  0  0
 35 49  1  0  0  0  0
 35 70  1  0  0  0  0
 35 74  2  0  0  0  0
 36 59  1  0  0  0  0
 36 64  1  0  0  0  0
 36 75  2  0  0  0  0
 37 60  1  0  0  0  0
 37 71  1  0  0  0  0
 37 76  2  0  0  0  0
 38 65  1  0  0  0  0
 38 68  1  0  0  0  0
 38 77  2  0  0  0  0
 39 42  1  0  0  0  0
 40 49  1  0  0  0  0
 41 64  1  0  0  0  0
 42 44  1  0  0  0  0
 43 45  1  0  0  0  0
 43 46  1  0  0  0  0
 44 48  1  0  0  0  0
 45 50  1  0  0  0  0
 46 65  1  0  0  0  0
 47 50  1  0  0  0  0
 47 65  1  0  0  0  0
 48 70  1  0  0  0  0
 49 64  1  0  0  0  0
 50 63  1  0  0  0  0
 51 60  1  0  0  0  0
 52 61  1  0  0  0  0
 53 61  1  0  0  0  0
 54 61  1  0  0  0  0
 55 72  1  0  0  0  0
 56 57  1  0  0  0  0
 56 58  1  0  0  0  0
 57 69  1  0  0  0  0
 58 79  1  0  0  0  0
 59 61  1  0  0  0  0
 59 71  1  0  0  0  0
 60 72  1  0  0  0  0
 62 63  1  0  0  0  0
M  CHG  1  72   1
M  ISO  4  38 100  58 101  68 100  79 101
M  END
> <Batch ID>
0010

> <Smiles>
CNC(C)C(=O)NC(C(=O)N1Cc2cc([101O:1][101CH2:1]CCNc3ccc([100NH:0][100C:0](=O)N4CCCC(n5nc(-c6ccc(Oc7ccc(F)cc7F)cc6)c(C(N)=O)c5N)C4)c(F)c3)ccc2CC1C(=O)NC1CCCc2ccccc21)C(C)(C)C

> <Shape>
0.207

> <Color>
0.204

> <Negative vol penalty>
0.000

$$$$

  -OEChem-04052315413D

 84 92  0     1  0  0  0  0  0999 V2000
  -28.3166  -22.8410   18.2151 C   0  0  0  0  0  0  0  0  0  0  0  0
  -27.1120  -23.1785   18.8237 C   0  0  0  0  0  0  0  0  0  0  0  0
  -27.5777  -16.5210   22.8851 C   0  0  0  0  0  0  0  0  0  0  0  0
  -25.3608  -16.8369   21.9779 C   0  0  0  0  0  0  0  0  0  0  0  0
  -29.5054  -23.4211   18.6555 C   0  0  0  0  0  0  0  0  0  0  0  0
  -27.0957  -24.0956   19.8740 C   0  0  0  0  0  0  0  0  0  0  0  0
  -23.3754  -27.5014   19.4215 C   0  0  0  0  0  0  0  0  0  0  0  0
  -19.7863  -22.7869   27.7727 C   0  0  0  0  0  0  0  0  0  0  0  0
  -27.6557  -15.2761   22.2608 C   0  0  0  0  0  0  0  0  0  0  0  0
  -25.4389  -15.5920   21.3536 C   0  0  0  0  0  0  0  0  0  0  0  0
  -22.0897  -27.0901   19.7703 C   0  0  0  0  0  0  0  0  0  0  0  0
  -28.5821  -12.1724   20.6104 C   0  0  0  0  0  0  0  0  0  0  0  0
  -18.4874  -23.2744   27.6282 C   0  0  0  0  0  0  0  0  0  0  0  0
  -29.7639  -11.8557   19.9406 C   0  0  0  0  0  0  0  0  0  0  0  0
  -22.3272  -28.1814   21.9085 C   0  0  0  0  0  0  0  0  0  0  0  0
  -20.2223  -23.2581   25.4435 C   0  0  0  0  0  0  0  0  0  0  0  0
  -29.4515  -13.7612   18.4884 C   0  0  0  0  0  0  0  0  0  0  0  0
  -26.4302  -17.3014   22.7437 C   0  0  0  0  0  0  0  0  0  0  0  0
  -26.7426  -19.8306   22.8589 C   0  0  0  0  0  0  0  0  0  0  0  0
  -29.5025  -24.3530   19.7053 C   0  0  0  0  0  0  0  0  0  0  0  0
  -24.1521  -28.2478   20.3194 C   0  0  0  0  0  0  0  0  0  0  0  0
  -28.2858  -24.6877   20.3298 C   0  0  0  0  0  0  0  0  0  0  0  0
  -23.6214  -28.6031   21.5677 C   0  0  0  0  0  0  0  0  0  0  0  0
  -20.6537  -22.7788   26.6803 C   0  0  0  0  0  0  0  0  0  0  0  0
  -18.9234  -23.7456   25.2990 C   0  0  0  0  0  0  0  0  0  0  0  0
  -26.5863  -14.8116   21.4951 C   0  0  0  0  0  0  0  0  0  0  0  0
  -21.5665  -27.4276   21.0150 C   0  0  0  0  0  0  0  0  0  0  0  0
  -27.8349  -13.2834   20.2191 C   0  0  0  0  0  0  0  0  0  0  0  0
  -30.1987  -12.6501   18.8797 C   0  0  0  0  0  0  0  0  0  0  0  0
  -18.0559  -23.7537   26.3914 C   0  0  0  0  0  0  0  0  0  0  0  0
  -28.2697  -14.0778   19.1582 C   0  0  0  0  0  0  0  0  0  0  0  0
  -26.3488  -18.5872   23.3887 C   0  0  0  0  0  0  0  0  0  0  0  0
  -26.4624  -20.7329   23.8557 C   0  0  0  0  0  0  0  0  0  0  0  0
  -27.3108  -20.1421   21.5799 C   0  0  0  0  0  0  0  0  0  0  0  0
  -26.9245  -27.7899   21.8051 C   0  0  0  0  0  0  0  0  0  0  0  0
  -26.4717  -30.8553   22.7643 C   0  0  0  0  0  0  0  0  0  0  0  0
  -19.3836  -24.8332   23.1032 C   0  0  0  0  0  0  0  0  0  0  0  0
  -24.2901  -33.4078   23.3748 C   0  0  0  0  0  0  0  0  0  0  0  0
  -22.5593  -21.7718   27.9846 C   0  0  0  0  0  0  0  0  0  0  0  0
  -30.8185  -24.9180   20.1782 C   0  0  0  0  0  0  0  0  0  0  0  0
  -25.5270  -28.7066   19.9176 C   0  0  0  0  0  0  0  0  0  0  0  0
  -24.4068  -29.4202   22.5597 C   0  0  0  0  0  0  0  0  0  0  0  0
  -30.6693  -26.1631   21.0487 C   0  0  0  0  0  0  0  0  0  0  0  0
  -25.7644  -20.4200   28.7443 C   0  0  0  0  0  0  0  0  0  0  0  0
  -29.5901  -25.9495   22.1053 C   0  0  0  0  0  0  0  0  0  0  0  0
  -26.2819  -19.9306   27.3897 C   0  0  0  0  0  0  0  0  0  0  0  0
  -24.2594  -20.2013   28.8892 C   0  0  0  0  0  0  0  0  0  0  0  0
  -23.9617  -20.2629   26.4444 C   0  0  0  0  0  0  0  0  0  0  0  0
  -28.2242  -25.6971   21.4556 C   0  0  1  0  0  0  0  0  0  0  0  0
  -26.4232  -29.0244   21.1106 C   0  0  1  0  0  0  0  0  0  0  0  0
  -25.4615  -20.5214   26.2263 C   0  0  2  0  0  0  0  0  0  0  0  0
  -24.2123  -35.7808   24.1874 C   0  0  0  0  0  0  0  0  0  0  0  0
  -26.8615  -29.8842   25.6305 C   0  0  0  0  0  0  0  0  0  0  0  0
  -25.8518  -32.0340   26.4224 C   0  0  0  0  0  0  0  0  0  0  0  0
  -27.9714  -32.0634   25.1074 C   0  0  0  0  0  0  0  0  0  0  0  0
  -17.0664  -24.0054   23.6714 C   0  0  0  0  0  0  0  0  0  0  0  0
  -23.1649  -34.3705   20.8124 C   0  0  0  0  0  0  0  0  0  0  0  0
  -18.8170  -25.1718   21.7241 C   0  0  0  0  0  0  0  0  0  0  0  0
  -19.8428  -25.8044   20.7909 C   0  0  0  0  0  0  0  0  0  1  0  0
  -25.7959  -31.5189   23.9399 C   0  0  1  0  0  0  0  0  0  0  0  0
  -24.3143  -34.8714   22.9727 C   0  0  2  0  0  0  0  0  0  0  0  0
  -26.6058  -31.3581   25.2573 C   0  0  0  0  0  0  0  0  0  0  0  0
  -25.8561  -18.6868   24.6262 N   0  0  0  0  0  0  0  0  0  0  0  0
  -25.9385  -20.0036   24.8823 N   0  0  0  0  0  0  0  0  0  0  0  0
  -25.7487  -29.8396   22.1229 N   0  0  0  0  0  0  0  0  0  0  0  0
  -23.5471  -20.7911   27.7536 N   0  0  0  0  0  0  0  0  0  0  0  0
  -26.6155  -22.0712   23.9456 N   0  0  0  0  0  0  0  0  0  0  0  0
  -27.5329  -19.0954   20.6746 N   0  0  0  0  0  0  0  0  0  0  0  0
  -21.9731  -22.2835   26.8274 N   0  0  0  0  0  0  0  0  0  0  0  0
  -27.6484  -26.9406   20.9901 N   0  0  0  0  0  0  0  0  0  0  0  0
  -25.5622  -32.9045   23.5476 N   0  0  0  0  0  0  0  0  0  0  0  0
  -18.4776  -24.2433   24.0130 N   0  0  0  0  0  0  0  0  0  0  0  0
  -23.1763  -35.1767   22.0602 N   0  3  0  0  0  0  0  0  0  0  0  0
  -27.6279  -21.3117   21.2558 O   0  0  0  0  0  0  0  0  0  0  0  0
  -26.6745  -27.6211   22.9928 O   0  0  0  0  0  0  0  0  0  0  0  0
  -27.5965  -31.2295   22.4232 O   0  0  0  0  0  0  0  0  0  0  0  0
  -20.5741  -25.0542   23.3389 O   0  0  0  0  0  0  0  0  0  0  0  0
  -23.2470  -32.7753   23.5246 O   0  0  0  0  0  0  0  0  0  0  0  0
  -22.2750  -22.1508   29.1237 O   0  0  0  0  0  0  0  0  0  0  0  0
  -26.6622  -13.5970   20.8856 O   0  0  0  0  0  0  0  0  0  0  0  0
  -20.3121  -27.0268   21.3582 O   0  0  0  0  0  0  0  0  0  1  0  0
  -31.3344  -12.3468   18.2376 F   0  0  0  0  0  0  0  0  0  0  0  0
  -16.8054  -24.2194   26.2644 F   0  0  0  0  0  0  0  0  0  0  0  0
  -27.5567  -15.1471   18.7786 F   0  0  0  0  0  0  0  0  0  0  0  0
  1  2  1  0  0  0  0
  1  5  2  0  0  0  0
  2  6  2  0  0  0  0
  3  9  2  0  0  0  0
  3 18  1  0  0  0  0
  4 10  1  0  0  0  0
  4 18  2  0  0  0  0
  5 20  1  0  0  0  0
  6 22  1  0  0  0  0
  7 11  2  0  0  0  0
  7 21  1  0  0  0  0
  8 13  2  0  0  0  0
  8 24  1  0  0  0  0
  9 26  1  0  0  0  0
 10 26  2  0  0  0  0
 11 27  1  0  0  0  0
 12 14  2  0  0  0  0
 12 28  1  0  0  0  0
 13 30  1  0  0  0  0
 14 29  1  0  0  0  0
 15 23  1  0  0  0  0
 15 27  2  0  0  0  0
 16 24  2  0  0  0  0
 16 25  1  0  0  0  0
 17 29  2  0  0  0  0
 17 31  1  0  0  0  0
 18 32  1  0  0  0  0
 19 32  1  0  0  0  0
 19 33  2  0  0  0  0
 19 34  1  0  0  0  0
 20 22  2  0  0  0  0
 20 40  1  0  0  0  0
 21 23  2  0  0  0  0
 21 41  1  0  0  0  0
 22 49  1  0  0  0  0
 23 42  1  0  0  0  0
 24 69  1  0  0  0  0
 25 30  2  0  0  0  0
 25 72  1  0  0  0  0
 26 80  1  0  0  0  0
 27 81  1  0  0  0  0
 28 31  2  0  0  0  0
 28 80  1  0  0  0  0
 29 82  1  0  0  0  0
 30 83  1  0  0  0  0
 31 84  1  0  0  0  0
 32 63  2  0  0  0  0
 33 64  1  0  0  0  0
 33 67  1  0  0  0  0
 34 68  1  0  0  0  0
 34 74  2  0  0  0  0
 35 50  1  0  0  0  0
 35 70  1  0  0  0  0
 35 75  2  0  0  0  0
 36 60  1  0  0  0  0
 36 65  1  0  0  0  0
 36 76  2  0  0  0  0
 37 58  1  0  0  0  0
 37 72  1  0  0  0  0
 37 77  2  0  0  0  0
 38 61  1  0  0  0  0
 38 71  1  0  0  0  0
 38 78  2  0  0  0  0
 39 66  1  0  0  0  0
 39 69  1  0  0  0  0
 39 79  2  0  0  0  0
 40 43  1  0  0  0  0
 41 50  1  0  0  0  0
 42 65  1  0  0  0  0
 43 45  1  0  0  0  0
 44 46  1  0  0  0  0
 44 47  1  0  0  0  0
 45 49  1  0  0  0  0
 46 51  1  0  0  0  0
 47 66  1  0  0  0  0
 48 51  1  0  0  0  0
 48 66  1  0  0  0  0
 49 70  1  0  0  0  0
 50 65  1  0  0  0  0
 51 64  1  0  0  0  0
 52 61  1  0  0  0  0
 53 62  1  0  0  0  0
 54 62  1  0  0  0  0
 55 62  1  0  0  0  0
 56 72  1  0  0  0  0
 57 73  1  0  0  0  0
 58 59  1  0  0  0  0
 59 81  1  0  0  0  0
 60 62  1  0  0  0  0
 60 71  1  0  0  0  0
 61 73  1  0  0  0  0
 63 64  1  0  0  0  0
M  CHG  1  73   1
M  ISO  4  39 100  59 101  69 100  81 101
M  END
> <Batch ID>
0010

> <Smiles>
CNC(C)C(=O)NC(C(=O)N1Cc2cc([101O:1][101CH2:1]CC(=O)N(C)c3cc([100NH:0][100C:0](=O)N4CCCC(n5nc(-c6ccc(Oc7ccc(F)cc7F)cc6)c(C(N)=O)c5N)C4)ccc3F)ccc2CC1C(=O)NC1CCCc2ccccc21)C(C)(C)C

> <Shape>
0.230

> <Color>
0.058

> <Negative vol penalty>
0.000

$$$$

  -OEChem-04052315413D

 81 89  0     1  0  0  0  0  0999 V2000
  -19.1917  -30.2117   18.1528 C   0  0  0  0  0  0  0  0  0  0  0  0
  -20.5773  -30.1230   18.2401 C   0  0  0  0  0  0  0  0  0  0  0  0
  -25.9946  -14.1320   21.6324 C   0  0  0  0  0  0  0  0  0  0  0  0
  -25.8606  -15.5778   19.7014 C   0  0  0  0  0  0  0  0  0  0  0  0
  -18.4249  -30.2919   19.3145 C   0  0  0  0  0  0  0  0  0  0  0  0
  -21.1971  -30.1157   19.4892 C   0  0  0  0  0  0  0  0  0  0  0  0
  -24.8143  -26.5892   19.8424 C   0  0  0  0  0  0  0  0  0  0  0  0
  -30.5195  -22.2091   19.0092 C   0  0  0  0  0  0  0  0  0  0  0  0
  -31.2376  -23.2594   21.0630 C   0  0  0  0  0  0  0  0  0  0  0  0
  -30.3289  -23.4651   18.4334 C   0  0  0  0  0  0  0  0  0  0  0  0
  -31.0471  -24.5155   20.4872 C   0  0  0  0  0  0  0  0  0  0  0  0
  -24.6154  -13.9314   21.5779 C   0  0  0  0  0  0  0  0  0  0  0  0
  -24.4813  -15.3771   19.6468 C   0  0  0  0  0  0  0  0  0  0  0  0
  -26.0409  -26.8731   19.2435 C   0  0  0  0  0  0  0  0  0  0  0  0
  -22.4375  -12.0740   19.7779 C   0  0  0  0  0  0  0  0  0  0  0  0
  -21.9659  -10.7696   19.9247 C   0  0  0  0  0  0  0  0  0  0  0  0
  -26.9432  -27.4850   21.3954 C   0  0  0  0  0  0  0  0  0  0  0  0
  -20.7078  -11.4439   21.8740 C   0  0  0  0  0  0  0  0  0  0  0  0
  -26.6173  -14.9553   20.6941 C   0  0  0  0  0  0  0  0  0  0  0  0
  -29.0381  -14.4017   20.1106 C   0  0  0  0  0  0  0  0  0  0  0  0
  -19.0350  -30.2758   20.5787 C   0  0  0  0  0  0  0  0  0  0  0  0
  -24.6394  -26.7618   21.2230 C   0  0  0  0  0  0  0  0  0  0  0  0
  -20.4378  -30.1971   20.6689 C   0  0  0  0  0  0  0  0  0  0  0  0
  -25.7141  -27.2002   22.0098 C   0  0  0  0  0  0  0  0  0  0  0  0
  -30.9738  -22.1061   20.3240 C   0  0  0  0  0  0  0  0  0  0  0  0
  -30.5927  -24.6184   19.1724 C   0  0  0  0  0  0  0  0  0  0  0  0
  -23.8587  -14.5539   20.5852 C   0  0  0  0  0  0  0  0  0  0  0  0
  -27.1047  -27.3238   20.0196 C   0  0  0  0  0  0  0  0  0  0  0  0
  -22.0444  -13.0634   20.6791 C   0  0  0  0  0  0  0  0  0  0  0  0
  -21.1010  -10.4545   20.9728 C   0  0  0  0  0  0  0  0  0  0  0  0
  -21.1795  -12.7484   21.7272 C   0  0  0  0  0  0  0  0  0  0  0  0
  -28.0419  -15.1634   20.7502 C   0  0  0  0  0  0  0  0  0  0  0  0
  -30.2178  -15.0021   20.4772 C   0  0  0  0  0  0  0  0  0  0  0  0
  -28.9087  -13.2540   19.2609 C   0  0  0  0  0  0  0  0  0  0  0  0
  -22.7727  -28.5864   23.0368 C   0  0  0  0  0  0  0  0  0  0  0  0
  -24.0713  -26.8443   25.4453 C   0  0  0  0  0  0  0  0  0  0  0  0
  -26.6648  -24.9282   26.5631 C   0  0  0  0  0  0  0  0  0  0  0  0
  -31.6107  -20.5512   22.2010 C   0  0  0  0  0  0  0  0  0  0  0  0
  -18.1677  -30.4123   21.8051 C   0  0  0  0  0  0  0  0  0  0  0  0
  -23.3179  -26.4257   21.8578 C   0  0  0  0  0  0  0  0  0  0  0  0
  -25.5840  -27.3825   23.4992 C   0  0  0  0  0  0  0  0  0  0  0  0
  -18.8765  -30.0208   23.0991 C   0  0  0  0  0  0  0  0  0  0  0  0
  -32.1785  -17.5483   24.0278 C   0  0  0  0  0  0  0  0  0  0  0  0
  -20.2634  -30.6529   23.1604 C   0  0  0  0  0  0  0  0  0  0  0  0
  -31.2774  -16.5252   23.3326 C   0  0  0  0  0  0  0  0  0  0  0  0
  -31.5299  -18.9304   24.0828 C   0  0  0  0  0  0  0  0  0  0  0  0
  -30.1644  -18.4270   22.0951 C   0  0  0  0  0  0  0  0  0  0  0  0
  -21.1453  -30.1612   22.0062 C   0  0  1  0  0  0  0  0  0  0  0  0
  -23.1010  -27.1287   23.1943 C   0  0  1  0  0  0  0  0  0  0  0  0
  -30.8022  -17.0349   21.9578 C   0  0  2  0  0  0  0  0  0  0  0  0
  -27.4598  -23.6768   28.5877 C   0  0  0  0  0  0  0  0  0  0  0  0
  -24.8401  -29.4827   26.7712 C   0  0  0  0  0  0  0  0  0  0  0  0
  -26.4152  -28.2055   28.2396 C   0  0  0  0  0  0  0  0  0  0  0  0
  -23.9661  -27.7424   28.3403 C   0  0  0  0  0  0  0  0  0  0  0  0
  -29.9262  -25.9896   17.2140 C   0  0  0  0  0  0  0  0  0  0  0  0
  -26.6787  -22.3511   25.1079 C   0  0  0  0  0  0  0  0  0  0  0  0
  -30.6527  -27.0943   19.3354 C   0  0  0  0  0  0  0  0  0  0  0  0
  -29.4713  -27.4163   20.2352 C   0  0  0  0  0  0  0  0  0  1  0  0
  -25.2900  -26.9796   26.3259 C   0  0  1  0  0  0  0  0  0  0  0  0
  -26.6930  -23.5890   27.2773 C   0  0  2  0  0  0  0  0  0  0  0  0
  -25.1301  -28.1011   27.3909 C   0  0  0  0  0  0  0  0  0  0  0  0
  -28.5449  -16.1707   21.4689 N   0  0  0  0  0  0  0  0  0  0  0  0
  -29.8700  -16.0460   21.2831 N   0  0  0  0  0  0  0  0  0  0  0  0
  -24.2701  -27.0467   24.0722 N   0  0  0  0  0  0  0  0  0  0  0  0
  -31.1090  -19.3496   22.7442 N   0  0  0  0  0  0  0  0  0  0  0  0
  -31.5083  -14.7335   20.1857 N   0  0  0  0  0  0  0  0  0  0  0  0
  -27.6234  -12.7673   18.9866 N   0  0  0  0  0  0  0  0  0  0  0  0
  -31.1658  -20.8300   20.9091 N   0  0  0  0  0  0  0  0  0  0  0  0
  -21.6417  -28.8299   22.2811 N   0  0  0  0  0  0  0  0  0  0  0  0
  -25.5384  -25.6553   26.8854 N   0  0  0  0  0  0  0  0  0  0  0  0
  -30.4019  -25.8800   18.5933 N   0  0  3  0  0  0  0  0  0  0  0  0
  -27.3439  -22.5583   26.4200 N   0  3  0  0  0  0  0  0  0  0  0  0
  -29.9044  -12.6674   18.7730 O   0  0  0  0  0  0  0  0  0  0  0  0
  -23.4914  -29.4279   23.5632 O   0  0  0  0  0  0  0  0  0  0  0  0
  -22.9845  -26.5622   25.9560 O   0  0  0  0  0  0  0  0  0  0  0  0
  -27.5549  -25.2944   25.7987 O   0  0  0  0  0  0  0  0  0  0  0  0
  -32.3998  -21.2657   22.8246 O   0  0  0  0  0  0  0  0  0  0  0  0
  -22.5128  -14.3582   20.5315 O   0  0  0  0  0  0  0  0  0  0  0  0
  -28.3028  -27.6022   19.4375 O   0  0  0  0  0  0  0  0  0  1  0  0
  -20.6470   -9.2021   21.1127 F   0  0  0  0  0  0  0  0  0  0  0  0
  -20.7973  -13.6949   22.5954 F   0  0  0  0  0  0  0  0  0  0  0  0
  1  2  1  0  0  0  0
  1  5  2  0  0  0  0
  2  6  2  0  0  0  0
  3 12  2  0  0  0  0
  3 19  1  0  0  0  0
  4 13  1  0  0  0  0
  4 19  2  0  0  0  0
  5 21  1  0  0  0  0
  6 23  1  0  0  0  0
  7 14  2  0  0  0  0
  7 22  1  0  0  0  0
  8 10  2  0  0  0  0
  8 25  1  0  0  0  0
  9 11  1  0  0  0  0
  9 25  2  0  0  0  0
 10 26  1  0  0  0  0
 11 26  2  0  0  0  0
 12 27  1  0  0  0  0
 13 27  2  0  0  0  0
 14 28  1  0  0  0  0
 15 16  2  0  0  0  0
 15 29  1  0  0  0  0
 16 30  1  0  0  0  0
 17 24  1  0  0  0  0
 17 28  2  0  0  0  0
 18 30  2  0  0  0  0
 18 31  1  0  0  0  0
 19 32  1  0  0  0  0
 20 32  1  0  0  0  0
 20 33  2  0  0  0  0
 20 34  1  0  0  0  0
 21 23  2  0  0  0  0
 21 39  1  0  0  0  0
 22 24  2  0  0  0  0
 22 40  1  0  0  0  0
 23 48  1  0  0  0  0
 24 41  1  0  0  0  0
 25 68  1  0  0  0  0
 26 71  1  0  0  0  0
 27 78  1  0  0  0  0
 28 79  1  0  0  0  0
 29 31  2  0  0  0  0
 29 78  1  0  0  0  0
 30 80  1  0  0  0  0
 31 81  1  0  0  0  0
 32 62  2  0  0  0  0
 33 63  1  0  0  0  0
 33 66  1  0  0  0  0
 34 67  1  0  0  0  0
 34 73  2  0  0  0  0
 35 49  1  0  0  0  0
 35 69  1  0  0  0  0
 35 74  2  0  0  0  0
 36 59  1  0  0  0  0
 36 64  1  0  0  0  0
 36 75  2  0  0  0  0
 37 60  1  0  0  0  0
 37 70  1  0  0  0  0
 37 76  2  0  0  0  0
 38 65  1  0  0  0  0
 38 68  1  0  0  0  0
 38 77  2  0  0  0  0
 39 42  1  0  0  0  0
 40 49  1  0  0  0  0
 41 64  1  0  0  0  0
 42 44  1  0  0  0  0
 43 45  1  0  0  0  0
 43 46  1  0  0  0  0
 44 48  1  0  0  0  0
 45 50  1  0  0  0  0
 46 65  1  0  0  0  0
 47 50  1  0  0  0  0
 47 65  1  0  0  0  0
 48 69  1  0  0  0  0
 49 64  1  0  0  0  0
 50 63  1  0  0  0  0
 51 60  1  0  0  0  0
 52 61  1  0  0  0  0
 53 61  1  0  0  0  0
 54 61  1  0  0  0  0
 55 71  1  0  0  0  0
 56 72  1  0  0  0  0
 57 58  1  0  0  0  0
 57 71  1  0  0  0  0
 58 79  1  0  0  0  0
 59 61  1  0  0  0  0
 59 70  1  0  0  0  0
 60 72  1  0  0  0  0
 62 63  1  0  0  0  0
M  CHG  1  72   1
M  ISO  4  38 100  58 101  68 100  79 101
M  END
> <Batch ID>
0010

> <Smiles>
CNC(C)C(=O)NC(C(=O)N1Cc2cc([101O:1][101CH2:1]CN(C)c3ccc([100NH:0][100C:0](=O)N4CCCC(n5nc(-c6ccc(Oc7ccc(F)cc7F)cc6)c(C(N)=O)c5N)C4)cc3)ccc2CC1C(=O)NC1CCCc2ccccc21)C(C)(C)C

> <Shape>
0.226

> <Color>
0.074

> <Negative vol penalty>
0.000

$$$$

  -OEChem-04052315413D

 87 95  0     1  0  0  0  0  0999 V2000
  -22.0822  -19.0437   26.7903 C   0  0  0  0  0  0  0  0  0  0  0  0
  -22.2746  -19.1724   25.4185 C   0  0  0  0  0  0  0  0  0  0  0  0
  -26.3110  -12.6025   21.5028 C   0  0  0  0  0  0  0  0  0  0  0  0
  -25.9736  -13.2447   19.1983 C   0  0  0  0  0  0  0  0  0  0  0  0
  -21.2735  -19.9549   27.4681 C   0  0  0  0  0  0  0  0  0  0  0  0
  -21.6575  -20.2119   24.7235 C   0  0  0  0  0  0  0  0  0  0  0  0
  -23.9047  -23.2716   19.9178 C   0  0  0  0  0  0  0  0  0  0  0  0
  -27.7427  -23.2342   17.0755 C   0  0  0  0  0  0  0  0  0  0  0  0
  -27.7038  -21.4259   15.4738 C   0  0  0  0  0  0  0  0  0  0  0  0
  -28.2560  -22.3681   18.0408 C   0  0  0  0  0  0  0  0  0  0  0  0
  -28.2172  -20.5598   16.4391 C   0  0  0  0  0  0  0  0  0  0  0  0
  -25.0980  -11.9140   21.4886 C   0  0  0  0  0  0  0  0  0  0  0  0
  -24.7606  -12.5561   19.1840 C   0  0  0  0  0  0  0  0  0  0  0  0
  -23.6922  -23.1494   18.5454 C   0  0  0  0  0  0  0  0  0  0  0  0
  -23.9310   -8.9469   20.3628 C   0  0  0  0  0  0  0  0  0  0  0  0
  -23.9033   -7.6707   20.9252 C   0  0  0  0  0  0  0  0  0  0  0  0
  -22.0340  -24.8981   18.6525 C   0  0  0  0  0  0  0  0  0  0  0  0
  -22.2358   -8.4060   22.5114 C   0  0  0  0  0  0  0  0  0  0  0  0
  -26.7488  -13.2679   20.3577 C   0  0  0  0  0  0  0  0  0  0  0  0
  -29.2723  -13.4708   20.0440 C   0  0  0  0  0  0  0  0  0  0  0  0
  -20.6539  -21.0118   26.7827 C   0  0  0  0  0  0  0  0  0  0  0  0
  -23.1743  -24.2020   20.6711 C   0  0  0  0  0  0  0  0  0  0  0  0
  -20.8386  -21.1373   25.3925 C   0  0  0  0  0  0  0  0  0  0  0  0
  -22.2409  -25.0319   20.0339 C   0  0  0  0  0  0  0  0  0  0  0  0
  -27.4665  -22.7631   15.7919 C   0  0  0  0  0  0  0  0  0  0  0  0
  -28.4933  -21.0309   17.7227 C   0  0  0  0  0  0  0  0  0  0  0  0
  -24.3228  -11.8908   20.3291 C   0  0  0  0  0  0  0  0  0  0  0  0
  -22.7547  -23.9607   17.9130 C   0  0  0  0  0  0  0  0  0  0  0  0
  -23.1112   -9.9526   20.8747 C   0  0  0  0  0  0  0  0  0  0  0  0
  -23.0557   -7.4003   21.9995 C   0  0  0  0  0  0  0  0  0  0  0  0
  -22.2635   -9.6822   21.9490 C   0  0  0  0  0  0  0  0  0  0  0  0
  -28.0014  -13.9798   20.3720 C   0  0  0  0  0  0  0  0  0  0  0  0
  -30.1232  -14.5352   20.2152 C   0  0  0  0  0  0  0  0  0  0  0  0
  -29.6499  -12.1535   19.6221 C   0  0  0  0  0  0  0  0  0  0  0  0
  -21.1191  -24.0123   23.0885 C   0  0  0  0  0  0  0  0  0  0  0  0
  -21.3374  -27.2480   23.0174 C   0  0  0  0  0  0  0  0  0  0  0  0
  -26.6149  -23.3419   13.4943 C   0  0  0  0  0  0  0  0  0  0  0  0
  -22.0385  -30.0658   21.2242 C   0  0  0  0  0  0  0  0  0  0  0  0
  -29.3436  -20.4564   20.0234 C   0  0  0  0  0  0  0  0  0  0  0  0
  -19.7505  -21.9443   27.5503 C   0  0  0  0  0  0  0  0  0  0  0  0
  -23.4344  -24.3400   22.1461 C   0  0  0  0  0  0  0  0  0  0  0  0
  -21.4454  -26.0605   20.7940 C   0  0  0  0  0  0  0  0  0  0  0  0
  -19.4341  -23.2376   26.8036 C   0  0  0  0  0  0  0  0  0  0  0  0
  -30.6167  -18.5637   22.7573 C   0  0  0  0  0  0  0  0  0  0  0  0
  -19.0502  -22.9391   25.3578 C   0  0  0  0  0  0  0  0  0  0  0  0
  -30.2114  -17.1263   22.4230 C   0  0  0  0  0  0  0  0  0  0  0  0
  -29.5454  -19.5677   22.3352 C   0  0  0  0  0  0  0  0  0  0  0  0
  -28.7132  -18.0302   20.5994 C   0  0  0  0  0  0  0  0  0  0  0  0
  -20.2062  -22.2662   24.6078 C   0  0  1  0  0  0  0  0  0  0  0  0
  -22.2664  -24.9647   22.9029 C   0  0  1  0  0  0  0  0  0  0  0  0
  -29.7892  -16.9886   20.9471 C   0  0  2  0  0  0  0  0  0  0  0  0
  -22.0906  -32.5666   21.4253 C   0  0  0  0  0  0  0  0  0  0  0  0
  -18.2930  -27.3243   22.8277 C   0  0  0  0  0  0  0  0  0  0  0  0
  -18.4686  -29.7089   22.0854 C   0  0  0  0  0  0  0  0  0  0  0  0
  -19.2870  -29.0447   24.3463 C   0  0  0  0  0  0  0  0  0  0  0  0
  -24.9404  -30.1674   20.6516 C   0  0  0  0  0  0  0  0  0  0  0  0
  -23.9440  -23.4310   12.2699 C   0  0  0  0  0  0  0  0  0  0  0  0
  -24.1096  -25.9048   12.0976 C   0  0  0  0  0  0  0  0  0  0  0  0
  -26.0900  -24.5718   12.7888 C   0  0  0  0  0  0  0  0  0  0  0  0
  -22.6407  -24.9329   14.4390 C   0  0  0  0  0  0  0  0  0  0  0  0
  -24.1528  -24.8089   14.3277 C   0  0  0  0  0  0  0  0  0  0  0  0
  -22.1365  -25.0181   15.8744 C   0  0  0  0  0  0  0  0  0  1  0  0
  -20.6013  -28.3537   22.3000 C   0  0  1  0  0  0  0  0  0  0  0  0
  -22.8912  -31.2794   21.5476 C   0  0  2  0  0  0  0  0  0  0  0  0
  -19.1759  -28.5873   22.8756 C   0  0  0  0  0  0  0  0  0  0  0  0
  -28.0372  -15.2674   20.7251 N   0  0  0  0  0  0  0  0  0  0  0  0
  -29.3408  -15.5765   20.6200 N   0  0  0  0  0  0  0  0  0  0  0  0
  -21.7311  -26.1530   22.2352 N   0  0  0  0  0  0  0  0  0  0  0  0
  -29.1989  -19.3805   20.9246 N   0  0  0  0  0  0  0  0  0  0  0  0
  -31.4568  -14.6728   20.0576 N   0  0  0  0  0  0  0  0  0  0  0  0
  -28.6498  -11.1794   19.4978 N   0  0  0  0  0  0  0  0  0  0  0  0
  -26.9453  -23.6415   14.8124 N   0  0  0  0  0  0  0  0  0  0  0  0
  -29.0148  -20.1509   18.7031 N   0  0  0  0  0  0  0  0  0  0  0  0
  -21.2045  -23.2453   24.2347 N   0  0  0  0  0  0  0  0  0  0  0  0
  -21.4683  -29.5256   22.3575 N   0  0  0  0  0  0  0  0  0  0  0  0
  -24.0533  -31.3586   20.6180 N   0  3  0  0  0  0  0  0  0  0  0  0
  -24.5630  -24.6825   12.9095 N   0  3  0  0  0  0  0  0  0  0  0  0
  -30.8411  -11.8449   19.3789 O   0  0  0  0  0  0  0  0  0  0  0  0
  -20.2221  -23.9771   22.2543 O   0  0  0  0  0  0  0  0  0  0  0  0
  -21.5613  -27.3553   24.2257 O   0  0  0  0  0  0  0  0  0  0  0  0
  -26.7082  -22.2578   12.9281 O   0  0  0  0  0  0  0  0  0  0  0  0
  -21.8900  -29.6418   20.0802 O   0  0  0  0  0  0  0  0  0  0  0  0
  -29.7566  -21.5594   20.3905 O   0  0  0  0  0  0  0  0  0  0  0  0
  -23.1393  -11.2188   20.3147 O   0  0  0  0  0  0  0  0  0  0  0  0
  -22.5449  -23.8430   16.5735 O   0  0  0  0  0  0  0  0  0  1  0  0
  -23.0281   -6.1744   22.5385 F   0  0  0  0  0  0  0  0  0  0  0  0
  -21.4727  -10.6440   22.4443 F   0  0  0  0  0  0  0  0  0  0  0  0
  1  2  1  0  0  0  0
  1  5  2  0  0  0  0
  2  6  2  0  0  0  0
  3 12  2  0  0  0  0
  3 19  1  0  0  0  0
  4 13  1  0  0  0  0
  4 19  2  0  0  0  0
  5 21  1  0  0  0  0
  6 23  1  0  0  0  0
  7 14  2  0  0  0  0
  7 22  1  0  0  0  0
  8 10  2  0  0  0  0
  8 25  1  0  0  0  0
  9 11  1  0  0  0  0
  9 25  2  0  0  0  0
 10 26  1  0  0  0  0
 11 26  2  0  0  0  0
 12 27  1  0  0  0  0
 13 27  2  0  0  0  0
 14 28  1  0  0  0  0
 15 16  2  0  0  0  0
 15 29  1  0  0  0  0
 16 30  1  0  0  0  0
 17 24  1  0  0  0  0
 17 28  2  0  0  0  0
 18 30  2  0  0  0  0
 18 31  1  0  0  0  0
 19 32  1  0  0  0  0
 20 32  1  0  0  0  0
 20 33  2  0  0  0  0
 20 34  1  0  0  0  0
 21 23  2  0  0  0  0
 21 40  1  0  0  0  0
 22 24  2  0  0  0  0
 22 41  1  0  0  0  0
 23 49  1  0  0  0  0
 24 42  1  0  0  0  0
 25 72  1  0  0  0  0
 26 73  1  0  0  0  0
 27 84  1  0  0  0  0
 28 85  1  0  0  0  0
 29 31  2  0  0  0  0
 29 84  1  0  0  0  0
 30 86  1  0  0  0  0
 31 87  1  0  0  0  0
 32 66  2  0  0  0  0
 33 67  1  0  0  0  0
 33 70  1  0  0  0  0
 34 71  1  0  0  0  0
 34 78  2  0  0  0  0
 35 50  1  0  0  0  0
 35 74  1  0  0  0  0
 35 79  2  0  0  0  0
 36 63  1  0  0  0  0
 36 68  1  0  0  0  0
 36 80  2  0  0  0  0
 37 59  1  0  0  0  0
 37 72  1  0  0  0  0
 37 81  2  0  0  0  0
 38 64  1  0  0  0  0
 38 75  1  0  0  0  0
 38 82  2  0  0  0  0
 39 69  1  0  0  0  0
 39 73  1  0  0  0  0
 39 83  2  0  0  0  0
 40 43  1  0  0  0  0
 41 50  1  0  0  0  0
 42 68  1  0  0  0  0
 43 45  1  0  0  0  0
 44 46  1  0  0  0  0
 44 47  1  0  0  0  0
 45 49  1  0  0  0  0
 46 51  1  0  0  0  0
 47 69  1  0  0  0  0
 48 51  1  0  0  0  0
 48 69  1  0  0  0  0
 49 74  1  0  0  0  0
 50 68  1  0  0  0  0
 51 67  1  0  0  0  0
 52 64  1  0  0  0  0
 53 65  1  0  0  0  0
 54 65  1  0  0  0  0
 55 65  1  0  0  0  0
 56 76  1  0  0  0  0
 57 77  1  0  0  0  0
 58 77  1  0  0  0  0
 59 77  1  0  0  0  0
 60 61  1  0  0  0  0
 60 62  1  0  0  0  0
 61 77  1  0  0  0  0
 62 85  1  0  0  0  0
 63 65  1  0  0  0  0
 63 75  1  0  0  0  0
 64 76  1  0  0  0  0
 66 67  1  0  0  0  0
M  CHG  2  76   1  77   1
M  ISO  4  39 100  62 101  73 100  85 101
M  END
> <Batch ID>
0010

> <Smiles>
CNC(C)C(=O)NC(C(=O)N1Cc2cc([101O:1][101CH2:1]CC[N+](C)(C)CC(=O)Nc3ccc([100NH:0][100C:0](=O)N4CCCC(n5nc(-c6ccc(Oc7ccc(F)cc7F)cc6)c(C(N)=O)c5N)C4)cc3)ccc2CC1C(=O)NC1CCCc2ccccc21)C(C)(C)C

> <Shape>
0.227

> <Color>
0.068

> <Negative vol penalty>
0.000

$$$$

  -OEChem-04052315413D

 84 92  0     1  0  0  0  0  0999 V2000
  -19.5605  -29.6023   26.5039 C   0  0  0  0  0  0  0  0  0  0  0  0
  -20.8500  -29.2069   26.1631 C   0  0  0  0  0  0  0  0  0  0  0  0
  -24.9199  -11.7091   20.7127 C   0  0  0  0  0  0  0  0  0  0  0  0
  -25.3079  -12.6980   22.8827 C   0  0  0  0  0  0  0  0  0  0  0  0
  -18.5179  -29.4353   25.5934 C   0  0  0  0  0  0  0  0  0  0  0  0
  -21.0975  -28.6431   24.9120 C   0  0  0  0  0  0  0  0  0  0  0  0
  -26.1523  -29.2930   21.5159 C   0  0  0  0  0  0  0  0  0  0  0  0
  -25.1445  -10.4417   21.2500 C   0  0  0  0  0  0  0  0  0  0  0  0
  -25.5325  -11.4305   23.4200 C   0  0  0  0  0  0  0  0  0  0  0  0
  -27.2726  -28.4827   21.3370 C   0  0  0  0  0  0  0  0  0  0  0  0
  -23.4342   -8.1761   23.0871 C   0  0  0  0  0  0  0  0  0  0  0  0
  -22.5467   -7.1578   22.7391 C   0  0  0  0  0  0  0  0  0  0  0  0
  -26.2748  -27.5529   19.3472 C   0  0  0  0  0  0  0  0  0  0  0  0
  -29.9296  -21.3357   21.8134 C   0  0  0  0  0  0  0  0  0  0  0  0
  -30.1011  -22.1962   24.0644 C   0  0  0  0  0  0  0  0  0  0  0  0
  -28.8376  -20.1824   23.6340 C   0  0  0  0  0  0  0  0  0  0  0  0
  -24.3703   -5.8960   21.7803 C   0  0  0  0  0  0  0  0  0  0  0  0
  -25.0016  -12.8373   21.5290 C   0  0  0  0  0  0  0  0  0  0  0  0
  -23.5409  -14.8269   20.8845 C   0  0  0  0  0  0  0  0  0  0  0  0
  -18.7545  -28.8781   24.3268 C   0  0  0  0  0  0  0  0  0  0  0  0
  -25.0783  -29.2313   20.6164 C   0  0  0  0  0  0  0  0  0  0  0  0
  -20.0569  -28.4673   23.9842 C   0  0  0  0  0  0  0  0  0  0  0  0
  -25.1431  -28.3653   19.5156 C   0  0  0  0  0  0  0  0  0  0  0  0
  -30.4079  -22.2937   22.7072 C   0  0  0  0  0  0  0  0  0  0  0  0
  -29.1443  -20.2800   22.2768 C   0  0  0  0  0  0  0  0  0  0  0  0
  -25.4508  -10.3024   22.6037 C   0  0  0  0  0  0  0  0  0  0  0  0
  -27.3328  -27.6104   20.2541 C   0  0  0  0  0  0  0  0  0  0  0  0
  -24.7898   -8.0543   22.7816 C   0  0  0  0  0  0  0  0  0  0  0  0
  -29.3159  -21.1405   24.5279 C   0  0  0  0  0  0  0  0  0  0  0  0
  -23.0147   -6.0178   22.0858 C   0  0  0  0  0  0  0  0  0  0  0  0
  -25.2579   -6.9143   22.1283 C   0  0  0  0  0  0  0  0  0  0  0  0
  -24.7702  -14.1469   20.9744 C   0  0  0  0  0  0  0  0  0  0  0  0
  -23.8530  -16.0225   20.2848 C   0  0  0  0  0  0  0  0  0  0  0  0
  -22.2338  -14.4148   21.3055 C   0  0  0  0  0  0  0  0  0  0  0  0
  -22.0037  -28.4572   20.8437 C   0  0  0  0  0  0  0  0  0  0  0  0
  -21.9257  -29.4555   17.7583 C   0  0  0  0  0  0  0  0  0  0  0  0
  -29.8066  -25.0758   21.0313 C   0  0  0  0  0  0  0  0  0  0  0  0
  -23.6223  -30.0151   14.8505 C   0  0  0  0  0  0  0  0  0  0  0  0
  -28.8696  -19.2557   19.9918 C   0  0  0  0  0  0  0  0  0  0  0  0
  -17.5871  -28.6740   23.3940 C   0  0  0  0  0  0  0  0  0  0  0  0
  -23.8885  -30.1313   20.8086 C   0  0  0  0  0  0  0  0  0  0  0  0
  -24.0254  -28.2759   18.5100 C   0  0  0  0  0  0  0  0  0  0  0  0
  -18.0012  -28.4133   21.9480 C   0  0  0  0  0  0  0  0  0  0  0  0
  -26.9946  -17.9806   17.2466 C   0  0  0  0  0  0  0  0  0  0  0  0
  -19.1195  -27.3775   21.8914 C   0  0  0  0  0  0  0  0  0  0  0  0
  -26.0952  -16.9189   17.8839 C   0  0  0  0  0  0  0  0  0  0  0  0
  -28.3773  -18.0160   17.8951 C   0  0  0  0  0  0  0  0  0  0  0  0
  -27.4747  -17.0947   19.9941 C   0  0  0  0  0  0  0  0  0  0  0  0
  -20.3697  -27.8746   22.6273 C   0  0  1  0  0  0  0  0  0  0  0  0
  -22.6303  -29.6141   20.1179 C   0  0  1  0  0  0  0  0  0  0  0  0
  -26.0498  -17.0655   19.4175 C   0  0  2  0  0  0  0  0  0  0  0  0
  -23.2819  -30.7971   12.4904 C   0  0  0  0  0  0  0  0  0  0  0  0
  -20.6693  -26.7665   17.0510 C   0  0  0  0  0  0  0  0  0  0  0  0
  -21.2269  -27.2157   14.6519 C   0  0  0  0  0  0  0  0  0  0  0  0
  -19.6644  -28.7298   15.8721 C   0  0  0  0  0  0  0  0  0  0  0  0
  -25.4712  -32.2968   15.2170 C   0  0  0  0  0  0  0  0  0  0  0  0
  -29.5376  -22.0594   26.7101 C   0  0  0  0  0  0  0  0  0  0  0  0
  -31.2529  -23.4302   22.2086 C   0  0  0  0  0  0  0  0  0  0  0  0
  -29.1292  -26.4117   21.2502 C   0  0  0  0  0  0  0  0  0  1  0  0
  -22.1325  -28.7966   16.4159 C   0  0  1  0  0  0  0  0  0  0  0  0
  -23.6433  -31.2063   13.9098 C   0  0  2  0  0  0  0  0  0  0  0  0
  -20.9437  -27.8772   16.0176 C   0  0  0  0  0  0  0  0  0  0  0  0
  -25.7874  -14.8517   20.4718 N   0  0  0  0  0  0  0  0  0  0  0  0
  -25.1978  -15.9872   20.0604 N   0  0  0  0  0  0  0  0  0  0  0  0
  -22.8808  -29.1715   18.7447 N   0  0  0  0  0  0  0  0  0  0  0  0
  -28.2556  -18.1608   19.3474 N   0  0  0  0  0  0  0  0  0  0  0  0
  -23.1055  -17.0901   19.9328 N   0  0  0  0  0  0  0  0  0  0  0  0
  -22.0908  -13.1556   21.9041 N   0  0  0  0  0  0  0  0  0  0  0  0
  -28.6581  -19.3066   21.3692 N   0  0  0  0  0  0  0  0  0  0  0  0
  -21.0903  -28.8286   21.8118 N   0  0  0  0  0  0  0  0  0  0  0  0
  -30.5131  -24.6698   22.1526 N   0  0  0  0  0  0  0  0  0  0  0  0
  -22.3979  -29.8742   15.4689 N   0  0  0  0  0  0  0  0  0  0  0  0
  -24.9983  -31.8264   13.8895 N   0  3  0  0  0  0  0  0  0  0  0  0
  -21.2200  -15.1348   21.1405 O   0  0  0  0  0  0  0  0  0  0  0  0
  -22.3240  -27.3124   20.5463 O   0  0  0  0  0  0  0  0  0  0  0  0
  -20.9566  -30.2006   17.9234 O   0  0  0  0  0  0  0  0  0  0  0  0
  -29.7223  -24.4530   19.9763 O   0  0  0  0  0  0  0  0  0  0  0  0
  -24.5935  -29.2806   15.0170 O   0  0  0  0  0  0  0  0  0  0  0  0
  -29.5112  -20.1018   19.3638 O   0  0  0  0  0  0  0  0  0  0  0  0
  -25.6698   -9.0658   23.1284 O   0  0  0  0  0  0  0  0  0  0  0  0
  -29.0163  -21.0456   25.8521 O   0  0  0  0  0  0  0  0  0  0  0  0
  -28.4249  -26.8180   20.0774 O   0  0  0  0  0  0  0  0  0  1  0  0
  -22.1626   -5.0394   21.7531 F   0  0  0  0  0  0  0  0  0  0  0  0
  -26.5592   -6.7911   21.8333 F   0  0  0  0  0  0  0  0  0  0  0  0
  1  2  1  0  0  0  0
  1  5  2  0  0  0  0
  2  6  2  0  0  0  0
  3  8  2  0  0  0  0
  3 18  1  0  0  0  0
  4  9  1  0  0  0  0
  4 18  2  0  0  0  0
  5 20  1  0  0  0  0
  6 22  1  0  0  0  0
  7 10  2  0  0  0  0
  7 21  1  0  0  0  0
  8 26  1  0  0  0  0
  9 26  2  0  0  0  0
 10 27  1  0  0  0  0
 11 12  2  0  0  0  0
 11 28  1  0  0  0  0
 12 30  1  0  0  0  0
 13 23  1  0  0  0  0
 13 27  2  0  0  0  0
 14 24  1  0  0  0  0
 14 25  2  0  0  0  0
 15 24  2  0  0  0  0
 15 29  1  0  0  0  0
 16 25  1  0  0  0  0
 16 29  2  0  0  0  0
 17 30  2  0  0  0  0
 17 31  1  0  0  0  0
 18 32  1  0  0  0  0
 19 32  1  0  0  0  0
 19 33  2  0  0  0  0
 19 34  1  0  0  0  0
 20 22  2  0  0  0  0
 20 40  1  0  0  0  0
 21 23  2  0  0  0  0
 21 41  1  0  0  0  0
 22 49  1  0  0  0  0
 23 42  1  0  0  0  0
 24 58  1  0  0  0  0
 25 69  1  0  0  0  0
 26 80  1  0  0  0  0
 27 82  1  0  0  0  0
 28 31  2  0  0  0  0
 28 80  1  0  0  0  0
 29 81  1  0  0  0  0
 30 83  1  0  0  0  0
 31 84  1  0  0  0  0
 32 63  2  0  0  0  0
 33 64  1  0  0  0  0
 33 67  1  0  0  0  0
 34 68  1  0  0  0  0
 34 74  2  0  0  0  0
 35 50  1  0  0  0  0
 35 70  1  0  0  0  0
 35 75  2  0  0  0  0
 36 60  1  0  0  0  0
 36 65  1  0  0  0  0
 36 76  2  0  0  0  0
 37 59  1  0  0  0  0
 37 71  1  0  0  0  0
 37 77  2  0  0  0  0
 38 61  1  0  0  0  0
 38 72  1  0  0  0  0
 38 78  2  0  0  0  0
 39 66  1  0  0  0  0
 39 69  1  0  0  0  0
 39 79  2  0  0  0  0
 40 43  1  0  0  0  0
 41 50  1  0  0  0  0
 42 65  1  0  0  0  0
 43 45  1  0  0  0  0
 44 46  1  0  0  0  0
 44 47  1  0  0  0  0
 45 49  1  0  0  0  0
 46 51  1  0  0  0  0
 47 66  1  0  0  0  0
 48 51  1  0  0  0  0
 48 66  1  0  0  0  0
 49 70  1  0  0  0  0
 50 65  1  0  0  0  0
 51 64  1  0  0  0  0
 52 61  1  0  0  0  0
 53 62  1  0  0  0  0
 54 62  1  0  0  0  0
 55 62  1  0  0  0  0
 56 73  1  0  0  0  0
 57 81  1  0  0  0  0
 58 71  1  0  0  0  0
 59 82  1  0  0  0  0
 60 62  1  0  0  0  0
 60 72  1  0  0  0  0
 61 73  1  0  0  0  0
 63 64  1  0  0  0  0
M  CHG  1  73   1
M  ISO  4  39 100  59 101  69 100  82 101
M  END
> <Batch ID>
0010

> <Smiles>
CNC(C)C(=O)NC(C(=O)N1Cc2cc([101O:1][101CH2:1]C(=O)NCc3cc([100NH:0][100C:0](=O)N4CCCC(n5nc(-c6ccc(Oc7ccc(F)cc7F)cc6)c(C(N)=O)c5N)C4)cc(OC)c3)ccc2CC1C(=O)NC1CCCc2ccccc21)C(C)(C)C

> <Shape>
0.231

> <Color>
0.107

> <Negative vol penalty>
0.000

$$$$

  -OEChem-04052315413D

 81 89  0     1  0  0  0  0  0999 V2000
  -27.4111  -24.0520   17.1374 C   0  0  0  0  0  0  0  0  0  0  0  0
  -26.3616  -24.9193   17.4189 C   0  0  0  0  0  0  0  0  0  0  0  0
  -27.4921  -16.0840   21.6963 C   0  0  0  0  0  0  0  0  0  0  0  0
  -25.9079  -16.8496   20.0406 C   0  0  0  0  0  0  0  0  0  0  0  0
  -28.5072  -23.9889   17.9952 C   0  0  0  0  0  0  0  0  0  0  0  0
  -26.4132  -25.7323   18.5517 C   0  0  0  0  0  0  0  0  0  0  0  0
  -22.8488  -29.0848   19.0610 C   0  0  0  0  0  0  0  0  0  0  0  0
  -20.4267  -22.7897   21.8536 C   0  0  0  0  0  0  0  0  0  0  0  0
  -27.5092  -14.8243   21.0974 C   0  0  0  0  0  0  0  0  0  0  0  0
  -25.9251  -15.5900   19.4417 C   0  0  0  0  0  0  0  0  0  0  0  0
  -21.5368  -28.7461   19.3890 C   0  0  0  0  0  0  0  0  0  0  0  0
  -28.9387  -13.3669   18.4020 C   0  0  0  0  0  0  0  0  0  0  0  0
  -30.1787  -12.7589   18.2065 C   0  0  0  0  0  0  0  0  0  0  0  0
  -19.7500  -23.8765   21.3110 C   0  0  0  0  0  0  0  0  0  0  0  0
  -21.9168  -29.4900   21.6520 C   0  0  0  0  0  0  0  0  0  0  0  0
  -29.4880  -10.9046   19.5927 C   0  0  0  0  0  0  0  0  0  0  0  0
  -20.4550  -23.9186   23.9467 C   0  0  0  0  0  0  0  0  0  0  0  0
  -26.6914  -17.0966   21.1679 C   0  0  0  0  0  0  0  0  0  0  0  0
  -27.5091  -19.4912   21.4916 C   0  0  0  0  0  0  0  0  0  0  0  0
  -28.5658  -24.7928   19.1455 C   0  0  0  0  0  0  0  0  0  0  0  0
  -23.7095  -29.6195   20.0305 C   0  0  0  0  0  0  0  0  0  0  0  0
  -27.5218  -25.7005   19.4169 C   0  0  0  0  0  0  0  0  0  0  0  0
  -23.2385  -29.8371   21.3332 C   0  0  0  0  0  0  0  0  0  0  0  0
  -20.7896  -22.8034   23.1957 C   0  0  0  0  0  0  0  0  0  0  0  0
  -26.7257  -14.5773   19.9701 C   0  0  0  0  0  0  0  0  0  0  0  0
  -21.0714  -28.9460   20.6854 C   0  0  0  0  0  0  0  0  0  0  0  0
  -27.9733  -12.7438   19.1929 C   0  0  0  0  0  0  0  0  0  0  0  0
  -30.4533  -11.5277   18.8018 C   0  0  0  0  0  0  0  0  0  0  0  0
  -28.2479  -11.5127   19.7882 C   0  0  0  0  0  0  0  0  0  0  0  0
  -26.6728  -18.3978   21.7864 C   0  0  0  0  0  0  0  0  0  0  0  0
  -19.4618  -24.9437   22.1464 C   0  0  0  0  0  0  0  0  0  0  0  0
  -27.0930  -20.4822   22.3468 C   0  0  0  0  0  0  0  0  0  0  0  0
  -28.5674  -19.6013   20.5306 C   0  0  0  0  0  0  0  0  0  0  0  0
  -26.4537  -28.7009   21.3455 C   0  0  0  0  0  0  0  0  0  0  0  0
  -26.3113  -31.6235   22.7456 C   0  0  0  0  0  0  0  0  0  0  0  0
  -24.3932  -34.2485   23.7835 C   0  0  0  0  0  0  0  0  0  0  0  0
  -21.9054  -21.5868   25.0987 C   0  0  0  0  0  0  0  0  0  0  0  0
  -29.7794  -24.6898   20.0353 C   0  0  0  0  0  0  0  0  0  0  0  0
  -25.1139  -30.0046   19.6540 C   0  0  0  0  0  0  0  0  0  0  0  0
  -24.1163  -30.4270   22.4056 C   0  0  0  0  0  0  0  0  0  0  0  0
  -29.5430  -25.2568   21.4313 C   0  0  0  0  0  0  0  0  0  0  0  0
  -25.0782  -21.1175   26.6446 C   0  0  0  0  0  0  0  0  0  0  0  0
  -28.9194  -26.6409   21.3314 C   0  0  0  0  0  0  0  0  0  0  0  0
  -25.9251  -20.4718   25.5455 C   0  0  0  0  0  0  0  0  0  0  0  0
  -23.6316  -20.6279   26.6072 C   0  0  0  0  0  0  0  0  0  0  0  0
  -23.8130  -20.1109   24.2054 C   0  0  0  0  0  0  0  0  0  0  0  0
  -27.5421  -26.5721   20.6596 C   0  0  1  0  0  0  0  0  0  0  0  0
  -26.0585  -30.0634   20.8505 C   0  0  1  0  0  0  0  0  0  0  0  0
  -25.2623  -20.6219   24.1620 C   0  0  2  0  0  0  0  0  0  0  0  0
  -24.5559  -36.4759   24.9278 C   0  0  0  0  0  0  0  0  0  0  0  0
  -26.6614  -30.2161   25.4302 C   0  0  0  0  0  0  0  0  0  0  0  0
  -25.8750  -32.3115   26.5523 C   0  0  0  0  0  0  0  0  0  0  0  0
  -27.9627  -32.3380   25.1871 C   0  0  0  0  0  0  0  0  0  0  0  0
  -18.4037  -26.0107   20.1710 C   0  0  0  0  0  0  0  0  0  0  0  0
  -23.3161  -35.6705   21.4220 C   0  0  0  0  0  0  0  0  0  0  0  0
  -18.4229  -27.1859   22.3772 C   0  0  0  0  0  0  0  0  0  0  0  0
  -19.5451  -28.2102   22.3542 C   0  0  0  0  0  0  0  0  0  1  0  0
  -25.7238  -32.1686   24.0249 C   0  0  1  0  0  0  0  0  0  0  0  0
  -24.5483  -35.7465   23.5934 C   0  0  2  0  0  0  0  0  0  0  0  0
  -26.5395  -31.7456   25.2792 C   0  0  0  0  0  0  0  0  0  0  0  0
  -19.7981  -24.9930   23.4549 N   0  0  0  0  0  0  0  0  0  0  0  0
  -25.7921  -18.6683   22.7535 N   0  0  0  0  0  0  0  0  0  0  0  0
  -26.0727  -19.9430   23.0738 N   0  0  0  0  0  0  0  0  0  0  0  0
  -25.4834  -30.7814   21.9898 N   0  0  0  0  0  0  0  0  0  0  0  0
  -23.0679  -20.8053   25.2672 N   0  0  0  0  0  0  0  0  0  0  0  0
  -27.5040  -21.7534   22.5403 N   0  0  0  0  0  0  0  0  0  0  0  0
  -28.8640  -18.4877   19.7329 N   0  0  0  0  0  0  0  0  0  0  0  0
  -21.4808  -21.7112   23.7763 N   0  0  0  0  0  0  0  0  0  0  0  0
  -27.0783  -27.9162   20.3949 N   0  0  0  0  0  0  0  0  0  0  0  0
  -25.6150  -33.6119   23.8417 N   0  0  0  0  0  0  0  0  0  0  0  0
  -18.7807  -26.0318   21.5847 N   0  0  3  0  0  0  0  0  0  0  0  0
  -23.4273  -36.2831   22.7709 N   0  3  0  0  0  0  0  0  0  0  0  0
  -29.2412  -20.6506   20.3949 O   0  0  0  0  0  0  0  0  0  0  0  0
  -26.2112  -28.3854   22.5046 O   0  0  0  0  0  0  0  0  0  0  0  0
  -27.4599  -31.9391   22.4251 O   0  0  0  0  0  0  0  0  0  0  0  0
  -23.2980  -33.6985   23.8753 O   0  0  0  0  0  0  0  0  0  0  0  0
  -21.3444  -22.1299   26.0539 O   0  0  0  0  0  0  0  0  0  0  0  0
  -26.7424  -13.3484   19.3854 O   0  0  0  0  0  0  0  0  0  0  0  0
  -19.7914  -28.6156   21.0083 O   0  0  0  0  0  0  0  0  0  1  0  0
  -31.6436  -10.9432   18.6127 F   0  0  0  0  0  0  0  0  0  0  0  0
  -27.3241  -10.9086   20.5481 F   0  0  0  0  0  0  0  0  0  0  0  0
  1  2  1  0  0  0  0
  1  5  2  0  0  0  0
  2  6  2  0  0  0  0
  3  9  2  0  0  0  0
  3 18  1  0  0  0  0
  4 10  1  0  0  0  0
  4 18  2  0  0  0  0
  5 20  1  0  0  0  0
  6 22  1  0  0  0  0
  7 11  2  0  0  0  0
  7 21  1  0  0  0  0
  8 14  2  0  0  0  0
  8 24  1  0  0  0  0
  9 25  1  0  0  0  0
 10 25  2  0  0  0  0
 11 26  1  0  0  0  0
 12 13  2  0  0  0  0
 12 27  1  0  0  0  0
 13 28  1  0  0  0  0
 14 31  1  0  0  0  0
 15 23  1  0  0  0  0
 15 26  2  0  0  0  0
 16 28  2  0  0  0  0
 16 29  1  0  0  0  0
 17 24  2  0  0  0  0
 17 61  1  0  0  0  0
 18 30  1  0  0  0  0
 19 30  1  0  0  0  0
 19 32  2  0  0  0  0
 19 33  1  0  0  0  0
 20 22  2  0  0  0  0
 20 38  1  0  0  0  0
 21 23  2  0  0  0  0
 21 39  1  0  0  0  0
 22 47  1  0  0  0  0
 23 40  1  0  0  0  0
 24 68  1  0  0  0  0
 25 78  1  0  0  0  0
 26 79  1  0  0  0  0
 27 29  2  0  0  0  0
 27 78  1  0  0  0  0
 28 80  1  0  0  0  0
 29 81  1  0  0  0  0
 30 62  2  0  0  0  0
 31 61  2  0  0  0  0
 31 71  1  0  0  0  0
 32 63  1  0  0  0  0
 32 66  1  0  0  0  0
 33 67  1  0  0  0  0
 33 73  2  0  0  0  0
 34 48  1  0  0  0  0
 34 69  1  0  0  0  0
 34 74  2  0  0  0  0
 35 58  1  0  0  0  0
 35 64  1  0  0  0  0
 35 75  2  0  0  0  0
 36 59  1  0  0  0  0
 36 70  1  0  0  0  0
 36 76  2  0  0  0  0
 37 65  1  0  0  0  0
 37 68  1  0  0  0  0
 37 77  2  0  0  0  0
 38 41  1  0  0  0  0
 39 48  1  0  0  0  0
 40 64  1  0  0  0  0
 41 43  1  0  0  0  0
 42 44  1  0  0  0  0
 42 45  1  0  0  0  0
 43 47  1  0  0  0  0
 44 49  1  0  0  0  0
 45 65  1  0  0  0  0
 46 49  1  0  0  0  0
 46 65  1  0  0  0  0
 47 69  1  0  0  0  0
 48 64  1  0  0  0  0
 49 63  1  0  0  0  0
 50 59  1  0  0  0  0
 51 60  1  0  0  0  0
 52 60  1  0  0  0  0
 53 60  1  0  0  0  0
 54 71  1  0  0  0  0
 55 72  1  0  0  0  0
 56 57  1  0  0  0  0
 56 71  1  0  0  0  0
 57 79  1  0  0  0  0
 58 60  1  0  0  0  0
 58 70  1  0  0  0  0
 59 72  1  0  0  0  0
 62 63  1  0  0  0  0
M  CHG  1  72   1
M  ISO  4  37 100  57 101  68 100  79 101
M  END
> <Batch ID>
0010

> <Smiles>
CNC(C)C(=O)NC(C(=O)N1Cc2cc([101O:1][101CH2:1]CN(C)c3ccc([100NH:0][100C:0](=O)N4CCCC(n5nc(-c6ccc(Oc7ccc(F)cc7F)cc6)c(C(N)=O)c5N)C4)cn3)ccc2CC1C(=O)NC1CCCc2ccccc21)C(C)(C)C

> <Shape>
0.294

> <Color>
0.078

> <Negative vol penalty>
0.000

$$$$

  -OEChem-04052315413D

 84 92  0     1  0  0  0  0  0999 V2000
  -26.8764  -22.6456   18.1647 C   0  0  0  0  0  0  0  0  0  0  0  0
  -25.7233  -23.2867   18.6061 C   0  0  0  0  0  0  0  0  0  0  0  0
  -27.6113  -14.7806   22.2401 C   0  0  0  0  0  0  0  0  0  0  0  0
  -26.0976  -15.6248   20.5570 C   0  0  0  0  0  0  0  0  0  0  0  0
  -28.0950  -22.8929   18.7953 C   0  0  0  0  0  0  0  0  0  0  0  0
  -25.7881  -24.1748   19.6791 C   0  0  0  0  0  0  0  0  0  0  0  0
  -23.1896  -28.4381   18.8320 C   0  0  0  0  0  0  0  0  0  0  0  0
  -20.3394  -23.7439   23.4510 C   0  0  0  0  0  0  0  0  0  0  0  0
  -21.5977  -23.2879   23.8438 C   0  0  0  0  0  0  0  0  0  0  0  0
  -27.1969  -13.4786   21.9597 C   0  0  0  0  0  0  0  0  0  0  0  0
  -25.6832  -14.3228   20.2765 C   0  0  0  0  0  0  0  0  0  0  0  0
  -21.8040  -28.3782   18.9745 C   0  0  0  0  0  0  0  0  0  0  0  0
  -23.6082  -12.0226   21.6308 C   0  0  0  0  0  0  0  0  0  0  0  0
  -22.2390  -11.7932   21.4952 C   0  0  0  0  0  0  0  0  0  0  0  0
  -21.9929  -29.3666   21.1669 C   0  0  0  0  0  0  0  0  0  0  0  0
  -20.8069  -23.0752   21.1769 C   0  0  0  0  0  0  0  0  0  0  0  0
  -22.5922  -11.0221   19.2330 C   0  0  0  0  0  0  0  0  0  0  0  0
  -27.0616  -15.8537   21.5388 C   0  0  0  0  0  0  0  0  0  0  0  0
  -28.5496  -17.9021   21.2267 C   0  0  0  0  0  0  0  0  0  0  0  0
  -28.1765  -23.7919   19.8704 C   0  0  0  0  0  0  0  0  0  0  0  0
  -23.9895  -28.9535   19.8620 C   0  0  0  0  0  0  0  0  0  0  0  0
  -27.0087  -24.4334   20.3256 C   0  0  0  0  0  0  0  0  0  0  0  0
  -23.3882  -29.4343   21.0339 C   0  0  0  0  0  0  0  0  0  0  0  0
  -19.9440  -23.6375   22.1176 C   0  0  0  0  0  0  0  0  0  0  0  0
  -22.4606  -22.7255   22.9032 C   0  0  0  0  0  0  0  0  0  0  0  0
  -26.2329  -13.2496   20.9779 C   0  0  0  0  0  0  0  0  0  0  0  0
  -21.2057  -28.8398   20.1432 C   0  0  0  0  0  0  0  0  0  0  0  0
  -24.4694  -11.7518   20.5675 C   0  0  0  0  0  0  0  0  0  0  0  0
  -21.7310  -11.2930   20.2963 C   0  0  0  0  0  0  0  0  0  0  0  0
  -22.0653  -22.6191   21.5698 C   0  0  0  0  0  0  0  0  0  0  0  0
  -23.9614  -11.2515   19.3686 C   0  0  0  0  0  0  0  0  0  0  0  0
  -27.4888  -17.1990   21.8284 C   0  0  0  0  0  0  0  0  0  0  0  0
  -28.5438  -19.1282   21.8458 C   0  0  0  0  0  0  0  0  0  0  0  0
  -29.4590  -17.4844   20.2000 C   0  0  0  0  0  0  0  0  0  0  0  0
  -26.2932  -27.7825   21.7129 C   0  0  0  0  0  0  0  0  0  0  0  0
  -26.5121  -30.8584   22.7196 C   0  0  0  0  0  0  0  0  0  0  0  0
  -18.1549  -26.4756   20.9764 C   0  0  0  0  0  0  0  0  0  0  0  0
  -25.0010  -33.8932   23.1111 C   0  0  0  0  0  0  0  0  0  0  0  0
  -24.2836  -22.2961   24.5881 C   0  0  0  0  0  0  0  0  0  0  0  0
  -29.5077  -23.9912   20.5508 C   0  0  0  0  0  0  0  0  0  0  0  0
  -25.4805  -29.0358   19.6819 C   0  0  0  0  0  0  0  0  0  0  0  0
  -24.2006  -30.0156   22.1611 C   0  0  0  0  0  0  0  0  0  0  0  0
  -29.5576  -25.2308   21.4401 C   0  0  0  0  0  0  0  0  0  0  0  0
  -27.3763  -21.2252   25.9899 C   0  0  0  0  0  0  0  0  0  0  0  0
  -28.3141  -25.3068   22.3203 C   0  0  0  0  0  0  0  0  0  0  0  0
  -27.8557  -20.1394   25.0238 C   0  0  0  0  0  0  0  0  0  0  0  0
  -25.8590  -21.1985   26.1655 C   0  0  0  0  0  0  0  0  0  0  0  0
  -25.5679  -20.1609   23.9501 C   0  0  0  0  0  0  0  0  0  0  0  0
  -27.0429  -25.4224   21.4705 C   0  0  1  0  0  0  0  0  0  0  0  0
  -26.2391  -29.1061   21.0037 C   0  0  1  0  0  0  0  0  0  0  0  0
  -27.0830  -20.1899   23.6911 C   0  0  2  0  0  0  0  0  0  0  0  0
  -25.4203  -36.2026   23.9990 C   0  0  0  0  0  0  0  0  0  0  0  0
  -26.2025  -29.8159   25.5704 C   0  0  0  0  0  0  0  0  0  0  0  0
  -25.6778  -32.1545   26.2943 C   0  0  0  0  0  0  0  0  0  0  0  0
  -27.9049  -31.6281   25.3014 C   0  0  0  0  0  0  0  0  0  0  0  0
  -24.5614  -35.1202   20.4540 C   0  0  0  0  0  0  0  0  0  0  0  0
  -18.5901  -24.1294   21.6943 C   0  0  0  0  0  0  0  0  0  0  0  0
  -18.0227  -27.8751   21.5565 C   0  0  0  0  0  0  0  0  0  0  0  0
  -19.3457  -28.6235   21.6094 C   0  0  0  0  0  0  0  0  0  1  0  0
  -25.8632  -31.6748   23.8110 C   0  0  1  0  0  0  0  0  0  0  0  0
  -25.4639  -35.2996   22.7761 C   0  0  2  0  0  0  0  0  0  0  0  0
  -26.3966  -31.3056   25.2240 C   0  0  0  0  0  0  0  0  0  0  0  0
  -26.8552  -17.9184   22.7584 N   0  0  0  0  0  0  0  0  0  0  0  0
  -27.5198  -19.0864   22.7458 N   0  0  0  0  0  0  0  0  0  0  0  0
  -25.6552  -30.0686   21.9400 N   0  0  0  0  0  0  0  0  0  0  0  0
  -25.1940  -21.2535   24.8618 N   0  0  0  0  0  0  0  0  0  0  0  0
  -29.3146  -20.2271   21.7027 N   0  0  0  0  0  0  0  0  0  0  0  0
  -29.3248  -16.1923   19.6737 N   0  0  0  0  0  0  0  0  0  0  0  0
  -23.7385  -22.2635   23.3050 N   0  0  0  0  0  0  0  0  0  0  0  0
  -26.8858  -26.7739   20.9773 N   0  0  0  0  0  0  0  0  0  0  0  0
  -18.4175  -25.5384   21.9652 N   0  0  0  0  0  0  0  0  0  0  0  0
  -26.0583  -33.0736   23.4453 N   0  0  0  0  0  0  0  0  0  0  0  0
  -24.5941  -35.8938   21.7219 N   0  3  0  0  0  0  0  0  0  0  0  0
  -30.3742  -18.2288   19.7737 O   0  0  0  0  0  0  0  0  0  0  0  0
  -25.8327  -27.6840   22.8442 O   0  0  0  0  0  0  0  0  0  0  0  0
  -27.7335  -30.9246   22.5598 O   0  0  0  0  0  0  0  0  0  0  0  0
  -18.0396  -26.2292   19.7790 O   0  0  0  0  0  0  0  0  0  0  0  0
  -23.8194  -33.5564   23.0830 O   0  0  0  0  0  0  0  0  0  0  0  0
  -24.0285  -23.1701   25.4205 O   0  0  0  0  0  0  0  0  0  0  0  0
  -25.8285  -11.9792   20.7039 O   0  0  0  0  0  0  0  0  0  0  0  0
  -19.8535  -28.7819   20.2852 O   0  0  0  0  0  0  0  0  0  1  0  0
  -20.4164  -11.0713   20.1668 F   0  0  0  0  0  0  0  0  0  0  0  0
  -22.8871  -22.0817   20.6569 F   0  0  0  0  0  0  0  0  0  0  0  0
  -24.7839  -10.9883   18.3439 F   0  0  0  0  0  0  0  0  0  0  0  0
  1  2  1  0  0  0  0
  1  5  2  0  0  0  0
  2  6  2  0  0  0  0
  3 10  2  0  0  0  0
  3 18  1  0  0  0  0
  4 11  1  0  0  0  0
  4 18  2  0  0  0  0
  5 20  1  0  0  0  0
  6 22  1  0  0  0  0
  7 12  2  0  0  0  0
  7 21  1  0  0  0  0
  8  9  2  0  0  0  0
  8 24  1  0  0  0  0
  9 25  1  0  0  0  0
 10 26  1  0  0  0  0
 11 26  2  0  0  0  0
 12 27  1  0  0  0  0
 13 14  2  0  0  0  0
 13 28  1  0  0  0  0
 14 29  1  0  0  0  0
 15 23  1  0  0  0  0
 15 27  2  0  0  0  0
 16 24  2  0  0  0  0
 16 30  1  0  0  0  0
 17 29  2  0  0  0  0
 17 31  1  0  0  0  0
 18 32  1  0  0  0  0
 19 32  1  0  0  0  0
 19 33  2  0  0  0  0
 19 34  1  0  0  0  0
 20 22  2  0  0  0  0
 20 40  1  0  0  0  0
 21 23  2  0  0  0  0
 21 41  1  0  0  0  0
 22 49  1  0  0  0  0
 23 42  1  0  0  0  0
 24 57  1  0  0  0  0
 25 30  2  0  0  0  0
 25 69  1  0  0  0  0
 26 80  1  0  0  0  0
 27 81  1  0  0  0  0
 28 31  2  0  0  0  0
 28 80  1  0  0  0  0
 29 82  1  0  0  0  0
 30 83  1  0  0  0  0
 31 84  1  0  0  0  0
 32 63  2  0  0  0  0
 33 64  1  0  0  0  0
 33 67  1  0  0  0  0
 34 68  1  0  0  0  0
 34 74  2  0  0  0  0
 35 50  1  0  0  0  0
 35 70  1  0  0  0  0
 35 75  2  0  0  0  0
 36 60  1  0  0  0  0
 36 65  1  0  0  0  0
 36 76  2  0  0  0  0
 37 58  1  0  0  0  0
 37 71  1  0  0  0  0
 37 77  2  0  0  0  0
 38 61  1  0  0  0  0
 38 72  1  0  0  0  0
 38 78  2  0  0  0  0
 39 66  1  0  0  0  0
 39 69  1  0  0  0  0
 39 79  2  0  0  0  0
 40 43  1  0  0  0  0
 41 50  1  0  0  0  0
 42 65  1  0  0  0  0
 43 45  1  0  0  0  0
 44 46  1  0  0  0  0
 44 47  1  0  0  0  0
 45 49  1  0  0  0  0
 46 51  1  0  0  0  0
 47 66  1  0  0  0  0
 48 51  1  0  0  0  0
 48 66  1  0  0  0  0
 49 70  1  0  0  0  0
 50 65  1  0  0  0  0
 51 64  1  0  0  0  0
 52 61  1  0  0  0  0
 53 62  1  0  0  0  0
 54 62  1  0  0  0  0
 55 62  1  0  0  0  0
 56 73  1  0  0  0  0
 57 71  1  0  0  0  0
 58 59  1  0  0  0  0
 59 81  1  0  0  0  0
 60 62  1  0  0  0  0
 60 72  1  0  0  0  0
 61 73  1  0  0  0  0
 63 64  1  0  0  0  0
M  CHG  1  73   1
M  ISO  4  39 100  59 101  69 100  81 101
M  END
> <Batch ID>
0010

> <Smiles>
CNC(C)C(=O)NC(C(=O)N1Cc2cc([101O:1][101CH2:1]CC(=O)NCc3ccc([100NH:0][100C:0](=O)N4CCCC(n5nc(-c6ccc(Oc7ccc(F)cc7F)cc6)c(C(N)=O)c5N)C4)c(F)c3)ccc2CC1C(=O)NC1CCCc2ccccc21)C(C)(C)C

> <Shape>
0.245

> <Color>
0.067

> <Negative vol penalty>
0.000

$$$$

  -OEChem-04052315413D

 85 93  0     1  0  0  0  0  0999 V2000
  -23.0078  -24.6667   28.7317 C   0  0  0  0  0  0  0  0  0  0  0  0
  -24.2383  -24.1875   28.2942 C   0  0  0  0  0  0  0  0  0  0  0  0
  -23.0756   -9.8669   19.9418 C   0  0  0  0  0  0  0  0  0  0  0  0
  -23.8339   -9.8760   22.2357 C   0  0  0  0  0  0  0  0  0  0  0  0
  -22.1448  -25.2918   27.8326 C   0  0  0  0  0  0  0  0  0  0  0  0
  -24.6062  -24.3321   26.9569 C   0  0  0  0  0  0  0  0  0  0  0  0
  -29.3846  -25.9196   26.4172 C   0  0  0  0  0  0  0  0  0  0  0  0
  -32.6656  -17.4769   23.4387 C   0  0  0  0  0  0  0  0  0  0  0  0
  -32.0642  -16.5969   22.5390 C   0  0  0  0  0  0  0  0  0  0  0  0
  -22.3313   -8.7142   20.1924 C   0  0  0  0  0  0  0  0  0  0  0  0
  -23.0895   -8.7233   22.4864 C   0  0  0  0  0  0  0  0  0  0  0  0
  -30.3932  -24.9717   26.5846 C   0  0  0  0  0  0  0  0  0  0  0  0
  -19.8606   -7.9271   23.0874 C   0  0  0  0  0  0  0  0  0  0  0  0
  -19.1028   -7.8886   24.2578 C   0  0  0  0  0  0  0  0  0  0  0  0
  -30.5834  -24.7599   24.1891 C   0  0  0  0  0  0  0  0  0  0  0  0
  -30.4932  -18.3446   24.0424 C   0  0  0  0  0  0  0  0  0  0  0  0
  -20.3431   -5.9515   24.9971 C   0  0  0  0  0  0  0  0  0  0  0  0
  -23.8270  -10.4478   20.9634 C   0  0  0  0  0  0  0  0  0  0  0  0
  -24.1697  -12.9727   20.8410 C   0  0  0  0  0  0  0  0  0  0  0  0
  -22.5063  -25.4528   26.4857 C   0  0  0  0  0  0  0  0  0  0  0  0
  -28.9596  -26.2873   25.1324 C   0  0  0  0  0  0  0  0  0  0  0  0
  -23.7466  -24.9587   26.0386 C   0  0  0  0  0  0  0  0  0  0  0  0
  -29.5711  -25.7145   24.0081 C   0  0  0  0  0  0  0  0  0  0  0  0
  -31.8801  -18.3508   24.1905 C   0  0  0  0  0  0  0  0  0  0  0  0
  -30.6772  -16.5908   22.3910 C   0  0  0  0  0  0  0  0  0  0  0  0
  -22.3381   -8.1425   21.4647 C   0  0  0  0  0  0  0  0  0  0  0  0
  -30.9908  -24.3895   25.4705 C   0  0  0  0  0  0  0  0  0  0  0  0
  -20.8597   -6.9778   22.8718 C   0  0  0  0  0  0  0  0  0  0  0  0
  -29.8917  -17.4646   23.1427 C   0  0  0  0  0  0  0  0  0  0  0  0
  -19.3441   -6.9008   25.2126 C   0  0  0  0  0  0  0  0  0  0  0  0
  -21.1009   -5.9900   23.8267 C   0  0  0  0  0  0  0  0  0  0  0  0
  -24.5966  -11.6382   20.7050 C   0  0  0  0  0  0  0  0  0  0  0  0
  -25.2623  -13.7215   20.4778 C   0  0  0  0  0  0  0  0  0  0  0  0
  -22.8991  -13.4893   21.2585 C   0  0  0  0  0  0  0  0  0  0  0  0
  -26.2157  -26.1014   23.5385 C   0  0  0  0  0  0  0  0  0  0  0  0
  -27.8450  -27.8043   21.3096 C   0  0  0  0  0  0  0  0  0  0  0  0
  -31.9237  -20.5187   25.4212 C   0  0  0  0  0  0  0  0  0  0  0  0
  -30.8574  -28.6985   19.9783 C   0  0  0  0  0  0  0  0  0  0  0  0
  -30.7287  -14.7657   20.6554 C   0  0  0  0  0  0  0  0  0  0  0  0
  -21.5202  -26.0929   25.5409 C   0  0  0  0  0  0  0  0  0  0  0  0
  -27.8889  -27.3310   24.9684 C   0  0  0  0  0  0  0  0  0  0  0  0
  -29.1651  -26.0899   22.6071 C   0  0  0  0  0  0  0  0  0  0  0  0
  -22.1436  -26.5407   24.2214 C   0  0  0  0  0  0  0  0  0  0  0  0
  -29.6153  -12.3497   18.2888 C   0  0  0  0  0  0  0  0  0  0  0  0
  -23.0325  -25.4405   23.6504 C   0  0  0  0  0  0  0  0  0  0  0  0
  -28.1752  -12.0590   18.7176 C   0  0  0  0  0  0  0  0  0  0  0  0
  -30.5296  -12.5795   19.4909 C   0  0  0  0  0  0  0  0  0  0  0  0
  -28.6219  -13.3059   20.8700 C   0  0  0  0  0  0  0  0  0  0  0  0
  -24.1919  -25.1188   24.6012 C   0  0  1  0  0  0  0  0  0  0  0  0
  -27.1788  -27.2518   23.6205 C   0  0  1  0  0  0  0  0  0  0  0  0
  -27.6498  -13.1318   19.6916 C   0  0  2  0  0  0  0  0  0  0  0  0
  -31.8677  -30.0737   18.1384 C   0  0  0  0  0  0  0  0  0  0  0  0
  -27.0599  -25.6637   19.2819 C   0  0  0  0  0  0  0  0  0  0  0  0
  -28.8350  -26.5552   17.7579 C   0  0  0  0  0  0  0  0  0  0  0  0
  -26.9226  -28.0102   18.4277 C   0  0  0  0  0  0  0  0  0  0  0  0
  -33.7078  -18.7756   25.8166 C   0  0  0  0  0  0  0  0  0  0  0  0
  -32.3087  -30.4168   21.9019 C   0  0  0  0  0  0  0  0  0  0  0  0
  -27.7950  -16.6071   23.8668 C   0  0  0  0  0  0  0  0  0  0  0  0
  -32.5972  -21.3182   26.5369 C   0  0  0  0  0  0  0  0  0  0  0  0
  -31.9233  -22.6582   26.8080 C   0  0  0  0  0  0  0  0  0  1  0  0
  -28.7138  -27.4583   20.1245 C   0  0  1  0  0  0  0  0  0  0  0  0
  -31.4267  -30.0521   19.5936 C   0  0  2  0  0  0  0  0  0  0  0  0
  -27.8894  -26.9131   18.9243 C   0  0  0  0  0  0  0  0  0  0  0  0
  -25.8618  -11.5415   20.2878 N   0  0  0  0  0  0  0  0  0  0  0  0
  -26.2392  -12.8248   20.1584 N   0  0  0  0  0  0  0  0  0  0  0  0
  -28.1094  -27.1104   22.4988 N   0  0  0  0  0  0  0  0  0  0  0  0
  -29.9703  -13.6114   20.3668 N   0  0  0  0  0  0  0  0  0  0  0  0
  -25.4732  -15.0528   20.4035 N   0  0  0  0  0  0  0  0  0  0  0  0
  -21.8866  -12.5808   21.5960 N   0  0  0  0  0  0  0  0  0  0  0  0
  -30.0810  -15.6917   21.4723 N   0  0  0  0  0  0  0  0  0  0  0  0
  -25.2236  -26.1287   24.5000 N   0  0  0  0  0  0  0  0  0  0  0  0
  -29.4880  -28.6573   19.8221 N   0  0  0  0  0  0  0  0  0  0  0  0
  -32.5054  -19.2655   25.1246 N   0  0  0  0  0  0  0  0  0  0  0  0
  -32.6041  -30.3802   20.4464 N   0  3  0  0  0  0  0  0  0  0  0  0
  -22.6631  -14.7201   21.3144 O   0  0  0  0  0  0  0  0  0  0  0  0
  -26.3611  -25.2527   22.6666 O   0  0  0  0  0  0  0  0  0  0  0  0
  -26.9687  -28.6638   21.1866 O   0  0  0  0  0  0  0  0  0  0  0  0
  -30.9182  -20.9756   24.8718 O   0  0  0  0  0  0  0  0  0  0  0  0
  -31.5579  -27.7693   20.3739 O   0  0  0  0  0  0  0  0  0  0  0  0
  -31.8582  -14.9336   20.1884 O   0  0  0  0  0  0  0  0  0  0  0  0
  -21.6117   -7.0178   21.7097 O   0  0  0  0  0  0  0  0  0  0  0  0
  -28.5348  -17.4761   23.0122 O   0  0  0  0  0  0  0  0  0  0  0  0
  -31.9750  -23.4636   25.6311 O   0  0  0  0  0  0  0  0  0  1  0  0
  -18.6173   -6.8649   26.3372 F   0  0  0  0  0  0  0  0  0  0  0  0
  -22.0601   -5.0761   23.6257 F   0  0  0  0  0  0  0  0  0  0  0  0
  1  2  1  0  0  0  0
  1  5  2  0  0  0  0
  2  6  2  0  0  0  0
  3 10  2  0  0  0  0
  3 18  1  0  0  0  0
  4 11  1  0  0  0  0
  4 18  2  0  0  0  0
  5 20  1  0  0  0  0
  6 22  1  0  0  0  0
  7 12  2  0  0  0  0
  7 21  1  0  0  0  0
  8  9  2  0  0  0  0
  8 24  1  0  0  0  0
  9 25  1  0  0  0  0
 10 26  1  0  0  0  0
 11 26  2  0  0  0  0
 12 27  1  0  0  0  0
 13 14  2  0  0  0  0
 13 28  1  0  0  0  0
 14 30  1  0  0  0  0
 15 23  1  0  0  0  0
 15 27  2  0  0  0  0
 16 24  2  0  0  0  0
 16 29  1  0  0  0  0
 17 30  2  0  0  0  0
 17 31  1  0  0  0  0
 18 32  1  0  0  0  0
 19 32  1  0  0  0  0
 19 33  2  0  0  0  0
 19 34  1  0  0  0  0
 20 22  2  0  0  0  0
 20 40  1  0  0  0  0
 21 23  2  0  0  0  0
 21 41  1  0  0  0  0
 22 49  1  0  0  0  0
 23 42  1  0  0  0  0
 24 73  1  0  0  0  0
 25 29  2  0  0  0  0
 25 70  1  0  0  0  0
 26 81  1  0  0  0  0
 27 83  1  0  0  0  0
 28 31  2  0  0  0  0
 28 81  1  0  0  0  0
 29 82  1  0  0  0  0
 30 84  1  0  0  0  0
 31 85  1  0  0  0  0
 32 64  2  0  0  0  0
 33 65  1  0  0  0  0
 33 68  1  0  0  0  0
 34 69  1  0  0  0  0
 34 75  2  0  0  0  0
 35 50  1  0  0  0  0
 35 71  1  0  0  0  0
 35 76  2  0  0  0  0
 36 61  1  0  0  0  0
 36 66  1  0  0  0  0
 36 77  2  0  0  0  0
 37 59  1  0  0  0  0
 37 73  1  0  0  0  0
 37 78  2  0  0  0  0
 38 62  1  0  0  0  0
 38 72  1  0  0  0  0
 38 79  2  0  0  0  0
 39 67  1  0  0  0  0
 39 70  1  0  0  0  0
 39 80  2  0  0  0  0
 40 43  1  0  0  0  0
 41 50  1  0  0  0  0
 42 66  1  0  0  0  0
 43 45  1  0  0  0  0
 44 46  1  0  0  0  0
 44 47  1  0  0  0  0
 45 49  1  0  0  0  0
 46 51  1  0  0  0  0
 47 67  1  0  0  0  0
 48 51  1  0  0  0  0
 48 67  1  0  0  0  0
 49 71  1  0  0  0  0
 50 66  1  0  0  0  0
 51 65  1  0  0  0  0
 52 62  1  0  0  0  0
 53 63  1  0  0  0  0
 54 63  1  0  0  0  0
 55 63  1  0  0  0  0
 56 73  1  0  0  0  0
 57 74  1  0  0  0  0
 58 82  1  0  0  0  0
 59 60  1  0  0  0  0
 60 83  1  0  0  0  0
 61 63  1  0  0  0  0
 61 72  1  0  0  0  0
 62 74  1  0  0  0  0
 64 65  1  0  0  0  0
M  CHG  1  74   1
M  ISO  4  39 100  60 101  70 100  83 101
M  END
> <Batch ID>
0010

> <Smiles>
CNC(C)C(=O)NC(C(=O)N1Cc2cc([101O:1][101CH2:1]CC(=O)N(C)c3ccc([100NH:0][100C:0](=O)N4CCCC(n5nc(-c6ccc(Oc7ccc(F)cc7F)cc6)c(C(N)=O)c5N)C4)c(OC)c3)ccc2CC1C(=O)NC1CCCc2ccccc21)C(C)(C)C

> <Shape>
0.214

> <Color>
0.192

> <Negative vol penalty>
0.000

$$$$

  -OEChem-04052315413D

 82 90  0     1  0  0  0  0  0999 V2000
  -30.4376  -34.9901   24.6790 C   0  0  0  0  0  0  0  0  0  0  0  0
  -30.4887  -34.2162   23.5241 C   0  0  0  0  0  0  0  0  0  0  0  0
  -24.6061   -9.0593   21.1832 C   0  0  0  0  0  0  0  0  0  0  0  0
  -22.8469  -10.6803   20.8447 C   0  0  0  0  0  0  0  0  0  0  0  0
  -29.6777  -34.5655   25.7682 C   0  0  0  0  0  0  0  0  0  0  0  0
  -29.7807  -33.0166   23.4581 C   0  0  0  0  0  0  0  0  0  0  0  0
  -26.2681  -28.8560   18.8032 C   0  0  0  0  0  0  0  0  0  0  0  0
  -23.6505   -8.0571   21.3501 C   0  0  0  0  0  0  0  0  0  0  0  0
  -21.8913   -9.6780   21.0116 C   0  0  0  0  0  0  0  0  0  0  0  0
  -26.2251  -27.5353   18.3587 C   0  0  0  0  0  0  0  0  0  0  0  0
  -21.5735   -6.9776   23.7884 C   0  0  0  0  0  0  0  0  0  0  0  0
  -21.7478   -6.0869   24.8475 C   0  0  0  0  0  0  0  0  0  0  0  0
  -24.8824  -26.9412   20.2727 C   0  0  0  0  0  0  0  0  0  0  0  0
  -27.4646  -20.1956   21.8263 C   0  0  0  0  0  0  0  0  0  0  0  0
  -27.0581  -20.6290   19.1005 C   0  0  0  0  0  0  0  0  0  0  0  0
  -21.8407   -4.2467   23.2847 C   0  0  0  0  0  0  0  0  0  0  0  0
  -24.2043  -10.3710   20.9306 C   0  0  0  0  0  0  0  0  0  0  0  0
  -25.7964  -11.8128   19.5543 C   0  0  0  0  0  0  0  0  0  0  0  0
  -28.9524  -33.3650   25.7119 C   0  0  0  0  0  0  0  0  0  0  0  0
  -25.6267  -29.2276   19.9936 C   0  0  0  0  0  0  0  0  0  0  0  0
  -29.0115  -32.5750   24.5480 C   0  0  0  0  0  0  0  0  0  0  0  0
  -24.9166  -28.2678   20.7288 C   0  0  0  0  0  0  0  0  0  0  0  0
  -27.4101  -19.1130   20.9485 C   0  0  0  0  0  0  0  0  0  0  0  0
  -27.1126  -21.7116   19.9784 C   0  0  0  0  0  0  0  0  0  0  0  0
  -22.2931   -8.3664   21.2643 C   0  0  0  0  0  0  0  0  0  0  0  0
  -25.5346  -26.5770   19.0949 C   0  0  0  0  0  0  0  0  0  0  0  0
  -21.5327   -6.5029   22.4773 C   0  0  0  0  0  0  0  0  0  0  0  0
  -21.8815   -4.7215   24.5957 C   0  0  0  0  0  0  0  0  0  0  0  0
  -27.3158  -21.4950   21.3412 C   0  0  0  0  0  0  0  0  0  0  0  0
  -21.6664   -5.1375   22.2255 C   0  0  0  0  0  0  0  0  0  0  0  0
  -27.2069  -19.3297   19.5856 C   0  0  0  0  0  0  0  0  0  0  0  0
  -25.1910  -11.4069   20.7586 C   0  0  0  0  0  0  0  0  0  0  0  0
  -26.6531  -12.8209   19.9233 C   0  0  0  0  0  0  0  0  0  0  0  0
  -25.6017  -11.3224   18.2211 C   0  0  0  0  0  0  0  0  0  0  0  0
  -26.5842  -30.4228   22.7789 C   0  0  0  0  0  0  0  0  0  0  0  0
  -23.3972  -30.5921   23.3589 C   0  0  0  0  0  0  0  0  0  0  0  0
  -20.2612  -29.4372   22.6671 C   0  0  0  0  0  0  0  0  0  0  0  0
  -27.7716  -17.4509   22.8068 C   0  0  0  0  0  0  0  0  0  0  0  0
  -28.1830  -32.9239   26.9318 C   0  0  0  0  0  0  0  0  0  0  0  0
  -25.6601  -30.6619   20.4455 C   0  0  0  0  0  0  0  0  0  0  0  0
  -24.1943  -28.6195   22.0028 C   0  0  0  0  0  0  0  0  0  0  0  0
  -27.1620  -31.8261   26.6440 C   0  0  0  0  0  0  0  0  0  0  0  0
  -28.1630  -14.3473   24.5072 C   0  0  0  0  0  0  0  0  0  0  0  0
  -27.7851  -30.7291   25.7866 C   0  0  0  0  0  0  0  0  0  0  0  0
  -27.4745  -13.3390   23.5845 C   0  0  0  0  0  0  0  0  0  0  0  0
  -27.4331  -15.6892   24.5263 C   0  0  0  0  0  0  0  0  0  0  0  0
  -26.5037  -15.2754   22.2826 C   0  0  0  0  0  0  0  0  0  0  0  0
  -28.2376  -31.2800   24.4290 C   0  0  1  0  0  0  0  0  0  0  0  0
  -25.4033  -30.8233   21.9406 C   0  0  1  0  0  0  0  0  0  0  0  0
  -27.2394  -13.9293   22.1803 C   0  0  2  0  0  0  0  0  0  0  0  0
  -17.8595  -29.7418   23.3278 C   0  0  0  0  0  0  0  0  0  0  0  0
  -23.9089  -29.0303   25.9296 C   0  0  0  0  0  0  0  0  0  0  0  0
  -21.4545  -28.5494   26.0437 C   0  0  0  0  0  0  0  0  0  0  0  0
  -22.2688  -30.9046   26.1566 C   0  0  0  0  0  0  0  0  0  0  0  0
  -19.4926  -30.2643   19.9313 C   0  0  0  0  0  0  0  0  0  0  0  0
  -26.7491  -23.3143   18.1008 C   0  0  0  0  0  0  0  0  0  0  0  0
  -26.6097  -24.8156   17.9127 C   0  0  0  0  0  0  0  0  0  1  0  0
  -22.3685  -29.6629   23.9566 C   0  0  1  0  0  0  0  0  0  0  0  0
  -18.9625  -30.1650   22.3701 C   0  0  2  0  0  0  0  0  0  0  0  0
  -22.5153  -29.5294   25.4987 C   0  0  0  0  0  0  0  0  0  0  0  0
  -25.6263  -12.1004   21.8139 N   0  0  0  0  0  0  0  0  0  0  0  0
  -26.5144  -12.9522   21.2738 N   0  0  0  0  0  0  0  0  0  0  0  0
  -24.2615  -30.0337   22.4065 N   0  0  0  0  0  0  0  0  0  0  0  0
  -27.2498  -16.1891   23.1620 N   0  0  0  0  0  0  0  0  0  0  0  0
  -27.5041  -13.5989   19.2212 N   0  0  0  0  0  0  0  0  0  0  0  0
  -24.6837  -10.2829   18.0189 N   0  0  0  0  0  0  0  0  0  0  0  0
  -27.5645  -17.8063   21.4744 N   0  0  0  0  0  0  0  0  0  0  0  0
  -26.9637  -23.0011   19.4951 N   0  0  0  0  0  0  0  0  0  0  0  0
  -27.1019  -31.4478   23.5477 N   0  0  0  0  0  0  0  0  0  0  0  0
  -21.0677  -30.1595   23.5209 N   0  0  0  0  0  0  0  0  0  0  0  0
  -18.5133  -29.8762   20.9788 N   0  3  0  0  0  0  0  0  0  0  0  0
  -26.2354  -11.7812   17.2405 O   0  0  0  0  0  0  0  0  0  0  0  0
  -26.9944  -29.2690   22.7329 O   0  0  0  0  0  0  0  0  0  0  0  0
  -23.4279  -31.7717   23.7183 O   0  0  0  0  0  0  0  0  0  0  0  0
  -20.5314  -28.3363   22.1922 O   0  0  0  0  0  0  0  0  0  0  0  0
  -28.3828  -18.1519   23.6174 O   0  0  0  0  0  0  0  0  0  0  0  0
  -21.3604   -7.3886   21.4268 O   0  0  0  0  0  0  0  0  0  0  0  0
  -25.4915  -25.2871   18.6636 O   0  0  0  0  0  0  0  0  0  1  0  0
  -22.0504   -3.8664   25.6128 F   0  0  0  0  0  0  0  0  0  0  0  0
  -27.3687  -22.5281   22.1940 F   0  0  0  0  0  0  0  0  0  0  0  0
  -21.6292   -4.6756   20.9681 F   0  0  0  0  0  0  0  0  0  0  0  0
  -27.1323  -18.0176   18.4639 Cl  0  0  0  0  0  0  0  0  0  0  0  0
  1  2  1  0  0  0  0
  1  5  2  0  0  0  0
  2  6  2  0  0  0  0
  3  8  2  0  0  0  0
  3 17  1  0  0  0  0
  4  9  1  0  0  0  0
  4 17  2  0  0  0  0
  5 19  1  0  0  0  0
  6 21  1  0  0  0  0
  7 10  2  0  0  0  0
  7 20  1  0  0  0  0
  8 25  1  0  0  0  0
  9 25  2  0  0  0  0
 10 26  1  0  0  0  0
 11 12  2  0  0  0  0
 11 27  1  0  0  0  0
 12 28  1  0  0  0  0
 13 22  1  0  0  0  0
 13 26  2  0  0  0  0
 14 23  2  0  0  0  0
 14 29  1  0  0  0  0
 15 24  1  0  0  0  0
 15 31  2  0  0  0  0
 16 28  2  0  0  0  0
 16 30  1  0  0  0  0
 17 32  1  0  0  0  0
 18 32  1  0  0  0  0
 18 33  2  0  0  0  0
 18 34  1  0  0  0  0
 19 21  2  0  0  0  0
 19 39  1  0  0  0  0
 20 22  2  0  0  0  0
 20 40  1  0  0  0  0
 21 48  1  0  0  0  0
 22 41  1  0  0  0  0
 23 31  1  0  0  0  0
 23 67  1  0  0  0  0
 24 29  2  0  0  0  0
 24 68  1  0  0  0  0
 25 77  1  0  0  0  0
 26 78  1  0  0  0  0
 27 30  2  0  0  0  0
 27 77  1  0  0  0  0
 28 79  1  0  0  0  0
 29 80  1  0  0  0  0
 30 81  1  0  0  0  0
 31 82  1  0  0  0  0
 32 61  2  0  0  0  0
 33 62  1  0  0  0  0
 33 65  1  0  0  0  0
 34 66  1  0  0  0  0
 34 72  2  0  0  0  0
 35 49  1  0  0  0  0
 35 69  1  0  0  0  0
 35 73  2  0  0  0  0
 36 58  1  0  0  0  0
 36 63  1  0  0  0  0
 36 74  2  0  0  0  0
 37 59  1  0  0  0  0
 37 70  1  0  0  0  0
 37 75  2  0  0  0  0
 38 64  1  0  0  0  0
 38 67  1  0  0  0  0
 38 76  2  0  0  0  0
 39 42  1  0  0  0  0
 40 49  1  0  0  0  0
 41 63  1  0  0  0  0
 42 44  1  0  0  0  0
 43 45  1  0  0  0  0
 43 46  1  0  0  0  0
 44 48  1  0  0  0  0
 45 50  1  0  0  0  0
 46 64  1  0  0  0  0
 47 50  1  0  0  0  0
 47 64  1  0  0  0  0
 48 69  1  0  0  0  0
 49 63  1  0  0  0  0
 50 62  1  0  0  0  0
 51 59  1  0  0  0  0
 52 60  1  0  0  0  0
 53 60  1  0  0  0  0
 54 60  1  0  0  0  0
 55 71  1  0  0  0  0
 56 57  1  0  0  0  0
 56 68  1  0  0  0  0
 57 78  1  0  0  0  0
 58 60  1  0  0  0  0
 58 70  1  0  0  0  0
 59 71  1  0  0  0  0
 61 62  1  0  0  0  0
M  CHG  1  71   1
M  ISO  4  38 100  57 101  67 100  78 101
M  END
> <Batch ID>
0010

> <Smiles>
CNC(C)C(=O)NC(C(=O)N1Cc2cc([101O:1][101CH2:1]CNc3cc(Cl)c([100NH:0][100C:0](=O)N4CCCC(n5nc(-c6ccc(Oc7ccc(F)cc7F)cc6)c(C(N)=O)c5N)C4)cc3F)ccc2CC1C(=O)NC1CCCc2ccccc21)C(C)(C)C

> <Shape>
0.273

> <Color>
0.108

> <Negative vol penalty>
0.000

$$$$

  -OEChem-04052315413D

 80 88  0     1  0  0  0  0  0999 V2000
  -40.3712  -27.9071   25.2379 C   0  0  0  0  0  0  0  0  0  0  0  0
  -39.4153  -26.9478   25.5563 C   0  0  0  0  0  0  0  0  0  0  0  0
  -23.0013   -9.8911   19.9838 C   0  0  0  0  0  0  0  0  0  0  0  0
  -23.7230   -9.9497   22.2888 C   0  0  0  0  0  0  0  0  0  0  0  0
  -39.9745  -29.2027   24.9095 C   0  0  0  0  0  0  0  0  0  0  0  0
  -38.0620  -27.2840   25.5476 C   0  0  0  0  0  0  0  0  0  0  0  0
  -35.2060  -23.7861   23.2556 C   0  0  0  0  0  0  0  0  0  0  0  0
  -32.6391  -17.4599   23.4488 C   0  0  0  0  0  0  0  0  0  0  0  0
  -32.0526  -16.5593   22.5596 C   0  0  0  0  0  0  0  0  0  0  0  0
  -22.2347   -8.7573   20.2527 C   0  0  0  0  0  0  0  0  0  0  0  0
  -22.9562   -8.8159   22.5577 C   0  0  0  0  0  0  0  0  0  0  0  0
  -34.9076  -22.6331   23.9803 C   0  0  0  0  0  0  0  0  0  0  0  0
  -23.2021   -5.4755   22.0969 C   0  0  0  0  0  0  0  0  0  0  0  0
  -23.7888   -4.4609   22.8532 C   0  0  0  0  0  0  0  0  0  0  0  0
  -32.7316  -23.5330   24.5043 C   0  0  0  0  0  0  0  0  0  0  0  0
  -29.8730  -17.4586   23.0863 C   0  0  0  0  0  0  0  0  0  0  0  0
  -22.0623   -4.7088   24.5250 C   0  0  0  0  0  0  0  0  0  0  0  0
  -23.7455  -10.4873   21.0019 C   0  0  0  0  0  0  0  0  0  0  0  0
  -24.1305  -13.0024   20.8184 C   0  0  0  0  0  0  0  0  0  0  0  0
  -38.6151  -29.5524   24.8874 C   0  0  0  0  0  0  0  0  0  0  0  0
  -34.2721  -24.8276   23.1587 C   0  0  0  0  0  0  0  0  0  0  0  0
  -37.6468  -28.5859   25.2200 C   0  0  0  0  0  0  0  0  0  0  0  0
  -33.0197  -24.6971   23.7757 C   0  0  0  0  0  0  0  0  0  0  0  0
  -31.8425  -18.3598   24.1568 C   0  0  0  0  0  0  0  0  0  0  0  0
  -30.6696  -16.5587   22.3783 C   0  0  0  0  0  0  0  0  0  0  0  0
  -22.2121   -8.2197   21.5396 C   0  0  0  0  0  0  0  0  0  0  0  0
  -33.6713  -22.5076   24.6073 C   0  0  0  0  0  0  0  0  0  0  0  0
  -22.0456   -6.1069   22.5547 C   0  0  0  0  0  0  0  0  0  0  0  0
  -23.2188   -4.0775   24.0672 C   0  0  0  0  0  0  0  0  0  0  0  0
  -30.4594  -18.3592   23.9756 C   0  0  0  0  0  0  0  0  0  0  0  0
  -21.4756   -5.7235   23.7687 C   0  0  0  0  0  0  0  0  0  0  0  0
  -24.5381  -11.6582   20.7247 C   0  0  0  0  0  0  0  0  0  0  0  0
  -25.2406  -13.7241   20.4533 C   0  0  0  0  0  0  0  0  0  0  0  0
  -32.7824  -20.3986   24.5468 C   0  0  0  0  0  0  0  0  0  1  0  0
  -22.8618  -13.5497   21.2012 C   0  0  0  0  0  0  0  0  0  0  0  0
  -34.2151  -27.8792   24.0466 C   0  0  0  0  0  0  0  0  0  0  0  0
  -31.4011  -27.8917   22.4329 C   0  0  0  0  0  0  0  0  0  0  0  0
  -28.7394  -26.1222   21.2368 C   0  0  0  0  0  0  0  0  0  0  0  0
  -30.7195  -14.6873   20.6926 C   0  0  0  0  0  0  0  0  0  0  0  0
  -38.2373  -30.9781   24.5723 C   0  0  0  0  0  0  0  0  0  0  0  0
  -34.5992  -26.0535   22.3509 C   0  0  0  0  0  0  0  0  0  0  0  0
  -31.9746  -25.7778   23.6851 C   0  0  0  0  0  0  0  0  0  0  0  0
  -36.7620  -31.1540   24.2216 C   0  0  0  0  0  0  0  0  0  0  0  0
  -29.6054  -12.2266   18.3729 C   0  0  0  0  0  0  0  0  0  0  0  0
  -35.8830  -30.4120   25.2234 C   0  0  0  0  0  0  0  0  0  0  0  0
  -28.1542  -11.9700   18.7856 C   0  0  0  0  0  0  0  0  0  0  0  0
  -30.5040  -12.4742   19.5832 C   0  0  0  0  0  0  0  0  0  0  0  0
  -28.5864  -13.2669   20.9113 C   0  0  0  0  0  0  0  0  0  0  0  0
  -36.1678  -28.9055   25.1975 C   0  0  1  0  0  0  0  0  0  0  0  0
  -33.7683  -27.2699   22.7478 C   0  0  1  0  0  0  0  0  0  0  0  0
  -27.6306  -13.0764   19.7222 C   0  0  2  0  0  0  0  0  0  0  0  0
  -26.5799  -26.4129   19.9921 C   0  0  0  0  0  0  0  0  0  0  0  0
  -30.1063  -29.0305   24.9502 C   0  0  0  0  0  0  0  0  0  0  0  0
  -27.8750  -28.4113   23.9984 C   0  0  0  0  0  0  0  0  0  0  0  0
  -29.3193  -30.0642   22.8132 C   0  0  0  0  0  0  0  0  0  0  0  0
  -29.6401  -24.3665   19.0311 C   0  0  0  0  0  0  0  0  0  0  0  0
  -29.9608  -27.6188   22.7933 C   0  0  1  0  0  0  0  0  0  0  0  0
  -28.0661  -26.1120   19.8763 C   0  0  2  0  0  0  0  0  0  0  0  0
  -29.3356  -28.7615   23.6423 C   0  0  0  0  0  0  0  0  0  0  0  0
  -25.8080  -11.5308   20.3309 N   0  0  0  0  0  0  0  0  0  0  0  0
  -32.4356  -19.2655   25.0523 N   0  0  0  0  0  0  0  0  0  0  0  0
  -26.2079  -12.8041   20.1738 N   0  0  0  0  0  0  0  0  0  0  0  0
  -32.3442  -26.9599   22.8891 N   0  0  0  0  0  0  0  0  0  0  0  0
  -29.9474  -13.5377   20.4223 N   0  0  0  0  0  0  0  0  0  0  0  0
  -25.4739  -15.0495   20.3473 N   0  0  0  0  0  0  0  0  0  0  0  0
  -21.8297  -12.6665   21.5460 N   0  0  0  0  0  0  0  0  0  0  0  0
  -30.0738  -15.6449   21.4741 N   0  0  0  0  0  0  0  0  0  0  0  0
  -35.5341  -28.2910   24.0506 N   0  0  0  0  0  0  0  0  0  0  0  0
  -29.2673  -27.3603   21.5361 N   0  0  0  0  0  0  0  0  0  0  0  0
  -28.2268  -24.7794   19.2287 N   0  3  0  0  0  0  0  0  0  0  0  0
  -22.6448  -14.7851   21.2206 O   0  0  0  0  0  0  0  0  0  0  0  0
  -33.4213  -27.9704   24.9758 O   0  0  0  0  0  0  0  0  0  0  0  0
  -31.6784  -28.8910   21.7649 O   0  0  0  0  0  0  0  0  0  0  0  0
  -28.7886  -25.1320   21.9631 O   0  0  0  0  0  0  0  0  0  0  0  0
  -31.8588  -14.8250   20.2399 O   0  0  0  0  0  0  0  0  0  0  0  0
  -21.4639   -7.1135   21.8023 O   0  0  0  0  0  0  0  0  0  0  0  0
  -33.3777  -21.3835   25.3158 O   0  0  0  0  0  0  0  0  0  1  0  0
  -23.7814   -3.1021   24.7926 F   0  0  0  0  0  0  0  0  0  0  0  0
  -29.6859  -19.2197   24.6524 F   0  0  0  0  0  0  0  0  0  0  0  0
  -20.3639   -6.3255   24.2131 F   0  0  0  0  0  0  0  0  0  0  0  0
  1  2  1  0  0  0  0
  1  5  2  0  0  0  0
  2  6  2  0  0  0  0
  3 10  2  0  0  0  0
  3 18  1  0  0  0  0
  4 11  1  0  0  0  0
  4 18  2  0  0  0  0
  5 20  1  0  0  0  0
  6 22  1  0  0  0  0
  7 12  2  0  0  0  0
  7 21  1  0  0  0  0
  8  9  2  0  0  0  0
  8 24  1  0  0  0  0
  9 25  1  0  0  0  0
 10 26  1  0  0  0  0
 11 26  2  0  0  0  0
 12 27  1  0  0  0  0
 13 14  2  0  0  0  0
 13 28  1  0  0  0  0
 14 29  1  0  0  0  0
 15 23  1  0  0  0  0
 15 27  2  0  0  0  0
 16 25  2  0  0  0  0
 16 30  1  0  0  0  0
 17 29  2  0  0  0  0
 17 31  1  0  0  0  0
 18 32  1  0  0  0  0
 19 32  1  0  0  0  0
 19 33  2  0  0  0  0
 19 35  1  0  0  0  0
 20 22  2  0  0  0  0
 20 40  1  0  0  0  0
 21 23  2  0  0  0  0
 21 41  1  0  0  0  0
 22 49  1  0  0  0  0
 23 42  1  0  0  0  0
 24 30  2  0  0  0  0
 24 61  1  0  0  0  0
 25 67  1  0  0  0  0
 26 76  1  0  0  0  0
 27 77  1  0  0  0  0
 28 31  2  0  0  0  0
 28 76  1  0  0  0  0
 29 78  1  0  0  0  0
 30 79  1  0  0  0  0
 31 80  1  0  0  0  0
 32 60  2  0  0  0  0
 33 62  1  0  0  0  0
 33 65  1  0  0  0  0
 34 61  2  0  0  0  0
 34 77  1  0  0  0  0
 35 66  1  0  0  0  0
 35 71  2  0  0  0  0
 36 50  1  0  0  0  0
 36 68  1  0  0  0  0
 36 72  2  0  0  0  0
 37 57  1  0  0  0  0
 37 63  1  0  0  0  0
 37 73  2  0  0  0  0
 38 58  1  0  0  0  0
 38 69  1  0  0  0  0
 38 74  2  0  0  0  0
 39 64  1  0  0  0  0
 39 67  1  0  0  0  0
 39 75  2  0  0  0  0
 40 43  1  0  0  0  0
 41 50  1  0  0  0  0
 42 63  1  0  0  0  0
 43 45  1  0  0  0  0
 44 46  1  0  0  0  0
 44 47  1  0  0  0  0
 45 49  1  0  0  0  0
 46 51  1  0  0  0  0
 47 64  1  0  0  0  0
 48 51  1  0  0  0  0
 48 64  1  0  0  0  0
 49 68  1  0  0  0  0
 50 63  1  0  0  0  0
 51 62  1  0  0  0  0
 52 58  1  0  0  0  0
 53 59  1  0  0  0  0
 54 59  1  0  0  0  0
 55 59  1  0  0  0  0
 56 70  1  0  0  0  0
 57 59  1  0  0  0  0
 57 69  1  0  0  0  0
 58 70  1  0  0  0  0
 60 62  1  0  0  0  0
M  CHG  1  70   1
M  ISO  4  34 101  39 100  67 100  77 101
M  END
> <Batch ID>
0010

> <Smiles>
CNC(C)C(=O)NC(C(=O)N1Cc2cc([101O:1][101CH:1]=Nc3ccc([100NH:0][100C:0](=O)N4CCCC(n5nc(-c6ccc(Oc7ccc(F)cc7F)cc6)c(C(N)=O)c5N)C4)cc3F)ccc2CC1C(=O)NC1CCCc2ccccc21)C(C)(C)C

> <Shape>
0.213

> <Color>
0.211

> <Negative vol penalty>
0.000

$$$$

  -OEChem-04052315413D

 83 91  0     1  0  0  0  0  0999 V2000
  -29.5637  -31.3272   26.8128 C   0  0  0  0  0  0  0  0  0  0  0  0
  -28.9367  -30.3187   26.0881 C   0  0  0  0  0  0  0  0  0  0  0  0
  -24.4200   -8.8759   21.4546 C   0  0  0  0  0  0  0  0  0  0  0  0
  -24.2167  -10.4918   23.2391 C   0  0  0  0  0  0  0  0  0  0  0  0
  -28.9032  -32.5336   27.0412 C   0  0  0  0  0  0  0  0  0  0  0  0
  -27.6483  -30.5156   25.5923 C   0  0  0  0  0  0  0  0  0  0  0  0
  -27.1518  -28.9581   20.7994 C   0  0  0  0  0  0  0  0  0  0  0  0
  -24.0515   -7.8581   22.3342 C   0  0  0  0  0  0  0  0  0  0  0  0
  -23.8480   -9.4740   24.1187 C   0  0  0  0  0  0  0  0  0  0  0  0
  -27.0164  -27.5869   20.5862 C   0  0  0  0  0  0  0  0  0  0  0  0
  -21.2013   -6.6587   23.7021 C   0  0  0  0  0  0  0  0  0  0  0  0
  -20.2629   -5.7269   23.2586 C   0  0  0  0  0  0  0  0  0  0  0  0
  -24.6314  -27.8647   20.3537 C   0  0  0  0  0  0  0  0  0  0  0  0
  -26.6182  -20.5388   19.6310 C   0  0  0  0  0  0  0  0  0  0  0  0
  -29.0954  -19.2622   19.7587 C   0  0  0  0  0  0  0  0  0  0  0  0
  -21.8722   -3.9536   23.5793 C   0  0  0  0  0  0  0  0  0  0  0  0
  -24.5027  -10.1928   21.9070 C   0  0  0  0  0  0  0  0  0  0  0  0
  -24.0309  -12.0247   20.1955 C   0  0  0  0  0  0  0  0  0  0  0  0
  -27.6099  -32.7491   26.5398 C   0  0  0  0  0  0  0  0  0  0  0  0
  -26.0249  -29.7927   20.8021 C   0  0  0  0  0  0  0  0  0  0  0  0
  -26.9694  -31.7256   25.8154 C   0  0  0  0  0  0  0  0  0  0  0  0
  -24.7555  -29.2465   20.5646 C   0  0  0  0  0  0  0  0  0  0  0  0
  -27.7763  -21.2841   19.8519 C   0  0  0  0  0  0  0  0  0  0  0  0
  -27.9373  -18.5168   19.5378 C   0  0  0  0  0  0  0  0  0  0  0  0
  -23.7654   -8.1571   23.6663 C   0  0  0  0  0  0  0  0  0  0  0  0
  -25.7558  -27.0396   20.3662 C   0  0  0  0  0  0  0  0  0  0  0  0
  -22.4752   -6.2380   24.0841 C   0  0  0  0  0  0  0  0  0  0  0  0
  -20.5983   -4.3744   23.1972 C   0  0  0  0  0  0  0  0  0  0  0  0
  -22.8106   -4.8855   24.0227 C   0  0  0  0  0  0  0  0  0  0  0  0
  -29.0149  -20.6459   19.9158 C   0  0  0  0  0  0  0  0  0  0  0  0
  -26.6987  -19.1551   19.4739 C   0  0  0  0  0  0  0  0  0  0  0  0
  -24.8839  -11.2445   20.9989 C   0  0  0  0  0  0  0  0  0  0  0  0
  -24.8747  -12.8746   19.5232 C   0  0  0  0  0  0  0  0  0  0  0  0
  -22.6033  -11.9847   20.0684 C   0  0  0  0  0  0  0  0  0  0  0  0
  -24.6369  -31.6803   22.9501 C   0  0  0  0  0  0  0  0  0  0  0  0
  -22.7607  -32.5073   20.4365 C   0  0  0  0  0  0  0  0  0  0  0  0
  -26.4971  -23.4485   19.9673 C   0  0  0  0  0  0  0  0  0  0  0  0
  -21.4623  -31.6735   17.3925 C   0  0  0  0  0  0  0  0  0  0  0  0
  -29.2218  -16.3526   19.4253 C   0  0  0  0  0  0  0  0  0  0  0  0
  -26.9177  -34.0520   26.8527 C   0  0  0  0  0  0  0  0  0  0  0  0
  -26.1908  -31.2735   21.0070 C   0  0  0  0  0  0  0  0  0  0  0  0
  -23.5164  -30.1022   20.5375 C   0  0  0  0  0  0  0  0  0  0  0  0
  -25.6995  -34.3212   25.9731 C   0  0  0  0  0  0  0  0  0  0  0  0
  -29.9210  -12.8742   19.1273 C   0  0  0  0  0  0  0  0  0  0  0  0
  -24.8213  -33.0773   25.8821 C   0  0  0  0  0  0  0  0  0  0  0  0
  -28.6027  -12.2043   19.5216 C   0  0  0  0  0  0  0  0  0  0  0  0
  -30.1911  -14.1274   19.9581 C   0  0  0  0  0  0  0  0  0  0  0  0
  -27.7818  -14.4403   20.3661 C   0  0  0  0  0  0  0  0  0  0  0  0
  -25.5820  -31.9107   25.2402 C   0  0  1  0  0  0  0  0  0  0  0  0
  -24.9179  -31.9548   21.4998 C   0  0  1  0  0  0  0  0  0  0  0  0
  -27.4347  -13.2099   19.5122 C   0  0  2  0  0  0  0  0  0  0  0  0
  -19.9308  -32.5354   15.6011 C   0  0  0  0  0  0  0  0  0  0  0  0
  -20.3474  -31.8209   22.1728 C   0  0  0  0  0  0  0  0  0  0  0  0
  -18.9520  -31.7784   20.0945 C   0  0  0  0  0  0  0  0  0  0  0  0
  -20.0843  -33.8890   20.7915 C   0  0  0  0  0  0  0  0  0  0  0  0
  -23.6263  -31.6591   15.3736 C   0  0  0  0  0  0  0  0  0  0  0  0
  -26.8129  -24.9175   20.1793 C   0  0  0  0  0  0  0  0  0  1  0  0
  -21.4673  -31.9921   19.8527 C   0  0  1  0  0  0  0  0  0  0  0  0
  -21.3679  -32.4491   16.0910 C   0  0  2  0  0  0  0  0  0  0  0  0
  -20.2357  -32.3534   20.7303 C   0  0  0  0  0  0  0  0  0  0  0  0
  -26.1710  -11.5698   20.8517 N   0  0  0  0  0  0  0  0  0  0  0  0
  -26.1329  -12.5637   19.9480 N   0  0  0  0  0  0  0  0  0  0  0  0
  -23.7297  -31.5435   20.7493 N   0  0  0  0  0  0  0  0  0  0  0  0
  -29.0436  -15.0354   19.8987 N   0  0  0  0  0  0  0  0  0  0  0  0
  -24.6558  -13.8500   18.6159 N   0  0  0  0  0  0  0  0  0  0  0  0
  -21.8904  -11.0505   20.8321 N   0  0  0  0  0  0  0  0  0  0  0  0
  -27.6594  -22.6858   20.0070 N   0  0  0  0  0  0  0  0  0  0  0  0
  -28.0537  -17.1131   19.3833 N   0  0  0  0  0  0  0  0  0  0  0  0
  -25.6472  -32.0790   23.8043 N   0  0  0  0  0  0  0  0  0  0  0  0
  -21.4012  -32.5069   18.4893 N   0  0  0  0  0  0  0  0  0  0  0  0
  -22.1858  -31.7892   15.0343 N   0  3  0  0  0  0  0  0  0  0  0  0
  -21.9798  -12.7436   19.2880 O   0  0  0  0  0  0  0  0  0  0  0  0
  -23.5808  -31.1476   23.2706 O   0  0  0  0  0  0  0  0  0  0  0  0
  -22.9086  -33.7207   20.6019 O   0  0  0  0  0  0  0  0  0  0  0  0
  -25.3481  -23.0573   19.7904 O   0  0  0  0  0  0  0  0  0  0  0  0
  -21.5749  -30.4502   17.4323 O   0  0  0  0  0  0  0  0  0  0  0  0
  -30.3241  -16.7662   19.0569 O   0  0  0  0  0  0  0  0  0  0  0  0
  -23.4055   -7.1642   24.5249 O   0  0  0  0  0  0  0  0  0  0  0  0
  -25.6207  -25.7015   20.1586 O   0  0  0  0  0  0  0  0  0  1  0  0
  -19.6965   -3.4795   22.7728 F   0  0  0  0  0  0  0  0  0  0  0  0
  -24.0325   -4.4751   24.3895 F   0  0  0  0  0  0  0  0  0  0  0  0
  -30.4738  -21.5310   20.1862 Cl  0  0  0  0  0  0  0  0  0  0  0  0
  -25.2395  -18.2701   19.2037 Cl  0  0  0  0  0  0  0  0  0  0  0  0
  1  2  1  0  0  0  0
  1  5  2  0  0  0  0
  2  6  2  0  0  0  0
  3  8  2  0  0  0  0
  3 17  1  0  0  0  0
  4  9  1  0  0  0  0
  4 17  2  0  0  0  0
  5 19  1  0  0  0  0
  6 21  1  0  0  0  0
  7 10  2  0  0  0  0
  7 20  1  0  0  0  0
  8 25  1  0  0  0  0
  9 25  2  0  0  0  0
 10 26  1  0  0  0  0
 11 12  2  0  0  0  0
 11 27  1  0  0  0  0
 12 28  1  0  0  0  0
 13 22  1  0  0  0  0
 13 26  2  0  0  0  0
 14 23  1  0  0  0  0
 14 31  2  0  0  0  0
 15 24  2  0  0  0  0
 15 30  1  0  0  0  0
 16 28  2  0  0  0  0
 16 29  1  0  0  0  0
 17 32  1  0  0  0  0
 18 32  1  0  0  0  0
 18 33  2  0  0  0  0
 18 34  1  0  0  0  0
 19 21  2  0  0  0  0
 19 40  1  0  0  0  0
 20 22  2  0  0  0  0
 20 41  1  0  0  0  0
 21 49  1  0  0  0  0
 22 42  1  0  0  0  0
 23 30  2  0  0  0  0
 23 67  1  0  0  0  0
 24 31  1  0  0  0  0
 24 68  1  0  0  0  0
 25 78  1  0  0  0  0
 26 79  1  0  0  0  0
 27 29  2  0  0  0  0
 27 78  1  0  0  0  0
 28 80  1  0  0  0  0
 29 81  1  0  0  0  0
 30 82  1  0  0  0  0
 31 83  1  0  0  0  0
 32 61  2  0  0  0  0
 33 62  1  0  0  0  0
 33 65  1  0  0  0  0
 34 66  1  0  0  0  0
 34 72  2  0  0  0  0
 35 50  1  0  0  0  0
 35 69  1  0  0  0  0
 35 73  2  0  0  0  0
 36 58  1  0  0  0  0
 36 63  1  0  0  0  0
 36 74  2  0  0  0  0
 37 57  1  0  0  0  0
 37 67  1  0  0  0  0
 37 75  2  0  0  0  0
 38 59  1  0  0  0  0
 38 70  1  0  0  0  0
 38 76  2  0  0  0  0
 39 64  1  0  0  0  0
 39 68  1  0  0  0  0
 39 77  2  0  0  0  0
 40 43  1  0  0  0  0
 41 50  1  0  0  0  0
 42 63  1  0  0  0  0
 43 45  1  0  0  0  0
 44 46  1  0  0  0  0
 44 47  1  0  0  0  0
 45 49  1  0  0  0  0
 46 51  1  0  0  0  0
 47 64  1  0  0  0  0
 48 51  1  0  0  0  0
 48 64  1  0  0  0  0
 49 69  1  0  0  0  0
 50 63  1  0  0  0  0
 51 62  1  0  0  0  0
 52 59  1  0  0  0  0
 53 60  1  0  0  0  0
 54 60  1  0  0  0  0
 55 60  1  0  0  0  0
 56 71  1  0  0  0  0
 57 79  1  0  0  0  0
 58 60  1  0  0  0  0
 58 70  1  0  0  0  0
 59 71  1  0  0  0  0
 61 62  1  0  0  0  0
M  CHG  1  71   1
M  ISO  4  39 100  57 101  68 100  79 101
M  END
> <Batch ID>
0010

> <Smiles>
CNC(C)C(=O)NC(C(=O)N1Cc2cc([101O:1][101CH2:1]C(=O)Nc3cc(Cl)c([100NH:0][100C:0](=O)N4CCCC(n5nc(-c6ccc(Oc7ccc(F)cc7F)cc6)c(C(N)=O)c5N)C4)cc3Cl)ccc2CC1C(=O)NC1CCCc2ccccc21)C(C)(C)C

> <Shape>
0.292

> <Color>
0.098

> <Negative vol penalty>
0.000

$$$$

  -OEChem-04052315413D

 84 92  0     1  0  0  0  0  0999 V2000
  -18.1705  -25.2008   21.5945 C   0  0  0  0  0  0  0  0  0  0  0  0
  -19.4185  -24.7111   21.9662 C   0  0  0  0  0  0  0  0  0  0  0  0
  -23.6262   -9.8380   21.5781 C   0  0  0  0  0  0  0  0  0  0  0  0
  -24.1640  -10.9545   23.6521 C   0  0  0  0  0  0  0  0  0  0  0  0
  -18.0638  -26.4620   21.0099 C   0  0  0  0  0  0  0  0  0  0  0  0
  -20.5606  -25.4819   21.7525 C   0  0  0  0  0  0  0  0  0  0  0  0
  -25.5484  -25.7343   25.2971 C   0  0  0  0  0  0  0  0  0  0  0  0
  -28.8236  -19.1649   21.2631 C   0  0  0  0  0  0  0  0  0  0  0  0
  -29.1787  -20.4402   21.7026 C   0  0  0  0  0  0  0  0  0  0  0  0
  -23.0546   -8.7854   22.2929 C   0  0  0  0  0  0  0  0  0  0  0  0
  -23.5923   -9.9019   24.3669 C   0  0  0  0  0  0  0  0  0  0  0  0
  -26.7923  -25.1104   25.2118 C   0  0  0  0  0  0  0  0  0  0  0  0
  -24.1159   -6.0685   24.0006 C   0  0  0  0  0  0  0  0  0  0  0  0
  -24.4298   -4.7693   23.6017 C   0  0  0  0  0  0  0  0  0  0  0  0
  -27.6912  -27.0651   24.1207 C   0  0  0  0  0  0  0  0  0  0  0  0
  -31.1590  -18.5608   21.1288 C   0  0  0  0  0  0  0  0  0  0  0  0
  -22.0909   -4.3335   23.1807 C   0  0  0  0  0  0  0  0  0  0  0  0
  -24.1810  -10.9225   22.2577 C   0  0  0  0  0  0  0  0  0  0  0  0
  -24.1285  -13.1743   21.0601 C   0  0  0  0  0  0  0  0  0  0  0  0
  -19.2041  -27.2527   20.7977 C   0  0  0  0  0  0  0  0  0  0  0  0
  -25.3635  -27.0263   24.7841 C   0  0  0  0  0  0  0  0  0  0  0  0
  -20.4692  -26.7544   21.1632 C   0  0  0  0  0  0  0  0  0  0  0  0
  -26.4446  -27.7042   24.2030 C   0  0  0  0  0  0  0  0  0  0  0  0
  -29.8138  -18.2252   20.9762 C   0  0  0  0  0  0  0  0  0  0  0  0
  -30.5240  -20.7758   21.8552 C   0  0  0  0  0  0  0  0  0  0  0  0
  -23.0376   -8.8174   23.6873 C   0  0  0  0  0  0  0  0  0  0  0  0
  -27.8632  -25.7747   24.6209 C   0  0  0  0  0  0  0  0  0  0  0  0
  -22.7895   -6.5002   23.9896 C   0  0  0  0  0  0  0  0  0  0  0  0
  -31.5141  -19.8361   21.5683 C   0  0  0  0  0  0  0  0  0  0  0  0
  -23.4173   -3.9018   23.1918 C   0  0  0  0  0  0  0  0  0  0  0  0
  -21.7771   -5.6328   23.5797 C   0  0  0  0  0  0  0  0  0  0  0  0
  -24.7722  -12.0098   21.5198 C   0  0  0  0  0  0  0  0  0  0  0  0
  -25.1167  -13.8840   20.4227 C   0  0  0  0  0  0  0  0  0  0  0  0
  -22.7597  -13.5784   21.1969 C   0  0  0  0  0  0  0  0  0  0  0  0
  -23.5467  -28.2965   22.5061 C   0  0  0  0  0  0  0  0  0  0  0  0
  -24.7474  -31.0861   23.6457 C   0  0  0  0  0  0  0  0  0  0  0  0
  -30.0052  -23.1171   22.6254 C   0  0  0  0  0  0  0  0  0  0  0  0
  -27.2510  -32.6950   25.3162 C   0  0  0  0  0  0  0  0  0  0  0  0
  -30.3099  -15.8802   20.2010 C   0  0  0  0  0  0  0  0  0  0  0  0
  -19.0441  -28.5901   20.1191 C   0  0  0  0  0  0  0  0  0  0  0  0
  -24.0223  -27.6958   24.9080 C   0  0  0  0  0  0  0  0  0  0  0  0
  -26.3035  -29.1001   23.6554 C   0  0  0  0  0  0  0  0  0  0  0  0
  -20.2612  -29.4991   20.2698 C   0  0  0  0  0  0  0  0  0  0  0  0
  -29.8112  -12.5319   19.0976 C   0  0  0  0  0  0  0  0  0  0  0  0
  -21.5438  -28.7264   19.9791 C   0  0  0  0  0  0  0  0  0  0  0  0
  -28.4028  -12.1934   19.5916 C   0  0  0  0  0  0  0  0  0  0  0  0
  -30.5656  -13.4107   20.0937 C   0  0  0  0  0  0  0  0  0  0  0  0
  -28.4506  -14.2921   20.9988 C   0  0  0  0  0  0  0  0  0  0  0  0
  -21.7286  -27.5710   20.9703 C   0  0  1  0  0  0  0  0  0  0  0  0
  -23.8165  -28.8139   23.8907 C   0  0  1  0  0  0  0  0  0  0  0  0
  -27.6285  -13.4621   19.9993 C   0  0  2  0  0  0  0  0  0  0  0  0
  -27.9722  -34.9814   26.0576 C   0  0  0  0  0  0  0  0  0  0  0  0
  -25.6015  -31.7400   20.7904 C   0  0  0  0  0  0  0  0  0  0  0  0
  -27.1079  -33.5103   21.7205 C   0  0  0  0  0  0  0  0  0  0  0  0
  -24.6417  -33.6692   22.0599 C   0  0  0  0  0  0  0  0  0  0  0  0
  -27.1830  -31.9176   28.1710 C   0  0  0  0  0  0  0  0  0  0  0  0
  -33.4957  -20.6940   20.5717 C   0  0  0  0  0  0  0  0  0  0  0  0
  -30.7941  -24.3465   23.0614 C   0  0  0  0  0  0  0  0  0  0  0  0
  -29.9070  -25.5258   23.4307 C   0  0  0  0  0  0  0  0  0  1  0  0
  -25.9596  -31.9324   23.3400 C   0  0  1  0  0  0  0  0  0  0  0  0
  -27.2187  -33.7166   26.4386 C   0  0  2  0  0  0  0  0  0  0  0  0
  -25.8302  -32.6859   21.9862 C   0  0  0  0  0  0  0  0  0  0  0  0
  -26.0690  -11.9776   21.2015 N   0  0  0  0  0  0  0  0  0  0  0  0
  -26.2481  -13.1306   20.5348 N   0  0  0  0  0  0  0  0  0  0  0  0
  -24.9707  -29.7099   23.7944 N   0  0  0  0  0  0  0  0  0  0  0  0
  -29.7733  -14.5955   20.4302 N   0  0  0  0  0  0  0  0  0  0  0  0
  -25.1196  -15.0727   19.7829 N   0  0  0  0  0  0  0  0  0  0  0  0
  -21.8780  -12.7306   21.8811 N   0  0  0  0  0  0  0  0  0  0  0  0
  -30.8685  -22.0740   22.3010 N   0  0  0  0  0  0  0  0  0  0  0  0
  -29.4528  -16.9301   20.5290 N   0  0  0  0  0  0  0  0  0  0  0  0
  -22.2099  -28.0677   22.2415 N   0  0  0  0  0  0  0  0  0  0  0  0
  -26.1498  -32.8049   24.4937 N   0  0  0  0  0  0  0  0  0  0  0  0
  -27.8397  -33.1525   27.6704 N   0  3  0  0  0  0  0  0  0  0  0  0
  -22.3275  -14.6516   20.7122 O   0  0  0  0  0  0  0  0  0  0  0  0
  -24.4820  -28.1194   21.7344 O   0  0  0  0  0  0  0  0  0  0  0  0
  -23.6444  -31.6271   23.7558 O   0  0  0  0  0  0  0  0  0  0  0  0
  -28.7794  -23.1084   22.5854 O   0  0  0  0  0  0  0  0  0  0  0  0
  -28.1639  -31.8834   25.1802 O   0  0  0  0  0  0  0  0  0  0  0  0
  -31.4359  -16.0371   19.7218 O   0  0  0  0  0  0  0  0  0  0  0  0
  -22.4797   -7.7907   24.3852 O   0  0  0  0  0  0  0  0  0  0  0  0
  -32.8346  -20.1441   21.7090 O   0  0  0  0  0  0  0  0  0  0  0  0
  -29.0782  -25.1677   24.5358 O   0  0  0  0  0  0  0  0  0  1  0  0
  -23.7190   -2.6547   22.8073 F   0  0  0  0  0  0  0  0  0  0  0  0
  -20.5012   -6.0422   23.5659 F   0  0  0  0  0  0  0  0  0  0  0  0
  1  2  1  0  0  0  0
  1  5  2  0  0  0  0
  2  6  2  0  0  0  0
  3 10  2  0  0  0  0
  3 18  1  0  0  0  0
  4 11  1  0  0  0  0
  4 18  2  0  0  0  0
  5 20  1  0  0  0  0
  6 22  1  0  0  0  0
  7 12  2  0  0  0  0
  7 21  1  0  0  0  0
  8  9  2  0  0  0  0
  8 24  1  0  0  0  0
  9 25  1  0  0  0  0
 10 26  1  0  0  0  0
 11 26  2  0  0  0  0
 12 27  1  0  0  0  0
 13 14  2  0  0  0  0
 13 28  1  0  0  0  0
 14 30  1  0  0  0  0
 15 23  1  0  0  0  0
 15 27  2  0  0  0  0
 16 24  2  0  0  0  0
 16 29  1  0  0  0  0
 17 30  2  0  0  0  0
 17 31  1  0  0  0  0
 18 32  1  0  0  0  0
 19 32  1  0  0  0  0
 19 33  2  0  0  0  0
 19 34  1  0  0  0  0
 20 22  2  0  0  0  0
 20 40  1  0  0  0  0
 21 23  2  0  0  0  0
 21 41  1  0  0  0  0
 22 49  1  0  0  0  0
 23 42  1  0  0  0  0
 24 70  1  0  0  0  0
 25 29  2  0  0  0  0
 25 69  1  0  0  0  0
 26 80  1  0  0  0  0
 27 82  1  0  0  0  0
 28 31  2  0  0  0  0
 28 80  1  0  0  0  0
 29 81  1  0  0  0  0
 30 83  1  0  0  0  0
 31 84  1  0  0  0  0
 32 63  2  0  0  0  0
 33 64  1  0  0  0  0
 33 67  1  0  0  0  0
 34 68  1  0  0  0  0
 34 74  2  0  0  0  0
 35 50  1  0  0  0  0
 35 71  1  0  0  0  0
 35 75  2  0  0  0  0
 36 60  1  0  0  0  0
 36 65  1  0  0  0  0
 36 76  2  0  0  0  0
 37 58  1  0  0  0  0
 37 69  1  0  0  0  0
 37 77  2  0  0  0  0
 38 61  1  0  0  0  0
 38 72  1  0  0  0  0
 38 78  2  0  0  0  0
 39 66  1  0  0  0  0
 39 70  1  0  0  0  0
 39 79  2  0  0  0  0
 40 43  1  0  0  0  0
 41 50  1  0  0  0  0
 42 65  1  0  0  0  0
 43 45  1  0  0  0  0
 44 46  1  0  0  0  0
 44 47  1  0  0  0  0
 45 49  1  0  0  0  0
 46 51  1  0  0  0  0
 47 66  1  0  0  0  0
 48 51  1  0  0  0  0
 48 66  1  0  0  0  0
 49 71  1  0  0  0  0
 50 65  1  0  0  0  0
 51 64  1  0  0  0  0
 52 61  1  0  0  0  0
 53 62  1  0  0  0  0
 54 62  1  0  0  0  0
 55 62  1  0  0  0  0
 56 73  1  0  0  0  0
 57 81  1  0  0  0  0
 58 59  1  0  0  0  0
 59 82  1  0  0  0  0
 60 62  1  0  0  0  0
 60 72  1  0  0  0  0
 61 73  1  0  0  0  0
 63 64  1  0  0  0  0
M  CHG  1  73   1
M  ISO  4  39 100  59 101  70 100  82 101
M  END
> <Batch ID>
0010

> <Smiles>
CNC(C)C(=O)NC(C(=O)N1Cc2cc([101O:1][101CH2:1]CC(=O)Nc3ccc([100NH:0][100C:0](=O)N4CCCC(n5nc(-c6ccc(Oc7ccc(F)cc7F)cc6)c(C(N)=O)c5N)C4)cc3OC)ccc2CC1C(=O)NC1CCCc2ccccc21)C(C)(C)C

> <Shape>
0.279

> <Color>
0.131

> <Negative vol penalty>
0.000

$$$$

  -OEChem-04052315413D

 84 92  0     1  0  0  0  0  0999 V2000
  -20.8406  -29.3343   29.8511 C   0  0  0  0  0  0  0  0  0  0  0  0
  -21.7689  -28.3008   29.7751 C   0  0  0  0  0  0  0  0  0  0  0  0
  -23.2135   -9.6705   20.5619 C   0  0  0  0  0  0  0  0  0  0  0  0
  -23.8860  -10.2076   22.8193 C   0  0  0  0  0  0  0  0  0  0  0  0
  -20.2498  -29.8260   28.6878 C   0  0  0  0  0  0  0  0  0  0  0  0
  -22.1061  -27.7577   28.5358 C   0  0  0  0  0  0  0  0  0  0  0  0
  -27.5844  -25.6262   26.8182 C   0  0  0  0  0  0  0  0  0  0  0  0
  -32.3019  -18.3519   22.5947 C   0  0  0  0  0  0  0  0  0  0  0  0
  -31.7754  -17.2707   21.8880 C   0  0  0  0  0  0  0  0  0  0  0  0
  -22.5153   -8.5592   21.0342 C   0  0  0  0  0  0  0  0  0  0  0  0
  -23.1878   -9.0963   23.2917 C   0  0  0  0  0  0  0  0  0  0  0  0
  -28.1110  -24.3369   26.7535 C   0  0  0  0  0  0  0  0  0  0  0  0
  -19.5552   -7.9342   22.5443 C   0  0  0  0  0  0  0  0  0  0  0  0
  -18.2710   -7.7156   22.0459 C   0  0  0  0  0  0  0  0  0  0  0  0
  -27.5366  -24.2262   24.4131 C   0  0  0  0  0  0  0  0  0  0  0  0
  -30.0707  -19.2101   22.9440 C   0  0  0  0  0  0  0  0  0  0  0  0
  -18.9696   -5.5678   21.1879 C   0  0  0  0  0  0  0  0  0  0  0  0
  -23.8989  -10.4947   21.4544 C   0  0  0  0  0  0  0  0  0  0  0  0
  -24.1270  -12.9506   20.8031 C   0  0  0  0  0  0  0  0  0  0  0  0
  -20.5871  -29.2951   27.4328 C   0  0  0  0  0  0  0  0  0  0  0  0
  -27.0191  -26.2220   25.6815 C   0  0  0  0  0  0  0  0  0  0  0  0
  -21.5182  -28.2419   27.3548 C   0  0  0  0  0  0  0  0  0  0  0  0
  -27.0058  -25.5241   24.4654 C   0  0  0  0  0  0  0  0  0  0  0  0
  -31.4495  -19.3216   23.1227 C   0  0  0  0  0  0  0  0  0  0  0  0
  -30.3966  -17.1591   21.7093 C   0  0  0  0  0  0  0  0  0  0  0  0
  -22.5025   -8.2721   22.3992 C   0  0  0  0  0  0  0  0  0  0  0  0
  -28.0846  -23.6356   25.5516 C   0  0  0  0  0  0  0  0  0  0  0  0
  -20.5467   -6.9697   22.3644 C   0  0  0  0  0  0  0  0  0  0  0  0
  -29.5442  -18.1289   22.2373 C   0  0  0  0  0  0  0  0  0  0  0  0
  -17.9781   -6.5324   21.3677 C   0  0  0  0  0  0  0  0  0  0  0  0
  -20.2539   -5.7865   21.6863 C   0  0  0  0  0  0  0  0  0  0  0  0
  -24.6208  -11.6425   20.9670 C   0  0  0  0  0  0  0  0  0  0  0  0
  -25.1959  -13.6626   20.3162 C   0  0  0  0  0  0  0  0  0  0  0  0
  -22.8191  -13.4752   21.0674 C   0  0  0  0  0  0  0  0  0  0  0  0
  -24.1272  -27.2959   24.9153 C   0  0  0  0  0  0  0  0  0  0  0  0
  -25.6430  -28.3165   22.2352 C   0  0  0  0  0  0  0  0  0  0  0  0
  -28.2672  -27.9702   20.0809 C   0  0  0  0  0  0  0  0  0  0  0  0
  -30.5971  -15.0123   20.4066 C   0  0  0  0  0  0  0  0  0  0  0  0
  -19.8869  -29.8273   26.2076 C   0  0  0  0  0  0  0  0  0  0  0  0
  -26.4793  -27.6237   25.7614 C   0  0  0  0  0  0  0  0  0  0  0  0
  -26.4286  -26.1267   23.2116 C   0  0  0  0  0  0  0  0  0  0  0  0
  -20.5777  -29.4507   24.8994 C   0  0  0  0  0  0  0  0  0  0  0  0
  -29.6856  -12.0924   18.5844 C   0  0  0  0  0  0  0  0  0  0  0  0
  -20.9448  -27.9701   24.8966 C   0  0  0  0  0  0  0  0  0  0  0  0
  -28.2460  -11.8227   19.0283 C   0  0  0  0  0  0  0  0  0  0  0  0
  -30.5435  -12.6211   19.7325 C   0  0  0  0  0  0  0  0  0  0  0  0
  -28.5546  -13.5207   20.8745 C   0  0  0  0  0  0  0  0  0  0  0  0
  -21.9284  -27.6434   26.0268 C   0  0  1  0  0  0  0  0  0  0  0  0
  -25.4636  -27.9360   24.6668 C   0  0  1  0  0  0  0  0  0  0  0  0
  -27.6356  -13.0482   19.7362 C   0  0  2  0  0  0  0  0  0  0  0  0
  -29.2155  -28.9235   17.9622 C   0  0  0  0  0  0  0  0  0  0  0  0
  -23.5202  -26.8340   20.6209 C   0  0  0  0  0  0  0  0  0  0  0  0
  -25.0170  -27.0105   18.6217 C   0  0  0  0  0  0  0  0  0  0  0  0
  -24.1445  -29.0782   19.7108 C   0  0  0  0  0  0  0  0  0  0  0  0
  -33.4263  -20.5238   24.0212 C   0  0  0  0  0  0  0  0  0  0  0  0
  -30.7643  -28.8004   21.4352 C   0  0  0  0  0  0  0  0  0  0  0  0
  -27.4667  -17.3324   23.0775 C   0  0  0  0  0  0  0  0  0  0  0  0
  -30.5482  -20.9992   25.7219 C   0  0  0  0  0  0  0  0  0  0  0  0
  -31.1271  -21.4361   24.3817 C   0  0  0  0  0  0  0  0  0  0  0  0
  -29.6745  -22.0672   26.3692 C   0  0  0  0  0  0  0  0  0  1  0  0
  -25.9309  -27.7220   20.8777 C   0  0  1  0  0  0  0  0  0  0  0  0
  -29.2195  -28.9890   19.4815 C   0  0  2  0  0  0  0  0  0  0  0  0
  -24.6624  -27.6488   19.9817 C   0  0  0  0  0  0  0  0  0  0  0  0
  -25.9035  -11.5274   20.6128 N   0  0  0  0  0  0  0  0  0  0  0  0
  -26.2247  -12.7722   20.2214 N   0  0  0  0  0  0  0  0  0  0  0  0
  -25.9074  -27.4974   23.3420 N   0  0  0  0  0  0  0  0  0  0  0  0
  -29.9047  -13.7841   20.3524 N   0  0  0  0  0  0  0  0  0  0  0  0
  -25.3466  -14.9570   19.9640 N   0  0  0  0  0  0  0  0  0  0  0  0
  -21.8387  -12.6062   21.5654 N   0  0  0  0  0  0  0  0  0  0  0  0
  -29.8772  -16.0547   20.9894 N   0  0  0  0  0  0  0  0  0  0  0  0
  -23.2656  -28.0676   25.6714 N   0  0  0  0  0  0  0  0  0  0  0  0
  -27.0192  -28.5102   20.3094 N   0  0  0  0  0  0  0  0  0  0  0  0
  -31.9788  -20.4082   23.8338 N   0  0  3  0  0  0  0  0  0  0  0  0
  -30.6096  -28.7423   19.9589 N   0  3  0  0  0  0  0  0  0  0  0  0
  -22.5238  -14.6753   20.8524 O   0  0  0  0  0  0  0  0  0  0  0  0
  -23.8943  -26.1848   24.4539 O   0  0  0  0  0  0  0  0  0  0  0  0
  -25.2066  -29.4677   22.3110 O   0  0  0  0  0  0  0  0  0  0  0  0
  -28.5962  -26.8102   20.3190 O   0  0  0  0  0  0  0  0  0  0  0  0
  -31.7338  -15.1374   19.9437 O   0  0  0  0  0  0  0  0  0  0  0  0
  -21.8211   -7.1879   22.8605 O   0  0  0  0  0  0  0  0  0  0  0  0
  -28.1937  -18.0387   22.0747 O   0  0  0  0  0  0  0  0  0  0  0  0
  -28.5974  -22.3768   25.4858 O   0  0  0  0  0  0  0  0  0  1  0  0
  -16.7443   -6.3219   20.8905 F   0  0  0  0  0  0  0  0  0  0  0  0
  -21.2019   -4.8557   21.5114 F   0  0  0  0  0  0  0  0  0  0  0  0
  1  2  1  0  0  0  0
  1  5  2  0  0  0  0
  2  6  2  0  0  0  0
  3 10  2  0  0  0  0
  3 18  1  0  0  0  0
  4 11  1  0  0  0  0
  4 18  2  0  0  0  0
  5 20  1  0  0  0  0
  6 22  1  0  0  0  0
  7 12  2  0  0  0  0
  7 21  1  0  0  0  0
  8  9  2  0  0  0  0
  8 24  1  0  0  0  0
  9 25  1  0  0  0  0
 10 26  1  0  0  0  0
 11 26  2  0  0  0  0
 12 27  1  0  0  0  0
 13 14  2  0  0  0  0
 13 28  1  0  0  0  0
 14 30  1  0  0  0  0
 15 23  1  0  0  0  0
 15 27  2  0  0  0  0
 16 24  2  0  0  0  0
 16 29  1  0  0  0  0
 17 30  2  0  0  0  0
 17 31  1  0  0  0  0
 18 32  1  0  0  0  0
 19 32  1  0  0  0  0
 19 33  2  0  0  0  0
 19 34  1  0  0  0  0
 20 22  2  0  0  0  0
 20 39  1  0  0  0  0
 21 23  2  0  0  0  0
 21 40  1  0  0  0  0
 22 48  1  0  0  0  0
 23 41  1  0  0  0  0
 24 73  1  0  0  0  0
 25 29  2  0  0  0  0
 25 70  1  0  0  0  0
 26 80  1  0  0  0  0
 27 82  1  0  0  0  0
 28 31  2  0  0  0  0
 28 80  1  0  0  0  0
 29 81  1  0  0  0  0
 30 83  1  0  0  0  0
 31 84  1  0  0  0  0
 32 64  2  0  0  0  0
 33 65  1  0  0  0  0
 33 68  1  0  0  0  0
 34 69  1  0  0  0  0
 34 75  2  0  0  0  0
 35 49  1  0  0  0  0
 35 71  1  0  0  0  0
 35 76  2  0  0  0  0
 36 61  1  0  0  0  0
 36 66  1  0  0  0  0
 36 77  2  0  0  0  0
 37 62  1  0  0  0  0
 37 72  1  0  0  0  0
 37 78  2  0  0  0  0
 38 67  1  0  0  0  0
 38 70  1  0  0  0  0
 38 79  2  0  0  0  0
 39 42  1  0  0  0  0
 40 49  1  0  0  0  0
 41 66  1  0  0  0  0
 42 44  1  0  0  0  0
 43 45  1  0  0  0  0
 43 46  1  0  0  0  0
 44 48  1  0  0  0  0
 45 50  1  0  0  0  0
 46 67  1  0  0  0  0
 47 50  1  0  0  0  0
 47 67  1  0  0  0  0
 48 71  1  0  0  0  0
 49 66  1  0  0  0  0
 50 65  1  0  0  0  0
 51 62  1  0  0  0  0
 52 63  1  0  0  0  0
 53 63  1  0  0  0  0
 54 63  1  0  0  0  0
 55 73  1  0  0  0  0
 56 74  1  0  0  0  0
 57 81  1  0  0  0  0
 58 59  1  0  0  0  0
 58 60  1  0  0  0  0
 59 73  1  0  0  0  0
 60 82  1  0  0  0  0
 61 63  1  0  0  0  0
 61 72  1  0  0  0  0
 62 74  1  0  0  0  0
 64 65  1  0  0  0  0
M  CHG  1  74   1
M  ISO  4  38 100  60 101  70 100  82 101
M  END
> <Batch ID>
0010

> <Smiles>
CNC(C)C(=O)NC(C(=O)N1Cc2cc([101O:1][101CH2:1]CCN(C)c3ccc([100NH:0][100C:0](=O)N4CCCC(n5nc(-c6ccc(Oc7ccc(F)cc7F)cc6)c(C(N)=O)c5N)C4)c(OC)c3)ccc2CC1C(=O)NC1CCCc2ccccc21)C(C)(C)C

> <Shape>
0.218

> <Color>
0.184

> <Negative vol penalty>
0.000

$$$$

  -OEChem-04052315413D

 85 93  0     1  0  0  0  0  0999 V2000
  -28.7585  -37.4585   23.1995 C   0  0  0  0  0  0  0  0  0  0  0  0
  -29.1505  -36.2375   22.6600 C   0  0  0  0  0  0  0  0  0  0  0  0
  -22.8545  -13.4695   21.0542 C   0  0  0  0  0  0  0  0  0  0  0  0
  -22.6502  -14.7806   19.0352 C   0  0  0  0  0  0  0  0  0  0  0  0
  -27.7256  -37.5066   24.1347 C   0  0  0  0  0  0  0  0  0  0  0  0
  -28.5105  -35.0638   23.0563 C   0  0  0  0  0  0  0  0  0  0  0  0
  -27.3564  -30.1490   19.5895 C   0  0  0  0  0  0  0  0  0  0  0  0
  -21.4650  -13.4308   21.1697 C   0  0  0  0  0  0  0  0  0  0  0  0
  -21.2607  -14.7418   19.1506 C   0  0  0  0  0  0  0  0  0  0  0  0
  -28.0121  -28.9270   19.4467 C   0  0  0  0  0  0  0  0  0  0  0  0
  -18.8970  -11.7224   19.7841 C   0  0  0  0  0  0  0  0  0  0  0  0
  -18.3060  -10.4969   20.0913 C   0  0  0  0  0  0  0  0  0  0  0  0
  -26.4962  -27.9341   21.0389 C   0  0  0  0  0  0  0  0  0  0  0  0
  -17.3716  -11.4521   22.1041 C   0  0  0  0  0  0  0  0  0  0  0  0
  -23.4472  -14.1445   19.9870 C   0  0  0  0  0  0  0  0  0  0  0  0
  -25.7054  -13.2674   19.1879 C   0  0  0  0  0  0  0  0  0  0  0  0
  -27.0660  -36.3340   24.5355 C   0  0  0  0  0  0  0  0  0  0  0  0
  -26.2706  -30.2756   20.4678 C   0  0  0  0  0  0  0  0  0  0  0  0
  -27.4686  -35.0961   23.9988 C   0  0  0  0  0  0  0  0  0  0  0  0
  -25.8267  -29.1582   21.1892 C   0  0  0  0  0  0  0  0  0  0  0  0
  -20.6681  -14.0669   20.2179 C   0  0  0  0  0  0  0  0  0  0  0  0
  -27.5839  -27.8200   20.1735 C   0  0  0  0  0  0  0  0  0  0  0  0
  -18.7254  -12.8128   20.6369 C   0  0  0  0  0  0  0  0  0  0  0  0
  -17.5433  -10.3617   21.2513 C   0  0  0  0  0  0  0  0  0  0  0  0
  -17.9627  -12.6776   21.7969 C   0  0  0  0  0  0  0  0  0  0  0  0
  -24.8825  -14.1854   19.8675 C   0  0  0  0  0  0  0  0  0  0  0  0
  -26.9792  -13.7479   19.3701 C   0  0  0  0  0  0  0  0  0  0  0  0
  -31.0780  -20.5804   19.0227 C   0  0  0  0  0  0  0  0  0  0  0  0
  -32.3935  -22.5761   18.8022 C   0  0  0  0  0  0  0  0  0  0  0  0
  -31.9664  -21.4274   18.2586 C   0  0  0  0  0  0  0  0  0  0  0  0
  -30.6779  -20.9216   20.2552 C   0  0  0  0  0  0  0  0  0  0  0  0
  -31.1524  -22.2058   20.8693 C   0  0  0  0  0  0  0  0  0  0  0  0
  -25.3502  -12.0860   18.4573 C   0  0  0  0  0  0  0  0  0  0  0  0
  -25.6842  -31.9948   23.0764 C   0  0  0  0  0  0  0  0  0  0  0  0
  -22.7169  -30.7189   22.7771 C   0  0  0  0  0  0  0  0  0  0  0  0
  -20.7553  -28.1959   21.5800 C   0  0  0  0  0  0  0  0  0  0  0  0
  -28.8762  -19.3000   20.4304 C   0  0  0  0  0  0  0  0  0  0  0  0
  -25.9868  -36.4304   25.5846 C   0  0  0  0  0  0  0  0  0  0  0  0
  -25.5571  -31.5941   20.5906 C   0  0  0  0  0  0  0  0  0  0  0  0
  -24.6532  -29.2366   22.1300 C   0  0  0  0  0  0  0  0  0  0  0  0
  -25.1087  -35.1848   25.6715 C   0  0  0  0  0  0  0  0  0  0  0  0
  -29.6393  -16.2749   22.4117 C   0  0  0  0  0  0  0  0  0  0  0  0
  -25.9687  -33.9249   25.6794 C   0  0  0  0  0  0  0  0  0  0  0  0
  -28.5316  -15.3339   21.9479 C   0  0  0  0  0  0  0  0  0  0  0  0
  -29.1783  -17.7316   22.4446 C   0  0  0  0  0  0  0  0  0  0  0  0
  -27.4958  -17.2602   20.6868 C   0  0  0  0  0  0  0  0  0  0  0  0
  -26.7820  -33.8040   24.3850 C   0  0  1  0  0  0  0  0  0  0  0  0
  -24.7864  -31.7369   21.8994 C   0  0  1  0  0  0  0  0  0  0  0  0
  -27.9563  -15.7969   20.6010 C   0  0  2  0  0  0  0  0  0  0  0  0
  -33.1139  -19.6423   16.9720 C   0  0  0  0  0  0  0  0  0  0  0  0
  -31.1384  -20.8424   15.9843 C   0  0  0  0  0  0  0  0  0  0  0  0
  -18.3731  -27.4087   21.5269 C   0  0  0  0  0  0  0  0  0  0  0  0
  -22.9654  -29.7794   25.6694 C   0  0  0  0  0  0  0  0  0  0  0  0
  -21.0419  -28.2305   25.2583 C   0  0  0  0  0  0  0  0  0  0  0  0
  -20.7199  -30.6962   25.0596 C   0  0  0  0  0  0  0  0  0  0  0  0
  -20.6469  -28.3546   18.6267 C   0  0  0  0  0  0  0  0  0  0  0  0
  -31.8074  -25.4479   19.9747 C   0  0  0  0  0  0  0  0  0  0  0  0
  -30.3091  -25.4346   20.2795 C   0  0  0  0  0  0  0  0  0  0  0  0
  -32.5344  -24.2437   20.5649 C   0  0  0  0  0  0  0  0  0  0  0  0
  -29.6124  -26.6663   19.7151 C   0  0  0  0  0  0  0  0  0  1  0  0
  -32.3613  -20.9677   16.8906 C   0  0  0  0  0  0  0  0  0  0  0  0
  -22.0341  -29.4705   23.2813 C   0  0  1  0  0  0  0  0  0  0  0  0
  -19.4458  -28.2157   20.8123 C   0  0  2  0  0  0  0  0  0  0  0  0
  -21.7137  -29.5428   24.8010 C   0  0  0  0  0  0  0  0  0  0  0  0
  -25.5752  -15.1741   20.4389 N   0  0  0  0  0  0  0  0  0  0  0  0
  -26.8469  -14.8802   20.1188 N   0  0  0  0  0  0  0  0  0  0  0  0
  -32.0174  -22.9941   20.0783 N   0  0  0  0  0  0  0  0  0  0  0  0
  -23.9924  -30.5491   22.2203 N   0  0  0  0  0  0  0  0  0  0  0  0
  -28.5719  -18.1371   21.1662 N   0  0  0  0  0  0  0  0  0  0  0  0
  -28.1882  -13.3080   18.9612 N   0  0  0  0  0  0  0  0  0  0  0  0
  -23.9957  -11.7372   18.3687 N   0  0  0  0  0  0  0  0  0  0  0  0
  -29.8393  -20.1337   20.9924 N   0  0  0  0  0  0  0  0  0  0  0  0
  -25.9436  -33.3329   23.3035 N   0  0  0  0  0  0  0  0  0  0  0  0
  -20.8639  -29.2741   22.4325 N   0  0  0  0  0  0  0  0  0  0  0  0
  -19.6355  -27.6427   19.4497 N   0  3  0  0  0  0  0  0  0  0  0  0
  -30.7827  -22.5142   22.0021 O   0  0  0  0  0  0  0  0  0  0  0  0
  -26.2100  -11.3522   17.9133 O   0  0  0  0  0  0  0  0  0  0  0  0
  -26.1089  -31.0498   23.7309 O   0  0  0  0  0  0  0  0  0  0  0  0
  -22.1368  -31.8038   22.8673 O   0  0  0  0  0  0  0  0  0  0  0  0
  -21.5960  -27.3103   21.4403 O   0  0  0  0  0  0  0  0  0  0  0  0
  -28.3199  -19.5706   19.3599 O   0  0  0  0  0  0  0  0  0  0  0  0
  -19.3122  -14.0290   20.3301 O   0  0  0  0  0  0  0  0  0  0  0  0
  -28.2226  -26.6262   20.0365 O   0  0  0  0  0  0  0  0  0  1  0  0
  -16.9745   -9.1852   21.5453 F   0  0  0  0  0  0  0  0  0  0  0  0
  -17.7932  -13.7219   22.6194 F   0  0  0  0  0  0  0  0  0  0  0  0
  1  2  1  0  0  0  0
  1  5  2  0  0  0  0
  2  6  2  0  0  0  0
  3  8  2  0  0  0  0
  3 15  1  0  0  0  0
  4  9  1  0  0  0  0
  4 15  2  0  0  0  0
  5 17  1  0  0  0  0
  6 19  1  0  0  0  0
  7 10  2  0  0  0  0
  7 18  1  0  0  0  0
  8 21  1  0  0  0  0
  9 21  2  0  0  0  0
 10 22  1  0  0  0  0
 11 12  2  0  0  0  0
 11 23  1  0  0  0  0
 12 24  1  0  0  0  0
 13 20  1  0  0  0  0
 13 22  2  0  0  0  0
 14 24  2  0  0  0  0
 14 25  1  0  0  0  0
 15 26  1  0  0  0  0
 16 26  1  0  0  0  0
 16 27  2  0  0  0  0
 16 33  1  0  0  0  0
 17 19  2  0  0  0  0
 17 38  1  0  0  0  0
 18 20  2  0  0  0  0
 18 39  1  0  0  0  0
 19 47  1  0  0  0  0
 20 40  1  0  0  0  0
 21 82  1  0  0  0  0
 22 83  1  0  0  0  0
 23 25  2  0  0  0  0
 23 82  1  0  0  0  0
 24 84  1  0  0  0  0
 25 85  1  0  0  0  0
 26 65  2  0  0  0  0
 27 66  1  0  0  0  0
 27 70  1  0  0  0  0
 28 30  1  0  0  0  0
 28 31  2  0  0  0  0
 29 30  2  0  0  0  0
 29 67  1  0  0  0  0
 30 61  1  0  0  0  0
 31 32  1  0  0  0  0
 31 72  1  0  0  0  0
 32 67  1  0  0  0  0
 32 76  2  0  0  0  0
 33 71  1  0  0  0  0
 33 77  2  0  0  0  0
 34 48  1  0  0  0  0
 34 73  1  0  0  0  0
 34 78  2  0  0  0  0
 35 62  1  0  0  0  0
 35 68  1  0  0  0  0
 35 79  2  0  0  0  0
 36 63  1  0  0  0  0
 36 74  1  0  0  0  0
 36 80  2  0  0  0  0
 37 69  1  0  0  0  0
 37 72  1  0  0  0  0
 37 81  2  0  0  0  0
 38 41  1  0  0  0  0
 39 48  1  0  0  0  0
 40 68  1  0  0  0  0
 41 43  1  0  0  0  0
 42 44  1  0  0  0  0
 42 45  1  0  0  0  0
 43 47  1  0  0  0  0
 44 49  1  0  0  0  0
 45 69  1  0  0  0  0
 46 49  1  0  0  0  0
 46 69  1  0  0  0  0
 47 73  1  0  0  0  0
 48 68  1  0  0  0  0
 49 66  1  0  0  0  0
 50 61  1  0  0  0  0
 51 61  1  0  0  0  0
 52 63  1  0  0  0  0
 53 64  1  0  0  0  0
 54 64  1  0  0  0  0
 55 64  1  0  0  0  0
 56 75  1  0  0  0  0
 57 58  1  0  0  0  0
 57 59  1  0  0  0  0
 58 60  1  0  0  0  0
 59 67  1  0  0  0  0
 60 83  1  0  0  0  0
 62 64  1  0  0  0  0
 62 74  1  0  0  0  0
 63 75  1  0  0  0  0
 65 66  1  0  0  0  0
M  CHG  1  75   1
M  ISO  4  37 100  60 101  72 100  83 101
M  END
> <Batch ID>
0010

> <Smiles>
CNC(C)C(=O)NC(C(=O)N1Cc2cc([101O:1][101CH2:1]CCCn3cc(C(C)C)cc([100NH:0][100C:0](=O)N4CCCC(n5nc(-c6ccc(Oc7ccc(F)cc7F)cc6)c(C(N)=O)c5N)C4)c3=O)ccc2CC1C(=O)NC1CCCc2ccccc21)C(C)(C)C

> <Shape>
0.266

> <Color>
0.077

> <Negative vol penalty>
0.000

$$$$

  -OEChem-04052315413D

 83 91  0     1  0  0  0  0  0999 V2000
  -18.0687  -25.2641   21.6836 C   0  0  0  0  0  0  0  0  0  0  0  0
  -19.3245  -24.7822   22.0388 C   0  0  0  0  0  0  0  0  0  0  0  0
  -23.7083   -9.8697   21.6158 C   0  0  0  0  0  0  0  0  0  0  0  0
  -24.2526  -11.0010   23.6799 C   0  0  0  0  0  0  0  0  0  0  0  0
  -17.9467  -26.5231   21.0971 C   0  0  0  0  0  0  0  0  0  0  0  0
  -20.4592  -25.5588   21.8068 C   0  0  0  0  0  0  0  0  0  0  0  0
  -25.4953  -25.8481   25.2795 C   0  0  0  0  0  0  0  0  0  0  0  0
  -28.7651  -19.2707   21.2126 C   0  0  0  0  0  0  0  0  0  0  0  0
  -29.1069  -20.5524   21.6441 C   0  0  0  0  0  0  0  0  0  0  0  0
  -23.1600   -8.8114   22.3403 C   0  0  0  0  0  0  0  0  0  0  0  0
  -23.7043   -9.9427   24.4045 C   0  0  0  0  0  0  0  0  0  0  0  0
  -26.7413  -25.2308   25.1783 C   0  0  0  0  0  0  0  0  0  0  0  0
  -24.2799   -6.1161   24.0449 C   0  0  0  0  0  0  0  0  0  0  0  0
  -24.6083   -4.8202   23.6469 C   0  0  0  0  0  0  0  0  0  0  0  0
  -27.6138  -27.1874   24.0694 C   0  0  0  0  0  0  0  0  0  0  0  0
  -31.1073  -18.6995   21.0541 C   0  0  0  0  0  0  0  0  0  0  0  0
  -22.2716   -4.3489   23.2533 C   0  0  0  0  0  0  0  0  0  0  0  0
  -24.2546  -10.9645   22.2856 C   0  0  0  0  0  0  0  0  0  0  0  0
  -24.1559  -13.2112   21.0813 C   0  0  0  0  0  0  0  0  0  0  0  0
  -19.0795  -27.3195   20.8667 C   0  0  0  0  0  0  0  0  0  0  0  0
  -25.2960  -27.1377   24.7659 C   0  0  0  0  0  0  0  0  0  0  0  0
  -20.3524  -26.8291   21.2155 C   0  0  0  0  0  0  0  0  0  0  0  0
  -26.3650  -27.8199   24.1677 C   0  0  0  0  0  0  0  0  0  0  0  0
  -29.7653  -18.3442   20.9176 C   0  0  0  0  0  0  0  0  0  0  0  0
  -30.4488  -20.9076   21.7805 C   0  0  0  0  0  0  0  0  0  0  0  0
  -23.1580   -8.8479   23.7347 C   0  0  0  0  0  0  0  0  0  0  0  0
  -27.8000  -25.8993   24.5705 C   0  0  0  0  0  0  0  0  0  0  0  0
  -22.9473   -6.5284   24.0473 C   0  0  0  0  0  0  0  0  0  0  0  0
  -23.6042   -3.9367   23.2510 C   0  0  0  0  0  0  0  0  0  0  0  0
  -31.4491  -19.9811   21.4855 C   0  0  0  0  0  0  0  0  0  0  0  0
  -21.9432   -5.6448   23.6515 C   0  0  0  0  0  0  0  0  0  0  0  0
  -24.8216  -12.0578   21.5376 C   0  0  0  0  0  0  0  0  0  0  0  0
  -25.1265  -13.9331   20.4307 C   0  0  0  0  0  0  0  0  0  0  0  0
  -22.7829  -13.5957   21.2320 C   0  0  0  0  0  0  0  0  0  0  0  0
  -23.4401  -28.3917   22.5105 C   0  0  0  0  0  0  0  0  0  0  0  0
  -24.6415  -31.1909   23.6256 C   0  0  0  0  0  0  0  0  0  0  0  0
  -29.9282  -23.2481   22.5518 C   0  0  0  0  0  0  0  0  0  0  0  0
  -27.1596  -32.8181   25.2560 C   0  0  0  0  0  0  0  0  0  0  0  0
  -30.2871  -16.0040   20.1446 C   0  0  0  0  0  0  0  0  0  0  0  0
  -18.9026  -28.6541   20.1869 C   0  0  0  0  0  0  0  0  0  0  0  0
  -23.9530  -27.8002   24.9069 C   0  0  0  0  0  0  0  0  0  0  0  0
  -26.2084  -29.2135   23.6184 C   0  0  0  0  0  0  0  0  0  0  0  0
  -20.1166  -29.5701   20.3179 C   0  0  0  0  0  0  0  0  0  0  0  0
  -29.8252  -12.6451   19.0577 C   0  0  0  0  0  0  0  0  0  0  0  0
  -21.3993  -28.8037   20.0110 C   0  0  0  0  0  0  0  0  0  0  0  0
  -28.4275  -12.2877   19.5685 C   0  0  0  0  0  0  0  0  0  0  0  0
  -30.5777  -13.5382   20.0425 C   0  0  0  0  0  0  0  0  0  0  0  0
  -28.4602  -14.3917   20.9682 C   0  0  0  0  0  0  0  0  0  0  0  0
  -21.6044  -27.6520   21.0026 C   0  0  1  0  0  0  0  0  0  0  0  0
  -23.7266  -28.9144   23.8898 C   0  0  1  0  0  0  0  0  0  0  0  0
  -27.6393  -13.5465   19.9807 C   0  0  2  0  0  0  0  0  0  0  0  0
  -27.8786  -35.1104   25.9811 C   0  0  0  0  0  0  0  0  0  0  0  0
  -25.4513  -31.8418   20.7567 C   0  0  0  0  0  0  0  0  0  0  0  0
  -26.9610  -33.6227   21.6607 C   0  0  0  0  0  0  0  0  0  0  0  0
  -24.4990  -33.7691   22.0346 C   0  0  0  0  0  0  0  0  0  0  0  0
  -27.1364  -32.0480   28.1136 C   0  0  0  0  0  0  0  0  0  0  0  0
  -30.7164  -24.4830   22.9733 C   0  0  0  0  0  0  0  0  0  0  0  0
  -29.8281  -25.6584   23.3521 C   0  0  0  0  0  0  0  0  0  1  0  0
  -25.8445  -32.0430   23.3005 C   0  0  1  0  0  0  0  0  0  0  0  0
  -27.1375  -33.8425   26.3761 C   0  0  2  0  0  0  0  0  0  0  0  0
  -25.6917  -32.7921   21.9466 C   0  0  0  0  0  0  0  0  0  0  0  0
  -26.1151  -12.0434   21.2050 N   0  0  0  0  0  0  0  0  0  0  0  0
  -26.2700  -13.1967   20.5326 N   0  0  0  0  0  0  0  0  0  0  0  0
  -24.8744  -29.8164   23.7747 N   0  0  0  0  0  0  0  0  0  0  0  0
  -29.7719  -14.7125   20.3839 N   0  0  0  0  0  0  0  0  0  0  0  0
  -25.1049  -15.1195   19.7870 N   0  0  0  0  0  0  0  0  0  0  0  0
  -21.9213  -12.7375   21.9288 N   0  0  0  0  0  0  0  0  0  0  0  0
  -30.7925  -22.2089   22.2180 N   0  0  0  0  0  0  0  0  0  0  0  0
  -29.4184  -17.0424   20.4787 N   0  0  0  0  0  0  0  0  0  0  0  0
  -22.1010  -28.1549   22.2655 N   0  0  0  0  0  0  0  0  0  0  0  0
  -26.0462  -32.9197   24.4490 N   0  0  0  0  0  0  0  0  0  0  0  0
  -27.7790  -33.2852   27.6004 N   0  3  0  0  0  0  0  0  0  0  0  0
  -22.3297  -14.6609   20.7487 O   0  0  0  0  0  0  0  0  0  0  0  0
  -24.3654  -28.2177   21.7261 O   0  0  0  0  0  0  0  0  0  0  0  0
  -23.5371  -31.7262   23.7499 O   0  0  0  0  0  0  0  0  0  0  0  0
  -28.7020  -23.2326   22.5293 O   0  0  0  0  0  0  0  0  0  0  0  0
  -28.0749  -32.0111   25.1093 O   0  0  0  0  0  0  0  0  0  0  0  0
  -31.4052  -16.1757   19.6524 O   0  0  0  0  0  0  0  0  0  0  0  0
  -22.6229   -7.8155   24.4421 O   0  0  0  0  0  0  0  0  0  0  0  0
  -29.0170  -25.2988   24.4697 O   0  0  0  0  0  0  0  0  0  1  0  0
  -23.9198   -2.6928   22.8673 F   0  0  0  0  0  0  0  0  0  0  0  0
  -32.7423  -20.3120   21.6116 F   0  0  0  0  0  0  0  0  0  0  0  0
  -20.6613   -6.0355   23.6505 F   0  0  0  0  0  0  0  0  0  0  0  0
  1  2  1  0  0  0  0
  1  5  2  0  0  0  0
  2  6  2  0  0  0  0
  3 10  2  0  0  0  0
  3 18  1  0  0  0  0
  4 11  1  0  0  0  0
  4 18  2  0  0  0  0
  5 20  1  0  0  0  0
  6 22  1  0  0  0  0
  7 12  2  0  0  0  0
  7 21  1  0  0  0  0
  8  9  2  0  0  0  0
  8 24  1  0  0  0  0
  9 25  1  0  0  0  0
 10 26  1  0  0  0  0
 11 26  2  0  0  0  0
 12 27  1  0  0  0  0
 13 14  2  0  0  0  0
 13 28  1  0  0  0  0
 14 29  1  0  0  0  0
 15 23  1  0  0  0  0
 15 27  2  0  0  0  0
 16 24  2  0  0  0  0
 16 30  1  0  0  0  0
 17 29  2  0  0  0  0
 17 31  1  0  0  0  0
 18 32  1  0  0  0  0
 19 32  1  0  0  0  0
 19 33  2  0  0  0  0
 19 34  1  0  0  0  0
 20 22  2  0  0  0  0
 20 40  1  0  0  0  0
 21 23  2  0  0  0  0
 21 41  1  0  0  0  0
 22 49  1  0  0  0  0
 23 42  1  0  0  0  0
 24 69  1  0  0  0  0
 25 30  2  0  0  0  0
 25 68  1  0  0  0  0
 26 79  1  0  0  0  0
 27 80  1  0  0  0  0
 28 31  2  0  0  0  0
 28 79  1  0  0  0  0
 29 81  1  0  0  0  0
 30 82  1  0  0  0  0
 31 83  1  0  0  0  0
 32 62  2  0  0  0  0
 33 63  1  0  0  0  0
 33 66  1  0  0  0  0
 34 67  1  0  0  0  0
 34 73  2  0  0  0  0
 35 50  1  0  0  0  0
 35 70  1  0  0  0  0
 35 74  2  0  0  0  0
 36 59  1  0  0  0  0
 36 64  1  0  0  0  0
 36 75  2  0  0  0  0
 37 57  1  0  0  0  0
 37 68  1  0  0  0  0
 37 76  2  0  0  0  0
 38 60  1  0  0  0  0
 38 71  1  0  0  0  0
 38 77  2  0  0  0  0
 39 65  1  0  0  0  0
 39 69  1  0  0  0  0
 39 78  2  0  0  0  0
 40 43  1  0  0  0  0
 41 50  1  0  0  0  0
 42 64  1  0  0  0  0
 43 45  1  0  0  0  0
 44 46  1  0  0  0  0
 44 47  1  0  0  0  0
 45 49  1  0  0  0  0
 46 51  1  0  0  0  0
 47 65  1  0  0  0  0
 48 51  1  0  0  0  0
 48 65  1  0  0  0  0
 49 70  1  0  0  0  0
 50 64  1  0  0  0  0
 51 63  1  0  0  0  0
 52 60  1  0  0  0  0
 53 61  1  0  0  0  0
 54 61  1  0  0  0  0
 55 61  1  0  0  0  0
 56 72  1  0  0  0  0
 57 58  1  0  0  0  0
 58 80  1  0  0  0  0
 59 61  1  0  0  0  0
 59 71  1  0  0  0  0
 60 72  1  0  0  0  0
 62 63  1  0  0  0  0
M  CHG  1  72   1
M  ISO  4  39 100  58 101  69 100  80 101
M  END
> <Batch ID>
0010

> <Smiles>
CNC(C)C(=O)NC(C(=O)N1Cc2cc([101O:1][101CH2:1]CC(=O)Nc3ccc([100NH:0][100C:0](=O)N4CCCC(n5nc(-c6ccc(Oc7ccc(F)cc7F)cc6)c(C(N)=O)c5N)C4)cc3F)ccc2CC1C(=O)NC1CCCc2ccccc21)C(C)(C)C

> <Shape>
0.280

> <Color>
0.134

> <Negative vol penalty>
0.000

$$$$

  -OEChem-04052315413D

 84 92  0     1  0  0  0  0  0999 V2000
  -16.9502  -30.1739   20.7929 C   0  0  0  0  0  0  0  0  0  0  0  0
  -18.1226  -30.9052   20.6314 C   0  0  0  0  0  0  0  0  0  0  0  0
  -26.5457  -12.4770   21.6953 C   0  0  0  0  0  0  0  0  0  0  0  0
  -25.9950  -13.7446   19.7136 C   0  0  0  0  0  0  0  0  0  0  0  0
  -16.9040  -29.1273   21.7129 C   0  0  0  0  0  0  0  0  0  0  0  0
  -19.2493  -30.5909   21.3905 C   0  0  0  0  0  0  0  0  0  0  0  0
  -25.4579  -28.7598   18.2297 C   0  0  0  0  0  0  0  0  0  0  0  0
  -30.0949  -22.6893   20.2526 C   0  0  0  0  0  0  0  0  0  0  0  0
  -25.2828  -11.8854   21.6679 C   0  0  0  0  0  0  0  0  0  0  0  0
  -24.7321  -13.1529   19.6861 C   0  0  0  0  0  0  0  0  0  0  0  0
  -26.7385  -28.6052   17.6982 C   0  0  0  0  0  0  0  0  0  0  0  0
  -30.0846  -23.8101   19.4224 C   0  0  0  0  0  0  0  0  0  0  0  0
  -22.3347   -9.7725   21.9113 C   0  0  0  0  0  0  0  0  0  0  0  0
  -22.2592   -8.3950   22.1171 C   0  0  0  0  0  0  0  0  0  0  0  0
  -27.6278  -28.2447   19.9179 C   0  0  0  0  0  0  0  0  0  0  0  0
  -28.9983  -21.4014   18.5276 C   0  0  0  0  0  0  0  0  0  0  0  0
  -23.6527   -8.0289   20.1777 C   0  0  0  0  0  0  0  0  0  0  0  0
  -26.9018  -13.4066   20.7182 C   0  0  0  0  0  0  0  0  0  0  0  0
  -29.3778  -13.5513   20.1216 C   0  0  0  0  0  0  0  0  0  0  0  0
  -18.0336  -28.7938   22.4768 C   0  0  0  0  0  0  0  0  0  0  0  0
  -25.2547  -28.6420   19.6074 C   0  0  0  0  0  0  0  0  0  0  0  0
  -19.2178  -29.5397   22.3225 C   0  0  0  0  0  0  0  0  0  0  0  0
  -26.3454  -28.3862   20.4547 C   0  0  0  0  0  0  0  0  0  0  0  0
  -28.9880  -22.5222   17.6973 C   0  0  0  0  0  0  0  0  0  0  0  0
  -29.5518  -21.4849   19.8052 C   0  0  0  0  0  0  0  0  0  0  0  0
  -24.3760  -12.2233   20.6633 C   0  0  0  0  0  0  0  0  0  0  0  0
  -27.8207  -28.3485   18.5403 C   0  0  0  0  0  0  0  0  0  0  0  0
  -29.5312  -23.7266   18.1447 C   0  0  0  0  0  0  0  0  0  0  0  0
  -23.0691  -10.2782   20.8386 C   0  0  0  0  0  0  0  0  0  0  0  0
  -22.9183   -7.5232   21.2504 C   0  0  0  0  0  0  0  0  0  0  0  0
  -23.7281   -9.4064   19.9719 C   0  0  0  0  0  0  0  0  0  0  0  0
  -28.2059  -14.0185   20.7463 C   0  0  0  0  0  0  0  0  0  0  0  0
  -30.3351  -14.4803   20.4488 C   0  0  0  0  0  0  0  0  0  0  0  0
  -29.5827  -12.3821   19.3174 C   0  0  0  0  0  0  0  0  0  0  0  0
  -22.8146  -28.7047   22.4566 C   0  0  0  0  0  0  0  0  0  0  0  0
  -24.7736  -26.4101   23.0114 C   0  0  0  0  0  0  0  0  0  0  0  0
  -26.8744  -23.7225   23.0399 C   0  0  0  0  0  0  0  0  0  0  0  0
  -30.0725  -20.2596   21.9439 C   0  0  0  0  0  0  0  0  0  0  0  0
  -17.9214  -27.6846   23.4925 C   0  0  0  0  0  0  0  0  0  0  0  0
  -23.9028  -28.8621   20.2300 C   0  0  0  0  0  0  0  0  0  0  0  0
  -26.0850  -28.3021   21.9340 C   0  0  0  0  0  0  0  0  0  0  0  0
  -19.2718  -27.1743   23.9889 C   0  0  0  0  0  0  0  0  0  0  0  0
  -31.4875  -17.6231   23.8735 C   0  0  0  0  0  0  0  0  0  0  0  0
  -20.1875  -28.3425   24.3405 C   0  0  0  0  0  0  0  0  0  0  0  0
  -30.9180  -16.3568   23.2299 C   0  0  0  0  0  0  0  0  0  0  0  0
  -30.4680  -18.7607   23.8860 C   0  0  0  0  0  0  0  0  0  0  0  0
  -29.3002  -17.8062   21.9380 C   0  0  0  0  0  0  0  0  0  0  0  0
  -20.4682  -29.2132   23.1098 C   0  0  1  0  0  0  0  0  0  0  0  0
  -23.6482  -27.9631   21.4532 C   0  0  1  0  0  0  0  0  0  0  0  0
  -30.3122  -16.6527   21.8439 C   0  0  2  0  0  0  0  0  0  0  0  0
  -27.4761  -21.7071   24.4087 C   0  0  0  0  0  0  0  0  0  0  0  0
  -26.2768  -28.1965   24.9742 C   0  0  0  0  0  0  0  0  0  0  0  0
  -27.5836  -26.1858   25.6937 C   0  0  0  0  0  0  0  0  0  0  0  0
  -25.1112  -26.2466   26.0199 C   0  0  0  0  0  0  0  0  0  0  0  0
  -26.1307  -21.8716   20.8535 C   0  0  0  0  0  0  0  0  0  0  0  0
  -30.4622  -26.9031   16.5280 C   0  0  0  0  0  0  0  0  0  0  0  0
  -29.1528  -27.6581   16.6947 C   0  0  0  0  0  0  0  0  0  1  0  0
  -30.5924  -25.7628   17.5256 C   0  0  0  0  0  0  0  0  0  0  0  0
  -28.3915  -22.4149   16.3327 C   0  0  0  0  0  0  0  0  0  0  0  0
  -26.0472  -25.9698   23.6877 C   0  0  1  0  0  0  0  0  0  0  0  0
  -26.6171  -22.2450   23.2749 C   0  0  2  0  0  0  0  0  0  0  0  0
  -26.2544  -26.6577   25.0666 C   0  0  0  0  0  0  0  0  0  0  0  0
  -28.3989  -15.1558   21.4196 N   0  0  0  0  0  0  0  0  0  0  0  0
  -29.7031  -15.4110   21.2198 N   0  0  0  0  0  0  0  0  0  0  0  0
  -24.8534  -27.5372   22.1846 N   0  0  0  0  0  0  0  0  0  0  0  0
  -29.9403  -18.9870   22.5387 N   0  0  0  0  0  0  0  0  0  0  0  0
  -31.6474  -14.5836   20.1493 N   0  0  0  0  0  0  0  0  0  0  0  0
  -28.4916  -11.5351   19.0797 N   0  0  0  0  0  0  0  0  0  0  0  0
  -29.5625  -20.3466   20.6489 N   0  0  0  0  0  0  0  0  0  0  0  0
  -21.4528  -28.5814   22.2577 N   0  0  0  0  0  0  0  0  0  0  0  0
  -25.9947  -24.5132   23.7485 N   0  0  0  0  0  0  0  0  0  0  0  0
  -26.9220  -21.4638   22.0429 N   0  3  0  0  0  0  0  0  0  0  0  0
  -30.7039  -12.0883   18.8377 O   0  0  0  0  0  0  0  0  0  0  0  0
  -23.3654  -29.3410   23.3474 O   0  0  0  0  0  0  0  0  0  0  0  0
  -23.7335  -25.7770   23.2134 O   0  0  0  0  0  0  0  0  0  0  0  0
  -27.7689  -24.1341   22.3044 O   0  0  0  0  0  0  0  0  0  0  0  0
  -30.6236  -21.1954   22.5291 O   0  0  0  0  0  0  0  0  0  0  0  0
  -23.1437  -11.6461   20.6361 O   0  0  0  0  0  0  0  0  0  0  0  0
  -29.0675  -28.1942   18.0144 O   0  0  0  0  0  0  0  0  0  1  0  0
  -29.5294  -24.8375   17.3420 O   0  0  0  0  0  0  0  0  0  0  0  0
  -22.8470   -6.2004   21.4490 F   0  0  0  0  0  0  0  0  0  0  0  0
  -24.4362   -9.8864   18.9403 F   0  0  0  0  0  0  0  0  0  0  0  0
  -29.3099  -22.7214   15.3799 F   0  0  0  0  0  0  0  0  0  0  0  0
  -27.3701  -23.2977   16.1832 F   0  0  0  0  0  0  0  0  0  0  0  0
  1  2  1  0  0  0  0
  1  5  2  0  0  0  0
  2  6  2  0  0  0  0
  3  9  2  0  0  0  0
  3 18  1  0  0  0  0
  4 10  1  0  0  0  0
  4 18  2  0  0  0  0
  5 20  1  0  0  0  0
  6 22  1  0  0  0  0
  7 11  2  0  0  0  0
  7 21  1  0  0  0  0
  8 12  2  0  0  0  0
  8 25  1  0  0  0  0
  9 26  1  0  0  0  0
 10 26  2  0  0  0  0
 11 27  1  0  0  0  0
 12 28  1  0  0  0  0
 13 14  2  0  0  0  0
 13 29  1  0  0  0  0
 14 30  1  0  0  0  0
 15 23  1  0  0  0  0
 15 27  2  0  0  0  0
 16 24  1  0  0  0  0
 16 25  2  0  0  0  0
 17 30  2  0  0  0  0
 17 31  1  0  0  0  0
 18 32  1  0  0  0  0
 19 32  1  0  0  0  0
 19 33  2  0  0  0  0
 19 34  1  0  0  0  0
 20 22  2  0  0  0  0
 20 39  1  0  0  0  0
 21 23  2  0  0  0  0
 21 40  1  0  0  0  0
 22 48  1  0  0  0  0
 23 41  1  0  0  0  0
 24 28  2  0  0  0  0
 24 59  1  0  0  0  0
 25 69  1  0  0  0  0
 26 78  1  0  0  0  0
 27 79  1  0  0  0  0
 28 80  1  0  0  0  0
 29 31  2  0  0  0  0
 29 78  1  0  0  0  0
 30 81  1  0  0  0  0
 31 82  1  0  0  0  0
 32 63  2  0  0  0  0
 33 64  1  0  0  0  0
 33 67  1  0  0  0  0
 34 68  1  0  0  0  0
 34 73  2  0  0  0  0
 35 49  1  0  0  0  0
 35 70  1  0  0  0  0
 35 74  2  0  0  0  0
 36 60  1  0  0  0  0
 36 65  1  0  0  0  0
 36 75  2  0  0  0  0
 37 61  1  0  0  0  0
 37 71  1  0  0  0  0
 37 76  2  0  0  0  0
 38 66  1  0  0  0  0
 38 69  1  0  0  0  0
 38 77  2  0  0  0  0
 39 42  1  0  0  0  0
 40 49  1  0  0  0  0
 41 65  1  0  0  0  0
 42 44  1  0  0  0  0
 43 45  1  0  0  0  0
 43 46  1  0  0  0  0
 44 48  1  0  0  0  0
 45 50  1  0  0  0  0
 46 66  1  0  0  0  0
 47 50  1  0  0  0  0
 47 66  1  0  0  0  0
 48 70  1  0  0  0  0
 49 65  1  0  0  0  0
 50 64  1  0  0  0  0
 51 61  1  0  0  0  0
 52 62  1  0  0  0  0
 53 62  1  0  0  0  0
 54 62  1  0  0  0  0
 55 72  1  0  0  0  0
 56 57  1  0  0  0  0
 56 58  1  0  0  0  0
 57 79  1  0  0  0  0
 58 80  1  0  0  0  0
 59 83  1  0  0  0  0
 59 84  1  0  0  0  0
 60 62  1  0  0  0  0
 60 71  1  0  0  0  0
 61 72  1  0  0  0  0
 63 64  1  0  0  0  0
M  CHG  1  72   1
M  ISO  4  38 100  57 101  69 100  79 101
M  END
> <Batch ID>
0010

> <Smiles>
CNC(C)C(=O)NC(C(=O)N1Cc2cc([101O:1][101CH2:1]CCOc3ccc([100NH:0][100C:0](=O)N4CCCC(n5nc(-c6ccc(Oc7ccc(F)cc7F)cc6)c(C(N)=O)c5N)C4)cc3C(F)F)ccc2CC1C(=O)NC1CCCc2ccccc21)C(C)(C)C

> <Shape>
0.274

> <Color>
0.096

> <Negative vol penalty>
0.000

$$$$

  -OEChem-04052315413D

 83 91  0     1  0  0  0  0  0999 V2000
  -30.4654  -30.5346   14.6262 C   0  0  0  0  0  0  0  0  0  0  0  0
  -31.0948  -29.7150   15.5577 C   0  0  0  0  0  0  0  0  0  0  0  0
  -22.9155  -10.0708   19.9733 C   0  0  0  0  0  0  0  0  0  0  0  0
  -23.7212   -9.9463   22.2476 C   0  0  0  0  0  0  0  0  0  0  0  0
  -29.1004  -30.7952   14.7384 C   0  0  0  0  0  0  0  0  0  0  0  0
  -30.3596  -29.1565   16.6027 C   0  0  0  0  0  0  0  0  0  0  0  0
  -31.1951  -23.6564   19.1633 C   0  0  0  0  0  0  0  0  0  0  0  0
  -32.7705  -18.0980   22.1265 C   0  0  0  0  0  0  0  0  0  0  0  0
  -32.1772  -16.9281   21.6523 C   0  0  0  0  0  0  0  0  0  0  0  0
  -22.1080   -8.9560   20.1983 C   0  0  0  0  0  0  0  0  0  0  0  0
  -22.9137   -8.8314   22.4726 C   0  0  0  0  0  0  0  0  0  0  0  0
  -31.8508  -23.2527   20.3256 C   0  0  0  0  0  0  0  0  0  0  0  0
  -21.3360   -5.7359   23.5395 C   0  0  0  0  0  0  0  0  0  0  0  0
  -21.9011   -4.6506   24.2090 C   0  0  0  0  0  0  0  0  0  0  0  0
  -29.7517  -23.2854   21.5139 C   0  0  0  0  0  0  0  0  0  0  0  0
  -30.7710  -18.6016   23.3856 C   0  0  0  0  0  0  0  0  0  0  0  0
  -23.5558   -4.4343   22.4620 C   0  0  0  0  0  0  0  0  0  0  0  0
  -23.7222  -10.5660   20.9979 C   0  0  0  0  0  0  0  0  0  0  0  0
  -24.2147  -13.0687   20.9614 C   0  0  0  0  0  0  0  0  0  0  0  0
  -28.3461  -30.2318   15.7798 C   0  0  0  0  0  0  0  0  0  0  0  0
  -29.8122  -23.8886   19.1703 C   0  0  0  0  0  0  0  0  0  0  0  0
  -28.9834  -29.4109   16.7297 C   0  0  0  0  0  0  0  0  0  0  0  0
  -29.0804  -23.6895   20.3497 C   0  0  0  0  0  0  0  0  0  0  0  0
  -32.0674  -18.9348   22.9932 C   0  0  0  0  0  0  0  0  0  0  0  0
  -30.8808  -16.5949   22.0447 C   0  0  0  0  0  0  0  0  0  0  0  0
  -22.1070   -8.3363   21.4480 C   0  0  0  0  0  0  0  0  0  0  0  0
  -31.1296  -23.0699   21.5018 C   0  0  0  0  0  0  0  0  0  0  0  0
  -21.8807   -6.1704   22.3311 C   0  0  0  0  0  0  0  0  0  0  0  0
  -30.1776  -17.4317   22.9114 C   0  0  0  0  0  0  0  0  0  0  0  0
  -23.0110   -3.9998   23.6703 C   0  0  0  0  0  0  0  0  0  0  0  0
  -22.9906   -5.5196   21.7924 C   0  0  0  0  0  0  0  0  0  0  0  0
  -24.5569  -11.7172   20.7659 C   0  0  0  0  0  0  0  0  0  0  0  0
  -25.3429  -13.7642   20.6007 C   0  0  0  0  0  0  0  0  0  0  0  0
  -22.9869  -13.6440   21.4274 C   0  0  0  0  0  0  0  0  0  0  0  0
  -27.9590  -26.4149   18.6342 C   0  0  0  0  0  0  0  0  0  0  0  0
  -25.5722  -24.2380   18.9285 C   0  0  0  0  0  0  0  0  0  0  0  0
  -24.5258  -21.2359   20.1692 C   0  0  0  0  0  0  0  0  0  0  0  0
  -30.8650  -14.4718   20.6888 C   0  0  0  0  0  0  0  0  0  0  0  0
  -26.8827  -30.5805   15.8871 C   0  0  0  0  0  0  0  0  0  0  0  0
  -29.1155  -24.2979   17.9016 C   0  0  0  0  0  0  0  0  0  0  0  0
  -27.5909  -23.9058   20.4049 C   0  0  0  0  0  0  0  0  0  0  0  0
  -26.1003  -29.6479   16.8081 C   0  0  0  0  0  0  0  0  0  0  0  0
  -29.5573  -12.2196   18.2609 C   0  0  0  0  0  0  0  0  0  0  0  0
  -26.8561  -29.4309   18.1152 C   0  0  0  0  0  0  0  0  0  0  0  0
  -28.1117  -11.9993   18.7123 C   0  0  0  0  0  0  0  0  0  0  0  0
  -30.5091  -12.3479   19.4489 C   0  0  0  0  0  0  0  0  0  0  0  0
  -28.6785  -13.1336   20.8984 C   0  0  0  0  0  0  0  0  0  0  0  0
  -28.2150  -28.7666   17.8630 C   0  0  1  0  0  0  0  0  0  0  0  0
  -27.7857  -25.0028   18.1508 C   0  0  1  0  0  0  0  0  0  0  0  0
  -27.6730  -13.0633   19.7375 C   0  0  2  0  0  0  0  0  0  0  0  0
  -22.5112  -19.7435   20.2774 C   0  0  0  0  0  0  0  0  0  0  0  0
  -24.3340  -26.0660   21.0345 C   0  0  0  0  0  0  0  0  0  0  0  0
  -22.9075  -24.1426   21.7649 C   0  0  0  0  0  0  0  0  0  0  0  0
  -22.6943  -25.0420   19.4479 C   0  0  0  0  0  0  0  0  0  0  0  0
  -34.0236  -20.4608   23.0603 C   0  0  0  0  0  0  0  0  0  0  0  0
  -25.9272  -19.0472   18.7534 C   0  0  0  0  0  0  0  0  0  0  0  0
  -27.8425  -17.6175   22.5013 C   0  0  0  0  0  0  0  0  0  0  0  0
  -31.9577  -21.0049   24.3581 C   0  0  0  0  0  0  0  0  0  0  0  0
  -31.0157  -21.8977   23.5679 C   0  0  0  0  0  0  0  0  0  1  0  0
  -24.7466  -23.7050   20.0746 C   0  0  1  0  0  0  0  0  0  0  0  0
  -23.7861  -20.0802   19.5197 C   0  0  2  0  0  0  0  0  0  0  0  0
  -23.6990  -24.7366   20.5802 C   0  0  0  0  0  0  0  0  0  0  0  0
  -25.8048  -11.5612   20.3159 N   0  0  0  0  0  0  0  0  0  0  0  0
  -26.2565  -12.8237   20.2254 N   0  0  0  0  0  0  0  0  0  0  0  0
  -26.9563  -24.3116   19.1400 N   0  0  0  0  0  0  0  0  0  0  0  0
  -30.0321  -13.3769   20.3754 N   0  0  0  0  0  0  0  0  0  0  0  0
  -25.6325  -15.0824   20.5710 N   0  0  0  0  0  0  0  0  0  0  0  0
  -21.9286  -12.7854   21.7545 N   0  0  0  0  0  0  0  0  0  0  0  0
  -30.2922  -15.4028   21.5546 N   0  0  0  0  0  0  0  0  0  0  0  0
  -28.0477  -27.3497   17.6204 N   0  0  0  0  0  0  0  0  0  0  0  0
  -24.1712  -22.4465   19.6125 N   0  0  0  0  0  0  0  0  0  0  0  0
  -32.6636  -20.1097   23.4702 N   0  0  3  0  0  0  0  0  0  0  0  0
  -24.6488  -18.8655   19.4880 N   0  3  0  0  0  0  0  0  0  0  0  0
  -22.8273  -14.8836   21.5345 O   0  0  0  0  0  0  0  0  0  0  0  0
  -28.0072  -26.6398   19.8379 O   0  0  0  0  0  0  0  0  0  0  0  0
  -25.0105  -24.5698   17.8816 O   0  0  0  0  0  0  0  0  0  0  0  0
  -25.3342  -21.0806   21.0818 O   0  0  0  0  0  0  0  0  0  0  0  0
  -31.9925  -14.5896   20.2021 O   0  0  0  0  0  0  0  0  0  0  0  0
  -21.3190   -7.2486   21.6680 O   0  0  0  0  0  0  0  0  0  0  0  0
  -28.9100  -17.1246   23.3077 O   0  0  0  0  0  0  0  0  0  0  0  0
  -31.7672  -22.6765   22.6378 O   0  0  0  0  0  0  0  0  0  1  0  0
  -23.5545   -2.9585   24.3142 F   0  0  0  0  0  0  0  0  0  0  0  0
  -23.5191   -5.9333   20.6324 F   0  0  0  0  0  0  0  0  0  0  0  0
  1  2  1  0  0  0  0
  1  5  2  0  0  0  0
  2  6  2  0  0  0  0
  3 10  2  0  0  0  0
  3 18  1  0  0  0  0
  4 11  1  0  0  0  0
  4 18  2  0  0  0  0
  5 20  1  0  0  0  0
  6 22  1  0  0  0  0
  7 12  2  0  0  0  0
  7 21  1  0  0  0  0
  8  9  2  0  0  0  0
  8 24  1  0  0  0  0
  9 25  1  0  0  0  0
 10 26  1  0  0  0  0
 11 26  2  0  0  0  0
 12 27  1  0  0  0  0
 13 14  2  0  0  0  0
 13 28  1  0  0  0  0
 14 30  1  0  0  0  0
 15 23  1  0  0  0  0
 15 27  2  0  0  0  0
 16 24  2  0  0  0  0
 16 29  1  0  0  0  0
 17 30  2  0  0  0  0
 17 31  1  0  0  0  0
 18 32  1  0  0  0  0
 19 32  1  0  0  0  0
 19 33  2  0  0  0  0
 19 34  1  0  0  0  0
 20 22  2  0  0  0  0
 20 39  1  0  0  0  0
 21 23  2  0  0  0  0
 21 40  1  0  0  0  0
 22 48  1  0  0  0  0
 23 41  1  0  0  0  0
 24 72  1  0  0  0  0
 25 29  2  0  0  0  0
 25 69  1  0  0  0  0
 26 79  1  0  0  0  0
 27 81  1  0  0  0  0
 28 31  2  0  0  0  0
 28 79  1  0  0  0  0
 29 80  1  0  0  0  0
 30 82  1  0  0  0  0
 31 83  1  0  0  0  0
 32 63  2  0  0  0  0
 33 64  1  0  0  0  0
 33 67  1  0  0  0  0
 34 68  1  0  0  0  0
 34 74  2  0  0  0  0
 35 49  1  0  0  0  0
 35 70  1  0  0  0  0
 35 75  2  0  0  0  0
 36 60  1  0  0  0  0
 36 65  1  0  0  0  0
 36 76  2  0  0  0  0
 37 61  1  0  0  0  0
 37 71  1  0  0  0  0
 37 77  2  0  0  0  0
 38 66  1  0  0  0  0
 38 69  1  0  0  0  0
 38 78  2  0  0  0  0
 39 42  1  0  0  0  0
 40 49  1  0  0  0  0
 41 65  1  0  0  0  0
 42 44  1  0  0  0  0
 43 45  1  0  0  0  0
 43 46  1  0  0  0  0
 44 48  1  0  0  0  0
 45 50  1  0  0  0  0
 46 66  1  0  0  0  0
 47 50  1  0  0  0  0
 47 66  1  0  0  0  0
 48 70  1  0  0  0  0
 49 65  1  0  0  0  0
 50 64  1  0  0  0  0
 51 61  1  0  0  0  0
 52 62  1  0  0  0  0
 53 62  1  0  0  0  0
 54 62  1  0  0  0  0
 55 72  1  0  0  0  0
 56 73  1  0  0  0  0
 57 80  1  0  0  0  0
 58 59  1  0  0  0  0
 58 72  1  0  0  0  0
 59 81  1  0  0  0  0
 60 62  1  0  0  0  0
 60 71  1  0  0  0  0
 61 73  1  0  0  0  0
 63 64  1  0  0  0  0
M  CHG  1  73   1
M  ISO  4  38 100  59 101  69 100  81 101
M  END
> <Batch ID>
0010

> <Smiles>
CNC(C)C(=O)NC(C(=O)N1Cc2cc([101O:1][101CH2:1]CN(C)c3ccc([100NH:0][100C:0](=O)N4CCCC(n5nc(-c6ccc(Oc7ccc(F)cc7F)cc6)c(C(N)=O)c5N)C4)c(OC)c3)ccc2CC1C(=O)NC1CCCc2ccccc21)C(C)(C)C

> <Shape>
0.230

> <Color>
0.215

> <Negative vol penalty>
0.000

$$$$

  -OEChem-04052315413D

 89 97  0     1  0  0  0  0  0999 V2000
  -18.1425  -26.3989   23.1715 C   0  0  0  0  0  0  0  0  0  0  0  0
  -19.4931  -26.5026   23.4887 C   0  0  0  0  0  0  0  0  0  0  0  0
  -23.9401   -9.6238   21.6527 C   0  0  0  0  0  0  0  0  0  0  0  0
  -24.5569  -10.7504   23.6991 C   0  0  0  0  0  0  0  0  0  0  0  0
  -17.6235  -27.1162   22.0945 C   0  0  0  0  0  0  0  0  0  0  0  0
  -20.3257  -27.3228   22.7281 C   0  0  0  0  0  0  0  0  0  0  0  0
  -23.4027  -30.1525   25.5865 C   0  0  0  0  0  0  0  0  0  0  0  0
  -30.8689  -16.0762   23.8538 C   0  0  0  0  0  0  0  0  0  0  0  0
  -32.0544  -16.6974   21.8424 C   0  0  0  0  0  0  0  0  0  0  0  0
  -31.2954  -17.2533   24.4687 C   0  0  0  0  0  0  0  0  0  0  0  0
  -32.4808  -17.8745   22.4573 C   0  0  0  0  0  0  0  0  0  0  0  0
  -23.4711   -8.5379   22.3919 C   0  0  0  0  0  0  0  0  0  0  0  0
  -24.0878   -9.6645   24.4383 C   0  0  0  0  0  0  0  0  0  0  0  0
  -24.5250  -29.5261   26.1265 C   0  0  0  0  0  0  0  0  0  0  0  0
  -20.7152   -7.7496   24.1854 C   0  0  0  0  0  0  0  0  0  0  0  0
  -19.4816   -7.2060   23.8271 C   0  0  0  0  0  0  0  0  0  0  0  0
  -25.8881  -30.4722   24.3754 C   0  0  0  0  0  0  0  0  0  0  0  0
  -20.5438   -5.0790   23.3973 C   0  0  0  0  0  0  0  0  0  0  0  0
  -24.4831  -10.7301   22.3063 C   0  0  0  0  0  0  0  0  0  0  0  0
  -24.2376  -12.9854   21.1398 C   0  0  0  0  0  0  0  0  0  0  0  0
  -18.4482  -27.9531   21.3263 C   0  0  0  0  0  0  0  0  0  0  0  0
  -23.5128  -30.9360   24.4287 C   0  0  0  0  0  0  0  0  0  0  0  0
  -19.8175  -28.0509   21.6389 C   0  0  0  0  0  0  0  0  0  0  0  0
  -24.7660  -31.1096   23.8242 C   0  0  0  0  0  0  0  0  0  0  0  0
  -31.2485  -15.7982   22.5406 C   0  0  0  0  0  0  0  0  0  0  0  0
  -32.1013  -18.1525   23.7705 C   0  0  0  0  0  0  0  0  0  0  0  0
  -23.5448   -8.5582   23.7846 C   0  0  0  0  0  0  0  0  0  0  0  0
  -25.7675  -29.6835   25.5193 C   0  0  0  0  0  0  0  0  0  0  0  0
  -21.8631   -6.9579   24.1495 C   0  0  0  0  0  0  0  0  0  0  0  0
  -19.3959   -5.8707   23.4331 C   0  0  0  0  0  0  0  0  0  0  0  0
  -21.7774   -5.6226   23.7555 C   0  0  0  0  0  0  0  0  0  0  0  0
  -24.9684  -11.8519   21.5433 C   0  0  0  0  0  0  0  0  0  0  0  0
  -25.1443  -13.7497   20.4468 C   0  0  0  0  0  0  0  0  0  0  0  0
  -22.8621  -13.3178   21.3708 C   0  0  0  0  0  0  0  0  0  0  0  0
  -22.2949  -30.7886   21.4963 C   0  0  0  0  0  0  0  0  0  0  0  0
  -23.7536  -33.6671   21.1667 C   0  0  0  0  0  0  0  0  0  0  0  0
  -26.2073  -35.8060   22.1920 C   0  0  0  0  0  0  0  0  0  0  0  0
  -31.1020  -14.1748   20.6198 C   0  0  0  0  0  0  0  0  0  0  0  0
  -33.3369  -20.3541   23.8526 C   0  0  0  0  0  0  0  0  0  0  0  0
  -17.8514  -28.6720   20.1424 C   0  0  0  0  0  0  0  0  0  0  0  0
  -22.2973  -31.6268   23.8740 C   0  0  0  0  0  0  0  0  0  0  0  0
  -24.9412  -31.9567   22.5913 C   0  0  0  0  0  0  0  0  0  0  0  0
  -18.7239  -29.8093   19.6173 C   0  0  0  0  0  0  0  0  0  0  0  0
  -29.1064  -13.3649   17.7845 C   0  0  0  0  0  0  0  0  0  0  0  0
  -20.1742  -29.3542   19.4895 C   0  0  0  0  0  0  0  0  0  0  0  0
  -27.7505  -12.9940   18.3895 C   0  0  0  0  0  0  0  0  0  0  0  0
  -30.2661  -12.8947   18.6608 C   0  0  0  0  0  0  0  0  0  0  0  0
  -28.8405  -12.9504   20.6692 C   0  0  0  0  0  0  0  0  0  0  0  0
  -20.7476  -28.9494   20.8529 C   0  0  1  0  0  0  0  0  0  0  0  0
  -22.4344  -31.9832   22.3970 C   0  0  1  0  0  0  0  0  0  0  0  0
  -27.6406  -13.4603   19.8545 C   0  0  2  0  0  0  0  0  0  0  0  0
  -27.1756  -38.0701   21.7085 C   0  0  0  0  0  0  0  0  0  0  0  0
  -25.1243  -32.5475   18.6813 C   0  0  0  0  0  0  0  0  0  0  0  0
  -26.7444  -34.4525   18.8018 C   0  0  0  0  0  0  0  0  0  0  0  0
  -24.3156  -34.9031   18.4547 C   0  0  0  0  0  0  0  0  0  0  0  0
  -25.5824  -36.7828   24.9149 C   0  0  0  0  0  0  0  0  0  0  0  0
  -31.5796  -25.3348   24.3527 C   0  0  0  0  0  0  0  0  0  0  0  0
  -30.4899  -25.8151   25.3139 C   0  0  0  0  0  0  0  0  0  0  0  0
  -32.3888  -24.1504   24.8904 C   0  0  0  0  0  0  0  0  0  0  0  0
  -29.7357  -27.0166   24.7396 C   0  0  0  0  0  0  0  0  0  0  0  0
  -33.4994  -23.6916   23.9395 C   0  0  0  0  0  0  0  0  0  0  0  0
  -28.6255  -27.4781   25.6814 C   0  0  0  0  0  0  0  0  0  0  0  0
  -34.3283  -22.5493   24.5213 C   0  0  0  0  0  0  0  0  0  0  0  0
  -27.8983  -28.6993   25.1363 C   0  0  0  0  0  0  0  0  0  1  0  0
  -25.1207  -34.1283   20.7226 C   0  0  1  0  0  0  0  0  0  0  0  0
  -26.1750  -37.2831   22.5406 C   0  0  2  0  0  0  0  0  0  0  0  0
  -25.3229  -33.9902   19.1872 C   0  0  0  0  0  0  0  0  0  0  0  0
  -26.2412  -11.8885   21.1401 N   0  0  0  0  0  0  0  0  0  0  0  0
  -26.3173  -13.0544   20.4759 N   0  0  0  0  0  0  0  0  0  0  0  0
  -23.7217  -32.6065   22.0831 N   0  0  0  0  0  0  0  0  0  0  0  0
  -30.0965  -13.3777   20.0330 N   0  0  0  0  0  0  0  0  0  0  0  0
  -25.0446  -14.9419   19.8213 N   0  0  0  0  0  0  0  0  0  0  0  0
  -22.0717  -12.4207   22.1020 N   0  0  0  0  0  0  0  0  0  0  0  0
  -30.8157  -14.6023   21.9159 N   0  0  0  0  0  0  0  0  0  0  0  0
  -32.5339  -19.3462   24.3937 N   0  0  0  0  0  0  0  0  0  0  0  0
  -21.0904  -30.1239   21.6259 N   0  0  0  0  0  0  0  0  0  0  0  0
  -25.2760  -35.4888   21.2259 N   0  0  0  0  0  0  0  0  0  0  0  0
  -33.5419  -21.3768   24.7905 N   0  0  0  0  0  0  0  0  0  0  0  0
  -26.5016  -37.4827   23.9809 N   0  3  0  0  0  0  0  0  0  0  0  0
  -22.3451  -14.3712   20.9275 O   0  0  0  0  0  0  0  0  0  0  0  0
  -23.2116  -30.4927   20.7388 O   0  0  0  0  0  0  0  0  0  0  0  0
  -22.7510  -34.2321   20.7225 O   0  0  0  0  0  0  0  0  0  0  0  0
  -26.9837  -35.0136   22.7209 O   0  0  0  0  0  0  0  0  0  0  0  0
  -32.1284  -14.4799   20.0071 O   0  0  0  0  0  0  0  0  0  0  0  0
  -33.8159  -20.3809   22.7214 O   0  0  0  0  0  0  0  0  0  0  0  0
  -23.0870   -7.4989   24.5062 O   0  0  0  0  0  0  0  0  0  0  0  0
  -26.8726  -29.0681   26.0478 O   0  0  0  0  0  0  0  0  0  1  0  0
  -18.2110   -5.3483   23.0906 F   0  0  0  0  0  0  0  0  0  0  0  0
  -22.8766   -4.8568   23.7202 F   0  0  0  0  0  0  0  0  0  0  0  0
  1  2  1  0  0  0  0
  1  5  2  0  0  0  0
  2  6  2  0  0  0  0
  3 12  2  0  0  0  0
  3 19  1  0  0  0  0
  4 13  1  0  0  0  0
  4 19  2  0  0  0  0
  5 21  1  0  0  0  0
  6 23  1  0  0  0  0
  7 14  2  0  0  0  0
  7 22  1  0  0  0  0
  8 10  2  0  0  0  0
  8 25  1  0  0  0  0
  9 11  1  0  0  0  0
  9 25  2  0  0  0  0
 10 26  1  0  0  0  0
 11 26  2  0  0  0  0
 12 27  1  0  0  0  0
 13 27  2  0  0  0  0
 14 28  1  0  0  0  0
 15 16  2  0  0  0  0
 15 29  1  0  0  0  0
 16 30  1  0  0  0  0
 17 24  1  0  0  0  0
 17 28  2  0  0  0  0
 18 30  2  0  0  0  0
 18 31  1  0  0  0  0
 19 32  1  0  0  0  0
 20 32  1  0  0  0  0
 20 33  2  0  0  0  0
 20 34  1  0  0  0  0
 21 23  2  0  0  0  0
 21 40  1  0  0  0  0
 22 24  2  0  0  0  0
 22 41  1  0  0  0  0
 23 49  1  0  0  0  0
 24 42  1  0  0  0  0
 25 74  1  0  0  0  0
 26 75  1  0  0  0  0
 27 86  1  0  0  0  0
 28 87  1  0  0  0  0
 29 31  2  0  0  0  0
 29 86  1  0  0  0  0
 30 88  1  0  0  0  0
 31 89  1  0  0  0  0
 32 68  2  0  0  0  0
 33 69  1  0  0  0  0
 33 72  1  0  0  0  0
 34 73  1  0  0  0  0
 34 80  2  0  0  0  0
 35 50  1  0  0  0  0
 35 76  1  0  0  0  0
 35 81  2  0  0  0  0
 36 65  1  0  0  0  0
 36 70  1  0  0  0  0
 36 82  2  0  0  0  0
 37 66  1  0  0  0  0
 37 77  1  0  0  0  0
 37 83  2  0  0  0  0
 38 71  1  0  0  0  0
 38 74  1  0  0  0  0
 38 84  2  0  0  0  0
 39 75  1  0  0  0  0
 39 78  1  0  0  0  0
 39 85  2  0  0  0  0
 40 43  1  0  0  0  0
 41 50  1  0  0  0  0
 42 70  1  0  0  0  0
 43 45  1  0  0  0  0
 44 46  1  0  0  0  0
 44 47  1  0  0  0  0
 45 49  1  0  0  0  0
 46 51  1  0  0  0  0
 47 71  1  0  0  0  0
 48 51  1  0  0  0  0
 48 71  1  0  0  0  0
 49 76  1  0  0  0  0
 50 70  1  0  0  0  0
 51 69  1  0  0  0  0
 52 66  1  0  0  0  0
 53 67  1  0  0  0  0
 54 67  1  0  0  0  0
 55 67  1  0  0  0  0
 56 79  1  0  0  0  0
 57 58  1  0  0  0  0
 57 59  1  0  0  0  0
 58 60  1  0  0  0  0
 59 61  1  0  0  0  0
 60 62  1  0  0  0  0
 61 63  1  0  0  0  0
 62 64  1  0  0  0  0
 63 78  1  0  0  0  0
 64 87  1  0  0  0  0
 65 67  1  0  0  0  0
 65 77  1  0  0  0  0
 66 79  1  0  0  0  0
 68 69  1  0  0  0  0
M  CHG  1  79   1
M  ISO  4  38 100  64 101  74 100  87 101
M  END
> <Batch ID>
0010

> <Smiles>
CNC(C)C(=O)NC(C(=O)N1Cc2cc([101O:1][101CH2:1]CCCCCCCNC(=O)Nc3ccc([100NH:0][100C:0](=O)N4CCCC(n5nc(-c6ccc(Oc7ccc(F)cc7F)cc6)c(C(N)=O)c5N)C4)cc3)ccc2CC1C(=O)NC1CCCc2ccccc21)C(C)(C)C

> <Shape>
0.279

> <Color>
0.201

> <Negative vol penalty>
0.000

$$$$

  -OEChem-04052315413D

 83 91  0     1  0  0  0  0  0999 V2000
  -27.7268  -37.6661   21.9647 C   0  0  0  0  0  0  0  0  0  0  0  0
  -28.1893  -36.4574   21.4543 C   0  0  0  0  0  0  0  0  0  0  0  0
  -26.4318  -12.7800   21.4432 C   0  0  0  0  0  0  0  0  0  0  0  0
  -26.3399  -13.3072   19.0873 C   0  0  0  0  0  0  0  0  0  0  0  0
  -26.8403  -37.6735   23.0408 C   0  0  0  0  0  0  0  0  0  0  0  0
  -27.7664  -35.2553   22.0205 C   0  0  0  0  0  0  0  0  0  0  0  0
  -26.7615  -29.9647   19.1042 C   0  0  0  0  0  0  0  0  0  0  0  0
  -29.1485  -21.0791   15.0893 C   0  0  0  0  0  0  0  0  0  0  0  0
  -29.0248  -22.4468   15.3336 C   0  0  0  0  0  0  0  0  0  0  0  0
  -25.1617  -12.2087   21.3650 C   0  0  0  0  0  0  0  0  0  0  0  0
  -25.0698  -12.7359   19.0090 C   0  0  0  0  0  0  0  0  0  0  0  0
  -27.5397  -28.8189   18.9449 C   0  0  0  0  0  0  0  0  0  0  0  0
  -23.7995   -9.3002   20.3079 C   0  0  0  0  0  0  0  0  0  0  0  0
  -23.6026   -8.0695   20.9342 C   0  0  0  0  0  0  0  0  0  0  0  0
  -26.4049  -27.7958   20.8116 C   0  0  0  0  0  0  0  0  0  0  0  0
  -29.5976  -22.0844   17.6526 C   0  0  0  0  0  0  0  0  0  0  0  0
  -21.8971   -9.0546   22.3335 C   0  0  0  0  0  0  0  0  0  0  0  0
  -27.0208  -13.3293   20.3044 C   0  0  0  0  0  0  0  0  0  0  0  0
  -29.5688  -13.2749   20.1919 C   0  0  0  0  0  0  0  0  0  0  0  0
  -26.3988  -36.4707   23.6143 C   0  0  0  0  0  0  0  0  0  0  0  0
  -25.8050  -30.0389   20.1271 C   0  0  0  0  0  0  0  0  0  0  0  0
  -26.8742  -35.2467   23.1062 C   0  0  0  0  0  0  0  0  0  0  0  0
  -25.6140  -28.9427   20.9802 C   0  0  0  0  0  0  0  0  0  0  0  0
  -29.4967  -20.2140   16.1266 C   0  0  0  0  0  0  0  0  0  0  0  0
  -29.2494  -22.9494   16.6152 C   0  0  0  0  0  0  0  0  0  0  0  0
  -29.7212  -20.7166   17.4083 C   0  0  0  0  0  0  0  0  0  0  0  0
  -24.4807  -12.1866   20.1479 C   0  0  0  0  0  0  0  0  0  0  0  0
  -27.3635  -27.7354   19.8005 C   0  0  0  0  0  0  0  0  0  0  0  0
  -23.0453  -10.4081   20.6944 C   0  0  0  0  0  0  0  0  0  0  0  0
  -22.6513   -7.9467   21.9470 C   0  0  0  0  0  0  0  0  0  0  0  0
  -22.0941  -10.2853   21.7072 C   0  0  0  0  0  0  0  0  0  0  0  0
  -28.3326  -13.9201   20.3847 C   0  0  0  0  0  0  0  0  0  0  0  0
  -30.5044  -14.2634   20.3757 C   0  0  0  0  0  0  0  0  0  0  0  0
  -29.8465  -11.9044   19.8749 C   0  0  0  0  0  0  0  0  0  0  0  0
  -25.3841  -31.8932   22.6742 C   0  0  0  0  0  0  0  0  0  0  0  0
  -22.5904  -30.2624   22.9152 C   0  0  0  0  0  0  0  0  0  0  0  0
  -28.7163  -24.8030   18.1494 C   0  0  0  0  0  0  0  0  0  0  0  0
  -20.8137  -27.4375   22.2008 C   0  0  0  0  0  0  0  0  0  0  0  0
  -30.3290  -20.2084   19.7996 C   0  0  0  0  0  0  0  0  0  0  0  0
  -25.4770  -36.5302   24.8066 C   0  0  0  0  0  0  0  0  0  0  0  0
  -24.9550  -31.2717   20.2689 C   0  0  0  0  0  0  0  0  0  0  0  0
  -24.5865  -28.9643   22.0813 C   0  0  0  0  0  0  0  0  0  0  0  0
  -24.7854  -35.2033   25.1087 C   0  0  0  0  0  0  0  0  0  0  0  0
  -31.1927  -18.3774   22.7286 C   0  0  0  0  0  0  0  0  0  0  0  0
  -25.7904  -34.0565   25.0695 C   0  0  0  0  0  0  0  0  0  0  0  0
  -30.6752  -16.9664   22.4398 C   0  0  0  0  0  0  0  0  0  0  0  0
  -30.2616  -19.4494   22.1649 C   0  0  0  0  0  0  0  0  0  0  0  0
  -29.4199  -17.8923   20.4514 C   0  0  0  0  0  0  0  0  0  0  0  0
  -26.4192  -33.9212   23.6774 C   0  0  1  0  0  0  0  0  0  0  0  0
  -24.3675  -31.4347   21.6673 C   0  0  1  0  0  0  0  0  0  0  0  0
  -30.3577  -16.7778   20.9434 C   0  0  2  0  0  0  0  0  0  0  0  0
  -29.6219  -18.7537   15.8359 C   0  0  0  0  0  0  0  0  0  0  0  0
  -18.5676  -26.3788   22.5630 C   0  0  0  0  0  0  0  0  0  0  0  0
  -23.3665  -29.6059   25.7921 C   0  0  0  0  0  0  0  0  0  0  0  0
  -21.6160  -27.8160   25.7823 C   0  0  0  0  0  0  0  0  0  0  0  0
  -20.9590  -30.2023   25.4713 C   0  0  0  0  0  0  0  0  0  0  0  0
  -29.4156  -25.3178   15.7825 C   0  0  0  0  0  0  0  0  0  0  0  0
  -20.2655  -27.3323   19.2944 C   0  0  0  0  0  0  0  0  0  0  0  0
  -28.5648  -26.3069   18.3266 C   0  0  0  0  0  0  0  0  0  1  0  0
  -22.1504  -28.9906   23.5992 C   0  0  1  0  0  0  0  0  0  0  0  0
  -19.4162  -27.2410   21.6415 C   0  0  2  0  0  0  0  0  0  0  0  0
  -22.0438  -29.1537   25.1418 C   0  0  0  0  0  0  0  0  0  0  0  0
  -28.4673  -15.2181   20.6694 N   0  0  0  0  0  0  0  0  0  0  0  0
  -29.7993  -15.3965   20.6569 N   0  0  0  0  0  0  0  0  0  0  0  0
  -23.7844  -30.1946   22.1835 N   0  0  0  0  0  0  0  0  0  0  0  0
  -30.0093  -19.2086   20.7425 N   0  0  0  0  0  0  0  0  0  0  0  0
  -31.8534  -14.2653   20.3228 N   0  0  0  0  0  0  0  0  0  0  0  0
  -28.7682  -11.0226   19.7204 N   0  0  0  0  0  0  0  0  0  0  0  0
  -30.0755  -19.8539   18.4750 N   0  0  0  0  0  0  0  0  0  0  0  0
  -25.5015  -33.2667   22.7697 N   0  0  0  0  0  0  0  0  0  0  0  0
  -20.9054  -28.5893   22.9533 N   0  0  0  0  0  0  0  0  0  0  0  0
  -29.1207  -24.3703   16.8685 N   0  0  0  0  0  0  0  0  0  0  0  0
  -19.4805  -26.5806   20.3071 N   0  3  0  0  0  0  0  0  0  0  0  0
  -31.0169  -11.4710   19.7490 O   0  0  0  0  0  0  0  0  0  0  0  0
  -26.0142  -31.0624   23.3179 O   0  0  0  0  0  0  0  0  0  0  0  0
  -21.8963  -31.2768   23.0202 O   0  0  0  0  0  0  0  0  0  0  0  0
  -28.4544  -24.0639   19.1017 O   0  0  0  0  0  0  0  0  0  0  0  0
  -21.7313  -26.6464   21.9941 O   0  0  0  0  0  0  0  0  0  0  0  0
  -30.8188  -21.2884   20.1398 O   0  0  0  0  0  0  0  0  0  0  0  0
  -23.2415  -11.6290   20.0711 O   0  0  0  0  0  0  0  0  0  0  0  0
  -28.1222  -26.6161   19.6475 O   0  0  0  0  0  0  0  0  0  1  0  0
  -22.4612   -6.7645   22.5473 F   0  0  0  0  0  0  0  0  0  0  0  0
  -21.3656  -11.3459   22.0820 F   0  0  0  0  0  0  0  0  0  0  0  0
  1  2  1  0  0  0  0
  1  5  2  0  0  0  0
  2  6  2  0  0  0  0
  3 10  2  0  0  0  0
  3 18  1  0  0  0  0
  4 11  1  0  0  0  0
  4 18  2  0  0  0  0
  5 20  1  0  0  0  0
  6 22  1  0  0  0  0
  7 12  2  0  0  0  0
  7 21  1  0  0  0  0
  8  9  2  0  0  0  0
  8 24  1  0  0  0  0
  9 25  1  0  0  0  0
 10 27  1  0  0  0  0
 11 27  2  0  0  0  0
 12 28  1  0  0  0  0
 13 14  2  0  0  0  0
 13 29  1  0  0  0  0
 14 30  1  0  0  0  0
 15 23  1  0  0  0  0
 15 28  2  0  0  0  0
 16 25  2  0  0  0  0
 16 26  1  0  0  0  0
 17 30  2  0  0  0  0
 17 31  1  0  0  0  0
 18 32  1  0  0  0  0
 19 32  1  0  0  0  0
 19 33  2  0  0  0  0
 19 34  1  0  0  0  0
 20 22  2  0  0  0  0
 20 40  1  0  0  0  0
 21 23  2  0  0  0  0
 21 41  1  0  0  0  0
 22 49  1  0  0  0  0
 23 42  1  0  0  0  0
 24 26  2  0  0  0  0
 24 52  1  0  0  0  0
 25 72  1  0  0  0  0
 26 69  1  0  0  0  0
 27 80  1  0  0  0  0
 28 81  1  0  0  0  0
 29 31  2  0  0  0  0
 29 80  1  0  0  0  0
 30 82  1  0  0  0  0
 31 83  1  0  0  0  0
 32 63  2  0  0  0  0
 33 64  1  0  0  0  0
 33 67  1  0  0  0  0
 34 68  1  0  0  0  0
 34 74  2  0  0  0  0
 35 50  1  0  0  0  0
 35 70  1  0  0  0  0
 35 75  2  0  0  0  0
 36 60  1  0  0  0  0
 36 65  1  0  0  0  0
 36 76  2  0  0  0  0
 37 59  1  0  0  0  0
 37 72  1  0  0  0  0
 37 77  2  0  0  0  0
 38 61  1  0  0  0  0
 38 71  1  0  0  0  0
 38 78  2  0  0  0  0
 39 66  1  0  0  0  0
 39 69  1  0  0  0  0
 39 79  2  0  0  0  0
 40 43  1  0  0  0  0
 41 50  1  0  0  0  0
 42 65  1  0  0  0  0
 43 45  1  0  0  0  0
 44 46  1  0  0  0  0
 44 47  1  0  0  0  0
 45 49  1  0  0  0  0
 46 51  1  0  0  0  0
 47 66  1  0  0  0  0
 48 51  1  0  0  0  0
 48 66  1  0  0  0  0
 49 70  1  0  0  0  0
 50 65  1  0  0  0  0
 51 64  1  0  0  0  0
 53 61  1  0  0  0  0
 54 62  1  0  0  0  0
 55 62  1  0  0  0  0
 56 62  1  0  0  0  0
 57 72  1  0  0  0  0
 58 73  1  0  0  0  0
 59 81  1  0  0  0  0
 60 62  1  0  0  0  0
 60 71  1  0  0  0  0
 61 73  1  0  0  0  0
 63 64  1  0  0  0  0
M  CHG  1  73   1
M  ISO  4  39 100  59 101  69 100  81 101
M  END
> <Batch ID>
0010

> <Smiles>
CNC(C)C(=O)NC(C(=O)N1Cc2cc([101O:1][101CH2:1]C(=O)N(C)c3ccc(C)c([100NH:0][100C:0](=O)N4CCCC(n5nc(-c6ccc(Oc7ccc(F)cc7F)cc6)c(C(N)=O)c5N)C4)c3)ccc2CC1C(=O)NC1CCCc2ccccc21)C(C)(C)C

> <Shape>
0.356

> <Color>
0.106

> <Negative vol penalty>
0.000

$$$$

  -OEChem-04052315413D

 83 91  0     1  0  0  0  0  0999 V2000
  -30.8402  -31.8042   24.9253 C   0  0  0  0  0  0  0  0  0  0  0  0
  -30.3471  -30.6731   24.2827 C   0  0  0  0  0  0  0  0  0  0  0  0
  -24.6260   -8.9690   21.3580 C   0  0  0  0  0  0  0  0  0  0  0  0
  -23.3460  -10.8347   22.2054 C   0  0  0  0  0  0  0  0  0  0  0  0
  -29.9675  -32.6580   25.5987 C   0  0  0  0  0  0  0  0  0  0  0  0
  -28.9812  -30.3946   24.3141 C   0  0  0  0  0  0  0  0  0  0  0  0
  -27.1746  -29.0189   19.7876 C   0  0  0  0  0  0  0  0  0  0  0  0
  -28.2109  -19.0664   20.3086 C   0  0  0  0  0  0  0  0  0  0  0  0
  -27.7786  -20.3797   20.1246 C   0  0  0  0  0  0  0  0  0  0  0  0
  -24.0710   -8.1439   22.3361 C   0  0  0  0  0  0  0  0  0  0  0  0
  -22.7909  -10.0096   23.1835 C   0  0  0  0  0  0  0  0  0  0  0  0
  -27.4244  -27.7115   19.3729 C   0  0  0  0  0  0  0  0  0  0  0  0
  -21.1630   -6.4964   22.8484 C   0  0  0  0  0  0  0  0  0  0  0  0
  -20.7117   -5.2368   22.4542 C   0  0  0  0  0  0  0  0  0  0  0  0
  -25.1947  -27.0796   20.0427 C   0  0  0  0  0  0  0  0  0  0  0  0
  -26.1747  -18.5643   21.5082 C   0  0  0  0  0  0  0  0  0  0  0  0
  -22.2641   -4.2005   23.9882 C   0  0  0  0  0  0  0  0  0  0  0  0
  -24.2636  -10.3144   21.2927 C   0  0  0  0  0  0  0  0  0  0  0  0
  -24.3353  -11.4104   18.9902 C   0  0  0  0  0  0  0  0  0  0  0  0
  -28.5890  -32.3950   25.6302 C   0  0  0  0  0  0  0  0  0  0  0  0
  -25.9347  -29.3646   20.3439 C   0  0  0  0  0  0  0  0  0  0  0  0
  -28.0894  -31.2449   24.9896 C   0  0  0  0  0  0  0  0  0  0  0  0
  -24.9308  -28.3927   20.4612 C   0  0  0  0  0  0  0  0  0  0  0  0
  -27.4089  -18.1587   21.0004 C   0  0  0  0  0  0  0  0  0  0  0  0
  -26.5444  -20.7854   20.6324 C   0  0  0  0  0  0  0  0  0  0  0  0
  -23.1534   -8.6642   23.2489 C   0  0  0  0  0  0  0  0  0  0  0  0
  -26.4354  -26.7409   19.5031 C   0  0  0  0  0  0  0  0  0  0  0  0
  -22.1649   -6.6080   23.8124 C   0  0  0  0  0  0  0  0  0  0  0  0
  -25.7424  -19.8777   21.3242 C   0  0  0  0  0  0  0  0  0  0  0  0
  -21.2622   -4.0889   23.0241 C   0  0  0  0  0  0  0  0  0  0  0  0
  -22.7154   -5.4601   24.3823 C   0  0  0  0  0  0  0  0  0  0  0  0
  -24.8371  -11.1673   20.2829 C   0  0  0  0  0  0  0  0  0  0  0  0
  -25.2360  -12.2835   18.4308 C   0  0  0  0  0  0  0  0  0  0  0  0
  -23.1600  -10.8933   18.3522 C   0  0  0  0  0  0  0  0  0  0  0  0
  -24.9716  -30.4725   23.1633 C   0  0  0  0  0  0  0  0  0  0  0  0
  -22.0980  -30.6602   21.6702 C   0  0  0  0  0  0  0  0  0  0  0  0
  -26.7995  -23.1383   19.7762 C   0  0  0  0  0  0  0  0  0  0  0  0
  -20.0560  -29.5588   19.1674 C   0  0  0  0  0  0  0  0  0  0  0  0
  -29.0458  -16.2604   20.7491 C   0  0  0  0  0  0  0  0  0  0  0  0
  -27.6908  -33.3215   26.4109 C   0  0  0  0  0  0  0  0  0  0  0  0
  -25.6718  -30.7855   20.7617 C   0  0  0  0  0  0  0  0  0  0  0  0
  -23.5759  -28.7171   21.0333 C   0  0  0  0  0  0  0  0  0  0  0  0
  -26.2098  -33.1564   26.0796 C   0  0  0  0  0  0  0  0  0  0  0  0
  -29.8570  -13.5266   18.6170 C   0  0  0  0  0  0  0  0  0  0  0  0
  -25.8286  -31.6796   26.0599 C   0  0  0  0  0  0  0  0  0  0  0  0
  -28.6137  -12.6365   18.6798 C   0  0  0  0  0  0  0  0  0  0  0  0
  -30.1557  -14.1797   19.9654 C   0  0  0  0  0  0  0  0  0  0  0  0
  -27.7879  -14.0202   20.6267 C   0  0  0  0  0  0  0  0  0  0  0  0
  -26.6110  -30.9222   24.9802 C   0  0  1  0  0  0  0  0  0  0  0  0
  -24.5503  -30.9086   21.7885 C   0  0  1  0  0  0  0  0  0  0  0  0
  -27.4094  -13.3918   19.2756 C   0  0  2  0  0  0  0  0  0  0  0  0
  -17.7518  -29.8712   18.2239 C   0  0  0  0  0  0  0  0  0  0  0  0
  -20.9375  -29.0229   23.9686 C   0  0  0  0  0  0  0  0  0  0  0  0
  -18.9337  -28.5658   22.5390 C   0  0  0  0  0  0  0  0  0  0  0  0
  -19.4877  -30.9080   23.1945 C   0  0  0  0  0  0  0  0  0  0  0  0
  -21.1210  -30.4690   16.5604 C   0  0  0  0  0  0  0  0  0  0  0  0
  -24.5204  -20.7681   23.1599 C   0  0  0  0  0  0  0  0  0  0  0  0
  -25.9918  -24.4227   19.7950 C   0  0  0  0  0  0  0  0  0  1  0  0
  -20.9267  -29.7261   21.4844 C   0  0  1  0  0  0  0  0  0  0  0  0
  -19.2068  -30.3086   18.1569 C   0  0  2  0  0  0  0  0  0  0  0  0
  -20.0975  -29.5488   22.7876 C   0  0  0  0  0  0  0  0  0  0  0  0
  -25.9688  -11.8322   20.5301 N   0  0  0  0  0  0  0  0  0  0  0  0
  -26.1857  -12.5015   19.3851 N   0  0  0  0  0  0  0  0  0  0  0  0
  -23.3695  -30.1189   21.4332 N   0  0  0  0  0  0  0  0  0  0  0  0
  -28.9709  -14.8801   20.4660 N   0  0  0  0  0  0  0  0  0  0  0  0
  -25.3003  -12.8782   17.2206 N   0  0  0  0  0  0  0  0  0  0  0  0
  -22.3451  -10.0073   19.0700 N   0  0  0  0  0  0  0  0  0  0  0  0
  -26.1202  -22.1214   20.4384 N   0  0  0  0  0  0  0  0  0  0  0  0
  -27.8485  -16.8248   21.1879 N   0  0  0  0  0  0  0  0  0  0  0  0
  -26.0450  -31.1779   23.6730 N   0  0  0  0  0  0  0  0  0  0  0  0
  -20.1629  -30.2486   20.3565 N   0  0  0  0  0  0  0  0  0  0  0  0
  -19.7082  -30.0630   16.7751 N   0  3  0  0  0  0  0  0  0  0  0  0
  -22.8507  -11.1948   17.1746 O   0  0  0  0  0  0  0  0  0  0  0  0
  -24.3667  -29.5643   23.7209 O   0  0  0  0  0  0  0  0  0  0  0  0
  -21.8919  -31.8291   22.0061 O   0  0  0  0  0  0  0  0  0  0  0  0
  -27.8970  -23.0773   19.2317 O   0  0  0  0  0  0  0  0  0  0  0  0
  -20.5699  -28.4685   18.9273 O   0  0  0  0  0  0  0  0  0  0  0  0
  -30.0878  -16.9006   20.5865 O   0  0  0  0  0  0  0  0  0  0  0  0
  -22.6114   -7.8593   24.2033 O   0  0  0  0  0  0  0  0  0  0  0  0
  -24.5338  -20.2540   21.8300 O   0  0  0  0  0  0  0  0  0  0  0  0
  -26.6767  -25.4638   19.0998 O   0  0  0  0  0  0  0  0  0  1  0  0
  -20.8276   -2.8794   22.6466 F   0  0  0  0  0  0  0  0  0  0  0  0
  -23.6774   -5.5611   25.3098 F   0  0  0  0  0  0  0  0  0  0  0  0
  1  2  1  0  0  0  0
  1  5  2  0  0  0  0
  2  6  2  0  0  0  0
  3 10  2  0  0  0  0
  3 18  1  0  0  0  0
  4 11  1  0  0  0  0
  4 18  2  0  0  0  0
  5 20  1  0  0  0  0
  6 22  1  0  0  0  0
  7 12  2  0  0  0  0
  7 21  1  0  0  0  0
  8  9  2  0  0  0  0
  8 24  1  0  0  0  0
  9 25  1  0  0  0  0
 10 26  1  0  0  0  0
 11 26  2  0  0  0  0
 12 27  1  0  0  0  0
 13 14  2  0  0  0  0
 13 28  1  0  0  0  0
 14 30  1  0  0  0  0
 15 23  1  0  0  0  0
 15 27  2  0  0  0  0
 16 24  2  0  0  0  0
 16 29  1  0  0  0  0
 17 30  2  0  0  0  0
 17 31  1  0  0  0  0
 18 32  1  0  0  0  0
 19 32  1  0  0  0  0
 19 33  2  0  0  0  0
 19 34  1  0  0  0  0
 20 22  2  0  0  0  0
 20 40  1  0  0  0  0
 21 23  2  0  0  0  0
 21 41  1  0  0  0  0
 22 49  1  0  0  0  0
 23 42  1  0  0  0  0
 24 69  1  0  0  0  0
 25 29  2  0  0  0  0
 25 68  1  0  0  0  0
 26 79  1  0  0  0  0
 27 81  1  0  0  0  0
 28 31  2  0  0  0  0
 28 79  1  0  0  0  0
 29 80  1  0  0  0  0
 30 82  1  0  0  0  0
 31 83  1  0  0  0  0
 32 62  2  0  0  0  0
 33 63  1  0  0  0  0
 33 66  1  0  0  0  0
 34 67  1  0  0  0  0
 34 73  2  0  0  0  0
 35 50  1  0  0  0  0
 35 70  1  0  0  0  0
 35 74  2  0  0  0  0
 36 59  1  0  0  0  0
 36 64  1  0  0  0  0
 36 75  2  0  0  0  0
 37 58  1  0  0  0  0
 37 68  1  0  0  0  0
 37 76  2  0  0  0  0
 38 60  1  0  0  0  0
 38 71  1  0  0  0  0
 38 77  2  0  0  0  0
 39 65  1  0  0  0  0
 39 69  1  0  0  0  0
 39 78  2  0  0  0  0
 40 43  1  0  0  0  0
 41 50  1  0  0  0  0
 42 64  1  0  0  0  0
 43 45  1  0  0  0  0
 44 46  1  0  0  0  0
 44 47  1  0  0  0  0
 45 49  1  0  0  0  0
 46 51  1  0  0  0  0
 47 65  1  0  0  0  0
 48 51  1  0  0  0  0
 48 65  1  0  0  0  0
 49 70  1  0  0  0  0
 50 64  1  0  0  0  0
 51 63  1  0  0  0  0
 52 60  1  0  0  0  0
 53 61  1  0  0  0  0
 54 61  1  0  0  0  0
 55 61  1  0  0  0  0
 56 72  1  0  0  0  0
 57 80  1  0  0  0  0
 58 81  1  0  0  0  0
 59 61  1  0  0  0  0
 59 71  1  0  0  0  0
 60 72  1  0  0  0  0
 62 63  1  0  0  0  0
M  CHG  1  72   1
M  ISO  4  39 100  58 101  69 100  81 101
M  END
> <Batch ID>
0010

> <Smiles>
CNC(C)C(=O)NC(C(=O)N1Cc2cc([101O:1][101CH2:1]C(=O)Nc3ccc([100NH:0][100C:0](=O)N4CCCC(n5nc(-c6ccc(Oc7ccc(F)cc7F)cc6)c(C(N)=O)c5N)C4)cc3OC)ccc2CC1C(=O)NC1CCCc2ccccc21)C(C)(C)C

> <Shape>
0.304

> <Color>
0.100

> <Negative vol penalty>
0.000

$$$$

  -OEChem-04052315413D

 81 89  0     1  0  0  0  0  0999 V2000
  -24.5738  -32.0556   29.0851 C   0  0  0  0  0  0  0  0  0  0  0  0
  -25.3302  -31.2090   28.2810 C   0  0  0  0  0  0  0  0  0  0  0  0
  -24.5838   -8.9930   21.5609 C   0  0  0  0  0  0  0  0  0  0  0  0
  -23.9301  -10.7076   23.1324 C   0  0  0  0  0  0  0  0  0  0  0  0
  -23.2505  -32.3371   28.7479 C   0  0  0  0  0  0  0  0  0  0  0  0
  -24.7634  -30.6426   27.1398 C   0  0  0  0  0  0  0  0  0  0  0  0
  -27.5845  -29.4338   21.8402 C   0  0  0  0  0  0  0  0  0  0  0  0
  -26.0332  -20.6131   19.0839 C   0  0  0  0  0  0  0  0  0  0  0  0
  -28.3128  -21.0359   19.7633 C   0  0  0  0  0  0  0  0  0  0  0  0
  -26.2893  -19.2420   19.0780 C   0  0  0  0  0  0  0  0  0  0  0  0
  -28.5689  -19.6648   19.7575 C   0  0  0  0  0  0  0  0  0  0  0  0
  -24.1521   -8.0111   22.4525 C   0  0  0  0  0  0  0  0  0  0  0  0
  -23.4983   -9.7257   24.0241 C   0  0  0  0  0  0  0  0  0  0  0  0
  -28.1273  -28.2632   21.3122 C   0  0  0  0  0  0  0  0  0  0  0  0
  -22.8900   -5.0635   24.1653 C   0  0  0  0  0  0  0  0  0  0  0  0
  -22.1309   -4.0112   23.6535 C   0  0  0  0  0  0  0  0  0  0  0  0
  -26.0782  -27.8657   20.1028 C   0  0  0  0  0  0  0  0  0  0  0  0
  -20.4569   -5.5836   22.9034 C   0  0  0  0  0  0  0  0  0  0  0  0
  -24.4729  -10.3413   21.9008 C   0  0  0  0  0  0  0  0  0  0  0  0
  -24.1598  -11.9867   19.9767 C   0  0  0  0  0  0  0  0  0  0  0  0
  -22.6702  -31.7815   27.5968 C   0  0  0  0  0  0  0  0  0  0  0  0
  -26.2784  -29.8242   21.5115 C   0  0  0  0  0  0  0  0  0  0  0  0
  -23.4307  -30.9159   26.7877 C   0  0  0  0  0  0  0  0  0  0  0  0
  -25.5221  -29.0431   20.6259 C   0  0  0  0  0  0  0  0  0  0  0  0
  -27.0450  -21.5101   19.4265 C   0  0  0  0  0  0  0  0  0  0  0  0
  -27.5571  -18.7678   19.4148 C   0  0  0  0  0  0  0  0  0  0  0  0
  -23.6093   -8.3774   23.6841 C   0  0  0  0  0  0  0  0  0  0  0  0
  -27.3731  -27.4774   20.4456 C   0  0  0  0  0  0  0  0  0  0  0  0
  -22.4325   -6.3759   24.0463 C   0  0  0  0  0  0  0  0  0  0  0  0
  -20.9144   -4.2712   23.0225 C   0  0  0  0  0  0  0  0  0  0  0  0
  -21.2160   -6.6359   23.4154 C   0  0  0  0  0  0  0  0  0  0  0  0
  -24.9192  -11.3560   20.9804 C   0  0  0  0  0  0  0  0  0  0  0  0
  -25.0349  -12.8643   19.3845 C   0  0  0  0  0  0  0  0  0  0  0  0
  -22.7863  -11.7963   19.6123 C   0  0  0  0  0  0  0  0  0  0  0  0
  -23.5940  -30.2814   23.1513 C   0  0  0  0  0  0  0  0  0  0  0  0
  -22.4912  -31.3523   20.2948 C   0  0  0  0  0  0  0  0  0  0  0  0
  -27.6711  -23.9268   19.7453 C   0  0  0  0  0  0  0  0  0  0  0  0
  -22.7599  -31.3303   16.8927 C   0  0  0  0  0  0  0  0  0  0  0  0
  -29.0196  -16.7391   19.7174 C   0  0  0  0  0  0  0  0  0  0  0  0
  -21.2216  -32.0776   27.2989 C   0  0  0  0  0  0  0  0  0  0  0  0
  -25.7170  -31.1037   22.0684 C   0  0  0  0  0  0  0  0  0  0  0  0
  -24.1224  -29.4288   20.2255 C   0  0  0  0  0  0  0  0  0  0  0  0
  -20.8113  -31.7344   25.8692 C   0  0  0  0  0  0  0  0  0  0  0  0
  -30.0527  -13.3346   19.8560 C   0  0  0  0  0  0  0  0  0  0  0  0
  -21.3270  -30.3517   25.4832 C   0  0  0  0  0  0  0  0  0  0  0  0
  -28.7467  -12.5682   20.0783 C   0  0  0  0  0  0  0  0  0  0  0  0
  -30.0634  -14.6660   20.6050 C   0  0  0  0  0  0  0  0  0  0  0  0
  -27.6023  -14.7679   20.5667 C   0  0  0  0  0  0  0  0  0  0  0  0
  -22.8590  -30.3018   25.5283 C   0  0  1  0  0  0  0  0  0  0  0  0
  -24.1918  -31.1363   22.0699 C   0  0  1  0  0  0  0  0  0  0  0  0
  -27.5182  -13.4498   19.7799 C   0  0  2  0  0  0  0  0  0  0  0  0
  -21.6939  -32.2743   14.8264 C   0  0  0  0  0  0  0  0  0  0  0  0
  -20.1808  -29.3813   20.5893 C   0  0  0  0  0  0  0  0  0  0  0  0
  -19.7107  -29.6750   18.1478 C   0  0  0  0  0  0  0  0  0  0  0  0
  -19.5309  -31.6242   19.6941 C   0  0  0  0  0  0  0  0  0  0  0  0
  -25.2535  -32.7114   16.0967 C   0  0  0  0  0  0  0  0  0  0  0  0
  -26.9897  -25.2775   19.6276 C   0  0  0  0  0  0  0  0  0  1  0  0
  -21.8158  -30.7173   19.1034 C   0  0  1  0  0  0  0  0  0  0  0  0
  -22.7785  -32.4579   15.8765 C   0  0  2  0  0  0  0  0  0  0  0  0
  -20.3352  -30.3409   19.3925 C   0  0  0  0  0  0  0  0  0  0  0  0
  -26.1797  -11.7955   21.0261 N   0  0  0  0  0  0  0  0  0  0  0  0
  -26.2191  -12.7116   20.0437 N   0  0  0  0  0  0  0  0  0  0  0  0
  -23.6156  -30.6853   20.8015 N   0  0  0  0  0  0  0  0  0  0  0  0
  -28.8721  -15.4491   20.2696 N   0  0  0  0  0  0  0  0  0  0  0  0
  -24.8991  -13.7439   18.3695 N   0  0  0  0  0  0  0  0  0  0  0  0
  -22.0305  -10.8547   20.3240 N   0  0  0  0  0  0  0  0  0  0  0  0
  -26.7856  -22.9012   19.4322 N   0  0  0  0  0  0  0  0  0  0  0  0
  -27.8175  -17.3750   19.4089 N   0  0  0  0  0  0  0  0  0  0  0  0
  -23.4201  -30.9370   24.3552 N   0  0  0  0  0  0  0  0  0  0  0  0
  -21.9901  -31.6463   17.9922 N   0  0  0  0  0  0  0  0  0  0  0  0
  -24.0977  -32.5106   15.1853 N   0  3  0  0  0  0  0  0  0  0  0  0
  -22.2497  -12.4303   18.6723 O   0  0  0  0  0  0  0  0  0  0  0  0
  -23.3101  -29.1138   22.9107 O   0  0  0  0  0  0  0  0  0  0  0  0
  -22.0422  -32.4053   20.7544 O   0  0  0  0  0  0  0  0  0  0  0  0
  -28.8478  -23.8276   20.0773 O   0  0  0  0  0  0  0  0  0  0  0  0
  -23.3647  -30.2734   16.7261 O   0  0  0  0  0  0  0  0  0  0  0  0
  -30.1309  -17.2316   19.5066 O   0  0  0  0  0  0  0  0  0  0  0  0
  -23.1877   -7.4196   24.5544 O   0  0  0  0  0  0  0  0  0  0  0  0
  -27.9002  -26.3340   19.9294 O   0  0  0  0  0  0  0  0  0  1  0  0
  -20.1862   -3.2608   22.5296 F   0  0  0  0  0  0  0  0  0  0  0  0
  -20.7719   -7.8947   23.2970 F   0  0  0  0  0  0  0  0  0  0  0  0
  1  2  1  0  0  0  0
  1  5  2  0  0  0  0
  2  6  2  0  0  0  0
  3 12  2  0  0  0  0
  3 19  1  0  0  0  0
  4 13  1  0  0  0  0
  4 19  2  0  0  0  0
  5 21  1  0  0  0  0
  6 23  1  0  0  0  0
  7 14  2  0  0  0  0
  7 22  1  0  0  0  0
  8 10  2  0  0  0  0
  8 25  1  0  0  0  0
  9 11  1  0  0  0  0
  9 25  2  0  0  0  0
 10 26  1  0  0  0  0
 11 26  2  0  0  0  0
 12 27  1  0  0  0  0
 13 27  2  0  0  0  0
 14 28  1  0  0  0  0
 15 16  2  0  0  0  0
 15 29  1  0  0  0  0
 16 30  1  0  0  0  0
 17 24  1  0  0  0  0
 17 28  2  0  0  0  0
 18 30  2  0  0  0  0
 18 31  1  0  0  0  0
 19 32  1  0  0  0  0
 20 32  1  0  0  0  0
 20 33  2  0  0  0  0
 20 34  1  0  0  0  0
 21 23  2  0  0  0  0
 21 40  1  0  0  0  0
 22 24  2  0  0  0  0
 22 41  1  0  0  0  0
 23 49  1  0  0  0  0
 24 42  1  0  0  0  0
 25 67  1  0  0  0  0
 26 68  1  0  0  0  0
 27 78  1  0  0  0  0
 28 79  1  0  0  0  0
 29 31  2  0  0  0  0
 29 78  1  0  0  0  0
 30 80  1  0  0  0  0
 31 81  1  0  0  0  0
 32 61  2  0  0  0  0
 33 62  1  0  0  0  0
 33 65  1  0  0  0  0
 34 66  1  0  0  0  0
 34 72  2  0  0  0  0
 35 50  1  0  0  0  0
 35 69  1  0  0  0  0
 35 73  2  0  0  0  0
 36 58  1  0  0  0  0
 36 63  1  0  0  0  0
 36 74  2  0  0  0  0
 37 57  1  0  0  0  0
 37 67  1  0  0  0  0
 37 75  2  0  0  0  0
 38 59  1  0  0  0  0
 38 70  1  0  0  0  0
 38 76  2  0  0  0  0
 39 64  1  0  0  0  0
 39 68  1  0  0  0  0
 39 77  2  0  0  0  0
 40 43  1  0  0  0  0
 41 50  1  0  0  0  0
 42 63  1  0  0  0  0
 43 45  1  0  0  0  0
 44 46  1  0  0  0  0
 44 47  1  0  0  0  0
 45 49  1  0  0  0  0
 46 51  1  0  0  0  0
 47 64  1  0  0  0  0
 48 51  1  0  0  0  0
 48 64  1  0  0  0  0
 49 69  1  0  0  0  0
 50 63  1  0  0  0  0
 51 62  1  0  0  0  0
 52 59  1  0  0  0  0
 53 60  1  0  0  0  0
 54 60  1  0  0  0  0
 55 60  1  0  0  0  0
 56 71  1  0  0  0  0
 57 79  1  0  0  0  0
 58 60  1  0  0  0  0
 58 70  1  0  0  0  0
 59 71  1  0  0  0  0
 61 62  1  0  0  0  0
M  CHG  1  71   1
M  ISO  4  39 100  57 101  68 100  79 101
M  END
> <Batch ID>
0010

> <Smiles>
CNC(C)C(=O)NC(C(=O)N1Cc2cc([101O:1][101CH2:1]C(=O)Nc3ccc([100NH:0][100C:0](=O)N4CCCC(n5nc(-c6ccc(Oc7ccc(F)cc7F)cc6)c(C(N)=O)c5N)C4)cc3)ccc2CC1C(=O)NC1CCCc2ccccc21)C(C)(C)C

> <Shape>
0.258

> <Color>
0.118

> <Negative vol penalty>
0.000

$$$$

  -OEChem-04052315413D

 82 90  0     1  0  0  0  0  0999 V2000
  -18.0559  -25.2788   21.6922 C   0  0  0  0  0  0  0  0  0  0  0  0
  -19.3124  -24.7971   22.0453 C   0  0  0  0  0  0  0  0  0  0  0  0
  -23.7189   -9.8738   21.6223 C   0  0  0  0  0  0  0  0  0  0  0  0
  -24.2642  -11.0080   23.6847 C   0  0  0  0  0  0  0  0  0  0  0  0
  -17.9327  -26.5379   21.1062 C   0  0  0  0  0  0  0  0  0  0  0  0
  -20.4466  -25.5739   21.8116 C   0  0  0  0  0  0  0  0  0  0  0  0
  -25.4882  -25.8638   25.2762 C   0  0  0  0  0  0  0  0  0  0  0  0
  -31.4390  -20.0003   21.4728 C   0  0  0  0  0  0  0  0  0  0  0  0
  -29.0957  -20.5665   21.6335 C   0  0  0  0  0  0  0  0  0  0  0  0
  -31.0996  -18.7177   21.0424 C   0  0  0  0  0  0  0  0  0  0  0  0
  -28.7564  -19.2838   21.2030 C   0  0  0  0  0  0  0  0  0  0  0  0
  -23.1738   -8.8150   22.3487 C   0  0  0  0  0  0  0  0  0  0  0  0
  -23.7191   -9.9492   24.4111 C   0  0  0  0  0  0  0  0  0  0  0  0
  -26.7341  -25.2467   25.1728 C   0  0  0  0  0  0  0  0  0  0  0  0
  -24.3015   -6.1234   24.0540 C   0  0  0  0  0  0  0  0  0  0  0  0
  -24.6318   -4.8279   23.6565 C   0  0  0  0  0  0  0  0  0  0  0  0
  -27.6045  -27.2036   24.0628 C   0  0  0  0  0  0  0  0  0  0  0  0
  -22.2954   -4.3517   23.2670 C   0  0  0  0  0  0  0  0  0  0  0  0
  -24.2641  -10.9702   22.2903 C   0  0  0  0  0  0  0  0  0  0  0  0
  -24.1591  -13.2156   21.0842 C   0  0  0  0  0  0  0  0  0  0  0  0
  -19.0650  -27.3345   20.8740 C   0  0  0  0  0  0  0  0  0  0  0  0
  -25.2878  -27.1533   24.7631 C   0  0  0  0  0  0  0  0  0  0  0  0
  -20.3385  -26.8443   21.2207 C   0  0  0  0  0  0  0  0  0  0  0  0
  -26.3557  -27.8359   24.1632 C   0  0  0  0  0  0  0  0  0  0  0  0
  -30.4370  -20.9247   21.7684 C   0  0  0  0  0  0  0  0  0  0  0  0
  -29.7583  -18.3595   20.9074 C   0  0  0  0  0  0  0  0  0  0  0  0
  -23.1739   -8.8528   23.7430 C   0  0  0  0  0  0  0  0  0  0  0  0
  -27.7917  -25.9155   24.5635 C   0  0  0  0  0  0  0  0  0  0  0  0
  -22.9681   -6.5331   24.0580 C   0  0  0  0  0  0  0  0  0  0  0  0
  -23.6288   -3.9420   23.2630 C   0  0  0  0  0  0  0  0  0  0  0  0
  -21.9651   -5.6473   23.6645 C   0  0  0  0  0  0  0  0  0  0  0  0
  -24.8278  -12.0639   21.5406 C   0  0  0  0  0  0  0  0  0  0  0  0
  -25.1274  -13.9388   20.4315 C   0  0  0  0  0  0  0  0  0  0  0  0
  -22.7857  -13.5977   21.2367 C   0  0  0  0  0  0  0  0  0  0  0  0
  -23.4280  -28.4073   22.5109 C   0  0  0  0  0  0  0  0  0  0  0  0
  -24.6307  -31.2066   23.6244 C   0  0  0  0  0  0  0  0  0  0  0  0
  -29.9171  -23.2650   22.5409 C   0  0  0  0  0  0  0  0  0  0  0  0
  -27.1510  -32.8340   25.2511 C   0  0  0  0  0  0  0  0  0  0  0  0
  -30.2835  -16.0196   20.1357 C   0  0  0  0  0  0  0  0  0  0  0  0
  -18.8866  -28.6692   20.1947 C   0  0  0  0  0  0  0  0  0  0  0  0
  -23.9449  -27.8155   24.9064 C   0  0  0  0  0  0  0  0  0  0  0  0
  -26.1980  -29.2296   23.6145 C   0  0  0  0  0  0  0  0  0  0  0  0
  -20.1008  -29.5855   20.3239 C   0  0  0  0  0  0  0  0  0  0  0  0
  -29.8265  -12.6588   19.0525 C   0  0  0  0  0  0  0  0  0  0  0  0
  -21.3830  -28.8193   20.0148 C   0  0  0  0  0  0  0  0  0  0  0  0
  -28.4303  -12.2992   19.5657 C   0  0  0  0  0  0  0  0  0  0  0  0
  -30.5787  -13.5543   20.0353 C   0  0  0  0  0  0  0  0  0  0  0  0
  -28.4610  -14.4045   20.9635 C   0  0  0  0  0  0  0  0  0  0  0  0
  -21.5900  -27.6675   21.0058 C   0  0  1  0  0  0  0  0  0  0  0  0
  -23.7167  -28.9299   23.8898 C   0  0  1  0  0  0  0  0  0  0  0  0
  -27.6402  -13.5567   19.9780 C   0  0  2  0  0  0  0  0  0  0  0  0
  -27.8708  -35.1264   25.9754 C   0  0  0  0  0  0  0  0  0  0  0  0
  -25.4357  -31.8581   20.7543 C   0  0  0  0  0  0  0  0  0  0  0  0
  -26.9465  -33.6392   21.6561 C   0  0  0  0  0  0  0  0  0  0  0  0
  -24.4851  -33.7850   22.0341 C   0  0  0  0  0  0  0  0  0  0  0  0
  -27.1326  -32.0636   28.1085 C   0  0  0  0  0  0  0  0  0  0  0  0
  -30.7058  -24.5000   22.9613 C   0  0  0  0  0  0  0  0  0  0  0  0
  -29.8179  -25.6751   23.3417 C   0  0  0  0  0  0  0  0  0  1  0  0
  -25.8330  -32.0590   23.2975 C   0  0  1  0  0  0  0  0  0  0  0  0
  -27.1306  -33.8583   26.3713 C   0  0  2  0  0  0  0  0  0  0  0  0
  -25.6778  -32.8083   21.9440 C   0  0  0  0  0  0  0  0  0  0  0  0
  -26.1208  -12.0518   21.2060 N   0  0  0  0  0  0  0  0  0  0  0  0
  -26.2724  -13.2047   20.5323 N   0  0  0  0  0  0  0  0  0  0  0  0
  -24.8640  -29.8321   23.7730 N   0  0  0  0  0  0  0  0  0  0  0  0
  -29.7712  -14.7273   20.3769 N   0  0  0  0  0  0  0  0  0  0  0  0
  -25.1024  -15.1246   19.7868 N   0  0  0  0  0  0  0  0  0  0  0  0
  -21.9268  -12.7384   21.9355 N   0  0  0  0  0  0  0  0  0  0  0  0
  -30.7811  -22.2260   22.2056 N   0  0  0  0  0  0  0  0  0  0  0  0
  -29.4132  -17.0566   20.4702 N   0  0  0  0  0  0  0  0  0  0  0  0
  -22.0885  -28.1703   22.2681 N   0  0  0  0  0  0  0  0  0  0  0  0
  -26.0363  -32.9356   24.4459 N   0  0  0  0  0  0  0  0  0  0  0  0
  -27.7742  -33.3010   27.5945 N   0  3  0  0  0  0  0  0  0  0  0  0
  -22.3296  -14.6615   20.7531 O   0  0  0  0  0  0  0  0  0  0  0  0
  -24.3520  -28.2336   21.7249 O   0  0  0  0  0  0  0  0  0  0  0  0
  -23.5264  -31.7417   23.7506 O   0  0  0  0  0  0  0  0  0  0  0  0
  -28.6909  -23.2493   22.5204 O   0  0  0  0  0  0  0  0  0  0  0  0
  -28.0663  -32.0273   25.1028 O   0  0  0  0  0  0  0  0  0  0  0  0
  -31.4005  -16.1930   19.6416 O   0  0  0  0  0  0  0  0  0  0  0  0
  -22.6419   -7.8200   24.4521 O   0  0  0  0  0  0  0  0  0  0  0  0
  -29.0087  -25.3153   24.4607 O   0  0  0  0  0  0  0  0  0  1  0  0
  -23.9463   -2.6984   22.8799 F   0  0  0  0  0  0  0  0  0  0  0  0
  -20.6825   -6.0355   23.6652 F   0  0  0  0  0  0  0  0  0  0  0  0
  1  2  1  0  0  0  0
  1  5  2  0  0  0  0
  2  6  2  0  0  0  0
  3 12  2  0  0  0  0
  3 19  1  0  0  0  0
  4 13  1  0  0  0  0
  4 19  2  0  0  0  0
  5 21  1  0  0  0  0
  6 23  1  0  0  0  0
  7 14  2  0  0  0  0
  7 22  1  0  0  0  0
  8 10  2  0  0  0  0
  8 25  1  0  0  0  0
  9 11  1  0  0  0  0
  9 25  2  0  0  0  0
 10 26  1  0  0  0  0
 11 26  2  0  0  0  0
 12 27  1  0  0  0  0
 13 27  2  0  0  0  0
 14 28  1  0  0  0  0
 15 16  2  0  0  0  0
 15 29  1  0  0  0  0
 16 30  1  0  0  0  0
 17 24  1  0  0  0  0
 17 28  2  0  0  0  0
 18 30  2  0  0  0  0
 18 31  1  0  0  0  0
 19 32  1  0  0  0  0
 20 32  1  0  0  0  0
 20 33  2  0  0  0  0
 20 34  1  0  0  0  0
 21 23  2  0  0  0  0
 21 40  1  0  0  0  0
 22 24  2  0  0  0  0
 22 41  1  0  0  0  0
 23 49  1  0  0  0  0
 24 42  1  0  0  0  0
 25 68  1  0  0  0  0
 26 69  1  0  0  0  0
 27 79  1  0  0  0  0
 28 80  1  0  0  0  0
 29 31  2  0  0  0  0
 29 79  1  0  0  0  0
 30 81  1  0  0  0  0
 31 82  1  0  0  0  0
 32 62  2  0  0  0  0
 33 63  1  0  0  0  0
 33 66  1  0  0  0  0
 34 67  1  0  0  0  0
 34 73  2  0  0  0  0
 35 50  1  0  0  0  0
 35 70  1  0  0  0  0
 35 74  2  0  0  0  0
 36 59  1  0  0  0  0
 36 64  1  0  0  0  0
 36 75  2  0  0  0  0
 37 57  1  0  0  0  0
 37 68  1  0  0  0  0
 37 76  2  0  0  0  0
 38 60  1  0  0  0  0
 38 71  1  0  0  0  0
 38 77  2  0  0  0  0
 39 65  1  0  0  0  0
 39 69  1  0  0  0  0
 39 78  2  0  0  0  0
 40 43  1  0  0  0  0
 41 50  1  0  0  0  0
 42 64  1  0  0  0  0
 43 45  1  0  0  0  0
 44 46  1  0  0  0  0
 44 47  1  0  0  0  0
 45 49  1  0  0  0  0
 46 51  1  0  0  0  0
 47 65  1  0  0  0  0
 48 51  1  0  0  0  0
 48 65  1  0  0  0  0
 49 70  1  0  0  0  0
 50 64  1  0  0  0  0
 51 63  1  0  0  0  0
 52 60  1  0  0  0  0
 53 61  1  0  0  0  0
 54 61  1  0  0  0  0
 55 61  1  0  0  0  0
 56 72  1  0  0  0  0
 57 58  1  0  0  0  0
 58 80  1  0  0  0  0
 59 61  1  0  0  0  0
 59 71  1  0  0  0  0
 60 72  1  0  0  0  0
 62 63  1  0  0  0  0
M  CHG  1  72   1
M  ISO  4  39 100  58 101  69 100  80 101
M  END
> <Batch ID>
0010

> <Smiles>
CNC(C)C(=O)NC(C(=O)N1Cc2cc([101O:1][101CH2:1]CC(=O)Nc3ccc([100NH:0][100C:0](=O)N4CCCC(n5nc(-c6ccc(Oc7ccc(F)cc7F)cc6)c(C(N)=O)c5N)C4)cc3)ccc2CC1C(=O)NC1CCCc2ccccc21)C(C)(C)C

> <Shape>
0.282

> <Color>
0.134

> <Negative vol penalty>
0.000

$$$$

  -OEChem-04052315413D

 82 90  0     1  0  0  0  0  0999 V2000
  -23.6153  -30.7372   20.2741 C   0  0  0  0  0  0  0  0  0  0  0  0
  -23.7865  -29.3636   20.4134 C   0  0  0  0  0  0  0  0  0  0  0  0
  -22.9549   -9.8821   20.0484 C   0  0  0  0  0  0  0  0  0  0  0  0
  -23.6106  -10.0717   22.3660 C   0  0  0  0  0  0  0  0  0  0  0  0
  -24.3551  -31.6145   21.0659 C   0  0  0  0  0  0  0  0  0  0  0  0
  -24.6984  -28.8666   21.3439 C   0  0  0  0  0  0  0  0  0  0  0  0
  -24.1653  -23.7336   24.6416 C   0  0  0  0  0  0  0  0  0  0  0  0
  -32.6567  -17.4530   23.3230 C   0  0  0  0  0  0  0  0  0  0  0  0
  -32.0756  -16.5113   22.4738 C   0  0  0  0  0  0  0  0  0  0  0  0
  -22.1555   -8.7837   20.3644 C   0  0  0  0  0  0  0  0  0  0  0  0
  -22.8111   -8.9733   22.6820 C   0  0  0  0  0  0  0  0  0  0  0  0
  -24.6886  -22.4523   24.4738 C   0  0  0  0  0  0  0  0  0  0  0  0
  -22.9949   -5.6061   22.4394 C   0  0  0  0  0  0  0  0  0  0  0  0
  -23.5364   -4.6295   23.2753 C   0  0  0  0  0  0  0  0  0  0  0  0
  -26.5035  -23.0050   25.9638 C   0  0  0  0  0  0  0  0  0  0  0  0
  -29.9028  -17.4871   22.8785 C   0  0  0  0  0  0  0  0  0  0  0  0
  -21.7682   -5.0184   24.8751 C   0  0  0  0  0  0  0  0  0  0  0  0
  -23.6825  -10.5261   21.0492 C   0  0  0  0  0  0  0  0  0  0  0  0
  -24.1292  -13.0161   20.7200 C   0  0  0  0  0  0  0  0  0  0  0  0
  -25.2695  -31.1278   22.0134 C   0  0  0  0  0  0  0  0  0  0  0  0
  -24.8141  -24.6654   25.4646 C   0  0  0  0  0  0  0  0  0  0  0  0
  -25.4521  -29.7382   22.1482 C   0  0  0  0  0  0  0  0  0  0  0  0
  -25.9849  -24.2966   26.1424 C   0  0  0  0  0  0  0  0  0  0  0  0
  -31.8608  -18.4117   23.9501 C   0  0  0  0  0  0  0  0  0  0  0  0
  -30.6987  -16.5284   22.2515 C   0  0  0  0  0  0  0  0  0  0  0  0
  -30.4839  -18.4288   23.7278 C   0  0  0  0  0  0  0  0  0  0  0  0
  -22.0835   -8.3293   21.6812 C   0  0  0  0  0  0  0  0  0  0  0  0
  -25.8595  -22.0888   25.1326 C   0  0  0  0  0  0  0  0  0  0  0  0
  -21.8401   -6.2889   22.8214 C   0  0  0  0  0  0  0  0  0  0  0  0
  -22.9230   -4.3357   24.4931 C   0  0  0  0  0  0  0  0  0  0  0  0
  -21.2267   -5.9950   24.0392 C   0  0  0  0  0  0  0  0  0  0  0  0
  -24.5090  -11.6605   20.7233 C   0  0  0  0  0  0  0  0  0  0  0  0
  -25.2654  -13.6901   20.3443 C   0  0  0  0  0  0  0  0  0  0  0  0
  -22.8626  -13.6126   21.0290 C   0  0  0  0  0  0  0  0  0  0  0  0
  -26.1629  -27.5069   25.0063 C   0  0  0  0  0  0  0  0  0  0  0  0
  -26.4366  -27.4640   28.2383 C   0  0  0  0  0  0  0  0  0  0  0  0
  -28.2819  -19.5371   24.2344 C   0  0  0  0  0  0  0  0  0  0  0  0
  -26.6104  -25.6234   31.1069 C   0  0  0  0  0  0  0  0  0  0  0  0
  -30.7553  -14.5533   20.6888 C   0  0  0  0  0  0  0  0  0  0  0  0
  -26.0809  -32.1158   22.8134 C   0  0  0  0  0  0  0  0  0  0  0  0
  -24.2222  -26.0348   25.6562 C   0  0  0  0  0  0  0  0  0  0  0  0
  -26.7086  -25.2533   27.0532 C   0  0  0  0  0  0  0  0  0  0  0  0
  -26.7537  -31.5013   24.0382 C   0  0  0  0  0  0  0  0  0  0  0  0
  -29.6538  -11.9741   18.4953 C   0  0  0  0  0  0  0  0  0  0  0  0
  -27.4341  -30.1866   23.6701 C   0  0  0  0  0  0  0  0  0  0  0  0
  -28.1859  -11.7741   18.8791 C   0  0  0  0  0  0  0  0  0  0  0  0
  -30.5223  -12.2792   19.7144 C   0  0  0  0  0  0  0  0  0  0  0  0
  -28.5853  -13.1939   20.9313 C   0  0  0  0  0  0  0  0  0  0  0  0
  -26.4136  -29.1601   23.1638 C   0  0  1  0  0  0  0  0  0  0  0  0
  -25.2457  -27.0696   26.1132 C   0  0  1  0  0  0  0  0  0  0  0  0
  -27.6604  -12.9482   19.7281 C   0  0  2  0  0  0  0  0  0  0  0  0
  -32.5104  -19.4080   24.8546 C   0  0  0  0  0  0  0  0  0  0  0  0
  -26.8708  -25.8670   33.5909 C   0  0  0  0  0  0  0  0  0  0  0  0
  -29.4125  -28.0272   27.8687 C   0  0  0  0  0  0  0  0  0  0  0  0
  -29.7696  -27.3233   30.2446 C   0  0  0  0  0  0  0  0  0  0  0  0
  -28.3339  -29.2981   29.7331 C   0  0  0  0  0  0  0  0  0  0  0  0
  -23.9840  -24.3606   31.6228 C   0  0  0  0  0  0  0  0  0  0  0  0
  -27.7891  -20.6998   25.0756 C   0  0  0  0  0  0  0  0  0  1  0  0
  -27.4775  -26.9760   29.2166 C   0  0  1  0  0  0  0  0  0  0  0  0
  -25.8882  -25.7580   32.4353 C   0  0  2  0  0  0  0  0  0  0  0  0
  -28.7360  -27.8885   29.2471 C   0  0  0  0  0  0  0  0  0  0  0  0
  -25.7866  -11.4822   20.3769 N   0  0  0  0  0  0  0  0  0  0  0  0
  -26.2194  -12.7345   20.1525 N   0  0  0  0  0  0  0  0  0  0  0  0
  -26.0938  -26.5826   27.2031 N   0  0  0  0  0  0  0  0  0  0  0  0
  -29.9657  -13.4050   20.4678 N   0  0  0  0  0  0  0  0  0  0  0  0
  -25.5314  -15.0010   20.1625 N   0  0  0  0  0  0  0  0  0  0  0  0
  -21.8013  -12.7744   21.3971 N   0  0  0  0  0  0  0  0  0  0  0  0
  -29.6599  -19.3933   24.3548 N   0  0  0  0  0  0  0  0  0  0  0  0
  -30.1089  -15.5715   21.3887 N   0  0  0  0  0  0  0  0  0  0  0  0
  -25.6891  -28.5781   24.2732 N   0  0  0  0  0  0  0  0  0  0  0  0
  -26.8008  -26.8482   30.5028 N   0  0  0  0  0  0  0  0  0  0  0  0
  -25.0140  -24.5744   32.6718 N   0  3  0  0  0  0  0  0  0  0  0  0
  -22.6729  -14.8509   20.9644 O   0  0  0  0  0  0  0  0  0  0  0  0
  -27.2227  -26.9171   24.8313 O   0  0  0  0  0  0  0  0  0  0  0  0
  -25.9404  -28.5829   28.3911 O   0  0  0  0  0  0  0  0  0  0  0  0
  -27.5120  -18.8583   23.5627 O   0  0  0  0  0  0  0  0  0  0  0  0
  -26.9730  -24.5406   30.6525 O   0  0  0  0  0  0  0  0  0  0  0  0
  -31.9101  -14.6385   20.2631 O   0  0  0  0  0  0  0  0  0  0  0  0
  -21.3033   -7.2576   21.9900 O   0  0  0  0  0  0  0  0  0  0  0  0
  -26.3728  -20.8390   24.9701 O   0  0  0  0  0  0  0  0  0  1  0  0
  -23.4423   -3.3968   25.2950 F   0  0  0  0  0  0  0  0  0  0  0  0
  -20.1164   -6.6468   24.4110 F   0  0  0  0  0  0  0  0  0  0  0  0
  1  2  1  0  0  0  0
  1  5  2  0  0  0  0
  2  6  2  0  0  0  0
  3 10  2  0  0  0  0
  3 18  1  0  0  0  0
  4 11  1  0  0  0  0
  4 18  2  0  0  0  0
  5 20  1  0  0  0  0
  6 22  1  0  0  0  0
  7 12  2  0  0  0  0
  7 21  1  0  0  0  0
  8  9  2  0  0  0  0
  8 24  1  0  0  0  0
  9 25  1  0  0  0  0
 10 27  1  0  0  0  0
 11 27  2  0  0  0  0
 12 28  1  0  0  0  0
 13 14  2  0  0  0  0
 13 29  1  0  0  0  0
 14 30  1  0  0  0  0
 15 23  1  0  0  0  0
 15 28  2  0  0  0  0
 16 25  2  0  0  0  0
 16 26  1  0  0  0  0
 17 30  2  0  0  0  0
 17 31  1  0  0  0  0
 18 32  1  0  0  0  0
 19 32  1  0  0  0  0
 19 33  2  0  0  0  0
 19 34  1  0  0  0  0
 20 22  2  0  0  0  0
 20 40  1  0  0  0  0
 21 23  2  0  0  0  0
 21 41  1  0  0  0  0
 22 49  1  0  0  0  0
 23 42  1  0  0  0  0
 24 26  2  0  0  0  0
 24 52  1  0  0  0  0
 25 69  1  0  0  0  0
 26 68  1  0  0  0  0
 27 79  1  0  0  0  0
 28 80  1  0  0  0  0
 29 31  2  0  0  0  0
 29 79  1  0  0  0  0
 30 81  1  0  0  0  0
 31 82  1  0  0  0  0
 32 62  2  0  0  0  0
 33 63  1  0  0  0  0
 33 66  1  0  0  0  0
 34 67  1  0  0  0  0
 34 73  2  0  0  0  0
 35 50  1  0  0  0  0
 35 70  1  0  0  0  0
 35 74  2  0  0  0  0
 36 59  1  0  0  0  0
 36 64  1  0  0  0  0
 36 75  2  0  0  0  0
 37 58  1  0  0  0  0
 37 68  1  0  0  0  0
 37 76  2  0  0  0  0
 38 60  1  0  0  0  0
 38 71  1  0  0  0  0
 38 77  2  0  0  0  0
 39 65  1  0  0  0  0
 39 69  1  0  0  0  0
 39 78  2  0  0  0  0
 40 43  1  0  0  0  0
 41 50  1  0  0  0  0
 42 64  1  0  0  0  0
 43 45  1  0  0  0  0
 44 46  1  0  0  0  0
 44 47  1  0  0  0  0
 45 49  1  0  0  0  0
 46 51  1  0  0  0  0
 47 65  1  0  0  0  0
 48 51  1  0  0  0  0
 48 65  1  0  0  0  0
 49 70  1  0  0  0  0
 50 64  1  0  0  0  0
 51 63  1  0  0  0  0
 53 60  1  0  0  0  0
 54 61  1  0  0  0  0
 55 61  1  0  0  0  0
 56 61  1  0  0  0  0
 57 72  1  0  0  0  0
 58 80  1  0  0  0  0
 59 61  1  0  0  0  0
 59 71  1  0  0  0  0
 60 72  1  0  0  0  0
 62 63  1  0  0  0  0
M  CHG  1  72   1
M  ISO  4  39 100  58 101  69 100  80 101
M  END
> <Batch ID>
0010

> <Smiles>
CNC(C)C(=O)NC(C(=O)N1Cc2cc([101O:1][101CH2:1]C(=O)Nc3cc([100NH:0][100C:0](=O)N4CCCC(n5nc(-c6ccc(Oc7ccc(F)cc7F)cc6)c(C(N)=O)c5N)C4)ccc3C)ccc2CC1C(=O)NC1CCCc2ccccc21)C(C)(C)C

> <Shape>
0.240

> <Color>
0.214

> <Negative vol penalty>
0.000

$$$$

  -OEChem-04052315413D

 84 92  0     1  0  0  0  0  0999 V2000
  -21.6026  -12.2784   19.7758 C   0  0  0  0  0  0  0  0  0  0  0  0
  -21.5058  -13.5260   20.3837 C   0  0  0  0  0  0  0  0  0  0  0  0
  -25.1118  -26.8671   19.3225 C   0  0  0  0  0  0  0  0  0  0  0  0
  -25.5810  -24.9830   20.7603 C   0  0  0  0  0  0  0  0  0  0  0  0
  -22.8428  -11.6505   19.6692 C   0  0  0  0  0  0  0  0  0  0  0  0
  -22.6493  -14.1460   20.8862 C   0  0  0  0  0  0  0  0  0  0  0  0
  -22.8952  -19.0539   19.6625 C   0  0  0  0  0  0  0  0  0  0  0  0
  -26.4703  -27.1817   19.2914 C   0  0  0  0  0  0  0  0  0  0  0  0
  -26.9396  -25.2976   20.7291 C   0  0  0  0  0  0  0  0  0  0  0  0
  -22.1032  -19.9341   20.3986 C   0  0  0  0  0  0  0  0  0  0  0  0
  -29.7739  -28.6925   19.1257 C   0  0  0  0  0  0  0  0  0  0  0  0
  -30.1355  -30.0294   19.2918 C   0  0  0  0  0  0  0  0  0  0  0  0
  -24.0250  -20.5477   21.7212 C   0  0  0  0  0  0  0  0  0  0  0  0
  -18.2626  -23.9003   27.2604 C   0  0  0  0  0  0  0  0  0  0  0  0
  -19.9077  -21.6843   27.6673 C   0  0  0  0  0  0  0  0  0  0  0  0
  -29.0847  -30.0433   21.4674 C   0  0  0  0  0  0  0  0  0  0  0  0
  -24.6671  -25.7678   20.0571 C   0  0  0  0  0  0  0  0  0  0  0  0
  -22.5665  -24.5955   19.2080 C   0  0  0  0  0  0  0  0  0  0  0  0
  -24.0035  -12.2674   20.1620 C   0  0  0  0  0  0  0  0  0  0  0  0
  -24.2580  -18.9057   19.9579 C   0  0  0  0  0  0  0  0  0  0  0  0
  -23.9060  -13.5252   20.7873 C   0  0  0  0  0  0  0  0  0  0  0  0
  -24.8326  -19.6669   20.9857 C   0  0  0  0  0  0  0  0  0  0  0  0
  -19.3373  -23.6628   26.4035 C   0  0  0  0  0  0  0  0  0  0  0  0
  -20.1599  -22.5548   26.6070 C   0  0  0  0  0  0  0  0  0  0  0  0
  -27.3842  -26.3970   19.9947 C   0  0  0  0  0  0  0  0  0  0  0  0
  -22.6674  -20.6790   21.4300 C   0  0  0  0  0  0  0  0  0  0  0  0
  -29.0676  -28.0310   20.1304 C   0  0  0  0  0  0  0  0  0  0  0  0
  -29.7910  -30.7048   20.4627 C   0  0  0  0  0  0  0  0  0  0  0  0
  -18.0105  -23.0298   28.3208 C   0  0  0  0  0  0  0  0  0  0  0  0
  -18.8330  -21.9218   28.5242 C   0  0  0  0  0  0  0  0  0  0  0  0
  -28.7231  -28.7064   21.3012 C   0  0  0  0  0  0  0  0  0  0  0  0
  -23.2638  -25.4426   20.0901 C   0  0  0  0  0  0  0  0  0  0  0  0
  -21.2706  -24.6185   19.6625 C   0  0  0  0  0  0  0  0  0  0  0  0
  -23.0472  -23.8542   18.0789 C   0  0  0  0  0  0  0  0  0  0  0  0
  -26.0941  -16.4993   20.9283 C   0  0  0  0  0  0  0  0  0  0  0  0
  -28.4812  -18.6457   20.4625 C   0  0  0  0  0  0  0  0  0  0  0  0
  -21.0447  -22.0769   24.3570 C   0  0  0  0  0  0  0  0  0  0  0  0
  -29.4382  -21.9150   20.2563 C   0  0  0  0  0  0  0  0  0  0  0  0
  -18.8393  -25.7029   25.0121 C   0  0  0  0  0  0  0  0  0  0  0  0
  -25.3149  -11.5287   20.0661 C   0  0  0  0  0  0  0  0  0  0  0  0
  -25.1045  -17.9718   19.1371 C   0  0  0  0  0  0  0  0  0  0  0  0
  -26.2951  -19.5595   21.3294 C   0  0  0  0  0  0  0  0  0  0  0  0
  -26.5339  -12.4201   20.2891 C   0  0  0  0  0  0  0  0  0  0  0  0
  -18.1626  -27.4339   21.9751 C   0  0  0  0  0  0  0  0  0  0  0  0
  -26.3294  -13.3078   21.5126 C   0  0  0  0  0  0  0  0  0  0  0  0
  -19.3273  -27.0378   21.0648 C   0  0  0  0  0  0  0  0  0  0  0  0
  -18.6090  -27.6023   23.4264 C   0  0  0  0  0  0  0  0  0  0  0  0
  -20.4986  -26.0602   23.0795 C   0  0  0  0  0  0  0  0  0  0  0  0
  -25.1273  -14.2408   21.3225 C   0  0  1  0  0  0  0  0  0  0  0  0
  -26.3693  -17.5200   19.8606 C   0  0  1  0  0  0  0  0  0  0  0  0
  -20.0853  -25.8156   21.6191 C   0  0  2  0  0  0  0  0  0  0  0  0
  -31.4619  -23.3568   19.9044 C   0  0  0  0  0  0  0  0  0  0  0  0
  -29.3783  -18.0805   23.3235 C   0  0  0  0  0  0  0  0  0  0  0  0
  -30.7492  -20.1735   23.2332 C   0  0  0  0  0  0  0  0  0  0  0  0
  -31.2414  -18.2938   21.6689 C   0  0  0  0  0  0  0  0  0  0  0  0
  -22.6379  -22.2420   26.3040 C   0  0  0  0  0  0  0  0  0  0  0  0
  -28.2982  -23.1180   17.8043 C   0  0  0  0  0  0  0  0  0  0  0  0
  -22.2690  -21.7614   23.5098 C   0  0  0  0  0  0  0  0  0  1  0  0
  -29.1626  -19.6886   21.3152 C   0  0  1  0  0  0  0  0  0  0  0  0
  -30.2894  -22.6532   19.2388 C   0  0  2  0  0  0  0  0  0  0  0  0
  -30.1049  -19.0599   22.3803 C   0  0  0  0  0  0  0  0  0  0  0  0
  -22.4761  -25.9657   21.0334 N   0  0  0  0  0  0  0  0  0  0  0  0
  -21.2704  -25.4460   20.7467 N   0  0  0  0  0  0  0  0  0  0  0  0
  -27.0798  -18.6281   20.5022 N   0  0  0  0  0  0  0  0  0  0  0  0
  -19.3160  -26.4043   23.8844 N   0  0  0  0  0  0  0  0  0  0  0  0
  -20.1426  -24.0115   19.2364 N   0  0  0  0  0  0  0  0  0  0  0  0
  -24.4069  -23.9434   17.7508 N   0  0  0  0  0  0  0  0  0  0  0  0
  -19.5733  -24.5618   25.3340 N   0  0  0  0  0  0  0  0  0  0  0  0
  -25.4803  -15.3515   20.4644 N   0  0  0  0  0  0  0  0  0  0  0  0
  -29.8292  -20.5996   20.3910 N   0  0  0  0  0  0  0  0  0  0  0  0
  -21.2833  -22.2869   25.7320 N   0  0  0  0  0  0  0  0  0  0  0  0
  -29.4729  -23.6744   18.5238 N   0  3  0  0  0  0  0  0  0  0  0  0
  -22.2901  -23.1469   17.3717 O   0  0  0  0  0  0  0  0  0  0  0  0
  -26.4162  -16.7350   22.0869 O   0  0  0  0  0  0  0  0  0  0  0  0
  -29.1668  -17.8798   19.7807 O   0  0  0  0  0  0  0  0  0  0  0  0
  -19.9373  -22.1008   23.8140 O   0  0  0  0  0  0  0  0  0  0  0  0
  -28.5209  -22.4526   20.8728 O   0  0  0  0  0  0  0  0  0  0  0  0
  -17.8365  -26.0711   25.6292 O   0  0  0  0  0  0  0  0  0  0  0  0
  -28.7100  -26.7036   19.9643 O   0  0  0  0  0  0  0  0  0  0  0  0
  -21.8965  -21.5384   22.1504 O   0  0  0  0  0  0  0  0  0  1  0  0
  -30.1397  -31.9881   20.6227 F   0  0  0  0  0  0  0  0  0  0  0  0
  -16.9787  -23.2573   29.1441 F   0  0  0  0  0  0  0  0  0  0  0  0
  -18.5917  -21.0873   29.5437 F   0  0  0  0  0  0  0  0  0  0  0  0
  -28.0456  -28.0759   22.2704 F   0  0  0  0  0  0  0  0  0  0  0  0
  1  2  1  0  0  0  0
  1  5  2  0  0  0  0
  2  6  2  0  0  0  0
  3  8  2  0  0  0  0
  3 17  1  0  0  0  0
  4  9  1  0  0  0  0
  4 17  2  0  0  0  0
  5 19  1  0  0  0  0
  6 21  1  0  0  0  0
  7 10  2  0  0  0  0
  7 20  1  0  0  0  0
  8 25  1  0  0  0  0
  9 25  2  0  0  0  0
 10 26  1  0  0  0  0
 11 12  2  0  0  0  0
 11 27  1  0  0  0  0
 12 28  1  0  0  0  0
 13 22  1  0  0  0  0
 13 26  2  0  0  0  0
 14 23  1  0  0  0  0
 14 29  2  0  0  0  0
 15 24  1  0  0  0  0
 15 30  2  0  0  0  0
 16 28  2  0  0  0  0
 16 31  1  0  0  0  0
 17 32  1  0  0  0  0
 18 32  1  0  0  0  0
 18 33  2  0  0  0  0
 18 34  1  0  0  0  0
 19 21  2  0  0  0  0
 19 40  1  0  0  0  0
 20 22  2  0  0  0  0
 20 41  1  0  0  0  0
 21 49  1  0  0  0  0
 22 42  1  0  0  0  0
 23 24  2  0  0  0  0
 23 68  1  0  0  0  0
 24 71  1  0  0  0  0
 25 79  1  0  0  0  0
 26 80  1  0  0  0  0
 27 31  2  0  0  0  0
 27 79  1  0  0  0  0
 28 81  1  0  0  0  0
 29 30  1  0  0  0  0
 29 82  1  0  0  0  0
 30 83  1  0  0  0  0
 31 84  1  0  0  0  0
 32 62  2  0  0  0  0
 33 63  1  0  0  0  0
 33 66  1  0  0  0  0
 34 67  1  0  0  0  0
 34 73  2  0  0  0  0
 35 50  1  0  0  0  0
 35 69  1  0  0  0  0
 35 74  2  0  0  0  0
 36 59  1  0  0  0  0
 36 64  1  0  0  0  0
 36 75  2  0  0  0  0
 37 58  1  0  0  0  0
 37 71  1  0  0  0  0
 37 76  2  0  0  0  0
 38 60  1  0  0  0  0
 38 70  1  0  0  0  0
 38 77  2  0  0  0  0
 39 65  1  0  0  0  0
 39 68  1  0  0  0  0
 39 78  2  0  0  0  0
 40 43  1  0  0  0  0
 41 50  1  0  0  0  0
 42 64  1  0  0  0  0
 43 45  1  0  0  0  0
 44 46  1  0  0  0  0
 44 47  1  0  0  0  0
 45 49  1  0  0  0  0
 46 51  1  0  0  0  0
 47 65  1  0  0  0  0
 48 51  1  0  0  0  0
 48 65  1  0  0  0  0
 49 69  1  0  0  0  0
 50 64  1  0  0  0  0
 51 63  1  0  0  0  0
 52 60  1  0  0  0  0
 53 61  1  0  0  0  0
 54 61  1  0  0  0  0
 55 61  1  0  0  0  0
 56 71  1  0  0  0  0
 57 72  1  0  0  0  0
 58 80  1  0  0  0  0
 59 61  1  0  0  0  0
 59 70  1  0  0  0  0
 60 72  1  0  0  0  0
 62 63  1  0  0  0  0
M  CHG  1  72   1
M  ISO  4  39 100  58 101  68 100  80 101
M  END
> <Batch ID>
0010

> <Smiles>
CNC(C)C(=O)NC(C(=O)N1Cc2cc([101O:1][101CH2:1]C(=O)N(C)c3cc(F)c(F)cc3[100NH:0][100C:0](=O)N3CCCC(n4nc(-c5ccc(Oc6ccc(F)cc6F)cc5)c(C(N)=O)c4N)C3)ccc2CC1C(=O)NC1CCCc2ccccc21)C(C)(C)C

> <Shape>
0.182

> <Color>
0.068

> <Negative vol penalty>
0.000

$$$$

  -OEChem-04052315413D

 83 91  0     1  0  0  0  0  0999 V2000
  -28.2676  -22.7042   18.6107 C   0  0  0  0  0  0  0  0  0  0  0  0
  -27.1220  -23.0990   19.2942 C   0  0  0  0  0  0  0  0  0  0  0  0
  -27.5350  -14.4862   21.2538 C   0  0  0  0  0  0  0  0  0  0  0  0
  -25.4561  -15.3424   20.3694 C   0  0  0  0  0  0  0  0  0  0  0  0
  -29.4935  -23.2995   18.9053 C   0  0  0  0  0  0  0  0  0  0  0  0
  -27.2018  -24.0885   20.2734 C   0  0  0  0  0  0  0  0  0  0  0  0
  -23.4776  -27.4993   19.8968 C   0  0  0  0  0  0  0  0  0  0  0  0
  -27.0779  -13.1819   21.0656 C   0  0  0  0  0  0  0  0  0  0  0  0
  -24.9991  -14.0380   20.1811 C   0  0  0  0  0  0  0  0  0  0  0  0
  -22.2242  -27.1297   20.3827 C   0  0  0  0  0  0  0  0  0  0  0  0
  -26.7510  -11.0028   18.5010 C   0  0  0  0  0  0  0  0  0  0  0  0
  -27.6301  -10.0844   17.9271 C   0  0  0  0  0  0  0  0  0  0  0  0
  -22.6515  -28.3671   22.4089 C   0  0  0  0  0  0  0  0  0  0  0  0
  -22.1790  -22.4394   23.1838 C   0  0  0  0  0  0  0  0  0  0  0  0
  -22.9418  -23.5683   25.1789 C   0  0  0  0  0  0  0  0  0  0  0  0
  -27.4811   -8.7057   19.9056 C   0  0  0  0  0  0  0  0  0  0  0  0
  -26.7241  -15.5665   20.9058 C   0  0  0  0  0  0  0  0  0  0  0  0
  -27.9116  -17.7052   20.1824 C   0  0  0  0  0  0  0  0  0  0  0  0
  -29.5867  -24.3036   19.8818 C   0  0  0  0  0  0  0  0  0  0  0  0
  -24.3332  -28.2979   20.6692 C   0  0  0  0  0  0  0  0  0  0  0  0
  -28.4304  -24.6968   20.5822 C   0  0  0  0  0  0  0  0  0  0  0  0
  -23.9143  -28.7475   21.9295 C   0  0  0  0  0  0  0  0  0  0  0  0
  -23.1031  -22.5675   24.2207 C   0  0  0  0  0  0  0  0  0  0  0  0
  -20.9324  -24.3129   24.0632 C   0  0  0  0  0  0  0  0  0  0  0  0
  -25.8100  -12.9578   20.5292 C   0  0  0  0  0  0  0  0  0  0  0  0
  -21.8121  -27.5612   21.6402 C   0  0  0  0  0  0  0  0  0  0  0  0
  -26.2370  -10.7728   19.7772 C   0  0  0  0  0  0  0  0  0  0  0  0
  -27.9951   -8.9358   18.6294 C   0  0  0  0  0  0  0  0  0  0  0  0
  -21.0936  -23.3121   23.1050 C   0  0  0  0  0  0  0  0  0  0  0  0
  -21.8565  -24.4410   25.1002 C   0  0  0  0  0  0  0  0  0  0  0  0
  -26.6021   -9.6242   20.4795 C   0  0  0  0  0  0  0  0  0  0  0  0
  -27.1954  -16.9141   21.1005 C   0  0  0  0  0  0  0  0  0  0  0  0
  -28.1194  -18.8924   20.8410 C   0  0  0  0  0  0  0  0  0  0  0  0
  -28.3498  -17.3947   18.8530 C   0  0  0  0  0  0  0  0  0  0  0  0
  -27.2204  -27.9125   21.9417 C   0  0  0  0  0  0  0  0  0  0  0  0
  -26.8708  -31.0438   22.7133 C   0  0  0  0  0  0  0  0  0  0  0  0
  -24.7658  -33.6599   23.3230 C   0  0  0  0  0  0  0  0  0  0  0  0
  -25.2144  -21.6708   25.2622 C   0  0  0  0  0  0  0  0  0  0  0  0
  -30.9421  -24.8845   20.1987 C   0  0  0  0  0  0  0  0  0  0  0  0
  -25.6713  -28.7100   20.1195 C   0  0  0  0  0  0  0  0  0  0  0  0
  -24.7871  -29.6233   22.7895 C   0  0  0  0  0  0  0  0  0  0  0  0
  -30.8760  -26.1900   20.9870 C   0  0  0  0  0  0  0  0  0  0  0  0
  -28.6365  -20.6881   25.2504 C   0  0  0  0  0  0  0  0  0  0  0  0
  -29.8904  -26.0653   22.1446 C   0  0  0  0  0  0  0  0  0  0  0  0
  -28.7218  -19.6854   24.0974 C   0  0  0  0  0  0  0  0  0  0  0  0
  -27.3146  -20.5712   26.0071 C   0  0  0  0  0  0  0  0  0  0  0  0
  -26.1962  -19.6459   24.0166 C   0  0  0  0  0  0  0  0  0  0  0  0
  -28.4721  -25.7843   21.6337 C   0  0  1  0  0  0  0  0  0  0  0  0
  -26.6688  -29.1007   21.2057 C   0  0  1  0  0  0  0  0  0  0  0  0
  -27.4829  -19.7697   23.1844 C   0  0  2  0  0  0  0  0  0  0  0  0
  -24.7729  -36.0854   23.9666 C   0  0  0  0  0  0  0  0  0  0  0  0
  -27.4999  -30.2740   25.5981 C   0  0  0  0  0  0  0  0  0  0  0  0
  -26.5754  -32.4869   26.3168 C   0  0  0  0  0  0  0  0  0  0  0  0
  -28.5741  -32.3966   24.8269 C   0  0  0  0  0  0  0  0  0  0  0  0
  -19.4118  -25.9346   25.1667 C   0  0  0  0  0  0  0  0  0  0  0  0
  -23.4302  -34.4519   20.8035 C   0  0  0  0  0  0  0  0  0  0  0  0
  -19.1299  -25.3934   22.7426 C   0  0  0  0  0  0  0  0  0  0  0  0
  -20.0655  -25.9476   21.6813 C   0  0  0  0  0  0  0  0  0  1  0  0
  -26.3029  -31.7975   23.8916 C   0  0  1  0  0  0  0  0  0  0  0  0
  -24.7643  -35.0908   22.8161 C   0  0  2  0  0  0  0  0  0  0  0  0
  -27.2222  -31.7206   25.1432 C   0  0  0  0  0  0  0  0  0  0  0  0
  -26.9639  -17.5455   22.2546 N   0  0  0  0  0  0  0  0  0  0  0  0
  -27.5379  -18.7459   22.0660 N   0  0  0  0  0  0  0  0  0  0  0  0
  -26.0890  -29.9940   22.2107 N   0  0  0  0  0  0  0  0  0  0  0  0
  -26.1859  -20.6642   25.0785 N   0  0  0  0  0  0  0  0  0  0  0  0
  -28.7410  -20.0370   20.4860 N   0  0  0  0  0  0  0  0  0  0  0  0
  -28.0520  -16.1290   18.3299 N   0  0  0  0  0  0  0  0  0  0  0  0
  -24.2061  -21.6816   24.2989 N   0  0  0  0  0  0  0  0  0  0  0  0
  -27.8662  -26.9986   21.1310 N   0  0  0  0  0  0  0  0  0  0  0  0
  -26.0448  -33.1545   23.4222 N   0  0  0  0  0  0  0  0  0  0  0  0
  -19.8427  -25.1901   23.9831 N   0  0  3  0  0  0  0  0  0  0  0  0
  -23.5539  -35.3445   21.9846 N   0  3  0  0  0  0  0  0  0  0  0  0
  -29.0009  -18.2094   18.1560 O   0  0  0  0  0  0  0  0  0  0  0  0
  -27.0725  -27.8317   23.1555 O   0  0  0  0  0  0  0  0  0  0  0  0
  -27.9644  -31.3788   22.2514 O   0  0  0  0  0  0  0  0  0  0  0  0
  -23.7356  -33.0525   23.6063 O   0  0  0  0  0  0  0  0  0  0  0  0
  -25.2874  -22.4818   26.1889 O   0  0  0  0  0  0  0  0  0  0  0  0
  -25.3638  -11.6852   20.3452 O   0  0  0  0  0  0  0  0  0  0  0  0
  -20.5895  -27.2014   22.1171 O   0  0  0  0  0  0  0  0  0  1  0  0
  -28.8381   -8.0531   18.0776 F   0  0  0  0  0  0  0  0  0  0  0  0
  -20.2117  -23.1807   22.1040 F   0  0  0  0  0  0  0  0  0  0  0  0
  -21.7118  -25.4001   26.0256 F   0  0  0  0  0  0  0  0  0  0  0  0
  -26.1107   -9.3972   21.7053 F   0  0  0  0  0  0  0  0  0  0  0  0
  1  2  1  0  0  0  0
  1  5  2  0  0  0  0
  2  6  2  0  0  0  0
  3  8  2  0  0  0  0
  3 17  1  0  0  0  0
  4  9  1  0  0  0  0
  4 17  2  0  0  0  0
  5 19  1  0  0  0  0
  6 21  1  0  0  0  0
  7 10  2  0  0  0  0
  7 20  1  0  0  0  0
  8 25  1  0  0  0  0
  9 25  2  0  0  0  0
 10 26  1  0  0  0  0
 11 12  2  0  0  0  0
 11 27  1  0  0  0  0
 12 28  1  0  0  0  0
 13 22  1  0  0  0  0
 13 26  2  0  0  0  0
 14 23  1  0  0  0  0
 14 29  2  0  0  0  0
 15 23  2  0  0  0  0
 15 30  1  0  0  0  0
 16 28  2  0  0  0  0
 16 31  1  0  0  0  0
 17 32  1  0  0  0  0
 18 32  1  0  0  0  0
 18 33  2  0  0  0  0
 18 34  1  0  0  0  0
 19 21  2  0  0  0  0
 19 39  1  0  0  0  0
 20 22  2  0  0  0  0
 20 40  1  0  0  0  0
 21 48  1  0  0  0  0
 22 41  1  0  0  0  0
 23 68  1  0  0  0  0
 24 29  1  0  0  0  0
 24 30  2  0  0  0  0
 24 71  1  0  0  0  0
 25 78  1  0  0  0  0
 26 79  1  0  0  0  0
 27 31  2  0  0  0  0
 27 78  1  0  0  0  0
 28 80  1  0  0  0  0
 29 81  1  0  0  0  0
 30 82  1  0  0  0  0
 31 83  1  0  0  0  0
 32 62  2  0  0  0  0
 33 63  1  0  0  0  0
 33 66  1  0  0  0  0
 34 67  1  0  0  0  0
 34 73  2  0  0  0  0
 35 49  1  0  0  0  0
 35 69  1  0  0  0  0
 35 74  2  0  0  0  0
 36 59  1  0  0  0  0
 36 64  1  0  0  0  0
 36 75  2  0  0  0  0
 37 60  1  0  0  0  0
 37 70  1  0  0  0  0
 37 76  2  0  0  0  0
 38 65  1  0  0  0  0
 38 68  1  0  0  0  0
 38 77  2  0  0  0  0
 39 42  1  0  0  0  0
 40 49  1  0  0  0  0
 41 64  1  0  0  0  0
 42 44  1  0  0  0  0
 43 45  1  0  0  0  0
 43 46  1  0  0  0  0
 44 48  1  0  0  0  0
 45 50  1  0  0  0  0
 46 65  1  0  0  0  0
 47 50  1  0  0  0  0
 47 65  1  0  0  0  0
 48 69  1  0  0  0  0
 49 64  1  0  0  0  0
 50 63  1  0  0  0  0
 51 60  1  0  0  0  0
 52 61  1  0  0  0  0
 53 61  1  0  0  0  0
 54 61  1  0  0  0  0
 55 71  1  0  0  0  0
 56 72  1  0  0  0  0
 57 58  1  0  0  0  0
 57 71  1  0  0  0  0
 58 79  1  0  0  0  0
 59 61  1  0  0  0  0
 59 70  1  0  0  0  0
 60 72  1  0  0  0  0
 62 63  1  0  0  0  0
M  CHG  1  72   1
M  ISO  4  38 100  58 101  68 100  79 101
M  END
> <Batch ID>
0010

> <Smiles>
CNC(C)C(=O)NC(C(=O)N1Cc2cc([101O:1][101CH2:1]CN(C)c3c(F)cc([100NH:0][100C:0](=O)N4CCCC(n5nc(-c6ccc(Oc7ccc(F)cc7F)cc6)c(C(N)=O)c5N)C4)cc3F)ccc2CC1C(=O)NC1CCCc2ccccc21)C(C)(C)C

> <Shape>
0.241

> <Color>
0.049

> <Negative vol penalty>
0.000

$$$$

  -OEChem-04052315413D

 83 91  0     1  0  0  0  0  0999 V2000
  -29.6900  -36.0011   20.5863 C   0  0  0  0  0  0  0  0  0  0  0  0
  -29.7307  -34.6107   20.6036 C   0  0  0  0  0  0  0  0  0  0  0  0
  -26.4308  -12.7552   21.4585 C   0  0  0  0  0  0  0  0  0  0  0  0
  -26.3397  -13.2889   19.1040 C   0  0  0  0  0  0  0  0  0  0  0  0
  -28.7690  -36.6804   21.3827 C   0  0  0  0  0  0  0  0  0  0  0  0
  -28.8510  -33.8987   21.4183 C   0  0  0  0  0  0  0  0  0  0  0  0
  -26.7524  -29.9560   19.0316 C   0  0  0  0  0  0  0  0  0  0  0  0
  -25.1597  -12.1865   21.3788 C   0  0  0  0  0  0  0  0  0  0  0  0
  -25.0686  -12.7201   19.0243 C   0  0  0  0  0  0  0  0  0  0  0  0
  -27.5335  -28.8104   18.8862 C   0  0  0  0  0  0  0  0  0  0  0  0
  -22.0885  -10.2711   21.7164 C   0  0  0  0  0  0  0  0  0  0  0  0
  -21.8881   -9.0408   22.3424 C   0  0  0  0  0  0  0  0  0  0  0  0
  -26.3984  -27.8055   20.7626 C   0  0  0  0  0  0  0  0  0  0  0  0
  -29.5129  -20.1788   16.1686 C   0  0  0  0  0  0  0  0  0  0  0  0
  -29.0392  -22.4013   15.3486 C   0  0  0  0  0  0  0  0  0  0  0  0
  -29.6081  -22.0671   17.6727 C   0  0  0  0  0  0  0  0  0  0  0  0
  -23.5909   -8.0513   20.9429 C   0  0  0  0  0  0  0  0  0  0  0  0
  -27.0208  -13.3065   20.3211 C   0  0  0  0  0  0  0  0  0  0  0  0
  -29.5686  -13.2478   20.2082 C   0  0  0  0  0  0  0  0  0  0  0  0
  -27.8711  -35.9761   22.2003 C   0  0  0  0  0  0  0  0  0  0  0  0
  -25.7943  -30.0394   20.0521 C   0  0  0  0  0  0  0  0  0  0  0  0
  -27.9180  -34.5692   22.2274 C   0  0  0  0  0  0  0  0  0  0  0  0
  -25.6046  -28.9523   20.9172 C   0  0  0  0  0  0  0  0  0  0  0  0
  -29.1653  -21.0310   15.1206 C   0  0  0  0  0  0  0  0  0  0  0  0
  -29.7342  -20.6968   17.4447 C   0  0  0  0  0  0  0  0  0  0  0  0
  -29.2605  -22.9194   16.6246 C   0  0  0  0  0  0  0  0  0  0  0  0
  -24.4786  -12.1689   20.1617 C   0  0  0  0  0  0  0  0  0  0  0  0
  -27.3586  -27.7361   19.7535 C   0  0  0  0  0  0  0  0  0  0  0  0
  -23.0400  -10.3914   20.7036 C   0  0  0  0  0  0  0  0  0  0  0  0
  -22.6393   -7.9310   21.9557 C   0  0  0  0  0  0  0  0  0  0  0  0
  -23.7912   -9.2816   20.3169 C   0  0  0  0  0  0  0  0  0  0  0  0
  -28.3336  -13.8948   20.4029 C   0  0  0  0  0  0  0  0  0  0  0  0
  -30.5061  -14.2342   20.3947 C   0  0  0  0  0  0  0  0  0  0  0  0
  -29.8439  -11.8777   19.8875 C   0  0  0  0  0  0  0  0  0  0  0  0
  -25.3652  -31.9210   22.5778 C   0  0  0  0  0  0  0  0  0  0  0  0
  -22.5750  -30.2863   22.8330 C   0  0  0  0  0  0  0  0  0  0  0  0
  -28.7208  -24.7887   18.1373 C   0  0  0  0  0  0  0  0  0  0  0  0
  -20.8061  -27.4494   22.1476 C   0  0  0  0  0  0  0  0  0  0  0  0
  -30.3413  -20.1810   19.8347 C   0  0  0  0  0  0  0  0  0  0  0  0
  -26.9253  -36.7554   23.0793 C   0  0  0  0  0  0  0  0  0  0  0  0
  -24.9412  -31.2716   20.1790 C   0  0  0  0  0  0  0  0  0  0  0  0
  -24.5755  -28.9837   22.0164 C   0  0  0  0  0  0  0  0  0  0  0  0
  -25.7761  -35.9162   23.6318 C   0  0  0  0  0  0  0  0  0  0  0  0
  -31.2019  -18.3405   22.7586 C   0  0  0  0  0  0  0  0  0  0  0  0
  -26.2980  -34.5927   24.1821 C   0  0  0  0  0  0  0  0  0  0  0  0
  -30.6819  -16.9312   22.4661 C   0  0  0  0  0  0  0  0  0  0  0  0
  -30.2728  -19.4157   22.1979 C   0  0  0  0  0  0  0  0  0  0  0  0
  -29.4280  -17.8647   20.4802 C   0  0  0  0  0  0  0  0  0  0  0  0
  -26.9635  -33.7608   23.0791 C   0  0  1  0  0  0  0  0  0  0  0  0
  -24.3511  -31.4488   21.5746 C   0  0  1  0  0  0  0  0  0  0  0  0
  -30.3639  -16.7473   20.9692 C   0  0  2  0  0  0  0  0  0  0  0  0
  -28.9275  -20.4764   13.7565 C   0  0  0  0  0  0  0  0  0  0  0  0
  -18.5620  -26.3894   22.5184 C   0  0  0  0  0  0  0  0  0  0  0  0
  -23.3484  -29.6638   25.7181 C   0  0  0  0  0  0  0  0  0  0  0  0
  -21.6022  -27.8697   25.7257 C   0  0  0  0  0  0  0  0  0  0  0  0
  -20.9401  -30.2508   25.3872 C   0  0  0  0  0  0  0  0  0  0  0  0
  -29.4224  -25.2787   15.7658 C   0  0  0  0  0  0  0  0  0  0  0  0
  -20.2624  -27.3104   19.2417 C   0  0  0  0  0  0  0  0  0  0  0  0
  -28.5656  -26.2941   18.2974 C   0  0  0  0  0  0  0  0  0  1  0  0
  -22.1371  -29.0212   23.5305 C   0  0  1  0  0  0  0  0  0  0  0  0
  -19.4099  -27.2433   21.5885 C   0  0  2  0  0  0  0  0  0  0  0  0
  -22.0278  -29.2012   25.0710 C   0  0  0  0  0  0  0  0  0  0  0  0
  -28.4707  -15.1917   20.6911 N   0  0  0  0  0  0  0  0  0  0  0  0
  -29.8030  -15.3677   20.6789 N   0  0  0  0  0  0  0  0  0  0  0  0
  -23.7703  -30.2132   22.1038 N   0  0  0  0  0  0  0  0  0  0  0  0
  -30.0198  -19.1792   20.7748 N   0  0  0  0  0  0  0  0  0  0  0  0
  -31.8550  -14.2337   20.3416 N   0  0  0  0  0  0  0  0  0  0  0  0
  -28.7639  -10.9983   19.7307 N   0  0  0  0  0  0  0  0  0  0  0  0
  -30.0871  -19.8305   18.5091 N   0  0  0  0  0  0  0  0  0  0  0  0
  -25.9611  -33.1243   22.2517 N   0  0  0  0  0  0  0  0  0  0  0  0
  -20.8939  -28.6097   22.8873 N   0  0  0  0  0  0  0  0  0  0  0  0
  -29.1281  -24.3427   16.8618 N   0  0  0  0  0  0  0  0  0  0  0  0
  -19.4776  -26.5682   20.2617 N   0  3  0  0  0  0  0  0  0  0  0  0
  -31.0135  -11.4425   19.7603 O   0  0  0  0  0  0  0  0  0  0  0  0
  -25.5892  -31.2444   23.5747 O   0  0  0  0  0  0  0  0  0  0  0  0
  -21.8784  -31.3001   22.9256 O   0  0  0  0  0  0  0  0  0  0  0  0
  -28.4592  -24.0596   19.0973 O   0  0  0  0  0  0  0  0  0  0  0  0
  -21.7258  -26.6582   21.9511 O   0  0  0  0  0  0  0  0  0  0  0  0
  -30.8331  -21.2591   20.1777 O   0  0  0  0  0  0  0  0  0  0  0  0
  -23.2383  -11.6137   20.0835 O   0  0  0  0  0  0  0  0  0  0  0  0
  -28.1202  -26.6169   19.6142 O   0  0  0  0  0  0  0  0  0  1  0  0
  -22.4479   -6.7500   22.5581 F   0  0  0  0  0  0  0  0  0  0  0  0
  -24.7076   -9.3913   19.3453 F   0  0  0  0  0  0  0  0  0  0  0  0
  1  2  1  0  0  0  0
  1  5  2  0  0  0  0
  2  6  2  0  0  0  0
  3  8  2  0  0  0  0
  3 18  1  0  0  0  0
  4  9  1  0  0  0  0
  4 18  2  0  0  0  0
  5 20  1  0  0  0  0
  6 22  1  0  0  0  0
  7 10  2  0  0  0  0
  7 21  1  0  0  0  0
  8 27  1  0  0  0  0
  9 27  2  0  0  0  0
 10 28  1  0  0  0  0
 11 12  2  0  0  0  0
 11 29  1  0  0  0  0
 12 30  1  0  0  0  0
 13 23  1  0  0  0  0
 13 28  2  0  0  0  0
 14 24  1  0  0  0  0
 14 25  2  0  0  0  0
 15 24  2  0  0  0  0
 15 26  1  0  0  0  0
 16 25  1  0  0  0  0
 16 26  2  0  0  0  0
 17 30  2  0  0  0  0
 17 31  1  0  0  0  0
 18 32  1  0  0  0  0
 19 32  1  0  0  0  0
 19 33  2  0  0  0  0
 19 34  1  0  0  0  0
 20 22  2  0  0  0  0
 20 40  1  0  0  0  0
 21 23  2  0  0  0  0
 21 41  1  0  0  0  0
 22 49  1  0  0  0  0
 23 42  1  0  0  0  0
 24 52  1  0  0  0  0
 25 69  1  0  0  0  0
 26 72  1  0  0  0  0
 27 80  1  0  0  0  0
 28 81  1  0  0  0  0
 29 31  2  0  0  0  0
 29 80  1  0  0  0  0
 30 82  1  0  0  0  0
 31 83  1  0  0  0  0
 32 63  2  0  0  0  0
 33 64  1  0  0  0  0
 33 67  1  0  0  0  0
 34 68  1  0  0  0  0
 34 74  2  0  0  0  0
 35 50  1  0  0  0  0
 35 70  1  0  0  0  0
 35 75  2  0  0  0  0
 36 60  1  0  0  0  0
 36 65  1  0  0  0  0
 36 76  2  0  0  0  0
 37 59  1  0  0  0  0
 37 72  1  0  0  0  0
 37 77  2  0  0  0  0
 38 61  1  0  0  0  0
 38 71  1  0  0  0  0
 38 78  2  0  0  0  0
 39 66  1  0  0  0  0
 39 69  1  0  0  0  0
 39 79  2  0  0  0  0
 40 43  1  0  0  0  0
 41 50  1  0  0  0  0
 42 65  1  0  0  0  0
 43 45  1  0  0  0  0
 44 46  1  0  0  0  0
 44 47  1  0  0  0  0
 45 49  1  0  0  0  0
 46 51  1  0  0  0  0
 47 66  1  0  0  0  0
 48 51  1  0  0  0  0
 48 66  1  0  0  0  0
 49 70  1  0  0  0  0
 50 65  1  0  0  0  0
 51 64  1  0  0  0  0
 53 61  1  0  0  0  0
 54 62  1  0  0  0  0
 55 62  1  0  0  0  0
 56 62  1  0  0  0  0
 57 72  1  0  0  0  0
 58 73  1  0  0  0  0
 59 81  1  0  0  0  0
 60 62  1  0  0  0  0
 60 71  1  0  0  0  0
 61 73  1  0  0  0  0
 63 64  1  0  0  0  0
M  CHG  1  73   1
M  ISO  4  39 100  59 101  69 100  81 101
M  END
> <Batch ID>
0010

> <Smiles>
CNC(C)C(=O)NC(C(=O)N1Cc2cc([101O:1][101CH2:1]C(=O)N(C)c3cc(C)cc([100NH:0][100C:0](=O)N4CCCC(n5nc(-c6ccc(Oc7ccc(F)cc7F)cc6)c(C(N)=O)c5N)C4)c3)ccc2CC1C(=O)NC1CCCc2ccccc21)C(C)(C)C

> <Shape>
0.330

> <Color>
0.104

> <Negative vol penalty>
0.000

$$$$

  -OEChem-04052315413D

 82 90  0     1  0  0  0  0  0999 V2000
  -24.5268  -32.0720   29.0821 C   0  0  0  0  0  0  0  0  0  0  0  0
  -25.2840  -31.2190   28.2855 C   0  0  0  0  0  0  0  0  0  0  0  0
  -24.5984   -8.9787   21.5700 C   0  0  0  0  0  0  0  0  0  0  0  0
  -23.9008  -10.6934   23.1225 C   0  0  0  0  0  0  0  0  0  0  0  0
  -23.2114  -32.3697   28.7284 C   0  0  0  0  0  0  0  0  0  0  0  0
  -24.7258  -30.6623   27.1354 C   0  0  0  0  0  0  0  0  0  0  0  0
  -27.6024  -29.4358   21.8697 C   0  0  0  0  0  0  0  0  0  0  0  0
  -28.2621  -21.0361   19.7787 C   0  0  0  0  0  0  0  0  0  0  0  0
  -28.5026  -19.6622   19.7733 C   0  0  0  0  0  0  0  0  0  0  0  0
  -24.1653   -7.9963   22.4605 C   0  0  0  0  0  0  0  0  0  0  0  0
  -23.4676   -9.7110   24.0130 C   0  0  0  0  0  0  0  0  0  0  0  0
  -28.1386  -28.2605   21.3455 C   0  0  0  0  0  0  0  0  0  0  0  0
  -22.9135   -5.0426   24.1703 C   0  0  0  0  0  0  0  0  0  0  0  0
  -22.1747   -3.9785   23.6530 C   0  0  0  0  0  0  0  0  0  0  0  0
  -26.1013  -27.8899   20.1082 C   0  0  0  0  0  0  0  0  0  0  0  0
  -25.9869  -20.6408   19.0685 C   0  0  0  0  0  0  0  0  0  0  0  0
  -20.4933   -5.5266   22.8699 C   0  0  0  0  0  0  0  0  0  0  0  0
  -24.4661  -10.3273   21.9010 C   0  0  0  0  0  0  0  0  0  0  0  0
  -24.1619  -11.9587   19.9637 C   0  0  0  0  0  0  0  0  0  0  0  0
  -22.6399  -31.8239   27.5681 C   0  0  0  0  0  0  0  0  0  0  0  0
  -26.3052  -29.8420   21.5250 C   0  0  0  0  0  0  0  0  0  0  0  0
  -23.4011  -30.9518   26.7666 C   0  0  0  0  0  0  0  0  0  0  0  0
  -25.5518  -29.0721   20.6274 C   0  0  0  0  0  0  0  0  0  0  0  0
  -27.0043  -21.5255   19.4263 C   0  0  0  0  0  0  0  0  0  0  0  0
  -27.4852  -18.7775   19.4155 C   0  0  0  0  0  0  0  0  0  0  0  0
  -23.5999   -8.3624   23.6819 C   0  0  0  0  0  0  0  0  0  0  0  0
  -27.3870  -27.4858   20.4669 C   0  0  0  0  0  0  0  0  0  0  0  0
  -22.4421   -6.3487   24.0375 C   0  0  0  0  0  0  0  0  0  0  0  0
  -20.9647   -4.2205   23.0027 C   0  0  0  0  0  0  0  0  0  0  0  0
  -21.2320   -6.5907   23.3873 C   0  0  0  0  0  0  0  0  0  0  0  0
  -26.2274  -19.2668   19.0630 C   0  0  0  0  0  0  0  0  0  0  0  0
  -24.9138  -11.3426   20.9819 C   0  0  0  0  0  0  0  0  0  0  0  0
  -25.0349  -12.8438   19.3798 C   0  0  0  0  0  0  0  0  0  0  0  0
  -22.7963  -11.7499   19.5801 C   0  0  0  0  0  0  0  0  0  0  0  0
  -23.6049  -30.3254   23.1308 C   0  0  0  0  0  0  0  0  0  0  0  0
  -22.5521  -31.4167   20.2632 C   0  0  0  0  0  0  0  0  0  0  0  0
  -27.6537  -23.9339   19.7603 C   0  0  0  0  0  0  0  0  0  0  0  0
  -22.8652  -31.4010   16.8649 C   0  0  0  0  0  0  0  0  0  0  0  0
  -28.9674  -16.7682   19.7505 C   0  0  0  0  0  0  0  0  0  0  0  0
  -21.1989  -32.1373   27.2522 C   0  0  0  0  0  0  0  0  0  0  0  0
  -25.7513  -31.1263   22.0783 C   0  0  0  0  0  0  0  0  0  0  0  0
  -24.1619  -29.4748   20.2097 C   0  0  0  0  0  0  0  0  0  0  0  0
  -20.8035  -31.8027   25.8162 C   0  0  0  0  0  0  0  0  0  0  0  0
  -30.0392  -13.3773   19.9227 C   0  0  0  0  0  0  0  0  0  0  0  0
  -21.3084  -30.4153   25.4330 C   0  0  0  0  0  0  0  0  0  0  0  0
  -28.7394  -12.5963   20.1298 C   0  0  0  0  0  0  0  0  0  0  0  0
  -30.0228  -14.7126   20.6645 C   0  0  0  0  0  0  0  0  0  0  0  0
  -27.5615  -14.7845   20.5894 C   0  0  0  0  0  0  0  0  0  0  0  0
  -22.8390  -30.3478   25.4980 C   0  0  1  0  0  0  0  0  0  0  0  0
  -24.2266  -31.1764   22.0598 C   0  0  1  0  0  0  0  0  0  0  0  0
  -27.5049  -13.4613   19.8086 C   0  0  2  0  0  0  0  0  0  0  0  0
  -21.8372  -32.3627   14.7875 C   0  0  0  0  0  0  0  0  0  0  0  0
  -20.2156  -29.4715   20.5218 C   0  0  0  0  0  0  0  0  0  0  0  0
  -19.7810  -29.7772   18.0751 C   0  0  0  0  0  0  0  0  0  0  0  0
  -19.6032  -31.7241   19.6246 C   0  0  0  0  0  0  0  0  0  0  0  0
  -25.3846  -32.7556   16.1057 C   0  0  0  0  0  0  0  0  0  0  0  0
  -26.9893  -25.2926   19.6375 C   0  0  0  0  0  0  0  0  0  1  0  0
  -21.8851  -30.7927   19.0613 C   0  0  1  0  0  0  0  0  0  0  0  0
  -22.9100  -32.5310   15.8522 C   0  0  2  0  0  0  0  0  0  0  0  0
  -20.3967  -30.4325   19.3299 C   0  0  0  0  0  0  0  0  0  0  0  0
  -26.1681  -11.7975   21.0438 N   0  0  0  0  0  0  0  0  0  0  0  0
  -26.2110  -12.7089   20.0571 N   0  0  0  0  0  0  0  0  0  0  0  0
  -23.6620  -30.7355   20.7827 N   0  0  0  0  0  0  0  0  0  0  0  0
  -28.8273  -15.4794   20.3075 N   0  0  0  0  0  0  0  0  0  0  0  0
  -24.9037  -13.7164   18.3581 N   0  0  0  0  0  0  0  0  0  0  0  0
  -22.0414  -10.8029   20.2856 N   0  0  0  0  0  0  0  0  0  0  0  0
  -26.7607  -22.9194   19.4326 N   0  0  0  0  0  0  0  0  0  0  0  0
  -27.7625  -17.3880   19.4209 N   0  0  0  0  0  0  0  0  0  0  0  0
  -23.4227  -30.9797   24.3342 N   0  0  0  0  0  0  0  0  0  0  0  0
  -22.0846  -31.7227   17.9551 N   0  0  0  0  0  0  0  0  0  0  0  0
  -24.2387  -32.5705   15.1786 N   0  3  0  0  0  0  0  0  0  0  0  0
  -22.2660  -12.3724   18.6288 O   0  0  0  0  0  0  0  0  0  0  0  0
  -23.3109  -29.1618   22.8832 O   0  0  0  0  0  0  0  0  0  0  0  0
  -22.1091  -32.4735   20.7199 O   0  0  0  0  0  0  0  0  0  0  0  0
  -28.8246  -23.8203   20.1074 O   0  0  0  0  0  0  0  0  0  0  0  0
  -23.4600  -30.3377   16.7032 O   0  0  0  0  0  0  0  0  0  0  0  0
  -30.0757  -17.2731   19.5535 O   0  0  0  0  0  0  0  0  0  0  0  0
  -23.1770   -7.4041   24.5510 O   0  0  0  0  0  0  0  0  0  0  0  0
  -27.9078  -26.3378   19.9543 O   0  0  0  0  0  0  0  0  0  1  0  0
  -20.2561   -3.1987   22.5046 F   0  0  0  0  0  0  0  0  0  0  0  0
  -20.7746   -7.8434   23.2556 F   0  0  0  0  0  0  0  0  0  0  0  0
  -24.9398  -18.2060   18.6138 Cl  0  0  0  0  0  0  0  0  0  0  0  0
  1  2  1  0  0  0  0
  1  5  2  0  0  0  0
  2  6  2  0  0  0  0
  3 10  2  0  0  0  0
  3 18  1  0  0  0  0
  4 11  1  0  0  0  0
  4 18  2  0  0  0  0
  5 20  1  0  0  0  0
  6 22  1  0  0  0  0
  7 12  2  0  0  0  0
  7 21  1  0  0  0  0
  8  9  2  0  0  0  0
  8 24  1  0  0  0  0
  9 25  1  0  0  0  0
 10 26  1  0  0  0  0
 11 26  2  0  0  0  0
 12 27  1  0  0  0  0
 13 14  2  0  0  0  0
 13 28  1  0  0  0  0
 14 29  1  0  0  0  0
 15 23  1  0  0  0  0
 15 27  2  0  0  0  0
 16 24  2  0  0  0  0
 16 31  1  0  0  0  0
 17 29  2  0  0  0  0
 17 30  1  0  0  0  0
 18 32  1  0  0  0  0
 19 32  1  0  0  0  0
 19 33  2  0  0  0  0
 19 34  1  0  0  0  0
 20 22  2  0  0  0  0
 20 40  1  0  0  0  0
 21 23  2  0  0  0  0
 21 41  1  0  0  0  0
 22 49  1  0  0  0  0
 23 42  1  0  0  0  0
 24 67  1  0  0  0  0
 25 31  2  0  0  0  0
 25 68  1  0  0  0  0
 26 78  1  0  0  0  0
 27 79  1  0  0  0  0
 28 30  2  0  0  0  0
 28 78  1  0  0  0  0
 29 80  1  0  0  0  0
 30 81  1  0  0  0  0
 31 82  1  0  0  0  0
 32 61  2  0  0  0  0
 33 62  1  0  0  0  0
 33 65  1  0  0  0  0
 34 66  1  0  0  0  0
 34 72  2  0  0  0  0
 35 50  1  0  0  0  0
 35 69  1  0  0  0  0
 35 73  2  0  0  0  0
 36 58  1  0  0  0  0
 36 63  1  0  0  0  0
 36 74  2  0  0  0  0
 37 57  1  0  0  0  0
 37 67  1  0  0  0  0
 37 75  2  0  0  0  0
 38 59  1  0  0  0  0
 38 70  1  0  0  0  0
 38 76  2  0  0  0  0
 39 64  1  0  0  0  0
 39 68  1  0  0  0  0
 39 77  2  0  0  0  0
 40 43  1  0  0  0  0
 41 50  1  0  0  0  0
 42 63  1  0  0  0  0
 43 45  1  0  0  0  0
 44 46  1  0  0  0  0
 44 47  1  0  0  0  0
 45 49  1  0  0  0  0
 46 51  1  0  0  0  0
 47 64  1  0  0  0  0
 48 51  1  0  0  0  0
 48 64  1  0  0  0  0
 49 69  1  0  0  0  0
 50 63  1  0  0  0  0
 51 62  1  0  0  0  0
 52 59  1  0  0  0  0
 53 60  1  0  0  0  0
 54 60  1  0  0  0  0
 55 60  1  0  0  0  0
 56 71  1  0  0  0  0
 57 79  1  0  0  0  0
 58 60  1  0  0  0  0
 58 70  1  0  0  0  0
 59 71  1  0  0  0  0
 61 62  1  0  0  0  0
M  CHG  1  71   1
M  ISO  4  39 100  57 101  68 100  79 101
M  END
> <Batch ID>
0010

> <Smiles>
CNC(C)C(=O)NC(C(=O)N1Cc2cc([101O:1][101CH2:1]C(=O)Nc3ccc([100NH:0][100C:0](=O)N4CCCC(n5nc(-c6ccc(Oc7ccc(F)cc7F)cc6)c(C(N)=O)c5N)C4)c(Cl)c3)ccc2CC1C(=O)NC1CCCc2ccccc21)C(C)(C)C

> <Shape>
0.256

> <Color>
0.116

> <Negative vol penalty>
0.000

$$$$

  -OEChem-04052315413D

 83 91  0     1  0  0  0  0  0999 V2000
  -16.8785  -29.9850   23.1477 C   0  0  0  0  0  0  0  0  0  0  0  0
  -18.1394  -30.5569   23.0124 C   0  0  0  0  0  0  0  0  0  0  0  0
  -27.8663  -13.0189   22.2382 C   0  0  0  0  0  0  0  0  0  0  0  0
  -26.5349  -13.3485   20.2493 C   0  0  0  0  0  0  0  0  0  0  0  0
  -16.7472  -28.5990   23.2224 C   0  0  0  0  0  0  0  0  0  0  0  0
  -19.2701  -29.7430   22.9527 C   0  0  0  0  0  0  0  0  0  0  0  0
  -25.7672  -29.4241   19.9522 C   0  0  0  0  0  0  0  0  0  0  0  0
  -30.2862  -23.2595   16.9639 C   0  0  0  0  0  0  0  0  0  0  0  0
  -30.5887  -24.4436   17.6361 C   0  0  0  0  0  0  0  0  0  0  0  0
  -27.3124  -11.7488   22.3985 C   0  0  0  0  0  0  0  0  0  0  0  0
  -25.9811  -12.0784   20.4095 C   0  0  0  0  0  0  0  0  0  0  0  0
  -27.1050  -29.2373   20.2975 C   0  0  0  0  0  0  0  0  0  0  0  0
  -23.9495   -9.0659   20.4955 C   0  0  0  0  0  0  0  0  0  0  0  0
  -22.5702   -8.9350   20.3347 C   0  0  0  0  0  0  0  0  0  0  0  0
  -26.7503  -26.8519   20.3566 C   0  0  0  0  0  0  0  0  0  0  0  0
  -29.0352  -23.8462   19.3874 C   0  0  0  0  0  0  0  0  0  0  0  0
  -22.2112  -10.4920   22.1469 C   0  0  0  0  0  0  0  0  0  0  0  0
  -27.4775  -13.8188   21.1637 C   0  0  0  0  0  0  0  0  0  0  0  0
  -29.2097  -15.4679   20.2764 C   0  0  0  0  0  0  0  0  0  0  0  0
  -17.8760  -27.7673   23.1538 C   0  0  0  0  0  0  0  0  0  0  0  0
  -24.9068  -28.3251   19.8170 C   0  0  0  0  0  0  0  0  0  0  0  0
  -19.1540  -28.3446   23.0278 C   0  0  0  0  0  0  0  0  0  0  0  0
  -25.4027  -27.0273   20.0070 C   0  0  0  0  0  0  0  0  0  0  0  0
  -29.3581  -22.3687   17.5033 C   0  0  0  0  0  0  0  0  0  0  0  0
  -29.9633  -24.7369   18.8479 C   0  0  0  0  0  0  0  0  0  0  0  0
  -28.7327  -22.6621   18.7151 C   0  0  0  0  0  0  0  0  0  0  0  0
  -26.3698  -11.2785   21.4841 C   0  0  0  0  0  0  0  0  0  0  0  0
  -27.5961  -27.9512   20.5025 C   0  0  0  0  0  0  0  0  0  0  0  0
  -24.4597   -9.9097   21.4822 C   0  0  0  0  0  0  0  0  0  0  0  0
  -21.7010   -9.6481   21.1603 C   0  0  0  0  0  0  0  0  0  0  0  0
  -23.5905  -10.6228   22.3078 C   0  0  0  0  0  0  0  0  0  0  0  0
  -28.0488  -15.1311   20.9979 C   0  0  0  0  0  0  0  0  0  0  0  0
  -29.3235  -16.8286   20.4247 C   0  0  0  0  0  0  0  0  0  0  0  0
  -30.1052  -14.6260   19.5380 C   0  0  0  0  0  0  0  0  0  0  0  0
  -22.2572  -27.3571   21.2820 C   0  0  0  0  0  0  0  0  0  0  0  0
  -22.2780  -25.0796   18.9722 C   0  0  0  0  0  0  0  0  0  0  0  0
  -31.1643  -26.9317   19.1383 C   0  0  0  0  0  0  0  0  0  0  0  0
  -24.0770  -23.2584   16.7153 C   0  0  0  0  0  0  0  0  0  0  0  0
  -27.0859  -21.9270   20.4740 C   0  0  0  0  0  0  0  0  0  0  0  0
  -17.6885  -26.2766   23.2863 C   0  0  0  0  0  0  0  0  0  0  0  0
  -23.4729  -28.5418   19.4180 C   0  0  0  0  0  0  0  0  0  0  0  0
  -24.5251  -25.8128   19.8543 C   0  0  0  0  0  0  0  0  0  0  0  0
  -18.9033  -25.4677   22.8387 C   0  0  0  0  0  0  0  0  0  0  0  0
  -26.8581  -20.0270   23.4766 C   0  0  0  0  0  0  0  0  0  0  0  0
  -20.1825  -26.0575   23.4241 C   0  0  0  0  0  0  0  0  0  0  0  0
  -27.2431  -18.6116   23.0400 C   0  0  0  0  0  0  0  0  0  0  0  0
  -26.0490  -20.7515   22.4023 C   0  0  0  0  0  0  0  0  0  0  0  0
  -27.0518  -19.3601   20.6338 C   0  0  0  0  0  0  0  0  0  0  0  0
  -20.4022  -27.4940   22.9345 C   0  0  1  0  0  0  0  0  0  0  0  0
  -22.5617  -27.3830   19.8109 C   0  0  1  0  0  0  0  0  0  0  0  0
  -27.9234  -18.6138   21.6570 C   0  0  2  0  0  0  0  0  0  0  0  0
  -29.0536  -21.1080   16.7613 C   0  0  0  0  0  0  0  0  0  0  0  0
  -23.8244  -21.4472   14.9968 C   0  0  0  0  0  0  0  0  0  0  0  0
  -22.0847  -22.9997   21.1963 C   0  0  0  0  0  0  0  0  0  0  0  0
  -22.7861  -21.2615   19.5365 C   0  0  0  0  0  0  0  0  0  0  0  0
  -20.6613  -22.5233   19.1959 C   0  0  0  0  0  0  0  0  0  0  0  0
  -25.0044  -25.0351   14.5376 C   0  0  0  0  0  0  0  0  0  0  0  0
  -31.1928  -28.0583   20.1648 C   0  0  0  0  0  0  0  0  0  0  0  0
  -29.8397  -28.7263   20.3568 C   0  0  0  0  0  0  0  0  0  1  0  0
  -22.8714  -23.6980   18.8384 C   0  0  1  0  0  0  0  0  0  0  0  0
  -23.8336  -22.9468   15.2496 C   0  0  2  0  0  0  0  0  0  0  0  0
  -22.1172  -22.6434   19.6967 C   0  0  0  0  0  0  0  0  0  0  0  0
  -27.4668  -16.1923   21.5628 N   0  0  0  0  0  0  0  0  0  0  0  0
  -28.2653  -17.2092   21.1963 N   0  0  0  0  0  0  0  0  0  0  0  0
  -23.1289  -26.0770   19.4691 N   0  0  0  0  0  0  0  0  0  0  0  0
  -26.7571  -20.7169   21.1208 N   0  0  0  0  0  0  0  0  0  0  0  0
  -30.2246  -17.7246   19.9692 N   0  0  0  0  0  0  0  0  0  0  0  0
  -29.8406  -13.2506   19.4880 N   0  0  0  0  0  0  0  0  0  0  0  0
  -30.2705  -25.9385   19.5296 N   0  0  0  0  0  0  0  0  0  0  0  0
  -27.7872  -21.7700   19.2790 N   0  0  0  0  0  0  0  0  0  0  0  0
  -20.9151  -27.4938   21.5813 N   0  0  0  0  0  0  0  0  0  0  0  0
  -22.8946  -23.4002   17.4104 N   0  0  0  0  0  0  0  0  0  0  0  0
  -24.8987  -23.5591   14.4061 N   0  3  0  0  0  0  0  0  0  0  0  0
  -31.1192  -15.0778   18.9539 O   0  0  0  0  0  0  0  0  0  0  0  0
  -23.1720  -27.2214   22.0860 O   0  0  0  0  0  0  0  0  0  0  0  0
  -21.1048  -25.2685   18.6411 O   0  0  0  0  0  0  0  0  0  0  0  0
  -31.8569  -26.9530   18.1262 O   0  0  0  0  0  0  0  0  0  0  0  0
  -25.2033  -23.3618   17.1962 O   0  0  0  0  0  0  0  0  0  0  0  0
  -26.7925  -23.0226   20.9592 O   0  0  0  0  0  0  0  0  0  0  0  0
  -25.8294  -10.0391   21.6401 O   0  0  0  0  0  0  0  0  0  0  0  0
  -28.9013  -27.7661   20.8402 O   0  0  0  0  0  0  0  0  0  1  0  0
  -20.3764   -9.5235   21.0047 F   0  0  0  0  0  0  0  0  0  0  0  0
  -24.0748  -11.4359   23.2566 F   0  0  0  0  0  0  0  0  0  0  0  0
  1  2  1  0  0  0  0
  1  5  2  0  0  0  0
  2  6  2  0  0  0  0
  3 10  2  0  0  0  0
  3 18  1  0  0  0  0
  4 11  1  0  0  0  0
  4 18  2  0  0  0  0
  5 20  1  0  0  0  0
  6 22  1  0  0  0  0
  7 12  2  0  0  0  0
  7 21  1  0  0  0  0
  8  9  2  0  0  0  0
  8 24  1  0  0  0  0
  9 25  1  0  0  0  0
 10 27  1  0  0  0  0
 11 27  2  0  0  0  0
 12 28  1  0  0  0  0
 13 14  2  0  0  0  0
 13 29  1  0  0  0  0
 14 30  1  0  0  0  0
 15 23  1  0  0  0  0
 15 28  2  0  0  0  0
 16 25  2  0  0  0  0
 16 26  1  0  0  0  0
 17 30  2  0  0  0  0
 17 31  1  0  0  0  0
 18 32  1  0  0  0  0
 19 32  1  0  0  0  0
 19 33  2  0  0  0  0
 19 34  1  0  0  0  0
 20 22  2  0  0  0  0
 20 40  1  0  0  0  0
 21 23  2  0  0  0  0
 21 41  1  0  0  0  0
 22 49  1  0  0  0  0
 23 42  1  0  0  0  0
 24 26  2  0  0  0  0
 24 52  1  0  0  0  0
 25 69  1  0  0  0  0
 26 70  1  0  0  0  0
 27 80  1  0  0  0  0
 28 81  1  0  0  0  0
 29 31  2  0  0  0  0
 29 80  1  0  0  0  0
 30 82  1  0  0  0  0
 31 83  1  0  0  0  0
 32 63  2  0  0  0  0
 33 64  1  0  0  0  0
 33 67  1  0  0  0  0
 34 68  1  0  0  0  0
 34 74  2  0  0  0  0
 35 50  1  0  0  0  0
 35 71  1  0  0  0  0
 35 75  2  0  0  0  0
 36 60  1  0  0  0  0
 36 65  1  0  0  0  0
 36 76  2  0  0  0  0
 37 58  1  0  0  0  0
 37 69  1  0  0  0  0
 37 77  2  0  0  0  0
 38 61  1  0  0  0  0
 38 72  1  0  0  0  0
 38 78  2  0  0  0  0
 39 66  1  0  0  0  0
 39 70  1  0  0  0  0
 39 79  2  0  0  0  0
 40 43  1  0  0  0  0
 41 50  1  0  0  0  0
 42 65  1  0  0  0  0
 43 45  1  0  0  0  0
 44 46  1  0  0  0  0
 44 47  1  0  0  0  0
 45 49  1  0  0  0  0
 46 51  1  0  0  0  0
 47 66  1  0  0  0  0
 48 51  1  0  0  0  0
 48 66  1  0  0  0  0
 49 71  1  0  0  0  0
 50 65  1  0  0  0  0
 51 64  1  0  0  0  0
 53 61  1  0  0  0  0
 54 62  1  0  0  0  0
 55 62  1  0  0  0  0
 56 62  1  0  0  0  0
 57 73  1  0  0  0  0
 58 59  1  0  0  0  0
 59 81  1  0  0  0  0
 60 62  1  0  0  0  0
 60 72  1  0  0  0  0
 61 73  1  0  0  0  0
 63 64  1  0  0  0  0
M  CHG  1  73   1
M  ISO  4  39 100  59 101  70 100  81 101
M  END
> <Batch ID>
0010

> <Smiles>
CNC(C)C(=O)NC(C(=O)N1Cc2cc([101O:1][101CH2:1]CC(=O)Nc3ccc(C)c([100NH:0][100C:0](=O)N4CCCC(n5nc(-c6ccc(Oc7ccc(F)cc7F)cc6)c(C(N)=O)c5N)C4)c3)ccc2CC1C(=O)NC1CCCc2ccccc21)C(C)(C)C

> <Shape>
0.275

> <Color>
0.082

> <Negative vol penalty>
0.000

$$$$

  -OEChem-04052315413D

 83 91  0     1  0  0  0  0  0999 V2000
  -33.6507  -35.1332   22.3797 C   0  0  0  0  0  0  0  0  0  0  0  0
  -33.6704  -33.7427   22.4175 C   0  0  0  0  0  0  0  0  0  0  0  0
  -23.0730   -9.8809   19.9312 C   0  0  0  0  0  0  0  0  0  0  0  0
  -23.8486   -9.8597   22.2193 C   0  0  0  0  0  0  0  0  0  0  0  0
  -32.5677  -35.8287   22.9156 C   0  0  0  0  0  0  0  0  0  0  0  0
  -32.6075  -33.0468   22.9924 C   0  0  0  0  0  0  0  0  0  0  0  0
  -30.3635  -27.6317   21.2187 C   0  0  0  0  0  0  0  0  0  0  0  0
  -22.3327   -8.7234   20.1714 C   0  0  0  0  0  0  0  0  0  0  0  0
  -23.1082   -8.7022   22.4595 C   0  0  0  0  0  0  0  0  0  0  0  0
  -30.5650  -26.3340   21.6869 C   0  0  0  0  0  0  0  0  0  0  0  0
  -19.8855   -7.8913   23.0736 C   0  0  0  0  0  0  0  0  0  0  0  0
  -19.1366   -7.8351   24.2490 C   0  0  0  0  0  0  0  0  0  0  0  0
  -28.5700  -26.5156   23.0309 C   0  0  0  0  0  0  0  0  0  0  0  0
  -29.6898  -19.2651   22.4408 C   0  0  0  0  0  0  0  0  0  0  0  0
  -31.1403  -17.7131   20.6325 C   0  0  0  0  0  0  0  0  0  0  0  0
  -20.3861   -5.8904   24.9520 C   0  0  0  0  0  0  0  0  0  0  0  0
  -23.8310  -10.4491   20.9551 C   0  0  0  0  0  0  0  0  0  0  0  0
  -24.1680  -12.9761   20.8653 C   0  0  0  0  0  0  0  0  0  0  0  0
  -31.4865  -35.1407   23.4887 C   0  0  0  0  0  0  0  0  0  0  0  0
  -29.2679  -28.3863   21.6622 C   0  0  0  0  0  0  0  0  0  0  0  0
  -31.5096  -33.7338   23.5378 C   0  0  0  0  0  0  0  0  0  0  0  0
  -28.3554  -27.8217   22.5649 C   0  0  0  0  0  0  0  0  0  0  0  0
  -30.5829  -19.8737   21.5591 C   0  0  0  0  0  0  0  0  0  0  0  0
  -30.2472  -17.1046   21.5143 C   0  0  0  0  0  0  0  0  0  0  0  0
  -22.3503   -8.1341   21.4355 C   0  0  0  0  0  0  0  0  0  0  0  0
  -29.6698  -25.7768   22.5954 C   0  0  0  0  0  0  0  0  0  0  0  0
  -20.8847   -6.9471   22.8373 C   0  0  0  0  0  0  0  0  0  0  0  0
  -19.3869   -6.8347   25.1882 C   0  0  0  0  0  0  0  0  0  0  0  0
  -29.5219  -17.8805   22.4185 C   0  0  0  0  0  0  0  0  0  0  0  0
  -21.1350   -5.9466   23.7766 C   0  0  0  0  0  0  0  0  0  0  0  0
  -31.3082  -19.0977   20.6549 C   0  0  0  0  0  0  0  0  0  0  0  0
  -24.5964  -11.6445   20.7075 C   0  0  0  0  0  0  0  0  0  0  0  0
  -25.2565  -13.7320   20.5042 C   0  0  0  0  0  0  0  0  0  0  0  0
  -22.8996  -13.4844   21.2994 C   0  0  0  0  0  0  0  0  0  0  0  0
  -28.9211  -31.1117   23.2608 C   0  0  0  0  0  0  0  0  0  0  0  0
  -25.7800  -30.6492   22.5960 C   0  0  0  0  0  0  0  0  0  0  0  0
  -30.0741  -22.1710   22.4521 C   0  0  0  0  0  0  0  0  0  0  0  0
  -23.2723  -28.4659   21.8270 C   0  0  0  0  0  0  0  0  0  0  0  0
  -30.7220  -14.7845   20.6552 C   0  0  0  0  0  0  0  0  0  0  0  0
  -30.3599  -35.9373   24.0978 C   0  0  0  0  0  0  0  0  0  0  0  0
  -29.0498  -29.7750   21.1271 C   0  0  0  0  0  0  0  0  0  0  0  0
  -27.1522  -28.5827   23.0565 C   0  0  0  0  0  0  0  0  0  0  0  0
  -29.1000  -35.1139   24.3526 C   0  0  0  0  0  0  0  0  0  0  0  0
  -29.5953  -12.3994   18.2637 C   0  0  0  0  0  0  0  0  0  0  0  0
  -29.4536  -33.7917   25.0261 C   0  0  0  0  0  0  0  0  0  0  0  0
  -28.1591  -12.0999   18.6993 C   0  0  0  0  0  0  0  0  0  0  0  0
  -30.5183  -12.6143   19.4619 C   0  0  0  0  0  0  0  0  0  0  0  0
  -28.6196  -13.3178   20.8654 C   0  0  0  0  0  0  0  0  0  0  0  0
  -30.3640  -32.9426   24.1307 C   0  0  1  0  0  0  0  0  0  0  0  0
  -28.1842  -30.6380   22.0401 C   0  0  1  0  0  0  0  0  0  0  0  0
  -27.6391  -13.1580   19.6920 C   0  0  2  0  0  0  0  0  0  0  0  0
  -20.8043  -28.3785   21.3812 C   0  0  0  0  0  0  0  0  0  0  0  0
  -25.2323  -30.9498   25.5826 C   0  0  0  0  0  0  0  0  0  0  0  0
  -22.9778  -29.9302   25.2008 C   0  0  0  0  0  0  0  0  0  0  0  0
  -23.5721  -32.0872   24.0978 C   0  0  0  0  0  0  0  0  0  0  0  0
  -23.6863  -27.4213   19.0891 C   0  0  0  0  0  0  0  0  0  0  0  0
  -30.5195  -23.5953   22.1773 C   0  0  0  0  0  0  0  0  0  1  0  0
  -24.6348  -29.9435   23.2812 C   0  0  1  0  0  0  0  0  0  0  0  0
  -22.1884  -28.5103   20.7651 C   0  0  2  0  0  0  0  0  0  0  0  0
  -24.1279  -30.7138   24.5330 C   0  0  0  0  0  0  0  0  0  0  0  0
  -25.8586  -11.5561   20.2794 N   0  0  0  0  0  0  0  0  0  0  0  0
  -26.2325  -12.8419   20.1651 N   0  0  0  0  0  0  0  0  0  0  0  0
  -26.9859  -29.9392   22.5090 N   0  0  0  0  0  0  0  0  0  0  0  0
  -29.9637  -13.6328   20.3563 N   0  0  0  0  0  0  0  0  0  0  0  0
  -25.4642  -15.0647   20.4469 N   0  0  0  0  0  0  0  0  0  0  0  0
  -21.8914  -12.5693   21.6319 N   0  0  0  0  0  0  0  0  0  0  0  0
  -30.7286  -21.2804   21.6080 N   0  0  0  0  0  0  0  0  0  0  0  0
  -30.0788  -15.6978   21.4898 N   0  0  0  0  0  0  0  0  0  0  0  0
  -29.5928  -32.3063   23.0844 N   0  0  0  0  0  0  0  0  0  0  0  0
  -23.6167  -29.7294   22.2585 N   0  0  0  0  0  0  0  0  0  0  0  0
  -22.3753  -27.4011   19.7875 N   0  3  0  0  0  0  0  0  0  0  0  0
  -22.6618  -14.7138   21.3742 O   0  0  0  0  0  0  0  0  0  0  0  0
  -28.8819  -30.4436   24.2874 O   0  0  0  0  0  0  0  0  0  0  0  0
  -25.6088  -31.7856   22.1479 O   0  0  0  0  0  0  0  0  0  0  0  0
  -29.2440  -21.9130   23.3176 O   0  0  0  0  0  0  0  0  0  0  0  0
  -23.7616  -27.4152   22.2358 O   0  0  0  0  0  0  0  0  0  0  0  0
  -31.8477  -14.9611   20.1821 O   0  0  0  0  0  0  0  0  0  0  0  0
  -21.6278   -7.0047   21.6703 O   0  0  0  0  0  0  0  0  0  0  0  0
  -29.8645  -24.5106   23.0545 O   0  0  0  0  0  0  0  0  0  1  0  0
  -18.6687   -6.7817   26.3176 F   0  0  0  0  0  0  0  0  0  0  0  0
  -28.6608  -17.3062   23.2707 F   0  0  0  0  0  0  0  0  0  0  0  0
  -22.0943   -5.0374   23.5557 F   0  0  0  0  0  0  0  0  0  0  0  0
  -32.4254  -19.8108   19.5465 Cl  0  0  0  0  0  0  0  0  0  0  0  0
  1  2  1  0  0  0  0
  1  5  2  0  0  0  0
  2  6  2  0  0  0  0
  3  8  2  0  0  0  0
  3 17  1  0  0  0  0
  4  9  1  0  0  0  0
  4 17  2  0  0  0  0
  5 19  1  0  0  0  0
  6 21  1  0  0  0  0
  7 10  2  0  0  0  0
  7 20  1  0  0  0  0
  8 25  1  0  0  0  0
  9 25  2  0  0  0  0
 10 26  1  0  0  0  0
 11 12  2  0  0  0  0
 11 27  1  0  0  0  0
 12 28  1  0  0  0  0
 13 22  1  0  0  0  0
 13 26  2  0  0  0  0
 14 23  1  0  0  0  0
 14 29  2  0  0  0  0
 15 24  2  0  0  0  0
 15 31  1  0  0  0  0
 16 28  2  0  0  0  0
 16 30  1  0  0  0  0
 17 32  1  0  0  0  0
 18 32  1  0  0  0  0
 18 33  2  0  0  0  0
 18 34  1  0  0  0  0
 19 21  2  0  0  0  0
 19 40  1  0  0  0  0
 20 22  2  0  0  0  0
 20 41  1  0  0  0  0
 21 49  1  0  0  0  0
 22 42  1  0  0  0  0
 23 31  2  0  0  0  0
 23 67  1  0  0  0  0
 24 29  1  0  0  0  0
 24 68  1  0  0  0  0
 25 78  1  0  0  0  0
 26 79  1  0  0  0  0
 27 30  2  0  0  0  0
 27 78  1  0  0  0  0
 28 80  1  0  0  0  0
 29 81  1  0  0  0  0
 30 82  1  0  0  0  0
 31 83  1  0  0  0  0
 32 61  2  0  0  0  0
 33 62  1  0  0  0  0
 33 65  1  0  0  0  0
 34 66  1  0  0  0  0
 34 72  2  0  0  0  0
 35 50  1  0  0  0  0
 35 69  1  0  0  0  0
 35 73  2  0  0  0  0
 36 58  1  0  0  0  0
 36 63  1  0  0  0  0
 36 74  2  0  0  0  0
 37 57  1  0  0  0  0
 37 67  1  0  0  0  0
 37 75  2  0  0  0  0
 38 59  1  0  0  0  0
 38 70  1  0  0  0  0
 38 76  2  0  0  0  0
 39 64  1  0  0  0  0
 39 68  1  0  0  0  0
 39 77  2  0  0  0  0
 40 43  1  0  0  0  0
 41 50  1  0  0  0  0
 42 63  1  0  0  0  0
 43 45  1  0  0  0  0
 44 46  1  0  0  0  0
 44 47  1  0  0  0  0
 45 49  1  0  0  0  0
 46 51  1  0  0  0  0
 47 64  1  0  0  0  0
 48 51  1  0  0  0  0
 48 64  1  0  0  0  0
 49 69  1  0  0  0  0
 50 63  1  0  0  0  0
 51 62  1  0  0  0  0
 52 59  1  0  0  0  0
 53 60  1  0  0  0  0
 54 60  1  0  0  0  0
 55 60  1  0  0  0  0
 56 71  1  0  0  0  0
 57 79  1  0  0  0  0
 58 60  1  0  0  0  0
 58 70  1  0  0  0  0
 59 71  1  0  0  0  0
 61 62  1  0  0  0  0
M  CHG  1  71   1
M  ISO  4  39 100  57 101  68 100  79 101
M  END
> <Batch ID>
0010

> <Smiles>
CNC(C)C(=O)NC(C(=O)N1Cc2cc([101O:1][101CH2:1]C(=O)Nc3cc(F)c([100NH:0][100C:0](=O)N4CCCC(n5nc(-c6ccc(Oc7ccc(F)cc7F)cc6)c(C(N)=O)c5N)C4)cc3Cl)ccc2CC1C(=O)NC1CCCc2ccccc21)C(C)(C)C

> <Shape>
0.292

> <Color>
0.193

> <Negative vol penalty>
0.000

$$$$

  -OEChem-04052315413D

 81 89  0     1  0  0  0  0  0999 V2000
  -23.6146  -32.7404   26.6417 C   0  0  0  0  0  0  0  0  0  0  0  0
  -24.8879  -32.2906   26.3072 C   0  0  0  0  0  0  0  0  0  0  0  0
  -24.0433   -9.7225   21.7174 C   0  0  0  0  0  0  0  0  0  0  0  0
  -24.6463  -10.9946   23.6809 C   0  0  0  0  0  0  0  0  0  0  0  0
  -22.4922  -32.0271   26.2230 C   0  0  0  0  0  0  0  0  0  0  0  0
  -25.0395  -31.1265   25.5547 C   0  0  0  0  0  0  0  0  0  0  0  0
  -29.3143  -28.1906   20.6127 C   0  0  0  0  0  0  0  0  0  0  0  0
  -30.7820  -18.9585   20.2106 C   0  0  0  0  0  0  0  0  0  0  0  0
  -23.6164   -8.6717   22.5293 C   0  0  0  0  0  0  0  0  0  0  0  0
  -24.2193   -9.9438   24.4928 C   0  0  0  0  0  0  0  0  0  0  0  0
  -30.0451  -27.0275   20.3746 C   0  0  0  0  0  0  0  0  0  0  0  0
  -31.0681  -20.2797   20.5541 C   0  0  0  0  0  0  0  0  0  0  0  0
  -20.9059   -7.9145   24.4036 C   0  0  0  0  0  0  0  0  0  0  0  0
  -19.6862   -7.3118   24.0959 C   0  0  0  0  0  0  0  0  0  0  0  0
  -28.0319  -25.9204   19.6392 C   0  0  0  0  0  0  0  0  0  0  0  0
  -28.7097  -20.7140   20.8479 C   0  0  0  0  0  0  0  0  0  0  0  0
  -20.8098   -5.1954   23.7874 C   0  0  0  0  0  0  0  0  0  0  0  0
  -24.5583  -10.8839   22.2932 C   0  0  0  0  0  0  0  0  0  0  0  0
  -24.2298  -13.0524   20.9902 C   0  0  0  0  0  0  0  0  0  0  0  0
  -22.6299  -30.8589   25.4568 C   0  0  0  0  0  0  0  0  0  0  0  0
  -27.9326  -28.2242   20.3757 C   0  0  0  0  0  0  0  0  0  0  0  0
  -23.9180  -30.3961   25.1265 C   0  0  0  0  0  0  0  0  0  0  0  0
  -27.2863  -27.0860   19.8726 C   0  0  0  0  0  0  0  0  0  0  0  0
  -29.4598  -18.5150   20.1855 C   0  0  0  0  0  0  0  0  0  0  0  0
  -23.7044   -8.7823   23.9170 C   0  0  0  0  0  0  0  0  0  0  0  0
  -29.4035  -25.8912   19.8905 C   0  0  0  0  0  0  0  0  0  0  0  0
  -30.0320  -21.1575   20.8728 C   0  0  0  0  0  0  0  0  0  0  0  0
  -22.0776   -7.1576   24.4031 C   0  0  0  0  0  0  0  0  0  0  0  0
  -19.6381   -5.9523   23.7878 C   0  0  0  0  0  0  0  0  0  0  0  0
  -28.4236  -19.3928   20.5042 C   0  0  0  0  0  0  0  0  0  0  0  0
  -22.0296   -5.7981   24.0950 C   0  0  0  0  0  0  0  0  0  0  0  0
  -25.0000  -11.9695   21.4550 C   0  0  0  0  0  0  0  0  0  0  0  0
  -25.1046  -13.7986   20.2391 C   0  0  0  0  0  0  0  0  0  0  0  0
  -22.8471  -13.3565   21.2173 C   0  0  0  0  0  0  0  0  0  0  0  0
  -25.3581  -28.6945   22.1797 C   0  0  0  0  0  0  0  0  0  0  0  0
  -23.8210  -28.6090   19.3245 C   0  0  0  0  0  0  0  0  0  0  0  0
  -23.8043  -27.5722   16.0731 C   0  0  0  0  0  0  0  0  0  0  0  0
  -30.0847  -16.1747   19.4935 C   0  0  0  0  0  0  0  0  0  0  0  0
  -21.3887  -30.0957   25.0674 C   0  0  0  0  0  0  0  0  0  0  0  0
  -27.1632  -29.4948   20.6123 C   0  0  0  0  0  0  0  0  0  0  0  0
  -25.8084  -27.0763   19.5826 C   0  0  0  0  0  0  0  0  0  0  0  0
  -21.6240  -29.0770   23.9551 C   0  0  0  0  0  0  0  0  0  0  0  0
  -29.7777  -12.7400   18.6070 C   0  0  0  0  0  0  0  0  0  0  0  0
  -22.8783  -28.2567   24.2391 C   0  0  0  0  0  0  0  0  0  0  0  0
  -28.4440  -12.3225   19.2307 C   0  0  0  0  0  0  0  0  0  0  0  0
  -30.5323  -13.7304   19.4921 C   0  0  0  0  0  0  0  0  0  0  0  0
  -28.4284  -14.4960   20.5202 C   0  0  0  0  0  0  0  0  0  0  0  0
  -24.1226  -29.1513   24.2906 C   0  0  1  0  0  0  0  0  0  0  0  0
  -25.6707  -29.2593   20.8229 C   0  0  1  0  0  0  0  0  0  0  0  0
  -27.6023  -13.5488   19.6347 C   0  0  2  0  0  0  0  0  0  0  0  0
  -22.3954  -27.6215   13.9970 C   0  0  0  0  0  0  0  0  0  0  0  0
  -22.0091  -26.4570   20.5059 C   0  0  0  0  0  0  0  0  0  0  0  0
  -21.2863  -25.8860   18.1779 C   0  0  0  0  0  0  0  0  0  0  0  0
  -20.8302  -28.1578   19.1017 C   0  0  0  0  0  0  0  0  0  0  0  0
  -25.8768  -29.0487   14.5620 C   0  0  0  0  0  0  0  0  0  0  0  0
  -31.2612  -24.5267   20.4758 C   0  0  0  0  0  0  0  0  0  1  0  0
  -31.4737  -23.0327   20.6261 C   0  0  0  0  0  0  0  0  0  0  0  0
  -23.1974  -27.5257   18.4781 C   0  0  1  0  0  0  0  0  0  0  0  0
  -23.5008  -28.3106   14.7819 C   0  0  2  0  0  0  0  0  0  0  0  0
  -21.8583  -27.0059   19.0731 C   0  0  0  0  0  0  0  0  0  0  0  0
  -26.2666  -12.0195   21.0342 N   0  0  0  0  0  0  0  0  0  0  0  0
  -26.2990  -13.1428   20.2971 N   0  0  0  0  0  0  0  0  0  0  0  0
  -25.0986  -28.3411   19.8361 N   0  0  0  0  0  0  0  0  0  0  0  0
  -29.6740  -14.8677   19.8310 N   0  0  0  0  0  0  0  0  0  0  0  0
  -24.9610  -14.9452   19.5412 N   0  0  0  0  0  0  0  0  0  0  0  0
  -22.0930  -12.4837   22.0134 N   0  0  0  0  0  0  0  0  0  0  0  0
  -29.1724  -17.1722   19.8360 N   0  0  0  0  0  0  0  0  0  0  0  0
  -24.5475  -29.5037   22.9528 N   0  0  0  0  0  0  0  0  0  0  0  0
  -23.0794  -28.0763   17.1322 N   0  0  0  0  0  0  0  0  0  0  0  0
  -24.7173  -28.3743   13.9234 N   0  3  0  0  0  0  0  0  0  0  0  0
  -22.2926  -14.3634   20.7151 O   0  0  0  0  0  0  0  0  0  0  0  0
  -25.8170  -27.6046   22.5009 O   0  0  0  0  0  0  0  0  0  0  0  0
  -23.2006  -29.6574   19.5185 O   0  0  0  0  0  0  0  0  0  0  0  0
  -24.6016  -26.6390   16.1351 O   0  0  0  0  0  0  0  0  0  0  0  0
  -31.1537  -16.3905   18.9167 O   0  0  0  0  0  0  0  0  0  0  0  0
  -23.2877   -7.7573   24.7095 O   0  0  0  0  0  0  0  0  0  0  0  0
  -30.1143  -24.7543   19.6579 O   0  0  0  0  0  0  0  0  0  1  0  0
  -30.3131  -22.4549   21.2114 O   0  0  0  0  0  0  0  0  0  0  0  0
  -18.4666   -5.3733   23.4939 F   0  0  0  0  0  0  0  0  0  0  0  0
  -27.1490  -18.9774   20.4830 F   0  0  0  0  0  0  0  0  0  0  0  0
  -23.1517   -5.0655   24.0941 F   0  0  0  0  0  0  0  0  0  0  0  0
  1  2  1  0  0  0  0
  1  5  2  0  0  0  0
  2  6  2  0  0  0  0
  3  9  2  0  0  0  0
  3 18  1  0  0  0  0
  4 10  1  0  0  0  0
  4 18  2  0  0  0  0
  5 20  1  0  0  0  0
  6 22  1  0  0  0  0
  7 11  2  0  0  0  0
  7 21  1  0  0  0  0
  8 12  2  0  0  0  0
  8 24  1  0  0  0  0
  9 25  1  0  0  0  0
 10 25  2  0  0  0  0
 11 26  1  0  0  0  0
 12 27  1  0  0  0  0
 13 14  2  0  0  0  0
 13 28  1  0  0  0  0
 14 29  1  0  0  0  0
 15 23  1  0  0  0  0
 15 26  2  0  0  0  0
 16 27  2  0  0  0  0
 16 30  1  0  0  0  0
 17 29  2  0  0  0  0
 17 31  1  0  0  0  0
 18 32  1  0  0  0  0
 19 32  1  0  0  0  0
 19 33  2  0  0  0  0
 19 34  1  0  0  0  0
 20 22  2  0  0  0  0
 20 39  1  0  0  0  0
 21 23  2  0  0  0  0
 21 40  1  0  0  0  0
 22 48  1  0  0  0  0
 23 41  1  0  0  0  0
 24 30  2  0  0  0  0
 24 67  1  0  0  0  0
 25 76  1  0  0  0  0
 26 77  1  0  0  0  0
 27 78  1  0  0  0  0
 28 31  2  0  0  0  0
 28 76  1  0  0  0  0
 29 79  1  0  0  0  0
 30 80  1  0  0  0  0
 31 81  1  0  0  0  0
 32 61  2  0  0  0  0
 33 62  1  0  0  0  0
 33 65  1  0  0  0  0
 34 66  1  0  0  0  0
 34 71  2  0  0  0  0
 35 49  1  0  0  0  0
 35 68  1  0  0  0  0
 35 72  2  0  0  0  0
 36 58  1  0  0  0  0
 36 63  1  0  0  0  0
 36 73  2  0  0  0  0
 37 59  1  0  0  0  0
 37 69  1  0  0  0  0
 37 74  2  0  0  0  0
 38 64  1  0  0  0  0
 38 67  1  0  0  0  0
 38 75  2  0  0  0  0
 39 42  1  0  0  0  0
 40 49  1  0  0  0  0
 41 63  1  0  0  0  0
 42 44  1  0  0  0  0
 43 45  1  0  0  0  0
 43 46  1  0  0  0  0
 44 48  1  0  0  0  0
 45 50  1  0  0  0  0
 46 64  1  0  0  0  0
 47 50  1  0  0  0  0
 47 64  1  0  0  0  0
 48 68  1  0  0  0  0
 49 63  1  0  0  0  0
 50 62  1  0  0  0  0
 51 59  1  0  0  0  0
 52 60  1  0  0  0  0
 53 60  1  0  0  0  0
 54 60  1  0  0  0  0
 55 70  1  0  0  0  0
 56 57  1  0  0  0  0
 56 77  1  0  0  0  0
 57 78  1  0  0  0  0
 58 60  1  0  0  0  0
 58 69  1  0  0  0  0
 59 70  1  0  0  0  0
 61 62  1  0  0  0  0
M  CHG  1  70   1
M  ISO  4  38 100  56 101  67 100  77 101
M  END
> <Batch ID>
0010

> <Smiles>
CNC(C)C(=O)NC(C(=O)N1Cc2cc([101O:1][101CH2:1]COc3ccc([100NH:0][100C:0](=O)N4CCCC(n5nc(-c6ccc(Oc7ccc(F)cc7F)cc6)c(C(N)=O)c5N)C4)c(F)c3)ccc2CC1C(=O)NC1CCCc2ccccc21)C(C)(C)C

> <Shape>
0.293

> <Color>
0.123

> <Negative vol penalty>
0.000

$$$$

  -OEChem-04052315413D

 83 91  0     1  0  0  0  0  0999 V2000
  -19.3224  -26.5184   25.9382 C   0  0  0  0  0  0  0  0  0  0  0  0
  -20.3956  -26.1330   25.1413 C   0  0  0  0  0  0  0  0  0  0  0  0
  -26.2135  -11.3532   21.1495 C   0  0  0  0  0  0  0  0  0  0  0  0
  -25.6243  -12.8229   19.3248 C   0  0  0  0  0  0  0  0  0  0  0  0
  -18.5147  -27.5862   25.5490 C   0  0  0  0  0  0  0  0  0  0  0  0
  -20.6611  -26.8144   23.9540 C   0  0  0  0  0  0  0  0  0  0  0  0
  -26.1607  -27.9408   21.5064 C   0  0  0  0  0  0  0  0  0  0  0  0
  -24.8628  -11.0806   21.3661 C   0  0  0  0  0  0  0  0  0  0  0  0
  -24.2735  -12.5503   19.5413 C   0  0  0  0  0  0  0  0  0  0  0  0
  -26.8863  -27.3075   20.4983 C   0  0  0  0  0  0  0  0  0  0  0  0
  -22.2232  -12.5896   22.8426 C   0  0  0  0  0  0  0  0  0  0  0  0
  -21.7628  -12.6047   24.1592 C   0  0  0  0  0  0  0  0  0  0  0  0
  -26.0485  -28.9071   18.8987 C   0  0  0  0  0  0  0  0  0  0  0  0
  -29.7216  -19.7024   17.8991 C   0  0  0  0  0  0  0  0  0  0  0  0
  -30.7880  -20.7551   19.7942 C   0  0  0  0  0  0  0  0  0  0  0  0
  -21.0890  -10.2940   23.9500 C   0  0  0  0  0  0  0  0  0  0  0  0
  -26.5942  -12.2244   20.1289 C   0  0  0  0  0  0  0  0  0  0  0  0
  -28.8725  -11.8103   19.0585 C   0  0  0  0  0  0  0  0  0  0  0  0
  -18.7763  -28.2872   24.3612 C   0  0  0  0  0  0  0  0  0  0  0  0
  -25.3637  -29.0573   21.2157 C   0  0  0  0  0  0  0  0  0  0  0  0
  -19.8553  -27.8917   23.5479 C   0  0  0  0  0  0  0  0  0  0  0  0
  -25.3158  -29.5543   19.9054 C   0  0  0  0  0  0  0  0  0  0  0  0
  -30.4352  -19.6018   19.0934 C   0  0  0  0  0  0  0  0  0  0  0  0
  -29.7137  -22.1095   18.1065 C   0  0  0  0  0  0  0  0  0  0  0  0
  -23.8928  -11.6791   20.5620 C   0  0  0  0  0  0  0  0  0  0  0  0
  -26.8280  -27.7889   19.1937 C   0  0  0  0  0  0  0  0  0  0  0  0
  -22.1165  -11.4267   22.0796 C   0  0  0  0  0  0  0  0  0  0  0  0
  -21.1957  -11.4569   24.7129 C   0  0  0  0  0  0  0  0  0  0  0  0
  -29.3609  -20.9562   17.4056 C   0  0  0  0  0  0  0  0  0  0  0  0
  -30.4273  -22.0089   19.3008 C   0  0  0  0  0  0  0  0  0  0  0  0
  -21.5494  -10.2789   22.6333 C   0  0  0  0  0  0  0  0  0  0  0  0
  -27.9893  -12.5068   19.9050 C   0  0  0  0  0  0  0  0  0  0  0  0
  -30.0712  -12.4660   19.1985 C   0  0  0  0  0  0  0  0  0  0  0  0
  -28.6309  -10.6723   18.2205 C   0  0  0  0  0  0  0  0  0  0  0  0
  -22.2581  -29.7075   21.4072 C   0  0  0  0  0  0  0  0  0  0  0  0
  -23.2282  -32.6886   20.5740 C   0  0  0  0  0  0  0  0  0  0  0  0
  -25.5800  -34.6576   19.0777 C   0  0  0  0  0  0  0  0  0  0  0  0
  -31.5108  -18.0507   20.7617 C   0  0  0  0  0  0  0  0  0  0  0  0
  -17.8469  -29.4046   23.9581 C   0  0  0  0  0  0  0  0  0  0  0  0
  -24.6081  -29.7453   22.3194 C   0  0  0  0  0  0  0  0  0  0  0  0
  -24.4912  -30.7620   19.5450 C   0  0  0  0  0  0  0  0  0  0  0  0
  -18.4211  -30.3132   22.8741 C   0  0  0  0  0  0  0  0  0  0  0  0
  -32.5791  -15.0511   22.3548 C   0  0  0  0  0  0  0  0  0  0  0  0
  -19.0310  -29.4827   21.7493 C   0  0  0  0  0  0  0  0  0  0  0  0
  -31.6075  -13.9937   21.8256 C   0  0  0  0  0  0  0  0  0  0  0  0
  -31.8886  -16.3956   22.5763 C   0  0  0  0  0  0  0  0  0  0  0  0
  -30.1776  -15.8548   20.8883 C   0  0  0  0  0  0  0  0  0  0  0  0
  -20.1903  -28.6218   22.2654 C   0  0  1  0  0  0  0  0  0  0  0  0
  -23.4243  -30.5636   21.8132 C   0  0  1  0  0  0  0  0  0  0  0  0
  -30.8417  -14.5011   20.5881 C   0  0  2  0  0  0  0  0  0  0  0  0
  -26.0776  -37.0529   18.5189 C   0  0  0  0  0  0  0  0  0  0  0  0
  -21.2017  -32.5756   18.2958 C   0  0  0  0  0  0  0  0  0  0  0  0
  -22.3824  -34.5158   17.2422 C   0  0  0  0  0  0  0  0  0  0  0  0
  -21.3158  -34.7741   19.4824 C   0  0  0  0  0  0  0  0  0  0  0  0
  -28.0504  -34.6456   20.7074 C   0  0  0  0  0  0  0  0  0  0  0  0
  -27.8241  -25.1410   16.9629 C   0  0  0  0  0  0  0  0  0  0  0  0
  -28.0810  -23.6394   17.0023 C   0  0  0  0  0  0  0  0  0  0  0  0
  -27.7601  -25.7703   18.3496 C   0  0  0  0  0  0  0  0  0  1  0  0
  -23.4393  -33.4186   19.2696 C   0  0  1  0  0  0  0  0  0  0  0  0
  -26.2621  -35.9349   19.5332 C   0  0  2  0  0  0  0  0  0  0  0  0
  -22.0989  -33.7971   18.5786 C   0  0  0  0  0  0  0  0  0  0  0  0
  -28.5768  -13.5268   20.5362 N   0  0  0  0  0  0  0  0  0  0  0  0
  -29.8421  -13.4760   20.0861 N   0  0  0  0  0  0  0  0  0  0  0  0
  -23.7654  -31.3962   20.6579 N   0  0  0  0  0  0  0  0  0  0  0  0
  -31.1875  -16.8149   21.3608 N   0  0  0  0  0  0  0  0  0  0  0  0
  -31.2883  -12.2715   18.6479 N   0  0  0  0  0  0  0  0  0  0  0  0
  -27.3418  -10.1228   18.1951 N   0  0  0  0  0  0  0  0  0  0  0  0
  -30.8025  -18.3277   19.5929 N   0  0  0  0  0  0  0  0  0  0  0  0
  -29.3561  -23.3554   17.6152 N   0  0  0  0  0  0  0  0  0  0  0  0
  -21.3804  -29.4272   22.4371 N   0  0  0  0  0  0  0  0  0  0  0  0
  -24.2974  -34.5585   19.5740 N   0  0  0  0  0  0  0  0  0  0  0  0
  -27.7228  -35.7045   19.7182 N   0  3  0  0  0  0  0  0  0  0  0  0
  -29.5356  -10.1478   17.5276 O   0  0  0  0  0  0  0  0  0  0  0  0
  -22.1611  -29.3303   20.2453 O   0  0  0  0  0  0  0  0  0  0  0  0
  -22.6157  -33.2472   21.4874 O   0  0  0  0  0  0  0  0  0  0  0  0
  -26.1287  -33.8321   18.3509 O   0  0  0  0  0  0  0  0  0  0  0  0
  -32.3735  -18.7952   21.2346 O   0  0  0  0  0  0  0  0  0  0  0  0
  -22.5747  -11.4132   20.7729 O   0  0  0  0  0  0  0  0  0  0  0  0
  -27.5347  -27.1722   18.2077 O   0  0  0  0  0  0  0  0  0  1  0  0
  -20.7551  -11.4710   25.9777 F   0  0  0  0  0  0  0  0  0  0  0  0
  -28.6757  -21.0417   16.2565 F   0  0  0  0  0  0  0  0  0  0  0  0
  -30.7726  -23.1109   19.9817 F   0  0  0  0  0  0  0  0  0  0  0  0
  -21.4452   -9.1584   21.9057 F   0  0  0  0  0  0  0  0  0  0  0  0
  1  2  1  0  0  0  0
  1  5  2  0  0  0  0
  2  6  2  0  0  0  0
  3  8  2  0  0  0  0
  3 17  1  0  0  0  0
  4  9  1  0  0  0  0
  4 17  2  0  0  0  0
  5 19  1  0  0  0  0
  6 21  1  0  0  0  0
  7 10  2  0  0  0  0
  7 20  1  0  0  0  0
  8 25  1  0  0  0  0
  9 25  2  0  0  0  0
 10 26  1  0  0  0  0
 11 12  2  0  0  0  0
 11 27  1  0  0  0  0
 12 28  1  0  0  0  0
 13 22  1  0  0  0  0
 13 26  2  0  0  0  0
 14 23  1  0  0  0  0
 14 29  2  0  0  0  0
 15 23  2  0  0  0  0
 15 30  1  0  0  0  0
 16 28  2  0  0  0  0
 16 31  1  0  0  0  0
 17 32  1  0  0  0  0
 18 32  1  0  0  0  0
 18 33  2  0  0  0  0
 18 34  1  0  0  0  0
 19 21  2  0  0  0  0
 19 39  1  0  0  0  0
 20 22  2  0  0  0  0
 20 40  1  0  0  0  0
 21 48  1  0  0  0  0
 22 41  1  0  0  0  0
 23 68  1  0  0  0  0
 24 29  1  0  0  0  0
 24 30  2  0  0  0  0
 24 69  1  0  0  0  0
 25 78  1  0  0  0  0
 26 79  1  0  0  0  0
 27 31  2  0  0  0  0
 27 78  1  0  0  0  0
 28 80  1  0  0  0  0
 29 81  1  0  0  0  0
 30 82  1  0  0  0  0
 31 83  1  0  0  0  0
 32 62  2  0  0  0  0
 33 63  1  0  0  0  0
 33 66  1  0  0  0  0
 34 67  1  0  0  0  0
 34 73  2  0  0  0  0
 35 49  1  0  0  0  0
 35 70  1  0  0  0  0
 35 74  2  0  0  0  0
 36 59  1  0  0  0  0
 36 64  1  0  0  0  0
 36 75  2  0  0  0  0
 37 60  1  0  0  0  0
 37 71  1  0  0  0  0
 37 76  2  0  0  0  0
 38 65  1  0  0  0  0
 38 68  1  0  0  0  0
 38 77  2  0  0  0  0
 39 42  1  0  0  0  0
 40 49  1  0  0  0  0
 41 64  1  0  0  0  0
 42 44  1  0  0  0  0
 43 45  1  0  0  0  0
 43 46  1  0  0  0  0
 44 48  1  0  0  0  0
 45 50  1  0  0  0  0
 46 65  1  0  0  0  0
 47 50  1  0  0  0  0
 47 65  1  0  0  0  0
 48 70  1  0  0  0  0
 49 64  1  0  0  0  0
 50 63  1  0  0  0  0
 51 60  1  0  0  0  0
 52 61  1  0  0  0  0
 53 61  1  0  0  0  0
 54 61  1  0  0  0  0
 55 72  1  0  0  0  0
 56 57  1  0  0  0  0
 56 58  1  0  0  0  0
 57 69  1  0  0  0  0
 58 79  1  0  0  0  0
 59 61  1  0  0  0  0
 59 71  1  0  0  0  0
 60 72  1  0  0  0  0
 62 63  1  0  0  0  0
M  CHG  1  72   1
M  ISO  4  38 100  58 101  68 100  79 101
M  END
> <Batch ID>
0010

> <Smiles>
CNC(C)C(=O)NC(C(=O)N1Cc2cc([101O:1][101CH2:1]CCNc3c(F)cc([100NH:0][100C:0](=O)N4CCCC(n5nc(-c6ccc(Oc7ccc(F)cc7F)cc6)c(C(N)=O)c5N)C4)cc3F)ccc2CC1C(=O)NC1CCCc2ccccc21)C(C)(C)C

> <Shape>
0.254

> <Color>
0.094

> <Negative vol penalty>
0.000

$$$$

  -OEChem-04052315413D

 83 91  0     1  0  0  0  0  0999 V2000
  -28.0667  -31.6684   28.1077 C   0  0  0  0  0  0  0  0  0  0  0  0
  -28.2617  -30.7530   27.0784 C   0  0  0  0  0  0  0  0  0  0  0  0
  -24.3972   -9.0445   21.4349 C   0  0  0  0  0  0  0  0  0  0  0  0
  -23.9346  -10.8276   22.9982 C   0  0  0  0  0  0  0  0  0  0  0  0
  -26.7779  -32.0965   28.4233 C   0  0  0  0  0  0  0  0  0  0  0  0
  -27.1679  -30.2643   26.3648 C   0  0  0  0  0  0  0  0  0  0  0  0
  -27.0031  -28.8122   20.4175 C   0  0  0  0  0  0  0  0  0  0  0  0
  -23.8859   -8.1165   22.3421 C   0  0  0  0  0  0  0  0  0  0  0  0
  -23.4232   -9.8995   23.9053 C   0  0  0  0  0  0  0  0  0  0  0  0
  -27.1092  -27.5951   19.7459 C   0  0  0  0  0  0  0  0  0  0  0  0
  -22.3706   -5.3192   24.1010 C   0  0  0  0  0  0  0  0  0  0  0  0
  -21.5063   -4.3407   23.6100 C   0  0  0  0  0  0  0  0  0  0  0  0
  -24.7035  -27.4371   19.6646 C   0  0  0  0  0  0  0  0  0  0  0  0
  -29.3845  -19.2371   19.4764 C   0  0  0  0  0  0  0  0  0  0  0  0
  -26.9720  -20.4832   18.8363 C   0  0  0  0  0  0  0  0  0  0  0  0
  -19.9809   -6.0608   22.8673 C   0  0  0  0  0  0  0  0  0  0  0  0
  -24.4216  -10.4000   21.7630 C   0  0  0  0  0  0  0  0  0  0  0  0
  -24.2407  -12.0515   19.8271 C   0  0  0  0  0  0  0  0  0  0  0  0
  -25.6686  -31.6201   27.7069 C   0  0  0  0  0  0  0  0  0  0  0  0
  -25.7443  -29.3465   20.7280 C   0  0  0  0  0  0  0  0  0  0  0  0
  -25.8629  -30.6854   26.6721 C   0  0  0  0  0  0  0  0  0  0  0  0
  -24.5841  -28.6624   20.3380 C   0  0  0  0  0  0  0  0  0  0  0  0
  -28.2670  -18.4681   19.1518 C   0  0  0  0  0  0  0  0  0  0  0  0
  -28.0896  -21.2522   19.1610 C   0  0  0  0  0  0  0  0  0  0  0  0
  -23.3989   -8.5440   23.5773 C   0  0  0  0  0  0  0  0  0  0  0  0
  -25.9594  -26.9059   19.3719 C   0  0  0  0  0  0  0  0  0  0  0  0
  -22.0401   -6.6685   23.9753 C   0  0  0  0  0  0  0  0  0  0  0  0
  -20.3115   -4.7115   22.9931 C   0  0  0  0  0  0  0  0  0  0  0  0
  -29.2958  -20.6292   19.4811 C   0  0  0  0  0  0  0  0  0  0  0  0
  -20.8453   -7.0393   23.3584 C   0  0  0  0  0  0  0  0  0  0  0  0
  -27.0608  -19.0912   18.8317 C   0  0  0  0  0  0  0  0  0  0  0  0
  -24.9503  -11.3591   20.8266 C   0  0  0  0  0  0  0  0  0  0  0  0
  -25.1875  -12.8354   19.2144 C   0  0  0  0  0  0  0  0  0  0  0  0
  -22.8501  -11.9914   19.4833 C   0  0  0  0  0  0  0  0  0  0  0  0
  -24.2190  -30.0764   23.4195 C   0  0  0  0  0  0  0  0  0  0  0  0
  -22.0097  -31.2924   21.3792 C   0  0  0  0  0  0  0  0  0  0  0  0
  -26.8803  -23.4407   18.8743 C   0  0  0  0  0  0  0  0  0  0  0  0
  -20.6310  -31.2781   18.2574 C   0  0  0  0  0  0  0  0  0  0  0  0
  -29.5315  -16.3104   19.4545 C   0  0  0  0  0  0  0  0  0  0  0  0
  -24.2902  -32.0759   28.1157 C   0  0  0  0  0  0  0  0  0  0  0  0
  -25.6467  -30.6735   21.4293 C   0  0  0  0  0  0  0  0  0  0  0  0
  -23.2089  -29.2030   20.6296 C   0  0  0  0  0  0  0  0  0  0  0  0
  -23.2192  -31.7951   27.0648 C   0  0  0  0  0  0  0  0  0  0  0  0
  -30.2336  -12.8234   19.6128 C   0  0  0  0  0  0  0  0  0  0  0  0
  -23.3474  -30.3686   26.5399 C   0  0  0  0  0  0  0  0  0  0  0  0
  -28.8633  -12.1885   19.8605 C   0  0  0  0  0  0  0  0  0  0  0  0
  -30.3835  -14.1539   20.3483 C   0  0  0  0  0  0  0  0  0  0  0  0
  -27.9433  -14.4925   20.3425 C   0  0  0  0  0  0  0  0  0  0  0  0
  -24.7040  -30.1512   25.8588 C   0  0  1  0  0  0  0  0  0  0  0  0
  -24.3164  -30.8726   22.1490 C   0  0  1  0  0  0  0  0  0  0  0  0
  -27.7212  -13.1819   19.5701 C   0  0  2  0  0  0  0  0  0  0  0  0
  -18.8152  -32.3552   16.9009 C   0  0  0  0  0  0  0  0  0  0  0  0
  -19.9282  -29.5824   22.8122 C   0  0  0  0  0  0  0  0  0  0  0  0
  -18.3901  -29.9522   20.8716 C   0  0  0  0  0  0  0  0  0  0  0  0
  -19.1629  -31.8925   22.2358 C   0  0  0  0  0  0  0  0  0  0  0  0
  -22.5754  -32.3870   16.3213 C   0  0  0  0  0  0  0  0  0  0  0  0
  -27.2083  -24.9172   18.9958 C   0  0  0  0  0  0  0  0  0  1  0  0
  -20.7901  -30.7479   20.6756 C   0  0  1  0  0  0  0  0  0  0  0  0
  -20.2801  -32.4078   17.3060 C   0  0  2  0  0  0  0  0  0  0  0  0
  -19.5936  -30.5323   21.6449 C   0  0  0  0  0  0  0  0  0  0  0  0
  -26.2477  -11.6752   20.8507 N   0  0  0  0  0  0  0  0  0  0  0  0
  -26.3610  -12.5749   19.8588 N   0  0  0  0  0  0  0  0  0  0  0  0
  -23.1657  -30.5010   21.3230 N   0  0  0  0  0  0  0  0  0  0  0  0
  -29.2685  -15.0454   20.0215 N   0  0  0  0  0  0  0  0  0  0  0  0
  -25.1225  -13.7153   18.1926 N   0  0  0  0  0  0  0  0  0  0  0  0
  -22.0175  -11.1333   20.2146 N   0  0  0  0  0  0  0  0  0  0  0  0
  -27.9968  -22.6643   19.1653 N   0  0  0  0  0  0  0  0  0  0  0  0
  -28.3920  -17.0567   19.1561 N   0  0  0  0  0  0  0  0  0  0  0  0
  -24.7035  -30.7340   24.5341 N   0  0  0  0  0  0  0  0  0  0  0  0
  -20.5103  -31.6643   19.5755 N   0  0  0  0  0  0  0  0  0  0  0  0
  -21.1121  -32.3236   16.0725 N   0  3  0  0  0  0  0  0  0  0  0  0
  -22.3634  -12.6661   18.5445 O   0  0  0  0  0  0  0  0  0  0  0  0
  -23.7384  -28.9495   23.3910 O   0  0  0  0  0  0  0  0  0  0  0  0
  -21.9412  -32.3831   21.9513 O   0  0  0  0  0  0  0  0  0  0  0  0
  -25.7597  -23.0554   18.5574 O   0  0  0  0  0  0  0  0  0  0  0  0
  -20.9740  -30.1633   17.8699 O   0  0  0  0  0  0  0  0  0  0  0  0
  -30.6819  -16.6916   19.2238 O   0  0  0  0  0  0  0  0  0  0  0  0
  -22.8996   -7.6388   24.4626 O   0  0  0  0  0  0  0  0  0  0  0  0
  -26.0601  -25.7174   18.7168 O   0  0  0  0  0  0  0  0  0  1  0  0
  -19.4823   -3.7718   22.5203 F   0  0  0  0  0  0  0  0  0  0  0  0
  -30.3763  -21.3584   19.7948 F   0  0  0  0  0  0  0  0  0  0  0  0
  -20.5229   -8.3340   23.2336 F   0  0  0  0  0  0  0  0  0  0  0  0
  -25.6525  -18.1766   18.4248 Cl  0  0  0  0  0  0  0  0  0  0  0  0
  1  2  1  0  0  0  0
  1  5  2  0  0  0  0
  2  6  2  0  0  0  0
  3  8  2  0  0  0  0
  3 17  1  0  0  0  0
  4  9  1  0  0  0  0
  4 17  2  0  0  0  0
  5 19  1  0  0  0  0
  6 21  1  0  0  0  0
  7 10  2  0  0  0  0
  7 20  1  0  0  0  0
  8 25  1  0  0  0  0
  9 25  2  0  0  0  0
 10 26  1  0  0  0  0
 11 12  2  0  0  0  0
 11 27  1  0  0  0  0
 12 28  1  0  0  0  0
 13 22  1  0  0  0  0
 13 26  2  0  0  0  0
 14 23  2  0  0  0  0
 14 29  1  0  0  0  0
 15 24  1  0  0  0  0
 15 31  2  0  0  0  0
 16 28  2  0  0  0  0
 16 30  1  0  0  0  0
 17 32  1  0  0  0  0
 18 32  1  0  0  0  0
 18 33  2  0  0  0  0
 18 34  1  0  0  0  0
 19 21  2  0  0  0  0
 19 40  1  0  0  0  0
 20 22  2  0  0  0  0
 20 41  1  0  0  0  0
 21 49  1  0  0  0  0
 22 42  1  0  0  0  0
 23 31  1  0  0  0  0
 23 68  1  0  0  0  0
 24 29  2  0  0  0  0
 24 67  1  0  0  0  0
 25 78  1  0  0  0  0
 26 79  1  0  0  0  0
 27 30  2  0  0  0  0
 27 78  1  0  0  0  0
 28 80  1  0  0  0  0
 29 81  1  0  0  0  0
 30 82  1  0  0  0  0
 31 83  1  0  0  0  0
 32 61  2  0  0  0  0
 33 62  1  0  0  0  0
 33 65  1  0  0  0  0
 34 66  1  0  0  0  0
 34 72  2  0  0  0  0
 35 50  1  0  0  0  0
 35 69  1  0  0  0  0
 35 73  2  0  0  0  0
 36 58  1  0  0  0  0
 36 63  1  0  0  0  0
 36 74  2  0  0  0  0
 37 57  1  0  0  0  0
 37 67  1  0  0  0  0
 37 75  2  0  0  0  0
 38 59  1  0  0  0  0
 38 70  1  0  0  0  0
 38 76  2  0  0  0  0
 39 64  1  0  0  0  0
 39 68  1  0  0  0  0
 39 77  2  0  0  0  0
 40 43  1  0  0  0  0
 41 50  1  0  0  0  0
 42 63  1  0  0  0  0
 43 45  1  0  0  0  0
 44 46  1  0  0  0  0
 44 47  1  0  0  0  0
 45 49  1  0  0  0  0
 46 51  1  0  0  0  0
 47 64  1  0  0  0  0
 48 51  1  0  0  0  0
 48 64  1  0  0  0  0
 49 69  1  0  0  0  0
 50 63  1  0  0  0  0
 51 62  1  0  0  0  0
 52 59  1  0  0  0  0
 53 60  1  0  0  0  0
 54 60  1  0  0  0  0
 55 60  1  0  0  0  0
 56 71  1  0  0  0  0
 57 79  1  0  0  0  0
 58 60  1  0  0  0  0
 58 70  1  0  0  0  0
 59 71  1  0  0  0  0
 61 62  1  0  0  0  0
M  CHG  1  71   1
M  ISO  4  39 100  57 101  68 100  79 101
M  END
> <Batch ID>
0010

> <Smiles>
CNC(C)C(=O)NC(C(=O)N1Cc2cc([101O:1][101CH2:1]C(=O)Nc3cc(Cl)c([100NH:0][100C:0](=O)N4CCCC(n5nc(-c6ccc(Oc7ccc(F)cc7F)cc6)c(C(N)=O)c5N)C4)cc3F)ccc2CC1C(=O)NC1CCCc2ccccc21)C(C)(C)C

> <Shape>
0.284

> <Color>
0.106

> <Negative vol penalty>
0.000

$$$$

  -OEChem-04052315413D

 84 93  0     1  0  0  0  0  0999 V2000
  -16.7425  -29.6279   23.8928 C   0  0  0  0  0  0  0  0  0  0  0  0
  -17.8555  -30.2336   24.4669 C   0  0  0  0  0  0  0  0  0  0  0  0
  -24.2348  -14.3636   20.2906 C   0  0  0  0  0  0  0  0  0  0  0  0
  -26.2398  -14.4407   21.6363 C   0  0  0  0  0  0  0  0  0  0  0  0
  -16.9064  -28.5396   23.0369 C   0  0  0  0  0  0  0  0  0  0  0  0
  -19.1332  -29.7507   24.1862 C   0  0  0  0  0  0  0  0  0  0  0  0
  -25.8935  -31.9809   23.3863 C   0  0  0  0  0  0  0  0  0  0  0  0
  -29.9230  -25.5308   22.6074 C   0  0  0  0  0  0  0  0  0  0  0  0
  -29.2573  -24.6355   21.7653 C   0  0  0  0  0  0  0  0  0  0  0  0
  -24.3506  -12.9767   20.1975 C   0  0  0  0  0  0  0  0  0  0  0  0
  -26.3556  -13.0538   21.5433 C   0  0  0  0  0  0  0  0  0  0  0  0
  -27.1796  -31.7089   23.8509 C   0  0  0  0  0  0  0  0  0  0  0  0
  -23.6922  -10.2864   22.1369 C   0  0  0  0  0  0  0  0  0  0  0  0
  -22.5398   -9.5251   22.3323 C   0  0  0  0  0  0  0  0  0  0  0  0
  -27.8997  -23.8224   23.6072 C   0  0  0  0  0  0  0  0  0  0  0  0
  -28.4515  -25.0081   25.8642 C   0  0  0  0  0  0  0  0  0  0  0  0
  -27.3466  -29.8728   22.2953 C   0  0  0  0  0  0  0  0  0  0  0  0
  -22.7627   -8.6162   20.1049 C   0  0  0  0  0  0  0  0  0  0  0  0
  -28.5569  -24.7168   24.4753 C   0  0  0  0  0  0  0  0  0  0  0  0
  -25.1795  -15.0956   21.0100 C   0  0  0  0  0  0  0  0  0  0  0  0
  -24.3714  -17.2601   22.0915 C   0  0  0  0  0  0  0  0  0  0  0  0
  -18.1873  -28.0491   22.7379 C   0  0  0  0  0  0  0  0  0  0  0  0
  -25.3193  -31.1928   22.3786 C   0  0  0  0  0  0  0  0  0  0  0  0
  -19.3143  -28.6539   23.3265 C   0  0  0  0  0  0  0  0  0  0  0  0
  -26.0542  -30.1385   21.8178 C   0  0  0  0  0  0  0  0  0  0  0  0
  -29.5514  -25.5487   23.9564 C   0  0  0  0  0  0  0  0  0  0  0  0
  -28.2610  -23.7935   22.2554 C   0  0  0  0  0  0  0  0  0  0  0  0
  -25.4110  -12.3218   20.8238 C   0  0  0  0  0  0  0  0  0  0  0  0
  -27.9052  -30.6529   23.3075 C   0  0  0  0  0  0  0  0  0  0  0  0
  -24.3798  -10.2126   20.9255 C   0  0  0  0  0  0  0  0  0  0  0  0
  -22.0751   -8.6900   21.3163 C   0  0  0  0  0  0  0  0  0  0  0  0
  -23.9151   -9.3775   19.9095 C   0  0  0  0  0  0  0  0  0  0  0  0
  -25.0608  -16.5284   21.1060 C   0  0  0  0  0  0  0  0  0  0  0  0
  -29.3671  -25.9926   26.1562 C   0  0  0  0  0  0  0  0  0  0  0  0
  -24.5593  -18.5739   21.7378 C   0  0  0  0  0  0  0  0  0  0  0  0
  -23.6278  -16.7939   23.2252 C   0  0  0  0  0  0  0  0  0  0  0  0
  -22.7676  -29.3073   22.1859 C   0  0  0  0  0  0  0  0  0  0  0  0
  -23.5994  -29.1560   19.0542 C   0  0  0  0  0  0  0  0  0  0  0  0
  -26.0435  -29.4366   16.6890 C   0  0  0  0  0  0  0  0  0  0  0  0
  -27.8338  -22.7329   20.0106 C   0  0  0  0  0  0  0  0  0  0  0  0
  -18.3115  -26.8406   21.8442 C   0  0  0  0  0  0  0  0  0  0  0  0
  -23.9412  -31.5160   21.8697 C   0  0  0  0  0  0  0  0  0  0  0  0
  -25.4908  -29.2752   20.7198 C   0  0  0  0  0  0  0  0  0  0  0  0
  -19.7226  -26.6257   21.3031 C   0  0  0  0  0  0  0  0  0  0  0  0
  -26.4554  -20.6079   17.5083 C   0  0  0  0  0  0  0  0  0  0  0  0
  -20.7504  -26.7660   22.4214 C   0  0  0  0  0  0  0  0  0  0  0  0
  -25.9130  -19.4173   18.3023 C   0  0  0  0  0  0  0  0  0  0  0  0
  -27.7572  -21.1411   18.1039 C   0  0  0  0  0  0  0  0  0  0  0  0
  -27.1565  -20.2722   20.3296 C   0  0  0  0  0  0  0  0  0  0  0  0
  -20.7180  -28.1745   23.0269 C   0  0  1  0  0  0  0  0  0  0  0  0
  -23.2583  -30.3282   21.1987 C   0  0  1  0  0  0  0  0  0  0  0  0
  -25.8120  -19.7416   19.8057 C   0  0  2  0  0  0  0  0  0  0  0  0
  -29.6665  -26.6535   27.4432 C   0  0  0  0  0  0  0  0  0  0  0  0
  -26.4288  -29.2180   14.2189 C   0  0  0  0  0  0  0  0  0  0  0  0
  -23.5588  -26.1166   19.3194 C   0  0  0  0  0  0  0  0  0  0  0  0
  -24.8420  -25.9819   17.1738 C   0  0  0  0  0  0  0  0  0  0  0  0
  -22.5614  -26.9923   17.1997 C   0  0  0  0  0  0  0  0  0  0  0  0
  -26.8532  -32.2729   16.4468 C   0  0  0  0  0  0  0  0  0  0  0  0
  -30.5938  -28.7865   24.8308 C   0  0  0  0  0  0  0  0  0  0  0  0
  -31.1147  -27.3485   24.8831 C   0  0  0  0  0  0  0  0  0  0  0  0
  -29.5937  -29.0262   23.7057 C   0  0  0  0  0  0  0  0  0  1  0  0
  -24.4913  -28.2620   18.2270 C   0  0  1  0  0  0  0  0  0  0  0  0
  -26.0773  -30.1637   15.3568 C   0  0  2  0  0  0  0  0  0  0  0  0
  -23.8735  -26.8531   18.0020 C   0  0  0  0  0  0  0  0  0  0  0  0
  -25.6429  -17.3123   20.1946 N   0  0  0  0  0  0  0  0  0  0  0  0
  -30.0255  -26.3123   24.9991 N   0  0  0  0  0  0  0  0  0  0  0  0
  -25.3198  -18.5502   20.6059 N   0  0  0  0  0  0  0  0  0  0  0  0
  -24.1370  -29.6270   20.2605 N   0  0  0  0  0  0  0  0  0  0  0  0
  -27.5847  -21.4302   19.5293 N   0  0  0  0  0  0  0  0  0  0  0  0
  -24.1464  -19.7356   22.2877 N   0  0  0  0  0  0  0  0  0  0  0  0
  -23.5351  -15.4122   23.4412 N   0  0  0  0  0  0  0  0  0  0  0  0
  -27.6048  -22.8965   21.3764 N   0  0  0  0  0  0  0  0  0  0  0  0
  -21.3997  -29.1127   22.1611 N   0  0  0  0  0  0  0  0  0  0  0  0
  -24.7746  -28.9936   16.9969 N   0  0  0  0  0  0  0  0  0  0  0  0
  -27.0896  -31.2570   15.3890 N   0  3  0  0  0  0  0  0  0  0  0  0
  -23.0486  -17.5788   24.0139 O   0  0  0  0  0  0  0  0  0  0  0  0
  -23.5706  -28.7371   22.9151 O   0  0  0  0  0  0  0  0  0  0  0  0
  -22.4701  -29.4321   18.6419 O   0  0  0  0  0  0  0  0  0  0  0  0
  -27.0435  -29.2744   17.3849 O   0  0  0  0  0  0  0  0  0  0  0  0
  -28.1955  -23.6436   19.2610 O   0  0  0  0  0  0  0  0  0  0  0  0
  -25.5241  -10.9684   20.7334 O   0  0  0  0  0  0  0  0  0  0  0  0
  -29.1604  -30.3847   23.7596 O   0  0  0  0  0  0  0  0  0  1  0  0
  -20.9693   -7.9579   21.5046 F   0  0  0  0  0  0  0  0  0  0  0  0
  -24.5721   -9.3015   18.7440 F   0  0  0  0  0  0  0  0  0  0  0  0
  1  2  1  0  0  0  0
  1  5  2  0  0  0  0
  2  6  2  0  0  0  0
  3 10  2  0  0  0  0
  3 20  1  0  0  0  0
  4 11  1  0  0  0  0
  4 20  2  0  0  0  0
  5 22  1  0  0  0  0
  6 24  1  0  0  0  0
  7 12  2  0  0  0  0
  7 23  1  0  0  0  0
  8  9  2  0  0  0  0
  8 26  1  0  0  0  0
  9 27  1  0  0  0  0
 10 28  1  0  0  0  0
 11 28  2  0  0  0  0
 12 29  1  0  0  0  0
 13 14  2  0  0  0  0
 13 30  1  0  0  0  0
 14 31  1  0  0  0  0
 15 19  1  0  0  0  0
 15 27  2  0  0  0  0
 16 19  1  0  0  0  0
 16 34  2  0  0  0  0
 17 25  1  0  0  0  0
 17 29  2  0  0  0  0
 18 31  2  0  0  0  0
 18 32  1  0  0  0  0
 19 26  2  0  0  0  0
 20 33  1  0  0  0  0
 21 33  1  0  0  0  0
 21 35  2  0  0  0  0
 21 36  1  0  0  0  0
 22 24  2  0  0  0  0
 22 41  1  0  0  0  0
 23 25  2  0  0  0  0
 23 42  1  0  0  0  0
 24 50  1  0  0  0  0
 25 43  1  0  0  0  0
 26 66  1  0  0  0  0
 27 72  1  0  0  0  0
 28 81  1  0  0  0  0
 29 82  1  0  0  0  0
 30 32  2  0  0  0  0
 30 81  1  0  0  0  0
 31 83  1  0  0  0  0
 32 84  1  0  0  0  0
 33 65  2  0  0  0  0
 34 53  1  0  0  0  0
 34 66  1  0  0  0  0
 35 67  1  0  0  0  0
 35 70  1  0  0  0  0
 36 71  1  0  0  0  0
 36 76  2  0  0  0  0
 37 51  1  0  0  0  0
 37 73  1  0  0  0  0
 37 77  2  0  0  0  0
 38 62  1  0  0  0  0
 38 68  1  0  0  0  0
 38 78  2  0  0  0  0
 39 63  1  0  0  0  0
 39 74  1  0  0  0  0
 39 79  2  0  0  0  0
 40 69  1  0  0  0  0
 40 72  1  0  0  0  0
 40 80  2  0  0  0  0
 41 44  1  0  0  0  0
 42 51  1  0  0  0  0
 43 68  1  0  0  0  0
 44 46  1  0  0  0  0
 45 47  1  0  0  0  0
 45 48  1  0  0  0  0
 46 50  1  0  0  0  0
 47 52  1  0  0  0  0
 48 69  1  0  0  0  0
 49 52  1  0  0  0  0
 49 69  1  0  0  0  0
 50 73  1  0  0  0  0
 51 68  1  0  0  0  0
 52 67  1  0  0  0  0
 54 63  1  0  0  0  0
 55 64  1  0  0  0  0
 56 64  1  0  0  0  0
 57 64  1  0  0  0  0
 58 75  1  0  0  0  0
 59 60  1  0  0  0  0
 59 61  1  0  0  0  0
 60 66  1  0  0  0  0
 61 82  1  0  0  0  0
 62 64  1  0  0  0  0
 62 74  1  0  0  0  0
 63 75  1  0  0  0  0
 65 67  1  0  0  0  0
M  CHG  1  75   1
M  ISO  4  40 100  61 101  72 100  82 101
M  END
> <Batch ID>
0010

> <Smiles>
CNC(C)C(=O)NC(C(=O)N1Cc2cc([101O:1][101CH2:1]CCn3c(C)cc4cc([100NH:0][100C:0](=O)N5CCCC(n6nc(-c7ccc(Oc8ccc(F)cc8F)cc7)c(C(N)=O)c6N)C5)ccc43)ccc2CC1C(=O)NC1CCCc2ccccc21)C(C)(C)C

> <Shape>
0.243

> <Color>
0.133

> <Negative vol penalty>
0.000

$$$$

  -OEChem-04052315413D

 82 90  0     1  0  0  0  0  0999 V2000
  -24.5268  -32.0720   29.0821 C   0  0  0  0  0  0  0  0  0  0  0  0
  -25.2840  -31.2190   28.2855 C   0  0  0  0  0  0  0  0  0  0  0  0
  -24.5984   -8.9787   21.5700 C   0  0  0  0  0  0  0  0  0  0  0  0
  -23.9008  -10.6934   23.1225 C   0  0  0  0  0  0  0  0  0  0  0  0
  -23.2114  -32.3697   28.7284 C   0  0  0  0  0  0  0  0  0  0  0  0
  -24.7258  -30.6623   27.1354 C   0  0  0  0  0  0  0  0  0  0  0  0
  -27.6024  -29.4358   21.8697 C   0  0  0  0  0  0  0  0  0  0  0  0
  -28.2621  -21.0361   19.7787 C   0  0  0  0  0  0  0  0  0  0  0  0
  -28.5026  -19.6622   19.7733 C   0  0  0  0  0  0  0  0  0  0  0  0
  -24.1653   -7.9963   22.4605 C   0  0  0  0  0  0  0  0  0  0  0  0
  -23.4676   -9.7110   24.0130 C   0  0  0  0  0  0  0  0  0  0  0  0
  -28.1386  -28.2605   21.3455 C   0  0  0  0  0  0  0  0  0  0  0  0
  -22.9135   -5.0426   24.1703 C   0  0  0  0  0  0  0  0  0  0  0  0
  -22.1747   -3.9785   23.6530 C   0  0  0  0  0  0  0  0  0  0  0  0
  -26.1013  -27.8899   20.1082 C   0  0  0  0  0  0  0  0  0  0  0  0
  -25.9869  -20.6408   19.0685 C   0  0  0  0  0  0  0  0  0  0  0  0
  -20.4933   -5.5266   22.8699 C   0  0  0  0  0  0  0  0  0  0  0  0
  -24.4661  -10.3273   21.9010 C   0  0  0  0  0  0  0  0  0  0  0  0
  -24.1619  -11.9587   19.9637 C   0  0  0  0  0  0  0  0  0  0  0  0
  -22.6399  -31.8239   27.5681 C   0  0  0  0  0  0  0  0  0  0  0  0
  -26.3052  -29.8420   21.5250 C   0  0  0  0  0  0  0  0  0  0  0  0
  -23.4011  -30.9518   26.7666 C   0  0  0  0  0  0  0  0  0  0  0  0
  -25.5518  -29.0721   20.6274 C   0  0  0  0  0  0  0  0  0  0  0  0
  -27.0043  -21.5255   19.4263 C   0  0  0  0  0  0  0  0  0  0  0  0
  -27.4852  -18.7775   19.4155 C   0  0  0  0  0  0  0  0  0  0  0  0
  -23.5999   -8.3624   23.6819 C   0  0  0  0  0  0  0  0  0  0  0  0
  -27.3870  -27.4858   20.4669 C   0  0  0  0  0  0  0  0  0  0  0  0
  -22.4421   -6.3487   24.0375 C   0  0  0  0  0  0  0  0  0  0  0  0
  -20.9647   -4.2205   23.0027 C   0  0  0  0  0  0  0  0  0  0  0  0
  -21.2320   -6.5907   23.3873 C   0  0  0  0  0  0  0  0  0  0  0  0
  -26.2274  -19.2668   19.0630 C   0  0  0  0  0  0  0  0  0  0  0  0
  -24.9138  -11.3426   20.9819 C   0  0  0  0  0  0  0  0  0  0  0  0
  -25.0349  -12.8438   19.3798 C   0  0  0  0  0  0  0  0  0  0  0  0
  -22.7963  -11.7499   19.5801 C   0  0  0  0  0  0  0  0  0  0  0  0
  -23.6049  -30.3254   23.1308 C   0  0  0  0  0  0  0  0  0  0  0  0
  -22.5521  -31.4167   20.2632 C   0  0  0  0  0  0  0  0  0  0  0  0
  -27.6537  -23.9339   19.7603 C   0  0  0  0  0  0  0  0  0  0  0  0
  -22.8652  -31.4010   16.8649 C   0  0  0  0  0  0  0  0  0  0  0  0
  -28.9674  -16.7682   19.7505 C   0  0  0  0  0  0  0  0  0  0  0  0
  -21.1989  -32.1373   27.2522 C   0  0  0  0  0  0  0  0  0  0  0  0
  -25.7513  -31.1263   22.0783 C   0  0  0  0  0  0  0  0  0  0  0  0
  -24.1619  -29.4748   20.2097 C   0  0  0  0  0  0  0  0  0  0  0  0
  -20.8035  -31.8027   25.8162 C   0  0  0  0  0  0  0  0  0  0  0  0
  -30.0392  -13.3773   19.9227 C   0  0  0  0  0  0  0  0  0  0  0  0
  -21.3084  -30.4153   25.4330 C   0  0  0  0  0  0  0  0  0  0  0  0
  -28.7394  -12.5963   20.1298 C   0  0  0  0  0  0  0  0  0  0  0  0
  -30.0228  -14.7126   20.6645 C   0  0  0  0  0  0  0  0  0  0  0  0
  -27.5615  -14.7845   20.5894 C   0  0  0  0  0  0  0  0  0  0  0  0
  -22.8390  -30.3478   25.4980 C   0  0  1  0  0  0  0  0  0  0  0  0
  -24.2266  -31.1764   22.0598 C   0  0  1  0  0  0  0  0  0  0  0  0
  -27.5049  -13.4613   19.8086 C   0  0  2  0  0  0  0  0  0  0  0  0
  -21.8372  -32.3627   14.7875 C   0  0  0  0  0  0  0  0  0  0  0  0
  -20.2156  -29.4715   20.5218 C   0  0  0  0  0  0  0  0  0  0  0  0
  -19.7810  -29.7772   18.0751 C   0  0  0  0  0  0  0  0  0  0  0  0
  -19.6032  -31.7241   19.6246 C   0  0  0  0  0  0  0  0  0  0  0  0
  -25.3846  -32.7556   16.1057 C   0  0  0  0  0  0  0  0  0  0  0  0
  -26.9893  -25.2926   19.6375 C   0  0  0  0  0  0  0  0  0  1  0  0
  -21.8851  -30.7927   19.0613 C   0  0  1  0  0  0  0  0  0  0  0  0
  -22.9100  -32.5310   15.8522 C   0  0  2  0  0  0  0  0  0  0  0  0
  -20.3967  -30.4325   19.3299 C   0  0  0  0  0  0  0  0  0  0  0  0
  -26.1681  -11.7975   21.0438 N   0  0  0  0  0  0  0  0  0  0  0  0
  -26.2110  -12.7089   20.0571 N   0  0  0  0  0  0  0  0  0  0  0  0
  -23.6620  -30.7355   20.7827 N   0  0  0  0  0  0  0  0  0  0  0  0
  -28.8273  -15.4794   20.3075 N   0  0  0  0  0  0  0  0  0  0  0  0
  -24.9037  -13.7164   18.3581 N   0  0  0  0  0  0  0  0  0  0  0  0
  -22.0414  -10.8029   20.2856 N   0  0  0  0  0  0  0  0  0  0  0  0
  -26.7607  -22.9194   19.4326 N   0  0  0  0  0  0  0  0  0  0  0  0
  -27.7625  -17.3880   19.4209 N   0  0  0  0  0  0  0  0  0  0  0  0
  -23.4227  -30.9797   24.3342 N   0  0  0  0  0  0  0  0  0  0  0  0
  -22.0846  -31.7227   17.9551 N   0  0  0  0  0  0  0  0  0  0  0  0
  -24.2387  -32.5705   15.1786 N   0  3  0  0  0  0  0  0  0  0  0  0
  -22.2660  -12.3724   18.6288 O   0  0  0  0  0  0  0  0  0  0  0  0
  -23.3109  -29.1618   22.8832 O   0  0  0  0  0  0  0  0  0  0  0  0
  -22.1091  -32.4735   20.7199 O   0  0  0  0  0  0  0  0  0  0  0  0
  -28.8246  -23.8203   20.1074 O   0  0  0  0  0  0  0  0  0  0  0  0
  -23.4600  -30.3377   16.7032 O   0  0  0  0  0  0  0  0  0  0  0  0
  -30.0757  -17.2731   19.5535 O   0  0  0  0  0  0  0  0  0  0  0  0
  -23.1770   -7.4041   24.5510 O   0  0  0  0  0  0  0  0  0  0  0  0
  -27.9078  -26.3378   19.9543 O   0  0  0  0  0  0  0  0  0  1  0  0
  -20.2561   -3.1987   22.5046 F   0  0  0  0  0  0  0  0  0  0  0  0
  -20.7746   -7.8434   23.2556 F   0  0  0  0  0  0  0  0  0  0  0  0
  -24.9398  -18.2060   18.6138 Cl  0  0  0  0  0  0  0  0  0  0  0  0
  1  2  1  0  0  0  0
  1  5  2  0  0  0  0
  2  6  2  0  0  0  0
  3 10  2  0  0  0  0
  3 18  1  0  0  0  0
  4 11  1  0  0  0  0
  4 18  2  0  0  0  0
  5 20  1  0  0  0  0
  6 22  1  0  0  0  0
  7 12  2  0  0  0  0
  7 21  1  0  0  0  0
  8  9  2  0  0  0  0
  8 24  1  0  0  0  0
  9 25  1  0  0  0  0
 10 26  1  0  0  0  0
 11 26  2  0  0  0  0
 12 27  1  0  0  0  0
 13 14  2  0  0  0  0
 13 28  1  0  0  0  0
 14 29  1  0  0  0  0
 15 23  1  0  0  0  0
 15 27  2  0  0  0  0
 16 24  2  0  0  0  0
 16 31  1  0  0  0  0
 17 29  2  0  0  0  0
 17 30  1  0  0  0  0
 18 32  1  0  0  0  0
 19 32  1  0  0  0  0
 19 33  2  0  0  0  0
 19 34  1  0  0  0  0
 20 22  2  0  0  0  0
 20 40  1  0  0  0  0
 21 23  2  0  0  0  0
 21 41  1  0  0  0  0
 22 49  1  0  0  0  0
 23 42  1  0  0  0  0
 24 67  1  0  0  0  0
 25 31  2  0  0  0  0
 25 68  1  0  0  0  0
 26 78  1  0  0  0  0
 27 79  1  0  0  0  0
 28 30  2  0  0  0  0
 28 78  1  0  0  0  0
 29 80  1  0  0  0  0
 30 81  1  0  0  0  0
 31 82  1  0  0  0  0
 32 61  2  0  0  0  0
 33 62  1  0  0  0  0
 33 65  1  0  0  0  0
 34 66  1  0  0  0  0
 34 72  2  0  0  0  0
 35 50  1  0  0  0  0
 35 69  1  0  0  0  0
 35 73  2  0  0  0  0
 36 58  1  0  0  0  0
 36 63  1  0  0  0  0
 36 74  2  0  0  0  0
 37 57  1  0  0  0  0
 37 67  1  0  0  0  0
 37 75  2  0  0  0  0
 38 59  1  0  0  0  0
 38 70  1  0  0  0  0
 38 76  2  0  0  0  0
 39 64  1  0  0  0  0
 39 68  1  0  0  0  0
 39 77  2  0  0  0  0
 40 43  1  0  0  0  0
 41 50  1  0  0  0  0
 42 63  1  0  0  0  0
 43 45  1  0  0  0  0
 44 46  1  0  0  0  0
 44 47  1  0  0  0  0
 45 49  1  0  0  0  0
 46 51  1  0  0  0  0
 47 64  1  0  0  0  0
 48 51  1  0  0  0  0
 48 64  1  0  0  0  0
 49 69  1  0  0  0  0
 50 63  1  0  0  0  0
 51 62  1  0  0  0  0
 52 59  1  0  0  0  0
 53 60  1  0  0  0  0
 54 60  1  0  0  0  0
 55 60  1  0  0  0  0
 56 71  1  0  0  0  0
 57 79  1  0  0  0  0
 58 60  1  0  0  0  0
 58 70  1  0  0  0  0
 59 71  1  0  0  0  0
 61 62  1  0  0  0  0
M  CHG  1  71   1
M  ISO  4  39 100  57 101  68 100  79 101
M  END
> <Batch ID>
0010

> <Smiles>
CNC(C)C(=O)NC(C(=O)N1Cc2cc([101O:1][101CH2:1]C(=O)Nc3ccc([100NH:0][100C:0](=O)N4CCCC(n5nc(-c6ccc(Oc7ccc(F)cc7F)cc6)c(C(N)=O)c5N)C4)c(Cl)c3)ccc2CC1C(=O)NC1CCCc2ccccc21)C(C)(C)C

> <Shape>
0.256

> <Color>
0.116

> <Negative vol penalty>
0.000

$$$$

  -OEChem-04052315413D

 83 91  0     1  0  0  0  0  0999 V2000
  -20.7070  -33.9165   15.3762 C   0  0  0  0  0  0  0  0  0  0  0  0
  -21.5300  -32.7999   15.4822 C   0  0  0  0  0  0  0  0  0  0  0  0
  -32.2564  -18.5006   21.1899 C   0  0  0  0  0  0  0  0  0  0  0  0
  -22.9327  -11.5986   21.5332 C   0  0  0  0  0  0  0  0  0  0  0  0
  -22.9220  -13.9949   21.2250 C   0  0  0  0  0  0  0  0  0  0  0  0
  -20.9190  -35.0184   16.2037 C   0  0  0  0  0  0  0  0  0  0  0  0
  -22.5662  -32.7849   16.4151 C   0  0  0  0  0  0  0  0  0  0  0  0
  -24.6134  -27.9492   19.5664 C   0  0  0  0  0  0  0  0  0  0  0  0
  -31.4568  -19.6085   20.9094 C   0  0  0  0  0  0  0  0  0  0  0  0
  -31.8228  -17.2214   20.8414 C   0  0  0  0  0  0  0  0  0  0  0  0
  -21.9161  -11.7160   22.4810 C   0  0  0  0  0  0  0  0  0  0  0  0
  -21.9053  -14.1122   22.1727 C   0  0  0  0  0  0  0  0  0  0  0  0
  -25.6987  -27.0954   19.3741 C   0  0  0  0  0  0  0  0  0  0  0  0
  -18.5582  -13.6644   22.3011 C   0  0  0  0  0  0  0  0  0  0  0  0
  -17.4842  -14.5009   21.9971 C   0  0  0  0  0  0  0  0  0  0  0  0
  -27.0050  -28.4198   20.9098 C   0  0  0  0  0  0  0  0  0  0  0  0
  -29.7899  -18.1581   19.9321 C   0  0  0  0  0  0  0  0  0  0  0  0
  -17.9817  -15.8461   23.9414 C   0  0  0  0  0  0  0  0  0  0  0  0
  -23.4357  -12.7381   20.9052 C   0  0  0  0  0  0  0  0  0  0  0  0
  -24.3382  -12.4385   18.5380 C   0  0  0  0  0  0  0  0  0  0  0  0
  -21.9523  -35.0131   17.1539 C   0  0  0  0  0  0  0  0  0  0  0  0
  -24.7194  -29.0528   20.4249 C   0  0  0  0  0  0  0  0  0  0  0  0
  -22.7931  -33.8883   17.2552 C   0  0  0  0  0  0  0  0  0  0  0  0
  -25.9188  -29.2846   21.1133 C   0  0  0  0  0  0  0  0  0  0  0  0
  -30.2236  -19.4373   20.2805 C   0  0  0  0  0  0  0  0  0  0  0  0
  -30.5896  -17.0501   20.2126 C   0  0  0  0  0  0  0  0  0  0  0  0
  -21.4024  -12.9727   22.8007 C   0  0  0  0  0  0  0  0  0  0  0  0
  -26.8956  -27.3323   20.0436 C   0  0  0  0  0  0  0  0  0  0  0  0
  -19.3439  -13.9186   23.4253 C   0  0  0  0  0  0  0  0  0  0  0  0
  -17.1960  -15.5918   22.8172 C   0  0  0  0  0  0  0  0  0  0  0  0
  -19.0557  -15.0095   24.2454 C   0  0  0  0  0  0  0  0  0  0  0  0
  -24.4863  -12.6176   19.9265 C   0  0  0  0  0  0  0  0  0  0  0  0
  -25.6245  -12.3836   18.0598 C   0  0  0  0  0  0  0  0  0  0  0  0
  -23.1445  -12.3315   17.7510 C   0  0  0  0  0  0  0  0  0  0  0  0
  -24.5009  -32.2035   20.0655 C   0  0  0  0  0  0  0  0  0  0  0  0
  -24.7528  -32.1982   23.2995 C   0  0  0  0  0  0  0  0  0  0  0  0
  -29.6888  -21.8983   20.2713 C   0  0  0  0  0  0  0  0  0  0  0  0
  -25.8009  -30.5901   26.1213 C   0  0  0  0  0  0  0  0  0  0  0  0
  -30.8213  -14.5459   20.0656 C   0  0  0  0  0  0  0  0  0  0  0  0
  -22.1724  -36.2463   17.9938 C   0  0  0  0  0  0  0  0  0  0  0  0
  -23.5311  -29.9490   20.6421 C   0  0  0  0  0  0  0  0  0  0  0  0
  -26.0777  -30.4439   22.0615 C   0  0  0  0  0  0  0  0  0  0  0  0
  -23.0573  -36.0025   19.2136 C   0  0  0  0  0  0  0  0  0  0  0  0
  -30.0581  -11.1378   19.3733 C   0  0  0  0  0  0  0  0  0  0  0  0
  -24.2963  -35.2029   18.8230 C   0  0  0  0  0  0  0  0  0  0  0  0
  -28.5294  -11.1154   19.3042 C   0  0  0  0  0  0  0  0  0  0  0  0
  -30.5634  -12.1035   20.4438 C   0  0  0  0  0  0  0  0  0  0  0  0
  -28.5053  -13.4474   20.2779 C   0  0  0  0  0  0  0  0  0  0  0  0
  -23.9122  -33.8244   18.2719 C   0  0  1  0  0  0  0  0  0  0  0  0
  -23.9139  -31.3378   21.1442 C   0  0  1  0  0  0  0  0  0  0  0  0
  -27.9505  -12.5375   19.1698 C   0  0  2  0  0  0  0  0  0  0  0  0
  -25.9023  -30.8514   28.6150 C   0  0  0  0  0  0  0  0  0  0  0  0
  -27.0700  -34.1602   22.9972 C   0  0  0  0  0  0  0  0  0  0  0  0
  -27.7210  -33.6473   25.3597 C   0  0  0  0  0  0  0  0  0  0  0  0
  -25.5021  -34.6789   24.8753 C   0  0  0  0  0  0  0  0  0  0  0  0
  -24.1313  -28.1857   26.5575 C   0  0  0  0  0  0  0  0  0  0  0  0
  -28.5472  -22.7873   19.7981 C   0  0  0  0  0  0  0  0  0  0  0  0
  -28.7992  -24.2651   20.0766 C   0  0  0  0  0  0  0  0  0  0  0  0
  -27.6675  -25.1371   19.5526 C   0  0  0  0  0  0  0  0  0  1  0  0
  -25.8969  -32.2530   24.2828 C   0  0  1  0  0  0  0  0  0  0  0  0
  -25.1024  -30.3110   27.4399 C   0  0  2  0  0  0  0  0  0  0  0  0
  -26.5454  -33.6640   24.3595 C   0  0  0  0  0  0  0  0  0  0  0  0
  -25.7658  -12.6726   20.3057 N   0  0  0  0  0  0  0  0  0  0  0  0
  -26.4334  -12.5272   19.1485 N   0  0  0  0  0  0  0  0  0  0  0  0
  -24.8892  -31.2953   22.2356 N   0  0  0  0  0  0  0  0  0  0  0  0
  -29.9763  -13.4312   20.2504 N   0  0  0  0  0  0  0  0  0  0  0  0
  -26.1313  -12.2269   16.8184 N   0  0  0  0  0  0  0  0  0  0  0  0
  -21.9058  -12.4089   18.4020 N   0  0  0  0  0  0  0  0  0  0  0  0
  -29.4131  -20.5619   19.9958 N   0  0  0  0  0  0  0  0  0  0  0  0
  -30.1497  -15.7505   19.8588 N   0  0  0  0  0  0  0  0  0  0  0  0
  -23.5640  -32.9271   19.3527 N   0  0  0  0  0  0  0  0  0  0  0  0
  -25.3670  -31.7691   25.5531 N   0  0  0  0  0  0  0  0  0  0  0  0
  -24.9212  -28.8440   27.6297 N   0  3  0  0  0  0  0  0  0  0  0  0
  -23.1756  -12.1555   16.5094 O   0  0  0  0  0  0  0  0  0  0  0  0
  -25.7142  -32.2153   19.8936 O   0  0  0  0  0  0  0  0  0  0  0  0
  -23.7709  -32.9245   23.4731 O   0  0  0  0  0  0  0  0  0  0  0  0
  -30.6885  -22.3562   20.8147 O   0  0  0  0  0  0  0  0  0  0  0  0
  -26.6493  -29.8392   25.6449 O   0  0  0  0  0  0  0  0  0  0  0  0
  -32.0500  -14.4353   20.0618 O   0  0  0  0  0  0  0  0  0  0  0  0
  -20.4102  -13.0876   23.7254 O   0  0  0  0  0  0  0  0  0  0  0  0
  -27.9567  -26.5009   19.8572 O   0  0  0  0  0  0  0  0  0  1  0  0
  -16.1657  -16.3960   22.5243 F   0  0  0  0  0  0  0  0  0  0  0  0
  -19.8076  -15.2595   25.3261 F   0  0  0  0  0  0  0  0  0  0  0  0
  1  2  1  0  0  0  0
  1  6  2  0  0  0  0
  2  7  2  0  0  0  0
  3  9  2  0  0  0  0
  3 10  1  0  0  0  0
  4 11  2  0  0  0  0
  4 19  1  0  0  0  0
  5 12  1  0  0  0  0
  5 19  2  0  0  0  0
  6 21  1  0  0  0  0
  7 23  1  0  0  0  0
  8 13  2  0  0  0  0
  8 22  1  0  0  0  0
  9 25  1  0  0  0  0
 10 26  2  0  0  0  0
 11 27  1  0  0  0  0
 12 27  2  0  0  0  0
 13 28  1  0  0  0  0
 14 15  2  0  0  0  0
 14 29  1  0  0  0  0
 15 30  1  0  0  0  0
 16 24  1  0  0  0  0
 16 28  2  0  0  0  0
 17 25  2  0  0  0  0
 17 26  1  0  0  0  0
 18 30  2  0  0  0  0
 18 31  1  0  0  0  0
 19 32  1  0  0  0  0
 20 32  1  0  0  0  0
 20 33  2  0  0  0  0
 20 34  1  0  0  0  0
 21 23  2  0  0  0  0
 21 40  1  0  0  0  0
 22 24  2  0  0  0  0
 22 41  1  0  0  0  0
 23 49  1  0  0  0  0
 24 42  1  0  0  0  0
 25 69  1  0  0  0  0
 26 70  1  0  0  0  0
 27 80  1  0  0  0  0
 28 81  1  0  0  0  0
 29 31  2  0  0  0  0
 29 80  1  0  0  0  0
 30 82  1  0  0  0  0
 31 83  1  0  0  0  0
 32 63  2  0  0  0  0
 33 64  1  0  0  0  0
 33 67  1  0  0  0  0
 34 68  1  0  0  0  0
 34 74  2  0  0  0  0
 35 50  1  0  0  0  0
 35 71  1  0  0  0  0
 35 75  2  0  0  0  0
 36 60  1  0  0  0  0
 36 65  1  0  0  0  0
 36 76  2  0  0  0  0
 37 57  1  0  0  0  0
 37 69  1  0  0  0  0
 37 77  2  0  0  0  0
 38 61  1  0  0  0  0
 38 72  1  0  0  0  0
 38 78  2  0  0  0  0
 39 66  1  0  0  0  0
 39 70  1  0  0  0  0
 39 79  2  0  0  0  0
 40 43  1  0  0  0  0
 41 50  1  0  0  0  0
 42 65  1  0  0  0  0
 43 45  1  0  0  0  0
 44 46  1  0  0  0  0
 44 47  1  0  0  0  0
 45 49  1  0  0  0  0
 46 51  1  0  0  0  0
 47 66  1  0  0  0  0
 48 51  1  0  0  0  0
 48 66  1  0  0  0  0
 49 71  1  0  0  0  0
 50 65  1  0  0  0  0
 51 64  1  0  0  0  0
 52 61  1  0  0  0  0
 53 62  1  0  0  0  0
 54 62  1  0  0  0  0
 55 62  1  0  0  0  0
 56 73  1  0  0  0  0
 57 58  1  0  0  0  0
 58 59  1  0  0  0  0
 59 81  1  0  0  0  0
 60 62  1  0  0  0  0
 60 72  1  0  0  0  0
 61 73  1  0  0  0  0
 63 64  1  0  0  0  0
M  CHG  1  73   1
M  ISO  4  39 100  59 101  70 100  81 101
M  END
> <Batch ID>
0010

> <Smiles>
CNC(C)C(=O)NC(C(=O)N1Cc2cc([101O:1][101CH2:1]CCC(=O)Nc3cccc([100NH:0][100C:0](=O)N4CCCC(n5nc(-c6ccc(Oc7ccc(F)cc7F)cc6)c(C(N)=O)c5N)C4)c3)ccc2CC1C(=O)NC1CCCc2ccccc21)C(C)(C)C

> <Shape>
0.275

> <Color>
0.101

> <Negative vol penalty>
0.000

$$$$

  -OEChem-04052315413D

 86 93  0     1  0  0  0  0  0999 V2000
  -32.6424  -27.4816   17.0274 C   0  0  0  0  0  0  0  0  0  0  0  0
  -31.3697  -27.1131   17.4517 C   0  0  0  0  0  0  0  0  0  0  0  0
  -28.5385  -16.9693   18.8699 C   0  0  0  0  0  0  0  0  0  0  0  0
  -28.0243  -17.1157   21.2260 C   0  0  0  0  0  0  0  0  0  0  0  0
  -33.4367  -28.2951   17.8345 C   0  0  0  0  0  0  0  0  0  0  0  0
  -30.8910  -27.5571   18.6838 C   0  0  0  0  0  0  0  0  0  0  0  0
  -26.1153  -29.2218   18.4271 C   0  0  0  0  0  0  0  0  0  0  0  0
  -28.9584  -18.2994   18.8789 C   0  0  0  0  0  0  0  0  0  0  0  0
  -28.4442  -18.4458   21.2350 C   0  0  0  0  0  0  0  0  0  0  0  0
  -25.1068  -28.2599   18.3900 C   0  0  0  0  0  0  0  0  0  0  0  0
  -27.2058  -21.4555   20.3191 C   0  0  0  0  0  0  0  0  0  0  0  0
  -26.4022  -22.3843   20.9804 C   0  0  0  0  0  0  0  0  0  0  0  0
  -24.7070  -28.5969   20.7450 C   0  0  0  0  0  0  0  0  0  0  0  0
  -28.2360  -22.9172   22.4604 C   0  0  0  0  0  0  0  0  0  0  0  0
  -28.0714  -16.3774   20.0435 C   0  0  0  0  0  0  0  0  0  0  0  0
  -28.4236  -13.8617   20.2776 C   0  0  0  0  0  0  0  0  0  0  0  0
  -32.9637  -28.7571   19.0728 C   0  0  0  0  0  0  0  0  0  0  0  0
  -26.4351  -29.8718   19.6278 C   0  0  0  0  0  0  0  0  0  0  0  0
  -31.6802  -28.3764   19.5088 C   0  0  0  0  0  0  0  0  0  0  0  0
  -25.7182  -29.5685   20.7941 C   0  0  0  0  0  0  0  0  0  0  0  0
  -28.9113  -19.0377   20.0614 C   0  0  0  0  0  0  0  0  0  0  0  0
  -24.4044  -27.9452   19.5496 C   0  0  0  0  0  0  0  0  0  0  0  0
  -28.5244  -21.2575   20.7286 C   0  0  0  0  0  0  0  0  0  0  0  0
  -26.9174  -23.1152   22.0509 C   0  0  0  0  0  0  0  0  0  0  0  0
  -29.0396  -21.9883   21.7991 C   0  0  0  0  0  0  0  0  0  0  0  0
  -27.6369  -15.0036   20.0347 C   0  0  0  0  0  0  0  0  0  0  0  0
  -27.5494  -12.8097   20.1530 C   0  0  0  0  0  0  0  0  0  0  0  0
  -29.8197  -13.7610   20.5881 C   0  0  0  0  0  0  0  0  0  0  0  0
  -29.0275  -30.0545   21.4581 C   0  0  0  0  0  0  0  0  0  0  0  0
  -27.2455  -32.2174   23.0918 C   0  0  0  0  0  0  0  0  0  0  0  0
  -20.5885  -14.8480   23.7826 C   0  0  0  0  0  0  0  0  0  0  0  0
  -24.1474  -33.3879   23.9154 C   0  0  0  0  0  0  0  0  0  0  0  0
  -21.6133  -12.3444   20.7835 C   0  0  0  0  0  0  0  0  0  0  0  0
  -33.8769  -29.5957   19.9316 C   0  0  0  0  0  0  0  0  0  0  0  0
  -27.5076  -30.9263   19.6454 C   0  0  0  0  0  0  0  0  0  0  0  0
  -26.0092  -30.2523   22.1041 C   0  0  0  0  0  0  0  0  0  0  0  0
  -33.1510  -30.3307   21.0555 C   0  0  0  0  0  0  0  0  0  0  0  0
  -23.5300  -11.5283   17.8962 C   0  0  0  0  0  0  0  0  0  0  0  0
  -32.1952  -29.3880   21.7797 C   0  0  0  0  0  0  0  0  0  0  0  0
  -24.8709  -12.2234   18.1388 C   0  0  0  0  0  0  0  0  0  0  0  0
  -22.3609  -12.3582   18.4219 C   0  0  0  0  0  0  0  0  0  0  0  0
  -23.8167  -13.4595   20.0776 C   0  0  0  0  0  0  0  0  0  0  0  0
  -31.1161  -28.8581   20.8278 C   0  0  1  0  0  0  0  0  0  0  0  0
  -28.0974  -31.1556   21.0335 C   0  0  1  0  0  0  0  0  0  0  0  0
  -25.0301  -12.6352   19.6147 C   0  0  2  0  0  0  0  0  0  0  0  0
  -23.0091  -35.1439   25.3004 C   0  0  0  0  0  0  0  0  0  0  0  0
  -27.8117  -30.5933   25.6120 C   0  0  0  0  0  0  0  0  0  0  0  0
  -25.9296  -31.8059   26.7323 C   0  0  0  0  0  0  0  0  0  0  0  0
  -27.9202  -33.0724   25.9223 C   0  0  0  0  0  0  0  0  0  0  0  0
  -18.2373  -15.7440   23.9151 C   0  0  0  0  0  0  0  0  0  0  0  0
  -22.9005  -34.6239   21.5329 C   0  0  0  0  0  0  0  0  0  0  0  0
  -19.9747  -13.4983   23.4237 C   0  0  0  0  0  0  0  0  0  0  0  0
  -21.6865  -21.7689   22.4983 C   0  0  0  0  0  0  0  0  0  0  0  0
  -21.1757  -20.3572   22.1907 C   0  0  0  0  0  0  0  0  0  0  0  0
  -21.9310  -22.6164   21.2477 C   0  0  0  0  0  0  0  0  0  0  0  0
  -20.9057  -19.5225   23.4454 C   0  0  0  0  0  0  0  0  0  0  0  0
  -22.4096  -24.0230   21.6169 C   0  0  0  0  0  0  0  0  0  0  0  0
  -20.3910  -18.1104   23.1377 C   0  0  0  0  0  0  0  0  0  0  0  0
  -22.6834  -24.8627   20.3657 C   0  0  0  0  0  0  0  0  0  0  0  0
  -21.0067  -12.4005   23.1894 C   0  0  0  0  0  0  0  0  0  0  0  0
  -20.1511  -17.2304   24.3610 C   0  0  0  0  0  0  0  0  0  0  0  0
  -23.1929  -26.2577   20.7074 C   0  0  0  0  0  0  0  0  0  1  0  0
  -26.2714  -32.1486   24.2430 C   0  0  1  0  0  0  0  0  0  0  0  0
  -23.5733  -34.7931   23.9324 C   0  0  2  0  0  0  0  0  0  0  0  0
  -26.9788  -31.8906   25.6033 C   0  0  0  0  0  0  0  0  0  0  0  0
  -26.3611  -14.7052   19.7753 N   0  0  0  0  0  0  0  0  0  0  0  0
  -26.3395  -13.3638   19.8544 N   0  0  0  0  0  0  0  0  0  0  0  0
  -27.0711  -31.2716   22.0716 N   0  0  0  0  0  0  0  0  0  0  0  0
  -22.5730  -12.7143   19.8269 N   0  0  0  0  0  0  0  0  0  0  0  0
  -27.7054  -11.4740   20.2708 N   0  0  0  0  0  0  0  0  0  0  0  0
  -30.5710  -14.9407   20.6780 N   0  0  0  0  0  0  0  0  0  0  0  0
  -30.0991  -29.8637   20.6067 N   0  0  0  0  0  0  0  0  0  0  0  0
  -25.4972  -33.3843   24.1970 N   0  0  0  0  0  0  0  0  0  0  0  0
  -21.8949  -12.7153   22.0927 N   0  0  0  0  0  0  0  0  0  0  0  0
  -19.6943  -15.9131   24.0140 N   0  0  0  0  0  0  0  0  0  0  0  0
  -22.4802  -34.9182   22.9271 N   0  3  0  0  0  0  0  0  0  0  0  0
  -30.3878  -12.6565   20.7640 O   0  0  0  0  0  0  0  0  0  0  0  0
  -28.7913  -29.4257   22.4830 O   0  0  0  0  0  0  0  0  0  0  0  0
  -28.1243  -33.0831   23.0941 O   0  0  0  0  0  0  0  0  0  0  0  0
  -21.8126  -14.9792   23.8630 O   0  0  0  0  0  0  0  0  0  0  0  0
  -23.4659  -32.3927   23.6799 O   0  0  0  0  0  0  0  0  0  0  0  0
  -20.5845  -11.7245   20.4933 O   0  0  0  0  0  0  0  0  0  0  0  0
  -29.3212  -20.3355   20.0706 O   0  0  0  0  0  0  0  0  0  0  0  0
  -23.4126  -26.9991   19.5161 O   0  0  0  0  0  0  0  0  0  1  0  0
  -26.1461  -24.0082   22.6848 F   0  0  0  0  0  0  0  0  0  0  0  0
  -30.3060  -21.8032   22.1963 F   0  0  0  0  0  0  0  0  0  0  0  0
  1  2  1  0  0  0  0
  1  5  2  0  0  0  0
  2  6  2  0  0  0  0
  3  8  2  0  0  0  0
  3 15  1  0  0  0  0
  4  9  1  0  0  0  0
  4 15  2  0  0  0  0
  5 17  1  0  0  0  0
  6 19  1  0  0  0  0
  7 10  2  0  0  0  0
  7 18  1  0  0  0  0
  8 21  1  0  0  0  0
  9 21  2  0  0  0  0
 10 22  1  0  0  0  0
 11 12  2  0  0  0  0
 11 23  1  0  0  0  0
 12 24  1  0  0  0  0
 13 20  1  0  0  0  0
 13 22  2  0  0  0  0
 14 24  2  0  0  0  0
 14 25  1  0  0  0  0
 15 26  1  0  0  0  0
 16 26  1  0  0  0  0
 16 27  2  0  0  0  0
 16 28  1  0  0  0  0
 17 19  2  0  0  0  0
 17 34  1  0  0  0  0
 18 20  2  0  0  0  0
 18 35  1  0  0  0  0
 19 43  1  0  0  0  0
 20 36  1  0  0  0  0
 21 83  1  0  0  0  0
 22 84  1  0  0  0  0
 23 25  2  0  0  0  0
 23 83  1  0  0  0  0
 24 85  1  0  0  0  0
 25 86  1  0  0  0  0
 26 66  2  0  0  0  0
 27 67  1  0  0  0  0
 27 70  1  0  0  0  0
 28 71  1  0  0  0  0
 28 77  2  0  0  0  0
 29 44  1  0  0  0  0
 29 72  1  0  0  0  0
 29 78  2  0  0  0  0
 30 63  1  0  0  0  0
 30 68  1  0  0  0  0
 30 79  2  0  0  0  0
 31 52  1  0  0  0  0
 31 75  1  0  0  0  0
 31 80  2  0  0  0  0
 32 64  1  0  0  0  0
 32 73  1  0  0  0  0
 32 81  2  0  0  0  0
 33 69  1  0  0  0  0
 33 74  1  0  0  0  0
 33 82  2  0  0  0  0
 34 37  1  0  0  0  0
 35 44  1  0  0  0  0
 36 68  1  0  0  0  0
 37 39  1  0  0  0  0
 38 40  1  0  0  0  0
 38 41  1  0  0  0  0
 39 43  1  0  0  0  0
 40 45  1  0  0  0  0
 41 69  1  0  0  0  0
 42 45  1  0  0  0  0
 42 69  1  0  0  0  0
 43 72  1  0  0  0  0
 44 68  1  0  0  0  0
 45 67  1  0  0  0  0
 46 64  1  0  0  0  0
 47 65  1  0  0  0  0
 48 65  1  0  0  0  0
 49 65  1  0  0  0  0
 50 75  1  0  0  0  0
 51 76  1  0  0  0  0
 52 60  1  0  0  0  0
 53 54  1  0  0  0  0
 53 55  1  0  0  0  0
 54 56  1  0  0  0  0
 55 57  1  0  0  0  0
 56 58  1  0  0  0  0
 57 59  1  0  0  0  0
 58 61  1  0  0  0  0
 59 62  1  0  0  0  0
 60 74  1  0  0  0  0
 61 75  1  0  0  0  0
 62 84  1  0  0  0  0
 63 65  1  0  0  0  0
 63 73  1  0  0  0  0
 64 76  1  0  0  0  0
 66 67  1  0  0  0  0
M  CHG  1  76   1
M  ISO  4  33 100  62 101  74 100  84 101
M  END
> <Batch ID>
0010

> <Smiles>
CNC(C)C(=O)NC(C(=O)N1Cc2cc([101O:1][101CH2:1]CCCCCCCCN(C)C(=O)CC[100NH:0][100C:0](=O)N3CCCC(n4nc(-c5ccc(Oc6ccc(F)cc6F)cc5)c(C(N)=O)c4N)C3)ccc2CC1C(=O)NC1CCCc2ccccc21)C(C)(C)C

> <Shape>
0.240

> <Color>
0.095

> <Negative vol penalty>
0.000

$$$$

  -OEChem-04052315413D

 80 88  0     1  0  0  0  0  0999 V2000
  -23.6037  -32.7327   26.6389 C   0  0  0  0  0  0  0  0  0  0  0  0
  -24.8776  -32.2842   26.3049 C   0  0  0  0  0  0  0  0  0  0  0  0
  -24.0384   -9.7255   21.7182 C   0  0  0  0  0  0  0  0  0  0  0  0
  -24.6425  -10.9968   23.6819 C   0  0  0  0  0  0  0  0  0  0  0  0
  -22.4822  -32.0179   26.2204 C   0  0  0  0  0  0  0  0  0  0  0  0
  -25.0306  -31.1199   25.5529 C   0  0  0  0  0  0  0  0  0  0  0  0
  -29.3094  -28.1866   20.6129 C   0  0  0  0  0  0  0  0  0  0  0  0
  -28.4287  -19.3882   20.5060 C   0  0  0  0  0  0  0  0  0  0  0  0
  -30.7877  -18.9562   20.2141 C   0  0  0  0  0  0  0  0  0  0  0  0
  -23.6100   -8.6752   22.5300 C   0  0  0  0  0  0  0  0  0  0  0  0
  -24.2141   -9.9465   24.4937 C   0  0  0  0  0  0  0  0  0  0  0  0
  -30.0416  -27.0241   20.3755 C   0  0  0  0  0  0  0  0  0  0  0  0
  -28.7132  -20.7096   20.8503 C   0  0  0  0  0  0  0  0  0  0  0  0
  -31.0723  -20.2777   20.5583 C   0  0  0  0  0  0  0  0  0  0  0  0
  -20.8982   -7.9212   24.4037 C   0  0  0  0  0  0  0  0  0  0  0  0
  -19.6779   -7.3201   24.0957 C   0  0  0  0  0  0  0  0  0  0  0  0
  -28.0298  -25.9145   19.6402 C   0  0  0  0  0  0  0  0  0  0  0  0
  -20.7990   -5.2023   23.7872 C   0  0  0  0  0  0  0  0  0  0  0  0
  -24.5547  -10.8863   22.2942 C   0  0  0  0  0  0  0  0  0  0  0  0
  -24.2291  -13.0552   20.9913 C   0  0  0  0  0  0  0  0  0  0  0  0
  -22.6213  -30.8496   25.4547 C   0  0  0  0  0  0  0  0  0  0  0  0
  -27.9277  -28.2185   20.3757 C   0  0  0  0  0  0  0  0  0  0  0  0
  -23.9099  -30.3881   25.1249 C   0  0  0  0  0  0  0  0  0  0  0  0
  -27.2828  -27.0794   19.8730 C   0  0  0  0  0  0  0  0  0  0  0  0
  -29.4659  -18.5115   20.1880 C   0  0  0  0  0  0  0  0  0  0  0  0
  -23.6979   -8.7857   23.9177 C   0  0  0  0  0  0  0  0  0  0  0  0
  -30.0350  -21.1544   20.8764 C   0  0  0  0  0  0  0  0  0  0  0  0
  -29.4013  -25.8869   19.8918 C   0  0  0  0  0  0  0  0  0  0  0  0
  -22.0690   -7.1629   24.4033 C   0  0  0  0  0  0  0  0  0  0  0  0
  -19.6282   -5.9606   23.7875 C   0  0  0  0  0  0  0  0  0  0  0  0
  -22.0194   -5.8035   24.0952 C   0  0  0  0  0  0  0  0  0  0  0  0
  -24.9979  -11.9714   21.4562 C   0  0  0  0  0  0  0  0  0  0  0  0
  -25.1050  -13.8005   20.2404 C   0  0  0  0  0  0  0  0  0  0  0  0
  -22.8468  -13.3610   21.2181 C   0  0  0  0  0  0  0  0  0  0  0  0
  -25.3524  -28.6868   22.1791 C   0  0  0  0  0  0  0  0  0  0  0  0
  -23.8160  -28.5983   19.3236 C   0  0  0  0  0  0  0  0  0  0  0  0
  -23.8009  -27.5601   16.0727 C   0  0  0  0  0  0  0  0  0  0  0  0
  -30.0881  -16.1705   19.4959 C   0  0  0  0  0  0  0  0  0  0  0  0
  -21.3810  -30.0848   25.0655 C   0  0  0  0  0  0  0  0  0  0  0  0
  -27.1569  -29.4884   20.6116 C   0  0  0  0  0  0  0  0  0  0  0  0
  -25.8050  -27.0680   19.5827 C   0  0  0  0  0  0  0  0  0  0  0  0
  -21.6176  -29.0659   23.9537 C   0  0  0  0  0  0  0  0  0  0  0  0
  -29.7771  -12.7363   18.6092 C   0  0  0  0  0  0  0  0  0  0  0  0
  -22.8728  -28.2471   24.2383 C   0  0  0  0  0  0  0  0  0  0  0  0
  -28.4427  -12.3203   19.2326 C   0  0  0  0  0  0  0  0  0  0  0  0
  -30.5327  -13.7256   19.4945 C   0  0  0  0  0  0  0  0  0  0  0  0
  -28.4296  -14.4937   20.5222 C   0  0  0  0  0  0  0  0  0  0  0  0
  -24.1161  -29.1431   24.2896 C   0  0  1  0  0  0  0  0  0  0  0  0
  -25.6647  -29.2513   20.8221 C   0  0  1  0  0  0  0  0  0  0  0  0
  -27.6025  -13.5476   19.6365 C   0  0  2  0  0  0  0  0  0  0  0  0
  -22.3923  -27.6068   13.9963 C   0  0  0  0  0  0  0  0  0  0  0  0
  -22.0062  -26.4448   20.5056 C   0  0  0  0  0  0  0  0  0  0  0  0
  -21.2844  -25.8720   18.1778 C   0  0  0  0  0  0  0  0  0  0  0  0
  -20.8257  -28.1437   19.1006 C   0  0  0  0  0  0  0  0  0  0  0  0
  -25.8720  -29.0381   14.5612 C   0  0  0  0  0  0  0  0  0  0  0  0
  -31.4746  -23.0311   20.6290 C   0  0  0  0  0  0  0  0  0  0  0  0
  -31.2605  -24.5247   20.4780 C   0  0  0  0  0  0  0  0  0  1  0  0
  -23.1936  -27.5139   18.4776 C   0  0  1  0  0  0  0  0  0  0  0  0
  -23.4968  -28.2975   14.7811 C   0  0  2  0  0  0  0  0  0  0  0  0
  -21.8550  -26.9929   19.0726 C   0  0  0  0  0  0  0  0  0  0  0  0
  -26.2647  -12.0199   21.0356 N   0  0  0  0  0  0  0  0  0  0  0  0
  -26.2986  -13.1431   20.2986 N   0  0  0  0  0  0  0  0  0  0  0  0
  -25.0938  -28.3320   19.8355 N   0  0  0  0  0  0  0  0  0  0  0  0
  -29.6758  -14.8640   19.8332 N   0  0  0  0  0  0  0  0  0  0  0  0
  -24.9629  -14.9473   19.5425 N   0  0  0  0  0  0  0  0  0  0  0  0
  -22.0914  -12.4891   22.0140 N   0  0  0  0  0  0  0  0  0  0  0  0
  -29.1770  -17.1691   19.8384 N   0  0  0  0  0  0  0  0  0  0  0  0
  -24.5408  -29.4954   22.9517 N   0  0  0  0  0  0  0  0  0  0  0  0
  -23.0753  -28.0638   17.1314 N   0  0  0  0  0  0  0  0  0  0  0  0
  -24.7133  -28.3622   13.9228 N   0  3  0  0  0  0  0  0  0  0  0  0
  -22.2936  -14.3687   20.7159 O   0  0  0  0  0  0  0  0  0  0  0  0
  -25.8125  -27.5975   22.5008 O   0  0  0  0  0  0  0  0  0  0  0  0
  -23.1943  -29.6461   19.5170 O   0  0  0  0  0  0  0  0  0  0  0  0
  -24.5992  -26.6277   16.1352 O   0  0  0  0  0  0  0  0  0  0  0  0
  -31.1575  -16.3850   18.9194 O   0  0  0  0  0  0  0  0  0  0  0  0
  -23.2797   -7.7611   24.7101 O   0  0  0  0  0  0  0  0  0  0  0  0
  -30.3146  -22.4523   21.2145 O   0  0  0  0  0  0  0  0  0  0  0  0
  -30.1134  -24.7508   19.6598 O   0  0  0  0  0  0  0  0  0  1  0  0
  -18.4560   -5.3831   23.4933 F   0  0  0  0  0  0  0  0  0  0  0  0
  -23.1406   -5.0696   24.0944 F   0  0  0  0  0  0  0  0  0  0  0  0
  1  2  1  0  0  0  0
  1  5  2  0  0  0  0
  2  6  2  0  0  0  0
  3 10  2  0  0  0  0
  3 19  1  0  0  0  0
  4 11  1  0  0  0  0
  4 19  2  0  0  0  0
  5 21  1  0  0  0  0
  6 23  1  0  0  0  0
  7 12  2  0  0  0  0
  7 22  1  0  0  0  0
  8 13  2  0  0  0  0
  8 25  1  0  0  0  0
  9 14  1  0  0  0  0
  9 25  2  0  0  0  0
 10 26  1  0  0  0  0
 11 26  2  0  0  0  0
 12 28  1  0  0  0  0
 13 27  1  0  0  0  0
 14 27  2  0  0  0  0
 15 16  2  0  0  0  0
 15 29  1  0  0  0  0
 16 30  1  0  0  0  0
 17 24  1  0  0  0  0
 17 28  2  0  0  0  0
 18 30  2  0  0  0  0
 18 31  1  0  0  0  0
 19 32  1  0  0  0  0
 20 32  1  0  0  0  0
 20 33  2  0  0  0  0
 20 34  1  0  0  0  0
 21 23  2  0  0  0  0
 21 39  1  0  0  0  0
 22 24  2  0  0  0  0
 22 40  1  0  0  0  0
 23 48  1  0  0  0  0
 24 41  1  0  0  0  0
 25 67  1  0  0  0  0
 26 76  1  0  0  0  0
 27 77  1  0  0  0  0
 28 78  1  0  0  0  0
 29 31  2  0  0  0  0
 29 76  1  0  0  0  0
 30 79  1  0  0  0  0
 31 80  1  0  0  0  0
 32 61  2  0  0  0  0
 33 62  1  0  0  0  0
 33 65  1  0  0  0  0
 34 66  1  0  0  0  0
 34 71  2  0  0  0  0
 35 49  1  0  0  0  0
 35 68  1  0  0  0  0
 35 72  2  0  0  0  0
 36 58  1  0  0  0  0
 36 63  1  0  0  0  0
 36 73  2  0  0  0  0
 37 59  1  0  0  0  0
 37 69  1  0  0  0  0
 37 74  2  0  0  0  0
 38 64  1  0  0  0  0
 38 67  1  0  0  0  0
 38 75  2  0  0  0  0
 39 42  1  0  0  0  0
 40 49  1  0  0  0  0
 41 63  1  0  0  0  0
 42 44  1  0  0  0  0
 43 45  1  0  0  0  0
 43 46  1  0  0  0  0
 44 48  1  0  0  0  0
 45 50  1  0  0  0  0
 46 64  1  0  0  0  0
 47 50  1  0  0  0  0
 47 64  1  0  0  0  0
 48 68  1  0  0  0  0
 49 63  1  0  0  0  0
 50 62  1  0  0  0  0
 51 59  1  0  0  0  0
 52 60  1  0  0  0  0
 53 60  1  0  0  0  0
 54 60  1  0  0  0  0
 55 70  1  0  0  0  0
 56 57  1  0  0  0  0
 56 77  1  0  0  0  0
 57 78  1  0  0  0  0
 58 60  1  0  0  0  0
 58 69  1  0  0  0  0
 59 70  1  0  0  0  0
 61 62  1  0  0  0  0
M  CHG  1  70   1
M  ISO  4  38 100  57 101  67 100  78 101
M  END
> <Batch ID>
0010

> <Smiles>
CNC(C)C(=O)NC(C(=O)N1Cc2cc([101O:1][101CH2:1]COc3ccc([100NH:0][100C:0](=O)N4CCCC(n5nc(-c6ccc(Oc7ccc(F)cc7F)cc6)c(C(N)=O)c5N)C4)cc3)ccc2CC1C(=O)NC1CCCc2ccccc21)C(C)(C)C

> <Shape>
0.290

> <Color>
0.124

> <Negative vol penalty>
0.000

$$$$

  -OEChem-04052315413D

 81 89  0     1  0  0  0  0  0999 V2000
  -18.5609  -31.7703   26.1841 C   0  0  0  0  0  0  0  0  0  0  0  0
  -19.9104  -31.4552   26.3066 C   0  0  0  0  0  0  0  0  0  0  0  0
  -24.7316  -10.0503   22.3146 C   0  0  0  0  0  0  0  0  0  0  0  0
  -24.7894  -11.5563   24.2029 C   0  0  0  0  0  0  0  0  0  0  0  0
  -17.8133  -31.2339   25.1366 C   0  0  0  0  0  0  0  0  0  0  0  0
  -20.5129  -30.6026   25.3822 C   0  0  0  0  0  0  0  0  0  0  0  0
  -26.7784  -29.4519   22.1057 C   0  0  0  0  0  0  0  0  0  0  0  0
  -29.6150  -20.3790   20.7370 C   0  0  0  0  0  0  0  0  0  0  0  0
  -29.5763  -21.7516   20.9824 C   0  0  0  0  0  0  0  0  0  0  0  0
  -24.4169   -8.9926   23.1678 C   0  0  0  0  0  0  0  0  0  0  0  0
  -24.4746  -10.4986   25.0561 C   0  0  0  0  0  0  0  0  0  0  0  0
  -27.6980  -28.4314   21.8678 C   0  0  0  0  0  0  0  0  0  0  0  0
  -21.6820   -7.8112   24.7669 C   0  0  0  0  0  0  0  0  0  0  0  0
  -20.6629   -6.9433   24.3749 C   0  0  0  0  0  0  0  0  0  0  0  0
  -26.3267  -27.6271   20.0534 C   0  0  0  0  0  0  0  0  0  0  0  0
  -27.2000  -20.3175   20.7004 C   0  0  0  0  0  0  0  0  0  0  0  0
  -22.2209   -5.0972   24.4117 C   0  0  0  0  0  0  0  0  0  0  0  0
  -24.9179  -11.3322   22.8322 C   0  0  0  0  0  0  0  0  0  0  0  0
  -24.3428  -13.2843   21.2940 C   0  0  0  0  0  0  0  0  0  0  0  0
  -18.4092  -30.3821   24.1933 C   0  0  0  0  0  0  0  0  0  0  0  0
  -25.6187  -29.5614   21.3250 C   0  0  0  0  0  0  0  0  0  0  0  0
  -19.7722  -30.0533   24.3218 C   0  0  0  0  0  0  0  0  0  0  0  0
  -25.3953  -28.6515   20.2818 C   0  0  0  0  0  0  0  0  0  0  0  0
  -28.4268  -19.6620   20.5959 C   0  0  0  0  0  0  0  0  0  0  0  0
  -28.3495  -22.4071   21.0869 C   0  0  0  0  0  0  0  0  0  0  0  0
  -24.2884   -9.2168   24.5385 C   0  0  0  0  0  0  0  0  0  0  0  0
  -27.4708  -27.5170   20.8434 C   0  0  0  0  0  0  0  0  0  0  0  0
  -22.9706   -7.3222   24.9813 C   0  0  0  0  0  0  0  0  0  0  0  0
  -20.9323   -5.5863   24.1973 C   0  0  0  0  0  0  0  0  0  0  0  0
  -27.1613  -21.6901   20.9459 C   0  0  0  0  0  0  0  0  0  0  0  0
  -23.2401   -5.9651   24.8037 C   0  0  0  0  0  0  0  0  0  0  0  0
  -25.2435  -12.4251   21.9515 C   0  0  0  0  0  0  0  0  0  0  0  0
  -25.1448  -14.1445   20.5845 C   0  0  0  0  0  0  0  0  0  0  0  0
  -22.9095  -13.3033   21.3221 C   0  0  0  0  0  0  0  0  0  0  0  0
  -22.4980  -29.4134   21.9107 C   0  0  0  0  0  0  0  0  0  0  0  0
  -22.2673  -30.2701   18.7906 C   0  0  0  0  0  0  0  0  0  0  0  0
  -23.7044  -30.3582   15.6964 C   0  0  0  0  0  0  0  0  0  0  0  0
  -29.5992  -17.4649   20.2157 C   0  0  0  0  0  0  0  0  0  0  0  0
  -17.5493  -29.7890   23.1053 C   0  0  0  0  0  0  0  0  0  0  0  0
  -24.6499  -30.6840   21.5772 C   0  0  0  0  0  0  0  0  0  0  0  0
  -24.1760  -28.7376   19.4019 C   0  0  0  0  0  0  0  0  0  0  0  0
  -18.3518  -29.1919   21.9522 C   0  0  0  0  0  0  0  0  0  0  0  0
  -30.1149  -13.9897   19.6379 C   0  0  0  0  0  0  0  0  0  0  0  0
  -19.4872  -28.3238   22.4852 C   0  0  0  0  0  0  0  0  0  0  0  0
  -28.8194  -13.3435   20.1342 C   0  0  0  0  0  0  0  0  0  0  0  0
  -30.5253  -15.1774   20.5066 C   0  0  0  0  0  0  0  0  0  0  0  0
  -28.1890  -15.5494   21.1943 C   0  0  0  0  0  0  0  0  0  0  0  0
  -20.4675  -29.1520   23.3247 C   0  0  1  0  0  0  0  0  0  0  0  0
  -23.2476  -30.3923   21.0519 C   0  0  1  0  0  0  0  0  0  0  0  0
  -27.7006  -14.3886   20.3124 C   0  0  2  0  0  0  0  0  0  0  0  0
  -23.2575  -31.0864   13.3369 C   0  0  0  0  0  0  0  0  0  0  0  0
  -20.4534  -27.8495   18.3897 C   0  0  0  0  0  0  0  0  0  0  0  0
  -20.8152  -28.0745   15.9225 C   0  0  0  0  0  0  0  0  0  0  0  0
  -19.7136  -29.9171   17.1930 C   0  0  0  0  0  0  0  0  0  0  0  0
  -25.9810  -32.2489   15.7257 C   0  0  0  0  0  0  0  0  0  0  0  0
  -29.4956  -24.5862   21.4912 C   0  0  0  0  0  0  0  0  0  0  0  0
  -29.1072  -26.0359   21.7291 C   0  0  0  0  0  0  0  0  0  1  0  0
  -22.1946  -29.5247   17.4798 C   0  0  1  0  0  0  0  0  0  0  0  0
  -23.8457  -31.4796   14.6830 C   0  0  2  0  0  0  0  0  0  0  0  0
  -20.8163  -28.8384   17.2639 C   0  0  0  0  0  0  0  0  0  0  0  0
  -26.5199  -12.7130   21.6834 N   0  0  0  0  0  0  0  0  0  0  0  0
  -26.4271  -13.7628   20.8495 N   0  0  0  0  0  0  0  0  0  0  0  0
  -23.2551  -29.8490   19.6921 N   0  0  0  0  0  0  0  0  0  0  0  0
  -29.4174  -16.1276   20.6271 N   0  0  0  0  0  0  0  0  0  0  0  0
  -24.8711  -15.1825   19.7659 N   0  0  0  0  0  0  0  0  0  0  0  0
  -22.2439  -12.3486   22.1030 N   0  0  0  0  0  0  0  0  0  0  0  0
  -28.4665  -18.2677   20.3470 N   0  0  0  0  0  0  0  0  0  0  0  0
  -28.3140  -23.7699   21.3316 N   0  0  0  0  0  0  0  0  0  0  0  0
  -21.3406  -29.9240   22.4668 N   0  0  0  0  0  0  0  0  0  0  0  0
  -22.5521  -30.4867   16.4428 N   0  0  0  0  0  0  0  0  0  0  0  0
  -25.2828  -31.8216   14.4860 N   0  3  0  0  0  0  0  0  0  0  0  0
  -22.2384  -14.1317   20.6611 O   0  0  0  0  0  0  0  0  0  0  0  0
  -22.9364  -28.2785   22.0567 O   0  0  0  0  0  0  0  0  0  0  0  0
  -21.4813  -31.1967   19.0037 O   0  0  0  0  0  0  0  0  0  0  0  0
  -24.5313  -29.4563   15.8116 O   0  0  0  0  0  0  0  0  0  0  0  0
  -30.6721  -17.8615   19.7536 O   0  0  0  0  0  0  0  0  0  0  0  0
  -23.9811   -8.1850   25.3713 O   0  0  0  0  0  0  0  0  0  0  0  0
  -28.3664  -26.5195   20.6094 O   0  0  0  0  0  0  0  0  0  1  0  0
  -19.9532   -4.7527   23.8223 F   0  0  0  0  0  0  0  0  0  0  0  0
  -25.9768  -22.3099   21.0462 F   0  0  0  0  0  0  0  0  0  0  0  0
  -24.4758   -5.4892   25.0094 F   0  0  0  0  0  0  0  0  0  0  0  0
  1  2  1  0  0  0  0
  1  5  2  0  0  0  0
  2  6  2  0  0  0  0
  3 10  2  0  0  0  0
  3 18  1  0  0  0  0
  4 11  1  0  0  0  0
  4 18  2  0  0  0  0
  5 20  1  0  0  0  0
  6 22  1  0  0  0  0
  7 12  2  0  0  0  0
  7 21  1  0  0  0  0
  8  9  2  0  0  0  0
  8 24  1  0  0  0  0
  9 25  1  0  0  0  0
 10 26  1  0  0  0  0
 11 26  2  0  0  0  0
 12 27  1  0  0  0  0
 13 14  2  0  0  0  0
 13 28  1  0  0  0  0
 14 29  1  0  0  0  0
 15 23  1  0  0  0  0
 15 27  2  0  0  0  0
 16 24  2  0  0  0  0
 16 30  1  0  0  0  0
 17 29  2  0  0  0  0
 17 31  1  0  0  0  0
 18 32  1  0  0  0  0
 19 32  1  0  0  0  0
 19 33  2  0  0  0  0
 19 34  1  0  0  0  0
 20 22  2  0  0  0  0
 20 39  1  0  0  0  0
 21 23  2  0  0  0  0
 21 40  1  0  0  0  0
 22 48  1  0  0  0  0
 23 41  1  0  0  0  0
 24 67  1  0  0  0  0
 25 30  2  0  0  0  0
 25 68  1  0  0  0  0
 26 77  1  0  0  0  0
 27 78  1  0  0  0  0
 28 31  2  0  0  0  0
 28 77  1  0  0  0  0
 29 79  1  0  0  0  0
 30 80  1  0  0  0  0
 31 81  1  0  0  0  0
 32 61  2  0  0  0  0
 33 62  1  0  0  0  0
 33 65  1  0  0  0  0
 34 66  1  0  0  0  0
 34 72  2  0  0  0  0
 35 49  1  0  0  0  0
 35 69  1  0  0  0  0
 35 73  2  0  0  0  0
 36 58  1  0  0  0  0
 36 63  1  0  0  0  0
 36 74  2  0  0  0  0
 37 59  1  0  0  0  0
 37 70  1  0  0  0  0
 37 75  2  0  0  0  0
 38 64  1  0  0  0  0
 38 67  1  0  0  0  0
 38 76  2  0  0  0  0
 39 42  1  0  0  0  0
 40 49  1  0  0  0  0
 41 63  1  0  0  0  0
 42 44  1  0  0  0  0
 43 45  1  0  0  0  0
 43 46  1  0  0  0  0
 44 48  1  0  0  0  0
 45 50  1  0  0  0  0
 46 64  1  0  0  0  0
 47 50  1  0  0  0  0
 47 64  1  0  0  0  0
 48 69  1  0  0  0  0
 49 63  1  0  0  0  0
 50 62  1  0  0  0  0
 51 59  1  0  0  0  0
 52 60  1  0  0  0  0
 53 60  1  0  0  0  0
 54 60  1  0  0  0  0
 55 71  1  0  0  0  0
 56 57  1  0  0  0  0
 56 68  1  0  0  0  0
 57 78  1  0  0  0  0
 58 60  1  0  0  0  0
 58 70  1  0  0  0  0
 59 71  1  0  0  0  0
 61 62  1  0  0  0  0
M  CHG  1  71   1
M  ISO  4  38 100  57 101  67 100  78 101
M  END
> <Batch ID>
0010

> <Smiles>
CNC(C)C(=O)NC(C(=O)N1Cc2cc([101O:1][101CH2:1]CNc3ccc([100NH:0][100C:0](=O)N4CCCC(n5nc(-c6ccc(Oc7ccc(F)cc7F)cc6)c(C(N)=O)c5N)C4)cc3F)ccc2CC1C(=O)NC1CCCc2ccccc21)C(C)(C)C

> <Shape>
0.285

> <Color>
0.137

> <Negative vol penalty>
0.000

$$$$

  -OEChem-04052315413D

 82 90  0     1  0  0  0  0  0999 V2000
  -24.5381  -32.0498   29.0889 C   0  0  0  0  0  0  0  0  0  0  0  0
  -25.2960  -31.2010   28.2887 C   0  0  0  0  0  0  0  0  0  0  0  0
  -24.5931   -8.9874   21.5671 C   0  0  0  0  0  0  0  0  0  0  0  0
  -23.9124  -10.7040   23.1250 C   0  0  0  0  0  0  0  0  0  0  0  0
  -23.2195  -32.3406   28.7414 C   0  0  0  0  0  0  0  0  0  0  0  0
  -24.7355  -30.6417   27.1409 C   0  0  0  0  0  0  0  0  0  0  0  0
  -27.5943  -29.4318   21.8617 C   0  0  0  0  0  0  0  0  0  0  0  0
  -28.2880  -21.0361   19.7648 C   0  0  0  0  0  0  0  0  0  0  0  0
  -28.5347  -19.6632   19.7597 C   0  0  0  0  0  0  0  0  0  0  0  0
  -24.1596   -8.0063   22.4588 C   0  0  0  0  0  0  0  0  0  0  0  0
  -23.4788   -9.7229   24.0166 C   0  0  0  0  0  0  0  0  0  0  0  0
  -28.1342  -28.2594   21.3347 C   0  0  0  0  0  0  0  0  0  0  0  0
  -22.9012   -5.0572   24.1718 C   0  0  0  0  0  0  0  0  0  0  0  0
  -22.1543   -3.9976   23.6572 C   0  0  0  0  0  0  0  0  0  0  0  0
  -26.0932  -27.8786   20.1066 C   0  0  0  0  0  0  0  0  0  0  0  0
  -26.0111  -20.6295   19.0669 C   0  0  0  0  0  0  0  0  0  0  0  0
  -20.4769   -5.5552   22.8844 C   0  0  0  0  0  0  0  0  0  0  0  0
  -24.4696  -10.3363   21.9003 C   0  0  0  0  0  0  0  0  0  0  0  0
  -24.1638  -11.9715   19.9662 C   0  0  0  0  0  0  0  0  0  0  0  0
  -22.6456  -31.7923   27.5836 C   0  0  0  0  0  0  0  0  0  0  0  0
  -26.2934  -29.8313   21.5231 C   0  0  0  0  0  0  0  0  0  0  0  0
  -23.4076  -30.9244   26.7783 C   0  0  0  0  0  0  0  0  0  0  0  0
  -25.5400  -29.0578   20.6287 C   0  0  0  0  0  0  0  0  0  0  0  0
  -26.2578  -19.2566   19.0617 C   0  0  0  0  0  0  0  0  0  0  0  0
  -27.0262  -21.5192   19.4184 C   0  0  0  0  0  0  0  0  0  0  0  0
  -27.5196  -18.7735   19.4082 C   0  0  0  0  0  0  0  0  0  0  0  0
  -23.6024   -8.3740   23.6835 C   0  0  0  0  0  0  0  0  0  0  0  0
  -27.3826  -27.4811   20.4592 C   0  0  0  0  0  0  0  0  0  0  0  0
  -22.4359   -6.3659   24.0429 C   0  0  0  0  0  0  0  0  0  0  0  0
  -20.9422   -4.2466   23.0134 C   0  0  0  0  0  0  0  0  0  0  0  0
  -21.2238   -6.6149   23.3991 C   0  0  0  0  0  0  0  0  0  0  0  0
  -24.9178  -11.3503   20.9799 C   0  0  0  0  0  0  0  0  0  0  0  0
  -25.0385  -12.8526   19.3788 C   0  0  0  0  0  0  0  0  0  0  0  0
  -22.7952  -11.7701   19.5894 C   0  0  0  0  0  0  0  0  0  0  0  0
  -23.5981  -30.3002   23.1414 C   0  0  0  0  0  0  0  0  0  0  0  0
  -22.5265  -31.3870   20.2790 C   0  0  0  0  0  0  0  0  0  0  0  0
  -27.6645  -23.9309   19.7502 C   0  0  0  0  0  0  0  0  0  0  0  0
  -22.8241  -31.3739   16.8793 C   0  0  0  0  0  0  0  0  0  0  0  0
  -28.9931  -16.7562   19.7335 C   0  0  0  0  0  0  0  0  0  0  0  0
  -21.2015  -32.0983   27.2743 C   0  0  0  0  0  0  0  0  0  0  0  0
  -25.7354  -31.1126   22.0793 C   0  0  0  0  0  0  0  0  0  0  0  0
  -24.1461  -29.4535   20.2175 C   0  0  0  0  0  0  0  0  0  0  0  0
  -20.8013  -31.7621   25.8400 C   0  0  0  0  0  0  0  0  0  0  0  0
  -30.0481  -13.3595   19.8965 C   0  0  0  0  0  0  0  0  0  0  0  0
  -21.3117  -30.3774   25.4541 C   0  0  0  0  0  0  0  0  0  0  0  0
  -28.7454  -12.5851   20.1095 C   0  0  0  0  0  0  0  0  0  0  0  0
  -30.0425  -14.6941   20.6399 C   0  0  0  0  0  0  0  0  0  0  0  0
  -27.5812  -14.7789   20.5775 C   0  0  0  0  0  0  0  0  0  0  0  0
  -22.8429  -30.3179   25.5121 C   0  0  1  0  0  0  0  0  0  0  0  0
  -24.2104  -31.1548   22.0679 C   0  0  1  0  0  0  0  0  0  0  0  0
  -27.5138  -13.4569   19.7955 C   0  0  2  0  0  0  0  0  0  0  0  0
  -25.1515  -18.3263   18.6830 C   0  0  0  0  0  0  0  0  0  0  0  0
  -21.7817  -32.3309   14.8069 C   0  0  0  0  0  0  0  0  0  0  0  0
  -20.2014  -29.4295   20.5476 C   0  0  0  0  0  0  0  0  0  0  0  0
  -19.7540  -29.7337   18.1031 C   0  0  0  0  0  0  0  0  0  0  0  0
  -19.5731  -31.6792   19.6539 C   0  0  0  0  0  0  0  0  0  0  0  0
  -25.3330  -32.7418   16.1090 C   0  0  0  0  0  0  0  0  0  0  0  0
  -26.9925  -25.2862   19.6310 C   0  0  0  0  0  0  0  0  0  1  0  0
  -21.8573  -30.7599   19.0799 C   0  0  1  0  0  0  0  0  0  0  0  0
  -22.8584  -32.5045   15.8668 C   0  0  2  0  0  0  0  0  0  0  0  0
  -20.3720  -30.3918   19.3552 C   0  0  0  0  0  0  0  0  0  0  0  0
  -26.1747  -11.7986   21.0358 N   0  0  0  0  0  0  0  0  0  0  0  0
  -26.2173  -12.7109   20.0499 N   0  0  0  0  0  0  0  0  0  0  0  0
  -23.6423  -30.7114   20.7932 N   0  0  0  0  0  0  0  0  0  0  0  0
  -28.8492  -15.4676   20.2898 N   0  0  0  0  0  0  0  0  0  0  0  0
  -24.9065  -13.7270   18.3588 N   0  0  0  0  0  0  0  0  0  0  0  0
  -22.0391  -10.8263   20.2978 N   0  0  0  0  0  0  0  0  0  0  0  0
  -26.7753  -22.9119   19.4263 N   0  0  0  0  0  0  0  0  0  0  0  0
  -27.7897  -17.3825   19.4107 N   0  0  0  0  0  0  0  0  0  0  0  0
  -23.4179  -30.9532   24.3458 N   0  0  0  0  0  0  0  0  0  0  0  0
  -22.0469  -31.6913   17.9731 N   0  0  0  0  0  0  0  0  0  0  0  0
  -24.1838  -32.5511   15.1871 N   0  3  0  0  0  0  0  0  0  0  0  0
  -22.2633  -12.3964   18.6416 O   0  0  0  0  0  0  0  0  0  0  0  0
  -23.3090  -29.1352   22.8947 O   0  0  0  0  0  0  0  0  0  0  0  0
  -22.0801  -32.4413   20.7381 O   0  0  0  0  0  0  0  0  0  0  0  0
  -28.8377  -23.8233   20.0920 O   0  0  0  0  0  0  0  0  0  0  0  0
  -23.4237  -30.3138   16.7145 O   0  0  0  0  0  0  0  0  0  0  0  0
  -30.1029  -17.2555   19.5313 O   0  0  0  0  0  0  0  0  0  0  0  0
  -23.1790   -7.4169   24.5537 O   0  0  0  0  0  0  0  0  0  0  0  0
  -27.9070  -26.3360   19.9439 O   0  0  0  0  0  0  0  0  0  1  0  0
  -20.2258   -3.2290   22.5179 F   0  0  0  0  0  0  0  0  0  0  0  0
  -20.7723   -7.8701   23.2711 F   0  0  0  0  0  0  0  0  0  0  0  0
  1  2  1  0  0  0  0
  1  5  2  0  0  0  0
  2  6  2  0  0  0  0
  3 10  2  0  0  0  0
  3 18  1  0  0  0  0
  4 11  1  0  0  0  0
  4 18  2  0  0  0  0
  5 20  1  0  0  0  0
  6 22  1  0  0  0  0
  7 12  2  0  0  0  0
  7 21  1  0  0  0  0
  8  9  2  0  0  0  0
  8 25  1  0  0  0  0
  9 26  1  0  0  0  0
 10 27  1  0  0  0  0
 11 27  2  0  0  0  0
 12 28  1  0  0  0  0
 13 14  2  0  0  0  0
 13 29  1  0  0  0  0
 14 30  1  0  0  0  0
 15 23  1  0  0  0  0
 15 28  2  0  0  0  0
 16 24  1  0  0  0  0
 16 25  2  0  0  0  0
 17 30  2  0  0  0  0
 17 31  1  0  0  0  0
 18 32  1  0  0  0  0
 19 32  1  0  0  0  0
 19 33  2  0  0  0  0
 19 34  1  0  0  0  0
 20 22  2  0  0  0  0
 20 40  1  0  0  0  0
 21 23  2  0  0  0  0
 21 41  1  0  0  0  0
 22 49  1  0  0  0  0
 23 42  1  0  0  0  0
 24 26  2  0  0  0  0
 24 52  1  0  0  0  0
 25 68  1  0  0  0  0
 26 69  1  0  0  0  0
 27 79  1  0  0  0  0
 28 80  1  0  0  0  0
 29 31  2  0  0  0  0
 29 79  1  0  0  0  0
 30 81  1  0  0  0  0
 31 82  1  0  0  0  0
 32 62  2  0  0  0  0
 33 63  1  0  0  0  0
 33 66  1  0  0  0  0
 34 67  1  0  0  0  0
 34 73  2  0  0  0  0
 35 50  1  0  0  0  0
 35 70  1  0  0  0  0
 35 74  2  0  0  0  0
 36 59  1  0  0  0  0
 36 64  1  0  0  0  0
 36 75  2  0  0  0  0
 37 58  1  0  0  0  0
 37 68  1  0  0  0  0
 37 76  2  0  0  0  0
 38 60  1  0  0  0  0
 38 71  1  0  0  0  0
 38 77  2  0  0  0  0
 39 65  1  0  0  0  0
 39 69  1  0  0  0  0
 39 78  2  0  0  0  0
 40 43  1  0  0  0  0
 41 50  1  0  0  0  0
 42 64  1  0  0  0  0
 43 45  1  0  0  0  0
 44 46  1  0  0  0  0
 44 47  1  0  0  0  0
 45 49  1  0  0  0  0
 46 51  1  0  0  0  0
 47 65  1  0  0  0  0
 48 51  1  0  0  0  0
 48 65  1  0  0  0  0
 49 70  1  0  0  0  0
 50 64  1  0  0  0  0
 51 63  1  0  0  0  0
 53 60  1  0  0  0  0
 54 61  1  0  0  0  0
 55 61  1  0  0  0  0
 56 61  1  0  0  0  0
 57 72  1  0  0  0  0
 58 80  1  0  0  0  0
 59 61  1  0  0  0  0
 59 71  1  0  0  0  0
 60 72  1  0  0  0  0
 62 63  1  0  0  0  0
M  CHG  1  72   1
M  ISO  4  39 100  58 101  69 100  80 101
M  END
> <Batch ID>
0010

> <Smiles>
CNC(C)C(=O)NC(C(=O)N1Cc2cc([101O:1][101CH2:1]C(=O)Nc3ccc([100NH:0][100C:0](=O)N4CCCC(n5nc(-c6ccc(Oc7ccc(F)cc7F)cc6)c(C(N)=O)c5N)C4)c(C)c3)ccc2CC1C(=O)NC1CCCc2ccccc21)C(C)(C)C

> <Shape>
0.257

> <Color>
0.117

> <Negative vol penalty>
0.000

$$$$

  -OEChem-04052315413D

 81 89  0     1  0  0  0  0  0999 V2000
  -16.6897  -29.4611   23.1319 C   0  0  0  0  0  0  0  0  0  0  0  0
  -17.6537  -29.5874   22.1369 C   0  0  0  0  0  0  0  0  0  0  0  0
  -26.5850  -12.6865   21.9931 C   0  0  0  0  0  0  0  0  0  0  0  0
  -25.7693  -14.3575   20.4506 C   0  0  0  0  0  0  0  0  0  0  0  0
  -17.0736  -29.1677   24.4398 C   0  0  0  0  0  0  0  0  0  0  0  0
  -19.0025  -29.4214   22.4495 C   0  0  0  0  0  0  0  0  0  0  0  0
  -25.1332  -27.0212   19.6262 C   0  0  0  0  0  0  0  0  0  0  0  0
  -28.8220  -22.0323   20.5317 C   0  0  0  0  0  0  0  0  0  0  0  0
  -30.6671  -22.6487   21.9643 C   0  0  0  0  0  0  0  0  0  0  0  0
  -25.3403  -12.0575   21.9700 C   0  0  0  0  0  0  0  0  0  0  0  0
  -24.5245  -13.7284   20.4274 C   0  0  0  0  0  0  0  0  0  0  0  0
  -26.4510  -27.4234   19.4131 C   0  0  0  0  0  0  0  0  0  0  0  0
  -29.1192  -23.1028   19.6883 C   0  0  0  0  0  0  0  0  0  0  0  0
  -30.9644  -23.7192   21.1209 C   0  0  0  0  0  0  0  0  0  0  0  0
  -22.4870   -9.8060   22.0365 C   0  0  0  0  0  0  0  0  0  0  0  0
  -22.4646   -8.4169   21.9129 C   0  0  0  0  0  0  0  0  0  0  0  0
  -26.9909  -26.8404   21.6907 C   0  0  0  0  0  0  0  0  0  0  0  0
  -23.6152   -8.5868   19.7952 C   0  0  0  0  0  0  0  0  0  0  0  0
  -26.7995  -13.8366   21.2335 C   0  0  0  0  0  0  0  0  0  0  0  0
  -29.1797  -14.2381   20.4083 C   0  0  0  0  0  0  0  0  0  0  0  0
  -18.4270  -28.9886   24.7666 C   0  0  0  0  0  0  0  0  0  0  0  0
  -24.7311  -26.5350   20.8786 C   0  0  0  0  0  0  0  0  0  0  0  0
  -19.4050  -29.1267   23.7632 C   0  0  0  0  0  0  0  0  0  0  0  0
  -25.6680  -26.4303   21.9165 C   0  0  0  0  0  0  0  0  0  0  0  0
  -29.5959  -21.8053   21.6698 C   0  0  0  0  0  0  0  0  0  0  0  0
  -24.3101  -12.5784   21.1871 C   0  0  0  0  0  0  0  0  0  0  0  0
  -30.1904  -23.9462   19.9829 C   0  0  0  0  0  0  0  0  0  0  0  0
  -27.3794  -27.3357   20.4462 C   0  0  0  0  0  0  0  0  0  0  0  0
  -23.0734  -10.5856   21.0395 C   0  0  0  0  0  0  0  0  0  0  0  0
  -23.0288   -7.8072   20.7923 C   0  0  0  0  0  0  0  0  0  0  0  0
  -23.6375   -9.9760   19.9189 C   0  0  0  0  0  0  0  0  0  0  0  0
  -28.0849  -14.4872   21.2574 C   0  0  0  0  0  0  0  0  0  0  0  0
  -30.1515  -15.1091   20.8365 C   0  0  0  0  0  0  0  0  0  0  0  0
  -29.3069  -13.3031   19.3288 C   0  0  0  0  0  0  0  0  0  0  0  0
  -22.6340  -27.4660   23.0784 C   0  0  0  0  0  0  0  0  0  0  0  0
  -23.4563  -24.6625   24.4878 C   0  0  0  0  0  0  0  0  0  0  0  0
  -25.7688  -22.1825   24.8734 C   0  0  0  0  0  0  0  0  0  0  0  0
  -29.9615  -20.3528   23.6953 C   0  0  0  0  0  0  0  0  0  0  0  0
  -18.7973  -28.7192   26.2036 C   0  0  0  0  0  0  0  0  0  0  0  0
  -23.3122  -26.0803   21.0845 C   0  0  0  0  0  0  0  0  0  0  0  0
  -25.2918  -25.8963   23.2735 C   0  0  0  0  0  0  0  0  0  0  0  0
  -20.2180  -28.1885   26.3773 C   0  0  0  0  0  0  0  0  0  0  0  0
  -31.6554  -17.4075   24.7596 C   0  0  0  0  0  0  0  0  0  0  0  0
  -21.2010  -29.0149   25.5542 C   0  0  0  0  0  0  0  0  0  0  0  0
  -31.0359  -16.3026   23.9007 C   0  0  0  0  0  0  0  0  0  0  0  0
  -30.6229  -18.4591   25.1620 C   0  0  0  0  0  0  0  0  0  0  0  0
  -29.2429  -17.9355   23.1896 C   0  0  0  0  0  0  0  0  0  0  0  0
  -20.8762  -28.9294   24.0580 C   0  0  1  0  0  0  0  0  0  0  0  0
  -22.8907  -26.0828   22.5507 C   0  0  1  0  0  0  0  0  0  0  0  0
  -30.2581  -16.8873   22.7054 C   0  0  2  0  0  0  0  0  0  0  0  0
  -26.7383  -20.0040   25.6554 C   0  0  0  0  0  0  0  0  0  0  0  0
  -24.0606  -26.2563   27.0185 C   0  0  0  0  0  0  0  0  0  0  0  0
  -25.3278  -24.2761   27.8794 C   0  0  0  0  0  0  0  0  0  0  0  0
  -22.8855  -24.0837   27.4097 C   0  0  0  0  0  0  0  0  0  0  0  0
  -24.6824  -20.7270   22.5367 C   0  0  0  0  0  0  0  0  0  0  0  0
  -30.6908  -27.3904   18.9728 C   0  0  0  0  0  0  0  0  0  0  0  0
  -31.0716  -26.1434   19.7552 C   0  0  0  0  0  0  0  0  0  0  0  0
  -29.1843  -27.5901   18.9186 C   0  0  0  0  0  0  0  0  0  1  0  0
  -24.5109  -24.2332   25.4790 C   0  0  1  0  0  0  0  0  0  0  0  0
  -25.6386  -20.6703   24.8434 C   0  0  2  0  0  0  0  0  0  0  0  0
  -24.2031  -24.7242   26.9218 C   0  0  0  0  0  0  0  0  0  0  0  0
  -28.3369  -15.4416   22.1572 N   0  0  0  0  0  0  0  0  0  0  0  0
  -29.6013  -15.7998   21.8759 N   0  0  0  0  0  0  0  0  0  0  0  0
  -23.8910  -25.4702   23.4273 N   0  0  0  0  0  0  0  0  0  0  0  0
  -29.9288  -18.9709   23.9784 N   0  0  0  0  0  0  0  0  0  0  0  0
  -31.4146  -15.3439   20.4217 N   0  0  0  0  0  0  0  0  0  0  0  0
  -28.2117  -12.4841   19.0219 N   0  0  0  0  0  0  0  0  0  0  0  0
  -29.2941  -20.7179   22.5266 N   0  0  0  0  0  0  0  0  0  0  0  0
  -21.3380  -27.6713   23.5117 N   0  0  0  0  0  0  0  0  0  0  0  0
  -24.6244  -22.7842   25.3524 N   0  0  0  0  0  0  0  0  0  0  0  0
  -25.7210  -20.1710   23.4417 N   0  3  0  0  0  0  0  0  0  0  0  0
  -30.3659  -13.1856   18.6670 O   0  0  0  0  0  0  0  0  0  0  0  0
  -23.5446  -28.2859   23.0928 O   0  0  0  0  0  0  0  0  0  0  0  0
  -22.2912  -24.2890   24.6446 O   0  0  0  0  0  0  0  0  0  0  0  0
  -26.7855  -22.7708   24.5118 O   0  0  0  0  0  0  0  0  0  0  0  0
  -30.5621  -21.1498   24.4207 O   0  0  0  0  0  0  0  0  0  0  0  0
  -23.0954  -11.9646   21.1640 O   0  0  0  0  0  0  0  0  0  0  0  0
  -30.4825  -24.9982   19.1542 O   0  0  0  0  0  0  0  0  0  0  0  0
  -28.6662  -27.7281   20.2411 O   0  0  0  0  0  0  0  0  0  1  0  0
  -23.0086   -6.4731   20.6744 F   0  0  0  0  0  0  0  0  0  0  0  0
  -24.2034  -10.7197   18.9583 F   0  0  0  0  0  0  0  0  0  0  0  0
  1  2  1  0  0  0  0
  1  5  2  0  0  0  0
  2  6  2  0  0  0  0
  3 10  2  0  0  0  0
  3 19  1  0  0  0  0
  4 11  1  0  0  0  0
  4 19  2  0  0  0  0
  5 21  1  0  0  0  0
  6 23  1  0  0  0  0
  7 12  2  0  0  0  0
  7 22  1  0  0  0  0
  8 13  2  0  0  0  0
  8 25  1  0  0  0  0
  9 14  1  0  0  0  0
  9 25  2  0  0  0  0
 10 26  1  0  0  0  0
 11 26  2  0  0  0  0
 12 28  1  0  0  0  0
 13 27  1  0  0  0  0
 14 27  2  0  0  0  0
 15 16  2  0  0  0  0
 15 29  1  0  0  0  0
 16 30  1  0  0  0  0
 17 24  1  0  0  0  0
 17 28  2  0  0  0  0
 18 30  2  0  0  0  0
 18 31  1  0  0  0  0
 19 32  1  0  0  0  0
 20 32  1  0  0  0  0
 20 33  2  0  0  0  0
 20 34  1  0  0  0  0
 21 23  2  0  0  0  0
 21 39  1  0  0  0  0
 22 24  2  0  0  0  0
 22 40  1  0  0  0  0
 23 48  1  0  0  0  0
 24 41  1  0  0  0  0
 25 68  1  0  0  0  0
 26 77  1  0  0  0  0
 27 78  1  0  0  0  0
 28 79  1  0  0  0  0
 29 31  2  0  0  0  0
 29 77  1  0  0  0  0
 30 80  1  0  0  0  0
 31 81  1  0  0  0  0
 32 62  2  0  0  0  0
 33 63  1  0  0  0  0
 33 66  1  0  0  0  0
 34 67  1  0  0  0  0
 34 72  2  0  0  0  0
 35 49  1  0  0  0  0
 35 69  1  0  0  0  0
 35 73  2  0  0  0  0
 36 59  1  0  0  0  0
 36 64  1  0  0  0  0
 36 74  2  0  0  0  0
 37 60  1  0  0  0  0
 37 70  1  0  0  0  0
 37 75  2  0  0  0  0
 38 65  1  0  0  0  0
 38 68  1  0  0  0  0
 38 76  2  0  0  0  0
 39 42  1  0  0  0  0
 40 49  1  0  0  0  0
 41 64  1  0  0  0  0
 42 44  1  0  0  0  0
 43 45  1  0  0  0  0
 43 46  1  0  0  0  0
 44 48  1  0  0  0  0
 45 50  1  0  0  0  0
 46 65  1  0  0  0  0
 47 50  1  0  0  0  0
 47 65  1  0  0  0  0
 48 69  1  0  0  0  0
 49 64  1  0  0  0  0
 50 63  1  0  0  0  0
 51 60  1  0  0  0  0
 52 61  1  0  0  0  0
 53 61  1  0  0  0  0
 54 61  1  0  0  0  0
 55 71  1  0  0  0  0
 56 57  1  0  0  0  0
 56 58  1  0  0  0  0
 57 78  1  0  0  0  0
 58 79  1  0  0  0  0
 59 61  1  0  0  0  0
 59 70  1  0  0  0  0
 60 71  1  0  0  0  0
 62 63  1  0  0  0  0
M  CHG  1  71   1
M  ISO  4  38 100  58 101  68 100  79 101
M  END
> <Batch ID>
0010

> <Smiles>
CNC(C)C(=O)NC(C(=O)N1Cc2cc([101O:1][101CH2:1]CCOc3ccc([100NH:0][100C:0](=O)N4CCCC(n5nc(-c6ccc(Oc7ccc(F)cc7F)cc6)c(C(N)=O)c5N)C4)cc3)ccc2CC1C(=O)NC1CCCc2ccccc21)C(C)(C)C

> <Shape>
0.239

> <Color>
0.096

> <Negative vol penalty>
0.000

$$$$

  -OEChem-04052315413D

 84 92  0     1  0  0  0  0  0999 V2000
  -22.1812  -31.5960   14.1654 C   0  0  0  0  0  0  0  0  0  0  0  0
  -23.2721  -30.9749   14.7651 C   0  0  0  0  0  0  0  0  0  0  0  0
  -23.4097   -9.2552   22.3134 C   0  0  0  0  0  0  0  0  0  0  0  0
  -25.0363   -8.4475   20.7201 C   0  0  0  0  0  0  0  0  0  0  0  0
  -21.6831  -32.7874   14.6910 C   0  0  0  0  0  0  0  0  0  0  0  0
  -23.8661  -31.5456   15.8903 C   0  0  0  0  0  0  0  0  0  0  0  0
  -24.8481  -28.1395   19.5069 C   0  0  0  0  0  0  0  0  0  0  0  0
  -32.3370  -18.0713   21.0989 C   0  0  0  0  0  0  0  0  0  0  0  0
  -22.6819   -8.0741   22.1693 C   0  0  0  0  0  0  0  0  0  0  0  0
  -24.3086   -7.2663   20.5760 C   0  0  0  0  0  0  0  0  0  0  0  0
  -25.9709  -27.3316   19.3327 C   0  0  0  0  0  0  0  0  0  0  0  0
  -22.8587   -4.8874   23.2858 C   0  0  0  0  0  0  0  0  0  0  0  0
  -32.4340  -16.6802   21.0636 C   0  0  0  0  0  0  0  0  0  0  0  0
  -22.3919   -4.2680   24.4452 C   0  0  0  0  0  0  0  0  0  0  0  0
  -27.2141  -28.7446   20.8417 C   0  0  0  0  0  0  0  0  0  0  0  0
  -30.1897  -17.9494   19.9983 C   0  0  0  0  0  0  0  0  0  0  0  0
  -20.1207   -4.4992   23.6541 C   0  0  0  0  0  0  0  0  0  0  0  0
  -24.5869   -9.4420   21.5888 C   0  0  0  0  0  0  0  0  0  0  0  0
  -26.3704  -10.9183   22.6599 C   0  0  0  0  0  0  0  0  0  0  0  0
  -22.2652  -33.3679   15.8289 C   0  0  0  0  0  0  0  0  0  0  0  0
  -24.9031  -29.2642   20.3427 C   0  0  0  0  0  0  0  0  0  0  0  0
  -23.3761  -32.7466   16.4308 C   0  0  0  0  0  0  0  0  0  0  0  0
  -26.0899  -29.5637   21.0268 C   0  0  0  0  0  0  0  0  0  0  0  0
  -31.2148  -18.7059   20.5663 C   0  0  0  0  0  0  0  0  0  0  0  0
  -30.2867  -16.5584   19.9630 C   0  0  0  0  0  0  0  0  0  0  0  0
  -23.1314   -7.0796   21.3006 C   0  0  0  0  0  0  0  0  0  0  0  0
  -27.1550  -27.6357   19.9979 C   0  0  0  0  0  0  0  0  0  0  0  0
  -21.9565   -5.3127   22.3107 C   0  0  0  0  0  0  0  0  0  0  0  0
  -21.0229   -4.0739   24.6293 C   0  0  0  0  0  0  0  0  0  0  0  0
  -31.4089  -15.9238   20.4956 C   0  0  0  0  0  0  0  0  0  0  0  0
  -20.5876   -5.1186   22.4948 C   0  0  0  0  0  0  0  0  0  0  0  0
  -25.3388  -10.6622   21.7368 C   0  0  0  0  0  0  0  0  0  0  0  0
  -26.7544  -12.2103   22.3957 C   0  0  0  0  0  0  0  0  0  0  0  0
  -26.9314  -10.0647   23.6660 C   0  0  0  0  0  0  0  0  0  0  0  0
  -24.5438  -32.3938   19.9186 C   0  0  0  0  0  0  0  0  0  0  0  0
  -24.7909  -32.4660   23.1522 C   0  0  0  0  0  0  0  0  0  0  0  0
  -25.9060  -30.9646   26.0069 C   0  0  0  0  0  0  0  0  0  0  0  0
  -28.0642  -16.2668   18.8135 C   0  0  0  0  0  0  0  0  0  0  0  0
  -21.7215  -34.6813   16.3327 C   0  0  0  0  0  0  0  0  0  0  0  0
  -23.6754  -30.1103   20.5408 C   0  0  0  0  0  0  0  0  0  0  0  0
  -26.1951  -30.7481   21.9512 C   0  0  0  0  0  0  0  0  0  0  0  0
  -22.1731  -35.0241   17.7500 C   0  0  0  0  0  0  0  0  0  0  0  0
  -24.6064  -15.7571   19.4926 C   0  0  0  0  0  0  0  0  0  0  0  0
  -23.6733  -34.7938   17.9026 C   0  0  0  0  0  0  0  0  0  0  0  0
  -24.5735  -14.4072   20.2130 C   0  0  0  0  0  0  0  0  0  0  0  0
  -25.6632  -15.7859   18.3899 C   0  0  0  0  0  0  0  0  0  0  0  0
  -26.9815  -14.0480   19.5349 C   0  0  0  0  0  0  0  0  0  0  0  0
  -24.0321  -33.3216   17.6674 C   0  0  1  0  0  0  0  0  0  0  0  0
  -23.9947  -31.5248   21.0145 C   0  0  1  0  0  0  0  0  0  0  0  0
  -25.9768  -13.9926   20.6973 C   0  0  2  0  0  0  0  0  0  0  0  0
  -25.9919  -31.2812   28.4948 C   0  0  0  0  0  0  0  0  0  0  0  0
  -27.0180  -34.5235   22.8111 C   0  0  0  0  0  0  0  0  0  0  0  0
  -27.6880  -34.0889   25.1840 C   0  0  0  0  0  0  0  0  0  0  0  0
  -25.4256  -35.0096   24.6772 C   0  0  0  0  0  0  0  0  0  0  0  0
  -24.3454  -28.4970   26.4914 C   0  0  0  0  0  0  0  0  0  0  0  0
  -28.9755  -23.1459   19.8267 C   0  0  0  0  0  0  0  0  0  0  0  0
  -30.1667  -22.3228   20.3267 C   0  0  0  0  0  0  0  0  0  0  0  0
  -29.1861  -24.6369   20.0836 C   0  0  0  0  0  0  0  0  0  0  0  0
  -29.9958  -20.8270   20.0758 C   0  0  0  0  0  0  0  0  0  0  0  0
  -28.0254  -25.4678   19.5524 C   0  0  0  0  0  0  0  0  0  1  0  0
  -25.9300  -32.5923   24.1348 C   0  0  1  0  0  0  0  0  0  0  0  0
  -25.2188  -30.6814   27.3306 C   0  0  2  0  0  0  0  0  0  0  0  0
  -26.5143  -34.0323   24.1829 C   0  0  0  0  0  0  0  0  0  0  0  0
  -25.0835  -11.7075   20.9456 N   0  0  0  0  0  0  0  0  0  0  0  0
  -25.9602  -12.6331   21.3707 N   0  0  0  0  0  0  0  0  0  0  0  0
  -24.9693  -31.5485   22.1071 N   0  0  0  0  0  0  0  0  0  0  0  0
  -26.9673  -15.3861   18.9232 N   0  0  0  0  0  0  0  0  0  0  0  0
  -27.6906  -13.0146   22.9426 N   0  0  0  0  0  0  0  0  0  0  0  0
  -26.4196   -8.7671   23.8025 N   0  0  0  0  0  0  0  0  0  0  0  0
  -29.2441  -15.7922   19.3854 N   0  0  0  0  0  0  0  0  0  0  0  0
  -31.1182  -20.0881   20.6020 N   0  0  0  0  0  0  0  0  0  0  0  0
  -23.7012  -32.5284   18.8317 N   0  0  0  0  0  0  0  0  0  0  0  0
  -25.4205  -32.1111   25.4144 N   0  0  0  0  0  0  0  0  0  0  0  0
  -25.1034  -29.2120   27.5503 N   0  3  0  0  0  0  0  0  0  0  0  0
  -27.8478  -10.4471   24.4325 O   0  0  0  0  0  0  0  0  0  0  0  0
  -25.6495  -32.9056   20.0501 O   0  0  0  0  0  0  0  0  0  0  0  0
  -23.7772  -33.1508   23.3103 O   0  0  0  0  0  0  0  0  0  0  0  0
  -26.7880  -30.2431   25.5465 O   0  0  0  0  0  0  0  0  0  0  0  0
  -27.9572  -17.3728   18.2775 O   0  0  0  0  0  0  0  0  0  0  0  0
  -22.4216   -5.9267   21.1599 O   0  0  0  0  0  0  0  0  0  0  0  0
  -28.2526  -26.8492   19.8292 O   0  0  0  0  0  0  0  0  0  1  0  0
  -20.5749   -3.4777   25.7420 F   0  0  0  0  0  0  0  0  0  0  0  0
  -31.5131  -14.5875   20.4670 F   0  0  0  0  0  0  0  0  0  0  0  0
  -19.7161   -5.5240   21.5610 F   0  0  0  0  0  0  0  0  0  0  0  0
  1  2  1  0  0  0  0
  1  5  2  0  0  0  0
  2  6  2  0  0  0  0
  3  9  2  0  0  0  0
  3 18  1  0  0  0  0
  4 10  1  0  0  0  0
  4 18  2  0  0  0  0
  5 20  1  0  0  0  0
  6 22  1  0  0  0  0
  7 11  2  0  0  0  0
  7 21  1  0  0  0  0
  8 13  2  0  0  0  0
  8 24  1  0  0  0  0
  9 26  1  0  0  0  0
 10 26  2  0  0  0  0
 11 27  1  0  0  0  0
 12 14  2  0  0  0  0
 12 28  1  0  0  0  0
 13 30  1  0  0  0  0
 14 29  1  0  0  0  0
 15 23  1  0  0  0  0
 15 27  2  0  0  0  0
 16 24  2  0  0  0  0
 16 25  1  0  0  0  0
 17 29  2  0  0  0  0
 17 31  1  0  0  0  0
 18 32  1  0  0  0  0
 19 32  1  0  0  0  0
 19 33  2  0  0  0  0
 19 34  1  0  0  0  0
 20 22  2  0  0  0  0
 20 39  1  0  0  0  0
 21 23  2  0  0  0  0
 21 40  1  0  0  0  0
 22 48  1  0  0  0  0
 23 41  1  0  0  0  0
 24 71  1  0  0  0  0
 25 30  2  0  0  0  0
 25 70  1  0  0  0  0
 26 80  1  0  0  0  0
 27 81  1  0  0  0  0
 28 31  2  0  0  0  0
 28 80  1  0  0  0  0
 29 82  1  0  0  0  0
 30 83  1  0  0  0  0
 31 84  1  0  0  0  0
 32 64  2  0  0  0  0
 33 65  1  0  0  0  0
 33 68  1  0  0  0  0
 34 69  1  0  0  0  0
 34 75  2  0  0  0  0
 35 49  1  0  0  0  0
 35 72  1  0  0  0  0
 35 76  2  0  0  0  0
 36 61  1  0  0  0  0
 36 66  1  0  0  0  0
 36 77  2  0  0  0  0
 37 62  1  0  0  0  0
 37 73  1  0  0  0  0
 37 78  2  0  0  0  0
 38 67  1  0  0  0  0
 38 70  1  0  0  0  0
 38 79  2  0  0  0  0
 39 42  1  0  0  0  0
 40 49  1  0  0  0  0
 41 66  1  0  0  0  0
 42 44  1  0  0  0  0
 43 45  1  0  0  0  0
 43 46  1  0  0  0  0
 44 48  1  0  0  0  0
 45 50  1  0  0  0  0
 46 67  1  0  0  0  0
 47 50  1  0  0  0  0
 47 67  1  0  0  0  0
 48 72  1  0  0  0  0
 49 66  1  0  0  0  0
 50 65  1  0  0  0  0
 51 62  1  0  0  0  0
 52 63  1  0  0  0  0
 53 63  1  0  0  0  0
 54 63  1  0  0  0  0
 55 74  1  0  0  0  0
 56 57  1  0  0  0  0
 56 58  1  0  0  0  0
 57 59  1  0  0  0  0
 58 60  1  0  0  0  0
 59 71  1  0  0  0  0
 60 81  1  0  0  0  0
 61 63  1  0  0  0  0
 61 73  1  0  0  0  0
 62 74  1  0  0  0  0
 64 65  1  0  0  0  0
M  CHG  1  74   1
M  ISO  4  38 100  60 101  70 100  81 101
M  END
> <Batch ID>
0010

> <Smiles>
CNC(C)C(=O)NC(C(=O)N1Cc2cc([101O:1][101CH2:1]CCCCNc3ccc(F)c([100NH:0][100C:0](=O)N4CCCC(n5nc(-c6ccc(Oc7ccc(F)cc7F)cc6)c(C(N)=O)c5N)C4)c3)ccc2CC1C(=O)NC1CCCc2ccccc21)C(C)(C)C

> <Shape>
0.287

> <Color>
0.093

> <Negative vol penalty>
0.000

$$$$

  -OEChem-04052315413D

 90 99  0     1  0  0  0  0  0999 V2000
  -31.5147  -30.7032   26.6326 C   0  0  0  0  0  0  0  0  0  0  0  0
  -31.2016  -29.8139   25.6096 C   0  0  0  0  0  0  0  0  0  0  0  0
  -22.5994  -10.2756   20.2660 C   0  0  0  0  0  0  0  0  0  0  0  0
  -24.3425   -9.5765   21.7859 C   0  0  0  0  0  0  0  0  0  0  0  0
  -30.5012  -31.2263   27.4345 C   0  0  0  0  0  0  0  0  0  0  0  0
  -29.8748  -29.4463   25.3886 C   0  0  0  0  0  0  0  0  0  0  0  0
  -27.2391  -28.2376   19.9943 C   0  0  0  0  0  0  0  0  0  0  0  0
  -30.3981  -20.1475   23.7865 C   0  0  0  0  0  0  0  0  0  0  0  0
  -29.6007  -20.0284   22.6483 C   0  0  0  0  0  0  0  0  0  0  0  0
  -22.0475   -8.9953   20.3101 C   0  0  0  0  0  0  0  0  0  0  0  0
  -23.7906   -8.2962   21.8300 C   0  0  0  0  0  0  0  0  0  0  0  0
  -26.9583  -27.0419   19.3346 C   0  0  0  0  0  0  0  0  0  0  0  0
  -22.6340   -4.9426   22.6259 C   0  0  0  0  0  0  0  0  0  0  0  0
  -22.5120   -4.3308   23.8734 C   0  0  0  0  0  0  0  0  0  0  0  0
  -24.7129  -27.0905   20.2151 C   0  0  0  0  0  0  0  0  0  0  0  0
  -32.2071  -19.0337   22.6358 C   0  0  0  0  0  0  0  0  0  0  0  0
  -21.0882   -6.1347   24.6188 C   0  0  0  0  0  0  0  0  0  0  0  0
  -23.7469  -10.5662   21.0039 C   0  0  0  0  0  0  0  0  0  0  0  0
  -24.0170  -12.9737   21.8029 C   0  0  0  0  0  0  0  0  0  0  0  0
  -29.1602  -30.8724   27.2170 C   0  0  0  0  0  0  0  0  0  0  0  0
  -26.2607  -28.8641   20.7796 C   0  0  0  0  0  0  0  0  0  0  0  0
  -28.8425  -29.9641   26.1892 C   0  0  0  0  0  0  0  0  0  0  0  0
  -24.9831  -28.2954   20.8818 C   0  0  0  0  0  0  0  0  0  0  0  0
  -31.7014  -19.6502   23.7802 C   0  0  0  0  0  0  0  0  0  0  0  0
  -30.1064  -19.4118   21.5039 C   0  0  0  0  0  0  0  0  0  0  0  0
  -22.6431   -8.0056   21.0920 C   0  0  0  0  0  0  0  0  0  0  0  0
  -25.6959  -26.4667   19.4473 C   0  0  0  0  0  0  0  0  0  0  0  0
  -21.9832   -6.1505   22.3748 C   0  0  0  0  0  0  0  0  0  0  0  0
  -21.7390   -4.9268   24.8699 C   0  0  0  0  0  0  0  0  0  0  0  0
  -21.2103   -6.7466   23.3712 C   0  0  0  0  0  0  0  0  0  0  0  0
  -31.4096  -18.9145   21.4976 C   0  0  0  0  0  0  0  0  0  0  0  0
  -24.3178  -11.8884   20.9584 C   0  0  0  0  0  0  0  0  0  0  0  0
  -24.8200  -13.9926   21.3519 C   0  0  0  0  0  0  0  0  0  0  0  0
  -23.0942  -13.0538   22.8973 C   0  0  0  0  0  0  0  0  0  0  0  0
  -25.9981  -29.6185   23.8562 C   0  0  0  0  0  0  0  0  0  0  0  0
  -27.9639  -19.7587   20.2336 C   0  0  0  0  0  0  0  0  0  0  0  0
  -23.2847  -31.0921   22.8622 C   0  0  0  0  0  0  0  0  0  0  0  0
  -20.7893  -31.3114   20.5444 C   0  0  0  0  0  0  0  0  0  0  0  0
  -26.5933  -16.7991   16.8096 C   0  0  0  0  0  0  0  0  0  0  0  0
  -28.1042  -31.4271   28.1400 C   0  0  0  0  0  0  0  0  0  0  0  0
  -26.5712  -30.1674   21.4633 C   0  0  0  0  0  0  0  0  0  0  0  0
  -23.8915  -28.9387   21.6960 C   0  0  0  0  0  0  0  0  0  0  0  0
  -26.6841  -31.2773   27.6005 C   0  0  0  0  0  0  0  0  0  0  0  0
  -28.6770  -13.9677   18.0975 C   0  0  0  0  0  0  0  0  0  0  0  0
  -26.4621  -29.8658   27.0665 C   0  0  0  0  0  0  0  0  0  0  0  0
  -27.6600  -13.2328   18.9691 C   0  0  0  0  0  0  0  0  0  0  0  0
  -27.9935  -14.7047   16.9518 C   0  0  0  0  0  0  0  0  0  0  0  0
  -25.1258  -18.8307   17.1658 C   0  0  0  0  0  0  0  0  0  0  0  0
  -26.7090  -18.1110   18.9053 C   0  0  0  0  0  0  0  0  0  0  0  0
  -25.9094  -14.9274   18.2680 C   0  0  0  0  0  0  0  0  0  0  0  0
  -25.7985  -20.1960   17.0992 C   0  0  0  0  0  0  0  0  0  0  0  0
  -27.4125  -29.5605   25.9024 C   0  0  1  0  0  0  0  0  0  0  0  0
  -25.6583  -30.4507   22.6523 C   0  0  1  0  0  0  0  0  0  0  0  0
  -27.4262  -19.4584   18.8708 C   0  0  1  0  0  0  0  0  0  0  0  0
  -26.5570  -14.1899   19.4515 C   0  0  1  0  0  0  0  0  0  0  0  0
  -32.5533  -19.7777   24.9976 C   0  0  0  0  0  0  0  0  0  0  0  0
  -18.6930  -32.5879   20.0216 C   0  0  0  0  0  0  0  0  0  0  0  0
  -21.7911  -29.5112   25.0022 C   0  0  0  0  0  0  0  0  0  0  0  0
  -19.6525  -30.0820   23.8323 C   0  0  0  0  0  0  0  0  0  0  0  0
  -21.0770  -31.8976   24.7793 C   0  0  0  0  0  0  0  0  0  0  0  0
  -21.9033  -32.3243   17.9965 C   0  0  0  0  0  0  0  0  0  0  0  0
  -25.9640  -22.9703   18.5799 C   0  0  0  0  0  0  0  0  0  0  0  0
  -27.0402  -21.9110   18.3953 C   0  0  0  0  0  0  0  0  0  0  0  0
  -26.5038  -24.3950   18.6038 C   0  0  0  0  0  0  0  0  0  1  0  0
  -21.8417  -30.6792   22.7002 C   0  0  1  0  0  0  0  0  0  0  0  0
  -20.1968  -32.5016   19.8118 C   0  0  2  0  0  0  0  0  0  0  0  0
  -21.1115  -30.5291   24.0646 C   0  0  0  0  0  0  0  0  0  0  0  0
  -25.2399  -12.1896   20.0402 N   0  0  0  0  0  0  0  0  0  0  0  0
  -25.5253  -13.4758   20.3051 N   0  0  0  0  0  0  0  0  0  0  0  0
  -24.2460  -30.2088   22.3507 N   0  0  0  0  0  0  0  0  0  0  0  0
  -26.9188  -15.5832   17.4339 N   0  0  0  0  0  0  0  0  0  0  0  0
  -26.0707  -17.8112   17.6280 N   0  0  0  0  0  0  0  0  0  0  0  0
  -24.9845  -15.2713   21.7524 N   0  0  0  0  0  0  0  0  0  0  0  0
  -22.3484  -11.9139   23.2272 N   0  0  0  0  0  0  0  0  0  0  0  0
  -29.2713  -19.3086   20.3661 N   0  0  0  0  0  0  0  0  0  0  0  0
  -26.9422  -30.1905   24.6874 N   0  0  0  0  0  0  0  0  0  0  0  0
  -21.2357  -31.6566   21.8025 N   0  0  0  0  0  0  0  0  0  0  0  0
  -26.4370  -20.5288   18.4314 N   0  3  1  0  0  0  0  0  0  0  0  0
  -20.4619  -32.3938   18.3492 N   0  3  0  0  0  0  0  0  0  0  0  0
  -22.9237  -14.1098   23.5526 O   0  0  0  0  0  0  0  0  0  0  0  0
  -25.4436  -28.5380   24.0198 O   0  0  0  0  0  0  0  0  0  0  0  0
  -27.2739  -20.3354   21.0680 O   0  0  0  0  0  0  0  0  0  0  0  0
  -23.5490  -32.1624   23.4155 O   0  0  0  0  0  0  0  0  0  0  0  0
  -20.8468  -30.1870   20.0515 O   0  0  0  0  0  0  0  0  0  0  0  0
  -26.7569  -16.9668   15.5947 O   0  0  0  0  0  0  0  0  0  0  0  0
  -22.1048   -6.7563   21.1354 O   0  0  0  0  0  0  0  0  0  0  0  0
  -25.4174  -25.2912   18.8004 O   0  0  0  0  0  0  0  0  0  1  0  0
  -21.6207   -4.3384   26.0673 F   0  0  0  0  0  0  0  0  0  0  0  0
  -20.5817   -7.9064   23.1355 F   0  0  0  0  0  0  0  0  0  0  0  0
  -32.0752  -18.1436   20.1019 Cl  0  0  0  0  0  0  0  0  0  0  0  0
  1  2  1  0  0  0  0
  1  5  2  0  0  0  0
  2  6  2  0  0  0  0
  3 10  2  0  0  0  0
  3 18  1  0  0  0  0
  4 11  1  0  0  0  0
  4 18  2  0  0  0  0
  5 20  1  0  0  0  0
  6 22  1  0  0  0  0
  7 12  2  0  0  0  0
  7 21  1  0  0  0  0
  8  9  2  0  0  0  0
  8 24  1  0  0  0  0
  9 25  1  0  0  0  0
 10 26  1  0  0  0  0
 11 26  2  0  0  0  0
 12 27  1  0  0  0  0
 13 14  2  0  0  0  0
 13 28  1  0  0  0  0
 14 29  1  0  0  0  0
 15 23  1  0  0  0  0
 15 27  2  0  0  0  0
 16 24  2  0  0  0  0
 16 31  1  0  0  0  0
 17 29  2  0  0  0  0
 17 30  1  0  0  0  0
 18 32  1  0  0  0  0
 19 32  1  0  0  0  0
 19 33  2  0  0  0  0
 19 34  1  0  0  0  0
 20 22  2  0  0  0  0
 20 40  1  0  0  0  0
 21 23  2  0  0  0  0
 21 41  1  0  0  0  0
 22 52  1  0  0  0  0
 23 42  1  0  0  0  0
 24 56  1  0  0  0  0
 25 31  2  0  0  0  0
 25 75  1  0  0  0  0
 26 86  1  0  0  0  0
 27 87  1  0  0  0  0
 28 30  2  0  0  0  0
 28 86  1  0  0  0  0
 29 88  1  0  0  0  0
 30 89  1  0  0  0  0
 31 90  1  0  0  0  0
 32 68  2  0  0  0  0
 33 69  1  0  0  0  0
 33 73  1  0  0  0  0
 34 74  1  0  0  0  0
 34 80  2  0  0  0  0
 35 53  1  0  0  0  0
 35 76  1  0  0  0  0
 35 81  2  0  0  0  0
 36 54  1  0  0  0  0
 36 75  1  0  0  0  0
 36 82  2  0  0  0  0
 37 65  1  0  0  0  0
 37 70  1  0  0  0  0
 37 83  2  0  0  0  0
 38 66  1  0  0  0  0
 38 77  1  0  0  0  0
 38 84  2  0  0  0  0
 39 71  1  0  0  0  0
 39 72  1  0  0  0  0
 39 85  2  0  0  0  0
 40 43  1  0  0  0  0
 41 53  1  0  0  0  0
 42 70  1  0  0  0  0
 43 45  1  0  0  0  0
 44 46  1  0  0  0  0
 44 47  1  0  0  0  0
 45 52  1  0  0  0  0
 46 55  1  0  0  0  0
 47 71  1  0  0  0  0
 48 51  1  0  0  0  0
 48 72  1  0  0  0  0
 49 54  1  0  0  0  0
 49 72  1  0  0  0  0
 50 55  1  0  0  0  0
 50 71  1  0  0  0  0
 51 78  1  0  0  0  0
 52 76  1  0  0  0  0
 53 70  1  0  0  0  0
 54 78  1  0  0  0  0
 55 69  1  0  0  0  0
 57 66  1  0  0  0  0
 58 67  1  0  0  0  0
 59 67  1  0  0  0  0
 60 67  1  0  0  0  0
 61 79  1  0  0  0  0
 62 63  1  0  0  0  0
 62 64  1  0  0  0  0
 63 78  1  0  0  0  0
 64 87  1  0  0  0  0
 65 67  1  0  0  0  0
 65 77  1  0  0  0  0
 66 79  1  0  0  0  0
 68 69  1  0  0  0  0
M  CHG  2  78   1  79   1
M  ISO  4  39 100  64 101  72 100  87 101
M  END
> <Batch ID>
0010

> <Smiles>
CNC(C)C(=O)NC(C(=O)N1Cc2cc([101O:1][101CH2:1]CCN3CC[100N:0]([100C:0](=O)N4CCCC(n5nc(-c6ccc(Oc7ccc(F)cc7F)cc6)c(C(N)=O)c5N)C4)CC3C(=O)Nc3ccc(C)cc3Cl)ccc2CC1C(=O)NC1CCCc2ccccc21)C(C)(C)C

> <Shape>
0.265

> <Color>
0.114

> <Negative vol penalty>
0.000

$$$$

  -OEChem-04052315413D

 82 90  0     1  0  0  0  0  0999 V2000
  -29.5028  -33.9784   26.0407 C   0  0  0  0  0  0  0  0  0  0  0  0
  -29.6470  -32.8787   25.2008 C   0  0  0  0  0  0  0  0  0  0  0  0
  -24.6205   -9.0176   21.3632 C   0  0  0  0  0  0  0  0  0  0  0  0
  -23.3700  -10.8833   22.2534 C   0  0  0  0  0  0  0  0  0  0  0  0
  -28.2786  -34.2246   26.6609 C   0  0  0  0  0  0  0  0  0  0  0  0
  -28.5674  -32.0239   24.9816 C   0  0  0  0  0  0  0  0  0  0  0  0
  -27.2123  -29.0599   19.7966 C   0  0  0  0  0  0  0  0  0  0  0  0
  -28.2182  -19.1070   20.2807 C   0  0  0  0  0  0  0  0  0  0  0  0
  -27.7851  -20.4221   20.1123 C   0  0  0  0  0  0  0  0  0  0  0  0
  -24.0871   -8.1890   22.3504 C   0  0  0  0  0  0  0  0  0  0  0  0
  -22.8365  -10.0547   23.2406 C   0  0  0  0  0  0  0  0  0  0  0  0
  -27.4463  -27.7516   19.3754 C   0  0  0  0  0  0  0  0  0  0  0  0
  -21.1865   -6.5499   22.9269 C   0  0  0  0  0  0  0  0  0  0  0  0
  -20.7202   -5.2944   22.5371 C   0  0  0  0  0  0  0  0  0  0  0  0
  -25.2300  -27.1294   20.0964 C   0  0  0  0  0  0  0  0  0  0  0  0
  -26.2095  -18.6049   21.5258 C   0  0  0  0  0  0  0  0  0  0  0  0
  -22.3069   -4.2432   24.0253 C   0  0  0  0  0  0  0  0  0  0  0  0
  -24.2620  -10.3648   21.3147 C   0  0  0  0  0  0  0  0  0  0  0  0
  -24.2796  -11.4738   19.0175 C   0  0  0  0  0  0  0  0  0  0  0  0
  -27.1806  -33.3778   26.4415 C   0  0  0  0  0  0  0  0  0  0  0  0
  -25.9872  -29.4108   20.3818 C   0  0  0  0  0  0  0  0  0  0  0  0
  -27.3277  -32.2582   25.6005 C   0  0  0  0  0  0  0  0  0  0  0  0
  -24.9819  -28.4434   20.5218 C   0  0  0  0  0  0  0  0  0  0  0  0
  -25.7764  -19.9201   21.3574 C   0  0  0  0  0  0  0  0  0  0  0  0
  -27.4304  -18.1983   20.9875 C   0  0  0  0  0  0  0  0  0  0  0  0
  -26.5642  -20.8287   20.6506 C   0  0  0  0  0  0  0  0  0  0  0  0
  -23.1951   -8.7075   23.2890 C   0  0  0  0  0  0  0  0  0  0  0  0
  -26.4562  -26.7854   19.5279 C   0  0  0  0  0  0  0  0  0  0  0  0
  -22.2130   -6.6521   23.8658 C   0  0  0  0  0  0  0  0  0  0  0  0
  -21.2804   -4.1410   23.0863 C   0  0  0  0  0  0  0  0  0  0  0  0
  -22.7731   -5.4987   24.4150 C   0  0  0  0  0  0  0  0  0  0  0  0
  -24.8131  -11.2213   20.2956 C   0  0  0  0  0  0  0  0  0  0  0  0
  -25.1694  -12.3467   18.4404 C   0  0  0  0  0  0  0  0  0  0  0  0
  -23.0865  -10.9650   18.4066 C   0  0  0  0  0  0  0  0  0  0  0  0
  -25.0951  -30.5210   23.2235 C   0  0  0  0  0  0  0  0  0  0  0  0
  -22.1884  -30.7229   21.7977 C   0  0  0  0  0  0  0  0  0  0  0  0
  -26.8101  -23.1810   19.7902 C   0  0  0  0  0  0  0  0  0  0  0  0
  -20.0837  -29.6327   19.3424 C   0  0  0  0  0  0  0  0  0  0  0  0
  -29.0528  -16.2952   20.6839 C   0  0  0  0  0  0  0  0  0  0  0  0
  -25.8908  -33.6578   27.1712 C   0  0  0  0  0  0  0  0  0  0  0  0
  -25.7406  -30.8325   20.8064 C   0  0  0  0  0  0  0  0  0  0  0  0
  -23.6421  -28.7736   21.1254 C   0  0  0  0  0  0  0  0  0  0  0  0
  -24.6894  -32.9157   26.5914 C   0  0  0  0  0  0  0  0  0  0  0  0
  -29.7986  -13.5708   18.5163 C   0  0  0  0  0  0  0  0  0  0  0  0
  -25.0367  -31.4518   26.3399 C   0  0  0  0  0  0  0  0  0  0  0  0
  -28.5537  -12.6851   18.6056 C   0  0  0  0  0  0  0  0  0  0  0  0
  -30.1340  -14.2148   19.8603 C   0  0  0  0  0  0  0  0  0  0  0  0
  -27.7831  -14.0607   20.5807 C   0  0  0  0  0  0  0  0  0  0  0  0
  -26.1728  -31.3220   25.3182 C   0  0  1  0  0  0  0  0  0  0  0  0
  -24.6439  -30.9600   21.8592 C   0  0  1  0  0  0  0  0  0  0  0  0
  -27.3680  -13.4416   19.2360 C   0  0  2  0  0  0  0  0  0  0  0  0
  -24.4635  -20.3278   21.9429 C   0  0  0  0  0  0  0  0  0  0  0  0
  -17.7596  -29.9563   18.4529 C   0  0  0  0  0  0  0  0  0  0  0  0
  -21.0742  -29.0893   24.1215 C   0  0  0  0  0  0  0  0  0  0  0  0
  -19.0355  -28.6423   22.7386 C   0  0  0  0  0  0  0  0  0  0  0  0
  -19.6154  -30.9815   23.3825 C   0  0  0  0  0  0  0  0  0  0  0  0
  -21.0920  -30.5399   16.7119 C   0  0  0  0  0  0  0  0  0  0  0  0
  -26.0089  -24.4691   19.8286 C   0  0  0  0  0  0  0  0  0  1  0  0
  -21.0088  -29.7943   21.6386 C   0  0  1  0  0  0  0  0  0  0  0  0
  -19.2147  -30.3870   18.3523 C   0  0  2  0  0  0  0  0  0  0  0  0
  -20.2093  -29.6199   22.9606 C   0  0  0  0  0  0  0  0  0  0  0  0
  -25.9534  -11.8803   20.5177 N   0  0  0  0  0  0  0  0  0  0  0  0
  -26.1439  -12.5555   19.3715 N   0  0  0  0  0  0  0  0  0  0  0  0
  -23.4515  -30.1760   21.5309 N   0  0  0  0  0  0  0  0  0  0  0  0
  -28.9652  -14.9169   20.3948 N   0  0  0  0  0  0  0  0  0  0  0  0
  -25.2054  -12.9482   17.2324 N   0  0  0  0  0  0  0  0  0  0  0  0
  -22.2865  -10.0780   19.1398 N   0  0  0  0  0  0  0  0  0  0  0  0
  -26.1417  -22.1667   20.4674 N   0  0  0  0  0  0  0  0  0  0  0  0
  -27.8693  -16.8617   21.1561 N   0  0  0  0  0  0  0  0  0  0  0  0
  -25.6713  -31.5264   23.9761 N   0  0  0  0  0  0  0  0  0  0  0  0
  -20.2214  -30.3211   20.5292 N   0  0  0  0  0  0  0  0  0  0  0  0
  -19.6827  -30.1402   16.9592 N   0  3  0  0  0  0  0  0  0  0  0  0
  -22.7486  -11.2746   17.2389 O   0  0  0  0  0  0  0  0  0  0  0  0
  -24.9311  -29.3566   23.5684 O   0  0  0  0  0  0  0  0  0  0  0  0
  -21.9955  -31.8925   22.1391 O   0  0  0  0  0  0  0  0  0  0  0  0
  -27.8943  -23.1154   19.2204 O   0  0  0  0  0  0  0  0  0  0  0  0
  -20.5869  -28.5402   19.0897 O   0  0  0  0  0  0  0  0  0  0  0  0
  -30.0929  -16.9323   20.4984 O   0  0  0  0  0  0  0  0  0  0  0  0
  -22.6742   -7.8993   24.2523 O   0  0  0  0  0  0  0  0  0  0  0  0
  -26.6823  -25.5076   19.1183 O   0  0  0  0  0  0  0  0  0  1  0  0
  -20.8315   -2.9355   22.7130 F   0  0  0  0  0  0  0  0  0  0  0  0
  -23.7587   -5.5905   25.3183 F   0  0  0  0  0  0  0  0  0  0  0  0
  1  2  1  0  0  0  0
  1  5  2  0  0  0  0
  2  6  2  0  0  0  0
  3 10  2  0  0  0  0
  3 18  1  0  0  0  0
  4 11  1  0  0  0  0
  4 18  2  0  0  0  0
  5 20  1  0  0  0  0
  6 22  1  0  0  0  0
  7 12  2  0  0  0  0
  7 21  1  0  0  0  0
  8  9  2  0  0  0  0
  8 25  1  0  0  0  0
  9 26  1  0  0  0  0
 10 27  1  0  0  0  0
 11 27  2  0  0  0  0
 12 28  1  0  0  0  0
 13 14  2  0  0  0  0
 13 29  1  0  0  0  0
 14 30  1  0  0  0  0
 15 23  1  0  0  0  0
 15 28  2  0  0  0  0
 16 24  1  0  0  0  0
 16 25  2  0  0  0  0
 17 30  2  0  0  0  0
 17 31  1  0  0  0  0
 18 32  1  0  0  0  0
 19 32  1  0  0  0  0
 19 33  2  0  0  0  0
 19 34  1  0  0  0  0
 20 22  2  0  0  0  0
 20 40  1  0  0  0  0
 21 23  2  0  0  0  0
 21 41  1  0  0  0  0
 22 49  1  0  0  0  0
 23 42  1  0  0  0  0
 24 26  2  0  0  0  0
 24 52  1  0  0  0  0
 25 69  1  0  0  0  0
 26 68  1  0  0  0  0
 27 79  1  0  0  0  0
 28 80  1  0  0  0  0
 29 31  2  0  0  0  0
 29 79  1  0  0  0  0
 30 81  1  0  0  0  0
 31 82  1  0  0  0  0
 32 62  2  0  0  0  0
 33 63  1  0  0  0  0
 33 66  1  0  0  0  0
 34 67  1  0  0  0  0
 34 73  2  0  0  0  0
 35 50  1  0  0  0  0
 35 70  1  0  0  0  0
 35 74  2  0  0  0  0
 36 59  1  0  0  0  0
 36 64  1  0  0  0  0
 36 75  2  0  0  0  0
 37 58  1  0  0  0  0
 37 68  1  0  0  0  0
 37 76  2  0  0  0  0
 38 60  1  0  0  0  0
 38 71  1  0  0  0  0
 38 77  2  0  0  0  0
 39 65  1  0  0  0  0
 39 69  1  0  0  0  0
 39 78  2  0  0  0  0
 40 43  1  0  0  0  0
 41 50  1  0  0  0  0
 42 64  1  0  0  0  0
 43 45  1  0  0  0  0
 44 46  1  0  0  0  0
 44 47  1  0  0  0  0
 45 49  1  0  0  0  0
 46 51  1  0  0  0  0
 47 65  1  0  0  0  0
 48 51  1  0  0  0  0
 48 65  1  0  0  0  0
 49 70  1  0  0  0  0
 50 64  1  0  0  0  0
 51 63  1  0  0  0  0
 53 60  1  0  0  0  0
 54 61  1  0  0  0  0
 55 61  1  0  0  0  0
 56 61  1  0  0  0  0
 57 72  1  0  0  0  0
 58 80  1  0  0  0  0
 59 61  1  0  0  0  0
 59 71  1  0  0  0  0
 60 72  1  0  0  0  0
 62 63  1  0  0  0  0
M  CHG  1  72   1
M  ISO  4  39 100  58 101  69 100  80 101
M  END
> <Batch ID>
0010

> <Smiles>
CNC(C)C(=O)NC(C(=O)N1Cc2cc([101O:1][101CH2:1]C(=O)Nc3ccc([100NH:0][100C:0](=O)N4CCCC(n5nc(-c6ccc(Oc7ccc(F)cc7F)cc6)c(C(N)=O)c5N)C4)cc3C)ccc2CC1C(=O)NC1CCCc2ccccc21)C(C)(C)C

> <Shape>
0.307

> <Color>
0.100

> <Negative vol penalty>
0.000

$$$$

  -OEChem-04052315413D

 82 90  0     1  0  0  0  0  0999 V2000
  -29.4609  -33.9616   26.0651 C   0  0  0  0  0  0  0  0  0  0  0  0
  -29.6130  -32.8665   25.2207 C   0  0  0  0  0  0  0  0  0  0  0  0
  -24.6254   -9.0141   21.3663 C   0  0  0  0  0  0  0  0  0  0  0  0
  -23.3749  -10.8876   22.2399 C   0  0  0  0  0  0  0  0  0  0  0  0
  -28.2344  -34.1977   26.6847 C   0  0  0  0  0  0  0  0  0  0  0  0
  -28.5389  -32.0061   24.9963 C   0  0  0  0  0  0  0  0  0  0  0  0
  -27.2088  -29.0561   19.7969 C   0  0  0  0  0  0  0  0  0  0  0  0
  -28.2583  -19.0882   20.2571 C   0  0  0  0  0  0  0  0  0  0  0  0
  -27.8311  -20.4045   20.0827 C   0  0  0  0  0  0  0  0  0  0  0  0
  -24.0837   -8.1918   22.3542 C   0  0  0  0  0  0  0  0  0  0  0  0
  -22.8332  -10.0653   23.2279 C   0  0  0  0  0  0  0  0  0  0  0  0
  -27.4513  -27.7511   19.3704 C   0  0  0  0  0  0  0  0  0  0  0  0
  -21.1749   -6.5638   22.9211 C   0  0  0  0  0  0  0  0  0  0  0  0
  -20.7074   -5.3078   22.5345 C   0  0  0  0  0  0  0  0  0  0  0  0
  -25.2378  -27.1124   20.0857 C   0  0  0  0  0  0  0  0  0  0  0  0
  -26.2425  -18.5979   21.4954 C   0  0  0  0  0  0  0  0  0  0  0  0
  -22.2821   -4.2592   24.0373 C   0  0  0  0  0  0  0  0  0  0  0  0
  -24.2711  -10.3620   21.3092 C   0  0  0  0  0  0  0  0  0  0  0  0
  -24.3057  -11.4600   19.0068 C   0  0  0  0  0  0  0  0  0  0  0  0
  -27.1420  -33.3453   26.4602 C   0  0  0  0  0  0  0  0  0  0  0  0
  -25.9808  -29.3971   20.3819 C   0  0  0  0  0  0  0  0  0  0  0  0
  -27.2970  -32.2302   25.6146 C   0  0  0  0  0  0  0  0  0  0  0  0
  -24.9812  -28.4230   20.5164 C   0  0  0  0  0  0  0  0  0  0  0  0
  -27.4640  -18.1849   20.9633 C   0  0  0  0  0  0  0  0  0  0  0  0
  -26.6097  -20.8176   20.6148 C   0  0  0  0  0  0  0  0  0  0  0  0
  -23.1876   -8.7174   23.2850 C   0  0  0  0  0  0  0  0  0  0  0  0
  -26.4669  -26.7783   19.5174 C   0  0  0  0  0  0  0  0  0  0  0  0
  -22.1961   -6.6675   23.8657 C   0  0  0  0  0  0  0  0  0  0  0  0
  -21.2610   -4.1555   23.0926 C   0  0  0  0  0  0  0  0  0  0  0  0
  -25.8153  -19.9143   21.3211 C   0  0  0  0  0  0  0  0  0  0  0  0
  -22.7496   -5.5153   24.4238 C   0  0  0  0  0  0  0  0  0  0  0  0
  -24.8308  -11.2121   20.2892 C   0  0  0  0  0  0  0  0  0  0  0  0
  -25.2014  -12.3274   18.4309 C   0  0  0  0  0  0  0  0  0  0  0  0
  -23.1148  -10.9516   18.3912 C   0  0  0  0  0  0  0  0  0  0  0  0
  -25.0781  -30.4896   23.2271 C   0  0  0  0  0  0  0  0  0  0  0  0
  -22.1722  -30.6800   21.7983 C   0  0  0  0  0  0  0  0  0  0  0  0
  -26.8424  -23.1750   19.7648 C   0  0  0  0  0  0  0  0  0  0  0  0
  -20.0775  -29.5876   19.3354 C   0  0  0  0  0  0  0  0  0  0  0  0
  -29.0827  -16.2756   20.6787 C   0  0  0  0  0  0  0  0  0  0  0  0
  -25.8494  -33.6143   27.1893 C   0  0  0  0  0  0  0  0  0  0  0  0
  -25.7250  -30.8155   20.8123 C   0  0  0  0  0  0  0  0  0  0  0  0
  -23.6386  -28.7425   21.1196 C   0  0  0  0  0  0  0  0  0  0  0  0
  -24.6534  -32.8673   26.6047 C   0  0  0  0  0  0  0  0  0  0  0  0
  -29.8337  -13.5387   18.5288 C   0  0  0  0  0  0  0  0  0  0  0  0
  -25.0100  -31.4067   26.3474 C   0  0  0  0  0  0  0  0  0  0  0  0
  -28.5857  -12.6570   18.6148 C   0  0  0  0  0  0  0  0  0  0  0  0
  -30.1628  -14.1883   19.8717 C   0  0  0  0  0  0  0  0  0  0  0  0
  -27.8072  -14.0443   20.5786 C   0  0  0  0  0  0  0  0  0  0  0  0
  -26.1482  -31.2882   25.3267 C   0  0  1  0  0  0  0  0  0  0  0  0
  -24.6261  -30.9318   21.8641 C   0  0  1  0  0  0  0  0  0  0  0  0
  -27.3984  -13.4199   19.2345 C   0  0  2  0  0  0  0  0  0  0  0  0
  -17.7527  -29.9008   18.4441 C   0  0  0  0  0  0  0  0  0  0  0  0
  -21.0648  -29.0297   24.1135 C   0  0  0  0  0  0  0  0  0  0  0  0
  -19.0308  -28.5762   22.7259 C   0  0  0  0  0  0  0  0  0  0  0  0
  -19.5956  -30.9161   23.3806 C   0  0  0  0  0  0  0  0  0  0  0  0
  -21.0837  -30.5122   16.7103 C   0  0  0  0  0  0  0  0  0  0  0  0
  -26.0333  -24.4580   19.8076 C   0  0  0  0  0  0  0  0  0  1  0  0
  -20.9985  -29.7450   21.6336 C   0  0  1  0  0  0  0  0  0  0  0  0
  -19.2052  -30.3408   18.3474 C   0  0  2  0  0  0  0  0  0  0  0  0
  -20.1983  -29.5600   22.9538 C   0  0  0  0  0  0  0  0  0  0  0  0
  -25.9716  -11.8689   20.5151 N   0  0  0  0  0  0  0  0  0  0  0  0
  -26.1709  -12.5380   19.3668 N   0  0  0  0  0  0  0  0  0  0  0  0
  -23.4389  -30.1419   21.5309 N   0  0  0  0  0  0  0  0  0  0  0  0
  -28.9928  -14.8963   20.3958 N   0  0  0  0  0  0  0  0  0  0  0  0
  -25.2465  -12.9230   17.2202 N   0  0  0  0  0  0  0  0  0  0  0  0
  -22.3079  -10.0704   19.1238 N   0  0  0  0  0  0  0  0  0  0  0  0
  -26.1792  -22.1538   20.4367 N   0  0  0  0  0  0  0  0  0  0  0  0
  -27.8980  -16.8478   21.1411 N   0  0  0  0  0  0  0  0  0  0  0  0
  -25.6472  -31.4953   23.9848 N   0  0  0  0  0  0  0  0  0  0  0  0
  -20.2094  -30.2717   20.5253 N   0  0  0  0  0  0  0  0  0  0  0  0
  -19.6766  -30.1028   16.9539 N   0  3  0  0  0  0  0  0  0  0  0  0
  -22.7849  -11.2565   17.2200 O   0  0  0  0  0  0  0  0  0  0  0  0
  -24.9208  -29.3228   23.5668 O   0  0  0  0  0  0  0  0  0  0  0  0
  -21.9717  -31.8470   22.1444 O   0  0  0  0  0  0  0  0  0  0  0  0
  -27.9277  -23.1185   19.1961 O   0  0  0  0  0  0  0  0  0  0  0  0
  -20.5876  -28.4993   19.0788 O   0  0  0  0  0  0  0  0  0  0  0  0
  -30.1257  -16.9089   20.4965 O   0  0  0  0  0  0  0  0  0  0  0  0
  -22.6586   -7.9153   24.2490 O   0  0  0  0  0  0  0  0  0  0  0  0
  -26.7013  -25.5036   19.1026 O   0  0  0  0  0  0  0  0  0  1  0  0
  -20.8108   -2.9494   22.7225 F   0  0  0  0  0  0  0  0  0  0  0  0
  -24.6401  -20.3006   21.8382 F   0  0  0  0  0  0  0  0  0  0  0  0
  -23.7300   -5.6086   25.3326 F   0  0  0  0  0  0  0  0  0  0  0  0
  1  2  1  0  0  0  0
  1  5  2  0  0  0  0
  2  6  2  0  0  0  0
  3 10  2  0  0  0  0
  3 18  1  0  0  0  0
  4 11  1  0  0  0  0
  4 18  2  0  0  0  0
  5 20  1  0  0  0  0
  6 22  1  0  0  0  0
  7 12  2  0  0  0  0
  7 21  1  0  0  0  0
  8  9  2  0  0  0  0
  8 24  1  0  0  0  0
  9 25  1  0  0  0  0
 10 26  1  0  0  0  0
 11 26  2  0  0  0  0
 12 27  1  0  0  0  0
 13 14  2  0  0  0  0
 13 28  1  0  0  0  0
 14 29  1  0  0  0  0
 15 23  1  0  0  0  0
 15 27  2  0  0  0  0
 16 24  2  0  0  0  0
 16 30  1  0  0  0  0
 17 29  2  0  0  0  0
 17 31  1  0  0  0  0
 18 32  1  0  0  0  0
 19 32  1  0  0  0  0
 19 33  2  0  0  0  0
 19 34  1  0  0  0  0
 20 22  2  0  0  0  0
 20 40  1  0  0  0  0
 21 23  2  0  0  0  0
 21 41  1  0  0  0  0
 22 49  1  0  0  0  0
 23 42  1  0  0  0  0
 24 68  1  0  0  0  0
 25 30  2  0  0  0  0
 25 67  1  0  0  0  0
 26 78  1  0  0  0  0
 27 79  1  0  0  0  0
 28 31  2  0  0  0  0
 28 78  1  0  0  0  0
 29 80  1  0  0  0  0
 30 81  1  0  0  0  0
 31 82  1  0  0  0  0
 32 61  2  0  0  0  0
 33 62  1  0  0  0  0
 33 65  1  0  0  0  0
 34 66  1  0  0  0  0
 34 72  2  0  0  0  0
 35 50  1  0  0  0  0
 35 69  1  0  0  0  0
 35 73  2  0  0  0  0
 36 58  1  0  0  0  0
 36 63  1  0  0  0  0
 36 74  2  0  0  0  0
 37 57  1  0  0  0  0
 37 67  1  0  0  0  0
 37 75  2  0  0  0  0
 38 59  1  0  0  0  0
 38 70  1  0  0  0  0
 38 76  2  0  0  0  0
 39 64  1  0  0  0  0
 39 68  1  0  0  0  0
 39 77  2  0  0  0  0
 40 43  1  0  0  0  0
 41 50  1  0  0  0  0
 42 63  1  0  0  0  0
 43 45  1  0  0  0  0
 44 46  1  0  0  0  0
 44 47  1  0  0  0  0
 45 49  1  0  0  0  0
 46 51  1  0  0  0  0
 47 64  1  0  0  0  0
 48 51  1  0  0  0  0
 48 64  1  0  0  0  0
 49 69  1  0  0  0  0
 50 63  1  0  0  0  0
 51 62  1  0  0  0  0
 52 59  1  0  0  0  0
 53 60  1  0  0  0  0
 54 60  1  0  0  0  0
 55 60  1  0  0  0  0
 56 71  1  0  0  0  0
 57 79  1  0  0  0  0
 58 60  1  0  0  0  0
 58 70  1  0  0  0  0
 59 71  1  0  0  0  0
 61 62  1  0  0  0  0
M  CHG  1  71   1
M  ISO  4  39 100  57 101  68 100  79 101
M  END
> <Batch ID>
0010

> <Smiles>
CNC(C)C(=O)NC(C(=O)N1Cc2cc([101O:1][101CH2:1]C(=O)Nc3ccc([100NH:0][100C:0](=O)N4CCCC(n5nc(-c6ccc(Oc7ccc(F)cc7F)cc6)c(C(N)=O)c5N)C4)cc3F)ccc2CC1C(=O)NC1CCCc2ccccc21)C(C)(C)C

> <Shape>
0.309

> <Color>
0.101

> <Negative vol penalty>
0.000

$$$$

  -OEChem-04052315413D

 82 90  0     1  0  0  0  0  0999 V2000
  -35.9092  -31.1665   20.0709 C   0  0  0  0  0  0  0  0  0  0  0  0
  -35.9895  -30.0060   20.8339 C   0  0  0  0  0  0  0  0  0  0  0  0
  -23.0463   -9.9635   19.8683 C   0  0  0  0  0  0  0  0  0  0  0  0
  -23.9077   -9.7563   22.1160 C   0  0  0  0  0  0  0  0  0  0  0  0
  -34.6783  -31.7950   19.8874 C   0  0  0  0  0  0  0  0  0  0  0  0
  -34.8389  -29.4739   21.4148 C   0  0  0  0  0  0  0  0  0  0  0  0
  -33.5448  -23.5480   22.2608 C   0  0  0  0  0  0  0  0  0  0  0  0
  -32.7769  -17.2532   23.6545 C   0  0  0  0  0  0  0  0  0  0  0  0
  -32.1462  -16.4571   22.6984 C   0  0  0  0  0  0  0  0  0  0  0  0
  -22.3135   -8.7894   20.0408 C   0  0  0  0  0  0  0  0  0  0  0  0
  -23.1748   -8.5821   22.2886 C   0  0  0  0  0  0  0  0  0  0  0  0
  -33.6592  -22.7121   23.3707 C   0  0  0  0  0  0  0  0  0  0  0  0
  -19.9761   -7.7198   22.9558 C   0  0  0  0  0  0  0  0  0  0  0  0
  -19.2721   -7.5667   24.1502 C   0  0  0  0  0  0  0  0  0  0  0  0
  -31.3390  -23.1072   23.8997 C   0  0  0  0  0  0  0  0  0  0  0  0
  -30.6244  -18.0379   24.4212 C   0  0  0  0  0  0  0  0  0  0  0  0
  -20.5436   -5.5726   24.6441 C   0  0  0  0  0  0  0  0  0  0  0  0
  -23.8435  -10.4470   20.9058 C   0  0  0  0  0  0  0  0  0  0  0  0
  -24.1816  -12.9733   21.0101 C   0  0  0  0  0  0  0  0  0  0  0  0
  -33.5105  -31.2649   20.4583 C   0  0  0  0  0  0  0  0  0  0  0  0
  -32.3275  -24.1795   21.9677 C   0  0  0  0  0  0  0  0  0  0  0  0
  -33.5914  -30.0966   21.2399 C   0  0  0  0  0  0  0  0  0  0  0  0
  -31.2111  -23.9486   22.7840 C   0  0  0  0  0  0  0  0  0  0  0  0
  -32.0160  -18.0435   24.5160 C   0  0  0  0  0  0  0  0  0  0  0  0
  -30.7546  -16.4515   22.6037 C   0  0  0  0  0  0  0  0  0  0  0  0
  -22.3777   -8.0986   21.2510 C   0  0  0  0  0  0  0  0  0  0  0  0
  -32.5569  -22.4939   24.1920 C   0  0  0  0  0  0  0  0  0  0  0  0
  -20.9638   -6.7992   22.6055 C   0  0  0  0  0  0  0  0  0  0  0  0
  -19.5558   -6.4932   24.9943 C   0  0  0  0  0  0  0  0  0  0  0  0
  -29.9936  -17.2419   23.4651 C   0  0  0  0  0  0  0  0  0  0  0  0
  -21.2476   -5.7257   23.4497 C   0  0  0  0  0  0  0  0  0  0  0  0
  -24.6013  -11.6595   20.7280 C   0  0  0  0  0  0  0  0  0  0  0  0
  -25.2570  -13.7576   20.6712 C   0  0  0  0  0  0  0  0  0  0  0  0
  -22.9314  -13.4428   21.5320 C   0  0  0  0  0  0  0  0  0  0  0  0
  -31.3586  -27.2002   21.7675 C   0  0  0  0  0  0  0  0  0  0  0  0
  -28.6079  -25.8397   20.7163 C   0  0  0  0  0  0  0  0  0  0  0  0
  -26.5814  -23.0951   20.6311 C   0  0  0  0  0  0  0  0  0  0  0  0
  -30.7264  -14.8008   20.7008 C   0  0  0  0  0  0  0  0  0  0  0  0
  -32.2102  -32.0058   20.2713 C   0  0  0  0  0  0  0  0  0  0  0  0
  -32.2134  -25.0571   20.7515 C   0  0  0  0  0  0  0  0  0  0  0  0
  -29.8764  -24.5866   22.5013 C   0  0  0  0  0  0  0  0  0  0  0  0
  -30.9787  -31.1698   20.6101 C   0  0  0  0  0  0  0  0  0  0  0  0
  -29.5056  -12.6179   18.1667 C   0  0  0  0  0  0  0  0  0  0  0  0
  -31.1749  -30.4436   21.9371 C   0  0  0  0  0  0  0  0  0  0  0  0
  -28.0864  -12.2820   18.6304 C   0  0  0  0  0  0  0  0  0  0  0  0
  -30.4736  -12.7352   19.3428 C   0  0  0  0  0  0  0  0  0  0  0  0
  -28.6307  -13.3193   20.8698 C   0  0  0  0  0  0  0  0  0  0  0  0
  -32.3617  -29.4751   21.8657 C   0  0  1  0  0  0  0  0  0  0  0  0
  -31.0630  -26.0551   20.8406 C   0  0  1  0  0  0  0  0  0  0  0  0
  -27.6062  -13.2548   19.7253 C   0  0  2  0  0  0  0  0  0  0  0  0
  -24.3818  -22.2980   19.7234 C   0  0  0  0  0  0  0  0  0  0  0  0
  -27.1454  -27.4281   22.8722 C   0  0  0  0  0  0  0  0  0  0  0  0
  -25.1776  -25.9129   22.5555 C   0  0  0  0  0  0  0  0  0  0  0  0
  -25.9704  -27.3361   20.6664 C   0  0  0  0  0  0  0  0  0  0  0  0
  -34.1094  -18.8496   25.5781 C   0  0  0  0  0  0  0  0  0  0  0  0
  -27.8791  -20.9667   19.0359 C   0  0  0  0  0  0  0  0  0  0  0  0
  -31.8916  -19.6831   26.3751 C   0  0  0  0  0  0  0  0  0  0  0  0
  -31.4927  -20.9739   25.6797 C   0  0  0  0  0  0  0  0  0  1  0  0
  -27.3455  -25.3357   21.3730 C   0  0  1  0  0  0  0  0  0  0  0  0
  -25.8798  -22.3964   19.4804 C   0  0  2  0  0  0  0  0  0  0  0  0
  -26.4352  -26.4926   21.8735 C   0  0  0  0  0  0  0  0  0  0  0  0
  -25.8461  -11.6080   20.2467 N   0  0  0  0  0  0  0  0  0  0  0  0
  -26.2179  -12.8993   20.2237 N   0  0  0  0  0  0  0  0  0  0  0  0
  -29.8169  -25.4414   21.3041 N   0  0  0  0  0  0  0  0  0  0  0  0
  -29.9551  -13.6765   20.3377 N   0  0  0  0  0  0  0  0  0  0  0  0
  -25.4650  -15.0907   20.7152 N   0  0  0  0  0  0  0  0  0  0  0  0
  -21.9349  -12.5024   21.8264 N   0  0  0  0  0  0  0  0  0  0  0  0
  -30.1169  -15.6421   21.6311 N   0  0  0  0  0  0  0  0  0  0  0  0
  -31.9879  -28.2690   21.1584 N   0  0  0  0  0  0  0  0  0  0  0  0
  -26.7078  -24.4495   20.4053 N   0  0  0  0  0  0  0  0  0  0  0  0
  -32.6497  -18.8427   25.4768 N   0  0  3  0  0  0  0  0  0  0  0  0
  -26.4191  -21.0181   19.3052 N   0  3  0  0  0  0  0  0  0  0  0  0
  -22.6989  -14.6617   21.7160 O   0  0  0  0  0  0  0  0  0  0  0  0
  -31.0380  -27.1206   22.9476 O   0  0  0  0  0  0  0  0  0  0  0  0
  -28.5245  -26.5544   19.7144 O   0  0  0  0  0  0  0  0  0  0  0  0
  -26.9744  -22.4997   21.6318 O   0  0  0  0  0  0  0  0  0  0  0  0
  -31.8336  -15.0169   20.2015 O   0  0  0  0  0  0  0  0  0  0  0  0
  -21.6625   -6.9530   21.4198 O   0  0  0  0  0  0  0  0  0  0  0  0
  -32.6660  -21.6789   25.2764 O   0  0  0  0  0  0  0  0  0  1  0  0
  -18.8807   -6.3472   26.1420 F   0  0  0  0  0  0  0  0  0  0  0  0
  -28.6555  -17.2445   23.3825 F   0  0  0  0  0  0  0  0  0  0  0  0
  -22.1962   -4.8387   23.1191 F   0  0  0  0  0  0  0  0  0  0  0  0
  1  2  1  0  0  0  0
  1  5  2  0  0  0  0
  2  6  2  0  0  0  0
  3 10  2  0  0  0  0
  3 18  1  0  0  0  0
  4 11  1  0  0  0  0
  4 18  2  0  0  0  0
  5 20  1  0  0  0  0
  6 22  1  0  0  0  0
  7 12  2  0  0  0  0
  7 21  1  0  0  0  0
  8  9  2  0  0  0  0
  8 24  1  0  0  0  0
  9 25  1  0  0  0  0
 10 26  1  0  0  0  0
 11 26  2  0  0  0  0
 12 27  1  0  0  0  0
 13 14  2  0  0  0  0
 13 28  1  0  0  0  0
 14 29  1  0  0  0  0
 15 23  1  0  0  0  0
 15 27  2  0  0  0  0
 16 24  2  0  0  0  0
 16 30  1  0  0  0  0
 17 29  2  0  0  0  0
 17 31  1  0  0  0  0
 18 32  1  0  0  0  0
 19 32  1  0  0  0  0
 19 33  2  0  0  0  0
 19 34  1  0  0  0  0
 20 22  2  0  0  0  0
 20 39  1  0  0  0  0
 21 23  2  0  0  0  0
 21 40  1  0  0  0  0
 22 48  1  0  0  0  0
 23 41  1  0  0  0  0
 24 71  1  0  0  0  0
 25 30  2  0  0  0  0
 25 68  1  0  0  0  0
 26 78  1  0  0  0  0
 27 79  1  0  0  0  0
 28 31  2  0  0  0  0
 28 78  1  0  0  0  0
 29 80  1  0  0  0  0
 30 81  1  0  0  0  0
 31 82  1  0  0  0  0
 32 62  2  0  0  0  0
 33 63  1  0  0  0  0
 33 66  1  0  0  0  0
 34 67  1  0  0  0  0
 34 73  2  0  0  0  0
 35 49  1  0  0  0  0
 35 69  1  0  0  0  0
 35 74  2  0  0  0  0
 36 59  1  0  0  0  0
 36 64  1  0  0  0  0
 36 75  2  0  0  0  0
 37 60  1  0  0  0  0
 37 70  1  0  0  0  0
 37 76  2  0  0  0  0
 38 65  1  0  0  0  0
 38 68  1  0  0  0  0
 38 77  2  0  0  0  0
 39 42  1  0  0  0  0
 40 49  1  0  0  0  0
 41 64  1  0  0  0  0
 42 44  1  0  0  0  0
 43 45  1  0  0  0  0
 43 46  1  0  0  0  0
 44 48  1  0  0  0  0
 45 50  1  0  0  0  0
 46 65  1  0  0  0  0
 47 50  1  0  0  0  0
 47 65  1  0  0  0  0
 48 69  1  0  0  0  0
 49 64  1  0  0  0  0
 50 63  1  0  0  0  0
 51 60  1  0  0  0  0
 52 61  1  0  0  0  0
 53 61  1  0  0  0  0
 54 61  1  0  0  0  0
 55 71  1  0  0  0  0
 56 72  1  0  0  0  0
 57 58  1  0  0  0  0
 57 71  1  0  0  0  0
 58 79  1  0  0  0  0
 59 61  1  0  0  0  0
 59 70  1  0  0  0  0
 60 72  1  0  0  0  0
 62 63  1  0  0  0  0
M  CHG  1  72   1
M  ISO  4  38 100  58 101  68 100  79 101
M  END
> <Batch ID>
0010

> <Smiles>
CNC(C)C(=O)NC(C(=O)N1Cc2cc([101O:1][101CH2:1]CN(C)c3ccc([100NH:0][100C:0](=O)N4CCCC(n5nc(-c6ccc(Oc7ccc(F)cc7F)cc6)c(C(N)=O)c5N)C4)c(F)c3)ccc2CC1C(=O)NC1CCCc2ccccc21)C(C)(C)C

> <Shape>
0.212

> <Color>
0.214

> <Negative vol penalty>
0.000

$$$$

  -OEChem-04052315413D

 89 97  0     1  0  0  0  0  0999 V2000
  -32.1482  -25.9124   16.0344 C   0  0  0  0  0  0  0  0  0  0  0  0
  -33.3015  -25.5242   16.7086 C   0  0  0  0  0  0  0  0  0  0  0  0
  -23.2896   -9.7990   19.9138 C   0  0  0  0  0  0  0  0  0  0  0  0
  -23.7435   -9.9398   22.2826 C   0  0  0  0  0  0  0  0  0  0  0  0
  -30.9449  -26.0357   16.7278 C   0  0  0  0  0  0  0  0  0  0  0  0
  -33.2524  -25.2600   18.0769 C   0  0  0  0  0  0  0  0  0  0  0  0
  -36.4809  -21.0464   21.1311 C   0  0  0  0  0  0  0  0  0  0  0  0
  -33.0205  -11.9729   26.0633 C   0  0  0  0  0  0  0  0  0  0  0  0
  -22.5651   -8.6255   20.1223 C   0  0  0  0  0  0  0  0  0  0  0  0
  -23.0189   -8.7663   22.4912 C   0  0  0  0  0  0  0  0  0  0  0  0
  -37.6485  -21.1269   21.8887 C   0  0  0  0  0  0  0  0  0  0  0  0
  -19.7734   -7.8509   22.7129 C   0  0  0  0  0  0  0  0  0  0  0  0
  -31.6711  -12.2899   26.2193 C   0  0  0  0  0  0  0  0  0  0  0  0
  -18.8726   -7.8278   23.7775 C   0  0  0  0  0  0  0  0  0  0  0  0
  -36.3255  -21.3062   23.8978 C   0  0  0  0  0  0  0  0  0  0  0  0
  -32.8176  -12.2837   23.6760 C   0  0  0  0  0  0  0  0  0  0  0  0
  -20.0821   -5.9820   24.7610 C   0  0  0  0  0  0  0  0  0  0  0  0
  -23.8788  -10.4562   20.9939 C   0  0  0  0  0  0  0  0  0  0  0  0
  -24.1346  -12.9866   20.7954 C   0  0  0  0  0  0  0  0  0  0  0  0
  -30.8789  -25.7635   18.1034 C   0  0  0  0  0  0  0  0  0  0  0  0
  -35.2246  -21.1063   21.7512 C   0  0  0  0  0  0  0  0  0  0  0  0
  -32.0473  -25.3810   18.7896 C   0  0  0  0  0  0  0  0  0  0  0  0
  -35.1434  -21.2237   23.1461 C   0  0  0  0  0  0  0  0  0  0  0  0
  -33.5938  -11.9699   24.7917 C   0  0  0  0  0  0  0  0  0  0  0  0
  -31.4682  -12.6006   23.8319 C   0  0  0  0  0  0  0  0  0  0  0  0
  -22.4297   -8.1092   21.4110 C   0  0  0  0  0  0  0  0  0  0  0  0
  -37.5709  -21.2597   23.2720 C   0  0  0  0  0  0  0  0  0  0  0  0
  -20.8286   -6.9395   22.6722 C   0  0  0  0  0  0  0  0  0  0  0  0
  -19.0269   -6.8934   24.8016 C   0  0  0  0  0  0  0  0  0  0  0  0
  -30.8950  -12.6037   25.1036 C   0  0  0  0  0  0  0  0  0  0  0  0
  -20.9830   -6.0051   23.6963 C   0  0  0  0  0  0  0  0  0  0  0  0
  -24.6279  -11.6682   20.7790 C   0  0  0  0  0  0  0  0  0  0  0  0
  -25.2347  -13.7680   20.5390 C   0  0  0  0  0  0  0  0  0  0  0  0
  -22.8012  -13.4624   21.0222 C   0  0  0  0  0  0  0  0  0  0  0  0
  -32.7396  -23.0825   21.5986 C   0  0  0  0  0  0  0  0  0  0  0  0
  -31.3537  -20.8635   23.5162 C   0  0  0  0  0  0  0  0  0  0  0  0
  -31.7457  -18.3381   25.7780 C   0  0  0  0  0  0  0  0  0  0  0  0
  -31.0972  -12.9613   21.3665 C   0  0  0  0  0  0  0  0  0  0  0  0
  -29.5656  -25.9563   18.8194 C   0  0  0  0  0  0  0  0  0  0  0  0
  -33.9747  -20.9912   20.9225 C   0  0  0  0  0  0  0  0  0  0  0  0
  -33.8192  -21.2722   23.8621 C   0  0  0  0  0  0  0  0  0  0  0  0
  -29.5188  -25.2953   20.1946 C   0  0  0  0  0  0  0  0  0  0  0  0
  -29.4585  -13.6641   18.2846 C   0  0  0  0  0  0  0  0  0  0  0  0
  -30.7870  -25.6101   20.9816 C   0  0  0  0  0  0  0  0  0  0  0  0
  -27.9880  -13.3578   18.5778 C   0  0  0  0  0  0  0  0  0  0  0  0
  -30.3940  -12.6901   18.9986 C   0  0  0  0  0  0  0  0  0  0  0  0
  -28.7038  -12.2594   20.7384 C   0  0  0  0  0  0  0  0  0  0  0  0
  -32.0290  -25.0618   20.2687 C   0  0  1  0  0  0  0  0  0  0  0  0
  -32.7462  -21.5800   21.6091 C   0  0  1  0  0  0  0  0  0  0  0  0
  -27.7252  -13.2542   20.0930 C   0  0  2  0  0  0  0  0  0  0  0  0
  -30.4276  -16.7421   27.1968 C   0  0  0  0  0  0  0  0  0  0  0  0
  -30.7071  -23.1270   25.4574 C   0  0  0  0  0  0  0  0  0  0  0  0
  -30.2749  -21.4002   27.2180 C   0  0  0  0  0  0  0  0  0  0  0  0
  -28.8719  -21.4550   25.1561 C   0  0  0  0  0  0  0  0  0  0  0  0
  -32.9206  -15.9828   24.4246 C   0  0  0  0  0  0  0  0  0  0  0  0
  -38.2688  -15.7208   25.1913 C   0  0  0  0  0  0  0  0  0  0  0  0
  -38.7537  -16.9868   25.9013 C   0  0  0  0  0  0  0  0  0  0  0  0
  -37.5481  -14.7812   26.1597 C   0  0  0  0  0  0  0  0  0  0  0  0
  -39.5024  -17.9096   24.9378 C   0  0  0  0  0  0  0  0  0  0  0  0
  -37.0929  -13.5002   25.4575 C   0  0  0  0  0  0  0  0  0  0  0  0
  -40.0181  -19.1917   25.5987 C   0  0  0  0  0  0  0  0  0  0  0  0
  -36.3362  -12.5787   26.4191 C   0  0  0  0  0  0  0  0  0  0  0  0
  -40.7256  -20.1797   24.6704 C   0  0  0  0  0  0  0  0  0  0  0  0
  -35.8108  -11.3197   25.7340 C   0  0  0  0  0  0  0  0  0  0  0  0
  -39.8599  -20.6610   23.5129 C   0  0  0  0  0  0  0  0  0  1  0  0
  -31.2627  -20.6462   25.0074 C   0  0  1  0  0  0  0  0  0  0  0  0
  -31.1243  -16.9556   25.8619 C   0  0  2  0  0  0  0  0  0  0  0  0
  -30.3043  -21.6582   25.6963 C   0  0  0  0  0  0  0  0  0  0  0  0
  -25.9392  -11.6113   20.5317 N   0  0  0  0  0  0  0  0  0  0  0  0
  -26.2792  -12.9038   20.3901 N   0  0  0  0  0  0  0  0  0  0  0  0
  -32.6256  -21.1623   23.0074 N   0  0  0  0  0  0  0  0  0  0  0  0
  -30.0892  -12.6475   20.4304 N   0  0  0  0  0  0  0  0  0  0  0  0
  -25.4007  -15.1031   20.4286 N   0  0  0  0  0  0  0  0  0  0  0  0
  -21.7902  -12.5241   21.2709 N   0  0  0  0  0  0  0  0  0  0  0  0
  -30.6819  -12.9190   22.6970 N   0  0  0  0  0  0  0  0  0  0  0  0
  -34.9346  -11.6556   24.6370 N   0  0  0  0  0  0  0  0  0  0  0  0
  -32.1445  -23.6348   20.4804 N   0  0  0  0  0  0  0  0  0  0  0  0
  -30.8900  -19.2481   25.1941 N   0  0  0  0  0  0  0  0  0  0  0  0
  -32.1712  -15.9067   25.7051 N   0  3  0  0  0  0  0  0  0  0  0  0
  -22.5117  -14.6824   20.9885 O   0  0  0  0  0  0  0  0  0  0  0  0
  -33.2364  -23.6954   22.5363 O   0  0  0  0  0  0  0  0  0  0  0  0
  -30.3352  -20.7645   22.8274 O   0  0  0  0  0  0  0  0  0  0  0  0
  -32.8757  -18.5867   26.1925 O   0  0  0  0  0  0  0  0  0  0  0  0
  -32.2372  -13.2732   21.0125 O   0  0  0  0  0  0  0  0  0  0  0  0
  -21.7226   -6.9642   21.6149 O   0  0  0  0  0  0  0  0  0  0  0  0
  -38.7169  -21.3397   24.0189 O   0  0  0  0  0  0  0  0  0  1  0  0
  -18.1627   -6.8724   25.8247 F   0  0  0  0  0  0  0  0  0  0  0  0
  -29.5990  -12.9065   25.2655 F   0  0  0  0  0  0  0  0  0  0  0  0
  -21.9954   -5.1278   23.6633 F   0  0  0  0  0  0  0  0  0  0  0  0
  1  2  1  0  0  0  0
  1  5  2  0  0  0  0
  2  6  2  0  0  0  0
  3  9  2  0  0  0  0
  3 18  1  0  0  0  0
  4 10  1  0  0  0  0
  4 18  2  0  0  0  0
  5 20  1  0  0  0  0
  6 22  1  0  0  0  0
  7 11  2  0  0  0  0
  7 21  1  0  0  0  0
  8 13  2  0  0  0  0
  8 24  1  0  0  0  0
  9 26  1  0  0  0  0
 10 26  2  0  0  0  0
 11 27  1  0  0  0  0
 12 14  2  0  0  0  0
 12 28  1  0  0  0  0
 13 30  1  0  0  0  0
 14 29  1  0  0  0  0
 15 23  1  0  0  0  0
 15 27  2  0  0  0  0
 16 24  2  0  0  0  0
 16 25  1  0  0  0  0
 17 29  2  0  0  0  0
 17 31  1  0  0  0  0
 18 32  1  0  0  0  0
 19 32  1  0  0  0  0
 19 33  2  0  0  0  0
 19 34  1  0  0  0  0
 20 22  2  0  0  0  0
 20 39  1  0  0  0  0
 21 23  2  0  0  0  0
 21 40  1  0  0  0  0
 22 48  1  0  0  0  0
 23 41  1  0  0  0  0
 24 76  1  0  0  0  0
 25 30  2  0  0  0  0
 25 75  1  0  0  0  0
 26 85  1  0  0  0  0
 27 86  1  0  0  0  0
 28 31  2  0  0  0  0
 28 85  1  0  0  0  0
 29 87  1  0  0  0  0
 30 88  1  0  0  0  0
 31 89  1  0  0  0  0
 32 69  2  0  0  0  0
 33 70  1  0  0  0  0
 33 73  1  0  0  0  0
 34 74  1  0  0  0  0
 34 80  2  0  0  0  0
 35 49  1  0  0  0  0
 35 77  1  0  0  0  0
 35 81  2  0  0  0  0
 36 66  1  0  0  0  0
 36 71  1  0  0  0  0
 36 82  2  0  0  0  0
 37 67  1  0  0  0  0
 37 78  1  0  0  0  0
 37 83  2  0  0  0  0
 38 72  1  0  0  0  0
 38 75  1  0  0  0  0
 38 84  2  0  0  0  0
 39 42  1  0  0  0  0
 40 49  1  0  0  0  0
 41 71  1  0  0  0  0
 42 44  1  0  0  0  0
 43 45  1  0  0  0  0
 43 46  1  0  0  0  0
 44 48  1  0  0  0  0
 45 50  1  0  0  0  0
 46 72  1  0  0  0  0
 47 50  1  0  0  0  0
 47 72  1  0  0  0  0
 48 77  1  0  0  0  0
 49 71  1  0  0  0  0
 50 70  1  0  0  0  0
 51 67  1  0  0  0  0
 52 68  1  0  0  0  0
 53 68  1  0  0  0  0
 54 68  1  0  0  0  0
 55 79  1  0  0  0  0
 56 57  1  0  0  0  0
 56 58  1  0  0  0  0
 57 59  1  0  0  0  0
 58 60  1  0  0  0  0
 59 61  1  0  0  0  0
 60 62  1  0  0  0  0
 61 63  1  0  0  0  0
 62 64  1  0  0  0  0
 63 65  1  0  0  0  0
 64 76  1  0  0  0  0
 65 86  1  0  0  0  0
 66 68  1  0  0  0  0
 66 78  1  0  0  0  0
 67 79  1  0  0  0  0
 69 70  1  0  0  0  0
M  CHG  1  79   1
M  ISO  4  38 100  65 101  75 100  86 101
M  END
> <Batch ID>
0010

> <Smiles>
CNC(C)C(=O)NC(C(=O)N1Cc2cc([101O:1][101CH2:1]CCCCCCCCCNc3ccc(F)c([100NH:0][100C:0](=O)N4CCCC(n5nc(-c6ccc(Oc7ccc(F)cc7F)cc6)c(C(N)=O)c5N)C4)c3)ccc2CC1C(=O)NC1CCCc2ccccc21)C(C)(C)C

> <Shape>
0.162

> <Color>
0.178

> <Negative vol penalty>
0.000

$$$$

  -OEChem-04052315413D

 86 94  0     1  0  0  0  0  0999 V2000
  -29.1659  -26.4528    6.7830 C   0  0  0  0  0  0  0  0  0  0  0  0
  -28.8204  -25.7458    7.9302 C   0  0  0  0  0  0  0  0  0  0  0  0
  -23.0917   -9.9638   19.8837 C   0  0  0  0  0  0  0  0  0  0  0  0
  -23.9313   -9.8229   22.1448 C   0  0  0  0  0  0  0  0  0  0  0  0
  -30.0431  -27.5331    6.8690 C   0  0  0  0  0  0  0  0  0  0  0  0
  -29.3528  -26.1181    9.1641 C   0  0  0  0  0  0  0  0  0  0  0  0
  -26.5721  -25.8255   14.6127 C   0  0  0  0  0  0  0  0  0  0  0  0
  -31.7829  -21.5659   21.5881 C   0  0  0  0  0  0  0  0  0  0  0  0
  -22.3611   -8.7923   20.0820 C   0  0  0  0  0  0  0  0  0  0  0  0
  -23.2006   -8.6514   22.3431 C   0  0  0  0  0  0  0  0  0  0  0  0
  -26.6295  -24.8915   15.6462 C   0  0  0  0  0  0  0  0  0  0  0  0
  -31.7091  -22.8413   21.0284 C   0  0  0  0  0  0  0  0  0  0  0  0
  -19.9982   -7.7966   23.0025 C   0  0  0  0  0  0  0  0  0  0  0  0
  -19.2828   -7.6746   24.1937 C   0  0  0  0  0  0  0  0  0  0  0  0
  -28.2844  -26.2422   16.7669 C   0  0  0  0  0  0  0  0  0  0  0  0
  -30.2910  -20.7305   19.8813 C   0  0  0  0  0  0  0  0  0  0  0  0
  -20.5559   -5.6997   24.7561 C   0  0  0  0  0  0  0  0  0  0  0  0
  -23.8769  -10.4791   20.9151 C   0  0  0  0  0  0  0  0  0  0  0  0
  -24.2055  -13.0086   20.9517 C   0  0  0  0  0  0  0  0  0  0  0  0
  -30.5789  -27.9249    8.1059 C   0  0  0  0  0  0  0  0  0  0  0  0
  -27.3797  -26.9715   14.6433 C   0  0  0  0  0  0  0  0  0  0  0  0
  -30.2390  -27.2039    9.2665 C   0  0  0  0  0  0  0  0  0  0  0  0
  -28.2335  -27.1906   15.7338 C   0  0  0  0  0  0  0  0  0  0  0  0
  -31.0739  -20.5104   21.0145 C   0  0  0  0  0  0  0  0  0  0  0  0
  -22.4155   -8.1361   21.3116 C   0  0  0  0  0  0  0  0  0  0  0  0
  -27.4879  -25.0983   16.7220 C   0  0  0  0  0  0  0  0  0  0  0  0
  -30.9261  -23.0614   19.8952 C   0  0  0  0  0  0  0  0  0  0  0  0
  -20.9925   -6.8701   22.6881 C   0  0  0  0  0  0  0  0  0  0  0  0
  -30.2170  -22.0060   19.3216 C   0  0  0  0  0  0  0  0  0  0  0  0
  -19.5616   -6.6262   25.0705 C   0  0  0  0  0  0  0  0  0  0  0  0
  -21.2714   -5.8217   23.5649 C   0  0  0  0  0  0  0  0  0  0  0  0
  -24.6323  -11.6889   20.7108 C   0  0  0  0  0  0  0  0  0  0  0  0
  -25.2816  -13.7869   20.6016 C   0  0  0  0  0  0  0  0  0  0  0  0
  -22.9486  -13.4881   21.4478 C   0  0  0  0  0  0  0  0  0  0  0  0
  -29.6937  -28.1347   12.8005 C   0  0  0  0  0  0  0  0  0  0  0  0
  -29.4598  -30.6877   14.7879 C   0  0  0  0  0  0  0  0  0  0  0  0
  -30.5151  -18.0580   21.1422 C   0  0  0  0  0  0  0  0  0  0  0  0
  -28.5541  -31.9067   17.8442 C   0  0  0  0  0  0  0  0  0  0  0  0
  -30.7650  -14.8230   20.6674 C   0  0  0  0  0  0  0  0  0  0  0  0
  -31.5600  -29.0698    8.1421 C   0  0  0  0  0  0  0  0  0  0  0  0
  -27.2864  -27.9827   13.5338 C   0  0  0  0  0  0  0  0  0  0  0  0
  -29.1063  -28.4147   15.8242 C   0  0  0  0  0  0  0  0  0  0  0  0
  -31.7871  -29.6333    9.5426 C   0  0  0  0  0  0  0  0  0  0  0  0
  -29.5531  -12.5957   18.1680 C   0  0  0  0  0  0  0  0  0  0  0  0
  -32.0072  -28.5034   10.5434 C   0  0  0  0  0  0  0  0  0  0  0  0
  -28.1327  -12.2655   18.6299 C   0  0  0  0  0  0  0  0  0  0  0  0
  -30.5108  -12.7416   19.3484 C   0  0  0  0  0  0  0  0  0  0  0  0
  -28.6561  -13.3679   20.8456 C   0  0  0  0  0  0  0  0  0  0  0  0
  -30.7763  -27.5926   10.6268 C   0  0  1  0  0  0  0  0  0  0  0  0
  -28.5302  -28.8583   13.4172 C   0  0  1  0  0  0  0  0  0  0  0  0
  -27.6420  -13.2663   19.6934 C   0  0  2  0  0  0  0  0  0  0  0  0
  -28.5179  -34.0257   19.1879 C   0  0  0  0  0  0  0  0  0  0  0  0
  -32.4634  -30.4356   15.2619 C   0  0  0  0  0  0  0  0  0  0  0  0
  -32.1991  -31.9045   17.2720 C   0  0  0  0  0  0  0  0  0  0  0  0
  -31.6413  -32.7834   15.0050 C   0  0  0  0  0  0  0  0  0  0  0  0
  -25.6060  -31.8344   18.0947 C   0  0  0  0  0  0  0  0  0  0  0  0
  -31.8274  -24.6399   18.3616 C   0  0  0  0  0  0  0  0  0  0  0  0
  -30.8665  -16.8870   22.0417 C   0  0  0  0  0  0  0  0  0  0  0  0
  -27.2782  -22.8272   17.3958 C   0  0  0  0  0  0  0  0  0  1  0  0
  -28.0558  -21.9232   18.3326 C   0  0  0  0  0  0  0  0  0  0  0  0
  -30.1077  -31.0916   16.0903 C   0  0  1  0  0  0  0  0  0  0  0  0
  -27.7397  -33.1245   18.2419 C   0  0  2  0  0  0  0  0  0  0  0  0
  -31.5880  -31.5296   15.9049 C   0  0  0  0  0  0  0  0  0  0  0  0
  -25.8821  -11.6284   20.2435 N   0  0  0  0  0  0  0  0  0  0  0  0
  -26.2498  -12.9199   20.1879 N   0  0  0  0  0  0  0  0  0  0  0  0
  -28.9839  -29.3711   14.7116 N   0  0  0  0  0  0  0  0  0  0  0  0
  -29.9880  -13.7058   20.3194 N   0  0  0  0  0  0  0  0  0  0  0  0
  -25.4847  -15.1215   20.6101 N   0  0  0  0  0  0  0  0  0  0  0  0
  -21.9523  -12.5526   21.7586 N   0  0  0  0  0  0  0  0  0  0  0  0
  -31.1476  -19.2347   21.5750 N   0  0  0  0  0  0  0  0  0  0  0  0
  -29.7396  -28.2154   11.4218 N   0  0  0  0  0  0  0  0  0  0  0  0
  -29.2493  -32.1176   16.6723 N   0  0  0  0  0  0  0  0  0  0  0  0
  -30.1924  -15.6904   21.5896 N   0  0  0  0  0  0  0  0  0  0  0  0
  -26.4804  -32.7065   18.9204 N   0  3  0  0  0  0  0  0  0  0  0  0
  -22.7102  -14.7107   21.5951 O   0  0  0  0  0  0  0  0  0  0  0  0
  -30.4916  -27.5479   13.5222 O   0  0  0  0  0  0  0  0  0  0  0  0
  -29.3726  -31.5122   13.8746 O   0  0  0  0  0  0  0  0  0  0  0  0
  -29.7949  -17.9313   20.1570 O   0  0  0  0  0  0  0  0  0  0  0  0
  -28.5745  -30.8730   18.5087 O   0  0  0  0  0  0  0  0  0  0  0  0
  -31.8838  -15.0348   20.1874 O   0  0  0  0  0  0  0  0  0  0  0  0
  -21.7024   -6.9931   21.5055 O   0  0  0  0  0  0  0  0  0  0  0  0
  -30.8614  -24.3117   19.3583 O   0  0  0  0  0  0  0  0  0  0  0  0
  -27.5464  -24.1879   17.7318 O   0  0  0  0  0  0  0  0  0  1  0  0
  -29.4436  -22.2097   18.2092 O   0  0  0  0  0  0  0  0  0  0  0  0
  -18.8756   -6.5100   26.2150 F   0  0  0  0  0  0  0  0  0  0  0  0
  -22.2262   -4.9293   23.2688 F   0  0  0  0  0  0  0  0  0  0  0  0
  1  2  1  0  0  0  0
  1  5  2  0  0  0  0
  2  6  2  0  0  0  0
  3  9  2  0  0  0  0
  3 18  1  0  0  0  0
  4 10  1  0  0  0  0
  4 18  2  0  0  0  0
  5 20  1  0  0  0  0
  6 22  1  0  0  0  0
  7 11  2  0  0  0  0
  7 21  1  0  0  0  0
  8 12  2  0  0  0  0
  8 24  1  0  0  0  0
  9 25  1  0  0  0  0
 10 25  2  0  0  0  0
 11 26  1  0  0  0  0
 12 27  1  0  0  0  0
 13 14  2  0  0  0  0
 13 28  1  0  0  0  0
 14 30  1  0  0  0  0
 15 23  1  0  0  0  0
 15 26  2  0  0  0  0
 16 24  2  0  0  0  0
 16 29  1  0  0  0  0
 17 30  2  0  0  0  0
 17 31  1  0  0  0  0
 18 32  1  0  0  0  0
 19 32  1  0  0  0  0
 19 33  2  0  0  0  0
 19 34  1  0  0  0  0
 20 22  2  0  0  0  0
 20 40  1  0  0  0  0
 21 23  2  0  0  0  0
 21 41  1  0  0  0  0
 22 49  1  0  0  0  0
 23 42  1  0  0  0  0
 24 70  1  0  0  0  0
 25 81  1  0  0  0  0
 26 83  1  0  0  0  0
 27 29  2  0  0  0  0
 27 82  1  0  0  0  0
 28 31  2  0  0  0  0
 28 81  1  0  0  0  0
 29 84  1  0  0  0  0
 30 85  1  0  0  0  0
 31 86  1  0  0  0  0
 32 64  2  0  0  0  0
 33 65  1  0  0  0  0
 33 68  1  0  0  0  0
 34 69  1  0  0  0  0
 34 75  2  0  0  0  0
 35 50  1  0  0  0  0
 35 71  1  0  0  0  0
 35 76  2  0  0  0  0
 36 61  1  0  0  0  0
 36 66  1  0  0  0  0
 36 77  2  0  0  0  0
 37 58  1  0  0  0  0
 37 70  1  0  0  0  0
 37 78  2  0  0  0  0
 38 62  1  0  0  0  0
 38 72  1  0  0  0  0
 38 79  2  0  0  0  0
 39 67  1  0  0  0  0
 39 73  1  0  0  0  0
 39 80  2  0  0  0  0
 40 43  1  0  0  0  0
 41 50  1  0  0  0  0
 42 66  1  0  0  0  0
 43 45  1  0  0  0  0
 44 46  1  0  0  0  0
 44 47  1  0  0  0  0
 45 49  1  0  0  0  0
 46 51  1  0  0  0  0
 47 67  1  0  0  0  0
 48 51  1  0  0  0  0
 48 67  1  0  0  0  0
 49 71  1  0  0  0  0
 50 66  1  0  0  0  0
 51 65  1  0  0  0  0
 52 62  1  0  0  0  0
 53 63  1  0  0  0  0
 54 63  1  0  0  0  0
 55 63  1  0  0  0  0
 56 74  1  0  0  0  0
 57 82  1  0  0  0  0
 58 73  1  0  0  0  0
 59 60  1  0  0  0  0
 59 83  1  0  0  0  0
 60 84  1  0  0  0  0
 61 63  1  0  0  0  0
 61 72  1  0  0  0  0
 62 74  1  0  0  0  0
 64 65  1  0  0  0  0
M  CHG  1  74   1
M  ISO  4  39 100  59 101  73 100  83 101
M  END
> <Batch ID>
0010

> <Smiles>
CNC(C)C(=O)NC(C(=O)N1Cc2cc([101O:1][101CH2:1]COc3cc(NC(=O)C[100NH:0][100C:0](=O)N4CCCC(n5nc(-c6ccc(Oc7ccc(F)cc7F)cc6)c(C(N)=O)c5N)C4)ccc3OC)ccc2CC1C(=O)NC1CCCc2ccccc21)C(C)(C)C

> <Shape>
0.210

> <Color>
0.212

> <Negative vol penalty>
0.000

$$$$

  -OEChem-04052315413D

 84 92  0     1  0  0  0  0  0999 V2000
  -22.3659  -24.1142   20.2187 C   0  0  0  0  0  0  0  0  0  0  0  0
  -23.6637  -23.6158   20.2715 C   0  0  0  0  0  0  0  0  0  0  0  0
  -22.4536  -29.0483   19.6407 C   0  0  0  0  0  0  0  0  0  0  0  0
  -22.5043  -27.6469   21.6081 C   0  0  0  0  0  0  0  0  0  0  0  0
  -21.3221  -23.4011   20.8069 C   0  0  0  0  0  0  0  0  0  0  0  0
  -23.9186  -22.4045   20.9135 C   0  0  0  0  0  0  0  0  0  0  0  0
  -28.0868  -18.2055   19.3320 C   0  0  0  0  0  0  0  0  0  0  0  0
  -30.9851  -21.0675   21.9130 C   0  0  0  0  0  0  0  0  0  0  0  0
  -30.1907  -21.7008   20.9573 C   0  0  0  0  0  0  0  0  0  0  0  0
  -21.0669  -29.1516   19.7500 C   0  0  0  0  0  0  0  0  0  0  0  0
  -21.1176  -27.7503   21.7174 C   0  0  0  0  0  0  0  0  0  0  0  0
  -29.3707  -17.9346   19.8031 C   0  0  0  0  0  0  0  0  0  0  0  0
  -18.8707  -30.0118   22.8389 C   0  0  0  0  0  0  0  0  0  0  0  0
  -18.3388  -30.2626   24.1037 C   0  0  0  0  0  0  0  0  0  0  0  0
  -28.4718  -16.2311   21.2554 C   0  0  0  0  0  0  0  0  0  0  0  0
  -29.2001  -21.2667   23.5288 C   0  0  0  0  0  0  0  0  0  0  0  0
  -17.0979  -28.1926   23.9924 C   0  0  0  0  0  0  0  0  0  0  0  0
  -23.1723  -28.2959   20.5697 C   0  0  0  0  0  0  0  0  0  0  0  0
  -25.5690  -29.0353   21.0356 C   0  0  0  0  0  0  0  0  0  0  0  0
  -21.5629  -22.1757   21.4480 C   0  0  0  0  0  0  0  0  0  0  0  0
  -26.9825  -17.4976   19.8279 C   0  0  0  0  0  0  0  0  0  0  0  0
  -22.8773  -21.6750   21.5119 C   0  0  0  0  0  0  0  0  0  0  0  0
  -27.1752  -16.4932   20.7871 C   0  0  0  0  0  0  0  0  0  0  0  0
  -30.4898  -20.8504   23.1988 C   0  0  0  0  0  0  0  0  0  0  0  0
  -28.9010  -22.1171   21.2873 C   0  0  0  0  0  0  0  0  0  0  0  0
  -20.3989  -28.5026   20.7884 C   0  0  0  0  0  0  0  0  0  0  0  0
  -29.5630  -16.9492   20.7670 C   0  0  0  0  0  0  0  0  0  0  0  0
  -18.5162  -28.8514   22.1508 C   0  0  0  0  0  0  0  0  0  0  0  0
  -17.4524  -29.3530   24.6805 C   0  0  0  0  0  0  0  0  0  0  0  0
  -17.6298  -27.9418   22.7275 C   0  0  0  0  0  0  0  0  0  0  0  0
  -28.4057  -21.9001   22.5731 C   0  0  0  0  0  0  0  0  0  0  0  0
  -24.6047  -28.1884   20.4570 C   0  0  0  0  0  0  0  0  0  0  0  0
  -26.7727  -28.5111   20.6322 C   0  0  0  0  0  0  0  0  0  0  0  0
  -25.3923  -30.1923   21.8638 C   0  0  0  0  0  0  0  0  0  0  0  0
  -24.3412  -18.2839   21.4119 C   0  0  0  0  0  0  0  0  0  0  0  0
  -23.5915  -15.1648   20.9308 C   0  0  0  0  0  0  0  0  0  0  0  0
  -32.4181  -18.1628   23.2097 C   0  0  0  0  0  0  0  0  0  0  0  0
  -24.6733  -11.9844   20.3300 C   0  0  0  0  0  0  0  0  0  0  0  0
  -28.4901  -23.0326   18.9766 C   0  0  0  0  0  0  0  0  0  0  0  0
  -20.4099  -21.4641   22.1104 C   0  0  0  0  0  0  0  0  0  0  0  0
  -25.6073  -17.7835   19.2899 C   0  0  0  0  0  0  0  0  0  0  0  0
  -26.0254  -15.6907   21.3370 C   0  0  0  0  0  0  0  0  0  0  0  0
  -20.7063  -20.0046   22.4454 C   0  0  0  0  0  0  0  0  0  0  0  0
  -28.7635  -26.0202   17.0592 C   0  0  0  0  0  0  0  0  0  0  0  0
  -22.0719  -19.8769   23.1132 C   0  0  0  0  0  0  0  0  0  0  0  0
  -27.8204  -26.9942   17.7692 C   0  0  0  0  0  0  0  0  0  0  0  0
  -28.2147  -24.5945   17.0636 C   0  0  0  0  0  0  0  0  0  0  0  0
  -26.8998  -25.0505   19.0964 C   0  0  0  0  0  0  0  0  0  0  0  0
  -23.1900  -20.3525   22.1777 C   0  0  1  0  0  0  0  0  0  0  0  0
  -24.4931  -17.3556   20.2402 C   0  0  1  0  0  0  0  0  0  0  0  0
  -27.4406  -26.4876   19.1744 C   0  0  2  0  0  0  0  0  0  0  0  0
  -23.8290   -9.6410   20.0252 C   0  0  0  0  0  0  0  0  0  0  0  0
  -23.1391  -14.9391   23.9399 C   0  0  0  0  0  0  0  0  0  0  0  0
  -23.2399  -12.4492   23.6978 C   0  0  0  0  0  0  0  0  0  0  0  0
  -21.4491  -13.7418   22.5381 C   0  0  0  0  0  0  0  0  0  0  0  0
  -25.7686  -11.8229   17.5853 C   0  0  0  0  0  0  0  0  0  0  0  0
  -31.3456  -20.1689   24.2271 C   0  0  0  0  0  0  0  0  0  0  0  0
  -32.2623  -16.6512   23.1512 C   0  0  0  0  0  0  0  0  0  0  0  0
  -30.9257  -16.2139   22.5721 C   0  0  0  0  0  0  0  0  0  1  0  0
  -23.8260  -13.8799   21.6877 C   0  0  1  0  0  0  0  0  0  0  0  0
  -24.2167  -10.9370   19.3305 C   0  0  2  0  0  0  0  0  0  0  0  0
  -22.9351  -13.7688   22.9571 C   0  0  0  0  0  0  0  0  0  0  0  0
  -25.1489  -27.2013   19.7404 N   0  0  0  0  0  0  0  0  0  0  0  0
  -26.4682  -27.4246   19.8661 N   0  0  0  0  0  0  0  0  0  0  0  0
  -24.6992  -16.0117   20.7841 N   0  0  0  0  0  0  0  0  0  0  0  0
  -27.8809  -24.1811   18.4284 N   0  0  0  0  0  0  0  0  0  0  0  0
  -28.0514  -28.8782   20.8616 N   0  0  0  0  0  0  0  0  0  0  0  0
  -24.0876  -30.5932   22.1821 N   0  0  0  0  0  0  0  0  0  0  0  0
  -28.1203  -22.7562   20.2925 N   0  0  0  0  0  0  0  0  0  0  0  0
  -23.4817  -19.3416   21.1840 N   0  0  0  0  0  0  0  0  0  0  0  0
  -31.4357  -18.7448   23.9979 N   0  0  0  0  0  0  0  0  0  0  0  0
  -23.6341  -12.7992   20.7266 N   0  0  0  0  0  0  0  0  0  0  0  0
  -25.3053  -10.6408   18.3567 N   0  3  0  0  0  0  0  0  0  0  0  0
  -26.3624  -30.8607   22.2948 O   0  0  0  0  0  0  0  0  0  0  0  0
  -24.9571  -18.0565   22.4467 O   0  0  0  0  0  0  0  0  0  0  0  0
  -22.4686  -15.4048   20.4800 O   0  0  0  0  0  0  0  0  0  0  0  0
  -33.3098  -18.7711   22.6243 O   0  0  0  0  0  0  0  0  0  0  0  0
  -25.8349  -12.0687   20.7226 O   0  0  0  0  0  0  0  0  0  0  0  0
  -29.3022  -22.3603   18.3359 O   0  0  0  0  0  0  0  0  0  0  0  0
  -19.0457  -28.6034   20.8955 O   0  0  0  0  0  0  0  0  0  0  0  0
  -30.8151  -16.6832   21.2290 O   0  0  0  0  0  0  0  0  0  1  0  0
  -16.9429  -29.5933   25.8957 F   0  0  0  0  0  0  0  0  0  0  0  0
  -17.2864  -26.8247   22.0718 F   0  0  0  0  0  0  0  0  0  0  0  0
  -26.8145  -22.3999   23.0241 Cl  0  0  0  0  0  0  0  0  0  0  0  0
  1  2  1  0  0  0  0
  1  5  2  0  0  0  0
  2  6  2  0  0  0  0
  3 10  2  0  0  0  0
  3 18  1  0  0  0  0
  4 11  1  0  0  0  0
  4 18  2  0  0  0  0
  5 20  1  0  0  0  0
  6 22  1  0  0  0  0
  7 12  2  0  0  0  0
  7 21  1  0  0  0  0
  8  9  2  0  0  0  0
  8 24  1  0  0  0  0
  9 25  1  0  0  0  0
 10 26  1  0  0  0  0
 11 26  2  0  0  0  0
 12 27  1  0  0  0  0
 13 14  2  0  0  0  0
 13 28  1  0  0  0  0
 14 29  1  0  0  0  0
 15 23  1  0  0  0  0
 15 27  2  0  0  0  0
 16 24  2  0  0  0  0
 16 31  1  0  0  0  0
 17 29  2  0  0  0  0
 17 30  1  0  0  0  0
 18 32  1  0  0  0  0
 19 32  1  0  0  0  0
 19 33  2  0  0  0  0
 19 34  1  0  0  0  0
 20 22  2  0  0  0  0
 20 40  1  0  0  0  0
 21 23  2  0  0  0  0
 21 41  1  0  0  0  0
 22 49  1  0  0  0  0
 23 42  1  0  0  0  0
 24 57  1  0  0  0  0
 25 31  2  0  0  0  0
 25 69  1  0  0  0  0
 26 80  1  0  0  0  0
 27 81  1  0  0  0  0
 28 30  2  0  0  0  0
 28 80  1  0  0  0  0
 29 82  1  0  0  0  0
 30 83  1  0  0  0  0
 31 84  1  0  0  0  0
 32 63  2  0  0  0  0
 33 64  1  0  0  0  0
 33 67  1  0  0  0  0
 34 68  1  0  0  0  0
 34 74  2  0  0  0  0
 35 50  1  0  0  0  0
 35 70  1  0  0  0  0
 35 75  2  0  0  0  0
 36 60  1  0  0  0  0
 36 65  1  0  0  0  0
 36 76  2  0  0  0  0
 37 58  1  0  0  0  0
 37 71  1  0  0  0  0
 37 77  2  0  0  0  0
 38 61  1  0  0  0  0
 38 72  1  0  0  0  0
 38 78  2  0  0  0  0
 39 66  1  0  0  0  0
 39 69  1  0  0  0  0
 39 79  2  0  0  0  0
 40 43  1  0  0  0  0
 41 50  1  0  0  0  0
 42 65  1  0  0  0  0
 43 45  1  0  0  0  0
 44 46  1  0  0  0  0
 44 47  1  0  0  0  0
 45 49  1  0  0  0  0
 46 51  1  0  0  0  0
 47 66  1  0  0  0  0
 48 51  1  0  0  0  0
 48 66  1  0  0  0  0
 49 70  1  0  0  0  0
 50 65  1  0  0  0  0
 51 64  1  0  0  0  0
 52 61  1  0  0  0  0
 53 62  1  0  0  0  0
 54 62  1  0  0  0  0
 55 62  1  0  0  0  0
 56 73  1  0  0  0  0
 57 71  1  0  0  0  0
 58 59  1  0  0  0  0
 59 81  1  0  0  0  0
 60 62  1  0  0  0  0
 60 72  1  0  0  0  0
 61 73  1  0  0  0  0
 63 64  1  0  0  0  0
M  CHG  1  73   1
M  ISO  4  39 100  59 101  69 100  81 101
M  END
> <Batch ID>
0010

> <Smiles>
CNC(C)C(=O)NC(C(=O)N1Cc2cc([101O:1][101CH2:1]CC(=O)NCc3ccc([100NH:0][100C:0](=O)N4CCCC(n5nc(-c6ccc(Oc7ccc(F)cc7F)cc6)c(C(N)=O)c5N)C4)c(Cl)c3)ccc2CC1C(=O)NC1CCCc2ccccc21)C(C)(C)C

> <Shape>
0.237

> <Color>
0.068

> <Negative vol penalty>
0.000

$$$$
