
  -OEChem-04052315443D

 85 93  0     1  0  0  0  0  0999 V2000
  -19.9923  -16.6313   23.5863 C   0  0  0  0  0  0  0  0  0  0  0  0
  -21.0439  -17.3621   23.0426 C   0  0  0  0  0  0  0  0  0  0  0  0
  -23.5612   -9.8127   21.8312 C   0  0  0  0  0  0  0  0  0  0  0  0
  -24.1383  -11.0855   23.8020 C   0  0  0  0  0  0  0  0  0  0  0  0
  -18.7321  -17.2141   23.7130 C   0  0  0  0  0  0  0  0  0  0  0  0
  -20.8355  -18.6758   22.6242 C   0  0  0  0  0  0  0  0  0  0  0  0
  -24.5303  -21.7998   24.1189 C   0  0  0  0  0  0  0  0  0  0  0  0
  -22.9631   -8.8412   22.6338 C   0  0  0  0  0  0  0  0  0  0  0  0
  -23.5402  -10.1140   24.6046 C   0  0  0  0  0  0  0  0  0  0  0  0
  -25.7228  -21.7668   23.3974 C   0  0  0  0  0  0  0  0  0  0  0  0
  -20.4131   -9.2379   25.5397 C   0  0  0  0  0  0  0  0  0  0  0  0
  -19.5825   -9.6737   26.5720 C   0  0  0  0  0  0  0  0  0  0  0  0
  -25.0426  -23.7441   22.1944 C   0  0  0  0  0  0  0  0  0  0  0  0
  -30.4336  -18.0537   18.4008 C   0  0  0  0  0  0  0  0  0  0  0  0
  -21.0151   -8.5851   28.1844 C   0  0  0  0  0  0  0  0  0  0  0  0
  -24.1488  -10.9349   22.4153 C   0  0  0  0  0  0  0  0  0  0  0  0
  -24.1547  -13.0775   21.0309 C   0  0  0  0  0  0  0  0  0  0  0  0
  -18.5105  -18.5389   23.3048 C   0  0  0  0  0  0  0  0  0  0  0  0
  -23.5786  -22.8006   23.8756 C   0  0  0  0  0  0  0  0  0  0  0  0
  -19.5708  -19.2765   22.7443 C   0  0  0  0  0  0  0  0  0  0  0  0
  -23.8400  -23.7890   22.9160 C   0  0  0  0  0  0  0  0  0  0  0  0
  -29.5581  -17.8504   19.4674 C   0  0  0  0  0  0  0  0  0  0  0  0
  -30.4142  -19.2614   17.7029 C   0  0  0  0  0  0  0  0  0  0  0  0
  -28.6436  -20.0624   19.1383 C   0  0  0  0  0  0  0  0  0  0  0  0
  -22.9526   -8.9919   24.0204 C   0  0  0  0  0  0  0  0  0  0  0  0
  -25.9778  -22.7373   22.4329 C   0  0  0  0  0  0  0  0  0  0  0  0
  -21.5447   -8.4755   25.8298 C   0  0  0  0  0  0  0  0  0  0  0  0
  -19.8834   -9.3474   27.8944 C   0  0  0  0  0  0  0  0  0  0  0  0
  -21.8457   -8.1492   27.1521 C   0  0  0  0  0  0  0  0  0  0  0  0
  -28.6630  -18.8547   19.8361 C   0  0  0  0  0  0  0  0  0  0  0  0
  -29.5192  -20.2657   18.0717 C   0  0  0  0  0  0  0  0  0  0  0  0
  -24.7673  -11.9385   21.5869 C   0  0  0  0  0  0  0  0  0  0  0  0
  -25.1599  -13.7023   20.3340 C   0  0  0  0  0  0  0  0  0  0  0  0
  -22.7983  -13.5303   21.1351 C   0  0  0  0  0  0  0  0  0  0  0  0
  -20.5673  -22.8327   22.8584 C   0  0  0  0  0  0  0  0  0  0  0  0
  -20.7800  -25.9965   23.5420 C   0  0  0  0  0  0  0  0  0  0  0  0
  -22.7619  -28.7424   23.9647 C   0  0  0  0  0  0  0  0  0  0  0  0
  -30.4061  -15.5249   19.9354 C   0  0  0  0  0  0  0  0  0  0  0  0
  -17.1194  -19.1103   23.4180 C   0  0  0  0  0  0  0  0  0  0  0  0
  -22.3089  -22.8378   24.6812 C   0  0  0  0  0  0  0  0  0  0  0  0
  -22.8598  -24.8965   22.6311 C   0  0  0  0  0  0  0  0  0  0  0  0
  -17.0739  -20.6313   23.2964 C   0  0  0  0  0  0  0  0  0  0  0  0
  -29.8093  -12.1105   19.1211 C   0  0  0  0  0  0  0  0  0  0  0  0
  -17.9180  -21.0978   22.1145 C   0  0  0  0  0  0  0  0  0  0  0  0
  -28.3940  -11.8551   19.6443 C   0  0  0  0  0  0  0  0  0  0  0  0
  -30.5920  -13.0490   20.0378 C   0  0  0  0  0  0  0  0  0  0  0  0
  -28.5062  -14.0634   20.8681 C   0  0  0  0  0  0  0  0  0  0  0  0
  -19.3903  -20.7124   22.3019 C   0  0  1  0  0  0  0  0  0  0  0  0
  -21.1851  -23.6040   23.9902 C   0  0  1  0  0  0  0  0  0  0  0  0
  -27.6571  -13.1752   19.9440 C   0  0  2  0  0  0  0  0  0  0  0  0
  -22.6453  -31.1954   24.4810 C   0  0  0  0  0  0  0  0  0  0  0  0
  -19.8264  -26.5477   20.6965 C   0  0  0  0  0  0  0  0  0  0  0  0
  -20.6289  -28.9047   20.9585 C   0  0  0  0  0  0  0  0  0  0  0  0
  -18.8210  -28.0326   22.4396 C   0  0  0  0  0  0  0  0  0  0  0  0
  -32.2336  -18.4254   16.2362 C   0  0  0  0  0  0  0  0  0  0  0  0
  -31.2810  -20.7094   15.8830 C   0  0  0  0  0  0  0  0  0  0  0  0
  -24.3738  -28.4193   26.4257 C   0  0  0  0  0  0  0  0  0  0  0  0
  -28.0933  -22.4642   19.5304 C   0  0  0  0  0  0  0  0  0  0  0  0
  -27.1079  -23.2284   20.3988 C   0  0  0  0  0  0  0  0  0  1  0  0
  -21.1947  -27.2301   22.7769 C   0  0  1  0  0  0  0  0  0  0  0  0
  -22.8032  -29.7965   25.0563 C   0  0  2  0  0  0  0  0  0  0  0  0
  -20.1356  -27.6569   21.7216 C   0  0  0  0  0  0  0  0  0  0  0  0
  -26.0614  -11.8427   21.2704 N   0  0  0  0  0  0  0  0  0  0  0  0
  -26.2702  -12.9295   20.5079 N   0  0  0  0  0  0  0  0  0  0  0  0
  -21.6301  -24.8862   23.4405 N   0  0  0  0  0  0  0  0  0  0  0  0
  -29.8345  -14.2800   20.2737 N   0  0  0  0  0  0  0  0  0  0  0  0
  -25.1936  -14.8319   19.5955 N   0  0  0  0  0  0  0  0  0  0  0  0
  -21.8959  -12.7688   21.8902 N   0  0  0  0  0  0  0  0  0  0  0  0
  -29.5800  -16.6226   20.1743 N   0  0  0  0  0  0  0  0  0  0  0  0
  -27.7550  -21.0597   19.5046 N   0  0  0  0  0  0  0  0  0  0  0  0
  -20.0343  -21.6140   23.2328 N   0  0  0  0  0  0  0  0  0  0  0  0
  -21.4873  -28.2514   23.7767 N   0  0  0  0  0  0  0  0  0  0  0  0
  -31.3009  -19.4644   16.6249 N   0  0  0  0  0  0  0  0  0  0  0  0
  -24.0994  -29.7332   25.7889 N   0  3  0  0  0  0  0  0  0  0  0  0
  -22.3945  -14.5703   20.5617 O   0  0  0  0  0  0  0  0  0  0  0  0
  -20.5724  -23.3087   21.7292 O   0  0  0  0  0  0  0  0  0  0  0  0
  -19.7438  -26.0197   24.2109 O   0  0  0  0  0  0  0  0  0  0  0  0
  -23.7600  -28.3925   23.3386 O   0  0  0  0  0  0  0  0  0  0  0  0
  -31.5341  -15.6087   19.4427 O   0  0  0  0  0  0  0  0  0  0  0  0
  -22.3688   -8.0442   24.8038 O   0  0  0  0  0  0  0  0  0  0  0  0
  -27.1407  -22.7071   21.7268 O   0  0  0  0  0  0  0  0  0  1  0  0
  -19.0865   -9.7673   28.8857 F   0  0  0  0  0  0  0  0  0  0  0  0
  -22.9321   -7.4181   27.4370 F   0  0  0  0  0  0  0  0  0  0  0  0
  -27.8205  -18.6594   20.8622 F   0  0  0  0  0  0  0  0  0  0  0  0
  -29.5008  -21.4274   17.4005 F   0  0  0  0  0  0  0  0  0  0  0  0
  1  2  1  0  0  0  0
  1  5  2  0  0  0  0
  2  6  2  0  0  0  0
  3  8  2  0  0  0  0
  3 16  1  0  0  0  0
  4  9  1  0  0  0  0
  4 16  2  0  0  0  0
  5 18  1  0  0  0  0
  6 20  1  0  0  0  0
  7 10  2  0  0  0  0
  7 19  1  0  0  0  0
  8 25  1  0  0  0  0
  9 25  2  0  0  0  0
 10 26  1  0  0  0  0
 11 12  2  0  0  0  0
 11 27  1  0  0  0  0
 12 28  1  0  0  0  0
 13 21  1  0  0  0  0
 13 26  2  0  0  0  0
 14 22  1  0  0  0  0
 14 23  2  0  0  0  0
 15 28  2  0  0  0  0
 15 29  1  0  0  0  0
 16 32  1  0  0  0  0
 17 32  1  0  0  0  0
 17 33  2  0  0  0  0
 17 34  1  0  0  0  0
 18 20  2  0  0  0  0
 18 39  1  0  0  0  0
 19 21  2  0  0  0  0
 19 40  1  0  0  0  0
 20 48  1  0  0  0  0
 21 41  1  0  0  0  0
 22 30  2  0  0  0  0
 22 69  1  0  0  0  0
 23 31  1  0  0  0  0
 23 73  1  0  0  0  0
 24 30  1  0  0  0  0
 24 31  2  0  0  0  0
 24 70  1  0  0  0  0
 25 80  1  0  0  0  0
 26 81  1  0  0  0  0
 27 29  2  0  0  0  0
 27 80  1  0  0  0  0
 28 82  1  0  0  0  0
 29 83  1  0  0  0  0
 30 84  1  0  0  0  0
 31 85  1  0  0  0  0
 32 63  2  0  0  0  0
 33 64  1  0  0  0  0
 33 67  1  0  0  0  0
 34 68  1  0  0  0  0
 34 75  2  0  0  0  0
 35 49  1  0  0  0  0
 35 71  1  0  0  0  0
 35 76  2  0  0  0  0
 36 60  1  0  0  0  0
 36 65  1  0  0  0  0
 36 77  2  0  0  0  0
 37 61  1  0  0  0  0
 37 72  1  0  0  0  0
 37 78  2  0  0  0  0
 38 66  1  0  0  0  0
 38 69  1  0  0  0  0
 38 79  2  0  0  0  0
 39 42  1  0  0  0  0
 40 49  1  0  0  0  0
 41 65  1  0  0  0  0
 42 44  1  0  0  0  0
 43 45  1  0  0  0  0
 43 46  1  0  0  0  0
 44 48  1  0  0  0  0
 45 50  1  0  0  0  0
 46 66  1  0  0  0  0
 47 50  1  0  0  0  0
 47 66  1  0  0  0  0
 48 71  1  0  0  0  0
 49 65  1  0  0  0  0
 50 64  1  0  0  0  0
 51 61  1  0  0  0  0
 52 62  1  0  0  0  0
 53 62  1  0  0  0  0
 54 62  1  0  0  0  0
 55 73  1  0  0  0  0
 56 73  1  0  0  0  0
 57 74  1  0  0  0  0
 58 59  1  0  0  0  0
 58 70  1  0  0  0  0
 59 81  1  0  0  0  0
 60 62  1  0  0  0  0
 60 72  1  0  0  0  0
 61 74  1  0  0  0  0
 63 64  1  0  0  0  0
M  CHG  1  74   1
M  ISO  4  38 100  59 101  69 100  81 101
M  END
> <Batch ID>
0011

> <Smiles>
CNC(C)C(=O)NC(C(=O)N1Cc2cc([101O:1][101CH2:1]CNc3c(F)c([100NH:0][100C:0](=O)N4CCCC(n5nc(-c6ccc(Oc7ccc(F)cc7F)cc6)c(C(N)=O)c5N)C4)cc(N(C)C)c3F)ccc2CC1C(=O)NC1CCCc2ccccc21)C(C)(C)C

> <Shape>
0.199

> <Color>
0.126

> <Negative vol penalty>
0.000

$$$$

  -OEChem-04052315443D

 82 90  0     1  0  0  0  0  0999 V2000
  -39.4036  -27.9543   16.7466 C   0  0  0  0  0  0  0  0  0  0  0  0
  -39.2279  -26.9837   17.7277 C   0  0  0  0  0  0  0  0  0  0  0  0
  -22.9938   -9.9084   19.9600 C   0  0  0  0  0  0  0  0  0  0  0  0
  -23.7315   -9.9147   22.2606 C   0  0  0  0  0  0  0  0  0  0  0  0
  -38.4325  -28.9366   16.5577 C   0  0  0  0  0  0  0  0  0  0  0  0
  -38.0814  -26.9956   18.5212 C   0  0  0  0  0  0  0  0  0  0  0  0
  -35.0875  -22.1345   20.7376 C   0  0  0  0  0  0  0  0  0  0  0  0
  -32.7149  -17.3290   23.4887 C   0  0  0  0  0  0  0  0  0  0  0  0
  -32.0877  -16.4639   22.5922 C   0  0  0  0  0  0  0  0  0  0  0  0
  -22.2251   -8.7715   20.2096 C   0  0  0  0  0  0  0  0  0  0  0  0
  -22.9628   -8.7779   22.5103 C   0  0  0  0  0  0  0  0  0  0  0  0
  -35.1075  -21.5084   21.9831 C   0  0  0  0  0  0  0  0  0  0  0  0
  -21.4781   -5.6677   23.6645 C   0  0  0  0  0  0  0  0  0  0  0  0
  -22.0649   -4.6364   24.3977 C   0  0  0  0  0  0  0  0  0  0  0  0
  -33.1663  -22.7779   22.6458 C   0  0  0  0  0  0  0  0  0  0  0  0
  -30.5688  -18.2615   24.0902 C   0  0  0  0  0  0  0  0  0  0  0  0
  -23.7815   -4.4148   22.7121 C   0  0  0  0  0  0  0  0  0  0  0  0
  -23.7470  -10.4800   20.9855 C   0  0  0  0  0  0  0  0  0  0  0  0
  -24.1393  -12.9972   20.8537 C   0  0  0  0  0  0  0  0  0  0  0  0
  -37.2689  -28.9549   17.3428 C   0  0  0  0  0  0  0  0  0  0  0  0
  -34.1116  -23.0966   20.4402 C   0  0  0  0  0  0  0  0  0  0  0  0
  -37.0944  -27.9799   18.3435 C   0  0  0  0  0  0  0  0  0  0  0  0
  -33.1345  -23.4129   21.3949 C   0  0  0  0  0  0  0  0  0  0  0  0
  -31.9554  -18.2279   24.2378 C   0  0  0  0  0  0  0  0  0  0  0  0
  -30.7011  -16.4975   22.4447 C   0  0  0  0  0  0  0  0  0  0  0  0
  -22.2096   -8.2063   21.4847 C   0  0  0  0  0  0  0  0  0  0  0  0
  -34.1486  -21.8321   22.9385 C   0  0  0  0  0  0  0  0  0  0  0  0
  -22.0428   -6.0725   22.4550 C   0  0  0  0  0  0  0  0  0  0  0  0
  -23.2166   -4.0100   23.9216 C   0  0  0  0  0  0  0  0  0  0  0  0
  -23.1946   -5.4461   21.9788 C   0  0  0  0  0  0  0  0  0  0  0  0
  -29.9416  -17.3964   23.1937 C   0  0  0  0  0  0  0  0  0  0  0  0
  -24.5417  -11.6540   20.7282 C   0  0  0  0  0  0  0  0  0  0  0  0
  -25.2494  -13.7230   20.4967 C   0  0  0  0  0  0  0  0  0  0  0  0
  -22.8752  -13.5403   21.2571 C   0  0  0  0  0  0  0  0  0  0  0  0
  -34.1613  -26.1871   19.6984 C   0  0  0  0  0  0  0  0  0  0  0  0
  -30.9823  -25.7295   19.2432 C   0  0  0  0  0  0  0  0  0  0  0  0
  -28.1879  -23.9022   19.9494 C   0  0  0  0  0  0  0  0  0  0  0  0
  -30.7330  -14.6629   20.7186 C   0  0  0  0  0  0  0  0  0  0  0  0
  -36.2693  -30.0646   17.1335 C   0  0  0  0  0  0  0  0  0  0  0  0
  -34.0876  -23.7435   19.0825 C   0  0  0  0  0  0  0  0  0  0  0  0
  -32.0533  -24.4242   21.1179 C   0  0  0  0  0  0  0  0  0  0  0  0
  -34.9077  -29.7850   17.7647 C   0  0  0  0  0  0  0  0  0  0  0  0
  -29.5946  -12.2566   18.3541 C   0  0  0  0  0  0  0  0  0  0  0  0
  -35.0761  -29.2671   19.1895 C   0  0  0  0  0  0  0  0  0  0  0  0
  -28.1454  -11.9958   18.7713 C   0  0  0  0  0  0  0  0  0  0  0  0
  -30.5023  -12.4750   19.5632 C   0  0  0  0  0  0  0  0  0  0  0  0
  -28.5966  -13.2450   20.9214 C   0  0  0  0  0  0  0  0  0  0  0  0
  -35.8526  -27.9448   19.2077 C   0  0  1  0  0  0  0  0  0  0  0  0
  -33.3576  -25.0830   19.0716 C   0  0  1  0  0  0  0  0  0  0  0  0
  -27.6320  -13.0835   19.7352 C   0  0  2  0  0  0  0  0  0  0  0  0
  -25.7294  -23.7930   19.4582 C   0  0  0  0  0  0  0  0  0  0  0  0
  -34.2933  -19.7552   26.6921 C   0  0  0  0  0  0  0  0  0  0  0  0
  -30.5008  -28.0656   21.1461 C   0  0  0  0  0  0  0  0  0  0  0  0
  -28.1231  -27.3113   21.3592 C   0  0  0  0  0  0  0  0  0  0  0  0
  -29.0078  -28.0293   19.1401 C   0  0  0  0  0  0  0  0  0  0  0  0
  -28.4340  -21.2199   18.7231 C   0  0  0  0  0  0  0  0  0  0  0  0
  -34.6806  -19.8929   24.2083 C   0  0  0  0  0  0  0  0  0  1  0  0
  -29.7536  -25.8193   20.1156 C   0  0  1  0  0  0  0  0  0  0  0  0
  -27.1145  -23.3152   19.0507 C   0  0  2  0  0  0  0  0  0  0  0  0
  -34.0109  -19.1152   25.3392 C   0  0  2  0  0  0  0  0  0  0  0  0
  -29.3677  -27.2887   20.4465 C   0  0  0  0  0  0  0  0  0  0  0  0
  -25.8084  -11.5309   20.3229 N   0  0  0  0  0  0  0  0  0  0  0  0
  -26.2116  -12.8061   20.1906 N   0  0  0  0  0  0  0  0  0  0  0  0
  -32.0759  -25.0339   19.7780 N   0  0  0  0  0  0  0  0  0  0  0  0
  -29.9552  -13.5219   20.4289 N   0  0  0  0  0  0  0  0  0  0  0  0
  -25.4865  -15.0496   20.4178 N   0  0  0  0  0  0  0  0  0  0  0  0
  -21.8425  -12.6531   21.5899 N   0  0  0  0  0  0  0  0  0  0  0  0
  -30.0960  -15.6054   21.5251 N   0  0  0  0  0  0  0  0  0  0  0  0
  -32.5778  -19.0860   25.1256 N   0  0  0  0  0  0  0  0  0  0  0  0
  -34.9931  -26.8486   18.8152 N   0  0  0  0  0  0  0  0  0  0  0  0
  -28.7092  -25.0675   19.4283 N   0  0  0  0  0  0  0  0  0  0  0  0
  -27.1375  -21.8267   19.1204 N   0  3  0  0  0  0  0  0  0  0  0  0
  -22.6625  -14.7756   21.3048 O   0  0  0  0  0  0  0  0  0  0  0  0
  -34.0349  -26.4224   20.8944 O   0  0  0  0  0  0  0  0  0  0  0  0
  -30.9697  -26.2511   18.1254 O   0  0  0  0  0  0  0  0  0  0  0  0
  -28.5272  -23.3812   21.0095 O   0  0  0  0  0  0  0  0  0  0  0  0
  -31.8697  -14.8066   20.2611 O   0  0  0  0  0  0  0  0  0  0  0  0
  -21.4595   -7.0971   21.7287 O   0  0  0  0  0  0  0  0  0  0  0  0
  -34.1662  -21.2229   24.1552 O   0  0  0  0  0  0  0  0  0  1  0  0
  -23.7810   -3.0207   24.6265 F   0  0  0  0  0  0  0  0  0  0  0  0
  -23.7424   -5.8314   20.8182 F   0  0  0  0  0  0  0  0  0  0  0  0
  -28.2221  -17.4715   23.0415 Cl  0  0  0  0  0  0  0  0  0  0  0  0
  1  2  1  0  0  0  0
  1  5  2  0  0  0  0
  2  6  2  0  0  0  0
  3 10  2  0  0  0  0
  3 18  1  0  0  0  0
  4 11  1  0  0  0  0
  4 18  2  0  0  0  0
  5 20  1  0  0  0  0
  6 22  1  0  0  0  0
  7 12  2  0  0  0  0
  7 21  1  0  0  0  0
  8  9  2  0  0  0  0
  8 24  1  0  0  0  0
  9 25  1  0  0  0  0
 10 26  1  0  0  0  0
 11 26  2  0  0  0  0
 12 27  1  0  0  0  0
 13 14  2  0  0  0  0
 13 28  1  0  0  0  0
 14 29  1  0  0  0  0
 15 23  1  0  0  0  0
 15 27  2  0  0  0  0
 16 24  2  0  0  0  0
 16 31  1  0  0  0  0
 17 29  2  0  0  0  0
 17 30  1  0  0  0  0
 18 32  1  0  0  0  0
 19 32  1  0  0  0  0
 19 33  2  0  0  0  0
 19 34  1  0  0  0  0
 20 22  2  0  0  0  0
 20 39  1  0  0  0  0
 21 23  2  0  0  0  0
 21 40  1  0  0  0  0
 22 48  1  0  0  0  0
 23 41  1  0  0  0  0
 24 69  1  0  0  0  0
 25 31  2  0  0  0  0
 25 68  1  0  0  0  0
 26 78  1  0  0  0  0
 27 79  1  0  0  0  0
 28 30  2  0  0  0  0
 28 78  1  0  0  0  0
 29 80  1  0  0  0  0
 30 81  1  0  0  0  0
 31 82  1  0  0  0  0
 32 62  2  0  0  0  0
 33 63  1  0  0  0  0
 33 66  1  0  0  0  0
 34 67  1  0  0  0  0
 34 73  2  0  0  0  0
 35 49  1  0  0  0  0
 35 70  1  0  0  0  0
 35 74  2  0  0  0  0
 36 58  1  0  0  0  0
 36 64  1  0  0  0  0
 36 75  2  0  0  0  0
 37 59  1  0  0  0  0
 37 71  1  0  0  0  0
 37 76  2  0  0  0  0
 38 65  1  0  0  0  0
 38 68  1  0  0  0  0
 38 77  2  0  0  0  0
 39 42  1  0  0  0  0
 40 49  1  0  0  0  0
 41 64  1  0  0  0  0
 42 44  1  0  0  0  0
 43 45  1  0  0  0  0
 43 46  1  0  0  0  0
 44 48  1  0  0  0  0
 45 50  1  0  0  0  0
 46 65  1  0  0  0  0
 47 50  1  0  0  0  0
 47 65  1  0  0  0  0
 48 70  1  0  0  0  0
 49 64  1  0  0  0  0
 50 63  1  0  0  0  0
 51 59  1  0  0  0  0
 52 60  1  0  0  0  0
 53 61  1  0  0  0  0
 54 61  1  0  0  0  0
 55 61  1  0  0  0  0
 56 72  1  0  0  0  0
 57 60  1  0  0  0  0
 57 79  1  0  0  0  0
 58 61  1  0  0  0  0
 58 71  1  0  0  0  0
 59 72  1  0  0  0  0
 60 69  1  0  0  0  0
 62 63  1  0  0  0  0
M  CHG  1  72   1
M  ISO  4  38 100  57 101  68 100  79 101
M  END
> <Batch ID>
0011

> <Smiles>
CNC(C)C(=O)NC(C(=O)N1Cc2cc([101O:1][101CH2:1]C(C)Nc3ccc([100NH:0][100C:0](=O)N4CCCC(n5nc(-c6ccc(Oc7ccc(F)cc7F)cc6)c(C(N)=O)c5N)C4)c(Cl)c3)ccc2CC1C(=O)NC1CCCc2ccccc21)C(C)(C)C

> <Shape>
0.236

> <Color>
0.204

> <Negative vol penalty>
0.000

$$$$

  -OEChem-04052315443D

 83 91  0     1  0  0  0  0  0999 V2000
  -33.2792  -30.6146   22.4627 C   0  0  0  0  0  0  0  0  0  0  0  0
  -32.6428  -29.4971   22.9935 C   0  0  0  0  0  0  0  0  0  0  0  0
  -32.7336  -17.4002   23.5056 C   0  0  0  0  0  0  0  0  0  0  0  0
  -23.0679   -9.9329   19.9132 C   0  0  0  0  0  0  0  0  0  0  0  0
  -23.8572   -9.8703   22.1958 C   0  0  0  0  0  0  0  0  0  0  0  0
  -32.8415  -31.1567   21.2550 C   0  0  0  0  0  0  0  0  0  0  0  0
  -31.5675  -28.9218   22.3174 C   0  0  0  0  0  0  0  0  0  0  0  0
  -31.8679  -23.8700   22.1321 C   0  0  0  0  0  0  0  0  0  0  0  0
  -32.1153  -16.5513   22.5877 C   0  0  0  0  0  0  0  0  0  0  0  0
  -31.9628  -18.2531   24.2958 C   0  0  0  0  0  0  0  0  0  0  0  0
  -22.3228   -8.7756   20.1392 C   0  0  0  0  0  0  0  0  0  0  0  0
  -23.1121   -8.7130   22.4218 C   0  0  0  0  0  0  0  0  0  0  0  0
  -31.5106  -23.1683   23.2827 C   0  0  0  0  0  0  0  0  0  0  0  0
  -21.1338   -5.9452   23.7038 C   0  0  0  0  0  0  0  0  0  0  0  0
  -20.3925   -5.8701   24.8829 C   0  0  0  0  0  0  0  0  0  0  0  0
  -29.3470  -22.7056   22.3214 C   0  0  0  0  0  0  0  0  0  0  0  0
  -19.1462   -7.8323   24.2243 C   0  0  0  0  0  0  0  0  0  0  0  0
  -23.8352  -10.4802   20.9415 C   0  0  0  0  0  0  0  0  0  0  0  0
  -24.1853  -13.0066   20.8906 C   0  0  0  0  0  0  0  0  0  0  0  0
  -31.7664  -30.5818   20.5589 C   0  0  0  0  0  0  0  0  0  0  0  0
  -30.9619  -24.0043   21.0702 C   0  0  0  0  0  0  0  0  0  0  0  0
  -31.1141  -29.4575   21.0999 C   0  0  0  0  0  0  0  0  0  0  0  0
  -29.6961  -23.4073   21.1574 C   0  0  0  0  0  0  0  0  0  0  0  0
  -30.7264  -16.5553   22.4597 C   0  0  0  0  0  0  0  0  0  0  0  0
  -30.5739  -18.2571   24.1678 C   0  0  0  0  0  0  0  0  0  0  0  0
  -22.3448   -8.1656   21.3934 C   0  0  0  0  0  0  0  0  0  0  0  0
  -30.2490  -22.5884   23.3786 C   0  0  0  0  0  0  0  0  0  0  0  0
  -20.8814   -6.9638   22.7849 C   0  0  0  0  0  0  0  0  0  0  0  0
  -29.9556  -17.4082   23.2498 C   0  0  0  0  0  0  0  0  0  0  0  0
  -19.3987   -6.8137   25.1432 C   0  0  0  0  0  0  0  0  0  0  0  0
  -19.8876   -7.9073   23.0451 C   0  0  0  0  0  0  0  0  0  0  0  0
  -24.6055  -11.6754   20.7086 C   0  0  0  0  0  0  0  0  0  0  0  0
  -25.2756  -13.7625   20.5352 C   0  0  0  0  0  0  0  0  0  0  0  0
  -22.9223  -13.5145   21.3408 C   0  0  0  0  0  0  0  0  0  0  0  0
  -29.5328  -26.4553   19.6373 C   0  0  0  0  0  0  0  0  0  0  0  0
  -28.4824  -24.1530   17.6079 C   0  0  0  0  0  0  0  0  0  0  0  0
  -27.7678  -20.8569   17.0862 C   0  0  0  0  0  0  0  0  0  0  0  0
  -30.7476  -14.7832   20.6693 C   0  0  0  0  0  0  0  0  0  0  0  0
  -31.2987  -31.2315   19.2807 C   0  0  0  0  0  0  0  0  0  0  0  0
  -31.3722  -24.7416   19.8251 C   0  0  0  0  0  0  0  0  0  0  0  0
  -28.6943  -23.5052   20.0371 C   0  0  0  0  0  0  0  0  0  0  0  0
  -30.3920  -30.3371   18.4392 C   0  0  0  0  0  0  0  0  0  0  0  0
  -29.5934  -12.4434   18.2464 C   0  0  0  0  0  0  0  0  0  0  0  0
  -29.3250  -29.6855   19.3131 C   0  0  0  0  0  0  0  0  0  0  0  0
  -28.1583  -12.1445   18.6860 C   0  0  0  0  0  0  0  0  0  0  0  0
  -30.5248  -12.6338   19.4423 C   0  0  0  0  0  0  0  0  0  0  0  0
  -28.6386  -13.3245   20.8686 C   0  0  0  0  0  0  0  0  0  0  0  0
  -29.9601  -28.7901   20.3838 C   0  0  1  0  0  0  0  0  0  0  0  0
  -30.1850  -25.2532   19.0150 C   0  0  1  0  0  0  0  0  0  0  0  0
  -27.6501  -13.1890   19.6990 C   0  0  2  0  0  0  0  0  0  0  0  0
  -26.8890  -19.2844   15.3391 C   0  0  0  0  0  0  0  0  0  0  0  0
  -29.3320  -20.3891   26.9489 C   0  0  0  0  0  0  0  0  0  0  0  0
  -25.6505  -25.1642   18.1256 C   0  0  0  0  0  0  0  0  0  0  0  0
  -24.7840  -23.0263   17.1525 C   0  0  0  0  0  0  0  0  0  0  0  0
  -26.1306  -24.5814   15.7414 C   0  0  0  0  0  0  0  0  0  0  0  0
  -30.2849  -19.3005   17.0550 C   0  0  0  0  0  0  0  0  0  0  0  0
  -28.0384  -18.3159   22.1746 C   0  0  0  0  0  0  0  0  0  0  0  0
  -30.9443  -21.2504   25.2177 C   0  0  0  0  0  0  0  0  0  1  0  0
  -27.2786  -23.2437   17.5537 C   0  0  1  0  0  0  0  0  0  0  0  0
  -28.1298  -19.9151   15.9520 C   0  0  2  0  0  0  0  0  0  0  0  0
  -30.4009  -20.0141   25.9309 C   0  0  2  0  0  0  0  0  0  0  0  0
  -25.9789  -24.0035   17.1654 C   0  0  0  0  0  0  0  0  0  0  0  0
  -25.8645  -11.5873   20.2713 N   0  0  0  0  0  0  0  0  0  0  0  0
  -26.2447  -12.8727   20.1755 N   0  0  0  0  0  0  0  0  0  0  0  0
  -29.1403  -24.2418   18.8429 N   0  0  0  0  0  0  0  0  0  0  0  0
  -29.9812  -13.6406   20.3564 N   0  0  0  0  0  0  0  0  0  0  0  0
  -25.4903  -15.0947   20.4982 N   0  0  0  0  0  0  0  0  0  0  0  0
  -21.9113  -12.5994   21.6646 N   0  0  0  0  0  0  0  0  0  0  0  0
  -30.1145  -15.6863   21.5226 N   0  0  0  0  0  0  0  0  0  0  0  0
  -29.8236  -19.1078   24.9585 N   0  0  0  0  0  0  0  0  0  0  0  0
  -30.3820  -27.5323   19.8055 N   0  0  0  0  0  0  0  0  0  0  0  0
  -27.6289  -22.1563   16.6463 N   0  0  0  0  0  0  0  0  0  0  0  0
  -29.0157  -18.8239   16.4475 N   0  3  0  0  0  0  0  0  0  0  0  0
  -22.6917  -14.7437   21.4370 O   0  0  0  0  0  0  0  0  0  0  0  0
  -28.3464  -26.4097   19.9408 O   0  0  0  0  0  0  0  0  0  0  0  0
  -28.8306  -24.7566   16.5900 O   0  0  0  0  0  0  0  0  0  0  0  0
  -27.6193  -20.4773   18.2456 O   0  0  0  0  0  0  0  0  0  0  0  0
  -31.8713  -14.9615   20.1922 O   0  0  0  0  0  0  0  0  0  0  0  0
  -21.6177   -7.0365   21.6143 O   0  0  0  0  0  0  0  0  0  0  0  0
  -28.5965  -17.4122   23.1246 O   0  0  0  0  0  0  0  0  0  0  0  0
  -29.8975  -21.9035   24.5008 O   0  0  0  0  0  0  0  0  0  1  0  0
  -18.6858   -6.7406   26.2748 F   0  0  0  0  0  0  0  0  0  0  0  0
  -19.6397   -8.8875   22.1656 F   0  0  0  0  0  0  0  0  0  0  0  0
  1  2  1  0  0  0  0
  1  6  2  0  0  0  0
  2  7  2  0  0  0  0
  3  9  1  0  0  0  0
  3 10  2  0  0  0  0
  4 11  2  0  0  0  0
  4 18  1  0  0  0  0
  5 12  1  0  0  0  0
  5 18  2  0  0  0  0
  6 20  1  0  0  0  0
  7 22  1  0  0  0  0
  8 13  2  0  0  0  0
  8 21  1  0  0  0  0
  9 24  2  0  0  0  0
 10 25  1  0  0  0  0
 11 26  1  0  0  0  0
 12 26  2  0  0  0  0
 13 27  1  0  0  0  0
 14 15  2  0  0  0  0
 14 28  1  0  0  0  0
 15 30  1  0  0  0  0
 16 23  1  0  0  0  0
 16 27  2  0  0  0  0
 17 30  2  0  0  0  0
 17 31  1  0  0  0  0
 18 32  1  0  0  0  0
 19 32  1  0  0  0  0
 19 33  2  0  0  0  0
 19 34  1  0  0  0  0
 20 22  2  0  0  0  0
 20 39  1  0  0  0  0
 21 23  2  0  0  0  0
 21 40  1  0  0  0  0
 22 48  1  0  0  0  0
 23 41  1  0  0  0  0
 24 29  1  0  0  0  0
 24 69  1  0  0  0  0
 25 29  2  0  0  0  0
 25 70  1  0  0  0  0
 26 79  1  0  0  0  0
 27 81  1  0  0  0  0
 28 31  2  0  0  0  0
 28 79  1  0  0  0  0
 29 80  1  0  0  0  0
 30 82  1  0  0  0  0
 31 83  1  0  0  0  0
 32 63  2  0  0  0  0
 33 64  1  0  0  0  0
 33 67  1  0  0  0  0
 34 68  1  0  0  0  0
 34 74  2  0  0  0  0
 35 49  1  0  0  0  0
 35 71  1  0  0  0  0
 35 75  2  0  0  0  0
 36 59  1  0  0  0  0
 36 65  1  0  0  0  0
 36 76  2  0  0  0  0
 37 60  1  0  0  0  0
 37 72  1  0  0  0  0
 37 77  2  0  0  0  0
 38 66  1  0  0  0  0
 38 69  1  0  0  0  0
 38 78  2  0  0  0  0
 39 42  1  0  0  0  0
 40 49  1  0  0  0  0
 41 65  1  0  0  0  0
 42 44  1  0  0  0  0
 43 45  1  0  0  0  0
 43 46  1  0  0  0  0
 44 48  1  0  0  0  0
 45 50  1  0  0  0  0
 46 66  1  0  0  0  0
 47 50  1  0  0  0  0
 47 66  1  0  0  0  0
 48 71  1  0  0  0  0
 49 65  1  0  0  0  0
 50 64  1  0  0  0  0
 51 60  1  0  0  0  0
 52 61  1  0  0  0  0
 53 62  1  0  0  0  0
 54 62  1  0  0  0  0
 55 62  1  0  0  0  0
 56 73  1  0  0  0  0
 57 80  1  0  0  0  0
 58 61  1  0  0  0  0
 58 81  1  0  0  0  0
 59 62  1  0  0  0  0
 59 72  1  0  0  0  0
 60 73  1  0  0  0  0
 61 70  1  0  0  0  0
 63 64  1  0  0  0  0
M  CHG  1  73   1
M  ISO  4  38 100  58 101  69 100  81 101
M  END
> <Batch ID>
0011

> <Smiles>
CNC(C)C(=O)NC(C(=O)N1Cc2cc([101O:1][101CH2:1]C(C)Nc3cccc([100NH:0][100C:0](=O)N4CCCC(n5nc(-c6ccc(Oc7ccc(F)cc7F)cc6)c(C(N)=O)c5N)C4)c3OC)ccc2CC1C(=O)NC1CCCc2ccccc21)C(C)(C)C

> <Shape>
0.238

> <Color>
0.214

> <Negative vol penalty>
0.000

$$$$

  -OEChem-04052315443D

 87 95  0     1  0  0  0  0  0999 V2000
  -30.2122  -25.0405   16.9619 C   0  0  0  0  0  0  0  0  0  0  0  0
  -28.9871  -24.9547   17.6155 C   0  0  0  0  0  0  0  0  0  0  0  0
  -25.0757  -13.0881   19.8989 C   0  0  0  0  0  0  0  0  0  0  0  0
  -25.5577  -15.0444   21.2323 C   0  0  0  0  0  0  0  0  0  0  0  0
  -18.0394  -22.1736   21.5206 C   0  0  0  0  0  0  0  0  0  0  0  0
  -31.2229  -25.8485   17.4811 C   0  0  0  0  0  0  0  0  0  0  0  0
  -28.7724  -25.6761   18.7893 C   0  0  0  0  0  0  0  0  0  0  0  0
  -24.2704  -27.9942   18.8490 C   0  0  0  0  0  0  0  0  0  0  0  0
  -18.0243  -20.7905   21.3407 C   0  0  0  0  0  0  0  0  0  0  0  0
  -26.3362  -13.1797   19.3087 C   0  0  0  0  0  0  0  0  0  0  0  0
  -26.8183  -15.1359   20.6422 C   0  0  0  0  0  0  0  0  0  0  0  0
  -23.1540  -27.2097   19.1355 C   0  0  0  0  0  0  0  0  0  0  0  0
  -29.5260  -12.3985   20.1135 C   0  0  0  0  0  0  0  0  0  0  0  0
  -30.2693  -11.2250   19.9868 C   0  0  0  0  0  0  0  0  0  0  0  0
  -23.1823  -28.0110   21.4106 C   0  0  0  0  0  0  0  0  0  0  0  0
  -19.8287  -20.5638   22.9313 C   0  0  0  0  0  0  0  0  0  0  0  0
  -30.3106  -11.5102   17.5880 C   0  0  0  0  0  0  0  0  0  0  0  0
  -24.6864  -14.0205   20.8606 C   0  0  0  0  0  0  0  0  0  0  0  0
  -18.9492  -22.7518   22.4059 C   0  0  0  0  0  0  0  0  0  0  0  0
  -23.0404  -13.2168   22.6362 C   0  0  0  0  0  0  0  0  0  0  0  0
  -31.0171  -26.5877   18.6566 C   0  0  0  0  0  0  0  0  0  0  0  0
  -24.8587  -28.7859   19.8457 C   0  0  0  0  0  0  0  0  0  0  0  0
  -29.7817  -26.4937   19.3254 C   0  0  0  0  0  0  0  0  0  0  0  0
  -24.3045  -28.8066   21.1336 C   0  0  0  0  0  0  0  0  0  0  0  0
  -18.9189  -19.9856   22.0460 C   0  0  0  0  0  0  0  0  0  0  0  0
  -19.8438  -21.9469   23.1112 C   0  0  0  0  0  0  0  0  0  0  0  0
  -27.2075  -14.2036   19.6804 C   0  0  0  0  0  0  0  0  0  0  0  0
  -22.6116  -27.2158   20.4172 C   0  0  0  0  0  0  0  0  0  0  0  0
  -29.1750  -13.1279   18.9774 C   0  0  0  0  0  0  0  0  0  0  0  0
  -30.6616  -10.7809   18.7240 C   0  0  0  0  0  0  0  0  0  0  0  0
  -29.5673  -12.6837   17.7147 C   0  0  0  0  0  0  0  0  0  0  0  0
  -23.3841  -13.9267   21.4701 C   0  0  0  0  0  0  0  0  0  0  0  0
  -21.6947  -13.4433   22.7919 C   0  0  0  0  0  0  0  0  0  0  0  0
  -18.9390  -24.2278   22.5748 C   0  0  0  0  0  0  0  0  0  0  0  0
  -23.8640  -12.4237   23.5013 C   0  0  0  0  0  0  0  0  0  0  0  0
  -27.7120  -28.8792   21.2434 C   0  0  0  0  0  0  0  0  0  0  0  0
  -26.5062  -31.5450   22.6440 C   0  0  0  0  0  0  0  0  0  0  0  0
  -23.7556  -33.3098   23.6270 C   0  0  0  0  0  0  0  0  0  0  0  0
  -18.0648  -17.8478   21.0230 C   0  0  0  0  0  0  0  0  0  0  0  0
  -32.1557  -27.4106   19.2053 C   0  0  0  0  0  0  0  0  0  0  0  0
  -26.0464  -29.6470   19.5136 C   0  0  0  0  0  0  0  0  0  0  0  0
  -24.8864  -29.6548   22.2338 C   0  0  0  0  0  0  0  0  0  0  0  0
  -31.7191  -28.4346   20.2498 C   0  0  0  0  0  0  0  0  0  0  0  0
  -17.7384  -14.3847   20.2630 C   0  0  0  0  0  0  0  0  0  0  0  0
  -30.7784  -27.7936   21.2652 C   0  0  0  0  0  0  0  0  0  0  0  0
  -19.1160  -13.8085   20.5982 C   0  0  0  0  0  0  0  0  0  0  0  0
  -17.8407  -15.7836   19.6577 C   0  0  0  0  0  0  0  0  0  0  0  0
  -19.9988  -16.1695   20.7813 C   0  0  0  0  0  0  0  0  0  0  0  0
  -29.5021  -27.2804   20.5876 C   0  0  1  0  0  0  0  0  0  0  0  0
  -26.8749  -30.0205   20.7390 C   0  0  1  0  0  0  0  0  0  0  0  0
  -19.9435  -14.7879   21.4536 C   0  0  2  0  0  0  0  0  0  0  0  0
  -19.8601  -23.0330   26.1957 C   0  0  0  0  0  0  0  0  0  0  0  0
  -23.0087  -22.7698   23.1062 C   0  0  0  0  0  0  0  0  0  0  0  0
  -23.0879  -35.4363   24.7800 C   0  0  0  0  0  0  0  0  0  0  0  0
  -27.2550  -30.3180   25.3354 C   0  0  0  0  0  0  0  0  0  0  0  0
  -25.7472  -31.9860   26.4367 C   0  0  0  0  0  0  0  0  0  0  0  0
  -27.7285  -32.7656   25.1369 C   0  0  0  0  0  0  0  0  0  0  0  0
  -22.3128  -34.2897   21.2360 C   0  0  0  0  0  0  0  0  0  0  0  0
  -20.7588  -22.1395   25.4103 C   0  0  0  0  0  0  0  0  0  0  0  0
  -21.7621  -23.4620   23.5414 C   0  0  0  0  0  0  0  0  0  0  0  0
  -19.2344  -26.4131   21.4375 C   0  0  0  0  0  0  0  0  0  0  0  0
  -20.6357  -26.9303   21.7096 C   0  0  0  0  0  0  0  0  0  1  0  0
  -25.7279  -31.8311   23.9056 C   0  0  1  0  0  0  0  0  0  0  0  0
  -23.3765  -34.7684   23.4446 C   0  0  2  0  0  0  0  0  0  0  0  0
  -26.6046  -31.7076   25.1837 C   0  0  0  0  0  0  0  0  0  0  0  0
  -22.3409  -14.5569   20.9237 N   0  0  0  0  0  0  0  0  0  0  0  0
  -21.3284  -14.2436   21.7501 N   0  0  0  0  0  0  0  0  0  0  0  0
  -26.0512  -30.4745   21.8613 N   0  0  0  0  0  0  0  0  0  0  0  0
  -18.6347  -16.6572   20.5245 N   0  0  0  0  0  0  0  0  0  0  0  0
  -20.8009  -13.0339   23.7170 N   0  0  0  0  0  0  0  0  0  0  0  0
  -25.2257  -12.2959   23.1951 N   0  0  0  0  0  0  0  0  0  0  0  0
  -18.9029  -18.5806   21.8626 N   0  0  0  0  0  0  0  0  0  0  0  0
  -19.1871  -24.9750   21.4302 N   0  0  0  0  0  0  0  0  0  0  0  0
  -28.6003  -28.3780   20.3111 N   0  0  0  0  0  0  0  0  0  0  0  0
  -25.1213  -33.1451   23.7218 N   0  0  0  0  0  0  0  0  0  0  0  0
  -20.7741  -22.5129   24.0112 N   0  0  0  0  0  0  0  0  0  0  0  0
  -22.1620  -34.8848   22.5888 N   0  3  0  0  0  0  0  0  0  0  0  0
  -18.7381  -24.7028   23.6895 O   0  0  0  0  0  0  0  0  0  0  0  0
  -23.4026  -11.8320   24.5065 O   0  0  0  0  0  0  0  0  0  0  0  0
  -27.5640  -28.4836   22.3938 O   0  0  0  0  0  0  0  0  0  0  0  0
  -27.4777  -32.2501   22.3599 O   0  0  0  0  0  0  0  0  0  0  0  0
  -22.9232  -32.4073   23.6837 O   0  0  0  0  0  0  0  0  0  0  0  0
  -16.9083  -18.1781   20.7486 O   0  0  0  0  0  0  0  0  0  0  0  0
  -28.4377  -14.2931   19.1050 O   0  0  0  0  0  0  0  0  0  0  0  0
  -21.5223  -26.4505   20.6996 O   0  0  0  0  0  0  0  0  0  1  0  0
  -31.3767   -9.6548   18.6026 F   0  0  0  0  0  0  0  0  0  0  0  0
  -29.2341  -13.3808   16.6198 F   0  0  0  0  0  0  0  0  0  0  0  0
  1  2  1  0  0  0  0
  1  6  2  0  0  0  0
  2  7  2  0  0  0  0
  3 10  2  0  0  0  0
  3 18  1  0  0  0  0
  4 11  1  0  0  0  0
  4 18  2  0  0  0  0
  5  9  2  0  0  0  0
  5 19  1  0  0  0  0
  6 21  1  0  0  0  0
  7 23  1  0  0  0  0
  8 12  2  0  0  0  0
  8 22  1  0  0  0  0
  9 25  1  0  0  0  0
 10 27  1  0  0  0  0
 11 27  2  0  0  0  0
 12 28  1  0  0  0  0
 13 14  2  0  0  0  0
 13 29  1  0  0  0  0
 14 30  1  0  0  0  0
 15 24  1  0  0  0  0
 15 28  2  0  0  0  0
 16 25  2  0  0  0  0
 16 26  1  0  0  0  0
 17 30  2  0  0  0  0
 17 31  1  0  0  0  0
 18 32  1  0  0  0  0
 19 26  2  0  0  0  0
 19 34  1  0  0  0  0
 20 32  1  0  0  0  0
 20 33  2  0  0  0  0
 20 35  1  0  0  0  0
 21 23  2  0  0  0  0
 21 40  1  0  0  0  0
 22 24  2  0  0  0  0
 22 41  1  0  0  0  0
 23 49  1  0  0  0  0
 24 42  1  0  0  0  0
 25 72  1  0  0  0  0
 26 76  1  0  0  0  0
 27 84  1  0  0  0  0
 28 85  1  0  0  0  0
 29 31  2  0  0  0  0
 29 84  1  0  0  0  0
 30 86  1  0  0  0  0
 31 87  1  0  0  0  0
 32 66  2  0  0  0  0
 33 67  1  0  0  0  0
 33 70  1  0  0  0  0
 34 73  1  0  0  0  0
 34 78  2  0  0  0  0
 35 71  1  0  0  0  0
 35 79  2  0  0  0  0
 36 50  1  0  0  0  0
 36 74  1  0  0  0  0
 36 80  2  0  0  0  0
 37 63  1  0  0  0  0
 37 68  1  0  0  0  0
 37 81  2  0  0  0  0
 38 64  1  0  0  0  0
 38 75  1  0  0  0  0
 38 82  2  0  0  0  0
 39 69  1  0  0  0  0
 39 72  1  0  0  0  0
 39 83  2  0  0  0  0
 40 43  1  0  0  0  0
 41 50  1  0  0  0  0
 42 68  1  0  0  0  0
 43 45  1  0  0  0  0
 44 46  1  0  0  0  0
 44 47  1  0  0  0  0
 45 49  1  0  0  0  0
 46 51  1  0  0  0  0
 47 69  1  0  0  0  0
 48 51  1  0  0  0  0
 48 69  1  0  0  0  0
 49 74  1  0  0  0  0
 50 68  1  0  0  0  0
 51 67  1  0  0  0  0
 52 59  1  0  0  0  0
 53 60  1  0  0  0  0
 54 64  1  0  0  0  0
 55 65  1  0  0  0  0
 56 65  1  0  0  0  0
 57 65  1  0  0  0  0
 58 77  1  0  0  0  0
 59 76  1  0  0  0  0
 60 76  1  0  0  0  0
 61 62  1  0  0  0  0
 61 73  1  0  0  0  0
 62 85  1  0  0  0  0
 63 65  1  0  0  0  0
 63 75  1  0  0  0  0
 64 77  1  0  0  0  0
 66 67  1  0  0  0  0
M  CHG  1  77   1
M  ISO  4  39 100  62 101  72 100  85 101
M  END
> <Batch ID>
0011

> <Smiles>
CCN(CC)c1cc([100NH:0][100C:0](=O)N2CCCC(n3nc(-c4ccc(Oc5ccc(F)cc5F)cc4)c(C(N)=O)c3N)C2)ccc1C(=O)NC[101CH2:1][101O:1]c1ccc2c(c1)CN(C(=O)C(NC(=O)C(C)NC)C(C)(C)C)C(C(=O)NC1CCCc3ccccc31)C2

> <Shape>
0.270

> <Color>
0.067

> <Negative vol penalty>
0.000

$$$$

  -OEChem-04052315443D

 86 94  0     1  0  0  0  0  0999 V2000
  -23.5569  -22.6477   14.6532 C   0  0  0  0  0  0  0  0  0  0  0  0
  -23.5241  -23.4298   15.8033 C   0  0  0  0  0  0  0  0  0  0  0  0
  -28.2542  -14.5070   21.0558 C   0  0  0  0  0  0  0  0  0  0  0  0
  -26.0614  -15.3658   20.5162 C   0  0  0  0  0  0  0  0  0  0  0  0
  -24.6642  -21.8420   14.3908 C   0  0  0  0  0  0  0  0  0  0  0  0
  -24.5981  -23.4057   16.6923 C   0  0  0  0  0  0  0  0  0  0  0  0
  -25.9441  -28.0363   18.2386 C   0  0  0  0  0  0  0  0  0  0  0  0
  -23.1962  -24.7970   22.2620 C   0  0  0  0  0  0  0  0  0  0  0  0
  -23.3491  -25.1751   24.6433 C   0  0  0  0  0  0  0  0  0  0  0  0
  -24.2786  -23.9201   22.3316 C   0  0  0  0  0  0  0  0  0  0  0  0
  -24.4316  -24.2982   24.7130 C   0  0  0  0  0  0  0  0  0  0  0  0
  -27.7783  -13.2034   20.9149 C   0  0  0  0  0  0  0  0  0  0  0  0
  -25.5855  -14.0622   20.3753 C   0  0  0  0  0  0  0  0  0  0  0  0
  -25.1546  -28.6344   19.2198 C   0  0  0  0  0  0  0  0  0  0  0  0
  -24.5930  -11.5403   22.3966 C   0  0  0  0  0  0  0  0  0  0  0  0
  -23.3664  -11.2311   22.9843 C   0  0  0  0  0  0  0  0  0  0  0  0
  -26.7728  -28.0074   20.8954 C   0  0  0  0  0  0  0  0  0  0  0  0
  -22.4751  -10.6463   20.8162 C   0  0  0  0  0  0  0  0  0  0  0  0
  -27.3957  -15.5882   20.8565 C   0  0  0  0  0  0  0  0  0  0  0  0
  -28.4510  -17.7473   20.0008 C   0  0  0  0  0  0  0  0  0  0  0  0
  -25.7565  -21.8154   15.2721 C   0  0  0  0  0  0  0  0  0  0  0  0
  -27.1506  -27.4086   18.5806 C   0  0  0  0  0  0  0  0  0  0  0  0
  -25.7204  -22.5979   16.4421 C   0  0  0  0  0  0  0  0  0  0  0  0
  -27.5770  -27.4043   19.9163 C   0  0  0  0  0  0  0  0  0  0  0  0
  -22.7314  -25.4246   23.4178 C   0  0  0  0  0  0  0  0  0  0  0  0
  -24.8963  -23.6707   23.5572 C   0  0  0  0  0  0  0  0  0  0  0  0
  -26.4440  -12.9810   20.5747 C   0  0  0  0  0  0  0  0  0  0  0  0
  -25.5675  -28.6175   20.5488 C   0  0  0  0  0  0  0  0  0  0  0  0
  -24.7607  -11.4025   21.0187 C   0  0  0  0  0  0  0  0  0  0  0  0
  -22.3074  -10.7841   22.1941 C   0  0  0  0  0  0  0  0  0  0  0  0
  -23.7017  -10.9555   20.2285 C   0  0  0  0  0  0  0  0  0  0  0  0
  -27.8865  -16.9350   21.0025 C   0  0  0  0  0  0  0  0  0  0  0  0
  -28.7529  -18.9236   20.6423 C   0  0  0  0  0  0  0  0  0  0  0  0
  -28.6816  -17.4639   18.6143 C   0  0  0  0  0  0  0  0  0  0  0  0
  -28.2712  -24.4410   18.3785 C   0  0  0  0  0  0  0  0  0  0  0  0
  -31.0220  -25.8262   19.3966 C   0  0  0  0  0  0  0  0  0  0  0  0
  -21.0828  -26.9946   24.4163 C   0  0  0  0  0  0  0  0  0  0  0  0
  -22.6428  -29.2152   22.6073 C   0  0  0  0  0  0  0  0  0  0  0  0
  -32.5292  -28.4097   21.0400 C   0  0  0  0  0  0  0  0  0  0  0  0
  -26.7216  -22.4226   24.7643 C   0  0  0  0  0  0  0  0  0  0  0  0
  -26.9107  -20.8928   14.9701 C   0  0  0  0  0  0  0  0  0  0  0  0
  -28.0037  -26.7913   17.5066 C   0  0  0  0  0  0  0  0  0  0  0  0
  -28.8738  -26.7614   20.3327 C   0  0  0  0  0  0  0  0  0  0  0  0
  -28.1697  -21.2093   15.7732 C   0  0  0  0  0  0  0  0  0  0  0  0
  -29.4684  -20.2366   25.3590 C   0  0  0  0  0  0  0  0  0  0  0  0
  -27.8249  -21.4253   17.2433 C   0  0  0  0  0  0  0  0  0  0  0  0
  -29.3972  -19.2410   24.1989 C   0  0  0  0  0  0  0  0  0  0  0  0
  -28.0778  -20.6424   25.8443 C   0  0  0  0  0  0  0  0  0  0  0  0
  -27.1038  -20.1424   23.6374 C   0  0  0  0  0  0  0  0  0  0  0  0
  -26.8768  -22.6178   17.4181 C   0  0  1  0  0  0  0  0  0  0  0  0
  -28.9625  -25.7315   18.0406 C   0  0  1  0  0  0  0  0  0  0  0  0
  -28.4796  -19.7539   23.0717 C   0  0  2  0  0  0  0  0  0  0  0  0
  -34.7880  -29.2468   21.7431 C   0  0  0  0  0  0  0  0  0  0  0  0
  -31.0921  -23.7515   21.6329 C   0  0  0  0  0  0  0  0  0  0  0  0
  -32.7716  -25.1838   22.8143 C   0  0  0  0  0  0  0  0  0  0  0  0
  -33.3095  -24.2220   20.5764 C   0  0  0  0  0  0  0  0  0  0  0  0
  -32.2335  -30.8888   19.4508 C   0  0  0  0  0  0  0  0  0  0  0  0
  -19.9179  -27.8523   23.9321 C   0  0  0  0  0  0  0  0  0  0  0  0
  -23.3885  -29.2163   21.2899 C   0  0  0  0  0  0  0  0  0  1  0  0
  -20.3271  -29.2581   23.5135 C   0  0  0  0  0  0  0  0  0  0  0  0
  -31.6396  -26.1129   20.7440 C   0  0  1  0  0  0  0  0  0  0  0  0
  -33.7119  -29.2862   20.6692 C   0  0  2  0  0  0  0  0  0  0  0  0
  -32.1778  -24.8281   21.4347 C   0  0  0  0  0  0  0  0  0  0  0  0
  -27.8322  -17.5437   22.1901 N   0  0  0  0  0  0  0  0  0  0  0  0
  -28.3664  -18.7510   21.9388 N   0  0  0  0  0  0  0  0  0  0  0  0
  -29.6699  -26.1656   19.2469 N   0  0  0  0  0  0  0  0  0  0  0  0
  -27.2665  -21.1218   24.7232 N   0  0  0  0  0  0  0  0  0  0  0  0
  -29.3088  -20.0784   20.2182 N   0  0  0  0  0  0  0  0  0  0  0  0
  -28.3117  -16.2061   18.1190 N   0  0  0  0  0  0  0  0  0  0  0  0
  -21.6473  -26.3033   23.3481 N   0  0  0  0  0  0  0  0  0  0  0  0
  -25.9960  -22.7799   23.6283 N   0  0  0  0  0  0  0  0  0  0  0  0
  -27.6064  -23.8632   17.3137 N   0  0  0  0  0  0  0  0  0  0  0  0
  -21.2701  -29.2499   22.4191 N   0  0  0  0  0  0  0  0  0  0  0  0
  -32.6519  -27.1390   20.5189 N   0  0  0  0  0  0  0  0  0  0  0  0
  -33.2742  -30.6999   20.4940 N   0  3  0  0  0  0  0  0  0  0  0  0
  -29.2154  -18.2954   17.8415 O   0  0  0  0  0  0  0  0  0  0  0  0
  -28.3373  -24.0011   19.5204 O   0  0  0  0  0  0  0  0  0  0  0  0
  -31.7156  -25.3263   18.5074 O   0  0  0  0  0  0  0  0  0  0  0  0
  -21.4150  -26.9588   25.5961 O   0  0  0  0  0  0  0  0  0  0  0  0
  -23.2141  -29.1879   23.6940 O   0  0  0  0  0  0  0  0  0  0  0  0
  -31.5921  -28.8110   21.7265 O   0  0  0  0  0  0  0  0  0  0  0  0
  -26.9093  -23.1749   25.7239 O   0  0  0  0  0  0  0  0  0  0  0  0
  -25.9793  -11.7091   20.4369 O   0  0  0  0  0  0  0  0  0  0  0  0
  -24.7985  -29.2001   21.5086 O   0  0  0  0  0  0  0  0  0  1  0  0
  -21.1300  -10.4858   22.7588 F   0  0  0  0  0  0  0  0  0  0  0  0
  -23.8571  -10.8200   18.9044 F   0  0  0  0  0  0  0  0  0  0  0  0
  1  2  1  0  0  0  0
  1  5  2  0  0  0  0
  2  6  2  0  0  0  0
  3 12  2  0  0  0  0
  3 19  1  0  0  0  0
  4 13  1  0  0  0  0
  4 19  2  0  0  0  0
  5 21  1  0  0  0  0
  6 23  1  0  0  0  0
  7 14  2  0  0  0  0
  7 22  1  0  0  0  0
  8 10  2  0  0  0  0
  8 25  1  0  0  0  0
  9 11  1  0  0  0  0
  9 25  2  0  0  0  0
 10 26  1  0  0  0  0
 11 26  2  0  0  0  0
 12 27  1  0  0  0  0
 13 27  2  0  0  0  0
 14 28  1  0  0  0  0
 15 16  2  0  0  0  0
 15 29  1  0  0  0  0
 16 30  1  0  0  0  0
 17 24  1  0  0  0  0
 17 28  2  0  0  0  0
 18 30  2  0  0  0  0
 18 31  1  0  0  0  0
 19 32  1  0  0  0  0
 20 32  1  0  0  0  0
 20 33  2  0  0  0  0
 20 34  1  0  0  0  0
 21 23  2  0  0  0  0
 21 41  1  0  0  0  0
 22 24  2  0  0  0  0
 22 42  1  0  0  0  0
 23 50  1  0  0  0  0
 24 43  1  0  0  0  0
 25 70  1  0  0  0  0
 26 71  1  0  0  0  0
 27 83  1  0  0  0  0
 28 84  1  0  0  0  0
 29 31  2  0  0  0  0
 29 83  1  0  0  0  0
 30 85  1  0  0  0  0
 31 86  1  0  0  0  0
 32 64  2  0  0  0  0
 33 65  1  0  0  0  0
 33 68  1  0  0  0  0
 34 69  1  0  0  0  0
 34 76  2  0  0  0  0
 35 51  1  0  0  0  0
 35 72  1  0  0  0  0
 35 77  2  0  0  0  0
 36 61  1  0  0  0  0
 36 66  1  0  0  0  0
 36 78  2  0  0  0  0
 37 58  1  0  0  0  0
 37 70  1  0  0  0  0
 37 79  2  0  0  0  0
 38 59  1  0  0  0  0
 38 73  1  0  0  0  0
 38 80  2  0  0  0  0
 39 62  1  0  0  0  0
 39 74  1  0  0  0  0
 39 81  2  0  0  0  0
 40 67  1  0  0  0  0
 40 71  1  0  0  0  0
 40 82  2  0  0  0  0
 41 44  1  0  0  0  0
 42 51  1  0  0  0  0
 43 66  1  0  0  0  0
 44 46  1  0  0  0  0
 45 47  1  0  0  0  0
 45 48  1  0  0  0  0
 46 50  1  0  0  0  0
 47 52  1  0  0  0  0
 48 67  1  0  0  0  0
 49 52  1  0  0  0  0
 49 67  1  0  0  0  0
 50 72  1  0  0  0  0
 51 66  1  0  0  0  0
 52 65  1  0  0  0  0
 53 62  1  0  0  0  0
 54 63  1  0  0  0  0
 55 63  1  0  0  0  0
 56 63  1  0  0  0  0
 57 75  1  0  0  0  0
 58 60  1  0  0  0  0
 59 84  1  0  0  0  0
 60 73  1  0  0  0  0
 61 63  1  0  0  0  0
 61 74  1  0  0  0  0
 62 75  1  0  0  0  0
 64 65  1  0  0  0  0
M  CHG  1  75   1
M  ISO  4  40 100  59 101  71 100  84 101
M  END
> <Batch ID>
0011

> <Smiles>
CNC(C)C(=O)NC(C(=O)N1Cc2cc([101O:1][101CH2:1]C(=O)NCCC(=O)Nc3ccc([100NH:0][100C:0](=O)N4CCCC(n5nc(-c6ccc(Oc7ccc(F)cc7F)cc6)c(C(N)=O)c5N)C4)cc3)ccc2CC1C(=O)NC1CCCc2ccccc21)C(C)(C)C

> <Shape>
0.203

> <Color>
0.084

> <Negative vol penalty>
0.000

$$$$

  -OEChem-04052315443D

 93100  0     1  0  0  0  0  0999 V2000
  -31.6201  -24.7231   16.2748 C   0  0  0  0  0  0  0  0  0  0  0  0
  -30.4684  -24.3669   16.9690 C   0  0  0  0  0  0  0  0  0  0  0  0
  -30.7744  -18.5608   19.8836 C   0  0  0  0  0  0  0  0  0  0  0  0
  -29.0432  -17.6499   21.3014 C   0  0  0  0  0  0  0  0  0  0  0  0
  -32.4223  -25.7624   16.7442 C   0  0  0  0  0  0  0  0  0  0  0  0
  -30.1187  -25.0492   18.1338 C   0  0  0  0  0  0  0  0  0  0  0  0
  -25.1971  -26.2316   18.2895 C   0  0  0  0  0  0  0  0  0  0  0  0
  -31.2903  -17.2794   19.6902 C   0  0  0  0  0  0  0  0  0  0  0  0
  -29.5591  -16.3684   21.1080 C   0  0  0  0  0  0  0  0  0  0  0  0
  -24.3078  -25.2126   18.6281 C   0  0  0  0  0  0  0  0  0  0  0  0
  -29.4732  -13.9859   18.7129 C   0  0  0  0  0  0  0  0  0  0  0  0
  -28.5694  -12.9597   18.4380 C   0  0  0  0  0  0  0  0  0  0  0  0
  -24.2039  -26.0609   20.8839 C   0  0  0  0  0  0  0  0  0  0  0  0
  -29.2976  -11.7871   20.4208 C   0  0  0  0  0  0  0  0  0  0  0  0
  -29.6509  -18.7461   20.6893 C   0  0  0  0  0  0  0  0  0  0  0  0
  -28.1397  -20.7189   20.1131 C   0  0  0  0  0  0  0  0  0  0  0  0
  -32.0772  -26.4641   17.9100 C   0  0  0  0  0  0  0  0  0  0  0  0
  -25.6056  -27.1681   19.2501 C   0  0  0  0  0  0  0  0  0  0  0  0
  -30.9178  -26.0979   18.6200 C   0  0  0  0  0  0  0  0  0  0  0  0
  -25.0964  -27.0924   20.5544 C   0  0  0  0  0  0  0  0  0  0  0  0
  -30.6827  -16.1832   20.3024 C   0  0  0  0  0  0  0  0  0  0  0  0
  -23.8133  -25.1254   19.9261 C   0  0  0  0  0  0  0  0  0  0  0  0
  -30.2894  -13.9126   19.8417 C   0  0  0  0  0  0  0  0  0  0  0  0
  -28.4815  -11.8603   19.2919 C   0  0  0  0  0  0  0  0  0  0  0  0
  -30.2015  -12.8133   20.6957 C   0  0  0  0  0  0  0  0  0  0  0  0
  -29.1179  -20.0696   20.8899 C   0  0  0  0  0  0  0  0  0  0  0  0
  -27.9839  -21.9450   20.7120 C   0  0  0  0  0  0  0  0  0  0  0  0
  -27.4350  -20.2551   18.9538 C   0  0  0  0  0  0  0  0  0  0  0  0
  -28.3900  -27.9758   20.5532 C   0  0  0  0  0  0  0  0  0  0  0  0
  -26.6207  -30.3168   21.9357 C   0  0  0  0  0  0  0  0  0  0  0  0
  -19.9732  -21.1136   29.2566 C   0  0  0  0  0  0  0  0  0  0  0  0
  -24.3302  -23.6074   26.3627 C   0  0  0  0  0  0  0  0  0  0  0  0
  -23.5554  -31.4041   22.9694 C   0  0  0  0  0  0  0  0  0  0  0  0
  -27.9722  -24.3859   25.9614 C   0  0  0  0  0  0  0  0  0  0  0  0
  -33.0008  -27.5490   18.4046 C   0  0  0  0  0  0  0  0  0  0  0  0
  -26.5446  -28.2771   18.8621 C   0  0  0  0  0  0  0  0  0  0  0  0
  -25.4880  -28.0850   21.6173 C   0  0  0  0  0  0  0  0  0  0  0  0
  -32.3601  -28.4687   19.4409 C   0  0  0  0  0  0  0  0  0  0  0  0
  -30.7360  -24.7179   23.7416 C   0  0  0  0  0  0  0  0  0  0  0  0
  -31.6264  -27.6511   20.4992 C   0  0  0  0  0  0  0  0  0  0  0  0
  -30.5096  -23.6135   22.7078 C   0  0  0  0  0  0  0  0  0  0  0  0
  -30.3067  -24.2788   25.1398 C   0  0  0  0  0  0  0  0  0  0  0  0
  -28.6990  -22.6655   24.1983 C   0  0  0  0  0  0  0  0  0  0  0  0
  -30.4919  -26.8305   19.8738 C   0  0  1  0  0  0  0  0  0  0  0  0
  -27.2921  -28.8709   20.0521 C   0  0  1  0  0  0  0  0  0  0  0  0
  -29.0650  -23.0811   22.7632 C   0  0  2  0  0  0  0  0  0  0  0  0
  -22.4305  -33.3424   24.0986 C   0  0  0  0  0  0  0  0  0  0  0  0
  -27.7107  -29.3786   24.6268 C   0  0  0  0  0  0  0  0  0  0  0  0
  -25.8782  -30.6706   25.7408 C   0  0  0  0  0  0  0  0  0  0  0  0
  -27.5818  -31.8620   24.3620 C   0  0  0  0  0  0  0  0  0  0  0  0
  -21.8584  -31.9457   20.6060 C   0  0  0  0  0  0  0  0  0  0  0  0
  -22.1192  -16.1331   26.0598 C   0  0  0  0  0  0  0  0  0  0  0  0
  -19.2083  -22.2964   28.6857 C   0  0  0  0  0  0  0  0  0  0  0  0
  -25.5950  -24.3787   26.6744 C   0  0  0  0  0  0  0  0  0  0  0  0
  -19.8113  -22.8566   27.3979 C   0  0  0  0  0  0  0  0  0  0  0  0
  -22.1942  -20.1600   23.0721 C   0  0  0  0  0  0  0  0  0  0  0  0
  -22.5772  -21.6417   23.0568 C   0  0  0  0  0  0  0  0  0  0  0  0
  -21.2460  -23.3608   27.5984 C   0  0  0  0  0  0  0  0  0  0  0  0
  -22.1868  -19.6043   24.4991 C   0  0  0  0  0  0  0  0  0  0  0  0
  -22.5535  -22.2072   21.6383 C   0  0  0  0  0  0  0  0  0  0  0  0
  -21.1901  -18.2132   28.2460 C   0  0  0  0  0  0  0  0  0  0  0  0
  -21.8583  -23.9078   26.3125 C   0  0  0  0  0  0  0  0  0  0  0  0
  -20.0366  -18.6295   29.1551 C   0  0  0  0  0  0  0  0  0  0  0  0
  -21.8856  -18.1122   24.5668 C   0  0  0  0  0  0  0  0  0  0  0  0
  -20.7622  -18.0898   26.7890 C   0  0  0  0  0  0  0  0  0  0  0  0
  -22.9745  -23.6697   21.6094 C   0  0  0  0  0  0  0  0  0  1  0  0
  -25.8300  -30.4448   23.2153 C   0  0  1  0  0  0  0  0  0  0  0  0
  -22.8349  -32.7251   22.7688 C   0  0  2  0  0  0  0  0  0  0  0  0
  -26.7441  -30.5690   24.4669 C   0  0  0  0  0  0  0  0  0  0  0  0
  -29.5528  -20.8211   21.9048 N   0  0  0  0  0  0  0  0  0  0  0  0
  -28.8448  -21.9554   21.7697 N   0  0  0  0  0  0  0  0  0  0  0  0
  -26.4136  -29.1473   21.1906 N   0  0  0  0  0  0  0  0  0  0  0  0
  -28.9271  -23.7864   25.1237 N   0  0  0  0  0  0  0  0  0  0  0  0
  -27.1958  -23.0046   20.4317 N   0  0  0  0  0  0  0  0  0  0  0  0
  -27.7165  -18.9699   18.4705 N   0  0  0  0  0  0  0  0  0  0  0  0
  -29.3475  -27.6742   19.6035 N   0  0  0  0  0  0  0  0  0  0  0  0
  -19.5001  -19.9088   28.7556 N   0  0  0  0  0  0  0  0  0  0  0  0
  -23.1943  -24.3993   26.5062 N   0  0  0  0  0  0  0  0  0  0  0  0
  -24.9230  -31.5713   23.0237 N   0  0  0  0  0  0  0  0  0  0  0  0
  -26.6874  -23.8631   25.8796 N   0  0  0  0  0  0  0  0  0  0  0  0
  -21.6056  -32.5255   21.9502 N   0  3  0  0  0  0  0  0  0  0  0  0
  -21.9418  -17.6295   25.9666 N   0  3  1  0  0  0  0  0  0  0  0  0
  -26.5929  -20.9656   18.3542 O   0  0  0  0  0  0  0  0  0  0  0  0
  -28.3708  -27.5887   21.7157 O   0  0  0  0  0  0  0  0  0  0  0  0
  -27.3883  -31.2243   21.6058 O   0  0  0  0  0  0  0  0  0  0  0  0
  -20.8798  -21.2296   30.0768 O   0  0  0  0  0  0  0  0  0  0  0  0
  -24.3243  -22.4171   26.0593 O   0  0  0  0  0  0  0  0  0  0  0  0
  -22.9640  -30.3315   23.0717 O   0  0  0  0  0  0  0  0  0  0  0  0
  -28.2432  -25.3215   26.7217 O   0  0  0  0  0  0  0  0  0  0  0  0
  -31.1857  -14.9326   20.1137 O   0  0  0  0  0  0  0  0  0  0  0  0
  -22.9457  -24.1314   20.2594 O   0  0  0  0  0  0  0  0  0  1  0  0
  -27.6124  -10.8757   19.0287 F   0  0  0  0  0  0  0  0  0  0  0  0
  -30.9821  -12.7379   21.7824 F   0  0  0  0  0  0  0  0  0  0  0  0
  1  2  1  0  0  0  0
  1  5  2  0  0  0  0
  2  6  2  0  0  0  0
  3  8  2  0  0  0  0
  3 15  1  0  0  0  0
  4  9  1  0  0  0  0
  4 15  2  0  0  0  0
  5 17  1  0  0  0  0
  6 19  1  0  0  0  0
  7 10  2  0  0  0  0
  7 18  1  0  0  0  0
  8 21  1  0  0  0  0
  9 21  2  0  0  0  0
 10 22  1  0  0  0  0
 11 12  2  0  0  0  0
 11 23  1  0  0  0  0
 12 24  1  0  0  0  0
 13 20  1  0  0  0  0
 13 22  2  0  0  0  0
 14 24  2  0  0  0  0
 14 25  1  0  0  0  0
 15 26  1  0  0  0  0
 16 26  1  0  0  0  0
 16 27  2  0  0  0  0
 16 28  1  0  0  0  0
 17 19  2  0  0  0  0
 17 35  1  0  0  0  0
 18 20  2  0  0  0  0
 18 36  1  0  0  0  0
 19 44  1  0  0  0  0
 20 37  1  0  0  0  0
 21 90  1  0  0  0  0
 22 91  1  0  0  0  0
 23 25  2  0  0  0  0
 23 90  1  0  0  0  0
 24 92  1  0  0  0  0
 25 93  1  0  0  0  0
 26 70  2  0  0  0  0
 27 71  1  0  0  0  0
 27 74  1  0  0  0  0
 28 75  1  0  0  0  0
 28 83  2  0  0  0  0
 29 45  1  0  0  0  0
 29 76  1  0  0  0  0
 29 84  2  0  0  0  0
 30 67  1  0  0  0  0
 30 72  1  0  0  0  0
 30 85  2  0  0  0  0
 31 53  1  0  0  0  0
 31 77  1  0  0  0  0
 31 86  2  0  0  0  0
 32 54  1  0  0  0  0
 32 78  1  0  0  0  0
 32 87  2  0  0  0  0
 33 68  1  0  0  0  0
 33 79  1  0  0  0  0
 33 88  2  0  0  0  0
 34 73  1  0  0  0  0
 34 80  1  0  0  0  0
 34 89  2  0  0  0  0
 35 38  1  0  0  0  0
 36 45  1  0  0  0  0
 37 72  1  0  0  0  0
 38 40  1  0  0  0  0
 39 41  1  0  0  0  0
 39 42  1  0  0  0  0
 40 44  1  0  0  0  0
 41 46  1  0  0  0  0
 42 73  1  0  0  0  0
 43 46  1  0  0  0  0
 43 73  1  0  0  0  0
 44 76  1  0  0  0  0
 45 72  1  0  0  0  0
 46 71  1  0  0  0  0
 47 68  1  0  0  0  0
 48 69  1  0  0  0  0
 49 69  1  0  0  0  0
 50 69  1  0  0  0  0
 51 81  1  0  0  0  0
 52 82  1  0  0  0  0
 53 55  1  0  0  0  0
 54 80  1  0  0  0  0
 55 58  1  0  0  0  0
 56 57  1  0  0  0  0
 56 59  1  0  0  0  0
 57 60  1  0  0  0  0
 58 62  1  0  0  0  0
 59 64  1  0  0  0  0
 60 66  1  0  0  0  0
 61 63  1  0  0  0  0
 61 65  1  0  0  0  0
 62 78  1  0  0  0  0
 63 77  1  0  0  0  0
 64 82  1  0  0  0  0
 65 82  1  0  0  0  0
 66 91  1  0  0  0  0
 67 69  1  0  0  0  0
 67 79  1  0  0  0  0
 68 81  1  0  0  0  0
 70 71  1  0  0  0  0
M  CHG  2  81   1  82   1
M  ISO  4  34 100  66 101  80 100  91 101
M  END
> <Batch ID>
0011

> <Smiles>
CNC(C)C(=O)NC(C(=O)N1Cc2cc([101O:1][101CH2:1]CCCCCN(C)CCCNC(=O)CCCCNC(=O)C[100NH:0][100C:0](=O)N3CCCC(n4nc(-c5ccc(Oc6ccc(F)cc6F)cc5)c(C(N)=O)c4N)C3)ccc2CC1C(=O)NC1CCCc2ccccc21)C(C)(C)C

> <Shape>
0.240

> <Color>
0.052

> <Negative vol penalty>
0.000

$$$$

  -OEChem-04052315443D

 84 92  0     1  0  0  0  0  0999 V2000
  -32.3258  -28.0269   15.1303 C   0  0  0  0  0  0  0  0  0  0  0  0
  -31.7580  -27.2078   16.1009 C   0  0  0  0  0  0  0  0  0  0  0  0
  -24.0161  -17.7552   18.3389 C   0  0  0  0  0  0  0  0  0  0  0  0
  -22.7561  -15.8068   19.0119 C   0  0  0  0  0  0  0  0  0  0  0  0
  -32.3918  -29.4046   15.3342 C   0  0  0  0  0  0  0  0  0  0  0  0
  -31.2567  -27.7658   17.2764 C   0  0  0  0  0  0  0  0  0  0  0  0
  -26.7363  -25.8728   18.5521 C   0  0  0  0  0  0  0  0  0  0  0  0
  -23.2036  -17.8920   17.2135 C   0  0  0  0  0  0  0  0  0  0  0  0
  -21.9436  -15.9435   17.8865 C   0  0  0  0  0  0  0  0  0  0  0  0
  -26.7192  -24.6139   19.1509 C   0  0  0  0  0  0  0  0  0  0  0  0
  -22.1229  -15.2413   14.5841 C   0  0  0  0  0  0  0  0  0  0  0  0
  -21.8358  -14.0915   13.8485 C   0  0  0  0  0  0  0  0  0  0  0  0
  -26.4820  -25.6531   21.3149 C   0  0  0  0  0  0  0  0  0  0  0  0
  -29.1879  -18.9991   22.8349 C   0  0  0  0  0  0  0  0  0  0  0  0
  -30.5255  -16.9937   22.6731 C   0  0  0  0  0  0  0  0  0  0  0  0
  -19.4778  -14.4143   14.2644 C   0  0  0  0  0  0  0  0  0  0  0  0
  -23.7924  -16.7126   19.2382 C   0  0  0  0  0  0  0  0  0  0  0  0
  -24.4278  -17.1411   21.6714 C   0  0  0  0  0  0  0  0  0  0  0  0
  -31.8824  -29.9809   16.5085 C   0  0  0  0  0  0  0  0  0  0  0  0
  -26.6372  -27.0336   19.3325 C   0  0  0  0  0  0  0  0  0  0  0  0
  -31.3172  -29.1523   17.4967 C   0  0  0  0  0  0  0  0  0  0  0  0
  -26.4955  -26.9255   20.7233 C   0  0  0  0  0  0  0  0  0  0  0  0
  -29.9346  -18.2161   20.6747 C   0  0  0  0  0  0  0  0  0  0  0  0
  -29.2399  -19.1456   21.4487 C   0  0  0  0  0  0  0  0  0  0  0  0
  -30.5774  -17.1402   21.2869 C   0  0  0  0  0  0  0  0  0  0  0  0
  -22.1673  -16.9861   16.9872 C   0  0  0  0  0  0  0  0  0  0  0  0
  -26.5949  -24.5040   20.5328 C   0  0  0  0  0  0  0  0  0  0  0  0
  -21.0875  -15.9776   15.1599 C   0  0  0  0  0  0  0  0  0  0  0  0
  -20.5133  -13.6780   13.6886 C   0  0  0  0  0  0  0  0  0  0  0  0
  -19.7649  -15.5641   15.0000 C   0  0  0  0  0  0  0  0  0  0  0  0
  -29.8308  -17.9232   23.4471 C   0  0  0  0  0  0  0  0  0  0  0  0
  -24.6318  -16.5705   20.4007 C   0  0  0  0  0  0  0  0  0  0  0  0
  -25.4959  -16.7072   22.4180 C   0  0  0  0  0  0  0  0  0  0  0  0
  -23.3676  -17.9874   22.1353 C   0  0  0  0  0  0  0  0  0  0  0  0
  -28.5178  -29.5376   19.8775 C   0  0  0  0  0  0  0  0  0  0  0  0
  -25.9383  -30.6254   21.5162 C   0  0  0  0  0  0  0  0  0  0  0  0
  -27.8535  -21.2458   21.4834 C   0  0  0  0  0  0  0  0  0  0  0  0
  -23.0588  -29.9018   23.1989 C   0  0  0  0  0  0  0  0  0  0  0  0
  -30.9828  -14.7968   20.4898 C   0  0  0  0  0  0  0  0  0  0  0  0
  -32.0189  -31.4700   16.7048 C   0  0  0  0  0  0  0  0  0  0  0  0
  -26.6303  -28.3834   18.6688 C   0  0  0  0  0  0  0  0  0  0  0  0
  -26.3653  -28.1404   21.6040 C   0  0  0  0  0  0  0  0  0  0  0  0
  -31.1265  -32.0226   17.8132 C   0  0  0  0  0  0  0  0  0  0  0  0
  -28.6225  -13.1106   22.7874 C   0  0  0  0  0  0  0  0  0  0  0  0
  -31.2224  -31.1500   19.0607 C   0  0  0  0  0  0  0  0  0  0  0  0
  -27.2960  -13.8025   22.4789 C   0  0  0  0  0  0  0  0  0  0  0  0
  -29.5497  -13.0977   21.5758 C   0  0  0  0  0  0  0  0  0  0  0  0
  -28.4739  -15.1492   20.6955 C   0  0  0  0  0  0  0  0  0  0  0  0
  -30.7402  -29.7228   18.7741 C   0  0  1  0  0  0  0  0  0  0  0  0
  -27.0398  -29.5133   19.6084 C   0  0  1  0  0  0  0  0  0  0  0  0
  -27.5380  -15.2111   21.9119 C   0  0  1  0  0  0  0  0  0  0  0  0
  -29.9894  -18.3739   19.1868 C   0  0  0  0  0  0  0  0  0  0  0  0
  -21.1849  -30.9971   24.4584 C   0  0  0  0  0  0  0  0  0  0  0  0
  -27.7857  -31.0264   23.9112 C   0  0  0  0  0  0  0  0  0  0  0  0
  -25.7527  -31.1962   25.3625 C   0  0  0  0  0  0  0  0  0  0  0  0
  -26.1319  -32.8672   23.5496 C   0  0  0  0  0  0  0  0  0  0  0  0
  -32.5747  -16.5762   19.9145 C   0  0  0  0  0  0  0  0  0  0  0  0
  -21.0332  -28.8965   21.2897 C   0  0  0  0  0  0  0  0  0  0  0  0
  -27.3091  -22.2363   20.4710 C   0  0  0  0  0  0  0  0  0  1  0  0
  -25.4499  -30.5103   22.9399 C   0  0  1  0  0  0  0  0  0  0  0  0
  -21.6628  -30.4910   23.1063 C   0  0  2  0  0  0  0  0  0  0  0  0
  -26.2844  -31.3770   23.9247 C   0  0  0  0  0  0  0  0  0  0  0  0
  -25.7423  -15.8308   20.3398 N   0  0  0  0  0  0  0  0  0  0  0  0
  -26.2457  -15.9336   21.5816 N   0  0  0  0  0  0  0  0  0  0  0  0
  -26.3702  -29.4380   20.9085 N   0  0  0  0  0  0  0  0  0  0  0  0
  -29.7229  -14.4367   21.0105 N   0  0  0  0  0  0  0  0  0  0  0  0
  -25.8575  -16.9159   23.7018 N   0  0  0  0  0  0  0  0  0  0  0  0
  -22.3497  -18.3364   21.2373 N   0  0  0  0  0  0  0  0  0  0  0  0
  -28.5803  -20.2444   20.8486 N   0  0  0  0  0  0  0  0  0  0  0  0
  -29.2942  -29.6747   18.7426 N   0  0  0  0  0  0  0  0  0  0  0  0
  -24.0287  -30.8389   22.9117 N   0  0  0  0  0  0  0  0  0  0  0  0
  -31.3027  -16.1678   20.5063 N   0  0  0  0  0  0  0  0  0  0  0  0
  -20.6982  -29.4637   22.6213 N   0  3  0  0  0  0  0  0  0  0  0  0
  -23.3328  -18.4348   23.3067 O   0  0  0  0  0  0  0  0  0  0  0  0
  -28.9238  -29.4406   21.0297 O   0  0  0  0  0  0  0  0  0  0  0  0
  -25.9301  -31.7270   20.9612 O   0  0  0  0  0  0  0  0  0  0  0  0
  -27.6416  -21.3730   22.6849 O   0  0  0  0  0  0  0  0  0  0  0  0
  -23.2681  -28.7287   23.4998 O   0  0  0  0  0  0  0  0  0  0  0  0
  -31.7483  -13.9616   19.9926 O   0  0  0  0  0  0  0  0  0  0  0  0
  -21.3741  -17.1194   15.8892 O   0  0  0  0  0  0  0  0  0  0  0  0
  -26.5786  -23.2764   21.1199 O   0  0  0  0  0  0  0  0  0  1  0  0
  -20.2376  -12.5747   12.9809 F   0  0  0  0  0  0  0  0  0  0  0  0
  -18.7659  -16.2680   15.5498 F   0  0  0  0  0  0  0  0  0  0  0  0
  -29.7696  -17.7453   25.1579 Cl  0  0  0  0  0  0  0  0  0  0  0  0
  1  2  1  0  0  0  0
  1  5  2  0  0  0  0
  2  6  2  0  0  0  0
  3  8  2  0  0  0  0
  3 17  1  0  0  0  0
  4  9  1  0  0  0  0
  4 17  2  0  0  0  0
  5 19  1  0  0  0  0
  6 21  1  0  0  0  0
  7 10  2  0  0  0  0
  7 20  1  0  0  0  0
  8 26  1  0  0  0  0
  9 26  2  0  0  0  0
 10 27  1  0  0  0  0
 11 12  2  0  0  0  0
 11 28  1  0  0  0  0
 12 29  1  0  0  0  0
 13 22  1  0  0  0  0
 13 27  2  0  0  0  0
 14 24  1  0  0  0  0
 14 31  2  0  0  0  0
 15 25  2  0  0  0  0
 15 31  1  0  0  0  0
 16 29  2  0  0  0  0
 16 30  1  0  0  0  0
 17 32  1  0  0  0  0
 18 32  1  0  0  0  0
 18 33  2  0  0  0  0
 18 34  1  0  0  0  0
 19 21  2  0  0  0  0
 19 40  1  0  0  0  0
 20 22  2  0  0  0  0
 20 41  1  0  0  0  0
 21 49  1  0  0  0  0
 22 42  1  0  0  0  0
 23 24  2  0  0  0  0
 23 25  1  0  0  0  0
 23 52  1  0  0  0  0
 24 69  1  0  0  0  0
 25 72  1  0  0  0  0
 26 80  1  0  0  0  0
 27 81  1  0  0  0  0
 28 30  2  0  0  0  0
 28 80  1  0  0  0  0
 29 82  1  0  0  0  0
 30 83  1  0  0  0  0
 31 84  1  0  0  0  0
 32 63  2  0  0  0  0
 33 64  1  0  0  0  0
 33 67  1  0  0  0  0
 34 68  1  0  0  0  0
 34 74  2  0  0  0  0
 35 50  1  0  0  0  0
 35 70  1  0  0  0  0
 35 75  2  0  0  0  0
 36 60  1  0  0  0  0
 36 65  1  0  0  0  0
 36 76  2  0  0  0  0
 37 59  1  0  0  0  0
 37 69  1  0  0  0  0
 37 77  2  0  0  0  0
 38 61  1  0  0  0  0
 38 71  1  0  0  0  0
 38 78  2  0  0  0  0
 39 66  1  0  0  0  0
 39 72  1  0  0  0  0
 39 79  2  0  0  0  0
 40 43  1  0  0  0  0
 41 50  1  0  0  0  0
 42 65  1  0  0  0  0
 43 45  1  0  0  0  0
 44 46  1  0  0  0  0
 44 47  1  0  0  0  0
 45 49  1  0  0  0  0
 46 51  1  0  0  0  0
 47 66  1  0  0  0  0
 48 51  1  0  0  0  0
 48 66  1  0  0  0  0
 49 70  1  0  0  0  0
 50 65  1  0  0  0  0
 51 64  1  0  0  0  0
 53 61  1  0  0  0  0
 54 62  1  0  0  0  0
 55 62  1  0  0  0  0
 56 62  1  0  0  0  0
 57 72  1  0  0  0  0
 58 73  1  0  0  0  0
 59 81  1  0  0  0  0
 60 62  1  0  0  0  0
 60 71  1  0  0  0  0
 61 73  1  0  0  0  0
 63 64  1  0  0  0  0
M  CHG  1  73   1
M  ISO  4  39 100  59 101  72 100  81 101
M  END
> <Batch ID>
0011

> <Smiles>
CNC(C)C(=O)NC(C(=O)N1Cc2cc([101O:1][101CH2:1]C(=O)Nc3cc(Cl)cc([100N:0](C)[100C:0](=O)N4CCCC(n5nc(-c6ccc(Oc7ccc(F)cc7F)cc6)c(C(N)=O)c5N)C4)c3C)ccc2CC1C(=O)NC1CCCc2ccccc21)C(C)(C)C

> <Shape>
0.196

> <Color>
0.071

> <Negative vol penalty>
0.000

$$$$

  -OEChem-04052315443D

 82 90  0     1  0  0  0  0  0999 V2000
  -29.4672  -33.9674   26.0575 C   0  0  0  0  0  0  0  0  0  0  0  0
  -29.6188  -32.8719   25.2135 C   0  0  0  0  0  0  0  0  0  0  0  0
  -24.6252   -9.0147   21.3673 C   0  0  0  0  0  0  0  0  0  0  0  0
  -23.3766  -10.8879   22.2444 C   0  0  0  0  0  0  0  0  0  0  0  0
  -28.2412  -34.2032   26.6783 C   0  0  0  0  0  0  0  0  0  0  0  0
  -28.5449  -32.0108   24.9908 C   0  0  0  0  0  0  0  0  0  0  0  0
  -27.2104  -29.0574   19.7944 C   0  0  0  0  0  0  0  0  0  0  0  0
  -27.8372  -20.4031   20.0854 C   0  0  0  0  0  0  0  0  0  0  0  0
  -28.2619  -19.0861   20.2607 C   0  0  0  0  0  0  0  0  0  0  0  0
  -24.0847   -8.1918   22.3553 C   0  0  0  0  0  0  0  0  0  0  0  0
  -22.8361  -10.0649   23.2324 C   0  0  0  0  0  0  0  0  0  0  0  0
  -27.4532  -27.7523   19.3684 C   0  0  0  0  0  0  0  0  0  0  0  0
  -21.1762   -6.5642   22.9251 C   0  0  0  0  0  0  0  0  0  0  0  0
  -20.7078   -5.3086   22.5382 C   0  0  0  0  0  0  0  0  0  0  0  0
  -25.2408  -27.1127   20.0866 C   0  0  0  0  0  0  0  0  0  0  0  0
  -25.8207  -19.9178   21.3245 C   0  0  0  0  0  0  0  0  0  0  0  0
  -22.2843   -4.2583   24.0377 C   0  0  0  0  0  0  0  0  0  0  0  0
  -24.2712  -10.3628   21.3118 C   0  0  0  0  0  0  0  0  0  0  0  0
  -24.3028  -11.4627   19.0103 C   0  0  0  0  0  0  0  0  0  0  0  0
  -27.1489  -33.3500   26.4555 C   0  0  0  0  0  0  0  0  0  0  0  0
  -25.9829  -29.3980   20.3807 C   0  0  0  0  0  0  0  0  0  0  0  0
  -27.3036  -32.2346   25.6103 C   0  0  0  0  0  0  0  0  0  0  0  0
  -24.9840  -28.4234   20.5169 C   0  0  0  0  0  0  0  0  0  0  0  0
  -26.6166  -20.8190   20.6174 C   0  0  0  0  0  0  0  0  0  0  0  0
  -27.4660  -18.1849   20.9679 C   0  0  0  0  0  0  0  0  0  0  0  0
  -23.1901   -8.7168   23.2878 C   0  0  0  0  0  0  0  0  0  0  0  0
  -26.4694  -26.7790   19.5171 C   0  0  0  0  0  0  0  0  0  0  0  0
  -22.1988   -6.6668   23.8683 C   0  0  0  0  0  0  0  0  0  0  0  0
  -21.2617   -4.1557   23.0945 C   0  0  0  0  0  0  0  0  0  0  0  0
  -26.2454  -18.6007   21.4998 C   0  0  0  0  0  0  0  0  0  0  0  0
  -22.7528   -5.5139   24.4246 C   0  0  0  0  0  0  0  0  0  0  0  0
  -24.8296  -11.2135   20.2918 C   0  0  0  0  0  0  0  0  0  0  0  0
  -25.1979  -12.3304   18.4338 C   0  0  0  0  0  0  0  0  0  0  0  0
  -23.1108  -10.9552   18.3960 C   0  0  0  0  0  0  0  0  0  0  0  0
  -25.0829  -30.4916   23.2264 C   0  0  0  0  0  0  0  0  0  0  0  0
  -22.1752  -30.6797   21.8008 C   0  0  0  0  0  0  0  0  0  0  0  0
  -26.8471  -23.1760   19.7659 C   0  0  0  0  0  0  0  0  0  0  0  0
  -20.0783  -29.5848   19.3409 C   0  0  0  0  0  0  0  0  0  0  0  0
  -29.0837  -16.2754   20.6792 C   0  0  0  0  0  0  0  0  0  0  0  0
  -25.8571  -33.6187   27.1860 C   0  0  0  0  0  0  0  0  0  0  0  0
  -25.7269  -30.8165   20.8106 C   0  0  0  0  0  0  0  0  0  0  0  0
  -23.6420  -28.7425   21.1214 C   0  0  0  0  0  0  0  0  0  0  0  0
  -24.6608  -32.8708   26.6031 C   0  0  0  0  0  0  0  0  0  0  0  0
  -29.8307  -13.5400   18.5259 C   0  0  0  0  0  0  0  0  0  0  0  0
  -25.0179  -31.4102   26.3463 C   0  0  0  0  0  0  0  0  0  0  0  0
  -28.5825  -12.6587   18.6130 C   0  0  0  0  0  0  0  0  0  0  0  0
  -30.1620  -14.1884   19.8688 C   0  0  0  0  0  0  0  0  0  0  0  0
  -27.8074  -14.0446   20.5791 C   0  0  0  0  0  0  0  0  0  0  0  0
  -26.1549  -31.2918   25.3243 C   0  0  1  0  0  0  0  0  0  0  0  0
  -24.6291  -30.9327   21.8636 C   0  0  1  0  0  0  0  0  0  0  0  0
  -27.3964  -13.4214   19.2351 C   0  0  2  0  0  0  0  0  0  0  0  0
  -17.7523  -29.8963   18.4521 C   0  0  0  0  0  0  0  0  0  0  0  0
  -21.0714  -29.0300   24.1181 C   0  0  0  0  0  0  0  0  0  0  0  0
  -19.0360  -28.5747   22.7331 C   0  0  0  0  0  0  0  0  0  0  0  0
  -19.6003  -30.9152   23.3859 C   0  0  0  0  0  0  0  0  0  0  0  0
  -21.0811  -30.5085   16.7141 C   0  0  0  0  0  0  0  0  0  0  0  0
  -26.0374  -24.4587   19.8089 C   0  0  0  0  0  0  0  0  0  1  0  0
  -21.0019  -29.7439   21.6379 C   0  0  1  0  0  0  0  0  0  0  0  0
  -19.2045  -30.3371   18.3535 C   0  0  2  0  0  0  0  0  0  0  0  0
  -20.2033  -29.5592   22.9591 C   0  0  0  0  0  0  0  0  0  0  0  0
  -25.9711  -11.8698   20.5165 N   0  0  0  0  0  0  0  0  0  0  0  0
  -26.1688  -12.5398   19.3684 N   0  0  0  0  0  0  0  0  0  0  0  0
  -23.4420  -30.1421   21.5322 N   0  0  0  0  0  0  0  0  0  0  0  0
  -28.9930  -14.8963   20.3953 N   0  0  0  0  0  0  0  0  0  0  0  0
  -25.2413  -12.9269   17.2236 N   0  0  0  0  0  0  0  0  0  0  0  0
  -22.3047  -10.0736   19.1291 N   0  0  0  0  0  0  0  0  0  0  0  0
  -26.1853  -22.1549   20.4391 N   0  0  0  0  0  0  0  0  0  0  0  0
  -27.8999  -16.8475   21.1438 N   0  0  0  0  0  0  0  0  0  0  0  0
  -25.6524  -31.4980   23.9829 N   0  0  0  0  0  0  0  0  0  0  0  0
  -20.2112  -30.2696   20.5303 N   0  0  0  0  0  0  0  0  0  0  0  0
  -19.6744  -30.0985   16.9595 N   0  3  0  0  0  0  0  0  0  0  0  0
  -22.7792  -11.2612   17.2256 O   0  0  0  0  0  0  0  0  0  0  0  0
  -24.9266  -29.3248   23.5669 O   0  0  0  0  0  0  0  0  0  0  0  0
  -21.9746  -31.8467   22.1465 O   0  0  0  0  0  0  0  0  0  0  0  0
  -27.9319  -23.1198   19.1960 O   0  0  0  0  0  0  0  0  0  0  0  0
  -20.5887  -28.4966   19.0842 O   0  0  0  0  0  0  0  0  0  0  0  0
  -30.1266  -16.9085   20.4960 O   0  0  0  0  0  0  0  0  0  0  0  0
  -22.6623   -7.9141   24.2519 O   0  0  0  0  0  0  0  0  0  0  0  0
  -26.7040  -25.5042   19.1027 O   0  0  0  0  0  0  0  0  0  1  0  0
  -20.8107   -2.9501   22.7240 F   0  0  0  0  0  0  0  0  0  0  0  0
  -25.4715  -17.7428   22.1800 F   0  0  0  0  0  0  0  0  0  0  0  0
  -23.7346   -5.6062   25.3320 F   0  0  0  0  0  0  0  0  0  0  0  0
  1  2  1  0  0  0  0
  1  5  2  0  0  0  0
  2  6  2  0  0  0  0
  3 10  2  0  0  0  0
  3 18  1  0  0  0  0
  4 11  1  0  0  0  0
  4 18  2  0  0  0  0
  5 20  1  0  0  0  0
  6 22  1  0  0  0  0
  7 12  2  0  0  0  0
  7 21  1  0  0  0  0
  8  9  2  0  0  0  0
  8 24  1  0  0  0  0
  9 25  1  0  0  0  0
 10 26  1  0  0  0  0
 11 26  2  0  0  0  0
 12 27  1  0  0  0  0
 13 14  2  0  0  0  0
 13 28  1  0  0  0  0
 14 29  1  0  0  0  0
 15 23  1  0  0  0  0
 15 27  2  0  0  0  0
 16 24  2  0  0  0  0
 16 30  1  0  0  0  0
 17 29  2  0  0  0  0
 17 31  1  0  0  0  0
 18 32  1  0  0  0  0
 19 32  1  0  0  0  0
 19 33  2  0  0  0  0
 19 34  1  0  0  0  0
 20 22  2  0  0  0  0
 20 40  1  0  0  0  0
 21 23  2  0  0  0  0
 21 41  1  0  0  0  0
 22 49  1  0  0  0  0
 23 42  1  0  0  0  0
 24 67  1  0  0  0  0
 25 30  2  0  0  0  0
 25 68  1  0  0  0  0
 26 78  1  0  0  0  0
 27 79  1  0  0  0  0
 28 31  2  0  0  0  0
 28 78  1  0  0  0  0
 29 80  1  0  0  0  0
 30 81  1  0  0  0  0
 31 82  1  0  0  0  0
 32 61  2  0  0  0  0
 33 62  1  0  0  0  0
 33 65  1  0  0  0  0
 34 66  1  0  0  0  0
 34 72  2  0  0  0  0
 35 50  1  0  0  0  0
 35 69  1  0  0  0  0
 35 73  2  0  0  0  0
 36 58  1  0  0  0  0
 36 63  1  0  0  0  0
 36 74  2  0  0  0  0
 37 57  1  0  0  0  0
 37 67  1  0  0  0  0
 37 75  2  0  0  0  0
 38 59  1  0  0  0  0
 38 70  1  0  0  0  0
 38 76  2  0  0  0  0
 39 64  1  0  0  0  0
 39 68  1  0  0  0  0
 39 77  2  0  0  0  0
 40 43  1  0  0  0  0
 41 50  1  0  0  0  0
 42 63  1  0  0  0  0
 43 45  1  0  0  0  0
 44 46  1  0  0  0  0
 44 47  1  0  0  0  0
 45 49  1  0  0  0  0
 46 51  1  0  0  0  0
 47 64  1  0  0  0  0
 48 51  1  0  0  0  0
 48 64  1  0  0  0  0
 49 69  1  0  0  0  0
 50 63  1  0  0  0  0
 51 62  1  0  0  0  0
 52 59  1  0  0  0  0
 53 60  1  0  0  0  0
 54 60  1  0  0  0  0
 55 60  1  0  0  0  0
 56 71  1  0  0  0  0
 57 79  1  0  0  0  0
 58 60  1  0  0  0  0
 58 70  1  0  0  0  0
 59 71  1  0  0  0  0
 61 62  1  0  0  0  0
M  CHG  1  71   1
M  ISO  4  39 100  57 101  68 100  79 101
M  END
> <Batch ID>
0011

> <Smiles>
CNC(C)C(=O)NC(C(=O)N1Cc2cc([101O:1][101CH2:1]C(=O)Nc3ccc([100NH:0][100C:0](=O)N4CCCC(n5nc(-c6ccc(Oc7ccc(F)cc7F)cc6)c(C(N)=O)c5N)C4)c(F)c3)ccc2CC1C(=O)NC1CCCc2ccccc21)C(C)(C)C

> <Shape>
0.309

> <Color>
0.101

> <Negative vol penalty>
0.000

$$$$

  -OEChem-04052315443D

 84 92  0     1  0  0  0  0  0999 V2000
  -30.3428  -33.7548   17.6521 C   0  0  0  0  0  0  0  0  0  0  0  0
  -30.7173  -32.7333   18.5191 C   0  0  0  0  0  0  0  0  0  0  0  0
  -22.9782   -9.9182   19.9828 C   0  0  0  0  0  0  0  0  0  0  0  0
  -23.7154   -9.9453   22.2834 C   0  0  0  0  0  0  0  0  0  0  0  0
  -29.0546  -33.7782   17.1194 C   0  0  0  0  0  0  0  0  0  0  0  0
  -29.8033  -31.7351   18.8548 C   0  0  0  0  0  0  0  0  0  0  0  0
  -31.0279  -25.8310   19.9262 C   0  0  0  0  0  0  0  0  0  0  0  0
  -22.2021   -8.7892   20.2448 C   0  0  0  0  0  0  0  0  0  0  0  0
  -22.9392   -8.8163   22.5454 C   0  0  0  0  0  0  0  0  0  0  0  0
  -31.2023  -25.1083   21.1056 C   0  0  0  0  0  0  0  0  0  0  0  0
  -23.1490   -5.4787   22.0480 C   0  0  0  0  0  0  0  0  0  0  0  0
  -23.7304   -4.4504   22.7897 C   0  0  0  0  0  0  0  0  0  0  0  0
  -28.8901  -24.4256   21.0221 C   0  0  0  0  0  0  0  0  0  0  0  0
  -32.0000  -18.2233   24.1684 C   0  0  0  0  0  0  0  0  0  0  0  0
  -32.1142  -16.4403   22.5421 C   0  0  0  0  0  0  0  0  0  0  0  0
  -22.0173   -4.6977   24.4754 C   0  0  0  0  0  0  0  0  0  0  0  0
  -23.7349  -10.4962   21.0021 C   0  0  0  0  0  0  0  0  0  0  0  0
  -24.1436  -13.0092   20.8425 C   0  0  0  0  0  0  0  0  0  0  0  0
  -28.1274  -32.7745   17.4412 C   0  0  0  0  0  0  0  0  0  0  0  0
  -29.7784  -25.8655   19.2907 C   0  0  0  0  0  0  0  0  0  0  0  0
  -28.5010  -31.7459   18.3270 C   0  0  0  0  0  0  0  0  0  0  0  0
  -28.7032  -25.1475   19.8333 C   0  0  0  0  0  0  0  0  0  0  0  0
  -32.7504  -17.3098   23.4281 C   0  0  0  0  0  0  0  0  0  0  0  0
  -30.6135  -18.2673   24.0228 C   0  0  0  0  0  0  0  0  0  0  0  0
  -30.7277  -16.4843   22.3965 C   0  0  0  0  0  0  0  0  0  0  0  0
  -22.1826   -8.2383   21.5261 C   0  0  0  0  0  0  0  0  0  0  0  0
  -30.1326  -24.4078   21.6553 C   0  0  0  0  0  0  0  0  0  0  0  0
  -22.0017   -6.1166   22.5200 C   0  0  0  0  0  0  0  0  0  0  0  0
  -23.1646   -4.0599   24.0034 C   0  0  0  0  0  0  0  0  0  0  0  0
  -21.4359   -5.7260   23.7337 C   0  0  0  0  0  0  0  0  0  0  0  0
  -29.9773  -17.3978   23.1368 C   0  0  0  0  0  0  0  0  0  0  0  0
  -24.5373  -11.6621   20.7320 C   0  0  0  0  0  0  0  0  0  0  0  0
  -25.2585  -13.7237   20.4777 C   0  0  0  0  0  0  0  0  0  0  0  0
  -22.8829  -13.5649   21.2394 C   0  0  0  0  0  0  0  0  0  0  0  0
  -27.6871  -28.1503   18.5768 C   0  0  0  0  0  0  0  0  0  0  0  0
  -26.1682  -25.7369   17.0306 C   0  0  0  0  0  0  0  0  0  0  0  0
  -30.1913  -21.5212   23.8490 C   0  0  0  0  0  0  0  0  0  0  0  0
  -25.6247  -22.3817   16.7234 C   0  0  0  0  0  0  0  0  0  0  0  0
  -30.7480  -14.6304   20.6909 C   0  0  0  0  0  0  0  0  0  0  0  0
  -26.7315  -32.8681   16.8778 C   0  0  0  0  0  0  0  0  0  0  0  0
  -29.6136  -26.6280   18.0047 C   0  0  0  0  0  0  0  0  0  0  0  0
  -27.3467  -25.1357   19.1790 C   0  0  0  0  0  0  0  0  0  0  0  0
  -25.9412  -31.5668   16.9891 C   0  0  0  0  0  0  0  0  0  0  0  0
  -29.5945  -12.2054   18.3529 C   0  0  0  0  0  0  0  0  0  0  0  0
  -26.0831  -30.9740   18.3874 C   0  0  0  0  0  0  0  0  0  0  0  0
  -28.1436  -11.9587   18.7725 C   0  0  0  0  0  0  0  0  0  0  0  0
  -30.5034  -12.4313   19.5598 C   0  0  0  0  0  0  0  0  0  0  0  0
  -28.6024  -13.2288   20.9088 C   0  0  0  0  0  0  0  0  0  0  0  0
  -27.5457  -30.6316   18.6956 C   0  0  1  0  0  0  0  0  0  0  0  0
  -28.1651  -27.0126   17.7196 C   0  0  1  0  0  0  0  0  0  0  0  0
  -27.6371  -13.0603   19.7241 C   0  0  2  0  0  0  0  0  0  0  0  0
  -34.2328  -17.2639   23.5835 C   0  0  0  0  0  0  0  0  0  0  0  0
  -24.3018  -20.7140   15.3945 C   0  0  0  0  0  0  0  0  0  0  0  0
  -23.6628  -26.4688   18.6109 C   0  0  0  0  0  0  0  0  0  0  0  0
  -22.6985  -24.2469   17.9770 C   0  0  0  0  0  0  0  0  0  0  0  0
  -23.2548  -25.9140   16.2067 C   0  0  0  0  0  0  0  0  0  0  0  0
  -28.0768  -21.0807   15.6967 C   0  0  0  0  0  0  0  0  0  0  0  0
  -29.8473  -19.2664   24.8406 C   0  0  0  0  0  0  0  0  0  0  0  0
  -29.4867  -22.5426   22.9818 C   0  0  0  0  0  0  0  0  0  1  0  0
  -25.1259  -24.7128   17.4101 C   0  0  1  0  0  0  0  0  0  0  0  0
  -25.6165  -21.4696   15.5100 C   0  0  2  0  0  0  0  0  0  0  0  0
  -23.7104  -25.3372   17.5648 C   0  0  0  0  0  0  0  0  0  0  0  0
  -25.8033  -11.5263   20.3285 N   0  0  0  0  0  0  0  0  0  0  0  0
  -26.2148  -12.7973   20.1821 N   0  0  0  0  0  0  0  0  0  0  0  0
  -27.2340  -25.9015   17.9266 N   0  0  0  0  0  0  0  0  0  0  0  0
  -29.9628  -13.4913   20.4136 N   0  0  0  0  0  0  0  0  0  0  0  0
  -25.5042  -15.0478   20.3841 N   0  0  0  0  0  0  0  0  0  0  0  0
  -21.8444  -12.6883   21.5817 N   0  0  0  0  0  0  0  0  0  0  0  0
  -30.1170  -15.5859   21.4867 N   0  0  0  0  0  0  0  0  0  0  0  0
  -27.9259  -29.4000   18.0376 N   0  0  0  0  0  0  0  0  0  0  0  0
  -29.4112  -20.3929   24.0482 N   0  0  0  0  0  0  0  0  0  0  0  0
  -25.2068  -23.6569   16.4066 N   0  0  0  0  0  0  0  0  0  0  0  0
  -26.7233  -20.4757   15.6015 N   0  3  0  0  0  0  0  0  0  0  0  0
  -22.6783  -14.8021   21.2732 O   0  0  0  0  0  0  0  0  0  0  0  0
  -27.1407  -27.9120   19.6475 O   0  0  0  0  0  0  0  0  0  0  0  0
  -26.0452  -26.3623   15.9746 O   0  0  0  0  0  0  0  0  0  0  0  0
  -31.3167  -21.7010   24.3061 O   0  0  0  0  0  0  0  0  0  0  0  0
  -25.9641  -22.0001   17.8413 O   0  0  0  0  0  0  0  0  0  0  0  0
  -31.8857  -14.7616   20.2321 O   0  0  0  0  0  0  0  0  0  0  0  0
  -21.4252   -7.1367   21.7821 O   0  0  0  0  0  0  0  0  0  0  0  0
  -30.2999  -23.7020   22.8067 O   0  0  0  0  0  0  0  0  0  1  0  0
  -23.7222   -3.0714   24.7148 F   0  0  0  0  0  0  0  0  0  0  0  0
  -20.3331   -6.3342   24.1917 F   0  0  0  0  0  0  0  0  0  0  0  0
  -28.2537  -17.4571   22.9608 Cl  0  0  0  0  0  0  0  0  0  0  0  0
  1  2  1  0  0  0  0
  1  5  2  0  0  0  0
  2  6  2  0  0  0  0
  3  8  2  0  0  0  0
  3 17  1  0  0  0  0
  4  9  1  0  0  0  0
  4 17  2  0  0  0  0
  5 19  1  0  0  0  0
  6 21  1  0  0  0  0
  7 10  2  0  0  0  0
  7 20  1  0  0  0  0
  8 26  1  0  0  0  0
  9 26  2  0  0  0  0
 10 27  1  0  0  0  0
 11 12  2  0  0  0  0
 11 28  1  0  0  0  0
 12 29  1  0  0  0  0
 13 22  1  0  0  0  0
 13 27  2  0  0  0  0
 14 23  2  0  0  0  0
 14 24  1  0  0  0  0
 15 23  1  0  0  0  0
 15 25  2  0  0  0  0
 16 29  2  0  0  0  0
 16 30  1  0  0  0  0
 17 32  1  0  0  0  0
 18 32  1  0  0  0  0
 18 33  2  0  0  0  0
 18 34  1  0  0  0  0
 19 21  2  0  0  0  0
 19 40  1  0  0  0  0
 20 22  2  0  0  0  0
 20 41  1  0  0  0  0
 21 49  1  0  0  0  0
 22 42  1  0  0  0  0
 23 52  1  0  0  0  0
 24 31  2  0  0  0  0
 24 58  1  0  0  0  0
 25 31  1  0  0  0  0
 25 69  1  0  0  0  0
 26 80  1  0  0  0  0
 27 81  1  0  0  0  0
 28 30  2  0  0  0  0
 28 80  1  0  0  0  0
 29 82  1  0  0  0  0
 30 83  1  0  0  0  0
 31 84  1  0  0  0  0
 32 63  2  0  0  0  0
 33 64  1  0  0  0  0
 33 67  1  0  0  0  0
 34 68  1  0  0  0  0
 34 74  2  0  0  0  0
 35 50  1  0  0  0  0
 35 70  1  0  0  0  0
 35 75  2  0  0  0  0
 36 60  1  0  0  0  0
 36 65  1  0  0  0  0
 36 76  2  0  0  0  0
 37 59  1  0  0  0  0
 37 71  1  0  0  0  0
 37 77  2  0  0  0  0
 38 61  1  0  0  0  0
 38 72  1  0  0  0  0
 38 78  2  0  0  0  0
 39 66  1  0  0  0  0
 39 69  1  0  0  0  0
 39 79  2  0  0  0  0
 40 43  1  0  0  0  0
 41 50  1  0  0  0  0
 42 65  1  0  0  0  0
 43 45  1  0  0  0  0
 44 46  1  0  0  0  0
 44 47  1  0  0  0  0
 45 49  1  0  0  0  0
 46 51  1  0  0  0  0
 47 66  1  0  0  0  0
 48 51  1  0  0  0  0
 48 66  1  0  0  0  0
 49 70  1  0  0  0  0
 50 65  1  0  0  0  0
 51 64  1  0  0  0  0
 53 61  1  0  0  0  0
 54 62  1  0  0  0  0
 55 62  1  0  0  0  0
 56 62  1  0  0  0  0
 57 73  1  0  0  0  0
 58 71  1  0  0  0  0
 59 81  1  0  0  0  0
 60 62  1  0  0  0  0
 60 72  1  0  0  0  0
 61 73  1  0  0  0  0
 63 64  1  0  0  0  0
M  CHG  1  73   1
M  ISO  4  39 100  59 101  69 100  81 101
M  END
> <Batch ID>
0011

> <Smiles>
CNC(C)C(=O)NC(C(=O)N1Cc2cc([101O:1][101CH2:1]C(=O)NCc3cc(C)cc([100NH:0][100C:0](=O)N4CCCC(n5nc(-c6ccc(Oc7ccc(F)cc7F)cc6)c(C(N)=O)c5N)C4)c3Cl)ccc2CC1C(=O)NC1CCCc2ccccc21)C(C)(C)C

> <Shape>
0.224

> <Color>
0.198

> <Negative vol penalty>
0.000

$$$$

  -OEChem-04052315443D

 83 91  0     1  0  0  0  0  0999 V2000
  -27.0780  -35.0615   22.6813 C   0  0  0  0  0  0  0  0  0  0  0  0
  -27.4369  -33.7279   22.5136 C   0  0  0  0  0  0  0  0  0  0  0  0
  -26.3189  -11.9534   21.1235 C   0  0  0  0  0  0  0  0  0  0  0  0
  -25.7815  -13.7691   19.6229 C   0  0  0  0  0  0  0  0  0  0  0  0
  -25.8358  -35.3847   23.2258 C   0  0  0  0  0  0  0  0  0  0  0  0
  -26.5542  -32.7167   22.8913 C   0  0  0  0  0  0  0  0  0  0  0  0
  -26.2082  -29.0439   19.4220 C   0  0  0  0  0  0  0  0  0  0  0  0
  -24.9598  -11.7444   21.3573 C   0  0  0  0  0  0  0  0  0  0  0  0
  -24.4224  -13.5601   19.8568 C   0  0  0  0  0  0  0  0  0  0  0  0
  -27.2443  -28.1122   19.3756 C   0  0  0  0  0  0  0  0  0  0  0  0
  -22.3591  -10.2674   19.7801 C   0  0  0  0  0  0  0  0  0  0  0  0
  -21.8925   -8.9531   19.7604 C   0  0  0  0  0  0  0  0  0  0  0  0
  -25.8904  -26.5534   20.6231 C   0  0  0  0  0  0  0  0  0  0  0  0
  -31.5812  -21.0858   21.2358 C   0  0  0  0  0  0  0  0  0  0  0  0
  -30.0851  -21.8287   19.0015 C   0  0  0  0  0  0  0  0  0  0  0  0
  -21.1520   -9.1817   22.0488 C   0  0  0  0  0  0  0  0  0  0  0  0
  -26.7298  -12.9658   20.2563 C   0  0  0  0  0  0  0  0  0  0  0  0
  -28.9254  -12.5894   19.0132 C   0  0  0  0  0  0  0  0  0  0  0  0
  -24.9336  -34.3770   23.6015 C   0  0  0  0  0  0  0  0  0  0  0  0
  -25.0074  -28.7409   20.0799 C   0  0  0  0  0  0  0  0  0  0  0  0
  -25.2994  -33.0267   23.4426 C   0  0  0  0  0  0  0  0  0  0  0  0
  -24.8396  -27.4820   20.6742 C   0  0  0  0  0  0  0  0  0  0  0  0
  -31.1101  -20.1110   20.3565 C   0  0  0  0  0  0  0  0  0  0  0  0
  -30.5562  -22.8035   19.8809 C   0  0  0  0  0  0  0  0  0  0  0  0
  -24.0115  -12.5477   20.7240 C   0  0  0  0  0  0  0  0  0  0  0  0
  -27.0866  -26.8678   19.9787 C   0  0  0  0  0  0  0  0  0  0  0  0
  -22.2222  -11.0389   20.9341 C   0  0  0  0  0  0  0  0  0  0  0  0
  -21.2890   -8.4102   20.8948 C   0  0  0  0  0  0  0  0  0  0  0  0
  -30.3621  -20.4824   19.2393 C   0  0  0  0  0  0  0  0  0  0  0  0
  -31.3042  -22.4321   20.9981 C   0  0  0  0  0  0  0  0  0  0  0  0
  -21.6186  -10.4961   22.0684 C   0  0  0  0  0  0  0  0  0  0  0  0
  -28.1336  -13.1825   20.0147 C   0  0  0  0  0  0  0  0  0  0  0  0
  -30.1774  -13.1203   19.2059 C   0  0  0  0  0  0  0  0  0  0  0  0
  -28.5616  -11.6432   17.9992 C   0  0  0  0  0  0  0  0  0  0  0  0
  -23.4479  -29.9499   22.5718 C   0  0  0  0  0  0  0  0  0  0  0  0
  -21.1652  -27.8252   21.6788 C   0  0  0  0  0  0  0  0  0  0  0  0
  -20.3816  -24.9221   20.0648 C   0  0  0  0  0  0  0  0  0  0  0  0
  -32.1196  -18.2087   21.6637 C   0  0  0  0  0  0  0  0  0  0  0  0
  -23.6213  -34.7748   24.2295 C   0  0  0  0  0  0  0  0  0  0  0  0
  -23.8894  -29.7469   20.0980 C   0  0  0  0  0  0  0  0  0  0  0  0
  -23.5626  -27.1000   21.3754 C   0  0  0  0  0  0  0  0  0  0  0  0
  -22.5926  -33.6473   24.2569 C   0  0  0  0  0  0  0  0  0  0  0  0
  -33.0023  -14.9002   22.6390 C   0  0  0  0  0  0  0  0  0  0  0  0
  -23.2313  -32.3538   24.7527 C   0  0  0  0  0  0  0  0  0  0  0  0
  -31.9295  -14.0297   21.9805 C   0  0  0  0  0  0  0  0  0  0  0  0
  -32.4310  -16.2284   23.1321 C   0  0  0  0  0  0  0  0  0  0  0  0
  -30.6197  -16.1287   21.4652 C   0  0  0  0  0  0  0  0  0  0  0  0
  -24.3592  -31.9016   23.8173 C   0  0  1  0  0  0  0  0  0  0  0  0
  -22.9018  -29.5222   21.2389 C   0  0  1  0  0  0  0  0  0  0  0  0
  -31.1609  -14.8077   20.8945 C   0  0  2  0  0  0  0  0  0  0  0  0
  -18.4388  -23.4239   19.5377 C   0  0  0  0  0  0  0  0  0  0  0  0
  -30.4078  -24.6134   17.2760 C   0  0  0  0  0  0  0  0  0  0  0  0
  -21.2082  -26.7668   24.5403 C   0  0  0  0  0  0  0  0  0  0  0  0
  -20.0037  -24.7270   23.7299 C   0  0  0  0  0  0  0  0  0  0  0  0
  -18.9263  -26.9686   23.5368 C   0  0  0  0  0  0  0  0  0  0  0  0
  -20.7366  -25.2936   17.1502 C   0  0  0  0  0  0  0  0  0  0  0  0
  -28.9613  -25.9991   18.8010 C   0  0  0  0  0  0  0  0  0  1  0  0
  -20.8562  -26.3854   22.0111 C   0  0  1  0  0  0  0  0  0  0  0  0
  -19.2915  -24.5898   19.0620 C   0  0  2  0  0  0  0  0  0  0  0  0
  -29.5110  -24.6050   18.5069 C   0  0  2  0  0  0  0  0  0  0  0  0
  -20.2735  -26.2195   23.4431 C   0  0  0  0  0  0  0  0  0  0  0  0
  -28.8247  -14.0256   20.7866 N   0  0  0  0  0  0  0  0  0  0  0  0
  -30.0639  -13.9659   20.2700 N   0  0  0  0  0  0  0  0  0  0  0  0
  -22.5010  -28.1201   21.3716 N   0  0  0  0  0  0  0  0  0  0  0  0
  -31.7206  -16.9113   22.0486 N   0  0  0  0  0  0  0  0  0  0  0  0
  -31.3532  -12.9416   18.5674 N   0  0  0  0  0  0  0  0  0  0  0  0
  -27.2325  -11.2022   17.9428 N   0  0  0  0  0  0  0  0  0  0  0  0
  -31.3923  -18.7441   20.6011 N   0  0  0  0  0  0  0  0  0  0  0  0
  -30.2800  -24.1373   19.6428 N   0  0  0  0  0  0  0  0  0  0  0  0
  -23.8125  -31.2815   22.6294 N   0  0  0  0  0  0  0  0  0  0  0  0
  -19.9805  -25.9004   20.9498 N   0  0  0  0  0  0  0  0  0  0  0  0
  -19.8908  -24.2278   17.7464 N   0  3  0  0  0  0  0  0  0  0  0  0
  -29.3944  -11.1894   17.1782 O   0  0  0  0  0  0  0  0  0  0  0  0
  -23.5308  -29.1327   23.4811 O   0  0  0  0  0  0  0  0  0  0  0  0
  -20.2536  -28.6562   21.6845 O   0  0  0  0  0  0  0  0  0  0  0  0
  -21.4780  -24.3667   20.0655 O   0  0  0  0  0  0  0  0  0  0  0  0
  -33.0565  -18.7904   22.2166 O   0  0  0  0  0  0  0  0  0  0  0  0
  -22.6852  -12.3439   20.9518 O   0  0  0  0  0  0  0  0  0  0  0  0
  -28.0966  -25.9568   19.9354 O   0  0  0  0  0  0  0  0  0  1  0  0
  -20.8396   -7.1485   20.8753 F   0  0  0  0  0  0  0  0  0  0  0  0
  -29.9023  -19.5537   18.3887 F   0  0  0  0  0  0  0  0  0  0  0  0
  -31.7612  -23.3612   21.8498 F   0  0  0  0  0  0  0  0  0  0  0  0
  -21.4832  -11.2328   23.1796 F   0  0  0  0  0  0  0  0  0  0  0  0
  1  2  1  0  0  0  0
  1  5  2  0  0  0  0
  2  6  2  0  0  0  0
  3  8  2  0  0  0  0
  3 17  1  0  0  0  0
  4  9  1  0  0  0  0
  4 17  2  0  0  0  0
  5 19  1  0  0  0  0
  6 21  1  0  0  0  0
  7 10  2  0  0  0  0
  7 20  1  0  0  0  0
  8 25  1  0  0  0  0
  9 25  2  0  0  0  0
 10 26  1  0  0  0  0
 11 12  2  0  0  0  0
 11 27  1  0  0  0  0
 12 28  1  0  0  0  0
 13 22  1  0  0  0  0
 13 26  2  0  0  0  0
 14 23  2  0  0  0  0
 14 30  1  0  0  0  0
 15 24  1  0  0  0  0
 15 29  2  0  0  0  0
 16 28  2  0  0  0  0
 16 31  1  0  0  0  0
 17 32  1  0  0  0  0
 18 32  1  0  0  0  0
 18 33  2  0  0  0  0
 18 34  1  0  0  0  0
 19 21  2  0  0  0  0
 19 39  1  0  0  0  0
 20 22  2  0  0  0  0
 20 40  1  0  0  0  0
 21 48  1  0  0  0  0
 22 41  1  0  0  0  0
 23 29  1  0  0  0  0
 23 68  1  0  0  0  0
 24 30  2  0  0  0  0
 24 69  1  0  0  0  0
 25 78  1  0  0  0  0
 26 79  1  0  0  0  0
 27 31  2  0  0  0  0
 27 78  1  0  0  0  0
 28 80  1  0  0  0  0
 29 81  1  0  0  0  0
 30 82  1  0  0  0  0
 31 83  1  0  0  0  0
 32 62  2  0  0  0  0
 33 63  1  0  0  0  0
 33 66  1  0  0  0  0
 34 67  1  0  0  0  0
 34 73  2  0  0  0  0
 35 49  1  0  0  0  0
 35 70  1  0  0  0  0
 35 74  2  0  0  0  0
 36 58  1  0  0  0  0
 36 64  1  0  0  0  0
 36 75  2  0  0  0  0
 37 59  1  0  0  0  0
 37 71  1  0  0  0  0
 37 76  2  0  0  0  0
 38 65  1  0  0  0  0
 38 68  1  0  0  0  0
 38 77  2  0  0  0  0
 39 42  1  0  0  0  0
 40 49  1  0  0  0  0
 41 64  1  0  0  0  0
 42 44  1  0  0  0  0
 43 45  1  0  0  0  0
 43 46  1  0  0  0  0
 44 48  1  0  0  0  0
 45 50  1  0  0  0  0
 46 65  1  0  0  0  0
 47 50  1  0  0  0  0
 47 65  1  0  0  0  0
 48 70  1  0  0  0  0
 49 64  1  0  0  0  0
 50 63  1  0  0  0  0
 51 59  1  0  0  0  0
 52 60  1  0  0  0  0
 53 61  1  0  0  0  0
 54 61  1  0  0  0  0
 55 61  1  0  0  0  0
 56 72  1  0  0  0  0
 57 60  1  0  0  0  0
 57 79  1  0  0  0  0
 58 61  1  0  0  0  0
 58 71  1  0  0  0  0
 59 72  1  0  0  0  0
 60 69  1  0  0  0  0
 62 63  1  0  0  0  0
M  CHG  1  72   1
M  ISO  4  38 100  57 101  68 100  79 101
M  END
> <Batch ID>
0011

> <Smiles>
CNC(C)C(=O)NC(C(=O)N1Cc2cc([101O:1][101CH2:1]C(C)Nc3cc(F)c([100NH:0][100C:0](=O)N4CCCC(n5nc(-c6ccc(Oc7ccc(F)cc7F)cc6)c(C(N)=O)c5N)C4)cc3F)ccc2CC1C(=O)NC1CCCc2ccccc21)C(C)(C)C

> <Shape>
0.337

> <Color>
0.076

> <Negative vol penalty>
0.000

$$$$

  -OEChem-04052315443D

 83 91  0     1  0  0  0  0  0999 V2000
  -26.8124   -9.4831   34.8043 C   0  0  0  0  0  0  0  0  0  0  0  0
  -27.6725  -10.5274   34.4801 C   0  0  0  0  0  0  0  0  0  0  0  0
  -23.0737   -9.8693   19.9415 C   0  0  0  0  0  0  0  0  0  0  0  0
  -23.8314   -9.8774   22.2356 C   0  0  0  0  0  0  0  0  0  0  0  0
  -25.9571   -8.9597   33.8356 C   0  0  0  0  0  0  0  0  0  0  0  0
  -27.6785  -11.0482   33.1866 C   0  0  0  0  0  0  0  0  0  0  0  0
  -28.6623  -17.1995   29.6495 C   0  0  0  0  0  0  0  0  0  0  0  0
  -22.3288   -8.7168   20.1916 C   0  0  0  0  0  0  0  0  0  0  0  0
  -23.0865   -8.7249   22.4857 C   0  0  0  0  0  0  0  0  0  0  0  0
  -29.4051  -17.7286   28.5950 C   0  0  0  0  0  0  0  0  0  0  0  0
  -19.3786   -7.9233   21.6406 C   0  0  0  0  0  0  0  0  0  0  0  0
  -18.0722   -7.8776   21.1542 C   0  0  0  0  0  0  0  0  0  0  0  0
  -29.5209  -17.8854   22.3708 C   0  0  0  0  0  0  0  0  0  0  0  0
  -30.5900  -19.8666   21.4941 C   0  0  0  0  0  0  0  0  0  0  0  0
  -27.8276  -16.7983   27.0249 C   0  0  0  0  0  0  0  0  0  0  0  0
  -31.1529  -17.6940   20.5997 C   0  0  0  0  0  0  0  0  0  0  0  0
  -18.6318   -5.9332   19.8338 C   0  0  0  0  0  0  0  0  0  0  0  0
  -23.8251  -10.4495   20.9635 C   0  0  0  0  0  0  0  0  0  0  0  0
  -29.6896  -19.2699   22.3767 C   0  0  0  0  0  0  0  0  0  0  0  0
  -24.1688  -12.9744   20.8420 C   0  0  0  0  0  0  0  0  0  0  0  0
  -25.9457   -9.4808   32.5322 C   0  0  0  0  0  0  0  0  0  0  0  0
  -27.5005  -16.4552   29.3988 C   0  0  0  0  0  0  0  0  0  0  0  0
  -26.8232  -10.5304   32.1992 C   0  0  0  0  0  0  0  0  0  0  0  0
  -27.0704  -16.2629   28.0781 C   0  0  0  0  0  0  0  0  0  0  0  0
  -30.2526  -17.0974   21.4823 C   0  0  0  0  0  0  0  0  0  0  0  0
  -22.3352   -8.1446   21.4637 C   0  0  0  0  0  0  0  0  0  0  0  0
  -28.9894  -17.5256   27.2824 C   0  0  0  0  0  0  0  0  0  0  0  0
  -20.3117   -6.9740   21.2236 C   0  0  0  0  0  0  0  0  0  0  0  0
  -17.6987   -6.8826   20.2508 C   0  0  0  0  0  0  0  0  0  0  0  0
  -19.9383   -5.9789   20.3203 C   0  0  0  0  0  0  0  0  0  0  0  0
  -31.3217  -19.0786   20.6056 C   0  0  0  0  0  0  0  0  0  0  0  0
  -24.5952  -11.6397   20.7057 C   0  0  0  0  0  0  0  0  0  0  0  0
  -25.2618  -13.7228   20.4793 C   0  0  0  0  0  0  0  0  0  0  0  0
  -28.9210  -20.0983   23.3087 C   0  0  0  0  0  0  0  0  0  0  0  0
  -22.8983  -13.4914   21.2594 C   0  0  0  0  0  0  0  0  0  0  0  0
  -29.3046  -20.4323   24.5566 C   0  0  0  0  0  0  0  0  0  0  0  0
  -26.5873  -13.4636   29.9646 C   0  0  0  0  0  0  0  0  0  0  0  0
  -23.7440  -14.5281   28.8222 C   0  0  0  0  0  0  0  0  0  0  0  0
  -22.0566  -16.7893   26.9022 C   0  0  0  0  0  0  0  0  0  0  0  0
  -30.7285  -14.7648   20.6584 C   0  0  0  0  0  0  0  0  0  0  0  0
  -25.0371   -8.8509   31.5064 C   0  0  0  0  0  0  0  0  0  0  0  0
  -26.6958  -15.9138   30.5484 C   0  0  0  0  0  0  0  0  0  0  0  0
  -25.8193  -15.4886   27.7564 C   0  0  0  0  0  0  0  0  0  0  0  0
  -24.8389   -9.7089   30.2595 C   0  0  0  0  0  0  0  0  0  0  0  0
  -29.6147  -12.3500   18.2908 C   0  0  0  0  0  0  0  0  0  0  0  0
  -26.1779  -10.2430   29.7606 C   0  0  0  0  0  0  0  0  0  0  0  0
  -28.1744  -12.0598   18.7192 C   0  0  0  0  0  0  0  0  0  0  0  0
  -30.5288  -12.5791   19.4931 C   0  0  0  0  0  0  0  0  0  0  0  0
  -28.6211  -13.3058   20.8721 C   0  0  0  0  0  0  0  0  0  0  0  0
  -26.8414  -11.1387   30.8136 C   0  0  1  0  0  0  0  0  0  0  0  0
  -25.8102  -14.7354   30.1553 C   0  0  1  0  0  0  0  0  0  0  0  0
  -27.6492  -13.1324   19.6934 C   0  0  2  0  0  0  0  0  0  0  0  0
  -28.4163  -21.3096   25.4009 C   0  0  0  0  0  0  0  0  0  0  0  0
  -19.7430  -17.3817   26.1317 C   0  0  0  0  0  0  0  0  0  0  0  0
  -23.8083  -12.2019   26.8487 C   0  0  0  0  0  0  0  0  0  0  0  0
  -22.0299  -13.3661   25.5258 C   0  0  0  0  0  0  0  0  0  0  0  0
  -21.5677  -12.6434   27.8682 C   0  0  0  0  0  0  0  0  0  0  0  0
  -22.1872  -19.4544   28.1826 C   0  0  0  0  0  0  0  0  0  0  0  0
  -30.6159  -20.0197   25.1984 C   0  0  0  0  0  0  0  0  0  0  0  0
  -30.4333  -19.2465   26.5017 C   0  0  0  0  0  0  0  0  0  1  0  0
  -23.1031  -14.6097   27.4578 C   0  0  1  0  0  0  0  0  0  0  0  0
  -20.8179  -17.6215   27.1805 C   0  0  2  0  0  0  0  0  0  0  0  0
  -22.6519  -13.2183   26.9308 C   0  0  0  0  0  0  0  0  0  0  0  0
  -25.8604  -11.5427   20.2886 N   0  0  0  0  0  0  0  0  0  0  0  0
  -26.2383  -12.8259   20.1598 N   0  0  0  0  0  0  0  0  0  0  0  0
  -25.0701  -14.9738   28.9145 N   0  0  0  0  0  0  0  0  0  0  0  0
  -29.9697  -13.6109   20.3692 N   0  0  0  0  0  0  0  0  0  0  0  0
  -25.4732  -15.0541   20.4055 N   0  0  0  0  0  0  0  0  0  0  0  0
  -21.8854  -12.5831   21.5963 N   0  0  0  0  0  0  0  0  0  0  0  0
  -30.0810  -15.6908   21.4755 N   0  0  0  0  0  0  0  0  0  0  0  0
  -26.2228  -12.4470   30.8266 N   0  0  0  0  0  0  0  0  0  0  0  0
  -22.0234  -15.5843   27.5716 N   0  0  0  0  0  0  0  0  0  0  0  0
  -21.1580  -19.0724   27.1816 N   0  3  0  0  0  0  0  0  0  0  0  0
  -22.6628  -14.7222   21.3156 O   0  0  0  0  0  0  0  0  0  0  0  0
  -27.4524  -13.4083   29.0985 O   0  0  0  0  0  0  0  0  0  0  0  0
  -23.0897  -14.0918   29.7726 O   0  0  0  0  0  0  0  0  0  0  0  0
  -22.9614  -17.1686   26.1618 O   0  0  0  0  0  0  0  0  0  0  0  0
  -31.8582  -14.9324   20.1917 O   0  0  0  0  0  0  0  0  0  0  0  0
  -21.6082   -7.0202   21.7081 O   0  0  0  0  0  0  0  0  0  0  0  0
  -29.7129  -18.0405   26.2512 O   0  0  0  0  0  0  0  0  0  1  0  0
  -16.4437   -6.8379   19.7849 F   0  0  0  0  0  0  0  0  0  0  0  0
  -20.8300   -5.0635   19.9169 F   0  0  0  0  0  0  0  0  0  0  0  0
  -32.4310  -19.8152   19.5154 Cl  0  0  0  0  0  0  0  0  0  0  0  0
  1  2  1  0  0  0  0
  1  5  2  0  0  0  0
  2  6  2  0  0  0  0
  3  8  2  0  0  0  0
  3 18  1  0  0  0  0
  4  9  1  0  0  0  0
  4 18  2  0  0  0  0
  5 21  1  0  0  0  0
  6 23  1  0  0  0  0
  7 10  2  0  0  0  0
  7 22  1  0  0  0  0
  8 26  1  0  0  0  0
  9 26  2  0  0  0  0
 10 27  1  0  0  0  0
 11 12  2  0  0  0  0
 11 28  1  0  0  0  0
 12 29  1  0  0  0  0
 13 19  2  0  0  0  0
 13 25  1  0  0  0  0
 14 19  1  0  0  0  0
 14 31  2  0  0  0  0
 15 24  1  0  0  0  0
 15 27  2  0  0  0  0
 16 25  2  0  0  0  0
 16 31  1  0  0  0  0
 17 29  2  0  0  0  0
 17 30  1  0  0  0  0
 18 32  1  0  0  0  0
 19 34  1  0  0  0  0
 20 32  1  0  0  0  0
 20 33  2  0  0  0  0
 20 35  1  0  0  0  0
 21 23  2  0  0  0  0
 21 41  1  0  0  0  0
 22 24  2  0  0  0  0
 22 42  1  0  0  0  0
 23 50  1  0  0  0  0
 24 43  1  0  0  0  0
 25 70  1  0  0  0  0
 26 79  1  0  0  0  0
 27 80  1  0  0  0  0
 28 30  2  0  0  0  0
 28 79  1  0  0  0  0
 29 81  1  0  0  0  0
 30 82  1  0  0  0  0
 31 83  1  0  0  0  0
 32 64  2  0  0  0  0
 33 65  1  0  0  0  0
 33 68  1  0  0  0  0
 34 36  2  0  0  0  0
 35 69  1  0  0  0  0
 35 74  2  0  0  0  0
 36 53  1  0  0  0  0
 36 59  1  0  0  0  0
 37 51  1  0  0  0  0
 37 71  1  0  0  0  0
 37 75  2  0  0  0  0
 38 61  1  0  0  0  0
 38 66  1  0  0  0  0
 38 76  2  0  0  0  0
 39 62  1  0  0  0  0
 39 72  1  0  0  0  0
 39 77  2  0  0  0  0
 40 67  1  0  0  0  0
 40 70  1  0  0  0  0
 40 78  2  0  0  0  0
 41 44  1  0  0  0  0
 42 51  1  0  0  0  0
 43 66  1  0  0  0  0
 44 46  1  0  0  0  0
 45 47  1  0  0  0  0
 45 48  1  0  0  0  0
 46 50  1  0  0  0  0
 47 52  1  0  0  0  0
 48 67  1  0  0  0  0
 49 52  1  0  0  0  0
 49 67  1  0  0  0  0
 50 71  1  0  0  0  0
 51 66  1  0  0  0  0
 52 65  1  0  0  0  0
 54 62  1  0  0  0  0
 55 63  1  0  0  0  0
 56 63  1  0  0  0  0
 57 63  1  0  0  0  0
 58 73  1  0  0  0  0
 59 60  1  0  0  0  0
 60 80  1  0  0  0  0
 61 63  1  0  0  0  0
 61 72  1  0  0  0  0
 62 73  1  0  0  0  0
 64 65  1  0  0  0  0
M  CHG  1  73   1
M  ISO  4  40 100  60 101  70 100  80 101
M  END
> <Batch ID>
0011

> <Smiles>
CNC(C)C(=O)NC(C(=O)N1Cc2cc([101O:1][101CH2:1]CC(C)=Cc3cc(Cl)cc([100NH:0][100C:0](=O)N4CCCC(n5nc(-c6ccc(Oc7ccc(F)cc7F)cc6)c(C(N)=O)c5N)C4)c3)ccc2CC1C(=O)NC1CCCc2ccccc21)C(C)(C)C

> <Shape>
0.156

> <Color>
0.196

> <Negative vol penalty>
0.000

$$$$

  -OEChem-04052315443D

 82 90  0     1  0  0  0  0  0999 V2000
  -31.1929  -34.7210   22.2773 C   0  0  0  0  0  0  0  0  0  0  0  0
  -30.8233  -33.6201   21.5112 C   0  0  0  0  0  0  0  0  0  0  0  0
  -26.7543  -12.5689   21.6962 C   0  0  0  0  0  0  0  0  0  0  0  0
  -26.2729  -13.8888   19.7307 C   0  0  0  0  0  0  0  0  0  0  0  0
  -30.6338  -34.9091   23.5405 C   0  0  0  0  0  0  0  0  0  0  0  0
  -29.8951  -32.7060   22.0085 C   0  0  0  0  0  0  0  0  0  0  0  0
  -26.4153  -31.4039   18.5674 C   0  0  0  0  0  0  0  0  0  0  0  0
  -29.6816  -21.1788   18.5509 C   0  0  0  0  0  0  0  0  0  0  0  0
  -29.2501  -22.3593   17.9463 C   0  0  0  0  0  0  0  0  0  0  0  0
  -25.4290  -12.1353   21.7297 C   0  0  0  0  0  0  0  0  0  0  0  0
  -24.9475  -13.4551   19.7642 C   0  0  0  0  0  0  0  0  0  0  0  0
  -26.7954  -30.4787   17.5962 C   0  0  0  0  0  0  0  0  0  0  0  0
  -23.5107   -9.8618   20.1223 C   0  0  0  0  0  0  0  0  0  0  0  0
  -23.2783   -8.5036   20.3388 C   0  0  0  0  0  0  0  0  0  0  0  0
  -25.6871  -28.7312   18.8360 C   0  0  0  0  0  0  0  0  0  0  0  0
  -30.3176  -22.4212   20.5230 C   0  0  0  0  0  0  0  0  0  0  0  0
  -22.0274   -9.0359   22.3360 C   0  0  0  0  0  0  0  0  0  0  0  0
  -27.1762  -13.4457   20.6968 C   0  0  0  0  0  0  0  0  0  0  0  0
  -29.6221  -13.2865   19.9896 C   0  0  0  0  0  0  0  0  0  0  0  0
  -29.6910  -34.0020   24.0496 C   0  0  0  0  0  0  0  0  0  0  0  0
  -25.6764  -30.9971   19.6876 C   0  0  0  0  0  0  0  0  0  0  0  0
  -29.3238  -32.8814   23.2803 C   0  0  0  0  0  0  0  0  0  0  0  0
  -25.2968  -29.6536   19.8187 C   0  0  0  0  0  0  0  0  0  0  0  0
  -30.2154  -21.2097   19.8393 C   0  0  0  0  0  0  0  0  0  0  0  0
  -29.3524  -23.5709   18.6299 C   0  0  0  0  0  0  0  0  0  0  0  0
  -24.5256  -12.5783   20.7637 C   0  0  0  0  0  0  0  0  0  0  0  0
  -26.4337  -29.1416   17.7318 C   0  0  0  0  0  0  0  0  0  0  0  0
  -23.0015  -10.8071   21.0127 C   0  0  0  0  0  0  0  0  0  0  0  0
  -22.5367   -8.0906   21.4456 C   0  0  0  0  0  0  0  0  0  0  0  0
  -29.8861  -23.6018   19.9183 C   0  0  0  0  0  0  0  0  0  0  0  0
  -22.2599  -10.3942   22.1195 C   0  0  0  0  0  0  0  0  0  0  0  0
  -28.5450  -13.8945   20.6620 C   0  0  0  0  0  0  0  0  0  0  0  0
  -30.6989  -14.0930   20.2664 C   0  0  0  0  0  0  0  0  0  0  0  0
  -29.6471  -12.0990   19.1866 C   0  0  0  0  0  0  0  0  0  0  0  0
  -26.1780  -30.9972   22.8265 C   0  0  0  0  0  0  0  0  0  0  0  0
  -23.0936  -29.9976   22.9261 C   0  0  0  0  0  0  0  0  0  0  0  0
  -20.4888  -28.4742   21.3321 C   0  0  0  0  0  0  0  0  0  0  0  0
  -31.2075  -19.8654   21.7247 C   0  0  0  0  0  0  0  0  0  0  0  0
  -29.1494  -34.2217   25.4399 C   0  0  0  0  0  0  0  0  0  0  0  0
  -25.2514  -32.0123   20.7129 C   0  0  0  0  0  0  0  0  0  0  0  0
  -24.4863  -29.1695   20.9923 C   0  0  0  0  0  0  0  0  0  0  0  0
  -27.8924  -33.4091   25.7394 C   0  0  0  0  0  0  0  0  0  0  0  0
  -32.3775  -17.0814   23.6110 C   0  0  0  0  0  0  0  0  0  0  0  0
  -28.0717  -31.9628   25.2888 C   0  0  0  0  0  0  0  0  0  0  0  0
  -31.6300  -15.8921   23.0036 C   0  0  0  0  0  0  0  0  0  0  0  0
  -31.5052  -18.3346   23.6595 C   0  0  0  0  0  0  0  0  0  0  0  0
  -30.1436  -17.5241   21.7731 C   0  0  0  0  0  0  0  0  0  0  0  0
  -28.3016  -31.8812   23.7749 C   0  0  1  0  0  0  0  0  0  0  0  0
  -24.9403  -31.3942   22.0725 C   0  0  1  0  0  0  0  0  0  0  0  0
  -31.0028  -16.2558   21.6435 C   0  0  2  0  0  0  0  0  0  0  0  0
  -18.1063  -27.7683   21.6825 C   0  0  0  0  0  0  0  0  0  0  0  0
  -24.0428  -27.6419   24.6172 C   0  0  0  0  0  0  0  0  0  0  0  0
  -21.8637  -26.5075   24.1348 C   0  0  0  0  0  0  0  0  0  0  0  0
  -21.8934  -28.6714   25.3754 C   0  0  0  0  0  0  0  0  0  0  0  0
  -19.5291  -30.2134   19.1382 C   0  0  0  0  0  0  0  0  0  0  0  0
  -28.0484  -26.2406   16.3084 C   0  0  0  0  0  0  0  0  0  0  0  0
  -28.3609  -24.8011   16.6988 C   0  0  0  0  0  0  0  0  0  0  0  0
  -27.0150  -26.8932   17.2191 C   0  0  0  0  0  0  0  0  0  1  0  0
  -22.4034  -28.6553   22.8992 C   0  0  1  0  0  0  0  0  0  0  0  0
  -19.0303  -28.8679   21.1826 C   0  0  2  0  0  0  0  0  0  0  0  0
  -22.5678  -27.8775   24.2354 C   0  0  0  0  0  0  0  0  0  0  0  0
  -28.9047  -15.0017   21.3168 N   0  0  0  0  0  0  0  0  0  0  0  0
  -30.2200  -15.0958   21.0572 N   0  0  0  0  0  0  0  0  0  0  0  0
  -24.1003  -30.1991   21.9713 N   0  0  0  0  0  0  0  0  0  0  0  0
  -30.9487  -18.6199   22.3352 N   0  0  0  0  0  0  0  0  0  0  0  0
  -31.9991  -14.0352   19.9082 N   0  0  0  0  0  0  0  0  0  0  0  0
  -28.4517  -11.3903   19.0045 N   0  0  0  0  0  0  0  0  0  0  0  0
  -30.6540  -20.0102   20.4530 N   0  0  0  0  0  0  0  0  0  0  0  0
  -28.9235  -24.7427   18.0263 N   0  0  0  0  0  0  0  0  0  0  0  0
  -27.0510  -32.0415   23.0644 N   0  0  0  0  0  0  0  0  0  0  0  0
  -21.0173  -28.9164   22.5264 N   0  0  0  0  0  0  0  0  0  0  0  0
  -18.7103  -29.1365   19.7521 N   0  3  0  0  0  0  0  0  0  0  0  0
  -30.7016  -11.6697   18.6601 O   0  0  0  0  0  0  0  0  0  0  0  0
  -26.3289  -29.8301   23.1683 O   0  0  0  0  0  0  0  0  0  0  0  0
  -22.7472  -30.8391   23.7590 O   0  0  0  0  0  0  0  0  0  0  0  0
  -21.0972  -27.8349   20.4767 O   0  0  0  0  0  0  0  0  0  0  0  0
  -31.8940  -20.7287   22.2773 O   0  0  0  0  0  0  0  0  0  0  0  0
  -23.2324  -12.1552   20.7959 O   0  0  0  0  0  0  0  0  0  0  0  0
  -26.8039  -28.2363   16.7856 O   0  0  0  0  0  0  0  0  0  1  0  0
  -22.3123   -6.7864   21.6525 F   0  0  0  0  0  0  0  0  0  0  0  0
  -29.9905  -24.7611   20.5836 F   0  0  0  0  0  0  0  0  0  0  0  0
  -21.7671  -11.2977   22.9778 F   0  0  0  0  0  0  0  0  0  0  0  0
  1  2  1  0  0  0  0
  1  5  2  0  0  0  0
  2  6  2  0  0  0  0
  3 10  2  0  0  0  0
  3 18  1  0  0  0  0
  4 11  1  0  0  0  0
  4 18  2  0  0  0  0
  5 20  1  0  0  0  0
  6 22  1  0  0  0  0
  7 12  2  0  0  0  0
  7 21  1  0  0  0  0
  8  9  2  0  0  0  0
  8 24  1  0  0  0  0
  9 25  1  0  0  0  0
 10 26  1  0  0  0  0
 11 26  2  0  0  0  0
 12 27  1  0  0  0  0
 13 14  2  0  0  0  0
 13 28  1  0  0  0  0
 14 29  1  0  0  0  0
 15 23  1  0  0  0  0
 15 27  2  0  0  0  0
 16 24  2  0  0  0  0
 16 30  1  0  0  0  0
 17 29  2  0  0  0  0
 17 31  1  0  0  0  0
 18 32  1  0  0  0  0
 19 32  1  0  0  0  0
 19 33  2  0  0  0  0
 19 34  1  0  0  0  0
 20 22  2  0  0  0  0
 20 39  1  0  0  0  0
 21 23  2  0  0  0  0
 21 40  1  0  0  0  0
 22 48  1  0  0  0  0
 23 41  1  0  0  0  0
 24 68  1  0  0  0  0
 25 30  2  0  0  0  0
 25 69  1  0  0  0  0
 26 78  1  0  0  0  0
 27 79  1  0  0  0  0
 28 31  2  0  0  0  0
 28 78  1  0  0  0  0
 29 80  1  0  0  0  0
 30 81  1  0  0  0  0
 31 82  1  0  0  0  0
 32 62  2  0  0  0  0
 33 63  1  0  0  0  0
 33 66  1  0  0  0  0
 34 67  1  0  0  0  0
 34 73  2  0  0  0  0
 35 49  1  0  0  0  0
 35 70  1  0  0  0  0
 35 74  2  0  0  0  0
 36 59  1  0  0  0  0
 36 64  1  0  0  0  0
 36 75  2  0  0  0  0
 37 60  1  0  0  0  0
 37 71  1  0  0  0  0
 37 76  2  0  0  0  0
 38 65  1  0  0  0  0
 38 68  1  0  0  0  0
 38 77  2  0  0  0  0
 39 42  1  0  0  0  0
 40 49  1  0  0  0  0
 41 64  1  0  0  0  0
 42 44  1  0  0  0  0
 43 45  1  0  0  0  0
 43 46  1  0  0  0  0
 44 48  1  0  0  0  0
 45 50  1  0  0  0  0
 46 65  1  0  0  0  0
 47 50  1  0  0  0  0
 47 65  1  0  0  0  0
 48 70  1  0  0  0  0
 49 64  1  0  0  0  0
 50 63  1  0  0  0  0
 51 60  1  0  0  0  0
 52 61  1  0  0  0  0
 53 61  1  0  0  0  0
 54 61  1  0  0  0  0
 55 72  1  0  0  0  0
 56 57  1  0  0  0  0
 56 58  1  0  0  0  0
 57 69  1  0  0  0  0
 58 79  1  0  0  0  0
 59 61  1  0  0  0  0
 59 71  1  0  0  0  0
 60 72  1  0  0  0  0
 62 63  1  0  0  0  0
M  CHG  1  72   1
M  ISO  4  38 100  58 101  68 100  79 101
M  END
> <Batch ID>
0011

> <Smiles>
CNC(C)C(=O)NC(C(=O)N1Cc2cc([101O:1][101CH2:1]CCNc3ccc([100NH:0][100C:0](=O)N4CCCC(n5nc(-c6ccc(Oc7ccc(F)cc7F)cc6)c(C(N)=O)c5N)C4)cc3F)ccc2CC1C(=O)NC1CCCc2ccccc21)C(C)(C)C

> <Shape>
0.300

> <Color>
0.071

> <Negative vol penalty>
0.000

$$$$

  -OEChem-04052315443D

 83 91  0     1  0  0  0  0  0999 V2000
  -23.9434  -24.2189   31.5398 C   0  0  0  0  0  0  0  0  0  0  0  0
  -23.9019  -23.6241   30.2829 C   0  0  0  0  0  0  0  0  0  0  0  0
  -23.3617   -9.6900   19.9497 C   0  0  0  0  0  0  0  0  0  0  0  0
  -23.6688   -9.9740   22.3292 C   0  0  0  0  0  0  0  0  0  0  0  0
  -23.4038  -25.4909   31.7260 C   0  0  0  0  0  0  0  0  0  0  0  0
  -23.3197  -24.3006   29.2115 C   0  0  0  0  0  0  0  0  0  0  0  0
  -26.1053  -24.0195   24.9917 C   0  0  0  0  0  0  0  0  0  0  0  0
  -27.2238  -18.1026   18.9773 C   0  0  0  0  0  0  0  0  0  0  0  0
  -27.6408  -17.2168   17.9838 C   0  0  0  0  0  0  0  0  0  0  0  0
  -22.6397   -8.5196   20.1825 C   0  0  0  0  0  0  0  0  0  0  0  0
  -22.9467   -8.8036   22.5621 C   0  0  0  0  0  0  0  0  0  0  0  0
  -26.0430  -22.8309   24.2657 C   0  0  0  0  0  0  0  0  0  0  0  0
  -19.5100   -7.6729   21.1424 C   0  0  0  0  0  0  0  0  0  0  0  0
  -18.3235   -7.4911   20.4320 C   0  0  0  0  0  0  0  0  0  0  0  0
  -24.4908  -23.8570   22.7305 C   0  0  0  0  0  0  0  0  0  0  0  0
  -29.1336  -17.4906   20.3246 C   0  0  0  0  0  0  0  0  0  0  0  0
  -19.2171   -5.4694   19.4567 C   0  0  0  0  0  0  0  0  0  0  0  0
  -23.8764  -10.4172   21.0230 C   0  0  0  0  0  0  0  0  0  0  0  0
  -24.1142  -12.9355   20.6927 C   0  0  0  0  0  0  0  0  0  0  0  0
  -22.8233  -26.1873   30.6542 C   0  0  0  0  0  0  0  0  0  0  0  0
  -25.3510  -25.1343   24.5982 C   0  0  0  0  0  0  0  0  0  0  0  0
  -22.7706  -25.5826   29.3838 C   0  0  0  0  0  0  0  0  0  0  0  0
  -24.5472  -25.0594   23.4518 C   0  0  0  0  0  0  0  0  0  0  0  0
  -27.9702  -18.2395   20.1477 C   0  0  0  0  0  0  0  0  0  0  0  0
  -28.8042  -16.4679   18.1607 C   0  0  0  0  0  0  0  0  0  0  0  0
  -22.4321   -8.0764   21.4887 C   0  0  0  0  0  0  0  0  0  0  0  0
  -25.2335  -22.7486   23.1366 C   0  0  0  0  0  0  0  0  0  0  0  0
  -20.5502   -6.7530   21.0098 C   0  0  0  0  0  0  0  0  0  0  0  0
  -18.1770   -6.3893   19.5892 C   0  0  0  0  0  0  0  0  0  0  0  0
  -29.5506  -16.6048   19.3311 C   0  0  0  0  0  0  0  0  0  0  0  0
  -20.4037   -5.6512   20.1670 C   0  0  0  0  0  0  0  0  0  0  0  0
  -24.6229  -11.6260   20.7831 C   0  0  0  0  0  0  0  0  0  0  0  0
  -25.2186  -13.7175   20.4577 C   0  0  0  0  0  0  0  0  0  0  0  0
  -22.7640  -13.4033   20.8106 C   0  0  0  0  0  0  0  0  0  0  0  0
  -23.0272  -26.8513   25.9230 C   0  0  0  0  0  0  0  0  0  0  0  0
  -23.4450  -28.7188   23.3038 C   0  0  0  0  0  0  0  0  0  0  0  0
  -26.4211  -19.9540   21.1452 C   0  0  0  0  0  0  0  0  0  0  0  0
  -24.5121  -28.9810   20.0728 C   0  0  0  0  0  0  0  0  0  0  0  0
  -29.9541  -14.3732   17.3985 C   0  0  0  0  0  0  0  0  0  0  0  0
  -22.2106  -27.5407   30.9145 C   0  0  0  0  0  0  0  0  0  0  0  0
  -25.4498  -26.4174   25.3768 C   0  0  0  0  0  0  0  0  0  0  0  0
  -23.7335  -26.2340   22.9757 C   0  0  0  0  0  0  0  0  0  0  0  0
  -21.9471  -28.3446   29.6439 C   0  0  0  0  0  0  0  0  0  0  0  0
  -30.1494  -12.6661   20.6758 C   0  0  0  0  0  0  0  0  0  0  0  0
  -21.2719  -27.4721   28.5905 C   0  0  0  0  0  0  0  0  0  0  0  0
  -28.6964  -12.2780   20.9434 C   0  0  0  0  0  0  0  0  0  0  0  0
  -30.4520  -12.7325   19.1819 C   0  0  0  0  0  0  0  0  0  0  0  0
  -28.0780  -13.2511   18.6957 C   0  0  0  0  0  0  0  0  0  0  0  0
  -22.1696  -26.2947   28.1914 C   0  0  1  0  0  0  0  0  0  0  0  0
  -24.2429  -27.3297   25.1808 C   0  0  1  0  0  0  0  0  0  0  0  0
  -27.7373  -13.2167   20.1930 C   0  0  1  0  0  0  0  0  0  0  0  0
  -24.6903  -30.6238   18.1842 C   0  0  0  0  0  0  0  0  0  0  0  0
  -20.4518  -28.4393   22.7814 C   0  0  0  0  0  0  0  0  0  0  0  0
  -20.8525  -29.2614   20.4508 C   0  0  0  0  0  0  0  0  0  0  0  0
  -21.3680  -30.7343   22.3969 C   0  0  0  0  0  0  0  0  0  0  0  0
  -29.1417  -15.9937   15.7416 C   0  0  0  0  0  0  0  0  0  0  0  0
  -27.4610  -28.7442   19.9914 C   0  0  0  0  0  0  0  0  0  0  0  0
  -26.3347  -20.7644   22.4251 C   0  0  0  0  0  0  0  0  0  1  0  0
  -22.8623  -28.7535   21.9116 C   0  0  1  0  0  0  0  0  0  0  0  0
  -25.3934  -30.0067   19.3831 C   0  0  2  0  0  0  0  0  0  0  0  0
  -21.3974  -29.2742   21.8950 C   0  0  0  0  0  0  0  0  0  0  0  0
  -25.9474  -11.5750   20.6188 N   0  0  0  0  0  0  0  0  0  0  0  0
  -26.2803  -12.8621   20.4226 N   0  0  0  0  0  0  0  0  0  0  0  0
  -23.8588  -27.4645   23.7742 N   0  0  0  0  0  0  0  0  0  0  0  0
  -29.4948  -13.5819   18.4714 N   0  0  0  0  0  0  0  0  0  0  0  0
  -25.3754  -15.0465   20.2795 N   0  0  0  0  0  0  0  0  0  0  0  0
  -21.7508  -12.4656   21.0525 N   0  0  0  0  0  0  0  0  0  0  0  0
  -27.5469  -19.1376   21.1561 N   0  0  0  0  0  0  0  0  0  0  0  0
  -23.2103  -26.7363   27.2878 N   0  0  0  0  0  0  0  0  0  0  0  0
  -23.7857  -29.5414   21.1022 N   0  0  0  0  0  0  0  0  0  0  0  0
  -29.2327  -15.5524   17.1316 N   0  0  0  0  0  0  0  0  0  0  0  0
  -26.6562  -29.3711   18.9115 N   0  3  0  0  0  0  0  0  0  0  0  0
  -22.4628  -14.6148   20.6883 O   0  0  0  0  0  0  0  0  0  0  0  0
  -21.9986  -26.6062   25.3035 O   0  0  0  0  0  0  0  0  0  0  0  0
  -23.5363  -29.7672   23.9474 O   0  0  0  0  0  0  0  0  0  0  0  0
  -25.5762  -20.0560   20.2619 O   0  0  0  0  0  0  0  0  0  0  0  0
  -24.4692  -27.8015   19.7300 O   0  0  0  0  0  0  0  0  0  0  0  0
  -30.9075  -14.0260   16.6906 O   0  0  0  0  0  0  0  0  0  0  0  0
  -21.7273   -6.9344   21.7163 O   0  0  0  0  0  0  0  0  0  0  0  0
  -25.1704  -21.5895   22.4265 O   0  0  0  0  0  0  0  0  0  1  0  0
  -17.0369   -6.2141   18.9083 F   0  0  0  0  0  0  0  0  0  0  0  0
  -30.6697  -15.8890   19.5126 F   0  0  0  0  0  0  0  0  0  0  0  0
  -21.3990   -4.7635   20.0365 F   0  0  0  0  0  0  0  0  0  0  0  0
  1  2  1  0  0  0  0
  1  5  2  0  0  0  0
  2  6  2  0  0  0  0
  3 10  2  0  0  0  0
  3 18  1  0  0  0  0
  4 11  1  0  0  0  0
  4 18  2  0  0  0  0
  5 20  1  0  0  0  0
  6 22  1  0  0  0  0
  7 12  2  0  0  0  0
  7 21  1  0  0  0  0
  8  9  2  0  0  0  0
  8 24  1  0  0  0  0
  9 25  1  0  0  0  0
 10 26  1  0  0  0  0
 11 26  2  0  0  0  0
 12 27  1  0  0  0  0
 13 14  2  0  0  0  0
 13 28  1  0  0  0  0
 14 29  1  0  0  0  0
 15 23  1  0  0  0  0
 15 27  2  0  0  0  0
 16 24  2  0  0  0  0
 16 30  1  0  0  0  0
 17 29  2  0  0  0  0
 17 31  1  0  0  0  0
 18 32  1  0  0  0  0
 19 32  1  0  0  0  0
 19 33  2  0  0  0  0
 19 34  1  0  0  0  0
 20 22  2  0  0  0  0
 20 40  1  0  0  0  0
 21 23  2  0  0  0  0
 21 41  1  0  0  0  0
 22 49  1  0  0  0  0
 23 42  1  0  0  0  0
 24 68  1  0  0  0  0
 25 30  2  0  0  0  0
 25 71  1  0  0  0  0
 26 79  1  0  0  0  0
 27 80  1  0  0  0  0
 28 31  2  0  0  0  0
 28 79  1  0  0  0  0
 29 81  1  0  0  0  0
 30 82  1  0  0  0  0
 31 83  1  0  0  0  0
 32 62  2  0  0  0  0
 33 63  1  0  0  0  0
 33 66  1  0  0  0  0
 34 67  1  0  0  0  0
 34 73  2  0  0  0  0
 35 50  1  0  0  0  0
 35 69  1  0  0  0  0
 35 74  2  0  0  0  0
 36 59  1  0  0  0  0
 36 64  1  0  0  0  0
 36 75  2  0  0  0  0
 37 58  1  0  0  0  0
 37 68  1  0  0  0  0
 37 76  2  0  0  0  0
 38 60  1  0  0  0  0
 38 70  1  0  0  0  0
 38 77  2  0  0  0  0
 39 65  1  0  0  0  0
 39 71  1  0  0  0  0
 39 78  2  0  0  0  0
 40 43  1  0  0  0  0
 41 50  1  0  0  0  0
 42 64  1  0  0  0  0
 43 45  1  0  0  0  0
 44 46  1  0  0  0  0
 44 47  1  0  0  0  0
 45 49  1  0  0  0  0
 46 51  1  0  0  0  0
 47 65  1  0  0  0  0
 48 51  1  0  0  0  0
 48 65  1  0  0  0  0
 49 69  1  0  0  0  0
 50 64  1  0  0  0  0
 51 63  1  0  0  0  0
 52 60  1  0  0  0  0
 53 61  1  0  0  0  0
 54 61  1  0  0  0  0
 55 61  1  0  0  0  0
 56 71  1  0  0  0  0
 57 72  1  0  0  0  0
 58 80  1  0  0  0  0
 59 61  1  0  0  0  0
 59 70  1  0  0  0  0
 60 72  1  0  0  0  0
 62 63  1  0  0  0  0
M  CHG  1  72   1
M  ISO  4  39 100  58 101  71 100  80 101
M  END
> <Batch ID>
0011

> <Smiles>
CNC(C)C(=O)NC(C(=O)N1Cc2cc([101O:1][101CH2:1]C(=O)Nc3ccc([100N:0](C)[100C:0](=O)N4CCCC(n5nc(-c6ccc(Oc7ccc(F)cc7F)cc6)c(C(N)=O)c5N)C4)c(F)c3)ccc2CC1C(=O)NC1CCCc2ccccc21)C(C)(C)C

> <Shape>
0.213

> <Color>
0.179

> <Negative vol penalty>
0.000

$$$$

  -OEChem-04052315443D

 82 90  0     1  0  0  0  0  0999 V2000
  -29.4609  -33.9616   26.0651 C   0  0  0  0  0  0  0  0  0  0  0  0
  -29.6130  -32.8665   25.2207 C   0  0  0  0  0  0  0  0  0  0  0  0
  -24.6254   -9.0141   21.3663 C   0  0  0  0  0  0  0  0  0  0  0  0
  -23.3749  -10.8876   22.2399 C   0  0  0  0  0  0  0  0  0  0  0  0
  -28.2344  -34.1977   26.6847 C   0  0  0  0  0  0  0  0  0  0  0  0
  -28.5389  -32.0061   24.9963 C   0  0  0  0  0  0  0  0  0  0  0  0
  -27.2088  -29.0561   19.7969 C   0  0  0  0  0  0  0  0  0  0  0  0
  -28.2583  -19.0882   20.2571 C   0  0  0  0  0  0  0  0  0  0  0  0
  -27.8311  -20.4045   20.0827 C   0  0  0  0  0  0  0  0  0  0  0  0
  -24.0837   -8.1918   22.3542 C   0  0  0  0  0  0  0  0  0  0  0  0
  -22.8332  -10.0653   23.2279 C   0  0  0  0  0  0  0  0  0  0  0  0
  -27.4513  -27.7511   19.3704 C   0  0  0  0  0  0  0  0  0  0  0  0
  -21.1749   -6.5638   22.9211 C   0  0  0  0  0  0  0  0  0  0  0  0
  -20.7074   -5.3078   22.5345 C   0  0  0  0  0  0  0  0  0  0  0  0
  -25.2378  -27.1124   20.0857 C   0  0  0  0  0  0  0  0  0  0  0  0
  -26.2425  -18.5979   21.4954 C   0  0  0  0  0  0  0  0  0  0  0  0
  -22.2821   -4.2592   24.0373 C   0  0  0  0  0  0  0  0  0  0  0  0
  -24.2711  -10.3620   21.3092 C   0  0  0  0  0  0  0  0  0  0  0  0
  -24.3057  -11.4600   19.0068 C   0  0  0  0  0  0  0  0  0  0  0  0
  -27.1420  -33.3453   26.4602 C   0  0  0  0  0  0  0  0  0  0  0  0
  -25.9808  -29.3971   20.3819 C   0  0  0  0  0  0  0  0  0  0  0  0
  -27.2970  -32.2302   25.6146 C   0  0  0  0  0  0  0  0  0  0  0  0
  -24.9812  -28.4230   20.5164 C   0  0  0  0  0  0  0  0  0  0  0  0
  -27.4640  -18.1849   20.9633 C   0  0  0  0  0  0  0  0  0  0  0  0
  -26.6097  -20.8176   20.6148 C   0  0  0  0  0  0  0  0  0  0  0  0
  -23.1876   -8.7174   23.2850 C   0  0  0  0  0  0  0  0  0  0  0  0
  -26.4669  -26.7783   19.5174 C   0  0  0  0  0  0  0  0  0  0  0  0
  -22.1961   -6.6675   23.8657 C   0  0  0  0  0  0  0  0  0  0  0  0
  -21.2610   -4.1555   23.0926 C   0  0  0  0  0  0  0  0  0  0  0  0
  -25.8153  -19.9143   21.3211 C   0  0  0  0  0  0  0  0  0  0  0  0
  -22.7496   -5.5153   24.4238 C   0  0  0  0  0  0  0  0  0  0  0  0
  -24.8308  -11.2121   20.2892 C   0  0  0  0  0  0  0  0  0  0  0  0
  -25.2014  -12.3274   18.4309 C   0  0  0  0  0  0  0  0  0  0  0  0
  -23.1148  -10.9516   18.3912 C   0  0  0  0  0  0  0  0  0  0  0  0
  -25.0781  -30.4896   23.2271 C   0  0  0  0  0  0  0  0  0  0  0  0
  -22.1722  -30.6800   21.7983 C   0  0  0  0  0  0  0  0  0  0  0  0
  -26.8424  -23.1750   19.7648 C   0  0  0  0  0  0  0  0  0  0  0  0
  -20.0775  -29.5876   19.3354 C   0  0  0  0  0  0  0  0  0  0  0  0
  -29.0827  -16.2756   20.6787 C   0  0  0  0  0  0  0  0  0  0  0  0
  -25.8494  -33.6143   27.1893 C   0  0  0  0  0  0  0  0  0  0  0  0
  -25.7250  -30.8155   20.8123 C   0  0  0  0  0  0  0  0  0  0  0  0
  -23.6386  -28.7425   21.1196 C   0  0  0  0  0  0  0  0  0  0  0  0
  -24.6534  -32.8673   26.6047 C   0  0  0  0  0  0  0  0  0  0  0  0
  -29.8337  -13.5387   18.5288 C   0  0  0  0  0  0  0  0  0  0  0  0
  -25.0100  -31.4067   26.3474 C   0  0  0  0  0  0  0  0  0  0  0  0
  -28.5857  -12.6570   18.6148 C   0  0  0  0  0  0  0  0  0  0  0  0
  -30.1628  -14.1883   19.8717 C   0  0  0  0  0  0  0  0  0  0  0  0
  -27.8072  -14.0443   20.5786 C   0  0  0  0  0  0  0  0  0  0  0  0
  -26.1482  -31.2882   25.3267 C   0  0  1  0  0  0  0  0  0  0  0  0
  -24.6261  -30.9318   21.8641 C   0  0  1  0  0  0  0  0  0  0  0  0
  -27.3984  -13.4199   19.2345 C   0  0  2  0  0  0  0  0  0  0  0  0
  -17.7527  -29.9008   18.4441 C   0  0  0  0  0  0  0  0  0  0  0  0
  -21.0648  -29.0297   24.1135 C   0  0  0  0  0  0  0  0  0  0  0  0
  -19.0308  -28.5762   22.7259 C   0  0  0  0  0  0  0  0  0  0  0  0
  -19.5956  -30.9161   23.3806 C   0  0  0  0  0  0  0  0  0  0  0  0
  -21.0837  -30.5122   16.7103 C   0  0  0  0  0  0  0  0  0  0  0  0
  -26.0333  -24.4580   19.8076 C   0  0  0  0  0  0  0  0  0  1  0  0
  -20.9985  -29.7450   21.6336 C   0  0  1  0  0  0  0  0  0  0  0  0
  -19.2052  -30.3408   18.3474 C   0  0  2  0  0  0  0  0  0  0  0  0
  -20.1983  -29.5600   22.9538 C   0  0  0  0  0  0  0  0  0  0  0  0
  -25.9716  -11.8689   20.5151 N   0  0  0  0  0  0  0  0  0  0  0  0
  -26.1709  -12.5380   19.3668 N   0  0  0  0  0  0  0  0  0  0  0  0
  -23.4389  -30.1419   21.5309 N   0  0  0  0  0  0  0  0  0  0  0  0
  -28.9928  -14.8963   20.3958 N   0  0  0  0  0  0  0  0  0  0  0  0
  -25.2465  -12.9230   17.2202 N   0  0  0  0  0  0  0  0  0  0  0  0
  -22.3079  -10.0704   19.1238 N   0  0  0  0  0  0  0  0  0  0  0  0
  -26.1792  -22.1538   20.4367 N   0  0  0  0  0  0  0  0  0  0  0  0
  -27.8980  -16.8478   21.1411 N   0  0  0  0  0  0  0  0  0  0  0  0
  -25.6472  -31.4953   23.9848 N   0  0  0  0  0  0  0  0  0  0  0  0
  -20.2094  -30.2717   20.5253 N   0  0  0  0  0  0  0  0  0  0  0  0
  -19.6766  -30.1028   16.9539 N   0  3  0  0  0  0  0  0  0  0  0  0
  -22.7849  -11.2565   17.2200 O   0  0  0  0  0  0  0  0  0  0  0  0
  -24.9208  -29.3228   23.5668 O   0  0  0  0  0  0  0  0  0  0  0  0
  -21.9717  -31.8470   22.1444 O   0  0  0  0  0  0  0  0  0  0  0  0
  -27.9277  -23.1185   19.1961 O   0  0  0  0  0  0  0  0  0  0  0  0
  -20.5876  -28.4993   19.0788 O   0  0  0  0  0  0  0  0  0  0  0  0
  -30.1257  -16.9089   20.4965 O   0  0  0  0  0  0  0  0  0  0  0  0
  -22.6586   -7.9153   24.2490 O   0  0  0  0  0  0  0  0  0  0  0  0
  -26.7013  -25.5036   19.1026 O   0  0  0  0  0  0  0  0  0  1  0  0
  -20.8108   -2.9494   22.7225 F   0  0  0  0  0  0  0  0  0  0  0  0
  -24.6401  -20.3006   21.8382 F   0  0  0  0  0  0  0  0  0  0  0  0
  -23.7300   -5.6086   25.3326 F   0  0  0  0  0  0  0  0  0  0  0  0
  1  2  1  0  0  0  0
  1  5  2  0  0  0  0
  2  6  2  0  0  0  0
  3 10  2  0  0  0  0
  3 18  1  0  0  0  0
  4 11  1  0  0  0  0
  4 18  2  0  0  0  0
  5 20  1  0  0  0  0
  6 22  1  0  0  0  0
  7 12  2  0  0  0  0
  7 21  1  0  0  0  0
  8  9  2  0  0  0  0
  8 24  1  0  0  0  0
  9 25  1  0  0  0  0
 10 26  1  0  0  0  0
 11 26  2  0  0  0  0
 12 27  1  0  0  0  0
 13 14  2  0  0  0  0
 13 28  1  0  0  0  0
 14 29  1  0  0  0  0
 15 23  1  0  0  0  0
 15 27  2  0  0  0  0
 16 24  2  0  0  0  0
 16 30  1  0  0  0  0
 17 29  2  0  0  0  0
 17 31  1  0  0  0  0
 18 32  1  0  0  0  0
 19 32  1  0  0  0  0
 19 33  2  0  0  0  0
 19 34  1  0  0  0  0
 20 22  2  0  0  0  0
 20 40  1  0  0  0  0
 21 23  2  0  0  0  0
 21 41  1  0  0  0  0
 22 49  1  0  0  0  0
 23 42  1  0  0  0  0
 24 68  1  0  0  0  0
 25 30  2  0  0  0  0
 25 67  1  0  0  0  0
 26 78  1  0  0  0  0
 27 79  1  0  0  0  0
 28 31  2  0  0  0  0
 28 78  1  0  0  0  0
 29 80  1  0  0  0  0
 30 81  1  0  0  0  0
 31 82  1  0  0  0  0
 32 61  2  0  0  0  0
 33 62  1  0  0  0  0
 33 65  1  0  0  0  0
 34 66  1  0  0  0  0
 34 72  2  0  0  0  0
 35 50  1  0  0  0  0
 35 69  1  0  0  0  0
 35 73  2  0  0  0  0
 36 58  1  0  0  0  0
 36 63  1  0  0  0  0
 36 74  2  0  0  0  0
 37 57  1  0  0  0  0
 37 67  1  0  0  0  0
 37 75  2  0  0  0  0
 38 59  1  0  0  0  0
 38 70  1  0  0  0  0
 38 76  2  0  0  0  0
 39 64  1  0  0  0  0
 39 68  1  0  0  0  0
 39 77  2  0  0  0  0
 40 43  1  0  0  0  0
 41 50  1  0  0  0  0
 42 63  1  0  0  0  0
 43 45  1  0  0  0  0
 44 46  1  0  0  0  0
 44 47  1  0  0  0  0
 45 49  1  0  0  0  0
 46 51  1  0  0  0  0
 47 64  1  0  0  0  0
 48 51  1  0  0  0  0
 48 64  1  0  0  0  0
 49 69  1  0  0  0  0
 50 63  1  0  0  0  0
 51 62  1  0  0  0  0
 52 59  1  0  0  0  0
 53 60  1  0  0  0  0
 54 60  1  0  0  0  0
 55 60  1  0  0  0  0
 56 71  1  0  0  0  0
 57 79  1  0  0  0  0
 58 60  1  0  0  0  0
 58 70  1  0  0  0  0
 59 71  1  0  0  0  0
 61 62  1  0  0  0  0
M  CHG  1  71   1
M  ISO  4  39 100  57 101  68 100  79 101
M  END
> <Batch ID>
0011

> <Smiles>
CNC(C)C(=O)NC(C(=O)N1Cc2cc([101O:1][101CH2:1]C(=O)Nc3ccc([100NH:0][100C:0](=O)N4CCCC(n5nc(-c6ccc(Oc7ccc(F)cc7F)cc6)c(C(N)=O)c5N)C4)cc3F)ccc2CC1C(=O)NC1CCCc2ccccc21)C(C)(C)C

> <Shape>
0.309

> <Color>
0.101

> <Negative vol penalty>
0.000

$$$$

  -OEChem-04052315443D

 88 96  0     1  0  0  0  0  0999 V2000
  -28.3601  -11.9219   18.1645 C   0  0  0  0  0  0  0  0  0  0  0  0
  -28.0182  -13.2016   17.7392 C   0  0  0  0  0  0  0  0  0  0  0  0
  -30.8384  -24.7917   19.4432 C   0  0  0  0  0  0  0  0  0  0  0  0
  -28.8485  -23.4872   19.0238 C   0  0  0  0  0  0  0  0  0  0  0  0
  -27.6049  -11.2920   19.1528 C   0  0  0  0  0  0  0  0  0  0  0  0
  -26.9202  -13.8518   18.3012 C   0  0  0  0  0  0  0  0  0  0  0  0
  -26.3494  -19.8538   19.3765 C   0  0  0  0  0  0  0  0  0  0  0  0
  -31.5711  -23.6177   19.6178 C   0  0  0  0  0  0  0  0  0  0  0  0
  -29.5813  -22.3132   19.1983 C   0  0  0  0  0  0  0  0  0  0  0  0
  -25.7213  -20.8779   18.6691 C   0  0  0  0  0  0  0  0  0  0  0  0
  -30.7794  -20.4845   21.7774 C   0  0  0  0  0  0  0  0  0  0  0  0
  -30.2147  -19.4786   22.5614 C   0  0  0  0  0  0  0  0  0  0  0  0
  -23.7641  -20.6279   20.0569 C   0  0  0  0  0  0  0  0  0  0  0  0
  -21.0175  -28.0962   22.8272 C   0  0  0  0  0  0  0  0  0  0  0  0
  -19.9714  -25.9224   21.4261 C   0  0  0  0  0  0  0  0  0  0  0  0
  -30.2834  -17.9701   20.6754 C   0  0  0  0  0  0  0  0  0  0  0  0
  -29.4770  -24.7264   19.1462 C   0  0  0  0  0  0  0  0  0  0  0  0
  -28.5121  -26.6411   17.7640 C   0  0  0  0  0  0  0  0  0  0  0  0
  -26.5028  -11.9386   19.7342 C   0  0  0  0  0  0  0  0  0  0  0  0
  -25.6844  -19.2006   20.4241 C   0  0  0  0  0  0  0  0  0  0  0  0
  -26.1487  -13.2295   19.2973 C   0  0  0  0  0  0  0  0  0  0  0  0
  -24.3870  -19.5976   20.7778 C   0  0  0  0  0  0  0  0  0  0  0  0
  -19.6559  -27.8045   22.9078 C   0  0  0  0  0  0  0  0  0  0  0  0
  -21.8561  -27.3010   22.0460 C   0  0  0  0  0  0  0  0  0  0  0  0
  -19.1329  -26.7176   22.2073 C   0  0  0  0  0  0  0  0  0  0  0  0
  -30.9427  -22.3785   19.4954 C   0  0  0  0  0  0  0  0  0  0  0  0
  -24.4274  -21.2631   19.0074 C   0  0  0  0  0  0  0  0  0  0  0  0
  -31.0961  -20.2333   20.4423 C   0  0  0  0  0  0  0  0  0  0  0  0
  -21.3331  -26.2141   21.3455 C   0  0  0  0  0  0  0  0  0  0  0  0
  -29.9667  -18.2214   22.0105 C   0  0  0  0  0  0  0  0  0  0  0  0
  -30.8481  -18.9761   19.8914 C   0  0  0  0  0  0  0  0  0  0  0  0
  -28.7194  -25.9387   18.9663 C   0  0  0  0  0  0  0  0  0  0  0  0
  -27.7325  -27.7134   18.1229 C   0  0  0  0  0  0  0  0  0  0  0  0
  -28.9822  -26.3502   16.4411 C   0  0  0  0  0  0  0  0  0  0  0  0
  -24.7484  -16.2122   20.9693 C   0  0  0  0  0  0  0  0  0  0  0  0
  -23.9591  -17.4036   23.8813 C   0  0  0  0  0  0  0  0  0  0  0  0
  -23.1270  -20.1205   25.7715 C   0  0  0  0  0  0  0  0  0  0  0  0
  -23.9032  -28.6557   22.6122 C   0  0  0  0  0  0  0  0  0  0  0  0
  -25.6883  -11.1989   20.7656 C   0  0  0  0  0  0  0  0  0  0  0  0
  -26.3858  -18.1159   21.1948 C   0  0  0  0  0  0  0  0  0  0  0  0
  -23.6372  -18.9419   21.9076 C   0  0  0  0  0  0  0  0  0  0  0  0
  -24.7648  -12.1045   21.5764 C   0  0  0  0  0  0  0  0  0  0  0  0
  -26.7946  -30.5844   21.8394 C   0  0  0  0  0  0  0  0  0  0  0  0
  -24.0109  -13.0594   20.6562 C   0  0  0  0  0  0  0  0  0  0  0  0
  -27.5945  -29.6782   20.9007 C   0  0  0  0  0  0  0  0  0  0  0  0
  -26.0924  -29.7859   22.9363 C   0  0  0  0  0  0  0  0  0  0  0  0
  -26.0570  -27.7705   21.5200 C   0  0  0  0  0  0  0  0  0  0  0  0
  -24.9794  -13.9772   19.9005 C   0  0  1  0  0  0  0  0  0  0  0  0
  -25.4230  -17.1718   21.9083 C   0  0  1  0  0  0  0  0  0  0  0  0
  -26.7295  -28.5228   20.3601 C   0  0  2  0  0  0  0  0  0  0  0  0
  -18.7803  -28.6734   23.7508 C   0  0  0  0  0  0  0  0  0  0  0  0
  -16.9926  -21.6242   23.4865 C   0  0  0  0  0  0  0  0  0  0  0  0
  -22.5018  -20.7752   28.1120 C   0  0  0  0  0  0  0  0  0  0  0  0
  -21.1610  -16.2658   23.4495 C   0  0  0  0  0  0  0  0  0  0  0  0
  -20.3535  -17.7310   25.3121 C   0  0  0  0  0  0  0  0  0  0  0  0
  -22.0617  -15.9702   25.7637 C   0  0  0  0  0  0  0  0  0  0  0  0
  -16.8263  -26.9836   21.3302 C   0  0  0  0  0  0  0  0  0  0  0  0
  -25.4815  -21.8953   26.0280 C   0  0  0  0  0  0  0  0  0  0  0  0
  -16.8764  -23.0702   23.9427 C   0  0  0  0  0  0  0  0  0  0  0  0
  -17.4217  -24.0346   22.8869 C   0  0  0  0  0  0  0  0  0  0  0  0
  -22.8422  -24.4659   18.4755 C   0  0  0  0  0  0  0  0  0  0  0  0
  -17.2635  -25.4966   23.2913 C   0  0  0  0  0  0  0  0  0  0  0  0
  -22.8578  -23.0497   19.0293 C   0  0  0  0  0  0  0  0  0  1  0  0
  -21.8253  -25.3440   19.1877 C   0  0  0  0  0  0  0  0  0  0  0  0
  -22.7277  -18.0422   24.4771 C   0  0  1  0  0  0  0  0  0  0  0  0
  -23.6382  -20.6074   27.1154 C   0  0  2  0  0  0  0  0  0  0  0  0
  -21.5891  -17.0135   24.7280 C   0  0  0  0  0  0  0  0  0  0  0  0
  -28.1199  -26.5163   20.0109 N   0  0  0  0  0  0  0  0  0  0  0  0
  -27.5284  -27.5930   19.4660 N   0  0  0  0  0  0  0  0  0  0  0  0
  -24.3632  -17.8822   22.6269 N   0  0  0  0  0  0  0  0  0  0  0  0
  -25.2883  -28.7117   22.3495 N   0  0  0  0  0  0  0  0  0  0  0  0
  -27.2085  -28.7382   17.4174 N   0  0  0  0  0  0  0  0  0  0  0  0
  -29.7721  -25.2086   16.2487 N   0  0  0  0  0  0  0  0  0  0  0  0
  -23.2371  -27.6100   21.9740 N   0  0  0  0  0  0  0  0  0  0  0  0
  -25.4487  -15.0385   20.7653 N   0  0  0  0  0  0  0  0  0  0  0  0
  -23.1720  -18.7458   25.6754 N   0  0  0  0  0  0  0  0  0  0  0  0
  -17.7571  -26.4067   22.2782 N   0  0  3  0  0  0  0  0  0  0  0  0
  -24.3273  -21.9200   26.9629 N   0  3  0  0  0  0  0  0  0  0  0  0
  -28.7235  -27.0900   15.4617 O   0  0  0  0  0  0  0  0  0  0  0  0
  -23.6716  -16.5137   20.4681 O   0  0  0  0  0  0  0  0  0  0  0  0
  -24.5450  -16.5180   24.5090 O   0  0  0  0  0  0  0  0  0  0  0  0
  -22.7243  -20.8833   24.8959 O   0  0  0  0  0  0  0  0  0  0  0  0
  -23.3440  -29.4912   23.3272 O   0  0  0  0  0  0  0  0  0  0  0  0
  -31.6575  -21.2328   19.6654 O   0  0  0  0  0  0  0  0  0  0  0  0
  -23.8117  -22.2620   18.3181 O   0  0  0  0  0  0  0  0  0  1  0  0
  -22.1395  -25.4208   20.5716 O   0  0  0  0  0  0  0  0  0  0  0  0
  -29.4258  -17.2550   22.7639 F   0  0  0  0  0  0  0  0  0  0  0  0
  -31.1514  -18.7284   18.6098 F   0  0  0  0  0  0  0  0  0  0  0  0
  1  2  1  0  0  0  0
  1  5  2  0  0  0  0
  2  6  2  0  0  0  0
  3  8  2  0  0  0  0
  3 17  1  0  0  0  0
  4  9  1  0  0  0  0
  4 17  2  0  0  0  0
  5 19  1  0  0  0  0
  6 21  1  0  0  0  0
  7 10  2  0  0  0  0
  7 20  1  0  0  0  0
  8 26  1  0  0  0  0
  9 26  2  0  0  0  0
 10 27  1  0  0  0  0
 11 12  2  0  0  0  0
 11 28  1  0  0  0  0
 12 30  1  0  0  0  0
 13 22  1  0  0  0  0
 13 27  2  0  0  0  0
 14 23  1  0  0  0  0
 14 24  2  0  0  0  0
 15 25  1  0  0  0  0
 15 29  2  0  0  0  0
 16 30  2  0  0  0  0
 16 31  1  0  0  0  0
 17 32  1  0  0  0  0
 18 32  1  0  0  0  0
 18 33  2  0  0  0  0
 18 34  1  0  0  0  0
 19 21  2  0  0  0  0
 19 39  1  0  0  0  0
 20 22  2  0  0  0  0
 20 40  1  0  0  0  0
 21 48  1  0  0  0  0
 22 41  1  0  0  0  0
 23 25  2  0  0  0  0
 23 51  1  0  0  0  0
 24 29  1  0  0  0  0
 24 74  1  0  0  0  0
 25 77  1  0  0  0  0
 26 84  1  0  0  0  0
 27 85  1  0  0  0  0
 28 31  2  0  0  0  0
 28 84  1  0  0  0  0
 29 86  1  0  0  0  0
 30 87  1  0  0  0  0
 31 88  1  0  0  0  0
 32 68  2  0  0  0  0
 33 69  1  0  0  0  0
 33 72  1  0  0  0  0
 34 73  1  0  0  0  0
 34 79  2  0  0  0  0
 35 49  1  0  0  0  0
 35 75  1  0  0  0  0
 35 80  2  0  0  0  0
 36 65  1  0  0  0  0
 36 70  1  0  0  0  0
 36 81  2  0  0  0  0
 37 66  1  0  0  0  0
 37 76  1  0  0  0  0
 37 82  2  0  0  0  0
 38 71  1  0  0  0  0
 38 74  1  0  0  0  0
 38 83  2  0  0  0  0
 39 42  1  0  0  0  0
 40 49  1  0  0  0  0
 41 70  1  0  0  0  0
 42 44  1  0  0  0  0
 43 45  1  0  0  0  0
 43 46  1  0  0  0  0
 44 48  1  0  0  0  0
 45 50  1  0  0  0  0
 46 71  1  0  0  0  0
 47 50  1  0  0  0  0
 47 71  1  0  0  0  0
 48 75  1  0  0  0  0
 49 70  1  0  0  0  0
 50 69  1  0  0  0  0
 52 59  1  0  0  0  0
 53 66  1  0  0  0  0
 54 67  1  0  0  0  0
 55 67  1  0  0  0  0
 56 67  1  0  0  0  0
 57 77  1  0  0  0  0
 58 78  1  0  0  0  0
 59 60  1  0  0  0  0
 60 62  1  0  0  0  0
 61 63  1  0  0  0  0
 61 64  1  0  0  0  0
 62 77  1  0  0  0  0
 63 85  1  0  0  0  0
 64 86  1  0  0  0  0
 65 67  1  0  0  0  0
 65 76  1  0  0  0  0
 66 78  1  0  0  0  0
 68 69  1  0  0  0  0
M  CHG  1  78   1
M  ISO  4  38 100  63 101  74 100  85 101
M  END
> <Batch ID>
0011

> <Smiles>
CCCCN(C)c1cc(OCC[101CH2:1][101O:1]c2ccc3c(c2)CN(C(=O)C(NC(=O)C(C)NC)C(C)(C)C)C(C(=O)NC2CCCc4ccccc42)C3)c([100NH:0][100C:0](=O)N2CCCC(n3nc(-c4ccc(Oc5ccc(F)cc5F)cc4)c(C(N)=O)c3N)C2)cc1C

> <Shape>
0.215

> <Color>
0.067

> <Negative vol penalty>
0.000

$$$$

  -OEChem-04052315443D

 84 92  0     1  0  0  0  0  0999 V2000
  -20.8775  -34.9024   22.2022 C   0  0  0  0  0  0  0  0  0  0  0  0
  -22.0872  -34.3056   21.8620 C   0  0  0  0  0  0  0  0  0  0  0  0
  -24.6682  -12.2419   19.8167 C   0  0  0  0  0  0  0  0  0  0  0  0
  -25.5045  -13.2441   21.8497 C   0  0  0  0  0  0  0  0  0  0  0  0
  -19.9570  -34.2107   22.9885 C   0  0  0  0  0  0  0  0  0  0  0  0
  -22.3777  -33.0170   22.3089 C   0  0  0  0  0  0  0  0  0  0  0  0
  -25.5455  -28.7109   19.3209 C   0  0  0  0  0  0  0  0  0  0  0  0
  -25.3272  -11.0535   20.1314 C   0  0  0  0  0  0  0  0  0  0  0  0
  -26.1635  -12.0557   22.1645 C   0  0  0  0  0  0  0  0  0  0  0  0
  -26.8738  -28.2960   19.4047 C   0  0  0  0  0  0  0  0  0  0  0  0
  -26.4937   -7.6396   20.5785 C   0  0  0  0  0  0  0  0  0  0  0  0
  -25.7906   -6.4459   20.4172 C   0  0  0  0  0  0  0  0  0  0  0  0
  -26.2183  -26.5193   20.8990 C   0  0  0  0  0  0  0  0  0  0  0  0
  -27.7439  -21.0586   22.1426 C   0  0  0  0  0  0  0  0  0  0  0  0
  -28.5223  -22.0499   20.0815 C   0  0  0  0  0  0  0  0  0  0  0  0
  -24.1378   -7.2045   22.0078 C   0  0  0  0  0  0  0  0  0  0  0  0
  -24.7569  -13.3372   20.6758 C   0  0  0  0  0  0  0  0  0  0  0  0
  -22.7659  -14.9317   20.7099 C   0  0  0  0  0  0  0  0  0  0  0  0
  -20.2323  -32.9093   23.4372 C   0  0  0  0  0  0  0  0  0  0  0  0
  -24.5434  -28.0387   20.0354 C   0  0  0  0  0  0  0  0  0  0  0  0
  -21.4607  -32.3078   23.1031 C   0  0  0  0  0  0  0  0  0  0  0  0
  -24.8777  -26.9261   20.8205 C   0  0  0  0  0  0  0  0  0  0  0  0
  -28.7251  -21.7550   22.8482 C   0  0  0  0  0  0  0  0  0  0  0  0
  -29.6049  -22.5989   22.1704 C   0  0  0  0  0  0  0  0  0  0  0  0
  -27.6425  -21.2060   20.7593 C   0  0  0  0  0  0  0  0  0  0  0  0
  -29.5035  -22.7464   20.7870 C   0  0  0  0  0  0  0  0  0  0  0  0
  -26.0748  -10.9604   21.3053 C   0  0  0  0  0  0  0  0  0  0  0  0
  -27.2109  -27.2018   20.1960 C   0  0  0  0  0  0  0  0  0  0  0  0
  -26.0190   -8.6158   21.4545 C   0  0  0  0  0  0  0  0  0  0  0  0
  -24.6126   -6.2283   21.1319 C   0  0  0  0  0  0  0  0  0  0  0  0
  -24.8410   -8.3983   22.1691 C   0  0  0  0  0  0  0  0  0  0  0  0
  -24.0769  -14.5653   20.3510 C   0  0  0  0  0  0  0  0  0  0  0  0
  -22.5970  -16.1809   20.1646 C   0  0  0  0  0  0  0  0  0  0  0  0
  -21.7882  -14.2076   21.4686 C   0  0  0  0  0  0  0  0  0  0  0  0
  -22.4995  -28.8468   22.3317 C   0  0  0  0  0  0  0  0  0  0  0  0
  -21.3407  -25.8616   21.8134 C   0  0  0  0  0  0  0  0  0  0  0  0
  -30.0530  -24.9699   19.8772 C   0  0  0  0  0  0  0  0  0  0  0  0
  -21.9033  -22.6915   20.6818 C   0  0  0  0  0  0  0  0  0  0  0  0
  -26.4099  -20.5315   18.6683 C   0  0  0  0  0  0  0  0  0  0  0  0
  -19.2264  -32.2193   24.3243 C   0  0  0  0  0  0  0  0  0  0  0  0
  -23.1114  -28.4823   19.9133 C   0  0  0  0  0  0  0  0  0  0  0  0
  -23.8364  -26.1577   21.5913 C   0  0  0  0  0  0  0  0  0  0  0  0
  -19.4518  -30.7144   24.4449 C   0  0  0  0  0  0  0  0  0  0  0  0
  -24.0825  -18.9072   16.5184 C   0  0  0  0  0  0  0  0  0  0  0  0
  -20.9243  -30.4144   24.7072 C   0  0  0  0  0  0  0  0  0  0  0  0
  -23.6930  -17.6459   17.2926 C   0  0  0  0  0  0  0  0  0  0  0  0
  -25.5565  -19.2590   16.7119 C   0  0  0  0  0  0  0  0  0  0  0  0
  -25.6026  -18.0990   18.8848 C   0  0  0  0  0  0  0  0  0  0  0  0
  -21.8017  -30.9021   23.5480 C   0  0  1  0  0  0  0  0  0  0  0  0
  -22.2465  -28.0400   21.0896 C   0  0  1  0  0  0  0  0  0  0  0  0
  -24.1115  -17.7415   18.7729 C   0  0  2  0  0  0  0  0  0  0  0  0
  -28.8119  -21.5797   24.3293 C   0  0  0  0  0  0  0  0  0  0  0  0
  -30.6560  -23.3440   22.9324 C   0  0  0  0  0  0  0  0  0  0  0  0
  -20.7776  -20.4637   20.4224 C   0  0  0  0  0  0  0  0  0  0  0  0
  -21.6685  -25.3507   24.8036 C   0  0  0  0  0  0  0  0  0  0  0  0
  -21.4520  -22.9003   24.3378 C   0  0  0  0  0  0  0  0  0  0  0  0
  -19.5599  -24.4395   23.8145 C   0  0  0  0  0  0  0  0  0  0  0  0
  -31.6673  -23.0624   19.5428 C   0  0  0  0  0  0  0  0  0  0  0  0
  -22.2228  -22.7423   17.7400 C   0  0  0  0  0  0  0  0  0  0  0  0
  -28.7380  -25.4054   20.5074 C   0  0  0  0  0  0  0  0  0  1  0  0
  -21.6342  -24.4894   22.3699 C   0  0  1  0  0  0  0  0  0  0  0  0
  -21.0989  -21.7938   19.7589 C   0  0  2  0  0  0  0  0  0  0  0  0
  -21.0988  -24.3104   23.8186 C   0  0  0  0  0  0  0  0  0  0  0  0
  -24.6968  -15.5056   19.6330 N   0  0  0  0  0  0  0  0  0  0  0  0
  -23.7712  -16.4752   19.5363 N   0  0  0  0  0  0  0  0  0  0  0  0
  -22.4511  -26.6342   21.4445 N   0  0  0  0  0  0  0  0  0  0  0  0
  -25.8789  -19.3365   18.1384 N   0  0  0  0  0  0  0  0  0  0  0  0
  -21.5600  -17.0453   20.1658 N   0  0  0  0  0  0  0  0  0  0  0  0
  -22.1264  -12.9373   21.9548 N   0  0  0  0  0  0  0  0  0  0  0  0
  -26.6464  -20.4979   20.0422 N   0  0  0  0  0  0  0  0  0  0  0  0
  -21.7210  -29.9840   22.4322 N   0  0  0  0  0  0  0  0  0  0  0  0
  -21.0908  -23.5347   21.4098 N   0  0  0  0  0  0  0  0  0  0  0  0
  -30.4077  -23.6166   20.0626 N   0  0  0  0  0  0  0  0  0  0  0  0
  -21.8605  -21.5226   18.5069 N   0  3  0  0  0  0  0  0  0  0  0  0
  -20.6427  -14.6663   21.6942 O   0  0  0  0  0  0  0  0  0  0  0  0
  -23.3378  -28.4649   23.1398 O   0  0  0  0  0  0  0  0  0  0  0  0
  -20.1692  -26.2316   21.7031 O   0  0  0  0  0  0  0  0  0  0  0  0
  -30.7324  -25.8096   19.2814 O   0  0  0  0  0  0  0  0  0  0  0  0
  -23.1294  -22.6464   20.7527 O   0  0  0  0  0  0  0  0  0  0  0  0
  -26.6126  -21.5215   17.9606 O   0  0  0  0  0  0  0  0  0  0  0  0
  -26.7178   -9.8008   21.6129 O   0  0  0  0  0  0  0  0  0  0  0  0
  -28.5068  -26.7951   20.2801 O   0  0  0  0  0  0  0  0  0  1  0  0
  -23.9367   -5.0824   20.9757 F   0  0  0  0  0  0  0  0  0  0  0  0
  -24.3794   -9.3329   23.0113 F   0  0  0  0  0  0  0  0  0  0  0  0
  1  2  1  0  0  0  0
  1  5  2  0  0  0  0
  2  6  2  0  0  0  0
  3  8  2  0  0  0  0
  3 17  1  0  0  0  0
  4  9  1  0  0  0  0
  4 17  2  0  0  0  0
  5 19  1  0  0  0  0
  6 21  1  0  0  0  0
  7 10  2  0  0  0  0
  7 20  1  0  0  0  0
  8 27  1  0  0  0  0
  9 27  2  0  0  0  0
 10 28  1  0  0  0  0
 11 12  2  0  0  0  0
 11 29  1  0  0  0  0
 12 30  1  0  0  0  0
 13 22  1  0  0  0  0
 13 28  2  0  0  0  0
 14 23  2  0  0  0  0
 14 25  1  0  0  0  0
 15 25  2  0  0  0  0
 15 26  1  0  0  0  0
 16 30  2  0  0  0  0
 16 31  1  0  0  0  0
 17 32  1  0  0  0  0
 18 32  1  0  0  0  0
 18 33  2  0  0  0  0
 18 34  1  0  0  0  0
 19 21  2  0  0  0  0
 19 40  1  0  0  0  0
 20 22  2  0  0  0  0
 20 41  1  0  0  0  0
 21 49  1  0  0  0  0
 22 42  1  0  0  0  0
 23 24  1  0  0  0  0
 23 52  1  0  0  0  0
 24 26  2  0  0  0  0
 24 53  1  0  0  0  0
 25 70  1  0  0  0  0
 26 73  1  0  0  0  0
 27 81  1  0  0  0  0
 28 82  1  0  0  0  0
 29 31  2  0  0  0  0
 29 81  1  0  0  0  0
 30 83  1  0  0  0  0
 31 84  1  0  0  0  0
 32 64  2  0  0  0  0
 33 65  1  0  0  0  0
 33 68  1  0  0  0  0
 34 69  1  0  0  0  0
 34 75  2  0  0  0  0
 35 50  1  0  0  0  0
 35 71  1  0  0  0  0
 35 76  2  0  0  0  0
 36 61  1  0  0  0  0
 36 66  1  0  0  0  0
 36 77  2  0  0  0  0
 37 60  1  0  0  0  0
 37 73  1  0  0  0  0
 37 78  2  0  0  0  0
 38 62  1  0  0  0  0
 38 72  1  0  0  0  0
 38 79  2  0  0  0  0
 39 67  1  0  0  0  0
 39 70  1  0  0  0  0
 39 80  2  0  0  0  0
 40 43  1  0  0  0  0
 41 50  1  0  0  0  0
 42 66  1  0  0  0  0
 43 45  1  0  0  0  0
 44 46  1  0  0  0  0
 44 47  1  0  0  0  0
 45 49  1  0  0  0  0
 46 51  1  0  0  0  0
 47 67  1  0  0  0  0
 48 51  1  0  0  0  0
 48 67  1  0  0  0  0
 49 71  1  0  0  0  0
 50 66  1  0  0  0  0
 51 65  1  0  0  0  0
 54 62  1  0  0  0  0
 55 63  1  0  0  0  0
 56 63  1  0  0  0  0
 57 63  1  0  0  0  0
 58 73  1  0  0  0  0
 59 74  1  0  0  0  0
 60 82  1  0  0  0  0
 61 63  1  0  0  0  0
 61 72  1  0  0  0  0
 62 74  1  0  0  0  0
 64 65  1  0  0  0  0
M  CHG  1  74   1
M  ISO  4  39 100  60 101  70 100  82 101
M  END
> <Batch ID>
0011

> <Smiles>
CNC(C)C(=O)NC(C(=O)N1Cc2cc([101O:1][101CH2:1]C(=O)N(C)c3cc([100NH:0][100C:0](=O)N4CCCC(n5nc(-c6ccc(Oc7ccc(F)cc7F)cc6)c(C(N)=O)c5N)C4)cc(C)c3C)ccc2CC1C(=O)NC1CCCc2ccccc21)C(C)(C)C

> <Shape>
0.186

> <Color>
0.117

> <Negative vol penalty>
0.000

$$$$

  -OEChem-04052315443D

 85 93  0     1  0  0  0  0  0999 V2000
  -26.9220  -38.0111   23.7450 C   0  0  0  0  0  0  0  0  0  0  0  0
  -27.5883  -37.1319   22.8974 C   0  0  0  0  0  0  0  0  0  0  0  0
  -24.8010   -9.1457   20.9678 C   0  0  0  0  0  0  0  0  0  0  0  0
  -25.8358  -10.0104   22.9724 C   0  0  0  0  0  0  0  0  0  0  0  0
  -26.1099  -37.5147   24.7638 C   0  0  0  0  0  0  0  0  0  0  0  0
  -27.4437  -35.7557   23.0688 C   0  0  0  0  0  0  0  0  0  0  0  0
  -27.2566  -29.6524   19.3229 C   0  0  0  0  0  0  0  0  0  0  0  0
  -28.8114  -19.9459   20.6415 C   0  0  0  0  0  0  0  0  0  0  0  0
  -28.9741  -21.1711   21.2879 C   0  0  0  0  0  0  0  0  0  0  0  0
  -24.8869   -7.8518   21.4815 C   0  0  0  0  0  0  0  0  0  0  0  0
  -25.9217   -8.7165   23.4862 C   0  0  0  0  0  0  0  0  0  0  0  0
  -27.8499  -28.3912   19.2884 C   0  0  0  0  0  0  0  0  0  0  0  0
  -23.2110   -5.9405   23.7111 C   0  0  0  0  0  0  0  0  0  0  0  0
  -22.0888   -5.1205   23.5934 C   0  0  0  0  0  0  0  0  0  0  0  0
  -26.3581  -27.6484   21.0325 C   0  0  0  0  0  0  0  0  0  0  0  0
  -23.3801   -3.5389   22.3017 C   0  0  0  0  0  0  0  0  0  0  0  0
  -25.2755  -10.2250   21.7132 C   0  0  0  0  0  0  0  0  0  0  0  0
  -24.1239  -12.4705   21.3402 C   0  0  0  0  0  0  0  0  0  0  0  0
  -25.9477  -36.1317   24.9417 C   0  0  0  0  0  0  0  0  0  0  0  0
  -26.2152  -29.9248   20.2215 C   0  0  0  0  0  0  0  0  0  0  0  0
  -26.6297  -35.2402   24.0918 C   0  0  0  0  0  0  0  0  0  0  0  0
  -25.7516  -28.9131   21.0746 C   0  0  0  0  0  0  0  0  0  0  0  0
  -27.6646  -19.1848   20.8677 C   0  0  0  0  0  0  0  0  0  0  0  0
  -27.9901  -21.6353   22.1607 C   0  0  0  0  0  0  0  0  0  0  0  0
  -25.4473   -7.6371   22.7407 C   0  0  0  0  0  0  0  0  0  0  0  0
  -27.4026  -27.3899   20.1453 C   0  0  0  0  0  0  0  0  0  0  0  0
  -24.4177   -5.5598   23.1240 C   0  0  0  0  0  0  0  0  0  0  0  0
  -26.6805  -19.6489   21.7405 C   0  0  0  0  0  0  0  0  0  0  0  0
  -22.1734   -3.9196   22.8888 C   0  0  0  0  0  0  0  0  0  0  0  0
  -24.5022   -4.3590   22.4194 C   0  0  0  0  0  0  0  0  0  0  0  0
  -26.8432  -20.8742   22.3870 C   0  0  0  0  0  0  0  0  0  0  0  0
  -25.1875  -11.5618   21.1828 C   0  0  0  0  0  0  0  0  0  0  0  0
  -24.5238  -13.5898   20.6519 C   0  0  0  0  0  0  0  0  0  0  0  0
  -22.8851  -12.3167   22.0455 C   0  0  0  0  0  0  0  0  0  0  0  0
  -25.8164  -31.9369   22.6497 C   0  0  0  0  0  0  0  0  0  0  0  0
  -22.7844  -30.7850   22.5981 C   0  0  0  0  0  0  0  0  0  0  0  0
  -20.6625  -28.2496   21.7518 C   0  0  0  0  0  0  0  0  0  0  0  0
  -28.4003  -17.3524   19.3033 C   0  0  0  0  0  0  0  0  0  0  0  0
  -25.0968  -35.6419   26.0867 C   0  0  0  0  0  0  0  0  0  0  0  0
  -25.5678  -31.2825   20.2277 C   0  0  0  0  0  0  0  0  0  0  0  0
  -24.6230  -29.1485   22.0439 C   0  0  0  0  0  0  0  0  0  0  0  0
  -24.7002  -34.1728   25.9658 C   0  0  0  0  0  0  0  0  0  0  0  0
  -28.4049  -14.2944   17.4797 C   0  0  0  0  0  0  0  0  0  0  0  0
  -25.9099  -33.3223   25.5915 C   0  0  0  0  0  0  0  0  0  0  0  0
  -27.4808  -13.3856   18.2935 C   0  0  0  0  0  0  0  0  0  0  0  0
  -29.2404  -15.2045   18.3783 C   0  0  0  0  0  0  0  0  0  0  0  0
  -27.5477  -15.0836   20.1642 C   0  0  0  0  0  0  0  0  0  0  0  0
  -26.4785  -33.7409   24.2303 C   0  0  1  0  0  0  0  0  0  0  0  0
  -24.8596  -31.6008   21.5410 C   0  0  1  0  0  0  0  0  0  0  0  0
  -26.6389  -14.1941   19.3001 C   0  0  2  0  0  0  0  0  0  0  0  0
  -18.2469  -27.5800   21.8708 C   0  0  0  0  0  0  0  0  0  0  0  0
  -23.1103  -30.1453   25.5637 C   0  0  0  0  0  0  0  0  0  0  0  0
  -21.1032  -28.6586   25.3922 C   0  0  0  0  0  0  0  0  0  0  0  0
  -20.8853  -31.1024   24.9413 C   0  0  0  0  0  0  0  0  0  0  0  0
  -27.1240  -23.3561   23.7255 C   0  0  0  0  0  0  0  0  0  0  0  0
  -20.4385  -28.1004   18.8045 C   0  0  0  0  0  0  0  0  0  0  0  0
  -25.5973  -17.9867   23.0518 C   0  0  0  0  0  0  0  0  0  0  0  0
  -29.2139  -24.4986   21.3320 C   0  0  0  0  0  0  0  0  0  0  0  0
  -29.3367  -23.6720   22.6064 C   0  0  0  0  0  0  0  0  0  0  0  0
  -27.9984  -25.4182   21.3342 C   0  0  0  0  0  0  0  0  0  1  0  0
  -22.0674  -29.6321   23.2582 C   0  0  1  0  0  0  0  0  0  0  0  0
  -19.3244  -28.2530   21.0348 C   0  0  2  0  0  0  0  0  0  0  0  0
  -21.8141  -29.8804   24.7720 C   0  0  0  0  0  0  0  0  0  0  0  0
  -26.1879  -12.0606   20.4518 N   0  0  0  0  0  0  0  0  0  0  0  0
  -25.7546  -13.2949   20.1436 N   0  0  0  0  0  0  0  0  0  0  0  0
  -24.0267  -30.4943   22.0166 N   0  0  0  0  0  0  0  0  0  0  0  0
  -28.3757  -15.9417   19.3022 N   0  0  0  0  0  0  0  0  0  0  0  0
  -23.9393  -14.7877   20.4378 N   0  0  0  0  0  0  0  0  0  0  0  0
  -22.6342  -11.1020   22.6980 N   0  0  0  0  0  0  0  0  0  0  0  0
  -27.5120  -17.9439   20.2009 N   0  0  0  0  0  0  0  0  0  0  0  0
  -25.6629  -33.2128   23.1578 N   0  0  0  0  0  0  0  0  0  0  0  0
  -20.8552  -29.4053   22.4789 N   0  0  0  0  0  0  0  0  0  0  0  0
  -28.1560  -22.8675   22.8091 N   0  0  3  0  0  0  0  0  0  0  0  0
  -19.4311  -27.5305   19.7357 N   0  3  0  0  0  0  0  0  0  0  0  0
  -22.0190  -13.2234   22.0818 O   0  0  0  0  0  0  0  0  0  0  0  0
  -26.6324  -31.1002   23.0180 O   0  0  0  0  0  0  0  0  0  0  0  0
  -22.2583  -31.9007   22.5922 O   0  0  0  0  0  0  0  0  0  0  0  0
  -21.4556  -27.3137   21.6776 O   0  0  0  0  0  0  0  0  0  0  0  0
  -29.1344  -17.9892   18.5433 O   0  0  0  0  0  0  0  0  0  0  0  0
  -25.5311   -6.3747   23.2425 O   0  0  0  0  0  0  0  0  0  0  0  0
  -25.5528  -18.9198   21.9746 O   0  0  0  0  0  0  0  0  0  0  0  0
  -27.9803  -26.1581   20.1141 O   0  0  0  0  0  0  0  0  0  1  0  0
  -21.0961   -3.1315   22.7771 F   0  0  0  0  0  0  0  0  0  0  0  0
  -25.6591   -3.9874   21.8543 F   0  0  0  0  0  0  0  0  0  0  0  0
  -25.8955  -21.3162   23.2271 F   0  0  0  0  0  0  0  0  0  0  0  0
  1  2  1  0  0  0  0
  1  5  2  0  0  0  0
  2  6  2  0  0  0  0
  3 10  2  0  0  0  0
  3 17  1  0  0  0  0
  4 11  1  0  0  0  0
  4 17  2  0  0  0  0
  5 19  1  0  0  0  0
  6 21  1  0  0  0  0
  7 12  2  0  0  0  0
  7 20  1  0  0  0  0
  8  9  2  0  0  0  0
  8 23  1  0  0  0  0
  9 24  1  0  0  0  0
 10 25  1  0  0  0  0
 11 25  2  0  0  0  0
 12 26  1  0  0  0  0
 13 14  2  0  0  0  0
 13 27  1  0  0  0  0
 14 29  1  0  0  0  0
 15 22  1  0  0  0  0
 15 26  2  0  0  0  0
 16 29  2  0  0  0  0
 16 30  1  0  0  0  0
 17 32  1  0  0  0  0
 18 32  1  0  0  0  0
 18 33  2  0  0  0  0
 18 34  1  0  0  0  0
 19 21  2  0  0  0  0
 19 39  1  0  0  0  0
 20 22  2  0  0  0  0
 20 40  1  0  0  0  0
 21 48  1  0  0  0  0
 22 41  1  0  0  0  0
 23 28  2  0  0  0  0
 23 70  1  0  0  0  0
 24 31  2  0  0  0  0
 24 73  1  0  0  0  0
 25 80  1  0  0  0  0
 26 82  1  0  0  0  0
 27 30  2  0  0  0  0
 27 80  1  0  0  0  0
 28 31  1  0  0  0  0
 28 81  1  0  0  0  0
 29 83  1  0  0  0  0
 30 84  1  0  0  0  0
 31 85  1  0  0  0  0
 32 64  2  0  0  0  0
 33 65  1  0  0  0  0
 33 68  1  0  0  0  0
 34 69  1  0  0  0  0
 34 75  2  0  0  0  0
 35 49  1  0  0  0  0
 35 71  1  0  0  0  0
 35 76  2  0  0  0  0
 36 61  1  0  0  0  0
 36 66  1  0  0  0  0
 36 77  2  0  0  0  0
 37 62  1  0  0  0  0
 37 72  1  0  0  0  0
 37 78  2  0  0  0  0
 38 67  1  0  0  0  0
 38 70  1  0  0  0  0
 38 79  2  0  0  0  0
 39 42  1  0  0  0  0
 40 49  1  0  0  0  0
 41 66  1  0  0  0  0
 42 44  1  0  0  0  0
 43 45  1  0  0  0  0
 43 46  1  0  0  0  0
 44 48  1  0  0  0  0
 45 50  1  0  0  0  0
 46 67  1  0  0  0  0
 47 50  1  0  0  0  0
 47 67  1  0  0  0  0
 48 71  1  0  0  0  0
 49 66  1  0  0  0  0
 50 65  1  0  0  0  0
 51 62  1  0  0  0  0
 52 63  1  0  0  0  0
 53 63  1  0  0  0  0
 54 63  1  0  0  0  0
 55 73  1  0  0  0  0
 56 74  1  0  0  0  0
 57 81  1  0  0  0  0
 58 59  1  0  0  0  0
 58 60  1  0  0  0  0
 59 73  1  0  0  0  0
 60 82  1  0  0  0  0
 61 63  1  0  0  0  0
 61 72  1  0  0  0  0
 62 74  1  0  0  0  0
 64 65  1  0  0  0  0
M  CHG  1  74   1
M  ISO  4  38 100  60 101  70 100  82 101
M  END
> <Batch ID>
0011

> <Smiles>
CNC(C)C(=O)NC(C(=O)N1Cc2cc([101O:1][101CH2:1]CCN(C)c3ccc([100NH:0][100C:0](=O)N4CCCC(n5nc(-c6ccc(Oc7ccc(F)cc7F)cc6)c(C(N)=O)c5N)C4)c(OC)c3F)ccc2CC1C(=O)NC1CCCc2ccccc21)C(C)(C)C

> <Shape>
0.312

> <Color>
0.100

> <Negative vol penalty>
0.000

$$$$

  -OEChem-04052315443D

 83 91  0     1  0  0  0  0  0999 V2000
  -28.5618  -37.4137   22.9228 C   0  0  0  0  0  0  0  0  0  0  0  0
  -28.7746  -36.4628   21.9299 C   0  0  0  0  0  0  0  0  0  0  0  0
  -24.1215   -9.5921   22.0474 C   0  0  0  0  0  0  0  0  0  0  0  0
  -22.3991  -10.3380   20.5262 C   0  0  0  0  0  0  0  0  0  0  0  0
  -28.0386  -37.0273   24.1560 C   0  0  0  0  0  0  0  0  0  0  0  0
  -28.4653  -35.1245   22.1701 C   0  0  0  0  0  0  0  0  0  0  0  0
  -26.1095  -29.2499   18.8151 C   0  0  0  0  0  0  0  0  0  0  0  0
  -23.5764   -8.3083   22.0351 C   0  0  0  0  0  0  0  0  0  0  0  0
  -21.8540   -9.0541   20.5139 C   0  0  0  0  0  0  0  0  0  0  0  0
  -26.4450  -27.9099   18.6260 C   0  0  0  0  0  0  0  0  0  0  0  0
  -22.4257   -4.9206   22.6857 C   0  0  0  0  0  0  0  0  0  0  0  0
  -22.2867   -4.2617   23.9072 C   0  0  0  0  0  0  0  0  0  0  0  0
  -25.4721  -27.3706   20.7665 C   0  0  0  0  0  0  0  0  0  0  0  0
  -23.8386  -21.1947   21.2159 C   0  0  0  0  0  0  0  0  0  0  0  0
  -24.6585  -21.1740   18.5494 C   0  0  0  0  0  0  0  0  0  0  0  0
  -20.8409   -6.0292   24.6961 C   0  0  0  0  0  0  0  0  0  0  0  0
  -23.5328  -10.6071   21.2930 C   0  0  0  0  0  0  0  0  0  0  0  0
  -25.0805  -12.4476   20.4417 C   0  0  0  0  0  0  0  0  0  0  0  0
  -27.7137  -35.6850   24.4081 C   0  0  0  0  0  0  0  0  0  0  0  0
  -25.4614  -29.6627   19.9881 C   0  0  0  0  0  0  0  0  0  0  0  0
  -27.9385  -34.7194   23.4083 C   0  0  0  0  0  0  0  0  0  0  0  0
  -25.1271  -28.7160   20.9669 C   0  0  0  0  0  0  0  0  0  0  0  0
  -23.9677  -19.9840   20.5354 C   0  0  0  0  0  0  0  0  0  0  0  0
  -22.4427   -8.0392   21.2683 C   0  0  0  0  0  0  0  0  0  0  0  0
  -26.1289  -26.9705   19.6031 C   0  0  0  0  0  0  0  0  0  0  0  0
  -21.7723   -6.1339   22.4694 C   0  0  0  0  0  0  0  0  0  0  0  0
  -24.1194  -22.3951   20.5632 C   0  0  0  0  0  0  0  0  0  0  0  0
  -24.5294  -22.3847   19.2300 C   0  0  0  0  0  0  0  0  0  0  0  0
  -21.4943   -4.8160   24.9124 C   0  0  0  0  0  0  0  0  0  0  0  0
  -20.9799   -6.6882   23.4746 C   0  0  0  0  0  0  0  0  0  0  0  0
  -24.3776  -19.9736   19.2022 C   0  0  0  0  0  0  0  0  0  0  0  0
  -24.0951  -11.9336   21.3058 C   0  0  0  0  0  0  0  0  0  0  0  0
  -25.2665  -13.7413   20.8640 C   0  0  0  0  0  0  0  0  0  0  0  0
  -25.7662  -11.8125   19.3545 C   0  0  0  0  0  0  0  0  0  0  0  0
  -26.1804  -31.6394   22.3712 C   0  0  0  0  0  0  0  0  0  0  0  0
  -23.1377  -31.0036   23.2987 C   0  0  0  0  0  0  0  0  0  0  0  0
  -20.4689  -28.8780   23.2192 C   0  0  0  0  0  0  0  0  0  0  0  0
  -23.2547  -18.6514   22.5509 C   0  0  0  0  0  0  0  0  0  0  0  0
  -27.1947  -35.3078   25.7730 C   0  0  0  0  0  0  0  0  0  0  0  0
  -25.0825  -31.1075   20.1650 C   0  0  0  0  0  0  0  0  0  0  0  0
  -24.4135  -29.1045   22.2350 C   0  0  0  0  0  0  0  0  0  0  0  0
  -26.5429  -33.9281   25.8168 C   0  0  0  0  0  0  0  0  0  0  0  0
  -23.6285  -16.1164   25.0230 C   0  0  0  0  0  0  0  0  0  0  0  0
  -27.4167  -32.9019   25.1025 C   0  0  0  0  0  0  0  0  0  0  0  0
  -23.8642  -14.8445   24.2052 C   0  0  0  0  0  0  0  0  0  0  0  0
  -22.6274  -17.0497   24.3442 C   0  0  0  0  0  0  0  0  0  0  0  0
  -23.1758  -16.1150   22.1318 C   0  0  0  0  0  0  0  0  0  0  0  0
  -27.5923  -33.2619   23.6222 C   0  0  1  0  0  0  0  0  0  0  0  0
  -24.8832  -31.4984   21.6261 C   0  0  1  0  0  0  0  0  0  0  0  0
  -24.2259  -15.1733   22.7435 C   0  0  2  0  0  0  0  0  0  0  0  0
  -18.1360  -28.6113   24.1043 C   0  0  0  0  0  0  0  0  0  0  0  0
  -24.2639  -30.2305   26.0271 C   0  0  0  0  0  0  0  0  0  0  0  0
  -22.0869  -29.0999   26.5277 C   0  0  0  0  0  0  0  0  0  0  0  0
  -22.1464  -31.5586   26.1108 C   0  0  0  0  0  0  0  0  0  0  0  0
  -19.3134  -28.8559   20.4946 C   0  0  0  0  0  0  0  0  0  0  0  0
  -22.7134  -24.2090   21.1865 C   0  0  0  0  0  0  0  0  0  0  0  0
  -26.4919  -25.1822   18.0780 C   0  0  0  0  0  0  0  0  0  1  0  0
  -26.1250  -23.7108   18.0677 C   0  0  0  0  0  0  0  0  0  0  0  0
  -22.4827  -29.9650   24.1770 C   0  0  1  0  0  0  0  0  0  0  0  0
  -18.9938  -29.1227   22.9574 C   0  0  2  0  0  0  0  0  0  0  0  0
  -22.7602  -30.2062   25.6877 C   0  0  0  0  0  0  0  0  0  0  0  0
  -23.6840  -12.8277   22.2089 N   0  0  0  0  0  0  0  0  0  0  0  0
  -24.4147  -13.9166   21.9147 N   0  0  0  0  0  0  0  0  0  0  0  0
  -24.0698  -30.5302   22.3644 N   0  0  0  0  0  0  0  0  0  0  0  0
  -23.0373  -17.3201   22.9645 N   0  0  0  0  0  0  0  0  0  0  0  0
  -26.0741  -14.7345   20.4355 N   0  0  0  0  0  0  0  0  0  0  0  0
  -25.4541  -10.4793   19.0553 N   0  0  0  0  0  0  0  0  0  0  0  0
  -23.6730  -18.7830   21.2272 N   0  0  0  0  0  0  0  0  0  0  0  0
  -26.4067  -32.9074   22.8718 N   0  0  0  0  0  0  0  0  0  0  0  0
  -21.0677  -29.9639   23.8221 N   0  0  0  0  0  0  0  0  0  0  0  0
  -18.5679  -28.4317   21.7076 N   0  3  0  0  0  0  0  0  0  0  0  0
  -26.6420  -12.4045   18.6791 O   0  0  0  0  0  0  0  0  0  0  0  0
  -26.9204  -30.6693   22.4849 O   0  0  0  0  0  0  0  0  0  0  0  0
  -22.8284  -32.1902   23.4318 O   0  0  0  0  0  0  0  0  0  0  0  0
  -21.0328  -27.8271   22.9221 O   0  0  0  0  0  0  0  0  0  0  0  0
  -23.1089  -19.6028   23.3228 O   0  0  0  0  0  0  0  0  0  0  0  0
  -21.9107   -6.7865   21.2559 O   0  0  0  0  0  0  0  0  0  0  0  0
  -23.9878  -23.5708   21.2385 O   0  0  0  0  0  0  0  0  0  0  0  0
  -26.4558  -25.6621   19.4214 O   0  0  0  0  0  0  0  0  0  1  0  0
  -24.8061  -23.5573   18.5778 O   0  0  0  0  0  0  0  0  0  0  0  0
  -21.3597   -4.1823   26.0848 F   0  0  0  0  0  0  0  0  0  0  0  0
  -20.3488   -7.8529   23.2723 F   0  0  0  0  0  0  0  0  0  0  0  0
  -24.5490  -18.4972   18.3214 Cl  0  0  0  0  0  0  0  0  0  0  0  0
  1  2  1  0  0  0  0
  1  5  2  0  0  0  0
  2  6  2  0  0  0  0
  3  8  2  0  0  0  0
  3 17  1  0  0  0  0
  4  9  1  0  0  0  0
  4 17  2  0  0  0  0
  5 19  1  0  0  0  0
  6 21  1  0  0  0  0
  7 10  2  0  0  0  0
  7 20  1  0  0  0  0
  8 24  1  0  0  0  0
  9 24  2  0  0  0  0
 10 25  1  0  0  0  0
 11 12  2  0  0  0  0
 11 26  1  0  0  0  0
 12 29  1  0  0  0  0
 13 22  1  0  0  0  0
 13 25  2  0  0  0  0
 14 23  2  0  0  0  0
 14 27  1  0  0  0  0
 15 28  1  0  0  0  0
 15 31  2  0  0  0  0
 16 29  2  0  0  0  0
 16 30  1  0  0  0  0
 17 32  1  0  0  0  0
 18 32  1  0  0  0  0
 18 33  2  0  0  0  0
 18 34  1  0  0  0  0
 19 21  2  0  0  0  0
 19 39  1  0  0  0  0
 20 22  2  0  0  0  0
 20 40  1  0  0  0  0
 21 48  1  0  0  0  0
 22 41  1  0  0  0  0
 23 31  1  0  0  0  0
 23 68  1  0  0  0  0
 24 77  1  0  0  0  0
 25 79  1  0  0  0  0
 26 30  2  0  0  0  0
 26 77  1  0  0  0  0
 27 28  2  0  0  0  0
 27 78  1  0  0  0  0
 28 80  1  0  0  0  0
 29 81  1  0  0  0  0
 30 82  1  0  0  0  0
 31 83  1  0  0  0  0
 32 62  2  0  0  0  0
 33 63  1  0  0  0  0
 33 66  1  0  0  0  0
 34 67  1  0  0  0  0
 34 72  2  0  0  0  0
 35 49  1  0  0  0  0
 35 69  1  0  0  0  0
 35 73  2  0  0  0  0
 36 59  1  0  0  0  0
 36 64  1  0  0  0  0
 36 74  2  0  0  0  0
 37 60  1  0  0  0  0
 37 70  1  0  0  0  0
 37 75  2  0  0  0  0
 38 65  1  0  0  0  0
 38 68  1  0  0  0  0
 38 76  2  0  0  0  0
 39 42  1  0  0  0  0
 40 49  1  0  0  0  0
 41 64  1  0  0  0  0
 42 44  1  0  0  0  0
 43 45  1  0  0  0  0
 43 46  1  0  0  0  0
 44 48  1  0  0  0  0
 45 50  1  0  0  0  0
 46 65  1  0  0  0  0
 47 50  1  0  0  0  0
 47 65  1  0  0  0  0
 48 69  1  0  0  0  0
 49 64  1  0  0  0  0
 50 63  1  0  0  0  0
 51 60  1  0  0  0  0
 52 61  1  0  0  0  0
 53 61  1  0  0  0  0
 54 61  1  0  0  0  0
 55 71  1  0  0  0  0
 56 78  1  0  0  0  0
 57 58  1  0  0  0  0
 57 79  1  0  0  0  0
 58 80  1  0  0  0  0
 59 61  1  0  0  0  0
 59 70  1  0  0  0  0
 60 71  1  0  0  0  0
 62 63  1  0  0  0  0
M  CHG  1  71   1
M  ISO  4  38 100  57 101  68 100  79 101
M  END
> <Batch ID>
0011

> <Smiles>
CNC(C)C(=O)NC(C(=O)N1Cc2cc([101O:1][101CH2:1]COc3cc(Cl)c([100NH:0][100C:0](=O)N4CCCC(n5nc(-c6ccc(Oc7ccc(F)cc7F)cc6)c(C(N)=O)c5N)C4)cc3OC)ccc2CC1C(=O)NC1CCCc2ccccc21)C(C)(C)C

> <Shape>
0.263

> <Color>
0.133

> <Negative vol penalty>
0.000

$$$$

  -OEChem-04052315443D

 82 90  0     1  0  0  0  0  0999 V2000
  -25.6989  -38.8059   20.9514 C   0  0  0  0  0  0  0  0  0  0  0  0
  -25.9555  -37.8203   20.0037 C   0  0  0  0  0  0  0  0  0  0  0  0
  -26.1886  -12.1057   21.5338 C   0  0  0  0  0  0  0  0  0  0  0  0
  -25.9509  -12.6254   19.1863 C   0  0  0  0  0  0  0  0  0  0  0  0
  -25.8412  -38.5202   22.3087 C   0  0  0  0  0  0  0  0  0  0  0  0
  -26.3556  -36.5486   20.4127 C   0  0  0  0  0  0  0  0  0  0  0  0
  -25.7988  -29.6534   18.5523 C   0  0  0  0  0  0  0  0  0  0  0  0
  -27.9825  -20.5887   15.0958 C   0  0  0  0  0  0  0  0  0  0  0  0
  -27.7673  -21.9431   15.3506 C   0  0  0  0  0  0  0  0  0  0  0  0
  -24.9629  -11.4402   21.5106 C   0  0  0  0  0  0  0  0  0  0  0  0
  -24.7252  -11.9599   19.1631 C   0  0  0  0  0  0  0  0  0  0  0  0
  -26.5956  -28.5344   18.3137 C   0  0  0  0  0  0  0  0  0  0  0  0
  -22.0671   -9.2941   21.9834 C   0  0  0  0  0  0  0  0  0  0  0  0
  -21.9907   -8.0535   22.6164 C   0  0  0  0  0  0  0  0  0  0  0  0
  -26.7314  -28.1323   20.6884 C   0  0  0  0  0  0  0  0  0  0  0  0
  -28.4698  -21.6239   17.6401 C   0  0  0  0  0  0  0  0  0  0  0  0
  -23.7003   -7.1953   21.1406 C   0  0  0  0  0  0  0  0  0  0  0  0
  -26.6825  -12.6983   20.3717 C   0  0  0  0  0  0  0  0  0  0  0  0
  -29.2197  -12.8363   20.1444 C   0  0  0  0  0  0  0  0  0  0  0  0
  -26.2338  -37.2416   22.7349 C   0  0  0  0  0  0  0  0  0  0  0  0
  -25.4708  -30.0271   19.8634 C   0  0  0  0  0  0  0  0  0  0  0  0
  -26.5045  -36.2460   21.7769 C   0  0  0  0  0  0  0  0  0  0  0  0
  -25.9282  -29.2549   20.9408 C   0  0  0  0  0  0  0  0  0  0  0  0
  -28.4414  -19.7519   16.1131 C   0  0  0  0  0  0  0  0  0  0  0  0
  -28.0110  -22.4607   16.6228 C   0  0  0  0  0  0  0  0  0  0  0  0
  -28.6850  -20.2695   17.3853 C   0  0  0  0  0  0  0  0  0  0  0  0
  -24.2313  -11.3673   20.3253 C   0  0  0  0  0  0  0  0  0  0  0  0
  -27.0644  -27.7754   19.3819 C   0  0  0  0  0  0  0  0  0  0  0  0
  -22.9601   -9.4853   20.9290 C   0  0  0  0  0  0  0  0  0  0  0  0
  -22.8073   -7.0041   22.1950 C   0  0  0  0  0  0  0  0  0  0  0  0
  -23.7767   -8.4359   20.5076 C   0  0  0  0  0  0  0  0  0  0  0  0
  -27.9483  -13.3864   20.3952 C   0  0  0  0  0  0  0  0  0  0  0  0
  -30.0855  -13.8926   20.2898 C   0  0  0  0  0  0  0  0  0  0  0  0
  -29.5853  -11.4909   19.8100 C   0  0  0  0  0  0  0  0  0  0  0  0
  -26.0166  -32.5849   21.6699 C   0  0  0  0  0  0  0  0  0  0  0  0
  -24.0551  -31.0522   23.7496 C   0  0  0  0  0  0  0  0  0  0  0  0
  -27.9829  -24.5122   18.0804 C   0  0  0  0  0  0  0  0  0  0  0  0
  -22.7130  -28.1070   24.8322 C   0  0  0  0  0  0  0  0  0  0  0  0
  -29.4368  -19.8076   19.7449 C   0  0  0  0  0  0  0  0  0  0  0  0
  -26.4198  -36.9938   24.2109 C   0  0  0  0  0  0  0  0  0  0  0  0
  -24.5882  -31.2213   20.1027 C   0  0  0  0  0  0  0  0  0  0  0  0
  -25.5876  -29.6021   22.3662 C   0  0  0  0  0  0  0  0  0  0  0  0
  -26.4852  -35.5131   24.5764 C   0  0  0  0  0  0  0  0  0  0  0  0
  -30.5674  -18.0457   22.6250 C   0  0  0  0  0  0  0  0  0  0  0  0
  -27.4210  -34.7701   23.6282 C   0  0  0  0  0  0  0  0  0  0  0  0
  -30.1451  -16.5998   22.3544 C   0  0  0  0  0  0  0  0  0  0  0  0
  -29.5337  -19.0446   22.1078 C   0  0  0  0  0  0  0  0  0  0  0  0
  -28.7351  -17.4292   20.4280 C   0  0  0  0  0  0  0  0  0  0  0  0
  -26.9164  -34.8474   22.1822 C   0  0  1  0  0  0  0  0  0  0  0  0
  -24.7420  -31.8070   21.5029 C   0  0  1  0  0  0  0  0  0  0  0  0
  -29.7755  -16.3885   20.8731 C   0  0  2  0  0  0  0  0  0  0  0  0
  -28.6631  -18.3053   15.8115 C   0  0  0  0  0  0  0  0  0  0  0  0
  -21.1718  -27.1675   26.5755 C   0  0  0  0  0  0  0  0  0  0  0  0
  -26.2462  -31.3622   25.8503 C   0  0  0  0  0  0  0  0  0  0  0  0
  -25.0802  -29.6226   27.2224 C   0  0  0  0  0  0  0  0  0  0  0  0
  -23.9274  -31.7706   26.6934 C   0  0  0  0  0  0  0  0  0  0  0  0
  -20.8423  -27.0708   22.7863 C   0  0  0  0  0  0  0  0  0  0  0  0
  -27.6304  -25.9802   17.9283 C   0  0  0  0  0  0  0  0  0  1  0  0
  -24.2499  -30.0541   24.8654 C   0  0  1  0  0  0  0  0  0  0  0  0
  -21.2846  -27.7111   25.1597 C   0  0  2  0  0  0  0  0  0  0  0  0
  -24.8841  -30.6967   26.1312 C   0  0  0  0  0  0  0  0  0  0  0  0
  -27.9976  -14.6907   20.6784 N   0  0  0  0  0  0  0  0  0  0  0  0
  -29.3104  -14.9691   20.6067 N   0  0  0  0  0  0  0  0  0  0  0  0
  -24.7269  -30.7824   22.5489 N   0  0  0  0  0  0  0  0  0  0  0  0
  -29.2362  -18.7861   20.6973 N   0  0  0  0  0  0  0  0  0  0  0  0
  -31.4267  -13.9962   20.1762 N   0  0  0  0  0  0  0  0  0  0  0  0
  -28.5706  -10.5303   19.7008 N   0  0  0  0  0  0  0  0  0  0  0  0
  -27.7924  -23.8348   16.8808 N   0  0  0  0  0  0  0  0  0  0  0  0
  -29.1512  -19.4355   18.4316 N   0  0  0  0  0  0  0  0  0  0  0  0
  -25.8257  -33.9186   21.9772 N   0  0  0  0  0  0  0  0  0  0  0  0
  -22.9468  -29.4401   25.0960 N   0  0  0  0  0  0  0  0  0  0  0  0
  -20.8080  -26.6624   24.2142 N   0  3  0  0  0  0  0  0  0  0  0  0
  -30.7781  -11.1470   19.6299 O   0  0  0  0  0  0  0  0  0  0  0  0
  -27.0936  -32.0168   21.5318 O   0  0  0  0  0  0  0  0  0  0  0  0
  -23.3276  -32.0312   23.9342 O   0  0  0  0  0  0  0  0  0  0  0  0
  -28.3764  -24.0531   19.1476 O   0  0  0  0  0  0  0  0  0  0  0  0
  -23.5398  -27.3123   24.3902 O   0  0  0  0  0  0  0  0  0  0  0  0
  -29.8587  -20.9213   20.0668 O   0  0  0  0  0  0  0  0  0  0  0  0
  -23.0353  -10.7178   20.3022 O   0  0  0  0  0  0  0  0  0  0  0  0
  -27.8428  -26.6831   19.1519 O   0  0  0  0  0  0  0  0  0  1  0  0
  -22.7349   -5.8133   22.8039 F   0  0  0  0  0  0  0  0  0  0  0  0
  -24.6373   -8.6140   19.4960 F   0  0  0  0  0  0  0  0  0  0  0  0
  1  2  1  0  0  0  0
  1  5  2  0  0  0  0
  2  6  2  0  0  0  0
  3 10  2  0  0  0  0
  3 18  1  0  0  0  0
  4 11  1  0  0  0  0
  4 18  2  0  0  0  0
  5 20  1  0  0  0  0
  6 22  1  0  0  0  0
  7 12  2  0  0  0  0
  7 21  1  0  0  0  0
  8  9  2  0  0  0  0
  8 24  1  0  0  0  0
  9 25  1  0  0  0  0
 10 27  1  0  0  0  0
 11 27  2  0  0  0  0
 12 28  1  0  0  0  0
 13 14  2  0  0  0  0
 13 29  1  0  0  0  0
 14 30  1  0  0  0  0
 15 23  1  0  0  0  0
 15 28  2  0  0  0  0
 16 25  2  0  0  0  0
 16 26  1  0  0  0  0
 17 30  2  0  0  0  0
 17 31  1  0  0  0  0
 18 32  1  0  0  0  0
 19 32  1  0  0  0  0
 19 33  2  0  0  0  0
 19 34  1  0  0  0  0
 20 22  2  0  0  0  0
 20 40  1  0  0  0  0
 21 23  2  0  0  0  0
 21 41  1  0  0  0  0
 22 49  1  0  0  0  0
 23 42  1  0  0  0  0
 24 26  2  0  0  0  0
 24 52  1  0  0  0  0
 25 68  1  0  0  0  0
 26 69  1  0  0  0  0
 27 79  1  0  0  0  0
 28 80  1  0  0  0  0
 29 31  2  0  0  0  0
 29 79  1  0  0  0  0
 30 81  1  0  0  0  0
 31 82  1  0  0  0  0
 32 62  2  0  0  0  0
 33 63  1  0  0  0  0
 33 66  1  0  0  0  0
 34 67  1  0  0  0  0
 34 73  2  0  0  0  0
 35 50  1  0  0  0  0
 35 70  1  0  0  0  0
 35 74  2  0  0  0  0
 36 59  1  0  0  0  0
 36 64  1  0  0  0  0
 36 75  2  0  0  0  0
 37 58  1  0  0  0  0
 37 68  1  0  0  0  0
 37 76  2  0  0  0  0
 38 60  1  0  0  0  0
 38 71  1  0  0  0  0
 38 77  2  0  0  0  0
 39 65  1  0  0  0  0
 39 69  1  0  0  0  0
 39 78  2  0  0  0  0
 40 43  1  0  0  0  0
 41 50  1  0  0  0  0
 42 64  1  0  0  0  0
 43 45  1  0  0  0  0
 44 46  1  0  0  0  0
 44 47  1  0  0  0  0
 45 49  1  0  0  0  0
 46 51  1  0  0  0  0
 47 65  1  0  0  0  0
 48 51  1  0  0  0  0
 48 65  1  0  0  0  0
 49 70  1  0  0  0  0
 50 64  1  0  0  0  0
 51 63  1  0  0  0  0
 53 60  1  0  0  0  0
 54 61  1  0  0  0  0
 55 61  1  0  0  0  0
 56 61  1  0  0  0  0
 57 72  1  0  0  0  0
 58 80  1  0  0  0  0
 59 61  1  0  0  0  0
 59 71  1  0  0  0  0
 60 72  1  0  0  0  0
 62 63  1  0  0  0  0
M  CHG  1  72   1
M  ISO  4  39 100  58 101  69 100  80 101
M  END
> <Batch ID>
0011

> <Smiles>
CNC(C)C(=O)NC(C(=O)N1Cc2cc([101O:1][101CH2:1]C(=O)Nc3ccc(C)c([100NH:0][100C:0](=O)N4CCCC(n5nc(-c6ccc(Oc7ccc(F)cc7F)cc6)c(C(N)=O)c5N)C4)c3)ccc2CC1C(=O)NC1CCCc2ccccc21)C(C)(C)C

> <Shape>
0.306

> <Color>
0.096

> <Negative vol penalty>
0.000

$$$$

  -OEChem-04052315443D

 82 90  0     1  0  0  0  0  0999 V2000
  -29.4609  -33.9616   26.0651 C   0  0  0  0  0  0  0  0  0  0  0  0
  -29.6130  -32.8665   25.2207 C   0  0  0  0  0  0  0  0  0  0  0  0
  -24.6254   -9.0141   21.3663 C   0  0  0  0  0  0  0  0  0  0  0  0
  -23.3749  -10.8876   22.2399 C   0  0  0  0  0  0  0  0  0  0  0  0
  -28.2344  -34.1977   26.6847 C   0  0  0  0  0  0  0  0  0  0  0  0
  -28.5389  -32.0061   24.9963 C   0  0  0  0  0  0  0  0  0  0  0  0
  -27.2088  -29.0561   19.7969 C   0  0  0  0  0  0  0  0  0  0  0  0
  -28.2583  -19.0882   20.2571 C   0  0  0  0  0  0  0  0  0  0  0  0
  -27.8311  -20.4045   20.0827 C   0  0  0  0  0  0  0  0  0  0  0  0
  -24.0837   -8.1918   22.3542 C   0  0  0  0  0  0  0  0  0  0  0  0
  -22.8332  -10.0653   23.2279 C   0  0  0  0  0  0  0  0  0  0  0  0
  -27.4513  -27.7511   19.3704 C   0  0  0  0  0  0  0  0  0  0  0  0
  -21.1749   -6.5638   22.9211 C   0  0  0  0  0  0  0  0  0  0  0  0
  -20.7074   -5.3078   22.5345 C   0  0  0  0  0  0  0  0  0  0  0  0
  -25.2378  -27.1124   20.0857 C   0  0  0  0  0  0  0  0  0  0  0  0
  -26.2425  -18.5979   21.4954 C   0  0  0  0  0  0  0  0  0  0  0  0
  -22.2821   -4.2592   24.0373 C   0  0  0  0  0  0  0  0  0  0  0  0
  -24.2711  -10.3620   21.3092 C   0  0  0  0  0  0  0  0  0  0  0  0
  -24.3057  -11.4600   19.0068 C   0  0  0  0  0  0  0  0  0  0  0  0
  -27.1420  -33.3453   26.4602 C   0  0  0  0  0  0  0  0  0  0  0  0
  -25.9808  -29.3971   20.3819 C   0  0  0  0  0  0  0  0  0  0  0  0
  -27.2970  -32.2302   25.6146 C   0  0  0  0  0  0  0  0  0  0  0  0
  -24.9812  -28.4230   20.5164 C   0  0  0  0  0  0  0  0  0  0  0  0
  -27.4640  -18.1849   20.9633 C   0  0  0  0  0  0  0  0  0  0  0  0
  -26.6097  -20.8176   20.6148 C   0  0  0  0  0  0  0  0  0  0  0  0
  -23.1876   -8.7174   23.2850 C   0  0  0  0  0  0  0  0  0  0  0  0
  -26.4669  -26.7783   19.5174 C   0  0  0  0  0  0  0  0  0  0  0  0
  -22.1961   -6.6675   23.8657 C   0  0  0  0  0  0  0  0  0  0  0  0
  -21.2610   -4.1555   23.0926 C   0  0  0  0  0  0  0  0  0  0  0  0
  -25.8153  -19.9143   21.3211 C   0  0  0  0  0  0  0  0  0  0  0  0
  -22.7496   -5.5153   24.4238 C   0  0  0  0  0  0  0  0  0  0  0  0
  -24.8308  -11.2121   20.2892 C   0  0  0  0  0  0  0  0  0  0  0  0
  -25.2014  -12.3274   18.4309 C   0  0  0  0  0  0  0  0  0  0  0  0
  -23.1148  -10.9516   18.3912 C   0  0  0  0  0  0  0  0  0  0  0  0
  -25.0781  -30.4896   23.2271 C   0  0  0  0  0  0  0  0  0  0  0  0
  -22.1722  -30.6800   21.7983 C   0  0  0  0  0  0  0  0  0  0  0  0
  -26.8424  -23.1750   19.7648 C   0  0  0  0  0  0  0  0  0  0  0  0
  -20.0775  -29.5876   19.3354 C   0  0  0  0  0  0  0  0  0  0  0  0
  -29.0827  -16.2756   20.6787 C   0  0  0  0  0  0  0  0  0  0  0  0
  -25.8494  -33.6143   27.1893 C   0  0  0  0  0  0  0  0  0  0  0  0
  -25.7250  -30.8155   20.8123 C   0  0  0  0  0  0  0  0  0  0  0  0
  -23.6386  -28.7425   21.1196 C   0  0  0  0  0  0  0  0  0  0  0  0
  -24.6534  -32.8673   26.6047 C   0  0  0  0  0  0  0  0  0  0  0  0
  -29.8337  -13.5387   18.5288 C   0  0  0  0  0  0  0  0  0  0  0  0
  -25.0100  -31.4067   26.3474 C   0  0  0  0  0  0  0  0  0  0  0  0
  -28.5857  -12.6570   18.6148 C   0  0  0  0  0  0  0  0  0  0  0  0
  -30.1628  -14.1883   19.8717 C   0  0  0  0  0  0  0  0  0  0  0  0
  -27.8072  -14.0443   20.5786 C   0  0  0  0  0  0  0  0  0  0  0  0
  -26.1482  -31.2882   25.3267 C   0  0  1  0  0  0  0  0  0  0  0  0
  -24.6261  -30.9318   21.8641 C   0  0  1  0  0  0  0  0  0  0  0  0
  -27.3984  -13.4199   19.2345 C   0  0  2  0  0  0  0  0  0  0  0  0
  -17.7527  -29.9008   18.4441 C   0  0  0  0  0  0  0  0  0  0  0  0
  -21.0648  -29.0297   24.1135 C   0  0  0  0  0  0  0  0  0  0  0  0
  -19.0308  -28.5762   22.7259 C   0  0  0  0  0  0  0  0  0  0  0  0
  -19.5956  -30.9161   23.3806 C   0  0  0  0  0  0  0  0  0  0  0  0
  -21.0837  -30.5122   16.7103 C   0  0  0  0  0  0  0  0  0  0  0  0
  -26.0333  -24.4580   19.8076 C   0  0  0  0  0  0  0  0  0  1  0  0
  -20.9985  -29.7450   21.6336 C   0  0  1  0  0  0  0  0  0  0  0  0
  -19.2052  -30.3408   18.3474 C   0  0  2  0  0  0  0  0  0  0  0  0
  -20.1983  -29.5600   22.9538 C   0  0  0  0  0  0  0  0  0  0  0  0
  -25.9716  -11.8689   20.5151 N   0  0  0  0  0  0  0  0  0  0  0  0
  -26.1709  -12.5380   19.3668 N   0  0  0  0  0  0  0  0  0  0  0  0
  -23.4389  -30.1419   21.5309 N   0  0  0  0  0  0  0  0  0  0  0  0
  -28.9928  -14.8963   20.3958 N   0  0  0  0  0  0  0  0  0  0  0  0
  -25.2465  -12.9230   17.2202 N   0  0  0  0  0  0  0  0  0  0  0  0
  -22.3079  -10.0704   19.1238 N   0  0  0  0  0  0  0  0  0  0  0  0
  -26.1792  -22.1538   20.4367 N   0  0  0  0  0  0  0  0  0  0  0  0
  -27.8980  -16.8478   21.1411 N   0  0  0  0  0  0  0  0  0  0  0  0
  -25.6472  -31.4953   23.9848 N   0  0  0  0  0  0  0  0  0  0  0  0
  -20.2094  -30.2717   20.5253 N   0  0  0  0  0  0  0  0  0  0  0  0
  -19.6766  -30.1028   16.9539 N   0  3  0  0  0  0  0  0  0  0  0  0
  -22.7849  -11.2565   17.2200 O   0  0  0  0  0  0  0  0  0  0  0  0
  -24.9208  -29.3228   23.5668 O   0  0  0  0  0  0  0  0  0  0  0  0
  -21.9717  -31.8470   22.1444 O   0  0  0  0  0  0  0  0  0  0  0  0
  -27.9277  -23.1185   19.1961 O   0  0  0  0  0  0  0  0  0  0  0  0
  -20.5876  -28.4993   19.0788 O   0  0  0  0  0  0  0  0  0  0  0  0
  -30.1257  -16.9089   20.4965 O   0  0  0  0  0  0  0  0  0  0  0  0
  -22.6586   -7.9153   24.2490 O   0  0  0  0  0  0  0  0  0  0  0  0
  -26.7013  -25.5036   19.1026 O   0  0  0  0  0  0  0  0  0  1  0  0
  -20.8108   -2.9494   22.7225 F   0  0  0  0  0  0  0  0  0  0  0  0
  -24.6401  -20.3006   21.8382 F   0  0  0  0  0  0  0  0  0  0  0  0
  -23.7300   -5.6086   25.3326 F   0  0  0  0  0  0  0  0  0  0  0  0
  1  2  1  0  0  0  0
  1  5  2  0  0  0  0
  2  6  2  0  0  0  0
  3 10  2  0  0  0  0
  3 18  1  0  0  0  0
  4 11  1  0  0  0  0
  4 18  2  0  0  0  0
  5 20  1  0  0  0  0
  6 22  1  0  0  0  0
  7 12  2  0  0  0  0
  7 21  1  0  0  0  0
  8  9  2  0  0  0  0
  8 24  1  0  0  0  0
  9 25  1  0  0  0  0
 10 26  1  0  0  0  0
 11 26  2  0  0  0  0
 12 27  1  0  0  0  0
 13 14  2  0  0  0  0
 13 28  1  0  0  0  0
 14 29  1  0  0  0  0
 15 23  1  0  0  0  0
 15 27  2  0  0  0  0
 16 24  2  0  0  0  0
 16 30  1  0  0  0  0
 17 29  2  0  0  0  0
 17 31  1  0  0  0  0
 18 32  1  0  0  0  0
 19 32  1  0  0  0  0
 19 33  2  0  0  0  0
 19 34  1  0  0  0  0
 20 22  2  0  0  0  0
 20 40  1  0  0  0  0
 21 23  2  0  0  0  0
 21 41  1  0  0  0  0
 22 49  1  0  0  0  0
 23 42  1  0  0  0  0
 24 68  1  0  0  0  0
 25 30  2  0  0  0  0
 25 67  1  0  0  0  0
 26 78  1  0  0  0  0
 27 79  1  0  0  0  0
 28 31  2  0  0  0  0
 28 78  1  0  0  0  0
 29 80  1  0  0  0  0
 30 81  1  0  0  0  0
 31 82  1  0  0  0  0
 32 61  2  0  0  0  0
 33 62  1  0  0  0  0
 33 65  1  0  0  0  0
 34 66  1  0  0  0  0
 34 72  2  0  0  0  0
 35 50  1  0  0  0  0
 35 69  1  0  0  0  0
 35 73  2  0  0  0  0
 36 58  1  0  0  0  0
 36 63  1  0  0  0  0
 36 74  2  0  0  0  0
 37 57  1  0  0  0  0
 37 67  1  0  0  0  0
 37 75  2  0  0  0  0
 38 59  1  0  0  0  0
 38 70  1  0  0  0  0
 38 76  2  0  0  0  0
 39 64  1  0  0  0  0
 39 68  1  0  0  0  0
 39 77  2  0  0  0  0
 40 43  1  0  0  0  0
 41 50  1  0  0  0  0
 42 63  1  0  0  0  0
 43 45  1  0  0  0  0
 44 46  1  0  0  0  0
 44 47  1  0  0  0  0
 45 49  1  0  0  0  0
 46 51  1  0  0  0  0
 47 64  1  0  0  0  0
 48 51  1  0  0  0  0
 48 64  1  0  0  0  0
 49 69  1  0  0  0  0
 50 63  1  0  0  0  0
 51 62  1  0  0  0  0
 52 59  1  0  0  0  0
 53 60  1  0  0  0  0
 54 60  1  0  0  0  0
 55 60  1  0  0  0  0
 56 71  1  0  0  0  0
 57 79  1  0  0  0  0
 58 60  1  0  0  0  0
 58 70  1  0  0  0  0
 59 71  1  0  0  0  0
 61 62  1  0  0  0  0
M  CHG  1  71   1
M  ISO  4  39 100  57 101  68 100  79 101
M  END
> <Batch ID>
0011

> <Smiles>
CNC(C)C(=O)NC(C(=O)N1Cc2cc([101O:1][101CH2:1]C(=O)Nc3ccc([100NH:0][100C:0](=O)N4CCCC(n5nc(-c6ccc(Oc7ccc(F)cc7F)cc6)c(C(N)=O)c5N)C4)cc3F)ccc2CC1C(=O)NC1CCCc2ccccc21)C(C)(C)C

> <Shape>
0.309

> <Color>
0.101

> <Negative vol penalty>
0.000

$$$$

  -OEChem-04052315443D

 85 93  0     1  0  0  0  0  0999 V2000
  -26.7199  -35.5029   25.8819 C   0  0  0  0  0  0  0  0  0  0  0  0
  -26.9618  -34.1366   25.7808 C   0  0  0  0  0  0  0  0  0  0  0  0
  -23.1071   -9.9143   21.5741 C   0  0  0  0  0  0  0  0  0  0  0  0
  -23.7652  -11.0367   23.6098 C   0  0  0  0  0  0  0  0  0  0  0  0
  -25.4553  -36.0096   25.5856 C   0  0  0  0  0  0  0  0  0  0  0  0
  -25.9387  -33.2761   25.3843 C   0  0  0  0  0  0  0  0  0  0  0  0
  -27.4749  -29.8820   21.9543 C   0  0  0  0  0  0  0  0  0  0  0  0
  -22.3643   -8.9985   22.3192 C   0  0  0  0  0  0  0  0  0  0  0  0
  -23.0224  -10.1209   24.3549 C   0  0  0  0  0  0  0  0  0  0  0  0
  -28.2032  -28.7890   22.4220 C   0  0  0  0  0  0  0  0  0  0  0  0
  -22.9557   -6.2391   24.1795 C   0  0  0  0  0  0  0  0  0  0  0  0
  -23.0739   -4.8890   23.8497 C   0  0  0  0  0  0  0  0  0  0  0  0
  -26.2119  -27.4305   22.3304 C   0  0  0  0  0  0  0  0  0  0  0  0
  -31.6466  -19.6462   21.5562 C   0  0  0  0  0  0  0  0  0  0  0  0
  -31.9070  -17.3241   20.9427 C   0  0  0  0  0  0  0  0  0  0  0  0
  -20.7057   -4.7963   23.3807 C   0  0  0  0  0  0  0  0  0  0  0  0
  -23.8076  -10.9334   22.2194 C   0  0  0  0  0  0  0  0  0  0  0  0
  -24.1297  -13.1044   20.9192 C   0  0  0  0  0  0  0  0  0  0  0  0
  -24.4188  -35.1560   25.1760 C   0  0  0  0  0  0  0  0  0  0  0  0
  -26.1049  -29.7601   21.6811 C   0  0  0  0  0  0  0  0  0  0  0  0
  -24.6586  -33.7717   25.0836 C   0  0  0  0  0  0  0  0  0  0  0  0
  -25.4690  -28.5228   21.8569 C   0  0  0  0  0  0  0  0  0  0  0  0
  -32.4668  -18.5399   21.3351 C   0  0  0  0  0  0  0  0  0  0  0  0
  -29.7068  -18.3209   20.9926 C   0  0  0  0  0  0  0  0  0  0  0  0
  -30.2666  -19.5367   21.3851 C   0  0  0  0  0  0  0  0  0  0  0  0
  -30.5270  -17.2145   20.7714 C   0  0  0  0  0  0  0  0  0  0  0  0
  -22.3219   -9.1018   23.7096 C   0  0  0  0  0  0  0  0  0  0  0  0
  -27.5711  -27.5638   22.6129 C   0  0  0  0  0  0  0  0  0  0  0  0
  -21.7125   -6.8678   24.1099 C   0  0  0  0  0  0  0  0  0  0  0  0
  -21.9489   -4.1676   23.4503 C   0  0  0  0  0  0  0  0  0  0  0  0
  -20.5875   -6.1464   23.7105 C   0  0  0  0  0  0  0  0  0  0  0  0
  -24.5756  -11.8793   21.4503 C   0  0  0  0  0  0  0  0  0  0  0  0
  -25.2293  -13.6219   20.2794 C   0  0  0  0  0  0  0  0  0  0  0  0
  -22.8370  -13.7197   20.9974 C   0  0  0  0  0  0  0  0  0  0  0  0
  -23.4611  -31.1031   22.8258 C   0  0  0  0  0  0  0  0  0  0  0  0
  -22.0459  -29.4465   20.4226 C   0  0  0  0  0  0  0  0  0  0  0  0
  -29.8617  -21.9432   22.0076 C   0  0  0  0  0  0  0  0  0  0  0  0
  -22.1566  -26.7994   18.2715 C   0  0  0  0  0  0  0  0  0  0  0  0
  -30.6720  -14.7856   20.1190 C   0  0  0  0  0  0  0  0  0  0  0  0
  -23.0554  -35.7443   24.9120 C   0  0  0  0  0  0  0  0  0  0  0  0
  -25.3393  -30.9416   21.1518 C   0  0  0  0  0  0  0  0  0  0  0  0
  -24.0047  -28.3343   21.5590 C   0  0  0  0  0  0  0  0  0  0  0  0
  -22.1287  -34.8106   24.1375 C   0  0  0  0  0  0  0  0  0  0  0  0
  -29.6866  -11.5027   19.1554 C   0  0  0  0  0  0  0  0  0  0  0  0
  -22.1716  -33.4050   24.7285 C   0  0  0  0  0  0  0  0  0  0  0  0
  -28.2324  -11.4088   19.6229 C   0  0  0  0  0  0  0  0  0  0  0  0
  -30.5457  -12.3039   20.1320 C   0  0  0  0  0  0  0  0  0  0  0  0
  -28.5728  -13.5426   20.9336 C   0  0  0  0  0  0  0  0  0  0  0  0
  -23.5813  -32.8091   24.6329 C   0  0  1  0  0  0  0  0  0  0  0  0
  -23.8369  -30.8378   21.3954 C   0  0  1  0  0  0  0  0  0  0  0  0
  -27.6545  -12.7998   19.9494 C   0  0  2  0  0  0  0  0  0  0  0  0
  -33.9421  -18.6575   21.5191 C   0  0  0  0  0  0  0  0  0  0  0  0
  -28.2254  -18.2018   20.8084 C   0  0  0  0  0  0  0  0  0  0  0  0
  -20.8377  -25.6839   16.4512 C   0  0  0  0  0  0  0  0  0  0  0  0
  -20.1636  -28.2654   22.5135 C   0  0  0  0  0  0  0  0  0  0  0  0
  -19.5343  -26.5031   20.8502 C   0  0  0  0  0  0  0  0  0  0  0  0
  -19.0628  -28.9032   20.3603 C   0  0  0  0  0  0  0  0  0  0  0  0
  -24.3064  -27.2385   16.2855 C   0  0  0  0  0  0  0  0  0  0  0  0
  -28.6625  -22.8716   22.1412 C   0  0  0  0  0  0  0  0  0  0  0  0
  -29.0557  -24.2809   22.5701 C   0  0  0  0  0  0  0  0  0  0  0  0
  -27.8470  -25.2019   22.6506 C   0  0  0  0  0  0  0  0  0  1  0  0
  -21.4477  -28.0676   20.2824 C   0  0  1  0  0  0  0  0  0  0  0  0
  -21.9157  -26.7063   16.7756 C   0  0  2  0  0  0  0  0  0  0  0  0
  -20.0793  -27.9386   21.0092 C   0  0  0  0  0  0  0  0  0  0  0  0
  -25.8585  -11.6331   21.1719 N   0  0  0  0  0  0  0  0  0  0  0  0
  -26.2281  -12.7106   20.4588 N   0  0  0  0  0  0  0  0  0  0  0  0
  -23.2978  -29.5210   21.0495 N   0  0  0  0  0  0  0  0  0  0  0  0
  -29.9386  -13.6113   20.3907 N   0  0  0  0  0  0  0  0  0  0  0  0
  -25.4297  -14.7629   19.5863 N   0  0  0  0  0  0  0  0  0  0  0  0
  -21.8202  -13.0519   21.6934 N   0  0  0  0  0  0  0  0  0  0  0  0
  -29.4531  -20.6716   21.6151 N   0  0  0  0  0  0  0  0  0  0  0  0
  -29.9803  -15.9694   20.3734 N   0  0  0  0  0  0  0  0  0  0  0  0
  -23.8449  -32.3480   23.2867 N   0  0  0  0  0  0  0  0  0  0  0  0
  -21.3926  -27.7902   18.8511 N   0  0  0  0  0  0  0  0  0  0  0  0
  -23.1682  -26.3077   16.0731 N   0  3  0  0  0  0  0  0  0  0  0  0
  -22.5864  -14.8211   20.4517 O   0  0  0  0  0  0  0  0  0  0  0  0
  -22.8657  -30.2426   23.4636 O   0  0  0  0  0  0  0  0  0  0  0  0
  -21.4285  -30.4209   19.9855 O   0  0  0  0  0  0  0  0  0  0  0  0
  -31.0067  -22.3225   22.2296 O   0  0  0  0  0  0  0  0  0  0  0  0
  -22.9410  -26.0641   18.8669 O   0  0  0  0  0  0  0  0  0  0  0  0
  -31.8189  -14.7443   19.6662 O   0  0  0  0  0  0  0  0  0  0  0  0
  -21.5969   -8.2085   24.4369 O   0  0  0  0  0  0  0  0  0  0  0  0
  -28.2795  -26.4955   23.0699 O   0  0  0  0  0  0  0  0  0  1  0  0
  -22.0628   -2.8714   23.1321 F   0  0  0  0  0  0  0  0  0  0  0  0
  -19.3907   -6.7453   23.6407 F   0  0  0  0  0  0  0  0  0  0  0  0
  1  2  1  0  0  0  0
  1  5  2  0  0  0  0
  2  6  2  0  0  0  0
  3  8  2  0  0  0  0
  3 17  1  0  0  0  0
  4  9  1  0  0  0  0
  4 17  2  0  0  0  0
  5 19  1  0  0  0  0
  6 21  1  0  0  0  0
  7 10  2  0  0  0  0
  7 20  1  0  0  0  0
  8 27  1  0  0  0  0
  9 27  2  0  0  0  0
 10 28  1  0  0  0  0
 11 12  2  0  0  0  0
 11 29  1  0  0  0  0
 12 30  1  0  0  0  0
 13 22  1  0  0  0  0
 13 28  2  0  0  0  0
 14 23  2  0  0  0  0
 14 25  1  0  0  0  0
 15 23  1  0  0  0  0
 15 26  2  0  0  0  0
 16 30  2  0  0  0  0
 16 31  1  0  0  0  0
 17 32  1  0  0  0  0
 18 32  1  0  0  0  0
 18 33  2  0  0  0  0
 18 34  1  0  0  0  0
 19 21  2  0  0  0  0
 19 40  1  0  0  0  0
 20 22  2  0  0  0  0
 20 41  1  0  0  0  0
 21 49  1  0  0  0  0
 22 42  1  0  0  0  0
 23 52  1  0  0  0  0
 24 25  2  0  0  0  0
 24 26  1  0  0  0  0
 24 53  1  0  0  0  0
 25 71  1  0  0  0  0
 26 72  1  0  0  0  0
 27 82  1  0  0  0  0
 28 83  1  0  0  0  0
 29 31  2  0  0  0  0
 29 82  1  0  0  0  0
 30 84  1  0  0  0  0
 31 85  1  0  0  0  0
 32 65  2  0  0  0  0
 33 66  1  0  0  0  0
 33 69  1  0  0  0  0
 34 70  1  0  0  0  0
 34 76  2  0  0  0  0
 35 50  1  0  0  0  0
 35 73  1  0  0  0  0
 35 77  2  0  0  0  0
 36 62  1  0  0  0  0
 36 67  1  0  0  0  0
 36 78  2  0  0  0  0
 37 59  1  0  0  0  0
 37 71  1  0  0  0  0
 37 79  2  0  0  0  0
 38 63  1  0  0  0  0
 38 74  1  0  0  0  0
 38 80  2  0  0  0  0
 39 68  1  0  0  0  0
 39 72  1  0  0  0  0
 39 81  2  0  0  0  0
 40 43  1  0  0  0  0
 41 50  1  0  0  0  0
 42 67  1  0  0  0  0
 43 45  1  0  0  0  0
 44 46  1  0  0  0  0
 44 47  1  0  0  0  0
 45 49  1  0  0  0  0
 46 51  1  0  0  0  0
 47 68  1  0  0  0  0
 48 51  1  0  0  0  0
 48 68  1  0  0  0  0
 49 73  1  0  0  0  0
 50 67  1  0  0  0  0
 51 66  1  0  0  0  0
 54 63  1  0  0  0  0
 55 64  1  0  0  0  0
 56 64  1  0  0  0  0
 57 64  1  0  0  0  0
 58 75  1  0  0  0  0
 59 60  1  0  0  0  0
 60 61  1  0  0  0  0
 61 83  1  0  0  0  0
 62 64  1  0  0  0  0
 62 74  1  0  0  0  0
 63 75  1  0  0  0  0
 65 66  1  0  0  0  0
M  CHG  1  75   1
M  ISO  4  39 100  61 101  72 100  83 101
M  END
> <Batch ID>
0011

> <Smiles>
CNC(C)C(=O)NC(C(=O)N1Cc2cc([101O:1][101CH2:1]CCC(=O)Nc3cc(C)cc([100NH:0][100C:0](=O)N4CCCC(n5nc(-c6ccc(Oc7ccc(F)cc7F)cc6)c(C(N)=O)c5N)C4)c3C)ccc2CC1C(=O)NC1CCCc2ccccc21)C(C)(C)C

> <Shape>
0.301

> <Color>
0.154

> <Negative vol penalty>
0.000

$$$$

  -OEChem-04052315443D

 82 90  0     1  0  0  0  0  0999 V2000
  -23.4946  -30.7899   20.3359 C   0  0  0  0  0  0  0  0  0  0  0  0
  -23.6754  -29.4172   20.4724 C   0  0  0  0  0  0  0  0  0  0  0  0
  -23.0554   -9.8396   20.1012 C   0  0  0  0  0  0  0  0  0  0  0  0
  -23.7425  -10.0488   22.4079 C   0  0  0  0  0  0  0  0  0  0  0  0
  -24.2489  -31.6715   21.1089 C   0  0  0  0  0  0  0  0  0  0  0  0
  -24.6115  -28.9255   21.3814 C   0  0  0  0  0  0  0  0  0  0  0  0
  -24.1811  -23.7938   24.6959 C   0  0  0  0  0  0  0  0  0  0  0  0
  -22.2783   -8.7299   20.4333 C   0  0  0  0  0  0  0  0  0  0  0  0
  -22.9654   -8.9391   22.7401 C   0  0  0  0  0  0  0  0  0  0  0  0
  -24.7062  -22.5147   24.5169 C   0  0  0  0  0  0  0  0  0  0  0  0
  -19.7027   -8.2647   23.3063 C   0  0  0  0  0  0  0  0  0  0  0  0
  -18.9085   -8.3505   24.4497 C   0  0  0  0  0  0  0  0  0  0  0  0
  -26.5535  -23.0774   25.9627 C   0  0  0  0  0  0  0  0  0  0  0  0
  -31.8809  -18.5233   23.8390 C   0  0  0  0  0  0  0  0  0  0  0  0
  -32.1051  -16.6223   22.3650 C   0  0  0  0  0  0  0  0  0  0  0  0
  -29.9227  -17.5636   22.7989 C   0  0  0  0  0  0  0  0  0  0  0  0
  -20.0821   -6.4677   25.4061 C   0  0  0  0  0  0  0  0  0  0  0  0
  -23.7876  -10.4990   21.0885 C   0  0  0  0  0  0  0  0  0  0  0  0
  -24.1897  -12.9944   20.7433 C   0  0  0  0  0  0  0  0  0  0  0  0
  -25.1879  -31.1901   22.0348 C   0  0  0  0  0  0  0  0  0  0  0  0
  -24.8450  -24.7294   25.5023 C   0  0  0  0  0  0  0  0  0  0  0  0
  -25.3801  -29.8015   22.1666 C   0  0  0  0  0  0  0  0  0  0  0  0
  -26.0333  -24.3668   26.1524 C   0  0  0  0  0  0  0  0  0  0  0  0
  -32.6830  -17.5758   23.2031 C   0  0  0  0  0  0  0  0  0  0  0  0
  -30.5007  -18.5172   23.6370 C   0  0  0  0  0  0  0  0  0  0  0  0
  -30.7249  -16.6161   22.1629 C   0  0  0  0  0  0  0  0  0  0  0  0
  -22.2332   -8.2797   21.7527 C   0  0  0  0  0  0  0  0  0  0  0  0
  -25.8941  -22.1573   25.1481 C   0  0  0  0  0  0  0  0  0  0  0  0
  -20.6866   -7.2804   23.2127 C   0  0  0  0  0  0  0  0  0  0  0  0
  -19.0982   -7.4520   25.4996 C   0  0  0  0  0  0  0  0  0  0  0  0
  -20.8763   -6.3819   24.2626 C   0  0  0  0  0  0  0  0  0  0  0  0
  -24.5910  -11.6450   20.7460 C   0  0  0  0  0  0  0  0  0  0  0  0
  -25.3094  -13.6848   20.3481 C   0  0  0  0  0  0  0  0  0  0  0  0
  -22.9186  -13.5721   21.0691 C   0  0  0  0  0  0  0  0  0  0  0  0
  -26.1692  -27.5766   25.0091 C   0  0  0  0  0  0  0  0  0  0  0  0
  -26.5201  -27.5385   28.2337 C   0  0  0  0  0  0  0  0  0  0  0  0
  -28.3062  -19.6158   24.1948 C   0  0  0  0  0  0  0  0  0  0  0  0
  -26.7708  -25.7020   31.0992 C   0  0  0  0  0  0  0  0  0  0  0  0
  -30.7894  -14.6359   20.6070 C   0  0  0  0  0  0  0  0  0  0  0  0
  -26.0135  -32.1827   22.8143 C   0  0  0  0  0  0  0  0  0  0  0  0
  -24.2514  -26.0963   25.7066 C   0  0  0  0  0  0  0  0  0  0  0  0
  -26.7741  -25.3278   27.0447 C   0  0  0  0  0  0  0  0  0  0  0  0
  -26.7182  -31.5727   24.0232 C   0  0  0  0  0  0  0  0  0  0  0  0
  -29.6964  -12.0309   18.4399 C   0  0  0  0  0  0  0  0  0  0  0  0
  -27.3957  -30.2607   23.6404 C   0  0  0  0  0  0  0  0  0  0  0  0
  -28.2377  -11.8093   18.8465 C   0  0  0  0  0  0  0  0  0  0  0  0
  -30.5780  -12.3546   19.6448 C   0  0  0  0  0  0  0  0  0  0  0  0
  -28.6452  -13.2434   20.8871 C   0  0  0  0  0  0  0  0  0  0  0  0
  -26.3682  -29.2290   23.1595 C   0  0  1  0  0  0  0  0  0  0  0  0
  -25.2808  -27.1363   26.1380 C   0  0  1  0  0  0  0  0  0  0  0  0
  -27.7064  -12.9784   19.6988 C   0  0  2  0  0  0  0  0  0  0  0  0
  -34.1587  -17.5819   23.4205 C   0  0  0  0  0  0  0  0  0  0  0  0
  -27.0892  -25.9495   33.5761 C   0  0  0  0  0  0  0  0  0  0  0  0
  -29.4837  -28.1151   27.7927 C   0  0  0  0  0  0  0  0  0  0  0  0
  -29.9006  -27.4155   30.1602 C   0  0  0  0  0  0  0  0  0  0  0  0
  -28.4439  -29.3831   29.6810 C   0  0  0  0  0  0  0  0  0  0  0  0
  -24.1634  -24.4276   31.6788 C   0  0  0  0  0  0  0  0  0  0  0  0
  -27.8283  -20.7772   25.0465 C   0  0  0  0  0  0  0  0  0  1  0  0
  -27.5863  -27.0565   29.1875 C   0  0  1  0  0  0  0  0  0  0  0  0
  -26.0798  -25.8347   32.4443 C   0  0  2  0  0  0  0  0  0  0  0  0
  -28.8409  -27.9748   29.1870 C   0  0  0  0  0  0  0  0  0  0  0  0
  -25.8660  -11.4855   20.3812 N   0  0  0  0  0  0  0  0  0  0  0  0
  -26.2755  -12.7436   20.1456 N   0  0  0  0  0  0  0  0  0  0  0  0
  -26.1568  -26.6545   27.2079 N   0  0  0  0  0  0  0  0  0  0  0  0
  -30.0149  -13.4745   20.4022 N   0  0  0  0  0  0  0  0  0  0  0  0
  -25.5519  -14.9990   20.1574 N   0  0  0  0  0  0  0  0  0  0  0  0
  -21.8763  -12.7187   21.4562 N   0  0  0  0  0  0  0  0  0  0  0  0
  -29.6874  -19.4786   24.2825 N   0  0  0  0  0  0  0  0  0  0  0  0
  -30.1375  -15.6467   21.3127 N   0  0  0  0  0  0  0  0  0  0  0  0
  -25.6731  -28.6449   24.2865 N   0  0  0  0  0  0  0  0  0  0  0  0
  -26.9411  -26.9270   30.4895 N   0  0  0  0  0  0  0  0  0  0  0  0
  -25.2170  -24.6473   32.7028 N   0  3  0  0  0  0  0  0  0  0  0  0
  -22.7084  -14.8069   21.0026 O   0  0  0  0  0  0  0  0  0  0  0  0
  -27.2273  -26.9916   24.8095 O   0  0  0  0  0  0  0  0  0  0  0  0
  -26.0225  -28.6554   28.3972 O   0  0  0  0  0  0  0  0  0  0  0  0
  -27.5237  -18.9328   23.5424 O   0  0  0  0  0  0  0  0  0  0  0  0
  -27.1275  -24.6203   30.6374 O   0  0  0  0  0  0  0  0  0  0  0  0
  -31.9362  -14.7377   20.1637 O   0  0  0  0  0  0  0  0  0  0  0  0
  -21.4748   -7.1971   22.0772 O   0  0  0  0  0  0  0  0  0  0  0  0
  -26.4092  -20.9098   24.9746 O   0  0  0  0  0  0  0  0  0  1  0  0
  -18.3365   -7.5354   26.5983 F   0  0  0  0  0  0  0  0  0  0  0  0
  -21.8208   -5.4349   24.1790 F   0  0  0  0  0  0  0  0  0  0  0  0
  1  2  1  0  0  0  0
  1  5  2  0  0  0  0
  2  6  2  0  0  0  0
  3  8  2  0  0  0  0
  3 18  1  0  0  0  0
  4  9  1  0  0  0  0
  4 18  2  0  0  0  0
  5 20  1  0  0  0  0
  6 22  1  0  0  0  0
  7 10  2  0  0  0  0
  7 21  1  0  0  0  0
  8 27  1  0  0  0  0
  9 27  2  0  0  0  0
 10 28  1  0  0  0  0
 11 12  2  0  0  0  0
 11 29  1  0  0  0  0
 12 30  1  0  0  0  0
 13 23  1  0  0  0  0
 13 28  2  0  0  0  0
 14 24  2  0  0  0  0
 14 25  1  0  0  0  0
 15 24  1  0  0  0  0
 15 26  2  0  0  0  0
 16 25  2  0  0  0  0
 16 26  1  0  0  0  0
 17 30  2  0  0  0  0
 17 31  1  0  0  0  0
 18 32  1  0  0  0  0
 19 32  1  0  0  0  0
 19 33  2  0  0  0  0
 19 34  1  0  0  0  0
 20 22  2  0  0  0  0
 20 40  1  0  0  0  0
 21 23  2  0  0  0  0
 21 41  1  0  0  0  0
 22 49  1  0  0  0  0
 23 42  1  0  0  0  0
 24 52  1  0  0  0  0
 25 68  1  0  0  0  0
 26 69  1  0  0  0  0
 27 79  1  0  0  0  0
 28 80  1  0  0  0  0
 29 31  2  0  0  0  0
 29 79  1  0  0  0  0
 30 81  1  0  0  0  0
 31 82  1  0  0  0  0
 32 62  2  0  0  0  0
 33 63  1  0  0  0  0
 33 66  1  0  0  0  0
 34 67  1  0  0  0  0
 34 73  2  0  0  0  0
 35 50  1  0  0  0  0
 35 70  1  0  0  0  0
 35 74  2  0  0  0  0
 36 59  1  0  0  0  0
 36 64  1  0  0  0  0
 36 75  2  0  0  0  0
 37 58  1  0  0  0  0
 37 68  1  0  0  0  0
 37 76  2  0  0  0  0
 38 60  1  0  0  0  0
 38 71  1  0  0  0  0
 38 77  2  0  0  0  0
 39 65  1  0  0  0  0
 39 69  1  0  0  0  0
 39 78  2  0  0  0  0
 40 43  1  0  0  0  0
 41 50  1  0  0  0  0
 42 64  1  0  0  0  0
 43 45  1  0  0  0  0
 44 46  1  0  0  0  0
 44 47  1  0  0  0  0
 45 49  1  0  0  0  0
 46 51  1  0  0  0  0
 47 65  1  0  0  0  0
 48 51  1  0  0  0  0
 48 65  1  0  0  0  0
 49 70  1  0  0  0  0
 50 64  1  0  0  0  0
 51 63  1  0  0  0  0
 53 60  1  0  0  0  0
 54 61  1  0  0  0  0
 55 61  1  0  0  0  0
 56 61  1  0  0  0  0
 57 72  1  0  0  0  0
 58 80  1  0  0  0  0
 59 61  1  0  0  0  0
 59 71  1  0  0  0  0
 60 72  1  0  0  0  0
 62 63  1  0  0  0  0
M  CHG  1  72   1
M  ISO  4  39 100  58 101  69 100  80 101
M  END
> <Batch ID>
0011

> <Smiles>
CNC(C)C(=O)NC(C(=O)N1Cc2cc([101O:1][101CH2:1]C(=O)Nc3cc(C)cc([100NH:0][100C:0](=O)N4CCCC(n5nc(-c6ccc(Oc7ccc(F)cc7F)cc6)c(C(N)=O)c5N)C4)c3)ccc2CC1C(=O)NC1CCCc2ccccc21)C(C)(C)C

> <Shape>
0.229

> <Color>
0.201

> <Negative vol penalty>
0.000

$$$$

  -OEChem-04052315443D

 88 96  0     1  0  0  0  0  0999 V2000
  -22.4790  -23.4141   18.4196 C   0  0  0  0  0  0  0  0  0  0  0  0
  -23.6568  -22.7872   18.8133 C   0  0  0  0  0  0  0  0  0  0  0  0
  -23.0908  -28.5921   19.2838 C   0  0  0  0  0  0  0  0  0  0  0  0
  -23.2775  -27.5374   21.4495 C   0  0  0  0  0  0  0  0  0  0  0  0
  -21.2484  -22.9084   18.8367 C   0  0  0  0  0  0  0  0  0  0  0  0
  -23.6049  -21.6547   19.6252 C   0  0  0  0  0  0  0  0  0  0  0  0
  -26.7275  -17.9915   18.0521 C   0  0  0  0  0  0  0  0  0  0  0  0
  -21.7064  -28.4257   19.3221 C   0  0  0  0  0  0  0  0  0  0  0  0
  -21.8931  -27.3711   21.4878 C   0  0  0  0  0  0  0  0  0  0  0  0
  -28.0812  -18.1361   18.3528 C   0  0  0  0  0  0  0  0  0  0  0  0
  -19.1754  -29.2679   22.1486 C   0  0  0  0  0  0  0  0  0  0  0  0
  -18.5182  -29.5894   23.3361 C   0  0  0  0  0  0  0  0  0  0  0  0
  -27.8259  -16.6132   20.2062 C   0  0  0  0  0  0  0  0  0  0  0  0
  -30.5349  -21.4453   21.4384 C   0  0  0  0  0  0  0  0  0  0  0  0
  -29.4950  -22.6207   23.2751 C   0  0  0  0  0  0  0  0  0  0  0  0
  -17.7163  -27.3168   23.5077 C   0  0  0  0  0  0  0  0  0  0  0  0
  -23.8763  -28.1479   20.3475 C   0  0  0  0  0  0  0  0  0  0  0  0
  -26.0441  -29.4207   20.7814 C   0  0  0  0  0  0  0  0  0  0  0  0
  -21.1810  -21.7635   19.6462 C   0  0  0  0  0  0  0  0  0  0  0  0
  -25.9091  -17.1638   18.8341 C   0  0  0  0  0  0  0  0  0  0  0  0
  -22.3723  -21.1340   20.0546 C   0  0  0  0  0  0  0  0  0  0  0  0
  -26.4628  -16.4578   19.9117 C   0  0  0  0  0  0  0  0  0  0  0  0
  -29.9499  -22.6006   21.9567 C   0  0  0  0  0  0  0  0  0  0  0  0
  -30.6649  -20.3100   22.2384 C   0  0  0  0  0  0  0  0  0  0  0  0
  -29.6250  -21.4855   24.0752 C   0  0  0  0  0  0  0  0  0  0  0  0
  -21.1076  -27.8152   20.4241 C   0  0  0  0  0  0  0  0  0  0  0  0
  -28.6300  -17.4492   19.4317 C   0  0  0  0  0  0  0  0  0  0  0  0
  -19.1030  -27.9708   21.6406 C   0  0  0  0  0  0  0  0  0  0  0  0
  -17.7886  -28.6140   24.0157 C   0  0  0  0  0  0  0  0  0  0  0  0
  -18.3735  -26.9953   22.3202 C   0  0  0  0  0  0  0  0  0  0  0  0
  -30.2099  -20.3302   23.5569 C   0  0  0  0  0  0  0  0  0  0  0  0
  -25.3065  -28.3190   20.3083 C   0  0  0  0  0  0  0  0  0  0  0  0
  -27.3521  -29.0990   20.5129 C   0  0  0  0  0  0  0  0  0  0  0  0
  -25.5878  -30.6270   21.4077 C   0  0  0  0  0  0  0  0  0  0  0  0
  -23.3444  -17.6202   20.6555 C   0  0  0  0  0  0  0  0  0  0  0  0
  -23.3916  -14.3829   20.8556 C   0  0  0  0  0  0  0  0  0  0  0  0
  -25.1977  -11.4940   20.6583 C   0  0  0  0  0  0  0  0  0  0  0  0
  -30.2174  -23.9019   19.8163 C   0  0  0  0  0  0  0  0  0  0  0  0
  -19.8295  -21.2816   20.1108 C   0  0  0  0  0  0  0  0  0  0  0  0
  -24.4567  -16.9977   18.4804 C   0  0  0  0  0  0  0  0  0  0  0  0
  -25.6314  -15.5410   20.7701 C   0  0  0  0  0  0  0  0  0  0  0  0
  -19.8468  -19.8581   20.6618 C   0  0  0  0  0  0  0  0  0  0  0  0
  -30.0345  -26.5651   17.4603 C   0  0  0  0  0  0  0  0  0  0  0  0
  -21.0147  -19.6729   21.6255 C   0  0  0  0  0  0  0  0  0  0  0  0
  -28.8723  -27.4207   17.9697 C   0  0  0  0  0  0  0  0  0  0  0  0
  -29.7758  -25.0743   17.6702 C   0  0  0  0  0  0  0  0  0  0  0  0
  -28.2591  -25.5485   19.5527 C   0  0  0  0  0  0  0  0  0  0  0  0
  -22.3561  -19.8889   20.9145 C   0  0  1  0  0  0  0  0  0  0  0  0
  -23.6052  -16.5289   19.6562 C   0  0  1  0  0  0  0  0  0  0  0  0
  -28.5020  -27.0610   19.4220 C   0  0  2  0  0  0  0  0  0  0  0  0
  -31.1713  -22.2881   26.5240 C   0  0  0  0  0  0  0  0  0  0  0  0
  -24.9699   -9.0074   20.9085 C   0  0  0  0  0  0  0  0  0  0  0  0
  -27.6767  -23.0417   26.5479 C   0  0  0  0  0  0  0  0  0  0  0  0
  -27.1684  -20.5784   26.4067 C   0  0  0  0  0  0  0  0  0  0  0  0
  -23.3473  -14.6947   23.8905 C   0  0  0  0  0  0  0  0  0  0  0  0
  -24.0710  -12.3052   24.0768 C   0  0  0  0  0  0  0  0  0  0  0  0
  -21.8876  -12.8657   23.0084 C   0  0  0  0  0  0  0  0  0  0  0  0
  -31.3915  -17.9574   22.5506 C   0  0  0  0  0  0  0  0  0  0  0  0
  -25.9889  -11.0219   17.8458 C   0  0  0  0  0  0  0  0  0  0  0  0
  -30.0804  -21.2721   26.5057 C   0  0  0  0  0  0  0  0  0  0  0  0
  -31.7215  -19.0952   20.3495 C   0  0  0  0  0  0  0  0  0  0  0  0
  -30.5605  -18.8378   19.4035 C   0  0  0  0  0  0  0  0  0  1  0  0
  -24.0368  -13.3781   21.7793 C   0  0  1  0  0  0  0  0  0  0  0  0
  -24.9252  -10.1825   19.9441 C   0  0  2  0  0  0  0  0  0  0  0  0
  -27.7706  -21.7828   25.6980 C   0  0  0  0  0  0  0  0  0  0  0  0
  -23.3512  -13.3296   23.1740 C   0  0  0  0  0  0  0  0  0  0  0  0
  -26.0814  -27.3685   19.7791 N   0  0  0  0  0  0  0  0  0  0  0  0
  -27.3197  -27.8721   19.9181 N   0  0  0  0  0  0  0  0  0  0  0  0
  -24.2151  -15.4167   20.3878 N   0  0  0  0  0  0  0  0  0  0  0  0
  -29.4352  -24.8081   19.0695 N   0  0  0  0  0  0  0  0  0  0  0  0
  -28.5154  -29.7488   20.7299 N   0  0  0  0  0  0  0  0  0  0  0  0
  -24.2110  -30.7963   21.6081 N   0  0  0  0  0  0  0  0  0  0  0  0
  -29.8182  -23.7539   21.1442 N   0  0  0  0  0  0  0  0  0  0  0  0
  -22.7042  -18.7252   20.1277 N   0  0  0  0  0  0  0  0  0  0  0  0
  -24.0310  -12.1055   21.0661 N   0  0  0  0  0  0  0  0  0  0  0  0
  -31.2530  -19.1508   21.7153 N   0  0  3  0  0  0  0  0  0  0  0  0
  -29.1640  -21.5085   25.4083 N   0  0  3  0  0  0  0  0  0  0  0  0
  -25.9397   -9.9534   18.8768 N   0  3  0  0  0  0  0  0  0  0  0  0
  -26.3762  -31.5353   21.7639 O   0  0  0  0  0  0  0  0  0  0  0  0
  -23.6966  -17.4702   21.8196 O   0  0  0  0  0  0  0  0  0  0  0  0
  -22.2027  -14.2512   20.5544 O   0  0  0  0  0  0  0  0  0  0  0  0
  -26.3322  -11.9304   20.8399 O   0  0  0  0  0  0  0  0  0  0  0  0
  -31.1877  -23.3219   19.3222 O   0  0  0  0  0  0  0  0  0  0  0  0
  -19.7567  -27.6529   20.4619 O   0  0  0  0  0  0  0  0  0  0  0  0
  -29.9508  -17.5890   19.7278 O   0  0  0  0  0  0  0  0  0  1  0  0
  -17.1588  -28.9225   25.1569 F   0  0  0  0  0  0  0  0  0  0  0  0
  -18.3013  -25.7472   21.8377 F   0  0  0  0  0  0  0  0  0  0  0  0
  -30.3345  -19.2378   24.3261 F   0  0  0  0  0  0  0  0  0  0  0  0
  1  2  1  0  0  0  0
  1  5  2  0  0  0  0
  2  6  2  0  0  0  0
  3  8  2  0  0  0  0
  3 17  1  0  0  0  0
  4  9  1  0  0  0  0
  4 17  2  0  0  0  0
  5 19  1  0  0  0  0
  6 21  1  0  0  0  0
  7 10  2  0  0  0  0
  7 20  1  0  0  0  0
  8 26  1  0  0  0  0
  9 26  2  0  0  0  0
 10 27  1  0  0  0  0
 11 12  2  0  0  0  0
 11 28  1  0  0  0  0
 12 29  1  0  0  0  0
 13 22  1  0  0  0  0
 13 27  2  0  0  0  0
 14 23  1  0  0  0  0
 14 24  2  0  0  0  0
 15 23  2  0  0  0  0
 15 25  1  0  0  0  0
 16 29  2  0  0  0  0
 16 30  1  0  0  0  0
 17 32  1  0  0  0  0
 18 32  1  0  0  0  0
 18 33  2  0  0  0  0
 18 34  1  0  0  0  0
 19 21  2  0  0  0  0
 19 39  1  0  0  0  0
 20 22  2  0  0  0  0
 20 40  1  0  0  0  0
 21 48  1  0  0  0  0
 22 41  1  0  0  0  0
 23 73  1  0  0  0  0
 24 31  1  0  0  0  0
 24 76  1  0  0  0  0
 25 31  2  0  0  0  0
 25 77  1  0  0  0  0
 26 84  1  0  0  0  0
 27 85  1  0  0  0  0
 28 30  2  0  0  0  0
 28 84  1  0  0  0  0
 29 86  1  0  0  0  0
 30 87  1  0  0  0  0
 31 88  1  0  0  0  0
 32 67  2  0  0  0  0
 33 68  1  0  0  0  0
 33 71  1  0  0  0  0
 34 72  1  0  0  0  0
 34 79  2  0  0  0  0
 35 49  1  0  0  0  0
 35 74  1  0  0  0  0
 35 80  2  0  0  0  0
 36 63  1  0  0  0  0
 36 69  1  0  0  0  0
 36 81  2  0  0  0  0
 37 64  1  0  0  0  0
 37 75  1  0  0  0  0
 37 82  2  0  0  0  0
 38 70  1  0  0  0  0
 38 73  1  0  0  0  0
 38 83  2  0  0  0  0
 39 42  1  0  0  0  0
 40 49  1  0  0  0  0
 41 69  1  0  0  0  0
 42 44  1  0  0  0  0
 43 45  1  0  0  0  0
 43 46  1  0  0  0  0
 44 48  1  0  0  0  0
 45 50  1  0  0  0  0
 46 70  1  0  0  0  0
 47 50  1  0  0  0  0
 47 70  1  0  0  0  0
 48 74  1  0  0  0  0
 49 69  1  0  0  0  0
 50 68  1  0  0  0  0
 51 60  1  0  0  0  0
 52 64  1  0  0  0  0
 53 65  1  0  0  0  0
 54 65  1  0  0  0  0
 55 66  1  0  0  0  0
 56 66  1  0  0  0  0
 57 66  1  0  0  0  0
 58 76  1  0  0  0  0
 59 78  1  0  0  0  0
 60 77  1  0  0  0  0
 61 62  1  0  0  0  0
 61 76  1  0  0  0  0
 62 85  1  0  0  0  0
 63 66  1  0  0  0  0
 63 75  1  0  0  0  0
 64 78  1  0  0  0  0
 65 77  1  0  0  0  0
 67 68  1  0  0  0  0
M  CHG  1  78   1
M  ISO  4  38 100  62 101  73 100  85 101
M  END
> <Batch ID>
0011

> <Smiles>
CCN(c1cc([100NH:0][100C:0](=O)N2CCCC(n3nc(-c4ccc(Oc5ccc(F)cc5F)cc4)c(C(N)=O)c3N)C2)cc(N(C)C[101CH2:1][101O:1]c2ccc3c(c2)CN(C(=O)C(NC(=O)C(C)NC)C(C)(C)C)C(C(=O)NC2CCCc4ccccc42)C3)c1F)C(C)C

> <Shape>
0.232

> <Color>
0.072

> <Negative vol penalty>
0.000

$$$$

  -OEChem-04052315443D

 84 92  0     1  0  0  0  0  0999 V2000
  -27.7847  -10.9542   20.8625 C   0  0  0  0  0  0  0  0  0  0  0  0
  -28.4177  -12.1324   20.4797 C   0  0  0  0  0  0  0  0  0  0  0  0
  -19.7285  -28.0576   23.8958 C   0  0  0  0  0  0  0  0  0  0  0  0
  -20.9302  -26.9644   22.1076 C   0  0  0  0  0  0  0  0  0  0  0  0
  -26.3922  -10.8868   20.8816 C   0  0  0  0  0  0  0  0  0  0  0  0
  -27.6585  -13.2437   20.1147 C   0  0  0  0  0  0  0  0  0  0  0  0
  -29.0296  -19.1282   21.1140 C   0  0  0  0  0  0  0  0  0  0  0  0
  -18.5200  -27.6350   23.3421 C   0  0  0  0  0  0  0  0  0  0  0  0
  -19.7217  -26.5418   21.5538 C   0  0  0  0  0  0  0  0  0  0  0  0
  -29.5956  -20.1103   20.3023 C   0  0  0  0  0  0  0  0  0  0  0  0
  -17.4436  -24.1089   22.1123 C   0  0  0  0  0  0  0  0  0  0  0  0
  -17.3568  -22.7844   21.6839 C   0  0  0  0  0  0  0  0  0  0  0  0
  -27.3897  -20.9083   19.7400 C   0  0  0  0  0  0  0  0  0  0  0  0
  -28.7765  -26.7978   20.0632 C   0  0  0  0  0  0  0  0  0  0  0  0
  -30.9530  -26.7603   19.0312 C   0  0  0  0  0  0  0  0  0  0  0  0
  -16.8839  -23.5414   19.4389 C   0  0  0  0  0  0  0  0  0  0  0  0
  -20.9336  -27.7224   23.2785 C   0  0  0  0  0  0  0  0  0  0  0  0
  -22.6837  -27.8560   25.1297 C   0  0  0  0  0  0  0  0  0  0  0  0
  -25.6155  -12.0008   20.5259 C   0  0  0  0  0  0  0  0  0  0  0  0
  -27.6367  -19.0216   21.2364 C   0  0  0  0  0  0  0  0  0  0  0  0
  -26.2543  -13.1907   20.1278 C   0  0  0  0  0  0  0  0  0  0  0  0
  -26.8085  -19.9255   20.5558 C   0  0  0  0  0  0  0  0  0  0  0  0
  -29.8194  -26.0872   19.4768 C   0  0  0  0  0  0  0  0  0  0  0  0
  -18.5166  -26.8771   22.1711 C   0  0  0  0  0  0  0  0  0  0  0  0
  -28.7756  -20.9987   19.6129 C   0  0  0  0  0  0  0  0  0  0  0  0
  -17.2504  -25.1498   21.2040 C   0  0  0  0  0  0  0  0  0  0  0  0
  -17.0770  -22.5005   20.3472 C   0  0  0  0  0  0  0  0  0  0  0  0
  -16.9706  -24.8660   19.8673 C   0  0  0  0  0  0  0  0  0  0  0  0
  -22.1822  -28.1591   23.8497 C   0  0  0  0  0  0  0  0  0  0  0  0
  -23.8930  -28.5046   25.1872 C   0  0  0  0  0  0  0  0  0  0  0  0
  -28.8943  -28.1746   20.1902 C   0  0  0  0  0  0  0  0  0  0  0  0
  -31.0156  -28.1380   19.1843 C   0  0  0  0  0  0  0  0  0  0  0  0
  -22.1078  -27.0593   26.1734 C   0  0  0  0  0  0  0  0  0  0  0  0
  -25.4894  -16.7810   20.5490 C   0  0  0  0  0  0  0  0  0  0  0  0
  -23.4546  -18.8274   22.0302 C   0  0  0  0  0  0  0  0  0  0  0  0
  -22.7490  -22.0269   22.9853 C   0  0  0  0  0  0  0  0  0  0  0  0
  -27.7762  -30.2792   21.0067 C   0  0  0  0  0  0  0  0  0  0  0  0
  -24.1135  -11.8654   20.5165 C   0  0  0  0  0  0  0  0  0  0  0  0
  -27.0425  -17.9736   22.1369 C   0  0  0  0  0  0  0  0  0  0  0  0
  -25.3079  -19.8663   20.6695 C   0  0  0  0  0  0  0  0  0  0  0  0
  -23.3814  -13.2043   20.4755 C   0  0  0  0  0  0  0  0  0  0  0  0
  -26.1762  -32.3326   23.4358 C   0  0  0  0  0  0  0  0  0  0  0  0
  -23.9989  -14.1183   19.4219 C   0  0  0  0  0  0  0  0  0  0  0  0
  -25.0197  -31.4655   23.9385 C   0  0  0  0  0  0  0  0  0  0  0  0
  -26.4204  -32.1408   21.9400 C   0  0  0  0  0  0  0  0  0  0  0  0
  -25.4447  -29.8800   22.0169 C   0  0  0  0  0  0  0  0  0  0  0  0
  -25.4653  -14.4252   19.7488 C   0  0  1  0  0  0  0  0  0  0  0  0
  -25.5986  -17.6308   21.7833 C   0  0  1  0  0  0  0  0  0  0  0  0
  -25.2030  -29.9903   23.5312 C   0  0  2  0  0  0  0  0  0  0  0  0
  -20.9945  -23.3945   24.1468 C   0  0  0  0  0  0  0  0  0  0  0  0
  -30.6721  -24.0185   17.2236 C   0  0  0  0  0  0  0  0  0  0  0  0
  -21.7013  -18.6914   19.5368 C   0  0  0  0  0  0  0  0  0  0  0  0
  -20.5158  -20.7437   20.3433 C   0  0  0  0  0  0  0  0  0  0  0  0
  -20.4451  -18.6508   21.6989 C   0  0  0  0  0  0  0  0  0  0  0  0
  -33.4545  -28.2698   18.7430 C   0  0  0  0  0  0  0  0  0  0  0  0
  -31.9857  -30.2419   18.2938 C   0  0  0  0  0  0  0  0  0  0  0  0
  -24.6357  -22.8552   25.1097 C   0  0  0  0  0  0  0  0  0  0  0  0
  -30.6109  -22.4519   19.1935 C   0  0  0  0  0  0  0  0  0  1  0  0
  -22.5907  -19.9835   21.5875 C   0  0  1  0  0  0  0  0  0  0  0  0
  -22.2829  -22.6031   24.3101 C   0  0  2  0  0  0  0  0  0  0  0  0
  -30.7695  -23.9012   18.7390 C   0  0  2  0  0  0  0  0  0  0  0  0
  -21.3414  -19.5175   20.7877 C   0  0  0  0  0  0  0  0  0  0  0  0
  -23.0056  -28.9397   23.1449 N   0  0  0  0  0  0  0  0  0  0  0  0
  -24.0366  -29.1327   23.9851 N   0  0  0  0  0  0  0  0  0  0  0  0
  -29.9970  -28.7976   19.7525 N   0  3  0  0  0  0  0  0  0  0  0  0
  -24.7745  -18.8199   21.5573 N   0  0  0  0  0  0  0  0  0  0  0  0
  -26.5891  -30.7196   21.6293 N   0  0  0  0  0  0  0  0  0  0  0  0
  -24.8368  -28.5934   26.1483 N   0  0  0  0  0  0  0  0  0  0  0  0
  -21.2816  -27.6877   27.1151 N   0  0  0  0  0  0  0  0  0  0  0  0
  -29.7306  -24.7142   19.3389 N   0  0  0  0  0  0  0  0  0  0  0  0
  -27.8374  -28.9030   20.7903 N   0  0  0  0  0  0  0  0  0  0  0  0
  -25.5521  -15.4225   20.7939 N   0  0  0  0  0  0  0  0  0  0  0  0
  -22.2791  -20.7451   22.7922 N   0  0  0  0  0  0  0  0  0  0  0  0
  -32.1305  -28.8701   18.7533 N   0  0  0  0  0  0  0  0  0  0  0  0
  -23.3224  -23.5090   24.8754 N   0  3  0  0  0  0  0  0  0  0  0  0
  -22.3329  -25.8296   26.2778 O   0  0  0  0  0  0  0  0  0  0  0  0
  -25.3565  -17.3180   19.4555 O   0  0  0  0  0  0  0  0  0  0  0  0
  -22.9781  -17.9666   22.7743 O   0  0  0  0  0  0  0  0  0  0  0  0
  -23.4560  -22.6529   22.1986 O   0  0  0  0  0  0  0  0  0  0  0  0
  -28.6841  -31.0614   20.7137 O   0  0  0  0  0  0  0  0  0  0  0  0
  -17.3376  -26.4643   21.6306 O   0  0  0  0  0  0  0  0  0  0  0  0
  -29.3254  -21.9579   18.8195 O   0  0  0  0  0  0  0  0  0  1  0  0
  -16.9953  -21.2285   19.9357 F   0  0  0  0  0  0  0  0  0  0  0  0
  -16.7852  -25.8617   18.9897 F   0  0  0  0  0  0  0  0  0  0  0  0
  1  2  1  0  0  0  0
  1  5  2  0  0  0  0
  2  6  2  0  0  0  0
  3  8  2  0  0  0  0
  3 17  1  0  0  0  0
  4  9  1  0  0  0  0
  4 17  2  0  0  0  0
  5 19  1  0  0  0  0
  6 21  1  0  0  0  0
  7 10  2  0  0  0  0
  7 20  1  0  0  0  0
  8 24  1  0  0  0  0
  9 24  2  0  0  0  0
 10 25  1  0  0  0  0
 11 12  2  0  0  0  0
 11 26  1  0  0  0  0
 12 27  1  0  0  0  0
 13 22  1  0  0  0  0
 13 25  2  0  0  0  0
 14 23  1  0  0  0  0
 14 31  2  0  0  0  0
 15 23  2  0  0  0  0
 15 32  1  0  0  0  0
 16 27  2  0  0  0  0
 16 28  1  0  0  0  0
 17 29  1  0  0  0  0
 18 29  1  0  0  0  0
 18 30  2  0  0  0  0
 18 33  1  0  0  0  0
 19 21  2  0  0  0  0
 19 38  1  0  0  0  0
 20 22  2  0  0  0  0
 20 39  1  0  0  0  0
 21 47  1  0  0  0  0
 22 40  1  0  0  0  0
 23 70  1  0  0  0  0
 24 81  1  0  0  0  0
 25 82  1  0  0  0  0
 26 28  2  0  0  0  0
 26 81  1  0  0  0  0
 27 83  1  0  0  0  0
 28 84  1  0  0  0  0
 29 63  2  0  0  0  0
 30 64  1  0  0  0  0
 30 68  1  0  0  0  0
 31 65  1  0  0  0  0
 31 71  1  0  0  0  0
 32 65  2  0  0  0  0
 32 74  1  0  0  0  0
 33 69  1  0  0  0  0
 33 76  2  0  0  0  0
 34 48  1  0  0  0  0
 34 72  1  0  0  0  0
 34 77  2  0  0  0  0
 35 59  1  0  0  0  0
 35 66  1  0  0  0  0
 35 78  2  0  0  0  0
 36 60  1  0  0  0  0
 36 73  1  0  0  0  0
 36 79  2  0  0  0  0
 37 67  1  0  0  0  0
 37 71  1  0  0  0  0
 37 80  2  0  0  0  0
 38 41  1  0  0  0  0
 39 48  1  0  0  0  0
 40 66  1  0  0  0  0
 41 43  1  0  0  0  0
 42 44  1  0  0  0  0
 42 45  1  0  0  0  0
 43 47  1  0  0  0  0
 44 49  1  0  0  0  0
 45 67  1  0  0  0  0
 46 49  1  0  0  0  0
 46 67  1  0  0  0  0
 47 72  1  0  0  0  0
 48 66  1  0  0  0  0
 49 64  1  0  0  0  0
 50 60  1  0  0  0  0
 51 61  1  0  0  0  0
 52 62  1  0  0  0  0
 53 62  1  0  0  0  0
 54 62  1  0  0  0  0
 55 74  1  0  0  0  0
 56 74  1  0  0  0  0
 57 75  1  0  0  0  0
 58 61  1  0  0  0  0
 58 82  1  0  0  0  0
 59 62  1  0  0  0  0
 59 73  1  0  0  0  0
 60 75  1  0  0  0  0
 61 70  1  0  0  0  0
 63 64  1  0  0  0  0
M  CHG  2  65   1  75   1
M  ISO  4  37 100  58 101  71 100  82 101
M  END
> <Batch ID>
0011

> <Smiles>
CNC(C)C(=O)NC(C(=O)N1Cc2cc([101O:1][101CH2:1]C(C)Nc3cc([100NH:0][100C:0](=O)N4CCCC(n5nc(-c6ccc(Oc7ccc(F)cc7F)cc6)c(C(N)=O)c5N)C4)nc(N(C)C)c3)ccc2CC1C(=O)NC1CCCc2ccccc21)C(C)(C)C

> <Shape>
0.237

> <Color>
0.061

> <Negative vol penalty>
0.000

$$$$

  -OEChem-04052315443D

 94103  0     1  0  0  0  0  0999 V2000
  -27.4188  -39.1138   23.8841 C   0  0  0  0  0  0  0  0  0  0  0  0
  -28.2501  -38.0209   24.1072 C   0  0  0  0  0  0  0  0  0  0  0  0
  -25.1753   -6.4570   23.3116 C   0  0  0  0  0  0  0  0  0  0  0  0
  -24.0023   -8.0823   24.6606 C   0  0  0  0  0  0  0  0  0  0  0  0
  -24.8946  -18.1834   23.2043 C   0  0  0  0  0  0  0  0  0  0  0  0
  -26.0459  -38.9993   24.0989 C   0  0  0  0  0  0  0  0  0  0  0  0
  -27.7092  -36.8130   24.5463 C   0  0  0  0  0  0  0  0  0  0  0  0
  -28.5463  -30.7666   20.7212 C   0  0  0  0  0  0  0  0  0  0  0  0
  -23.9497  -17.1921   23.4690 C   0  0  0  0  0  0  0  0  0  0  0  0
  -25.5427   -5.7645   24.4654 C   0  0  0  0  0  0  0  0  0  0  0  0
  -24.3697   -7.3898   25.8143 C   0  0  0  0  0  0  0  0  0  0  0  0
  -28.8422  -29.5271   20.1536 C   0  0  0  0  0  0  0  0  0  0  0  0
  -24.1121   -3.5992   26.6328 C   0  0  0  0  0  0  0  0  0  0  0  0
  -23.9768   -2.2110   26.6264 C   0  0  0  0  0  0  0  0  0  0  0  0
  -25.8556  -16.8041   21.4690 C   0  0  0  0  0  0  0  0  0  0  0  0
  -27.4601  -28.4284   21.8061 C   0  0  0  0  0  0  0  0  0  0  0  0
  -30.2457  -21.5700   18.9487 C   0  0  0  0  0  0  0  0  0  0  0  0
  -28.9144  -20.8725   20.8403 C   0  0  0  0  0  0  0  0  0  0  0  0
  -28.6744  -19.7497   18.7145 C   0  0  0  0  0  0  0  0  0  0  0  0
  -26.3481   -1.9780   27.0263 C   0  0  0  0  0  0  0  0  0  0  0  0
  -24.4052   -7.6159   23.4092 C   0  0  0  0  0  0  0  0  0  0  0  0
  -25.8475  -17.9895   22.2042 C   0  0  0  0  0  0  0  0  0  0  0  0
  -22.8666   -8.1389   21.4428 C   0  0  0  0  0  0  0  0  0  0  0  0
  -25.4867  -37.7866   24.5316 C   0  0  0  0  0  0  0  0  0  0  0  0
  -27.6927  -30.8432   21.8253 C   0  0  0  0  0  0  0  0  0  0  0  0
  -26.3278  -36.6825   24.7684 C   0  0  0  0  0  0  0  0  0  0  0  0
  -27.1500  -29.6683   22.3712 C   0  0  0  0  0  0  0  0  0  0  0  0
  -29.8819  -21.7117   20.2878 C   0  0  0  0  0  0  0  0  0  0  0  0
  -29.6419  -20.5890   18.1620 C   0  0  0  0  0  0  0  0  0  0  0  0
  -23.9578  -16.0068   22.7338 C   0  0  0  0  0  0  0  0  0  0  0  0
  -24.9107  -15.8128   21.7337 C   0  0  0  0  0  0  0  0  0  0  0  0
  -28.3106  -19.8914   20.0536 C   0  0  0  0  0  0  0  0  0  0  0  0
  -25.1399   -6.2309   25.7167 C   0  0  0  0  0  0  0  0  0  0  0  0
  -28.3006  -28.3609   20.6949 C   0  0  0  0  0  0  0  0  0  0  0  0
  -25.3654   -4.1769   26.8359 C   0  0  0  0  0  0  0  0  0  0  0  0
  -25.0948   -1.4004   26.8232 C   0  0  0  0  0  0  0  0  0  0  0  0
  -26.4834   -3.3663   27.0326 C   0  0  0  0  0  0  0  0  0  0  0  0
  -24.0258   -8.3320   22.2178 C   0  0  0  0  0  0  0  0  0  0  0  0
  -22.9742   -9.0592   20.4289 C   0  0  0  0  0  0  0  0  0  0  0  0
  -26.8444  -19.0371   21.9247 C   0  0  0  0  0  0  0  0  0  0  0  0
  -21.7888   -7.2107   21.6232 C   0  0  0  0  0  0  0  0  0  0  0  0
  -25.9584  -33.0322   24.3305 C   0  0  0  0  0  0  0  0  0  0  0  0
  -23.9562  -30.8577   23.5101 C   0  0  0  0  0  0  0  0  0  0  0  0
  -29.6096  -24.9951   20.5227 C   0  0  0  0  0  0  0  0  0  0  0  0
  -21.9195  -28.5553   22.0310 C   0  0  0  0  0  0  0  0  0  0  0  0
  -25.8249  -14.2887   19.9483 C   0  0  0  0  0  0  0  0  0  0  0  0
  -24.0031  -37.7246   24.7955 C   0  0  0  0  0  0  0  0  0  0  0  0
  -27.3953  -32.1512   22.5068 C   0  0  0  0  0  0  0  0  0  0  0  0
  -26.2645  -29.7958   23.5805 C   0  0  0  0  0  0  0  0  0  0  0  0
  -23.4622  -36.3010   24.9014 C   0  0  0  0  0  0  0  0  0  0  0  0
  -26.2433  -11.4356   17.8598 C   0  0  0  0  0  0  0  0  0  0  0  0
  -24.3592  -35.4546   25.7991 C   0  0  0  0  0  0  0  0  0  0  0  0
  -25.6112  -10.2994   18.6672 C   0  0  0  0  0  0  0  0  0  0  0  0
  -26.9720  -12.4329   18.7587 C   0  0  0  0  0  0  0  0  0  0  0  0
  -25.5384  -11.8371   20.6716 C   0  0  0  0  0  0  0  0  0  0  0  0
  -25.7756  -35.3483   25.2211 C   0  0  1  0  0  0  0  0  0  0  0  0
  -25.9621  -32.2299   23.0626 C   0  0  1  0  0  0  0  0  0  0  0  0
  -24.7379  -10.8422   19.8154 C   0  0  2  0  0  0  0  0  0  0  0  0
  -19.5673  -27.6825   22.0854 C   0  0  0  0  0  0  0  0  0  0  0  0
  -24.5824  -29.3412   26.0815 C   0  0  0  0  0  0  0  0  0  0  0  0
  -22.6581  -27.8231   25.5710 C   0  0  0  0  0  0  0  0  0  0  0  0
  -22.2587  -30.2563   25.9491 C   0  0  0  0  0  0  0  0  0  0  0  0
  -21.4431  -29.3310   19.2149 C   0  0  0  0  0  0  0  0  0  0  0  0
  -30.5317  -22.7678   21.1343 C   0  0  0  0  0  0  0  0  0  0  0  0
  -30.0310  -20.4374   16.7303 C   0  0  0  0  0  0  0  0  0  0  0  0
  -28.6054  -26.0219   21.0010 C   0  0  0  0  0  0  0  0  0  1  0  0
  -23.3700  -29.5007   23.8076 C   0  0  1  0  0  0  0  0  0  0  0  0
  -20.5250  -28.6738   21.4429 C   0  0  2  0  0  0  0  0  0  0  0  0
  -23.2385  -29.2336   25.3336 C   0  0  0  0  0  0  0  0  0  0  0  0
  -24.8121   -9.2989   21.7374 N   0  0  0  0  0  0  0  0  0  0  0  0
  -24.1458   -9.7216   20.6495 N   0  0  0  0  0  0  0  0  0  0  0  0
  -25.3510  -30.9374   23.4161 N   0  0  0  0  0  0  0  0  0  0  0  0
  -26.0817  -12.9072   19.8204 N   0  0  0  0  0  0  0  0  0  0  0  0
  -22.9905  -15.0167   23.0179 N   0  0  0  0  0  0  0  0  0  0  0  0
  -22.1799   -9.3584   19.3791 N   0  0  0  0  0  0  0  0  0  0  0  0
  -21.8365   -6.3360   22.7173 N   0  0  0  0  0  0  0  0  0  0  0  0
  -27.3429  -19.0519   20.6063 N   0  0  0  0  0  0  0  0  0  0  0  0
  -24.9378  -14.6178   20.9727 N   0  0  0  0  0  0  0  0  0  0  0  0
  -25.8079  -34.3919   24.1354 N   0  0  0  0  0  0  0  0  0  0  0  0
  -29.6551  -23.8931   21.3622 N   0  0  0  0  0  0  0  0  0  0  0  0
  -22.1085  -29.4322   23.0781 N   0  0  0  0  0  0  0  0  0  0  0  0
  -29.2103  -21.2654   15.8039 N   0  3  0  0  0  0  0  0  0  0  0  0
  -20.5575  -28.4127   19.9760 N   0  3  0  0  0  0  0  0  0  0  0  0
  -27.2192  -19.8056   22.8078 O   0  0  0  0  0  0  0  0  0  0  0  0
  -20.8205   -7.1473   20.8283 O   0  0  0  0  0  0  0  0  0  0  0  0
  -26.0814  -32.4607   25.4075 O   0  0  0  0  0  0  0  0  0  0  0  0
  -23.2007  -31.8235   23.3701 O   0  0  0  0  0  0  0  0  0  0  0  0
  -30.2873  -25.1500   19.5104 O   0  0  0  0  0  0  0  0  0  0  0  0
  -22.7561  -27.7613   21.6065 O   0  0  0  0  0  0  0  0  0  0  0  0
  -26.3317  -15.1162   19.1865 O   0  0  0  0  0  0  0  0  0  0  0  0
  -25.4980   -5.5553   26.8427 O   0  0  0  0  0  0  0  0  0  0  0  0
  -28.5901  -27.1545   20.1331 O   0  0  0  0  0  0  0  0  0  1  0  0
  -24.9644   -0.0673   26.8185 F   0  0  0  0  0  0  0  0  0  0  0  0
  -27.6898   -3.9155   27.2294 F   0  0  0  0  0  0  0  0  0  0  0  0
  1  2  1  0  0  0  0
  1  6  2  0  0  0  0
  2  7  2  0  0  0  0
  3 10  2  0  0  0  0
  3 21  1  0  0  0  0
  4 11  1  0  0  0  0
  4 21  2  0  0  0  0
  5  9  2  0  0  0  0
  5 22  1  0  0  0  0
  6 24  1  0  0  0  0
  7 26  1  0  0  0  0
  8 12  2  0  0  0  0
  8 25  1  0  0  0  0
  9 30  1  0  0  0  0
 10 33  1  0  0  0  0
 11 33  2  0  0  0  0
 12 34  1  0  0  0  0
 13 14  2  0  0  0  0
 13 35  1  0  0  0  0
 14 36  1  0  0  0  0
 15 22  2  0  0  0  0
 15 31  1  0  0  0  0
 16 27  1  0  0  0  0
 16 34  2  0  0  0  0
 17 28  1  0  0  0  0
 17 29  2  0  0  0  0
 18 28  2  0  0  0  0
 18 32  1  0  0  0  0
 19 29  1  0  0  0  0
 19 32  2  0  0  0  0
 20 36  2  0  0  0  0
 20 37  1  0  0  0  0
 21 38  1  0  0  0  0
 22 40  1  0  0  0  0
 23 38  1  0  0  0  0
 23 39  2  0  0  0  0
 23 41  1  0  0  0  0
 24 26  2  0  0  0  0
 24 47  1  0  0  0  0
 25 27  2  0  0  0  0
 25 48  1  0  0  0  0
 26 56  1  0  0  0  0
 27 49  1  0  0  0  0
 28 64  1  0  0  0  0
 29 65  1  0  0  0  0
 30 31  2  0  0  0  0
 30 74  1  0  0  0  0
 31 78  1  0  0  0  0
 32 77  1  0  0  0  0
 33 91  1  0  0  0  0
 34 92  1  0  0  0  0
 35 37  2  0  0  0  0
 35 91  1  0  0  0  0
 36 93  1  0  0  0  0
 37 94  1  0  0  0  0
 38 70  2  0  0  0  0
 39 71  1  0  0  0  0
 39 75  1  0  0  0  0
 40 77  1  0  0  0  0
 40 84  2  0  0  0  0
 41 76  1  0  0  0  0
 41 85  2  0  0  0  0
 42 57  1  0  0  0  0
 42 79  1  0  0  0  0
 42 86  2  0  0  0  0
 43 67  1  0  0  0  0
 43 72  1  0  0  0  0
 43 87  2  0  0  0  0
 44 66  1  0  0  0  0
 44 80  1  0  0  0  0
 44 88  2  0  0  0  0
 45 68  1  0  0  0  0
 45 81  1  0  0  0  0
 45 89  2  0  0  0  0
 46 73  1  0  0  0  0
 46 78  1  0  0  0  0
 46 90  2  0  0  0  0
 47 50  1  0  0  0  0
 48 57  1  0  0  0  0
 49 72  1  0  0  0  0
 50 52  1  0  0  0  0
 51 53  1  0  0  0  0
 51 54  1  0  0  0  0
 52 56  1  0  0  0  0
 53 58  1  0  0  0  0
 54 73  1  0  0  0  0
 55 58  1  0  0  0  0
 55 73  1  0  0  0  0
 56 79  1  0  0  0  0
 57 72  1  0  0  0  0
 58 71  1  0  0  0  0
 59 68  1  0  0  0  0
 60 69  1  0  0  0  0
 61 69  1  0  0  0  0
 62 69  1  0  0  0  0
 63 83  1  0  0  0  0
 64 80  1  0  0  0  0
 65 82  1  0  0  0  0
 66 92  1  0  0  0  0
 67 69  1  0  0  0  0
 67 81  1  0  0  0  0
 68 83  1  0  0  0  0
 70 71  1  0  0  0  0
M  CHG  2  82   1  83   1
M  ISO  4  46 100  66 101  78 100  92 101
M  END
> <Batch ID>
0011

> <Smiles>
CNC(C)C(=O)NC(C(=O)N1Cc2cc([101O:1][101CH2:1]C(=O)NCc3cc(CN)cc(NC(=O)c4ccc(N)c([100NH:0][100C:0](=O)N5CCCC(n6nc(-c7ccc(Oc8ccc(F)cc8F)cc7)c(C(N)=O)c6N)C5)c4)c3)ccc2CC1C(=O)NC1CCCc2ccccc21)C(C)(C)C

> <Shape>
0.289

> <Color>
0.084

> <Negative vol penalty>
0.000

$$$$

  -OEChem-04052315443D

 83 91  0     1  0  0  0  0  0999 V2000
  -23.7772   -8.0939   21.6020 C   0  0  0  0  0  0  0  0  0  0  0  0
  -24.4647   -9.1343   20.9852 C   0  0  0  0  0  0  0  0  0  0  0  0
  -22.0849  -28.0234   21.1932 C   0  0  0  0  0  0  0  0  0  0  0  0
  -23.1082  -27.0963   23.1757 C   0  0  0  0  0  0  0  0  0  0  0  0
  -22.4570   -8.2780   22.0106 C   0  0  0  0  0  0  0  0  0  0  0  0
  -23.8319  -10.3590   20.7757 C   0  0  0  0  0  0  0  0  0  0  0  0
  -26.7666  -14.2980   22.0075 C   0  0  0  0  0  0  0  0  0  0  0  0
  -29.5129  -22.1029   22.7297 C   0  0  0  0  0  0  0  0  0  0  0  0
  -20.8280  -27.9040   21.7861 C   0  0  0  0  0  0  0  0  0  0  0  0
  -21.8513  -26.9769   23.7687 C   0  0  0  0  0  0  0  0  0  0  0  0
  -27.7579  -14.6626   21.0975 C   0  0  0  0  0  0  0  0  0  0  0  0
  -29.9415  -21.0145   23.4895 C   0  0  0  0  0  0  0  0  0  0  0  0
  -18.9814  -29.5805   24.0692 C   0  0  0  0  0  0  0  0  0  0  0  0
  -18.1093  -30.6639   23.9636 C   0  0  0  0  0  0  0  0  0  0  0  0
  -26.3473  -16.4420   20.2831 C   0  0  0  0  0  0  0  0  0  0  0  0
  -29.7339  -20.7849   20.7170 C   0  0  0  0  0  0  0  0  0  0  0  0
  -16.5108  -29.2650   22.8127 C   0  0  0  0  0  0  0  0  0  0  0  0
  -23.2250  -27.6195   21.8880 C   0  0  0  0  0  0  0  0  0  0  0  0
  -25.3943  -28.8462   21.3430 C   0  0  0  0  0  0  0  0  0  0  0  0
  -21.8108   -9.5087   21.8147 C   0  0  0  0  0  0  0  0  0  0  0  0
  -25.5518  -14.9969   22.0548 C   0  0  0  0  0  0  0  0  0  0  0  0
  -22.5013  -10.5593   21.1808 C   0  0  0  0  0  0  0  0  0  0  0  0
  -25.3432  -16.0858   21.1964 C   0  0  0  0  0  0  0  0  0  0  0  0
  -29.4090  -21.9881   21.3434 C   0  0  0  0  0  0  0  0  0  0  0  0
  -30.1626  -19.6965   21.4768 C   0  0  0  0  0  0  0  0  0  0  0  0
  -20.7112  -27.3808   23.0739 C   0  0  0  0  0  0  0  0  0  0  0  0
  -27.5472  -15.7329   20.2331 C   0  0  0  0  0  0  0  0  0  0  0  0
  -30.2665  -19.8114   22.8630 C   0  0  0  0  0  0  0  0  0  0  0  0
  -18.6183  -28.3393   23.5465 C   0  0  0  0  0  0  0  0  0  0  0  0
  -16.8740  -30.5062   23.3354 C   0  0  0  0  0  0  0  0  0  0  0  0
  -17.3829  -28.1816   22.9183 C   0  0  0  0  0  0  0  0  0  0  0  0
  -24.5236  -27.7420   21.2758 C   0  0  0  0  0  0  0  0  0  0  0  0
  -26.4873  -28.4671   20.6026 C   0  0  0  0  0  0  0  0  0  0  0  0
  -25.2299  -30.1022   22.0147 C   0  0  0  0  0  0  0  0  0  0  0  0
  -22.5045  -14.2337   21.5701 C   0  0  0  0  0  0  0  0  0  0  0  0
  -21.9864  -17.2661   22.5990 C   0  0  0  0  0  0  0  0  0  0  0  0
  -23.1977  -20.4284   23.0231 C   0  0  0  0  0  0  0  0  0  0  0  0
  -28.8140  -23.1483   19.1879 C   0  0  0  0  0  0  0  0  0  0  0  0
  -20.3675   -9.6452   22.2306 C   0  0  0  0  0  0  0  0  0  0  0  0
  -24.5032  -14.6079   23.0605 C   0  0  0  0  0  0  0  0  0  0  0  0
  -24.0646  -16.8815   21.2211 C   0  0  0  0  0  0  0  0  0  0  0  0
  -19.8907  -11.0932   22.3097 C   0  0  0  0  0  0  0  0  0  0  0  0
  -27.7276  -25.6685   16.9196 C   0  0  0  0  0  0  0  0  0  0  0  0
  -20.3284  -11.8678   21.0707 C   0  0  0  0  0  0  0  0  0  0  0  0
  -26.8669  -26.5901   17.7868 C   0  0  0  0  0  0  0  0  0  0  0  0
  -27.5651  -24.2021   17.3159 C   0  0  0  0  0  0  0  0  0  0  0  0
  -26.9205  -24.8378   19.6071 C   0  0  0  0  0  0  0  0  0  0  0  0
  -21.8572  -11.9105   20.9583 C   0  0  1  0  0  0  0  0  0  0  0  0
  -23.1014  -15.0658   22.6696 C   0  0  1  0  0  0  0  0  0  0  0  0
  -27.1000  -26.3310   19.2882 C   0  0  2  0  0  0  0  0  0  0  0  0
  -22.5279  -22.6993   23.8547 C   0  0  0  0  0  0  0  0  0  0  0  0
  -20.3797  -17.7245   20.0459 C   0  0  0  0  0  0  0  0  0  0  0  0
  -20.5523  -20.1872   20.4624 C   0  0  0  0  0  0  0  0  0  0  0  0
  -19.3742  -18.7258   22.1052 C   0  0  0  0  0  0  0  0  0  0  0  0
  -25.2879  -20.4054   25.1182 C   0  0  0  0  0  0  0  0  0  0  0  0
  -29.6785  -17.8714   24.1067 C   0  0  0  0  0  0  0  0  0  0  0  0
  -30.7593  -16.8793   19.0427 C   0  0  0  0  0  0  0  0  0  0  0  0
  -30.3996  -18.3128   19.4140 C   0  0  0  0  0  0  0  0  0  0  0  0
  -29.8670  -15.8469   19.7219 C   0  0  0  0  0  0  0  0  0  1  0  0
  -21.8945  -18.6191   21.9356 C   0  0  1  0  0  0  0  0  0  0  0  0
  -23.1669  -21.3673   24.2155 C   0  0  2  0  0  0  0  0  0  0  0  0
  -20.5736  -18.7981   21.1352 C   0  0  0  0  0  0  0  0  0  0  0  0
  -25.0205  -26.7369   20.5499 N   0  0  0  0  0  0  0  0  0  0  0  0
  -26.2152  -27.2081   20.1541 N   0  0  0  0  0  0  0  0  0  0  0  0
  -23.0672  -16.4583   22.2179 N   0  0  0  0  0  0  0  0  0  0  0  0
  -27.8050  -24.0322   18.7506 N   0  0  0  0  0  0  0  0  0  0  0  0
  -27.6448  -29.0912   20.2978 N   0  0  0  0  0  0  0  0  0  0  0  0
  -24.0459  -30.3273   22.7301 N   0  0  0  0  0  0  0  0  0  0  0  0
  -28.9725  -23.0938   20.5723 N   0  0  0  0  0  0  0  0  0  0  0  0
  -30.4822  -18.5066   20.8416 N   0  0  0  0  0  0  0  0  0  0  0  0
  -22.4041  -12.8893   21.8733 N   0  0  0  0  0  0  0  0  0  0  0  0
  -22.0914  -19.6058   22.9920 N   0  0  0  0  0  0  0  0  0  0  0  0
  -24.5499  -21.6271   24.7061 N   0  3  0  0  0  0  0  0  0  0  0  0
  -26.0998  -31.0046   21.9678 O   0  0  0  0  0  0  0  0  0  0  0  0
  -22.1591  -14.7718   20.5248 O   0  0  0  0  0  0  0  0  0  0  0  0
  -21.1348  -16.9409   23.4301 O   0  0  0  0  0  0  0  0  0  0  0  0
  -24.1098  -20.4274   22.1994 O   0  0  0  0  0  0  0  0  0  0  0  0
  -29.5062  -22.5087   18.3918 O   0  0  0  0  0  0  0  0  0  0  0  0
  -19.4849  -27.2644   23.6528 O   0  0  0  0  0  0  0  0  0  0  0  0
  -30.6836  -18.7600   23.6232 O   0  0  0  0  0  0  0  0  0  0  0  0
  -28.5128  -16.0905   19.3434 O   0  0  0  0  0  0  0  0  0  1  0  0
  -16.0360  -31.5463   23.2354 F   0  0  0  0  0  0  0  0  0  0  0  0
  -17.0280  -26.9913   22.4152 F   0  0  0  0  0  0  0  0  0  0  0  0
  1  2  1  0  0  0  0
  1  5  2  0  0  0  0
  2  6  2  0  0  0  0
  3  9  2  0  0  0  0
  3 18  1  0  0  0  0
  4 10  1  0  0  0  0
  4 18  2  0  0  0  0
  5 20  1  0  0  0  0
  6 22  1  0  0  0  0
  7 11  2  0  0  0  0
  7 21  1  0  0  0  0
  8 12  2  0  0  0  0
  8 24  1  0  0  0  0
  9 26  1  0  0  0  0
 10 26  2  0  0  0  0
 11 27  1  0  0  0  0
 12 28  1  0  0  0  0
 13 14  2  0  0  0  0
 13 29  1  0  0  0  0
 14 30  1  0  0  0  0
 15 23  1  0  0  0  0
 15 27  2  0  0  0  0
 16 24  2  0  0  0  0
 16 25  1  0  0  0  0
 17 30  2  0  0  0  0
 17 31  1  0  0  0  0
 18 32  1  0  0  0  0
 19 32  1  0  0  0  0
 19 33  2  0  0  0  0
 19 34  1  0  0  0  0
 20 22  2  0  0  0  0
 20 39  1  0  0  0  0
 21 23  2  0  0  0  0
 21 40  1  0  0  0  0
 22 48  1  0  0  0  0
 23 41  1  0  0  0  0
 24 69  1  0  0  0  0
 25 28  2  0  0  0  0
 25 70  1  0  0  0  0
 26 79  1  0  0  0  0
 27 81  1  0  0  0  0
 28 80  1  0  0  0  0
 29 31  2  0  0  0  0
 29 79  1  0  0  0  0
 30 82  1  0  0  0  0
 31 83  1  0  0  0  0
 32 63  2  0  0  0  0
 33 64  1  0  0  0  0
 33 67  1  0  0  0  0
 34 68  1  0  0  0  0
 34 74  2  0  0  0  0
 35 49  1  0  0  0  0
 35 71  1  0  0  0  0
 35 75  2  0  0  0  0
 36 60  1  0  0  0  0
 36 65  1  0  0  0  0
 36 76  2  0  0  0  0
 37 61  1  0  0  0  0
 37 72  1  0  0  0  0
 37 77  2  0  0  0  0
 38 66  1  0  0  0  0
 38 69  1  0  0  0  0
 38 78  2  0  0  0  0
 39 42  1  0  0  0  0
 40 49  1  0  0  0  0
 41 65  1  0  0  0  0
 42 44  1  0  0  0  0
 43 45  1  0  0  0  0
 43 46  1  0  0  0  0
 44 48  1  0  0  0  0
 45 50  1  0  0  0  0
 46 66  1  0  0  0  0
 47 50  1  0  0  0  0
 47 66  1  0  0  0  0
 48 71  1  0  0  0  0
 49 65  1  0  0  0  0
 50 64  1  0  0  0  0
 51 61  1  0  0  0  0
 52 62  1  0  0  0  0
 53 62  1  0  0  0  0
 54 62  1  0  0  0  0
 55 73  1  0  0  0  0
 56 80  1  0  0  0  0
 57 58  1  0  0  0  0
 57 59  1  0  0  0  0
 58 70  1  0  0  0  0
 59 81  1  0  0  0  0
 60 62  1  0  0  0  0
 60 72  1  0  0  0  0
 61 73  1  0  0  0  0
 63 64  1  0  0  0  0
M  CHG  1  73   1
M  ISO  4  38 100  59 101  69 100  81 101
M  END
> <Batch ID>
0011

> <Smiles>
CNC(C)C(=O)NC(C(=O)N1Cc2cc([101O:1][101CH2:1]CCNc3cc([100NH:0][100C:0](=O)N4CCCC(n5nc(-c6ccc(Oc7ccc(F)cc7F)cc6)c(C(N)=O)c5N)C4)ccc3OC)ccc2CC1C(=O)NC1CCCc2ccccc21)C(C)(C)C

> <Shape>
0.241

> <Color>
0.090

> <Negative vol penalty>
0.000

$$$$

  -OEChem-04052315443D

 83 91  0     1  0  0  0  0  0999 V2000
  -21.9738  -13.6298   18.1297 C   0  0  0  0  0  0  0  0  0  0  0  0
  -22.1715  -14.9090   18.6395 C   0  0  0  0  0  0  0  0  0  0  0  0
  -30.2184  -26.2547   19.2831 C   0  0  0  0  0  0  0  0  0  0  0  0
  -29.4670  -25.2255   21.3357 C   0  0  0  0  0  0  0  0  0  0  0  0
  -18.6791  -26.5468   22.5807 C   0  0  0  0  0  0  0  0  0  0  0  0
  -22.7599  -12.5710   18.5824 C   0  0  0  0  0  0  0  0  0  0  0  0
  -23.1547  -15.1299   19.6034 C   0  0  0  0  0  0  0  0  0  0  0  0
  -25.9122  -19.2696   18.6523 C   0  0  0  0  0  0  0  0  0  0  0  0
  -31.5251  -25.8533   19.5601 C   0  0  0  0  0  0  0  0  0  0  0  0
  -30.7738  -24.8240   21.6127 C   0  0  0  0  0  0  0  0  0  0  0  0
  -25.3394  -20.5017   18.9645 C   0  0  0  0  0  0  0  0  0  0  0  0
  -35.1179  -25.4102   19.9056 C   0  0  0  0  0  0  0  0  0  0  0  0
  -18.0053  -27.4176   23.4369 C   0  0  0  0  0  0  0  0  0  0  0  0
  -36.1379  -26.3430   19.7187 C   0  0  0  0  0  0  0  0  0  0  0  0
  -26.6175  -20.5709   21.0093 C   0  0  0  0  0  0  0  0  0  0  0  0
  -19.7258  -29.0800   23.1000 C   0  0  0  0  0  0  0  0  0  0  0  0
  -35.1011  -27.8020   21.3415 C   0  0  0  0  0  0  0  0  0  0  0  0
  -29.1893  -25.9409   20.1709 C   0  0  0  0  0  0  0  0  0  0  0  0
  -19.8763  -26.9424   21.9841 C   0  0  0  0  0  0  0  0  0  0  0  0
  -26.8630  -25.6383   19.1686 C   0  0  0  0  0  0  0  0  0  0  0  0
  -23.7597  -12.7809   19.5452 C   0  0  0  0  0  0  0  0  0  0  0  0
  -26.8353  -18.6727   19.5229 C   0  0  0  0  0  0  0  0  0  0  0  0
  -23.9540  -14.0727   20.0704 C   0  0  0  0  0  0  0  0  0  0  0  0
  -27.2025  -19.3323   20.7045 C   0  0  0  0  0  0  0  0  0  0  0  0
  -20.3996  -28.2091   22.2437 C   0  0  0  0  0  0  0  0  0  0  0  0
  -31.8028  -25.1379   20.7249 C   0  0  0  0  0  0  0  0  0  0  0  0
  -25.6899  -21.1512   20.1446 C   0  0  0  0  0  0  0  0  0  0  0  0
  -34.0894  -25.6733   20.8105 C   0  0  0  0  0  0  0  0  0  0  0  0
  -18.5286  -28.6843   23.6966 C   0  0  0  0  0  0  0  0  0  0  0  0
  -36.1296  -27.5389   20.4366 C   0  0  0  0  0  0  0  0  0  0  0  0
  -34.0810  -26.8691   21.5284 C   0  0  0  0  0  0  0  0  0  0  0  0
  -27.8392  -26.3557   19.8855 C   0  0  0  0  0  0  0  0  0  0  0  0
  -25.7603  -26.4571   19.1765 C   0  0  0  0  0  0  0  0  0  0  0  0
  -20.5592  -25.9946   21.0878 C   0  0  0  0  0  0  0  0  0  0  0  0
  -20.9824  -24.7688   21.4342 C   0  0  0  0  0  0  0  0  0  0  0  0
  -26.9455  -24.3470   18.5508 C   0  0  0  0  0  0  0  0  0  0  0  0
  -26.9198  -15.9692   21.1927 C   0  0  0  0  0  0  0  0  0  0  0  0
  -29.9468  -16.9293   21.8546 C   0  0  0  0  0  0  0  0  0  0  0  0
  -32.1792  -19.4969   22.1197 C   0  0  0  0  0  0  0  0  0  0  0  0
  -22.2466  -29.8700   21.8239 C   0  0  0  0  0  0  0  0  0  0  0  0
  -24.5525  -11.5965   20.0384 C   0  0  0  0  0  0  0  0  0  0  0  0
  -27.4642  -17.3558   19.1587 C   0  0  0  0  0  0  0  0  0  0  0  0
  -28.2039  -18.7434   21.6631 C   0  0  0  0  0  0  0  0  0  0  0  0
  -25.8248  -11.9845   20.7875 C   0  0  0  0  0  0  0  0  0  0  0  0
  -25.2607  -31.2960   20.5754 C   0  0  0  0  0  0  0  0  0  0  0  0
  -25.5333  -13.0894   21.7980 C   0  0  0  0  0  0  0  0  0  0  0  0
  -26.1199  -30.0789   20.2257 C   0  0  0  0  0  0  0  0  0  0  0  0
  -24.4282  -31.0597   21.8343 C   0  0  0  0  0  0  0  0  0  0  0  0
  -24.4682  -28.6239   21.4674 C   0  0  0  0  0  0  0  0  0  0  0  0
  -25.0271  -14.3569   21.0988 C   0  0  1  0  0  0  0  0  0  0  0  0
  -28.0062  -16.5980   20.3668 C   0  0  1  0  0  0  0  0  0  0  0  0
  -25.2758  -28.7905   20.1699 C   0  0  2  0  0  0  0  0  0  0  0  0
  -34.5692  -19.9756   22.7167 C   0  0  0  0  0  0  0  0  0  0  0  0
  -29.2725  -16.5951   24.8116 C   0  0  0  0  0  0  0  0  0  0  0  0
  -31.2998  -17.9595   25.3564 C   0  0  0  0  0  0  0  0  0  0  0  0
  -31.5471  -15.7835   24.1621 C   0  0  0  0  0  0  0  0  0  0  0  0
  -32.7576  -20.5760   19.4252 C   0  0  0  0  0  0  0  0  0  0  0  0
  -21.6721  -23.8330   20.4822 C   0  0  0  0  0  0  0  0  0  0  0  0
  -23.0914  -23.5150   20.9490 C   0  0  0  0  0  0  0  0  0  0  0  0
  -23.8120  -22.5998   19.9686 C   0  0  0  0  0  0  0  0  0  1  0  0
  -30.5901  -17.7724   22.9290 C   0  0  1  0  0  0  0  0  0  0  0  0
  -33.5937  -19.6602   21.5934 C   0  0  2  0  0  0  0  0  0  0  0  0
  -30.6570  -17.0381   24.2979 C   0  0  0  0  0  0  0  0  0  0  0  0
  -27.3959  -27.5394   20.3173 N   0  0  0  0  0  0  0  0  0  0  0  0
  -26.1289  -27.5720   19.8703 N   0  0  0  0  0  0  0  0  0  0  0  0
  -28.7864  -17.4510   21.2656 N   0  0  0  0  0  0  0  0  0  0  0  0
  -23.6520  -29.8243   21.7076 N   0  0  0  0  0  0  0  0  0  0  0  0
  -24.5211  -26.3251   18.6575 N   0  0  0  0  0  0  0  0  0  0  0  0
  -28.1529  -23.6407   18.6378 N   0  0  0  0  0  0  0  0  0  0  0  0
  -21.6135  -28.6393   21.6529 N   0  0  0  0  0  0  0  0  0  0  0  0
  -26.1290  -15.0758   20.4958 N   0  0  0  0  0  0  0  0  0  0  0  0
  -31.8894  -18.1794   22.4052 N   0  0  0  0  0  0  0  0  0  0  0  0
  -33.6511  -20.7667   20.5967 N   0  3  0  0  0  0  0  0  0  0  0  0
  -25.9823  -23.8419   17.9258 O   0  0  0  0  0  0  0  0  0  0  0  0
  -26.8083  -16.2712   22.3751 O   0  0  0  0  0  0  0  0  0  0  0  0
  -30.4591  -15.8509   21.5444 O   0  0  0  0  0  0  0  0  0  0  0  0
  -31.4097  -20.4439   22.2666 O   0  0  0  0  0  0  0  0  0  0  0  0
  -21.6466  -30.9280   22.0308 O   0  0  0  0  0  0  0  0  0  0  0  0
  -33.0778  -24.7458   20.9955 O   0  0  0  0  0  0  0  0  0  0  0  0
  -25.1319  -22.3537   20.4521 O   0  0  0  0  0  0  0  0  0  1  0  0
  -17.8815  -29.5204   24.5189 F   0  0  0  0  0  0  0  0  0  0  0  0
  -37.1100  -28.4339   20.2582 F   0  0  0  0  0  0  0  0  0  0  0  0
  -33.0963  -27.1269   22.4000 F   0  0  0  0  0  0  0  0  0  0  0  0
  1  2  1  0  0  0  0
  1  6  2  0  0  0  0
  2  7  2  0  0  0  0
  3  9  2  0  0  0  0
  3 18  1  0  0  0  0
  4 10  1  0  0  0  0
  4 18  2  0  0  0  0
  5 13  2  0  0  0  0
  5 19  1  0  0  0  0
  6 21  1  0  0  0  0
  7 23  1  0  0  0  0
  8 11  2  0  0  0  0
  8 22  1  0  0  0  0
  9 26  1  0  0  0  0
 10 26  2  0  0  0  0
 11 27  1  0  0  0  0
 12 14  2  0  0  0  0
 12 28  1  0  0  0  0
 13 29  1  0  0  0  0
 14 30  1  0  0  0  0
 15 24  1  0  0  0  0
 15 27  2  0  0  0  0
 16 25  1  0  0  0  0
 16 29  2  0  0  0  0
 17 30  2  0  0  0  0
 17 31  1  0  0  0  0
 18 32  1  0  0  0  0
 19 25  2  0  0  0  0
 19 34  1  0  0  0  0
 20 32  1  0  0  0  0
 20 33  2  0  0  0  0
 20 36  1  0  0  0  0
 21 23  2  0  0  0  0
 21 41  1  0  0  0  0
 22 24  2  0  0  0  0
 22 42  1  0  0  0  0
 23 50  1  0  0  0  0
 24 43  1  0  0  0  0
 25 70  1  0  0  0  0
 26 79  1  0  0  0  0
 27 80  1  0  0  0  0
 28 31  2  0  0  0  0
 28 79  1  0  0  0  0
 29 81  1  0  0  0  0
 30 82  1  0  0  0  0
 31 83  1  0  0  0  0
 32 64  2  0  0  0  0
 33 65  1  0  0  0  0
 33 68  1  0  0  0  0
 34 35  2  0  0  0  0
 35 58  1  0  0  0  0
 36 69  1  0  0  0  0
 36 74  2  0  0  0  0
 37 51  1  0  0  0  0
 37 71  1  0  0  0  0
 37 75  2  0  0  0  0
 38 61  1  0  0  0  0
 38 66  1  0  0  0  0
 38 76  2  0  0  0  0
 39 62  1  0  0  0  0
 39 72  1  0  0  0  0
 39 77  2  0  0  0  0
 40 67  1  0  0  0  0
 40 70  1  0  0  0  0
 40 78  2  0  0  0  0
 41 44  1  0  0  0  0
 42 51  1  0  0  0  0
 43 66  1  0  0  0  0
 44 46  1  0  0  0  0
 45 47  1  0  0  0  0
 45 48  1  0  0  0  0
 46 50  1  0  0  0  0
 47 52  1  0  0  0  0
 48 67  1  0  0  0  0
 49 52  1  0  0  0  0
 49 67  1  0  0  0  0
 50 71  1  0  0  0  0
 51 66  1  0  0  0  0
 52 65  1  0  0  0  0
 53 62  1  0  0  0  0
 54 63  1  0  0  0  0
 55 63  1  0  0  0  0
 56 63  1  0  0  0  0
 57 73  1  0  0  0  0
 58 59  1  0  0  0  0
 59 60  1  0  0  0  0
 60 80  1  0  0  0  0
 61 63  1  0  0  0  0
 61 72  1  0  0  0  0
 62 73  1  0  0  0  0
 64 65  1  0  0  0  0
M  CHG  1  73   1
M  ISO  4  40 100  60 101  70 100  80 101
M  END
> <Batch ID>
0011

> <Smiles>
CNC(C)C(=O)NC(C(=O)N1Cc2cc([101O:1][101CH2:1]CCC=Cc3ccc(F)cc3[100NH:0][100C:0](=O)N3CCCC(n4nc(-c5ccc(Oc6ccc(F)cc6F)cc5)c(C(N)=O)c4N)C3)ccc2CC1C(=O)NC1CCCc2ccccc21)C(C)(C)C

> <Shape>
0.228

> <Color>
0.074

> <Negative vol penalty>
0.000

$$$$

  -OEChem-04052315443D

 86 94  0     1  0  0  0  0  0999 V2000
  -23.2402  -12.9944   29.4332 C   0  0  0  0  0  0  0  0  0  0  0  0
  -24.0750  -14.0835   29.2043 C   0  0  0  0  0  0  0  0  0  0  0  0
  -23.0753   -9.8685   19.9404 C   0  0  0  0  0  0  0  0  0  0  0  0
  -23.8349   -9.8747   22.2339 C   0  0  0  0  0  0  0  0  0  0  0  0
  -21.9307  -13.2000   29.8653 C   0  0  0  0  0  0  0  0  0  0  0  0
  -23.6003  -15.3790   29.4064 C   0  0  0  0  0  0  0  0  0  0  0  0
  -26.9035  -18.2903   31.9081 C   0  0  0  0  0  0  0  0  0  0  0  0
  -22.3310   -8.7156   20.1900 C   0  0  0  0  0  0  0  0  0  0  0  0
  -23.0906   -8.7217   22.4835 C   0  0  0  0  0  0  0  0  0  0  0  0
  -27.9766  -18.8046   31.1817 C   0  0  0  0  0  0  0  0  0  0  0  0
  -19.8621   -7.9248   23.0854 C   0  0  0  0  0  0  0  0  0  0  0  0
  -19.1050   -7.8849   24.2562 C   0  0  0  0  0  0  0  0  0  0  0  0
  -26.8263  -20.9162   30.9889 C   0  0  0  0  0  0  0  0  0  0  0  0
  -30.4955  -18.3376   24.0509 C   0  0  0  0  0  0  0  0  0  0  0  0
  -32.0657  -16.5948   22.5408 C   0  0  0  0  0  0  0  0  0  0  0  0
  -20.3457   -5.9468   24.9923 C   0  0  0  0  0  0  0  0  0  0  0  0
  -23.8273  -10.4481   20.9623 C   0  0  0  0  0  0  0  0  0  0  0  0
  -24.1700  -12.9732   20.8430 C   0  0  0  0  0  0  0  0  0  0  0  0
  -21.4427  -14.4983   30.0820 C   0  0  0  0  0  0  0  0  0  0  0  0
  -25.7771  -19.0830   32.1715 C   0  0  0  0  0  0  0  0  0  0  0  0
  -22.2826  -15.6022   29.8405 C   0  0  0  0  0  0  0  0  0  0  0  0
  -25.7413  -20.4104   31.7211 C   0  0  0  0  0  0  0  0  0  0  0  0
  -31.8826  -18.3433   24.1980 C   0  0  0  0  0  0  0  0  0  0  0  0
  -30.6786  -16.5890   22.3937 C   0  0  0  0  0  0  0  0  0  0  0  0
  -22.3386   -8.1422   21.4615 C   0  0  0  0  0  0  0  0  0  0  0  0
  -27.9369  -20.1168   30.7195 C   0  0  0  0  0  0  0  0  0  0  0  0
  -20.8610   -6.9758   22.8680 C   0  0  0  0  0  0  0  0  0  0  0  0
  -29.8935  -17.4603   23.1487 C   0  0  0  0  0  0  0  0  0  0  0  0
  -19.3468   -6.8959   25.2097 C   0  0  0  0  0  0  0  0  0  0  0  0
  -32.6677  -17.4720   23.4430 C   0  0  0  0  0  0  0  0  0  0  0  0
  -21.1027   -5.9868   23.8215 C   0  0  0  0  0  0  0  0  0  0  0  0
  -24.5968  -11.6388   20.7050 C   0  0  0  0  0  0  0  0  0  0  0  0
  -25.2625  -13.7224   20.4800 C   0  0  0  0  0  0  0  0  0  0  0  0
  -22.8996  -13.4893   21.2619 C   0  0  0  0  0  0  0  0  0  0  0  0
  -22.6914  -18.9138   31.4277 C   0  0  0  0  0  0  0  0  0  0  0  0
  -22.4753  -21.4806   33.3993 C   0  0  0  0  0  0  0  0  0  0  0  0
  -24.0212  -24.1482   34.8625 C   0  0  0  0  0  0  0  0  0  0  0  0
  -30.7290  -14.7661   20.6557 C   0  0  0  0  0  0  0  0  0  0  0  0
  -20.0052  -14.6725   30.5039 C   0  0  0  0  0  0  0  0  0  0  0  0
  -24.6393  -18.5218   32.9795 C   0  0  0  0  0  0  0  0  0  0  0  0
  -24.5641  -21.3092   31.9947 C   0  0  0  0  0  0  0  0  0  0  0  0
  -19.6960  -16.0624   31.0541 C   0  0  0  0  0  0  0  0  0  0  0  0
  -29.6141  -12.3532   18.2867 C   0  0  0  0  0  0  0  0  0  0  0  0
  -20.2848  -17.1386   30.1474 C   0  0  0  0  0  0  0  0  0  0  0  0
  -28.1743  -12.0620   18.7160 C   0  0  0  0  0  0  0  0  0  0  0  0
  -30.5291  -12.5814   19.4885 C   0  0  0  0  0  0  0  0  0  0  0  0
  -28.6222  -13.3062   20.8697 C   0  0  0  0  0  0  0  0  0  0  0  0
  -21.8119  -17.0217   30.0722 C   0  0  1  0  0  0  0  0  0  0  0  0
  -23.3225  -19.2564   32.7476 C   0  0  1  0  0  0  0  0  0  0  0  0
  -27.6495  -13.1335   19.6917 C   0  0  2  0  0  0  0  0  0  0  0  0
  -23.5767  -26.0861   36.3936 C   0  0  0  0  0  0  0  0  0  0  0  0
  -21.0683  -22.9508   31.1259 C   0  0  0  0  0  0  0  0  0  0  0  0
  -21.5032  -25.0977   32.3382 C   0  0  0  0  0  0  0  0  0  0  0  0
  -20.0793  -23.3400   33.3897 C   0  0  0  0  0  0  0  0  0  0  0  0
  -33.9413  -19.2324   25.2616 C   0  0  0  0  0  0  0  0  0  0  0  0
  -25.9822  -23.1744   36.8538 C   0  0  0  0  0  0  0  0  0  0  0  0
  -27.7990  -16.5987   23.8741 C   0  0  0  0  0  0  0  0  0  0  0  0
  -31.1302  -19.4617   27.1304 C   0  0  0  0  0  0  0  0  0  0  0  0
  -30.3295  -20.4182   28.0153 C   0  0  0  0  0  0  0  0  0  0  0  0
  -31.7025  -20.1478   25.8927 C   0  0  0  0  0  0  0  0  0  0  0  0
  -29.7365  -19.7008   29.2214 C   0  0  0  0  0  0  0  0  0  1  0  0
  -22.5756  -22.9764   33.2219 C   0  0  1  0  0  0  0  0  0  0  0  0
  -24.0372  -24.6398   36.2986 C   0  0  2  0  0  0  0  0  0  0  0  0
  -21.3281  -23.5740   32.5119 C   0  0  0  0  0  0  0  0  0  0  0  0
  -25.8617  -11.5426   20.2868 N   0  0  0  0  0  0  0  0  0  0  0  0
  -26.2391  -12.8261   20.1589 N   0  0  0  0  0  0  0  0  0  0  0  0
  -23.4735  -20.7124   32.7835 N   0  0  0  0  0  0  0  0  0  0  0  0
  -29.9703  -13.6122   20.3661 N   0  0  0  0  0  0  0  0  0  0  0  0
  -25.4733  -15.0538   20.4074 N   0  0  0  0  0  0  0  0  0  0  0  0
  -21.8874  -12.5804   21.5988 N   0  0  0  0  0  0  0  0  0  0  0  0
  -30.0818  -15.6912   21.4742 N   0  0  0  0  0  0  0  0  0  0  0  0
  -22.4201  -17.5685   31.2662 N   0  0  0  0  0  0  0  0  0  0  0  0
  -22.8302  -23.5286   34.5480 N   0  0  0  0  0  0  0  0  0  0  0  0
  -32.4857  -19.2250   25.1059 N   0  0  3  0  0  0  0  0  0  0  0  0
  -25.4134  -24.5468   36.8627 N   0  3  0  0  0  0  0  0  0  0  0  0
  -22.6638  -14.7200   21.3195 O   0  0  0  0  0  0  0  0  0  0  0  0
  -22.4658  -19.8042   30.6166 O   0  0  0  0  0  0  0  0  0  0  0  0
  -21.5495  -21.0114   34.0659 O   0  0  0  0  0  0  0  0  0  0  0  0
  -24.9689  -24.3019   34.0952 O   0  0  0  0  0  0  0  0  0  0  0  0
  -31.8582  -14.9346   20.1882 O   0  0  0  0  0  0  0  0  0  0  0  0
  -21.6123   -7.0173   21.7055 O   0  0  0  0  0  0  0  0  0  0  0  0
  -28.5364  -17.4705   23.0203 O   0  0  0  0  0  0  0  0  0  0  0  0
  -28.9827  -20.6210   30.0096 O   0  0  0  0  0  0  0  0  0  1  0  0
  -18.6207   -6.8586   26.3346 F   0  0  0  0  0  0  0  0  0  0  0  0
  -34.0018  -17.4708   23.5741 F   0  0  0  0  0  0  0  0  0  0  0  0
  -22.0618   -5.0730   23.6188 F   0  0  0  0  0  0  0  0  0  0  0  0
  1  2  1  0  0  0  0
  1  5  2  0  0  0  0
  2  6  2  0  0  0  0
  3  8  2  0  0  0  0
  3 17  1  0  0  0  0
  4  9  1  0  0  0  0
  4 17  2  0  0  0  0
  5 19  1  0  0  0  0
  6 21  1  0  0  0  0
  7 10  2  0  0  0  0
  7 20  1  0  0  0  0
  8 25  1  0  0  0  0
  9 25  2  0  0  0  0
 10 26  1  0  0  0  0
 11 12  2  0  0  0  0
 11 27  1  0  0  0  0
 12 29  1  0  0  0  0
 13 22  1  0  0  0  0
 13 26  2  0  0  0  0
 14 23  1  0  0  0  0
 14 28  2  0  0  0  0
 15 24  2  0  0  0  0
 15 30  1  0  0  0  0
 16 29  2  0  0  0  0
 16 31  1  0  0  0  0
 17 32  1  0  0  0  0
 18 32  1  0  0  0  0
 18 33  2  0  0  0  0
 18 34  1  0  0  0  0
 19 21  2  0  0  0  0
 19 39  1  0  0  0  0
 20 22  2  0  0  0  0
 20 40  1  0  0  0  0
 21 48  1  0  0  0  0
 22 41  1  0  0  0  0
 23 30  2  0  0  0  0
 23 74  1  0  0  0  0
 24 28  1  0  0  0  0
 24 71  1  0  0  0  0
 25 81  1  0  0  0  0
 26 83  1  0  0  0  0
 27 31  2  0  0  0  0
 27 81  1  0  0  0  0
 28 82  1  0  0  0  0
 29 84  1  0  0  0  0
 30 85  1  0  0  0  0
 31 86  1  0  0  0  0
 32 65  2  0  0  0  0
 33 66  1  0  0  0  0
 33 69  1  0  0  0  0
 34 70  1  0  0  0  0
 34 76  2  0  0  0  0
 35 49  1  0  0  0  0
 35 72  1  0  0  0  0
 35 77  2  0  0  0  0
 36 62  1  0  0  0  0
 36 67  1  0  0  0  0
 36 78  2  0  0  0  0
 37 63  1  0  0  0  0
 37 73  1  0  0  0  0
 37 79  2  0  0  0  0
 38 68  1  0  0  0  0
 38 71  1  0  0  0  0
 38 80  2  0  0  0  0
 39 42  1  0  0  0  0
 40 49  1  0  0  0  0
 41 67  1  0  0  0  0
 42 44  1  0  0  0  0
 43 45  1  0  0  0  0
 43 46  1  0  0  0  0
 44 48  1  0  0  0  0
 45 50  1  0  0  0  0
 46 68  1  0  0  0  0
 47 50  1  0  0  0  0
 47 68  1  0  0  0  0
 48 72  1  0  0  0  0
 49 67  1  0  0  0  0
 50 66  1  0  0  0  0
 51 63  1  0  0  0  0
 52 64  1  0  0  0  0
 53 64  1  0  0  0  0
 54 64  1  0  0  0  0
 55 74  1  0  0  0  0
 56 75  1  0  0  0  0
 57 82  1  0  0  0  0
 58 59  1  0  0  0  0
 58 60  1  0  0  0  0
 59 61  1  0  0  0  0
 60 74  1  0  0  0  0
 61 83  1  0  0  0  0
 62 64  1  0  0  0  0
 62 73  1  0  0  0  0
 63 75  1  0  0  0  0
 65 66  1  0  0  0  0
M  CHG  1  75   1
M  ISO  4  38 100  61 101  71 100  83 101
M  END
> <Batch ID>
0011

> <Smiles>
CNC(C)C(=O)NC(C(=O)N1Cc2cc([101O:1][101CH2:1]CCCN(C)c3cc(OC)c([100NH:0][100C:0](=O)N4CCCC(n5nc(-c6ccc(Oc7ccc(F)cc7F)cc6)c(C(N)=O)c5N)C4)cc3F)ccc2CC1C(=O)NC1CCCc2ccccc21)C(C)(C)C

> <Shape>
0.166

> <Color>
0.196

> <Negative vol penalty>
0.000

$$$$

  -OEChem-04052315443D

 84 92  0     1  0  0  0  0  0999 V2000
  -31.8592  -33.0121   26.7796 C   0  0  0  0  0  0  0  0  0  0  0  0
  -31.7750  -31.8894   25.9624 C   0  0  0  0  0  0  0  0  0  0  0  0
  -23.4125   -9.5884   20.1529 C   0  0  0  0  0  0  0  0  0  0  0  0
  -23.8601  -10.0479   22.4822 C   0  0  0  0  0  0  0  0  0  0  0  0
  -30.7553  -33.4087   27.5333 C   0  0  0  0  0  0  0  0  0  0  0  0
  -30.5871  -31.1619   25.8993 C   0  0  0  0  0  0  0  0  0  0  0  0
  -28.2848  -28.2894   21.0050 C   0  0  0  0  0  0  0  0  0  0  0  0
  -22.7604   -8.4085   20.5109 C   0  0  0  0  0  0  0  0  0  0  0  0
  -23.2080   -8.8680   22.8403 C   0  0  0  0  0  0  0  0  0  0  0  0
  -28.3165  -26.9560   20.5990 C   0  0  0  0  0  0  0  0  0  0  0  0
  -19.7409   -7.5038   21.7343 C   0  0  0  0  0  0  0  0  0  0  0  0
  -18.5202   -7.2255   21.1195 C   0  0  0  0  0  0  0  0  0  0  0  0
  -26.1484  -26.6067   21.5972 C   0  0  0  0  0  0  0  0  0  0  0  0
  -30.5146  -18.3306   20.3673 C   0  0  0  0  0  0  0  0  0  0  0  0
  -28.6846  -19.9831   21.6723 C   0  0  0  0  0  0  0  0  0  0  0  0
  -19.4388   -5.1794   20.2215 C   0  0  0  0  0  0  0  0  0  0  0  0
  -23.9624  -10.4081   21.1386 C   0  0  0  0  0  0  0  0  0  0  0  0
  -24.0646  -12.9053   20.6273 C   0  0  0  0  0  0  0  0  0  0  0  0
  -29.5502  -32.6914   27.4720 C   0  0  0  0  0  0  0  0  0  0  0  0
  -27.1876  -28.7895   21.7209 C   0  0  0  0  0  0  0  0  0  0  0  0
  -29.4664  -31.5485   26.6539 C   0  0  0  0  0  0  0  0  0  0  0  0
  -26.1040  -27.9475   22.0089 C   0  0  0  0  0  0  0  0  0  0  0  0
  -29.5697  -17.7786   21.2322 C   0  0  0  0  0  0  0  0  0  0  0  0
  -29.6295  -20.5352   20.8074 C   0  0  0  0  0  0  0  0  0  0  0  0
  -22.6581   -8.0483   21.8546 C   0  0  0  0  0  0  0  0  0  0  0  0
  -27.2495  -26.1137   20.8976 C   0  0  0  0  0  0  0  0  0  0  0  0
  -20.8106   -6.6199   21.5927 C   0  0  0  0  0  0  0  0  0  0  0  0
  -18.3691   -6.0633   20.3631 C   0  0  0  0  0  0  0  0  0  0  0  0
  -28.6547  -18.6048   21.8847 C   0  0  0  0  0  0  0  0  0  0  0  0
  -30.5445  -19.7089   20.1549 C   0  0  0  0  0  0  0  0  0  0  0  0
  -20.6596   -5.4577   20.8363 C   0  0  0  0  0  0  0  0  0  0  0  0
  -24.6366  -11.6268   20.7694 C   0  0  0  0  0  0  0  0  0  0  0  0
  -25.1152  -13.7133   20.2669 C   0  0  0  0  0  0  0  0  0  0  0  0
  -22.7052  -13.3249   20.8053 C   0  0  0  0  0  0  0  0  0  0  0  0
  -26.7792  -30.0424   24.6135 C   0  0  0  0  0  0  0  0  0  0  0  0
  -23.7622  -30.5561   23.5383 C   0  0  0  0  0  0  0  0  0  0  0  0
  -28.4557  -22.6988   20.6871 C   0  0  0  0  0  0  0  0  0  0  0  0
  -21.2647  -29.6766   21.3852 C   0  0  0  0  0  0  0  0  0  0  0  0
  -30.3800  -15.4199   20.8770 C   0  0  0  0  0  0  0  0  0  0  0  0
  -28.3987  -33.1309   28.3412 C   0  0  0  0  0  0  0  0  0  0  0  0
  -27.1568  -30.2371   22.1284 C   0  0  0  0  0  0  0  0  0  0  0  0
  -24.8936  -28.4406   22.7573 C   0  0  0  0  0  0  0  0  0  0  0  0
  -27.0596  -32.5235   27.9313 C   0  0  0  0  0  0  0  0  0  0  0  0
  -29.8315  -12.5470   18.8465 C   0  0  0  0  0  0  0  0  0  0  0  0
  -27.2061  -31.0252   27.6850 C   0  0  0  0  0  0  0  0  0  0  0  0
  -28.3840  -12.1567   19.1541 C   0  0  0  0  0  0  0  0  0  0  0  0
  -30.5536  -13.0703   20.0869 C   0  0  0  0  0  0  0  0  0  0  0  0
  -28.4193  -13.7700   21.0990 C   0  0  0  0  0  0  0  0  0  0  0  0
  -28.1874  -30.7478   26.5397 C   0  0  1  0  0  0  0  0  0  0  0  0
  -26.2178  -30.5081   23.2998 C   0  0  1  0  0  0  0  0  0  0  0  0
  -27.6317  -13.2980   19.8659 C   0  0  2  0  0  0  0  0  0  0  0  0
  -18.9012  -30.2524   20.7691 C   0  0  0  0  0  0  0  0  0  0  0  0
  -22.7616  -29.1012   26.0267 C   0  0  0  0  0  0  0  0  0  0  0  0
  -20.5325  -28.8706   24.9105 C   0  0  0  0  0  0  0  0  0  0  0  0
  -21.4470  -31.1372   25.4093 C   0  0  0  0  0  0  0  0  0  0  0  0
  -30.9410  -22.6145   20.2723 C   0  0  0  0  0  0  0  0  0  0  0  0
  -22.0413  -30.4172   18.6270 C   0  0  0  0  0  0  0  0  0  0  0  0
  -28.5593  -24.1907   20.4052 C   0  0  0  0  0  0  0  0  0  1  0  0
  -22.4747  -29.7679   23.5490 C   0  0  1  0  0  0  0  0  0  0  0  0
  -20.3725  -30.5100   20.4831 C   0  0  2  0  0  0  0  0  0  0  0  0
  -21.8275  -29.7091   24.9615 C   0  0  0  0  0  0  0  0  0  0  0  0
  -25.9486  -11.6183   20.5194 N   0  0  0  0  0  0  0  0  0  0  0  0
  -26.2098  -12.9013   20.2166 N   0  0  0  0  0  0  0  0  0  0  0  0
  -24.9135  -29.8622   23.1398 N   0  0  0  0  0  0  0  0  0  0  0  0
  -29.7847  -14.1522   20.7058 N   0  0  0  0  0  0  0  0  0  0  0  0
  -25.2001  -15.0321   19.9912 N   0  0  0  0  0  0  0  0  0  0  0  0
  -21.7531  -12.3658   21.1766 N   0  0  0  0  0  0  0  0  0  0  0  0
  -29.5421  -16.3782   21.4464 N   0  0  0  0  0  0  0  0  0  0  0  0
  -27.5526  -30.9867   25.2612 N   0  0  0  0  0  0  0  0  0  0  0  0
  -21.6227  -30.3639   22.5256 N   0  0  0  0  0  0  0  0  0  0  0  0
  -29.6586  -21.9673   20.5892 N   0  0  0  0  0  0  0  0  0  0  0  0
  -20.6366  -30.1875   19.0523 N   0  3  0  0  0  0  0  0  0  0  0  0
  -22.3425  -14.5119   20.6239 O   0  0  0  0  0  0  0  0  0  0  0  0
  -26.5279  -28.9107   25.0107 O   0  0  0  0  0  0  0  0  0  0  0  0
  -23.7457  -31.7457   23.8644 O   0  0  0  0  0  0  0  0  0  0  0  0
  -27.3494  -22.2197   20.9487 O   0  0  0  0  0  0  0  0  0  0  0  0
  -21.6067  -28.5291   21.1078 O   0  0  0  0  0  0  0  0  0  0  0  0
  -31.5384  -15.6466   20.5182 O   0  0  0  0  0  0  0  0  0  0  0  0
  -22.0217   -6.8971   22.2043 O   0  0  0  0  0  0  0  0  0  0  0  0
  -27.2782  -24.8116   20.5030 O   0  0  0  0  0  0  0  0  0  1  0  0
  -17.1963   -5.7955   19.7741 F   0  0  0  0  0  0  0  0  0  0  0  0
  -27.7417  -18.0851   22.7176 F   0  0  0  0  0  0  0  0  0  0  0  0
  -31.4570  -20.2284   19.3211 F   0  0  0  0  0  0  0  0  0  0  0  0
  -21.6833   -4.6041   20.6976 F   0  0  0  0  0  0  0  0  0  0  0  0
  1  2  1  0  0  0  0
  1  5  2  0  0  0  0
  2  6  2  0  0  0  0
  3  8  2  0  0  0  0
  3 17  1  0  0  0  0
  4  9  1  0  0  0  0
  4 17  2  0  0  0  0
  5 19  1  0  0  0  0
  6 21  1  0  0  0  0
  7 10  2  0  0  0  0
  7 20  1  0  0  0  0
  8 25  1  0  0  0  0
  9 25  2  0  0  0  0
 10 26  1  0  0  0  0
 11 12  2  0  0  0  0
 11 27  1  0  0  0  0
 12 28  1  0  0  0  0
 13 22  1  0  0  0  0
 13 26  2  0  0  0  0
 14 23  2  0  0  0  0
 14 30  1  0  0  0  0
 15 24  1  0  0  0  0
 15 29  2  0  0  0  0
 16 28  2  0  0  0  0
 16 31  1  0  0  0  0
 17 32  1  0  0  0  0
 18 32  1  0  0  0  0
 18 33  2  0  0  0  0
 18 34  1  0  0  0  0
 19 21  2  0  0  0  0
 19 40  1  0  0  0  0
 20 22  2  0  0  0  0
 20 41  1  0  0  0  0
 21 49  1  0  0  0  0
 22 42  1  0  0  0  0
 23 29  1  0  0  0  0
 23 68  1  0  0  0  0
 24 30  2  0  0  0  0
 24 71  1  0  0  0  0
 25 79  1  0  0  0  0
 26 80  1  0  0  0  0
 27 31  2  0  0  0  0
 27 79  1  0  0  0  0
 28 81  1  0  0  0  0
 29 82  1  0  0  0  0
 30 83  1  0  0  0  0
 31 84  1  0  0  0  0
 32 62  2  0  0  0  0
 33 63  1  0  0  0  0
 33 66  1  0  0  0  0
 34 67  1  0  0  0  0
 34 73  2  0  0  0  0
 35 50  1  0  0  0  0
 35 69  1  0  0  0  0
 35 74  2  0  0  0  0
 36 59  1  0  0  0  0
 36 64  1  0  0  0  0
 36 75  2  0  0  0  0
 37 58  1  0  0  0  0
 37 71  1  0  0  0  0
 37 76  2  0  0  0  0
 38 60  1  0  0  0  0
 38 70  1  0  0  0  0
 38 77  2  0  0  0  0
 39 65  1  0  0  0  0
 39 68  1  0  0  0  0
 39 78  2  0  0  0  0
 40 43  1  0  0  0  0
 41 50  1  0  0  0  0
 42 64  1  0  0  0  0
 43 45  1  0  0  0  0
 44 46  1  0  0  0  0
 44 47  1  0  0  0  0
 45 49  1  0  0  0  0
 46 51  1  0  0  0  0
 47 65  1  0  0  0  0
 48 51  1  0  0  0  0
 48 65  1  0  0  0  0
 49 69  1  0  0  0  0
 50 64  1  0  0  0  0
 51 63  1  0  0  0  0
 52 60  1  0  0  0  0
 53 61  1  0  0  0  0
 54 61  1  0  0  0  0
 55 61  1  0  0  0  0
 56 71  1  0  0  0  0
 57 72  1  0  0  0  0
 58 80  1  0  0  0  0
 59 61  1  0  0  0  0
 59 70  1  0  0  0  0
 60 72  1  0  0  0  0
 62 63  1  0  0  0  0
M  CHG  1  72   1
M  ISO  4  39 100  58 101  68 100  80 101
M  END
> <Batch ID>
0011

> <Smiles>
CNC(C)C(=O)NC(C(=O)N1Cc2cc([101O:1][101CH2:1]C(=O)N(C)c3cc(F)c([100NH:0][100C:0](=O)N4CCCC(n5nc(-c6ccc(Oc7ccc(F)cc7F)cc6)c(C(N)=O)c5N)C4)cc3F)ccc2CC1C(=O)NC1CCCc2ccccc21)C(C)(C)C

> <Shape>
0.306

> <Color>
0.183

> <Negative vol penalty>
0.000

$$$$

  -OEChem-04052315443D

 82 90  0     1  0  0  0  0  0999 V2000
  -24.6122  -34.0114   28.0639 C   0  0  0  0  0  0  0  0  0  0  0  0
  -25.4919  -33.1965   27.3586 C   0  0  0  0  0  0  0  0  0  0  0  0
  -24.2567   -9.1059   21.4812 C   0  0  0  0  0  0  0  0  0  0  0  0
  -24.7683  -10.3935   23.4604 C   0  0  0  0  0  0  0  0  0  0  0  0
  -23.2367  -33.8149   27.9481 C   0  0  0  0  0  0  0  0  0  0  0  0
  -24.9966  -32.1839   26.5377 C   0  0  0  0  0  0  0  0  0  0  0  0
  -27.3828  -30.2386   21.2437 C   0  0  0  0  0  0  0  0  0  0  0  0
  -30.2159  -18.8786   20.0778 C   0  0  0  0  0  0  0  0  0  0  0  0
  -23.9218   -8.0121   22.2793 C   0  0  0  0  0  0  0  0  0  0  0  0
  -24.4333   -9.2997   24.2585 C   0  0  0  0  0  0  0  0  0  0  0  0
  -28.1972  -29.1529   20.9246 C   0  0  0  0  0  0  0  0  0  0  0  0
  -30.3965  -20.2134   20.4399 C   0  0  0  0  0  0  0  0  0  0  0  0
  -21.2944   -7.0103   24.1570 C   0  0  0  0  0  0  0  0  0  0  0  0
  -20.1253   -6.3155   23.8470 C   0  0  0  0  0  0  0  0  0  0  0  0
  -26.2451  -27.8791   20.3032 C   0  0  0  0  0  0  0  0  0  0  0  0
  -28.0127  -20.4509   20.7535 C   0  0  0  0  0  0  0  0  0  0  0  0
  -21.4143   -4.3017   23.4998 C   0  0  0  0  0  0  0  0  0  0  0  0
  -24.6800  -10.2966   22.0717 C   0  0  0  0  0  0  0  0  0  0  0  0
  -24.1683  -12.4504   20.8040 C   0  0  0  0  0  0  0  0  0  0  0  0
  -22.7241  -32.8057   27.1179 C   0  0  0  0  0  0  0  0  0  0  0  0
  -25.9903  -30.1489   21.1050 C   0  0  0  0  0  0  0  0  0  0  0  0
  -23.6130  -31.9729   26.4117 C   0  0  0  0  0  0  0  0  0  0  0  0
  -25.4155  -28.9660   20.6188 C   0  0  0  0  0  0  0  0  0  0  0  0
  -28.9336  -18.3299   20.0534 C   0  0  0  0  0  0  0  0  0  0  0  0
  -24.0101   -8.1090   23.6679 C   0  0  0  0  0  0  0  0  0  0  0  0
  -27.6281  -27.9719   20.4571 C   0  0  0  0  0  0  0  0  0  0  0  0
  -29.2950  -20.9996   20.7778 C   0  0  0  0  0  0  0  0  0  0  0  0
  -22.5234   -6.3509   24.1383 C   0  0  0  0  0  0  0  0  0  0  0  0
  -20.1853   -4.9612   23.5185 C   0  0  0  0  0  0  0  0  0  0  0  0
  -27.8321  -19.1160   20.3913 C   0  0  0  0  0  0  0  0  0  0  0  0
  -22.5834   -4.9966   23.8098 C   0  0  0  0  0  0  0  0  0  0  0  0
  -25.0267  -11.4267   21.2478 C   0  0  0  0  0  0  0  0  0  0  0  0
  -24.9747  -13.2760   20.0594 C   0  0  0  0  0  0  0  0  0  0  0  0
  -22.7672  -12.6382   21.0434 C   0  0  0  0  0  0  0  0  0  0  0  0
  -23.5206  -30.3437   23.0966 C   0  0  0  0  0  0  0  0  0  0  0  0
  -21.7957  -30.1726   20.3547 C   0  0  0  0  0  0  0  0  0  0  0  0
  -21.6387  -29.2028   17.0865 C   0  0  0  0  0  0  0  0  0  0  0  0
  -29.7411  -16.0584   19.3221 C   0  0  0  0  0  0  0  0  0  0  0  0
  -21.2309  -32.6009   27.0614 C   0  0  0  0  0  0  0  0  0  0  0  0
  -25.1278  -31.3381   21.4281 C   0  0  0  0  0  0  0  0  0  0  0  0
  -23.9275  -28.8254   20.4328 C   0  0  0  0  0  0  0  0  0  0  0  0
  -20.7774  -31.7478   25.8795 C   0  0  0  0  0  0  0  0  0  0  0  0
  -29.7068  -12.6236   18.3850 C   0  0  0  0  0  0  0  0  0  0  0  0
  -21.6503  -30.5032   25.7534 C   0  0  0  0  0  0  0  0  0  0  0  0
  -28.4155  -12.0902   19.0097 C   0  0  0  0  0  0  0  0  0  0  0  0
  -30.3849  -13.6587   19.2809 C   0  0  0  0  0  0  0  0  0  0  0  0
  -28.2331  -14.2360   20.3323 C   0  0  0  0  0  0  0  0  0  0  0  0
  -23.1136  -30.8799   25.4919 C   0  0  1  0  0  0  0  0  0  0  0  0
  -23.6820  -30.9615   21.7365 C   0  0  1  0  0  0  0  0  0  0  0  0
  -27.4802  -13.2383   19.4372 C   0  0  2  0  0  0  0  0  0  0  0  0
  -20.0851  -29.1624   15.1161 C   0  0  0  0  0  0  0  0  0  0  0  0
  -20.2767  -27.8395   21.6034 C   0  0  0  0  0  0  0  0  0  0  0  0
  -19.4426  -27.2500   19.3175 C   0  0  0  0  0  0  0  0  0  0  0  0
  -18.8500  -29.4513   20.3303 C   0  0  0  0  0  0  0  0  0  0  0  0
  -23.4541  -30.8939   15.4731 C   0  0  0  0  0  0  0  0  0  0  0  0
  -28.9589  -24.6088   20.6297 C   0  0  0  0  0  0  0  0  0  0  0  0
  -27.8587  -25.6093   20.3123 C   0  0  0  0  0  0  0  0  0  1  0  0
  -28.4097  -23.2060   20.8371 C   0  0  0  0  0  0  0  0  0  0  0  0
  -21.2136  -29.0531   19.5260 C   0  0  1  0  0  0  0  0  0  0  0  0
  -21.1770  -29.9352   15.8395 C   0  0  2  0  0  0  0  0  0  0  0  0
  -19.9736  -28.4001   20.1995 C   0  0  0  0  0  0  0  0  0  0  0  0
  -26.2823  -11.5853   20.8207 N   0  0  0  0  0  0  0  0  0  0  0  0
  -26.2187  -12.7183   20.1006 N   0  0  0  0  0  0  0  0  0  0  0  0
  -23.1260  -30.0139   20.7684 N   0  0  0  0  0  0  0  0  0  0  0  0
  -29.4398  -14.7176   19.6419 N   0  0  0  0  0  0  0  0  0  0  0  0
  -24.7340  -14.4175   19.3799 N   0  0  0  0  0  0  0  0  0  0  0  0
  -22.0916  -11.6955   21.8304 N   0  0  0  0  0  0  0  0  0  0  0  0
  -28.7535  -16.9736   19.6850 N   0  0  0  0  0  0  0  0  0  0  0  0
  -23.2983  -31.2591   24.1075 N   0  0  0  0  0  0  0  0  0  0  0  0
  -20.9493  -29.6168   18.2066 N   0  0  0  0  0  0  0  0  0  0  0  0
  -22.3176  -30.1280   14.8999 N   0  3  0  0  0  0  0  0  0  0  0  0
  -22.1296  -13.6042   20.5598 O   0  0  0  0  0  0  0  0  0  0  0  0
  -23.5911  -29.1265   23.2195 O   0  0  0  0  0  0  0  0  0  0  0  0
  -21.0982  -31.1551   20.6191 O   0  0  0  0  0  0  0  0  0  0  0  0
  -22.5198  -28.3462   17.0680 O   0  0  0  0  0  0  0  0  0  0  0  0
  -30.7851  -16.3685   18.7427 O   0  0  0  0  0  0  0  0  0  0  0  0
  -23.6831   -7.0420   24.4471 O   0  0  0  0  0  0  0  0  0  0  0  0
  -28.4206  -26.9104   20.1455 O   0  0  0  0  0  0  0  0  0  1  0  0
  -29.4727  -22.3109   21.1348 O   0  0  0  0  0  0  0  0  0  0  0  0
  -19.0624   -4.2937   23.2223 F   0  0  0  0  0  0  0  0  0  0  0  0
  -26.5952  -18.5992   20.3709 F   0  0  0  0  0  0  0  0  0  0  0  0
  -23.7611   -4.3575   23.7913 F   0  0  0  0  0  0  0  0  0  0  0  0
  1  2  1  0  0  0  0
  1  5  2  0  0  0  0
  2  6  2  0  0  0  0
  3  9  2  0  0  0  0
  3 18  1  0  0  0  0
  4 10  1  0  0  0  0
  4 18  2  0  0  0  0
  5 20  1  0  0  0  0
  6 22  1  0  0  0  0
  7 11  2  0  0  0  0
  7 21  1  0  0  0  0
  8 12  2  0  0  0  0
  8 24  1  0  0  0  0
  9 25  1  0  0  0  0
 10 25  2  0  0  0  0
 11 26  1  0  0  0  0
 12 27  1  0  0  0  0
 13 14  2  0  0  0  0
 13 28  1  0  0  0  0
 14 29  1  0  0  0  0
 15 23  1  0  0  0  0
 15 26  2  0  0  0  0
 16 27  2  0  0  0  0
 16 30  1  0  0  0  0
 17 29  2  0  0  0  0
 17 31  1  0  0  0  0
 18 32  1  0  0  0  0
 19 32  1  0  0  0  0
 19 33  2  0  0  0  0
 19 34  1  0  0  0  0
 20 22  2  0  0  0  0
 20 39  1  0  0  0  0
 21 23  2  0  0  0  0
 21 40  1  0  0  0  0
 22 48  1  0  0  0  0
 23 41  1  0  0  0  0
 24 30  2  0  0  0  0
 24 68  1  0  0  0  0
 25 77  1  0  0  0  0
 26 78  1  0  0  0  0
 27 79  1  0  0  0  0
 28 31  2  0  0  0  0
 28 77  1  0  0  0  0
 29 80  1  0  0  0  0
 30 81  1  0  0  0  0
 31 82  1  0  0  0  0
 32 62  2  0  0  0  0
 33 63  1  0  0  0  0
 33 66  1  0  0  0  0
 34 67  1  0  0  0  0
 34 72  2  0  0  0  0
 35 49  1  0  0  0  0
 35 69  1  0  0  0  0
 35 73  2  0  0  0  0
 36 59  1  0  0  0  0
 36 64  1  0  0  0  0
 36 74  2  0  0  0  0
 37 60  1  0  0  0  0
 37 70  1  0  0  0  0
 37 75  2  0  0  0  0
 38 65  1  0  0  0  0
 38 68  1  0  0  0  0
 38 76  2  0  0  0  0
 39 42  1  0  0  0  0
 40 49  1  0  0  0  0
 41 64  1  0  0  0  0
 42 44  1  0  0  0  0
 43 45  1  0  0  0  0
 43 46  1  0  0  0  0
 44 48  1  0  0  0  0
 45 50  1  0  0  0  0
 46 65  1  0  0  0  0
 47 50  1  0  0  0  0
 47 65  1  0  0  0  0
 48 69  1  0  0  0  0
 49 64  1  0  0  0  0
 50 63  1  0  0  0  0
 51 60  1  0  0  0  0
 52 61  1  0  0  0  0
 53 61  1  0  0  0  0
 54 61  1  0  0  0  0
 55 71  1  0  0  0  0
 56 57  1  0  0  0  0
 56 58  1  0  0  0  0
 57 78  1  0  0  0  0
 58 79  1  0  0  0  0
 59 61  1  0  0  0  0
 59 70  1  0  0  0  0
 60 71  1  0  0  0  0
 62 63  1  0  0  0  0
M  CHG  1  71   1
M  ISO  4  38 100  57 101  68 100  78 101
M  END
> <Batch ID>
0011

> <Smiles>
CNC(C)C(=O)NC(C(=O)N1Cc2cc([101O:1][101CH2:1]CCOc3ccc([100NH:0][100C:0](=O)N4CCCC(n5nc(-c6ccc(Oc7ccc(F)cc7F)cc6)c(C(N)=O)c5N)C4)c(F)c3)ccc2CC1C(=O)NC1CCCc2ccccc21)C(C)(C)C

> <Shape>
0.303

> <Color>
0.145

> <Negative vol penalty>
0.000

$$$$

  -OEChem-04052315443D

 85 93  0     1  0  0  0  0  0999 V2000
  -27.2949  -29.6285   32.3080 C   0  0  0  0  0  0  0  0  0  0  0  0
  -27.3647  -28.4914   31.5095 C   0  0  0  0  0  0  0  0  0  0  0  0
  -23.0525   -9.7505   20.0673 C   0  0  0  0  0  0  0  0  0  0  0  0
  -23.6923  -10.0129   22.3822 C   0  0  0  0  0  0  0  0  0  0  0  0
  -26.7031  -30.7904   31.8142 C   0  0  0  0  0  0  0  0  0  0  0  0
  -26.8417  -28.5152   30.2170 C   0  0  0  0  0  0  0  0  0  0  0  0
  -29.9373  -26.3746   26.8289 C   0  0  0  0  0  0  0  0  0  0  0  0
  -22.3016   -8.6239   20.4024 C   0  0  0  0  0  0  0  0  0  0  0  0
  -22.9413   -8.8862   22.7174 C   0  0  0  0  0  0  0  0  0  0  0  0
  -29.9661  -24.9814   26.7837 C   0  0  0  0  0  0  0  0  0  0  0  0
  -23.2750   -5.5265   22.5392 C   0  0  0  0  0  0  0  0  0  0  0  0
  -23.8568   -4.5909   23.3947 C   0  0  0  0  0  0  0  0  0  0  0  0
  -28.4992  -25.0191   24.8690 C   0  0  0  0  0  0  0  0  0  0  0  0
  -31.5590  -18.7389   23.8259 C   0  0  0  0  0  0  0  0  0  0  0  0
  -22.0683   -4.9311   24.9830 C   0  0  0  0  0  0  0  0  0  0  0  0
  -23.7479  -10.4450   21.0572 C   0  0  0  0  0  0  0  0  0  0  0  0
  -24.0847  -12.9457   20.6816 C   0  0  0  0  0  0  0  0  0  0  0  0
  -26.1813  -30.8314   30.5117 C   0  0  0  0  0  0  0  0  0  0  0  0
  -29.1792  -27.1013   25.8995 C   0  0  0  0  0  0  0  0  0  0  0  0
  -26.2412  -29.6784   29.7059 C   0  0  0  0  0  0  0  0  0  0  0  0
  -28.4645  -26.4215   24.9029 C   0  0  0  0  0  0  0  0  0  0  0  0
  -30.3972  -18.9986   23.0992 C   0  0  0  0  0  0  0  0  0  0  0  0
  -30.4875  -16.7744   22.1600 C   0  0  0  0  0  0  0  0  0  0  0  0
  -22.2460   -8.1917   21.7275 C   0  0  0  0  0  0  0  0  0  0  0  0
  -29.2447  -24.3033   25.8055 C   0  0  0  0  0  0  0  0  0  0  0  0
  -22.0899   -6.1645   22.9057 C   0  0  0  0  0  0  0  0  0  0  0  0
  -23.2534   -4.2932   24.6166 C   0  0  0  0  0  0  0  0  0  0  0  0
  -32.1853  -17.4970   23.7196 C   0  0  0  0  0  0  0  0  0  0  0  0
  -21.4866   -5.8667   24.1276 C   0  0  0  0  0  0  0  0  0  0  0  0
  -29.8613  -18.0164   22.2662 C   0  0  0  0  0  0  0  0  0  0  0  0
  -31.6494  -16.5148   22.8867 C   0  0  0  0  0  0  0  0  0  0  0  0
  -24.5242  -11.6086   20.7115 C   0  0  0  0  0  0  0  0  0  0  0  0
  -25.1910  -13.6623   20.2956 C   0  0  0  0  0  0  0  0  0  0  0  0
  -22.7920  -13.4912   20.9766 C   0  0  0  0  0  0  0  0  0  0  0  0
  -26.7112  -29.0956   26.0875 C   0  0  0  0  0  0  0  0  0  0  0  0
  -27.2612  -29.4569   22.9112 C   0  0  0  0  0  0  0  0  0  0  0  0
  -29.8555  -21.0052   24.4235 C   0  0  0  0  0  0  0  0  0  0  0  0
  -28.5540  -28.1644   20.0293 C   0  0  0  0  0  0  0  0  0  0  0  0
  -30.6362  -14.7746   20.6353 C   0  0  0  0  0  0  0  0  0  0  0  0
  -25.5087  -32.0957   30.0386 C   0  0  0  0  0  0  0  0  0  0  0  0
  -29.1800  -28.6047   25.9452 C   0  0  0  0  0  0  0  0  0  0  0  0
  -27.6513  -27.1558   23.8695 C   0  0  0  0  0  0  0  0  0  0  0  0
  -25.3140  -32.1527   28.5256 C   0  0  0  0  0  0  0  0  0  0  0  0
  -29.6567  -12.1080   18.4888 C   0  0  0  0  0  0  0  0  0  0  0  0
  -24.7459  -30.8341   28.0105 C   0  0  0  0  0  0  0  0  0  0  0  0
  -28.1979  -11.8504   18.8733 C   0  0  0  0  0  0  0  0  0  0  0  0
  -30.5071  -12.4744   19.7038 C   0  0  0  0  0  0  0  0  0  0  0  0
  -28.5280  -13.3250   20.8990 C   0  0  0  0  0  0  0  0  0  0  0  0
  -25.7073  -29.6725   28.2899 C   0  0  1  0  0  0  0  0  0  0  0  0
  -27.9625  -29.2238   25.2656 C   0  0  1  0  0  0  0  0  0  0  0  0
  -27.6183  -13.0159   19.6987 C   0  0  2  0  0  0  0  0  0  0  0  0
  -28.8186  -28.6744   17.5865 C   0  0  0  0  0  0  0  0  0  0  0  0
  -24.3248  -28.7666   22.4515 C   0  0  0  0  0  0  0  0  0  0  0  0
  -24.8696  -28.3605   20.0418 C   0  0  0  0  0  0  0  0  0  0  0  0
  -25.1940  -30.6293   21.0269 C   0  0  0  0  0  0  0  0  0  0  0  0
  -29.0015  -20.8153   22.0590 C   0  0  0  0  0  0  0  0  0  0  0  0
  -31.5070  -28.1067   20.2183 C   0  0  0  0  0  0  0  0  0  0  0  0
  -29.1153  -22.3338   24.4788 C   0  0  0  0  0  0  0  0  0  1  0  0
  -26.7817  -28.7656   21.6577 C   0  0  1  0  0  0  0  0  0  0  0  0
  -29.4509  -28.7725   18.9661 C   0  0  2  0  0  0  0  0  0  0  0  0
  -25.3062  -29.1163   21.3150 C   0  0  0  0  0  0  0  0  0  0  0  0
  -25.8095  -11.4806   20.3713 N   0  0  0  0  0  0  0  0  0  0  0  0
  -26.1871  -12.7465   20.1240 N   0  0  0  0  0  0  0  0  0  0  0  0
  -27.6787  -28.6250   23.9598 N   0  0  0  0  0  0  0  0  0  0  0  0
  -29.8989  -13.5885   20.4345 N   0  0  0  0  0  0  0  0  0  0  0  0
  -25.3992  -14.9800   20.0894 N   0  0  0  0  0  0  0  0  0  0  0  0
  -21.7678  -12.6138   21.3583 N   0  0  0  0  0  0  0  0  0  0  0  0
  -29.9433  -15.7762   21.3143 N   0  0  0  0  0  0  0  0  0  0  0  0
  -26.7971  -29.6782   27.3376 N   0  0  0  0  0  0  0  0  0  0  0  0
  -27.7367  -29.1108   20.6103 N   0  0  0  0  0  0  0  0  0  0  0  0
  -29.7495  -20.2899   23.2116 N   0  0  0  0  0  0  0  0  0  0  0  0
  -30.7643  -28.0691   18.9322 N   0  3  0  0  0  0  0  0  0  0  0  0
  -22.5478  -14.7184   20.8880 O   0  0  0  0  0  0  0  0  0  0  0  0
  -25.7393  -28.5127   25.6215 O   0  0  0  0  0  0  0  0  0  0  0  0
  -27.2719  -30.6896   22.9556 O   0  0  0  0  0  0  0  0  0  0  0  0
  -30.4654  -20.6235   25.4254 O   0  0  0  0  0  0  0  0  0  0  0  0
  -28.5738  -26.9688   20.3132 O   0  0  0  0  0  0  0  0  0  0  0  0
  -31.7873  -14.9029   20.2105 O   0  0  0  0  0  0  0  0  0  0  0  0
  -21.5132   -7.0925   22.0549 O   0  0  0  0  0  0  0  0  0  0  0  0
  -29.2706  -22.9435   25.7596 O   0  0  0  0  0  0  0  0  0  1  0  0
  -23.8114   -3.3936   25.4373 F   0  0  0  0  0  0  0  0  0  0  0  0
  -33.3006  -17.2473   24.4179 F   0  0  0  0  0  0  0  0  0  0  0  0
  -20.3474   -6.4755   24.4845 F   0  0  0  0  0  0  0  0  0  0  0  0
  -28.7431  -18.2659   21.5677 F   0  0  0  0  0  0  0  0  0  0  0  0
  -32.2604  -15.3253   22.7917 F   0  0  0  0  0  0  0  0  0  0  0  0
  1  2  1  0  0  0  0
  1  5  2  0  0  0  0
  2  6  2  0  0  0  0
  3  8  2  0  0  0  0
  3 16  1  0  0  0  0
  4  9  1  0  0  0  0
  4 16  2  0  0  0  0
  5 18  1  0  0  0  0
  6 20  1  0  0  0  0
  7 10  2  0  0  0  0
  7 19  1  0  0  0  0
  8 24  1  0  0  0  0
  9 24  2  0  0  0  0
 10 25  1  0  0  0  0
 11 12  2  0  0  0  0
 11 26  1  0  0  0  0
 12 27  1  0  0  0  0
 13 21  1  0  0  0  0
 13 25  2  0  0  0  0
 14 22  1  0  0  0  0
 14 28  2  0  0  0  0
 15 27  2  0  0  0  0
 15 29  1  0  0  0  0
 16 32  1  0  0  0  0
 17 32  1  0  0  0  0
 17 33  2  0  0  0  0
 17 34  1  0  0  0  0
 18 20  2  0  0  0  0
 18 40  1  0  0  0  0
 19 21  2  0  0  0  0
 19 41  1  0  0  0  0
 20 49  1  0  0  0  0
 21 42  1  0  0  0  0
 22 30  2  0  0  0  0
 22 71  1  0  0  0  0
 23 30  1  0  0  0  0
 23 31  2  0  0  0  0
 23 68  1  0  0  0  0
 24 79  1  0  0  0  0
 25 80  1  0  0  0  0
 26 29  2  0  0  0  0
 26 79  1  0  0  0  0
 27 81  1  0  0  0  0
 28 31  1  0  0  0  0
 28 82  1  0  0  0  0
 29 83  1  0  0  0  0
 30 84  1  0  0  0  0
 31 85  1  0  0  0  0
 32 62  2  0  0  0  0
 33 63  1  0  0  0  0
 33 66  1  0  0  0  0
 34 67  1  0  0  0  0
 34 73  2  0  0  0  0
 35 50  1  0  0  0  0
 35 69  1  0  0  0  0
 35 74  2  0  0  0  0
 36 59  1  0  0  0  0
 36 64  1  0  0  0  0
 36 75  2  0  0  0  0
 37 58  1  0  0  0  0
 37 71  1  0  0  0  0
 37 76  2  0  0  0  0
 38 60  1  0  0  0  0
 38 70  1  0  0  0  0
 38 77  2  0  0  0  0
 39 65  1  0  0  0  0
 39 68  1  0  0  0  0
 39 78  2  0  0  0  0
 40 43  1  0  0  0  0
 41 50  1  0  0  0  0
 42 64  1  0  0  0  0
 43 45  1  0  0  0  0
 44 46  1  0  0  0  0
 44 47  1  0  0  0  0
 45 49  1  0  0  0  0
 46 51  1  0  0  0  0
 47 65  1  0  0  0  0
 48 51  1  0  0  0  0
 48 65  1  0  0  0  0
 49 69  1  0  0  0  0
 50 64  1  0  0  0  0
 51 63  1  0  0  0  0
 52 60  1  0  0  0  0
 53 61  1  0  0  0  0
 54 61  1  0  0  0  0
 55 61  1  0  0  0  0
 56 71  1  0  0  0  0
 57 72  1  0  0  0  0
 58 80  1  0  0  0  0
 59 61  1  0  0  0  0
 59 70  1  0  0  0  0
 60 72  1  0  0  0  0
 62 63  1  0  0  0  0
M  CHG  1  72   1
M  ISO  4  39 100  58 101  68 100  80 101
M  END
> <Batch ID>
0011

> <Smiles>
CNC(C)C(=O)NC(C(=O)N1Cc2cc([101O:1][101CH2:1]C(=O)N(C)c3cc(F)c(F)c([100NH:0][100C:0](=O)N4CCCC(n5nc(-c6ccc(Oc7ccc(F)cc7F)cc6)c(C(N)=O)c5N)C4)c3F)ccc2CC1C(=O)NC1CCCc2ccccc21)C(C)(C)C

> <Shape>
0.267

> <Color>
0.214

> <Negative vol penalty>
0.000

$$$$

  -OEChem-04052315443D

 84 91  0     1  0  0  0  0  0999 V2000
  -27.1647  -37.6857   22.4045 C   0  0  0  0  0  0  0  0  0  0  0  0
  -27.8387  -36.6577   21.7530 C   0  0  0  0  0  0  0  0  0  0  0  0
  -24.2790   -9.7248   21.7248 C   0  0  0  0  0  0  0  0  0  0  0  0
  -22.5489  -10.2753   20.1308 C   0  0  0  0  0  0  0  0  0  0  0  0
  -26.2877  -37.3914   23.4476 C   0  0  0  0  0  0  0  0  0  0  0  0
  -27.6369  -35.3349   22.1451 C   0  0  0  0  0  0  0  0  0  0  0  0
  -27.4103  -28.6925   19.4724 C   0  0  0  0  0  0  0  0  0  0  0  0
  -23.6418   -8.5145   21.9984 C   0  0  0  0  0  0  0  0  0  0  0  0
  -21.9118   -9.0650   20.4043 C   0  0  0  0  0  0  0  0  0  0  0  0
  -27.9590  -27.4280   19.6817 C   0  0  0  0  0  0  0  0  0  0  0  0
  -22.2777   -5.4396   23.3795 C   0  0  0  0  0  0  0  0  0  0  0  0
  -22.1461   -5.0618   24.7157 C   0  0  0  0  0  0  0  0  0  0  0  0
  -26.3600  -27.0325   21.4442 C   0  0  0  0  0  0  0  0  0  0  0  0
  -20.8697   -7.0652   25.1565 C   0  0  0  0  0  0  0  0  0  0  0  0
  -23.7325  -10.6052   20.7910 C   0  0  0  0  0  0  0  0  0  0  0  0
  -25.3704  -12.0982   19.5277 C   0  0  0  0  0  0  0  0  0  0  0  0
  -26.0677  -36.0635   23.8463 C   0  0  0  0  0  0  0  0  0  0  0  0
  -26.3376  -29.1415   20.2561 C   0  0  0  0  0  0  0  0  0  0  0  0
  -26.7572  -35.0227   23.1955 C   0  0  0  0  0  0  0  0  0  0  0  0
  -25.7979  -28.3021   21.2411 C   0  0  0  0  0  0  0  0  0  0  0  0
  -22.4583   -8.1846   21.3381 C   0  0  0  0  0  0  0  0  0  0  0  0
  -27.4357  -26.5989   20.6696 C   0  0  0  0  0  0  0  0  0  0  0  0
  -21.7054   -6.6303   22.9317 C   0  0  0  0  0  0  0  0  0  0  0  0
  -21.4421   -5.8745   25.6042 C   0  0  0  0  0  0  0  0  0  0  0  0
  -21.0014   -7.4431   23.8202 C   0  0  0  0  0  0  0  0  0  0  0  0
  -24.3899  -11.8558   20.5084 C   0  0  0  0  0  0  0  0  0  0  0  0
  -25.6690  -13.4320   19.6630 C   0  0  0  0  0  0  0  0  0  0  0  0
  -25.9586  -11.1982   18.5792 C   0  0  0  0  0  0  0  0  0  0  0  0
  -25.8957  -31.5461   22.2874 C   0  0  0  0  0  0  0  0  0  0  0  0
  -22.8304  -30.4851   22.2691 C   0  0  0  0  0  0  0  0  0  0  0  0
  -26.2004  -20.0283   18.2254 C   0  0  0  0  0  0  0  0  0  0  0  0
  -20.6618  -27.9018   21.7491 C   0  0  0  0  0  0  0  0  0  0  0  0
  -24.0646  -18.7335   20.3456 C   0  0  0  0  0  0  0  0  0  0  0  0
  -25.1462  -35.7983   25.0104 C   0  0  0  0  0  0  0  0  0  0  0  0
  -25.7397  -30.4977   19.9999 C   0  0  0  0  0  0  0  0  0  0  0  0
  -24.6335  -28.7290   22.0958 C   0  0  0  0  0  0  0  0  0  0  0  0
  -24.7034  -34.3413   25.1171 C   0  0  0  0  0  0  0  0  0  0  0  0
  -24.4038  -16.7390   23.2754 C   0  0  0  0  0  0  0  0  0  0  0  0
  -25.8983  -33.4070   24.9556 C   0  0  0  0  0  0  0  0  0  0  0  0
  -24.5049  -15.3111   22.7362 C   0  0  0  0  0  0  0  0  0  0  0  0
  -23.4382  -17.5869   22.4502 C   0  0  0  0  0  0  0  0  0  0  0  0
  -23.8162  -16.1799   20.4624 C   0  0  0  0  0  0  0  0  0  0  0  0
  -26.5459  -33.5731   23.5755 C   0  0  1  0  0  0  0  0  0  0  0  0
  -24.9815  -31.0531   21.2016 C   0  0  1  0  0  0  0  0  0  0  0  0
  -24.8209  -15.3022   21.2284 C   0  0  2  0  0  0  0  0  0  0  0  0
  -18.2209  -27.3281   21.8505 C   0  0  0  0  0  0  0  0  0  0  0  0
  -28.8523  -20.4197   16.7814 C   0  0  0  0  0  0  0  0  0  0  0  0
  -26.6681  -21.8585   21.4173 C   0  0  0  0  0  0  0  0  0  0  0  0
  -29.9247  -22.5208   18.9287 C   0  0  0  0  0  0  0  0  0  0  0  0
  -22.9914  -30.3487   25.3130 C   0  0  0  0  0  0  0  0  0  0  0  0
  -20.9427  -28.9098   25.2873 C   0  0  0  0  0  0  0  0  0  0  0  0
  -20.8342  -31.2468   24.4216 C   0  0  0  0  0  0  0  0  0  0  0  0
  -25.7268  -21.9543   16.7037 C   0  0  0  0  0  0  0  0  0  0  0  0
  -20.5735  -27.2614   18.8610 C   0  0  0  0  0  0  0  0  0  0  0  0
  -24.7116  -19.7350   18.1690 C   0  0  0  0  0  0  0  0  0  0  0  0
  -27.0909  -24.3490   21.3588 C   0  0  0  0  0  0  0  0  0  1  0  0
  -22.0419  -29.4808   23.0744 C   0  0  1  0  0  0  0  0  0  0  0  0
  -19.3604  -27.8201   20.9717 C   0  0  2  0  0  0  0  0  0  0  0  0
  -28.0427  -21.5394   17.4376 C   0  0  2  0  0  0  0  0  0  0  0  0
  -27.5727  -22.9722   20.9155 C   0  0  2  0  0  0  0  0  0  0  0  0
  -28.5187  -21.9342   18.8500 C   0  0  2  0  0  0  0  0  0  0  0  0
  -21.7257  -29.9889   24.5095 C   0  0  0  0  0  0  0  0  0  0  0  0
  -24.0860  -12.9480   21.2147 N   0  0  0  0  0  0  0  0  0  0  0  0
  -24.8802  -13.8896   20.6772 N   0  0  0  0  0  0  0  0  0  0  0  0
  -24.0878  -30.0664   21.8113 N   0  0  0  0  0  0  0  0  0  0  0  0
  -23.7941  -17.5371   21.0300 N   0  0  0  0  0  0  0  0  0  0  0  0
  -26.5267  -14.2464   19.0122 N   0  0  0  0  0  0  0  0  0  0  0  0
  -25.5371   -9.8616   18.5761 N   0  0  0  0  0  0  0  0  0  0  0  0
  -25.7640  -32.8933   22.5651 N   0  0  0  0  0  0  0  0  0  0  0  0
  -20.8608  -29.1583   22.2810 N   0  0  0  0  0  0  0  0  0  0  0  0
  -24.4002  -18.5965   19.0042 N   0  0  0  0  0  0  0  0  0  0  0  0
  -26.6358  -21.1292   17.4851 N   0  0  0  0  0  0  0  0  0  0  0  0
  -19.5030  -26.8852   19.8199 N   0  3  0  0  0  0  0  0  0  0  0  0
  -27.5789  -22.9303   19.4245 N   0  3  0  0  0  0  0  0  0  0  0  0
  -26.8439  -11.5646   17.7695 O   0  0  0  0  0  0  0  0  0  0  0  0
  -26.6628  -30.7620   22.8337 O   0  0  0  0  0  0  0  0  0  0  0  0
  -22.3455  -31.5976   22.0480 O   0  0  0  0  0  0  0  0  0  0  0  0
  -26.9587  -19.3195   18.8925 O   0  0  0  0  0  0  0  0  0  0  0  0
  -21.4236  -26.9456   21.8752 O   0  0  0  0  0  0  0  0  0  0  0  0
  -24.0163  -19.8413   20.8910 O   0  0  0  0  0  0  0  0  0  0  0  0
  -21.8364   -7.0036   21.6047 O   0  0  0  0  0  0  0  0  0  0  0  0
  -27.9698  -25.3644   20.8764 O   0  0  0  0  0  0  0  0  0  1  0  0
  -21.3144   -5.5108   26.8870 F   0  0  0  0  0  0  0  0  0  0  0  0
  -20.4484   -8.5875   23.3956 F   0  0  0  0  0  0  0  0  0  0  0  0
  1  2  1  0  0  0  0
  1  5  2  0  0  0  0
  2  6  2  0  0  0  0
  3  8  2  0  0  0  0
  3 15  1  0  0  0  0
  4  9  1  0  0  0  0
  4 15  2  0  0  0  0
  5 17  1  0  0  0  0
  6 19  1  0  0  0  0
  7 10  2  0  0  0  0
  7 18  1  0  0  0  0
  8 21  1  0  0  0  0
  9 21  2  0  0  0  0
 10 22  1  0  0  0  0
 11 12  2  0  0  0  0
 11 23  1  0  0  0  0
 12 24  1  0  0  0  0
 13 20  1  0  0  0  0
 13 22  2  0  0  0  0
 14 24  2  0  0  0  0
 14 25  1  0  0  0  0
 15 26  1  0  0  0  0
 16 26  1  0  0  0  0
 16 27  2  0  0  0  0
 16 28  1  0  0  0  0
 17 19  2  0  0  0  0
 17 34  1  0  0  0  0
 18 20  2  0  0  0  0
 18 35  1  0  0  0  0
 19 43  1  0  0  0  0
 20 36  1  0  0  0  0
 21 81  1  0  0  0  0
 22 82  1  0  0  0  0
 23 25  2  0  0  0  0
 23 81  1  0  0  0  0
 24 83  1  0  0  0  0
 25 84  1  0  0  0  0
 26 63  2  0  0  0  0
 27 64  1  0  0  0  0
 27 67  1  0  0  0  0
 28 68  1  0  0  0  0
 28 75  2  0  0  0  0
 29 44  1  0  0  0  0
 29 69  1  0  0  0  0
 29 76  2  0  0  0  0
 30 57  1  0  0  0  0
 30 65  1  0  0  0  0
 30 77  2  0  0  0  0
 31 55  1  0  0  0  0
 31 72  1  0  0  0  0
 31 78  2  0  0  0  0
 32 58  1  0  0  0  0
 32 70  1  0  0  0  0
 32 79  2  0  0  0  0
 33 66  1  0  0  0  0
 33 71  1  0  0  0  0
 33 80  2  0  0  0  0
 34 37  1  0  0  0  0
 35 44  1  0  0  0  0
 36 65  1  0  0  0  0
 37 39  1  0  0  0  0
 38 40  1  0  0  0  0
 38 41  1  0  0  0  0
 39 43  1  0  0  0  0
 40 45  1  0  0  0  0
 41 66  1  0  0  0  0
 42 45  1  0  0  0  0
 42 66  1  0  0  0  0
 43 69  1  0  0  0  0
 44 65  1  0  0  0  0
 45 64  1  0  0  0  0
 46 58  1  0  0  0  0
 47 59  1  0  0  0  0
 48 60  1  0  0  0  0
 49 61  1  0  0  0  0
 50 62  1  0  0  0  0
 51 62  1  0  0  0  0
 52 62  1  0  0  0  0
 53 72  1  0  0  0  0
 54 73  1  0  0  0  0
 55 71  1  0  0  0  0
 56 60  1  0  0  0  0
 56 82  1  0  0  0  0
 57 62  1  0  0  0  0
 57 70  1  0  0  0  0
 58 73  1  0  0  0  0
 59 61  1  0  0  0  0
 59 72  1  0  0  0  0
 60 74  1  0  0  0  0
 61 74  1  0  0  0  0
 63 64  1  0  0  0  0
M  CHG  2  73   1  74   1
M  ISO  4  33 100  56 101  71 100  82 101
M  END
> <Batch ID>
0011

> <Smiles>
CNC(C)C(=O)NC(C(=O)N1Cc2cc([101O:1][101CH2:1]C(C)NC(C)C(C)N(C)C(=O)C[100NH:0][100C:0](=O)N3CCCC(n4nc(-c5ccc(Oc6ccc(F)cc6F)cc5)c(C(N)=O)c4N)C3)ccc2CC1C(=O)NC1CCCc2ccccc21)C(C)(C)C

> <Shape>
0.310

> <Color>
0.091

> <Negative vol penalty>
0.000

$$$$

  -OEChem-04052315443D

 83 91  0     1  0  0  0  0  0999 V2000
  -28.0667  -31.6684   28.1077 C   0  0  0  0  0  0  0  0  0  0  0  0
  -28.2617  -30.7530   27.0784 C   0  0  0  0  0  0  0  0  0  0  0  0
  -24.3972   -9.0445   21.4349 C   0  0  0  0  0  0  0  0  0  0  0  0
  -23.9346  -10.8276   22.9982 C   0  0  0  0  0  0  0  0  0  0  0  0
  -26.7779  -32.0965   28.4233 C   0  0  0  0  0  0  0  0  0  0  0  0
  -27.1679  -30.2643   26.3648 C   0  0  0  0  0  0  0  0  0  0  0  0
  -27.0031  -28.8122   20.4175 C   0  0  0  0  0  0  0  0  0  0  0  0
  -23.8859   -8.1165   22.3421 C   0  0  0  0  0  0  0  0  0  0  0  0
  -23.4232   -9.8995   23.9053 C   0  0  0  0  0  0  0  0  0  0  0  0
  -27.1092  -27.5951   19.7459 C   0  0  0  0  0  0  0  0  0  0  0  0
  -22.3706   -5.3192   24.1010 C   0  0  0  0  0  0  0  0  0  0  0  0
  -21.5063   -4.3407   23.6100 C   0  0  0  0  0  0  0  0  0  0  0  0
  -24.7035  -27.4371   19.6646 C   0  0  0  0  0  0  0  0  0  0  0  0
  -29.3845  -19.2371   19.4764 C   0  0  0  0  0  0  0  0  0  0  0  0
  -26.9720  -20.4832   18.8363 C   0  0  0  0  0  0  0  0  0  0  0  0
  -19.9809   -6.0608   22.8673 C   0  0  0  0  0  0  0  0  0  0  0  0
  -24.4216  -10.4000   21.7630 C   0  0  0  0  0  0  0  0  0  0  0  0
  -24.2407  -12.0515   19.8271 C   0  0  0  0  0  0  0  0  0  0  0  0
  -25.6686  -31.6201   27.7069 C   0  0  0  0  0  0  0  0  0  0  0  0
  -25.7443  -29.3465   20.7280 C   0  0  0  0  0  0  0  0  0  0  0  0
  -25.8629  -30.6854   26.6721 C   0  0  0  0  0  0  0  0  0  0  0  0
  -24.5841  -28.6624   20.3380 C   0  0  0  0  0  0  0  0  0  0  0  0
  -28.2670  -18.4681   19.1518 C   0  0  0  0  0  0  0  0  0  0  0  0
  -28.0896  -21.2522   19.1610 C   0  0  0  0  0  0  0  0  0  0  0  0
  -23.3989   -8.5440   23.5773 C   0  0  0  0  0  0  0  0  0  0  0  0
  -25.9594  -26.9059   19.3719 C   0  0  0  0  0  0  0  0  0  0  0  0
  -22.0401   -6.6685   23.9753 C   0  0  0  0  0  0  0  0  0  0  0  0
  -20.3115   -4.7115   22.9931 C   0  0  0  0  0  0  0  0  0  0  0  0
  -29.2958  -20.6292   19.4811 C   0  0  0  0  0  0  0  0  0  0  0  0
  -20.8453   -7.0393   23.3584 C   0  0  0  0  0  0  0  0  0  0  0  0
  -27.0608  -19.0912   18.8317 C   0  0  0  0  0  0  0  0  0  0  0  0
  -24.9503  -11.3591   20.8266 C   0  0  0  0  0  0  0  0  0  0  0  0
  -25.1875  -12.8354   19.2144 C   0  0  0  0  0  0  0  0  0  0  0  0
  -22.8501  -11.9914   19.4833 C   0  0  0  0  0  0  0  0  0  0  0  0
  -24.2190  -30.0764   23.4195 C   0  0  0  0  0  0  0  0  0  0  0  0
  -22.0097  -31.2924   21.3792 C   0  0  0  0  0  0  0  0  0  0  0  0
  -26.8803  -23.4407   18.8743 C   0  0  0  0  0  0  0  0  0  0  0  0
  -20.6310  -31.2781   18.2574 C   0  0  0  0  0  0  0  0  0  0  0  0
  -29.5315  -16.3104   19.4545 C   0  0  0  0  0  0  0  0  0  0  0  0
  -24.2902  -32.0759   28.1157 C   0  0  0  0  0  0  0  0  0  0  0  0
  -25.6467  -30.6735   21.4293 C   0  0  0  0  0  0  0  0  0  0  0  0
  -23.2089  -29.2030   20.6296 C   0  0  0  0  0  0  0  0  0  0  0  0
  -23.2192  -31.7951   27.0648 C   0  0  0  0  0  0  0  0  0  0  0  0
  -30.2336  -12.8234   19.6128 C   0  0  0  0  0  0  0  0  0  0  0  0
  -23.3474  -30.3686   26.5399 C   0  0  0  0  0  0  0  0  0  0  0  0
  -28.8633  -12.1885   19.8605 C   0  0  0  0  0  0  0  0  0  0  0  0
  -30.3835  -14.1539   20.3483 C   0  0  0  0  0  0  0  0  0  0  0  0
  -27.9433  -14.4925   20.3425 C   0  0  0  0  0  0  0  0  0  0  0  0
  -24.7040  -30.1512   25.8588 C   0  0  1  0  0  0  0  0  0  0  0  0
  -24.3164  -30.8726   22.1490 C   0  0  1  0  0  0  0  0  0  0  0  0
  -27.7212  -13.1819   19.5701 C   0  0  2  0  0  0  0  0  0  0  0  0
  -18.8152  -32.3552   16.9009 C   0  0  0  0  0  0  0  0  0  0  0  0
  -19.9282  -29.5824   22.8122 C   0  0  0  0  0  0  0  0  0  0  0  0
  -18.3901  -29.9522   20.8716 C   0  0  0  0  0  0  0  0  0  0  0  0
  -19.1629  -31.8925   22.2358 C   0  0  0  0  0  0  0  0  0  0  0  0
  -22.5754  -32.3870   16.3213 C   0  0  0  0  0  0  0  0  0  0  0  0
  -27.2083  -24.9172   18.9958 C   0  0  0  0  0  0  0  0  0  1  0  0
  -20.7901  -30.7479   20.6756 C   0  0  1  0  0  0  0  0  0  0  0  0
  -20.2801  -32.4078   17.3060 C   0  0  2  0  0  0  0  0  0  0  0  0
  -19.5936  -30.5323   21.6449 C   0  0  0  0  0  0  0  0  0  0  0  0
  -26.2477  -11.6752   20.8507 N   0  0  0  0  0  0  0  0  0  0  0  0
  -26.3610  -12.5749   19.8588 N   0  0  0  0  0  0  0  0  0  0  0  0
  -23.1657  -30.5010   21.3230 N   0  0  0  0  0  0  0  0  0  0  0  0
  -29.2685  -15.0454   20.0215 N   0  0  0  0  0  0  0  0  0  0  0  0
  -25.1225  -13.7153   18.1926 N   0  0  0  0  0  0  0  0  0  0  0  0
  -22.0175  -11.1333   20.2146 N   0  0  0  0  0  0  0  0  0  0  0  0
  -27.9968  -22.6643   19.1653 N   0  0  0  0  0  0  0  0  0  0  0  0
  -28.3920  -17.0567   19.1561 N   0  0  0  0  0  0  0  0  0  0  0  0
  -24.7035  -30.7340   24.5341 N   0  0  0  0  0  0  0  0  0  0  0  0
  -20.5103  -31.6643   19.5755 N   0  0  0  0  0  0  0  0  0  0  0  0
  -21.1121  -32.3236   16.0725 N   0  3  0  0  0  0  0  0  0  0  0  0
  -22.3634  -12.6661   18.5445 O   0  0  0  0  0  0  0  0  0  0  0  0
  -23.7384  -28.9495   23.3910 O   0  0  0  0  0  0  0  0  0  0  0  0
  -21.9412  -32.3831   21.9513 O   0  0  0  0  0  0  0  0  0  0  0  0
  -25.7597  -23.0554   18.5574 O   0  0  0  0  0  0  0  0  0  0  0  0
  -20.9740  -30.1633   17.8699 O   0  0  0  0  0  0  0  0  0  0  0  0
  -30.6819  -16.6916   19.2238 O   0  0  0  0  0  0  0  0  0  0  0  0
  -22.8996   -7.6388   24.4626 O   0  0  0  0  0  0  0  0  0  0  0  0
  -26.0601  -25.7174   18.7168 O   0  0  0  0  0  0  0  0  0  1  0  0
  -19.4823   -3.7718   22.5203 F   0  0  0  0  0  0  0  0  0  0  0  0
  -30.3763  -21.3584   19.7948 F   0  0  0  0  0  0  0  0  0  0  0  0
  -20.5229   -8.3340   23.2336 F   0  0  0  0  0  0  0  0  0  0  0  0
  -25.6525  -18.1766   18.4248 Cl  0  0  0  0  0  0  0  0  0  0  0  0
  1  2  1  0  0  0  0
  1  5  2  0  0  0  0
  2  6  2  0  0  0  0
  3  8  2  0  0  0  0
  3 17  1  0  0  0  0
  4  9  1  0  0  0  0
  4 17  2  0  0  0  0
  5 19  1  0  0  0  0
  6 21  1  0  0  0  0
  7 10  2  0  0  0  0
  7 20  1  0  0  0  0
  8 25  1  0  0  0  0
  9 25  2  0  0  0  0
 10 26  1  0  0  0  0
 11 12  2  0  0  0  0
 11 27  1  0  0  0  0
 12 28  1  0  0  0  0
 13 22  1  0  0  0  0
 13 26  2  0  0  0  0
 14 23  2  0  0  0  0
 14 29  1  0  0  0  0
 15 24  1  0  0  0  0
 15 31  2  0  0  0  0
 16 28  2  0  0  0  0
 16 30  1  0  0  0  0
 17 32  1  0  0  0  0
 18 32  1  0  0  0  0
 18 33  2  0  0  0  0
 18 34  1  0  0  0  0
 19 21  2  0  0  0  0
 19 40  1  0  0  0  0
 20 22  2  0  0  0  0
 20 41  1  0  0  0  0
 21 49  1  0  0  0  0
 22 42  1  0  0  0  0
 23 31  1  0  0  0  0
 23 68  1  0  0  0  0
 24 29  2  0  0  0  0
 24 67  1  0  0  0  0
 25 78  1  0  0  0  0
 26 79  1  0  0  0  0
 27 30  2  0  0  0  0
 27 78  1  0  0  0  0
 28 80  1  0  0  0  0
 29 81  1  0  0  0  0
 30 82  1  0  0  0  0
 31 83  1  0  0  0  0
 32 61  2  0  0  0  0
 33 62  1  0  0  0  0
 33 65  1  0  0  0  0
 34 66  1  0  0  0  0
 34 72  2  0  0  0  0
 35 50  1  0  0  0  0
 35 69  1  0  0  0  0
 35 73  2  0  0  0  0
 36 58  1  0  0  0  0
 36 63  1  0  0  0  0
 36 74  2  0  0  0  0
 37 57  1  0  0  0  0
 37 67  1  0  0  0  0
 37 75  2  0  0  0  0
 38 59  1  0  0  0  0
 38 70  1  0  0  0  0
 38 76  2  0  0  0  0
 39 64  1  0  0  0  0
 39 68  1  0  0  0  0
 39 77  2  0  0  0  0
 40 43  1  0  0  0  0
 41 50  1  0  0  0  0
 42 63  1  0  0  0  0
 43 45  1  0  0  0  0
 44 46  1  0  0  0  0
 44 47  1  0  0  0  0
 45 49  1  0  0  0  0
 46 51  1  0  0  0  0
 47 64  1  0  0  0  0
 48 51  1  0  0  0  0
 48 64  1  0  0  0  0
 49 69  1  0  0  0  0
 50 63  1  0  0  0  0
 51 62  1  0  0  0  0
 52 59  1  0  0  0  0
 53 60  1  0  0  0  0
 54 60  1  0  0  0  0
 55 60  1  0  0  0  0
 56 71  1  0  0  0  0
 57 79  1  0  0  0  0
 58 60  1  0  0  0  0
 58 70  1  0  0  0  0
 59 71  1  0  0  0  0
 61 62  1  0  0  0  0
M  CHG  1  71   1
M  ISO  4  39 100  57 101  68 100  79 101
M  END
> <Batch ID>
0011

> <Smiles>
CNC(C)C(=O)NC(C(=O)N1Cc2cc([101O:1][101CH2:1]C(=O)Nc3cc(Cl)c([100NH:0][100C:0](=O)N4CCCC(n5nc(-c6ccc(Oc7ccc(F)cc7F)cc6)c(C(N)=O)c5N)C4)cc3F)ccc2CC1C(=O)NC1CCCc2ccccc21)C(C)(C)C

> <Shape>
0.284

> <Color>
0.106

> <Negative vol penalty>
0.000

$$$$

  -OEChem-04052315443D

 85 93  0     1  0  0  0  0  0999 V2000
  -16.8786  -29.9959   23.1467 C   0  0  0  0  0  0  0  0  0  0  0  0
  -18.1400  -30.5665   23.0098 C   0  0  0  0  0  0  0  0  0  0  0  0
  -27.8693  -13.0096   22.2425 C   0  0  0  0  0  0  0  0  0  0  0  0
  -26.5421  -13.3370   20.2504 C   0  0  0  0  0  0  0  0  0  0  0  0
  -16.7463  -28.6100   23.2238 C   0  0  0  0  0  0  0  0  0  0  0  0
  -19.2700  -29.7516   22.9511 C   0  0  0  0  0  0  0  0  0  0  0  0
  -25.7656  -29.4223   19.9485 C   0  0  0  0  0  0  0  0  0  0  0  0
  -27.3173  -11.7385   22.4013 C   0  0  0  0  0  0  0  0  0  0  0  0
  -25.9902  -12.0659   20.4092 C   0  0  0  0  0  0  0  0  0  0  0  0
  -27.1034  -29.2350   20.2935 C   0  0  0  0  0  0  0  0  0  0  0  0
  -23.6002  -10.6066   22.3038 C   0  0  0  0  0  0  0  0  0  0  0  0
  -22.2210  -10.4743   22.1432 C   0  0  0  0  0  0  0  0  0  0  0  0
  -26.7468  -26.8500   20.3569 C   0  0  0  0  0  0  0  0  0  0  0  0
  -29.0291  -23.8405   19.3917 C   0  0  0  0  0  0  0  0  0  0  0  0
  -30.5837  -24.4335   17.6400 C   0  0  0  0  0  0  0  0  0  0  0  0
  -22.5814   -8.9176   20.3310 C   0  0  0  0  0  0  0  0  0  0  0  0
  -27.4817  -13.8089   21.1670 C   0  0  0  0  0  0  0  0  0  0  0  0
  -29.2131  -15.4612   20.2841 C   0  0  0  0  0  0  0  0  0  0  0  0
  -17.8744  -27.7773   23.1563 C   0  0  0  0  0  0  0  0  0  0  0  0
  -24.9043  -28.3237   19.8156 C   0  0  0  0  0  0  0  0  0  0  0  0
  -19.1528  -28.3534   23.0287 C   0  0  0  0  0  0  0  0  0  0  0  0
  -25.3992  -27.0259   20.0077 C   0  0  0  0  0  0  0  0  0  0  0  0
  -29.9575  -24.7299   18.8507 C   0  0  0  0  0  0  0  0  0  0  0  0
  -28.7271  -22.6546   18.7222 C   0  0  0  0  0  0  0  0  0  0  0  0
  -26.3778  -11.2666   21.4847 C   0  0  0  0  0  0  0  0  0  0  0  0
  -27.5935  -27.9489   20.5006 C   0  0  0  0  0  0  0  0  0  0  0  0
  -24.4701   -9.8944   21.4780 C   0  0  0  0  0  0  0  0  0  0  0  0
  -29.3533  -22.3582   17.5116 C   0  0  0  0  0  0  0  0  0  0  0  0
  -21.7116   -9.6298   21.1568 C   0  0  0  0  0  0  0  0  0  0  0  0
  -30.2816  -23.2477   16.9704 C   0  0  0  0  0  0  0  0  0  0  0  0
  -23.9607   -9.0499   20.4916 C   0  0  0  0  0  0  0  0  0  0  0  0
  -28.0511  -15.1223   21.0028 C   0  0  0  0  0  0  0  0  0  0  0  0
  -29.3242  -16.8221   20.4328 C   0  0  0  0  0  0  0  0  0  0  0  0
  -30.1118  -14.6210   19.5478 C   0  0  0  0  0  0  0  0  0  0  0  0
  -22.2545  -27.3603   21.2834 C   0  0  0  0  0  0  0  0  0  0  0  0
  -22.2725  -25.0788   18.9776 C   0  0  0  0  0  0  0  0  0  0  0  0
  -31.1604  -26.9242   19.1367 C   0  0  0  0  0  0  0  0  0  0  0  0
  -24.0691  -23.2523   16.7231 C   0  0  0  0  0  0  0  0  0  0  0  0
  -27.0773  -21.9165   20.4771 C   0  0  0  0  0  0  0  0  0  0  0  0
  -17.6858  -26.2871   23.2915 C   0  0  0  0  0  0  0  0  0  0  0  0
  -23.4703  -28.5408   19.4168 C   0  0  0  0  0  0  0  0  0  0  0  0
  -24.5206  -25.8118   19.8574 C   0  0  0  0  0  0  0  0  0  0  0  0
  -18.8997  -25.4764   22.8448 C   0  0  0  0  0  0  0  0  0  0  0  0
  -26.8457  -20.0158   23.4790 C   0  0  0  0  0  0  0  0  0  0  0  0
  -20.1797  -26.0662   23.4286 C   0  0  0  0  0  0  0  0  0  0  0  0
  -27.2343  -18.6011   23.0432 C   0  0  0  0  0  0  0  0  0  0  0  0
  -26.0379  -20.7390   22.4028 C   0  0  0  0  0  0  0  0  0  0  0  0
  -27.0474  -19.3495   20.6366 C   0  0  0  0  0  0  0  0  0  0  0  0
  -20.4003  -27.5016   22.9364 C   0  0  1  0  0  0  0  0  0  0  0  0
  -22.5584  -27.3835   19.8121 C   0  0  1  0  0  0  0  0  0  0  0  0
  -27.9179  -18.6047   21.6619 C   0  0  2  0  0  0  0  0  0  0  0  0
  -23.8144  -21.4382   15.0079 C   0  0  0  0  0  0  0  0  0  0  0  0
  -22.0785  -23.0030   21.2054 C   0  0  0  0  0  0  0  0  0  0  0  0
  -22.7778  -21.2613   19.5484 C   0  0  0  0  0  0  0  0  0  0  0  0
  -20.6539  -22.5242   19.2065 C   0  0  0  0  0  0  0  0  0  0  0  0
  -24.9970  -25.0244   14.5419 C   0  0  0  0  0  0  0  0  0  0  0  0
  -28.0053  -21.2477   15.8974 C   0  0  0  0  0  0  0  0  0  0  0  0
  -31.1902  -28.0526   20.1612 C   0  0  0  0  0  0  0  0  0  0  0  0
  -29.8377  -28.7220   20.3525 C   0  0  0  0  0  0  0  0  0  1  0  0
  -22.8648  -23.6965   18.8460 C   0  0  1  0  0  0  0  0  0  0  0  0
  -23.8249  -22.9383   15.2581 C   0  0  2  0  0  0  0  0  0  0  0  0
  -22.1101  -22.6440   19.7064 C   0  0  0  0  0  0  0  0  0  0  0  0
  -27.4658  -16.1824   21.5663 N   0  0  0  0  0  0  0  0  0  0  0  0
  -28.2634  -17.2008   21.2019 N   0  0  0  0  0  0  0  0  0  0  0  0
  -23.1244  -26.0764   19.4724 N   0  0  0  0  0  0  0  0  0  0  0  0
  -26.7492  -20.7057   21.1230 N   0  0  0  0  0  0  0  0  0  0  0  0
  -30.2248  -17.7197   19.9795 N   0  0  0  0  0  0  0  0  0  0  0  0
  -29.8498  -13.2451   19.4971 N   0  0  0  0  0  0  0  0  0  0  0  0
  -30.2660  -25.9324   19.5301 N   0  0  0  0  0  0  0  0  0  0  0  0
  -27.7818  -21.7609   19.2838 N   0  0  0  0  0  0  0  0  0  0  0  0
  -20.9127  -27.4987   21.5830 N   0  0  0  0  0  0  0  0  0  0  0  0
  -22.8872  -23.3962   17.4185 N   0  0  0  0  0  0  0  0  0  0  0  0
  -24.8901  -23.5483   14.4130 N   0  3  0  0  0  0  0  0  0  0  0  0
  -31.1265  -15.0746   18.9662 O   0  0  0  0  0  0  0  0  0  0  0  0
  -23.1695  -27.2254   22.0872 O   0  0  0  0  0  0  0  0  0  0  0  0
  -21.0993  -25.2681   18.6466 O   0  0  0  0  0  0  0  0  0  0  0  0
  -31.8526  -26.9432   18.1243 O   0  0  0  0  0  0  0  0  0  0  0  0
  -25.1957  -23.3556   17.2034 O   0  0  0  0  0  0  0  0  0  0  0  0
  -26.7808  -23.0116   20.9617 O   0  0  0  0  0  0  0  0  0  0  0  0
  -25.8391  -10.0263   21.6392 O   0  0  0  0  0  0  0  0  0  0  0  0
  -29.0720  -21.2044   16.8425 O   0  0  0  0  0  0  0  0  0  0  0  0
  -28.8987  -27.7633   20.8380 O   0  0  0  0  0  0  0  0  0  1  0  0
  -20.3871   -9.5016   21.0037 F   0  0  0  0  0  0  0  0  0  0  0  0
  -30.8881  -22.9692   15.8082 F   0  0  0  0  0  0  0  0  0  0  0  0
  -24.7913   -8.3623   19.6960 F   0  0  0  0  0  0  0  0  0  0  0  0
  1  2  1  0  0  0  0
  1  5  2  0  0  0  0
  2  6  2  0  0  0  0
  3  8  2  0  0  0  0
  3 17  1  0  0  0  0
  4  9  1  0  0  0  0
  4 17  2  0  0  0  0
  5 19  1  0  0  0  0
  6 21  1  0  0  0  0
  7 10  2  0  0  0  0
  7 20  1  0  0  0  0
  8 25  1  0  0  0  0
  9 25  2  0  0  0  0
 10 26  1  0  0  0  0
 11 12  2  0  0  0  0
 11 27  1  0  0  0  0
 12 29  1  0  0  0  0
 13 22  1  0  0  0  0
 13 26  2  0  0  0  0
 14 23  2  0  0  0  0
 14 24  1  0  0  0  0
 15 23  1  0  0  0  0
 15 30  2  0  0  0  0
 16 29  2  0  0  0  0
 16 31  1  0  0  0  0
 17 32  1  0  0  0  0
 18 32  1  0  0  0  0
 18 33  2  0  0  0  0
 18 34  1  0  0  0  0
 19 21  2  0  0  0  0
 19 40  1  0  0  0  0
 20 22  2  0  0  0  0
 20 41  1  0  0  0  0
 21 49  1  0  0  0  0
 22 42  1  0  0  0  0
 23 69  1  0  0  0  0
 24 28  2  0  0  0  0
 24 70  1  0  0  0  0
 25 80  1  0  0  0  0
 26 82  1  0  0  0  0
 27 31  2  0  0  0  0
 27 80  1  0  0  0  0
 28 30  1  0  0  0  0
 28 81  1  0  0  0  0
 29 83  1  0  0  0  0
 30 84  1  0  0  0  0
 31 85  1  0  0  0  0
 32 63  2  0  0  0  0
 33 64  1  0  0  0  0
 33 67  1  0  0  0  0
 34 68  1  0  0  0  0
 34 74  2  0  0  0  0
 35 50  1  0  0  0  0
 35 71  1  0  0  0  0
 35 75  2  0  0  0  0
 36 60  1  0  0  0  0
 36 65  1  0  0  0  0
 36 76  2  0  0  0  0
 37 58  1  0  0  0  0
 37 69  1  0  0  0  0
 37 77  2  0  0  0  0
 38 61  1  0  0  0  0
 38 72  1  0  0  0  0
 38 78  2  0  0  0  0
 39 66  1  0  0  0  0
 39 70  1  0  0  0  0
 39 79  2  0  0  0  0
 40 43  1  0  0  0  0
 41 50  1  0  0  0  0
 42 65  1  0  0  0  0
 43 45  1  0  0  0  0
 44 46  1  0  0  0  0
 44 47  1  0  0  0  0
 45 49  1  0  0  0  0
 46 51  1  0  0  0  0
 47 66  1  0  0  0  0
 48 51  1  0  0  0  0
 48 66  1  0  0  0  0
 49 71  1  0  0  0  0
 50 65  1  0  0  0  0
 51 64  1  0  0  0  0
 52 61  1  0  0  0  0
 53 62  1  0  0  0  0
 54 62  1  0  0  0  0
 55 62  1  0  0  0  0
 56 73  1  0  0  0  0
 57 81  1  0  0  0  0
 58 59  1  0  0  0  0
 59 82  1  0  0  0  0
 60 62  1  0  0  0  0
 60 72  1  0  0  0  0
 61 73  1  0  0  0  0
 63 64  1  0  0  0  0
M  CHG  1  73   1
M  ISO  4  39 100  59 101  70 100  82 101
M  END
> <Batch ID>
0011

> <Smiles>
CNC(C)C(=O)NC(C(=O)N1Cc2cc([101O:1][101CH2:1]CC(=O)Nc3cc(F)c(OC)c([100NH:0][100C:0](=O)N4CCCC(n5nc(-c6ccc(Oc7ccc(F)cc7F)cc6)c(C(N)=O)c5N)C4)c3)ccc2CC1C(=O)NC1CCCc2ccccc21)C(C)(C)C

> <Shape>
0.273

> <Color>
0.081

> <Negative vol penalty>
0.000

$$$$

  -OEChem-04052315443D

 85 93  0     1  0  0  0  0  0999 V2000
  -29.8719  -12.7420   20.2172 C   0  0  0  0  0  0  0  0  0  0  0  0
  -29.6380  -13.9454   20.8749 C   0  0  0  0  0  0  0  0  0  0  0  0
  -28.7945  -22.5676   19.5130 C   0  0  0  0  0  0  0  0  0  0  0  0
  -26.5195  -21.7581   19.5920 C   0  0  0  0  0  0  0  0  0  0  0  0
  -29.0118  -12.3250   19.2022 C   0  0  0  0  0  0  0  0  0  0  0  0
  -28.5445  -14.7331   20.5171 C   0  0  0  0  0  0  0  0  0  0  0  0
  -23.7582  -19.2537   23.3407 C   0  0  0  0  0  0  0  0  0  0  0  0
  -29.2422  -21.3622   20.0535 C   0  0  0  0  0  0  0  0  0  0  0  0
  -26.9672  -20.5527   20.1325 C   0  0  0  0  0  0  0  0  0  0  0  0
  -23.2403  -20.5335   23.1463 C   0  0  0  0  0  0  0  0  0  0  0  0
  -31.0210  -18.3616   21.0767 C   0  0  0  0  0  0  0  0  0  0  0  0
  -32.1410  -17.7667   20.4960 C   0  0  0  0  0  0  0  0  0  0  0  0
  -21.7769  -19.6742   21.4319 C   0  0  0  0  0  0  0  0  0  0  0  0
  -19.0833  -26.5228   22.1261 C   0  0  0  0  0  0  0  0  0  0  0  0
  -20.8175  -28.5921   22.8284 C   0  0  0  0  0  0  0  0  0  0  0  0
  -30.9710  -17.6226   18.3871 C   0  0  0  0  0  0  0  0  0  0  0  0
  -27.4331  -22.7656   19.2823 C   0  0  0  0  0  0  0  0  0  0  0  0
  -26.8108  -24.3246   17.3614 C   0  0  0  0  0  0  0  0  0  0  0  0
  -27.9017  -13.1034   18.8383 C   0  0  0  0  0  0  0  0  0  0  0  0
  -23.2964  -18.1748   22.5732 C   0  0  0  0  0  0  0  0  0  0  0  0
  -27.6695  -14.3269   19.4953 C   0  0  0  0  0  0  0  0  0  0  0  0
  -22.2888  -18.3813   21.6202 C   0  0  0  0  0  0  0  0  0  0  0  0
  -20.2888  -26.6845   21.4433 C   0  0  0  0  0  0  0  0  0  0  0  0
  -21.1559  -27.7191   21.7945 C   0  0  0  0  0  0  0  0  0  0  0  0
  -28.3285  -20.3547   20.3633 C   0  0  0  0  0  0  0  0  0  0  0  0
  -22.2515  -20.7444   22.1898 C   0  0  0  0  0  0  0  0  0  0  0  0
  -29.8759  -18.5869   20.3127 C   0  0  0  0  0  0  0  0  0  0  0  0
  -32.1160  -17.3972   19.1512 C   0  0  0  0  0  0  0  0  0  0  0  0
  -18.7448  -27.3958   23.1600 C   0  0  0  0  0  0  0  0  0  0  0  0
  -29.8509  -18.2174   18.9679 C   0  0  0  0  0  0  0  0  0  0  0  0
  -19.6119  -28.4304   23.5112 C   0  0  0  0  0  0  0  0  0  0  0  0
  -26.9700  -24.0108   18.7245 C   0  0  0  0  0  0  0  0  0  0  0  0
  -26.3495  -25.6183   17.3586 C   0  0  0  0  0  0  0  0  0  0  0  0
  -27.0577  -23.5187   16.2015 C   0  0  0  0  0  0  0  0  0  0  0  0
  -24.6257  -16.1648   20.5004 C   0  0  0  0  0  0  0  0  0  0  0  0
  -21.7160  -14.7357   20.6156 C   0  0  0  0  0  0  0  0  0  0  0  0
  -21.3288  -24.5724   20.6224 C   0  0  0  0  0  0  0  0  0  0  0  0
  -18.3734  -15.0159   21.2444 C   0  0  0  0  0  0  0  0  0  0  0  0
  -23.3432  -28.8891   21.3548 C   0  0  0  0  0  0  0  0  0  0  0  0
  -27.0270  -12.6343   17.7028 C   0  0  0  0  0  0  0  0  0  0  0  0
  -23.8464  -16.7956   22.8136 C   0  0  0  0  0  0  0  0  0  0  0  0
  -21.7444  -17.2528   20.7844 C   0  0  0  0  0  0  0  0  0  0  0  0
  -25.6779  -13.3458   17.6390 C   0  0  0  0  0  0  0  0  0  0  0  0
  -26.5125  -29.6578   19.9258 C   0  0  0  0  0  0  0  0  0  0  0  0
  -25.8612  -14.8523   17.7925 C   0  0  0  0  0  0  0  0  0  0  0  0
  -26.9722  -28.3269   19.3262 C   0  0  0  0  0  0  0  0  0  0  0  0
  -25.7595  -29.4578   21.2398 C   0  0  0  0  0  0  0  0  0  0  0  0
  -25.0996  -27.1790   20.5761 C   0  0  0  0  0  0  0  0  0  0  0  0
  -26.4798  -15.1971   19.1526 C   0  0  1  0  0  0  0  0  0  0  0  0
  -23.6678  -15.8645   21.6184 C   0  0  1  0  0  0  0  0  0  0  0  0
  -25.8063  -27.3246   19.2186 C   0  0  2  0  0  0  0  0  0  0  0  0
  -16.2450  -13.6868   21.2142 C   0  0  0  0  0  0  0  0  0  0  0  0
  -21.6333  -14.9416   17.5725 C   0  0  0  0  0  0  0  0  0  0  0  0
  -19.1711  -14.5005   17.6790 C   0  0  0  0  0  0  0  0  0  0  0  0
  -20.7814  -12.7789   18.4952 C   0  0  0  0  0  0  0  0  0  0  0  0
  -20.0789  -26.0936   19.0408 C   0  0  0  0  0  0  0  0  0  0  0  0
  -17.9508  -15.4084   24.1472 C   0  0  0  0  0  0  0  0  0  0  0  0
  -21.8577  -24.4000   22.0466 C   0  0  0  0  0  0  0  0  0  0  0  0
  -22.6158  -23.0937   22.2528 C   0  0  0  0  0  0  0  0  0  1  0  0
  -20.4221  -14.8819   19.8518 C   0  0  1  0  0  0  0  0  0  0  0  0
  -17.4247  -14.1507   22.0543 C   0  0  2  0  0  0  0  0  0  0  0  0
  -20.5134  -14.2976   18.4138 C   0  0  0  0  0  0  0  0  0  0  0  0
  -26.6370  -25.0236   19.5291 N   0  0  0  0  0  0  0  0  0  0  0  0
  -26.2641  -25.9865   18.6690 N   0  0  0  0  0  0  0  0  0  0  0  0
  -22.3187  -15.9239   21.0522 N   0  0  0  0  0  0  0  0  0  0  0  0
  -24.6669  -28.4992   21.0604 N   0  0  0  0  0  0  0  0  0  0  0  0
  -26.0127  -26.4655   16.3630 N   0  0  0  0  0  0  0  0  0  0  0  0
  -27.5298  -22.2118   16.3842 N   0  0  0  0  0  0  0  0  0  0  0  0
  -22.3853  -27.9046   21.1147 N   0  0  0  0  0  0  0  0  0  0  0  0
  -25.4800  -15.1221   20.1962 N   0  0  0  0  0  0  0  0  0  0  0  0
  -19.3878  -14.2717   20.6802 N   0  0  0  0  0  0  0  0  0  0  0  0
  -20.6164  -25.7665   20.3708 N   0  0  0  0  0  0  0  0  0  0  0  0
  -16.8992  -14.9119   23.2228 N   0  3  0  0  0  0  0  0  0  0  0  0
  -26.8809  -23.9505   15.0371 O   0  0  0  0  0  0  0  0  0  0  0  0
  -24.5913  -17.2608   19.9533 O   0  0  0  0  0  0  0  0  0  0  0  0
  -22.1713  -13.6082   20.8235 O   0  0  0  0  0  0  0  0  0  0  0  0
  -21.5679  -23.7045   19.7792 O   0  0  0  0  0  0  0  0  0  0  0  0
  -18.2269  -16.2300   21.1212 O   0  0  0  0  0  0  0  0  0  0  0  0
  -23.0759  -30.0225   21.7621 O   0  0  0  0  0  0  0  0  0  0  0  0
  -28.7651  -19.1783   20.8905 O   0  0  0  0  0  0  0  0  0  0  0  0
  -21.7447  -21.9926   21.9976 O   0  0  0  0  0  0  0  0  0  1  0  0
  -33.1922  -16.8274   18.5932 F   0  0  0  0  0  0  0  0  0  0  0  0
  -17.5823  -27.2280   23.8064 F   0  0  0  0  0  0  0  0  0  0  0  0
  -28.7542  -18.4324   18.2285 F   0  0  0  0  0  0  0  0  0  0  0  0
  -19.2004  -29.5102   24.7873 Cl  0  0  0  0  0  0  0  0  0  0  0  0
  1  2  1  0  0  0  0
  1  5  2  0  0  0  0
  2  6  2  0  0  0  0
  3  8  2  0  0  0  0
  3 17  1  0  0  0  0
  4  9  1  0  0  0  0
  4 17  2  0  0  0  0
  5 19  1  0  0  0  0
  6 21  1  0  0  0  0
  7 10  2  0  0  0  0
  7 20  1  0  0  0  0
  8 25  1  0  0  0  0
  9 25  2  0  0  0  0
 10 26  1  0  0  0  0
 11 12  2  0  0  0  0
 11 27  1  0  0  0  0
 12 28  1  0  0  0  0
 13 22  1  0  0  0  0
 13 26  2  0  0  0  0
 14 23  1  0  0  0  0
 14 29  2  0  0  0  0
 15 24  1  0  0  0  0
 15 31  2  0  0  0  0
 16 28  2  0  0  0  0
 16 30  1  0  0  0  0
 17 32  1  0  0  0  0
 18 32  1  0  0  0  0
 18 33  2  0  0  0  0
 18 34  1  0  0  0  0
 19 21  2  0  0  0  0
 19 40  1  0  0  0  0
 20 22  2  0  0  0  0
 20 41  1  0  0  0  0
 21 49  1  0  0  0  0
 22 42  1  0  0  0  0
 23 24  2  0  0  0  0
 23 72  1  0  0  0  0
 24 69  1  0  0  0  0
 25 80  1  0  0  0  0
 26 81  1  0  0  0  0
 27 30  2  0  0  0  0
 27 80  1  0  0  0  0
 28 82  1  0  0  0  0
 29 31  1  0  0  0  0
 29 83  1  0  0  0  0
 30 84  1  0  0  0  0
 31 85  1  0  0  0  0
 32 63  2  0  0  0  0
 33 64  1  0  0  0  0
 33 67  1  0  0  0  0
 34 68  1  0  0  0  0
 34 74  2  0  0  0  0
 35 50  1  0  0  0  0
 35 70  1  0  0  0  0
 35 75  2  0  0  0  0
 36 60  1  0  0  0  0
 36 65  1  0  0  0  0
 36 76  2  0  0  0  0
 37 58  1  0  0  0  0
 37 72  1  0  0  0  0
 37 77  2  0  0  0  0
 38 61  1  0  0  0  0
 38 71  1  0  0  0  0
 38 78  2  0  0  0  0
 39 66  1  0  0  0  0
 39 69  1  0  0  0  0
 39 79  2  0  0  0  0
 40 43  1  0  0  0  0
 41 50  1  0  0  0  0
 42 65  1  0  0  0  0
 43 45  1  0  0  0  0
 44 46  1  0  0  0  0
 44 47  1  0  0  0  0
 45 49  1  0  0  0  0
 46 51  1  0  0  0  0
 47 66  1  0  0  0  0
 48 51  1  0  0  0  0
 48 66  1  0  0  0  0
 49 70  1  0  0  0  0
 50 65  1  0  0  0  0
 51 64  1  0  0  0  0
 52 61  1  0  0  0  0
 53 62  1  0  0  0  0
 54 62  1  0  0  0  0
 55 62  1  0  0  0  0
 56 72  1  0  0  0  0
 57 73  1  0  0  0  0
 58 59  1  0  0  0  0
 59 81  1  0  0  0  0
 60 62  1  0  0  0  0
 60 71  1  0  0  0  0
 61 73  1  0  0  0  0
 63 64  1  0  0  0  0
M  CHG  1  73   1
M  ISO  4  39 100  59 101  69 100  81 101
M  END
> <Batch ID>
0011

> <Smiles>
CNC(C)C(=O)NC(C(=O)N1Cc2cc([101O:1][101CH2:1]CC(=O)N(C)c3cc(F)c(Cl)cc3[100NH:0][100C:0](=O)N3CCCC(n4nc(-c5ccc(Oc6ccc(F)cc6F)cc5)c(C(N)=O)c4N)C3)ccc2CC1C(=O)NC1CCCc2ccccc21)C(C)(C)C

> <Shape>
0.213

> <Color>
0.068

> <Negative vol penalty>
0.000

$$$$

  -OEChem-04052315443D

 83 91  0     1  0  0  0  0  0999 V2000
  -23.0384  -29.9052   30.3607 C   0  0  0  0  0  0  0  0  0  0  0  0
  -22.4340  -28.9480   29.5521 C   0  0  0  0  0  0  0  0  0  0  0  0
  -23.3328  -16.1569   22.0670 C   0  0  0  0  0  0  0  0  0  0  0  0
  -22.4669  -15.6433   19.8708 C   0  0  0  0  0  0  0  0  0  0  0  0
  -23.7416  -30.9612   29.7825 C   0  0  0  0  0  0  0  0  0  0  0  0
  -22.5317  -29.0467   28.1646 C   0  0  0  0  0  0  0  0  0  0  0  0
  -25.4670  -23.7472   24.2671 C   0  0  0  0  0  0  0  0  0  0  0  0
  -22.3504  -17.1343   22.2258 C   0  0  0  0  0  0  0  0  0  0  0  0
  -21.4844  -16.6207   20.0296 C   0  0  0  0  0  0  0  0  0  0  0  0
  -25.8229  -22.6875   23.4326 C   0  0  0  0  0  0  0  0  0  0  0  0
  -20.2919  -20.0127   23.0630 C   0  0  0  0  0  0  0  0  0  0  0  0
  -20.6813  -21.2476   23.5815 C   0  0  0  0  0  0  0  0  0  0  0  0
  -25.4985  -24.0929   21.4916 C   0  0  0  0  0  0  0  0  0  0  0  0
  -30.4033  -17.6683   19.9130 C   0  0  0  0  0  0  0  0  0  0  0  0
  -29.0705  -18.9275   22.0155 C   0  0  0  0  0  0  0  0  0  0  0  0
  -22.1983  -21.5485   21.7253 C   0  0  0  0  0  0  0  0  0  0  0  0
  -23.3910  -15.4115   20.8895 C   0  0  0  0  0  0  0  0  0  0  0  0
  -24.3175  -13.0421   21.0773 C   0  0  0  0  0  0  0  0  0  0  0  0
  -23.8561  -31.0676   28.3874 C   0  0  0  0  0  0  0  0  0  0  0  0
  -25.1400  -24.9898   23.7170 C   0  0  0  0  0  0  0  0  0  0  0  0
  -23.2360  -30.1059   27.5671 C   0  0  0  0  0  0  0  0  0  0  0  0
  -25.1533  -25.1616   22.3231 C   0  0  0  0  0  0  0  0  0  0  0  0
  -30.2462  -17.0103   21.1328 C   0  0  0  0  0  0  0  0  0  0  0  0
  -21.4262  -17.3662   21.2071 C   0  0  0  0  0  0  0  0  0  0  0  0
  -25.8384  -22.8598   22.0483 C   0  0  0  0  0  0  0  0  0  0  0  0
  -20.8556  -19.5456   21.8757 C   0  0  0  0  0  0  0  0  0  0  0  0
  -29.2277  -19.5856   20.7957 C   0  0  0  0  0  0  0  0  0  0  0  0
  -21.6345  -22.0156   22.9126 C   0  0  0  0  0  0  0  0  0  0  0  0
  -29.8941  -18.9560   19.7444 C   0  0  0  0  0  0  0  0  0  0  0  0
  -29.5798  -17.6399   22.1840 C   0  0  0  0  0  0  0  0  0  0  0  0
  -21.8088  -20.3135   21.2068 C   0  0  0  0  0  0  0  0  0  0  0  0
  -24.4060  -14.4021   20.7246 C   0  0  0  0  0  0  0  0  0  0  0  0
  -25.5344  -12.5148   20.7199 C   0  0  0  0  0  0  0  0  0  0  0  0
  -23.2324  -12.3199   21.6745 C   0  0  0  0  0  0  0  0  0  0  0  0
  -24.1060  -28.5431   24.3339 C   0  0  0  0  0  0  0  0  0  0  0  0
  -26.1747  -28.5974   22.0694 C   0  0  0  0  0  0  0  0  0  0  0  0
  -28.7860  -28.2668   19.8994 C   0  0  0  0  0  0  0  0  0  0  0  0
  -30.8740  -14.7844   20.2148 C   0  0  0  0  0  0  0  0  0  0  0  0
  -24.5864  -32.2528   27.8073 C   0  0  0  0  0  0  0  0  0  0  0  0
  -24.6910  -26.1418   24.5744 C   0  0  0  0  0  0  0  0  0  0  0  0
  -24.7606  -26.5060   21.7741 C   0  0  0  0  0  0  0  0  0  0  0  0
  -24.9599  -32.0784   26.3375 C   0  0  0  0  0  0  0  0  0  0  0  0
  -29.1164  -13.1107   17.6163 C   0  0  0  0  0  0  0  0  0  0  0  0
  -23.7715  -31.5439   25.5445 C   0  0  0  0  0  0  0  0  0  0  0  0
  -27.6865  -13.1307   18.1554 C   0  0  0  0  0  0  0  0  0  0  0  0
  -29.8568  -14.4161   17.9091 C   0  0  0  0  0  0  0  0  0  0  0  0
  -28.4140  -14.8267   19.8774 C   0  0  0  0  0  0  0  0  0  0  0  0
  -23.3405  -30.1650   26.0586 C   0  0  1  0  0  0  0  0  0  0  0  0
  -25.1520  -27.5089   24.0381 C   0  0  1  0  0  0  0  0  0  0  0  0
  -27.6642  -13.5052   19.6478 C   0  0  1  0  0  0  0  0  0  0  0  0
  -30.2894  -29.6122   18.4070 C   0  0  0  0  0  0  0  0  0  0  0  0
  -23.9138  -28.8650   20.0394 C   0  0  0  0  0  0  0  0  0  0  0  0
  -25.6398  -29.3163   18.2828 C   0  0  0  0  0  0  0  0  0  0  0  0
  -25.3976  -30.8701   20.2192 C   0  0  0  0  0  0  0  0  0  0  0  0
  -31.4319  -15.3422   22.5713 C   0  0  0  0  0  0  0  0  0  0  0  0
  -31.2033  -27.4362   21.3913 C   0  0  0  0  0  0  0  0  0  0  0  0
  -26.8174  -22.1502   20.0000 C   0  0  0  0  0  0  0  0  0  1  0  0
  -27.7554  -21.0256   19.6063 C   0  0  0  0  0  0  0  0  0  0  0  0
  -26.4227  -28.5877   20.5822 C   0  0  1  0  0  0  0  0  0  0  0  0
  -30.1059  -29.0088   19.7908 C   0  0  2  0  0  0  0  0  0  0  0  0
  -25.3444  -29.3859   19.7963 C   0  0  0  0  0  0  0  0  0  0  0  0
  -25.5858  -14.7191   20.1847 N   0  0  0  0  0  0  0  0  0  0  0  0
  -26.2500  -13.5508   20.1956 N   0  0  0  0  0  0  0  0  0  0  0  0
  -25.3669  -27.5753   22.5826 N   0  0  0  0  0  0  0  0  0  0  0  0
  -29.7738  -14.7531   19.3373 N   0  0  0  0  0  0  0  0  0  0  0  0
  -26.0514  -11.2708   20.8061 N   0  0  0  0  0  0  0  0  0  0  0  0
  -22.0537  -13.0150   21.9775 N   0  0  0  0  0  0  0  0  0  0  0  0
  -24.2400  -29.1406   25.5726 N   0  0  0  0  0  0  0  0  0  0  0  0
  -27.7842  -29.0760   20.3922 N   0  0  0  0  0  0  0  0  0  0  0  0
  -30.7742  -15.6772   21.3036 N   0  0  0  0  0  0  0  0  0  0  0  0
  -31.2437  -28.0832   20.0545 N   0  3  0  0  0  0  0  0  0  0  0  0
  -23.3118  -11.0980   21.9469 O   0  0  0  0  0  0  0  0  0  0  0  0
  -23.2411  -28.7835   23.4997 O   0  0  0  0  0  0  0  0  0  0  0  0
  -26.6775  -29.4890   22.7589 O   0  0  0  0  0  0  0  0  0  0  0  0
  -28.6557  -27.0884   19.5756 O   0  0  0  0  0  0  0  0  0  0  0  0
  -31.8581  -14.0527   20.0533 O   0  0  0  0  0  0  0  0  0  0  0  0
  -20.4673  -18.3197   21.3618 O   0  0  0  0  0  0  0  0  0  0  0  0
  -26.1912  -21.8223   21.2397 O   0  0  0  0  0  0  0  0  0  1  0  0
  -28.7259  -20.8498   20.6313 O   0  0  0  0  0  0  0  0  0  0  0  0
  -22.0073  -23.2021   23.4098 F   0  0  0  0  0  0  0  0  0  0  0  0
  -30.0477  -19.5833   18.5704 F   0  0  0  0  0  0  0  0  0  0  0  0
  -29.4236  -17.0168   23.3610 F   0  0  0  0  0  0  0  0  0  0  0  0
  -22.3531  -19.8706   20.0652 F   0  0  0  0  0  0  0  0  0  0  0  0
  1  2  1  0  0  0  0
  1  5  2  0  0  0  0
  2  6  2  0  0  0  0
  3  8  2  0  0  0  0
  3 17  1  0  0  0  0
  4  9  1  0  0  0  0
  4 17  2  0  0  0  0
  5 19  1  0  0  0  0
  6 21  1  0  0  0  0
  7 10  2  0  0  0  0
  7 20  1  0  0  0  0
  8 24  1  0  0  0  0
  9 24  2  0  0  0  0
 10 25  1  0  0  0  0
 11 12  2  0  0  0  0
 11 26  1  0  0  0  0
 12 28  1  0  0  0  0
 13 22  1  0  0  0  0
 13 25  2  0  0  0  0
 14 23  2  0  0  0  0
 14 29  1  0  0  0  0
 15 27  1  0  0  0  0
 15 30  2  0  0  0  0
 16 28  2  0  0  0  0
 16 31  1  0  0  0  0
 17 32  1  0  0  0  0
 18 32  1  0  0  0  0
 18 33  2  0  0  0  0
 18 34  1  0  0  0  0
 19 21  2  0  0  0  0
 19 39  1  0  0  0  0
 20 22  2  0  0  0  0
 20 40  1  0  0  0  0
 21 48  1  0  0  0  0
 22 41  1  0  0  0  0
 23 30  1  0  0  0  0
 23 70  1  0  0  0  0
 24 77  1  0  0  0  0
 25 78  1  0  0  0  0
 26 31  2  0  0  0  0
 26 77  1  0  0  0  0
 27 29  2  0  0  0  0
 27 79  1  0  0  0  0
 28 80  1  0  0  0  0
 29 81  1  0  0  0  0
 30 82  1  0  0  0  0
 31 83  1  0  0  0  0
 32 62  2  0  0  0  0
 33 63  1  0  0  0  0
 33 66  1  0  0  0  0
 34 67  1  0  0  0  0
 34 72  2  0  0  0  0
 35 49  1  0  0  0  0
 35 68  1  0  0  0  0
 35 73  2  0  0  0  0
 36 59  1  0  0  0  0
 36 64  1  0  0  0  0
 36 74  2  0  0  0  0
 37 60  1  0  0  0  0
 37 69  1  0  0  0  0
 37 75  2  0  0  0  0
 38 65  1  0  0  0  0
 38 70  1  0  0  0  0
 38 76  2  0  0  0  0
 39 42  1  0  0  0  0
 40 49  1  0  0  0  0
 41 64  1  0  0  0  0
 42 44  1  0  0  0  0
 43 45  1  0  0  0  0
 43 46  1  0  0  0  0
 44 48  1  0  0  0  0
 45 50  1  0  0  0  0
 46 65  1  0  0  0  0
 47 50  1  0  0  0  0
 47 65  1  0  0  0  0
 48 68  1  0  0  0  0
 49 64  1  0  0  0  0
 50 63  1  0  0  0  0
 51 60  1  0  0  0  0
 52 61  1  0  0  0  0
 53 61  1  0  0  0  0
 54 61  1  0  0  0  0
 55 70  1  0  0  0  0
 56 71  1  0  0  0  0
 57 58  1  0  0  0  0
 57 78  1  0  0  0  0
 58 79  1  0  0  0  0
 59 61  1  0  0  0  0
 59 69  1  0  0  0  0
 60 71  1  0  0  0  0
 62 63  1  0  0  0  0
M  CHG  1  71   1
M  ISO  4  38 100  57 101  70 100  78 101
M  END
> <Batch ID>
0011

> <Smiles>
CNC(C)C(=O)NC(C(=O)N1Cc2cc([101O:1][101CH2:1]COc3cc(F)c([100N:0](C)[100C:0](=O)N4CCCC(n5nc(-c6ccc(Oc7ccc(F)cc7F)cc6)c(C(N)=O)c5N)C4)cc3F)ccc2CC1C(=O)NC1CCCc2ccccc21)C(C)(C)C

> <Shape>
0.220

> <Color>
0.116

> <Negative vol penalty>
0.000

$$$$

  -OEChem-04052315443D

 83 91  0     1  0  0  0  0  0999 V2000
  -33.9493  -35.0727   22.1615 C   0  0  0  0  0  0  0  0  0  0  0  0
  -33.9438  -33.6827   22.2187 C   0  0  0  0  0  0  0  0  0  0  0  0
  -23.0679   -9.8872   19.9310 C   0  0  0  0  0  0  0  0  0  0  0  0
  -23.8477   -9.8589   22.2176 C   0  0  0  0  0  0  0  0  0  0  0  0
  -32.8817  -35.7953   22.6926 C   0  0  0  0  0  0  0  0  0  0  0  0
  -32.8713  -33.0145   22.8082 C   0  0  0  0  0  0  0  0  0  0  0  0
  -30.5203  -27.6171   21.1210 C   0  0  0  0  0  0  0  0  0  0  0  0
  -22.3260   -8.7305   20.1698 C   0  0  0  0  0  0  0  0  0  0  0  0
  -23.1057   -8.7021   22.4563 C   0  0  0  0  0  0  0  0  0  0  0  0
  -30.7004  -26.3226   21.6064 C   0  0  0  0  0  0  0  0  0  0  0  0
  -19.8827   -7.8957   23.0746 C   0  0  0  0  0  0  0  0  0  0  0  0
  -19.1359   -7.8379   24.2512 C   0  0  0  0  0  0  0  0  0  0  0  0
  -28.7157  -26.5594   22.9569 C   0  0  0  0  0  0  0  0  0  0  0  0
  -29.7073  -19.2530   22.4512 C   0  0  0  0  0  0  0  0  0  0  0  0
  -31.1511  -17.7024   20.6363 C   0  0  0  0  0  0  0  0  0  0  0  0
  -20.3831   -5.8892   24.9471 C   0  0  0  0  0  0  0  0  0  0  0  0
  -23.8289  -10.4514   20.9549 C   0  0  0  0  0  0  0  0  0  0  0  0
  -24.1704  -12.9780   20.8707 C   0  0  0  0  0  0  0  0  0  0  0  0
  -31.7910  -35.1353   23.2803 C   0  0  0  0  0  0  0  0  0  0  0  0
  -29.4408  -28.3977   21.5589 C   0  0  0  0  0  0  0  0  0  0  0  0
  -31.7888  -33.7290   23.3489 C   0  0  0  0  0  0  0  0  0  0  0  0
  -28.5226  -27.8626   22.4736 C   0  0  0  0  0  0  0  0  0  0  0  0
  -30.6000  -19.8619   21.5692 C   0  0  0  0  0  0  0  0  0  0  0  0
  -30.2584  -17.0936   21.5184 C   0  0  0  0  0  0  0  0  0  0  0  0
  -22.3448   -8.1379   21.4324 C   0  0  0  0  0  0  0  0  0  0  0  0
  -29.7997  -25.7946   22.5267 C   0  0  0  0  0  0  0  0  0  0  0  0
  -20.8796   -6.9502   22.8341 C   0  0  0  0  0  0  0  0  0  0  0  0
  -19.3862   -6.8347   25.1875 C   0  0  0  0  0  0  0  0  0  0  0  0
  -31.3219  -19.0866   20.6617 C   0  0  0  0  0  0  0  0  0  0  0  0
  -29.5366  -17.8689   22.4259 C   0  0  0  0  0  0  0  0  0  0  0  0
  -21.1299   -5.9470   23.7703 C   0  0  0  0  0  0  0  0  0  0  0  0
  -24.5961  -11.6460   20.7088 C   0  0  0  0  0  0  0  0  0  0  0  0
  -25.2596  -13.7328   20.5095 C   0  0  0  0  0  0  0  0  0  0  0  0
  -22.9038  -13.4876   21.3085 C   0  0  0  0  0  0  0  0  0  0  0  0
  -29.1515  -31.1510   23.1207 C   0  0  0  0  0  0  0  0  0  0  0  0
  -25.9994  -30.7369   22.4769 C   0  0  0  0  0  0  0  0  0  0  0  0
  -30.1375  -22.1803   22.4322 C   0  0  0  0  0  0  0  0  0  0  0  0
  -23.4486  -28.5893   21.7502 C   0  0  0  0  0  0  0  0  0  0  0  0
  -30.7274  -14.7748   20.6526 C   0  0  0  0  0  0  0  0  0  0  0  0
  -30.6821  -35.9608   23.8833 C   0  0  0  0  0  0  0  0  0  0  0  0
  -29.2455  -29.7826   21.0054 C   0  0  0  0  0  0  0  0  0  0  0  0
  -27.3359  -28.6522   22.9600 C   0  0  0  0  0  0  0  0  0  0  0  0
  -29.4087  -35.1642   24.1554 C   0  0  0  0  0  0  0  0  0  0  0  0
  -29.5917  -12.3977   18.2574 C   0  0  0  0  0  0  0  0  0  0  0  0
  -29.7414  -33.8452   24.8457 C   0  0  0  0  0  0  0  0  0  0  0  0
  -28.1558  -12.0998   18.6950 C   0  0  0  0  0  0  0  0  0  0  0  0
  -30.5173  -12.6079   19.4544 C   0  0  0  0  0  0  0  0  0  0  0  0
  -28.6226  -13.3114   20.8632 C   0  0  0  0  0  0  0  0  0  0  0  0
  -30.6318  -32.9672   23.9582 C   0  0  1  0  0  0  0  0  0  0  0  0
  -28.4003  -30.6740   21.9101 C   0  0  1  0  0  0  0  0  0  0  0  0
  -27.6396  -13.1564   19.6913 C   0  0  2  0  0  0  0  0  0  0  0  0
  -20.9772  -28.5408   21.3170 C   0  0  0  0  0  0  0  0  0  0  0  0
  -25.4718  -31.0891   25.4615 C   0  0  0  0  0  0  0  0  0  0  0  0
  -23.1972  -30.1056   25.1045 C   0  0  0  0  0  0  0  0  0  0  0  0
  -23.8254  -32.2359   23.9686 C   0  0  0  0  0  0  0  0  0  0  0  0
  -23.8302  -27.4993   19.0253 C   0  0  0  0  0  0  0  0  0  0  0  0
  -30.6074  -23.5923   22.1354 C   0  0  0  0  0  0  0  0  0  1  0  0
  -24.8449  -30.0618   23.1772 C   0  0  1  0  0  0  0  0  0  0  0  0
  -22.3605  -28.6387   20.6928 C   0  0  2  0  0  0  0  0  0  0  0  0
  -24.3581  -30.8587   24.4204 C   0  0  0  0  0  0  0  0  0  0  0  0
  -25.8572  -11.5564   20.2781 N   0  0  0  0  0  0  0  0  0  0  0  0
  -26.2333  -12.8417   20.1662 N   0  0  0  0  0  0  0  0  0  0  0  0
  -27.1917  -30.0038   22.3943 N   0  0  0  0  0  0  0  0  0  0  0  0
  -29.9663  -13.6253   20.3523 N   0  0  0  0  0  0  0  0  0  0  0  0
  -25.4697  -15.0652   20.4550 N   0  0  0  0  0  0  0  0  0  0  0  0
  -21.8945  -12.5735   21.6406 N   0  0  0  0  0  0  0  0  0  0  0  0
  -30.7716  -21.2663   21.5977 N   0  0  0  0  0  0  0  0  0  0  0  0
  -30.0874  -15.6873   21.4907 N   0  0  0  0  0  0  0  0  0  0  0  0
  -29.8440  -32.3306   22.9244 N   0  0  0  0  0  0  0  0  0  0  0  0
  -23.8180  -29.8522   22.1623 N   0  0  0  0  0  0  0  0  0  0  0  0
  -22.5224  -27.5128   19.7299 N   0  3  0  0  0  0  0  0  0  0  0  0
  -22.6684  -14.7172   21.3867 O   0  0  0  0  0  0  0  0  0  0  0  0
  -29.1052  -30.4981   24.1567 O   0  0  0  0  0  0  0  0  0  0  0  0
  -25.8467  -31.8699   22.0138 O   0  0  0  0  0  0  0  0  0  0  0  0
  -29.3071  -21.9497   23.3050 O   0  0  0  0  0  0  0  0  0  0  0  0
  -23.9207  -27.5356   22.1714 O   0  0  0  0  0  0  0  0  0  0  0  0
  -31.8524  -14.9505   20.1779 O   0  0  0  0  0  0  0  0  0  0  0  0
  -21.6207   -7.0093   21.6657 O   0  0  0  0  0  0  0  0  0  0  0  0
  -29.9735  -24.5316   23.0026 O   0  0  0  0  0  0  0  0  0  1  0  0
  -18.6700   -6.7802   26.3182 F   0  0  0  0  0  0  0  0  0  0  0  0
  -32.1821  -19.6612   19.8088 F   0  0  0  0  0  0  0  0  0  0  0  0
  -28.6754  -17.2945   23.2781 F   0  0  0  0  0  0  0  0  0  0  0  0
  -22.0871   -5.0365   23.5454 F   0  0  0  0  0  0  0  0  0  0  0  0
  1  2  1  0  0  0  0
  1  5  2  0  0  0  0
  2  6  2  0  0  0  0
  3  8  2  0  0  0  0
  3 17  1  0  0  0  0
  4  9  1  0  0  0  0
  4 17  2  0  0  0  0
  5 19  1  0  0  0  0
  6 21  1  0  0  0  0
  7 10  2  0  0  0  0
  7 20  1  0  0  0  0
  8 25  1  0  0  0  0
  9 25  2  0  0  0  0
 10 26  1  0  0  0  0
 11 12  2  0  0  0  0
 11 27  1  0  0  0  0
 12 28  1  0  0  0  0
 13 22  1  0  0  0  0
 13 26  2  0  0  0  0
 14 23  1  0  0  0  0
 14 30  2  0  0  0  0
 15 24  2  0  0  0  0
 15 29  1  0  0  0  0
 16 28  2  0  0  0  0
 16 31  1  0  0  0  0
 17 32  1  0  0  0  0
 18 32  1  0  0  0  0
 18 33  2  0  0  0  0
 18 34  1  0  0  0  0
 19 21  2  0  0  0  0
 19 40  1  0  0  0  0
 20 22  2  0  0  0  0
 20 41  1  0  0  0  0
 21 49  1  0  0  0  0
 22 42  1  0  0  0  0
 23 29  2  0  0  0  0
 23 67  1  0  0  0  0
 24 30  1  0  0  0  0
 24 68  1  0  0  0  0
 25 78  1  0  0  0  0
 26 79  1  0  0  0  0
 27 31  2  0  0  0  0
 27 78  1  0  0  0  0
 28 80  1  0  0  0  0
 29 81  1  0  0  0  0
 30 82  1  0  0  0  0
 31 83  1  0  0  0  0
 32 61  2  0  0  0  0
 33 62  1  0  0  0  0
 33 65  1  0  0  0  0
 34 66  1  0  0  0  0
 34 72  2  0  0  0  0
 35 50  1  0  0  0  0
 35 69  1  0  0  0  0
 35 73  2  0  0  0  0
 36 58  1  0  0  0  0
 36 63  1  0  0  0  0
 36 74  2  0  0  0  0
 37 57  1  0  0  0  0
 37 67  1  0  0  0  0
 37 75  2  0  0  0  0
 38 59  1  0  0  0  0
 38 70  1  0  0  0  0
 38 76  2  0  0  0  0
 39 64  1  0  0  0  0
 39 68  1  0  0  0  0
 39 77  2  0  0  0  0
 40 43  1  0  0  0  0
 41 50  1  0  0  0  0
 42 63  1  0  0  0  0
 43 45  1  0  0  0  0
 44 46  1  0  0  0  0
 44 47  1  0  0  0  0
 45 49  1  0  0  0  0
 46 51  1  0  0  0  0
 47 64  1  0  0  0  0
 48 51  1  0  0  0  0
 48 64  1  0  0  0  0
 49 69  1  0  0  0  0
 50 63  1  0  0  0  0
 51 62  1  0  0  0  0
 52 59  1  0  0  0  0
 53 60  1  0  0  0  0
 54 60  1  0  0  0  0
 55 60  1  0  0  0  0
 56 71  1  0  0  0  0
 57 79  1  0  0  0  0
 58 60  1  0  0  0  0
 58 70  1  0  0  0  0
 59 71  1  0  0  0  0
 61 62  1  0  0  0  0
M  CHG  1  71   1
M  ISO  4  39 100  57 101  68 100  79 101
M  END
> <Batch ID>
0011

> <Smiles>
CNC(C)C(=O)NC(C(=O)N1Cc2cc([101O:1][101CH2:1]C(=O)Nc3cc(F)c([100NH:0][100C:0](=O)N4CCCC(n5nc(-c6ccc(Oc7ccc(F)cc7F)cc6)c(C(N)=O)c5N)C4)cc3F)ccc2CC1C(=O)NC1CCCc2ccccc21)C(C)(C)C

> <Shape>
0.292

> <Color>
0.192

> <Negative vol penalty>
0.000

$$$$

  -OEChem-04052315443D

 85 93  0     1  0  0  0  0  0999 V2000
  -22.9157  -23.7795   18.4399 C   0  0  0  0  0  0  0  0  0  0  0  0
  -23.8776  -22.7840   18.3110 C   0  0  0  0  0  0  0  0  0  0  0  0
  -23.8089  -29.2704   19.5315 C   0  0  0  0  0  0  0  0  0  0  0  0
  -23.9539  -27.2813   20.8951 C   0  0  0  0  0  0  0  0  0  0  0  0
  -21.8628  -23.6139   19.3372 C   0  0  0  0  0  0  0  0  0  0  0  0
  -23.7805  -21.6176   19.0705 C   0  0  0  0  0  0  0  0  0  0  0  0
  -26.9894  -18.0253   18.0697 C   0  0  0  0  0  0  0  0  0  0  0  0
  -22.4176  -29.1713   19.5348 C   0  0  0  0  0  0  0  0  0  0  0  0
  -22.5626  -27.1822   20.8984 C   0  0  0  0  0  0  0  0  0  0  0  0
  -28.3404  -18.1065   18.4045 C   0  0  0  0  0  0  0  0  0  0  0  0
  -19.0349  -26.6102   21.5668 C   0  0  0  0  0  0  0  0  0  0  0  0
  -18.4064  -26.3358   22.7814 C   0  0  0  0  0  0  0  0  0  0  0  0
  -27.9635  -16.6143   20.2621 C   0  0  0  0  0  0  0  0  0  0  0  0
  -29.8444  -22.5604   23.3280 C   0  0  0  0  0  0  0  0  0  0  0  0
  -30.8726  -21.3197   21.5280 C   0  0  0  0  0  0  0  0  0  0  0  0
  -19.3362  -28.3588   23.7196 C   0  0  0  0  0  0  0  0  0  0  0  0
  -24.5771  -28.3254   20.2116 C   0  0  0  0  0  0  0  0  0  0  0  0
  -26.7923  -29.4961   20.6914 C   0  0  0  0  0  0  0  0  0  0  0  0
  -21.7603  -22.4500   20.1168 C   0  0  0  0  0  0  0  0  0  0  0  0
  -26.1118  -17.2453   18.8363 C   0  0  0  0  0  0  0  0  0  0  0  0
  -22.7122  -21.4213   19.9642 C   0  0  0  0  0  0  0  0  0  0  0  0
  -26.6024  -16.5228   19.9334 C   0  0  0  0  0  0  0  0  0  0  0  0
  -30.3316  -22.5066   22.0222 C   0  0  0  0  0  0  0  0  0  0  0  0
  -29.8982  -21.4273   24.1398 C   0  0  0  0  0  0  0  0  0  0  0  0
  -30.9264  -20.1865   22.3398 C   0  0  0  0  0  0  0  0  0  0  0  0
  -21.7944  -28.1272   20.2183 C   0  0  0  0  0  0  0  0  0  0  0  0
  -28.8271  -17.4033   19.5026 C   0  0  0  0  0  0  0  0  0  0  0  0
  -19.8141  -27.7589   21.4286 C   0  0  0  0  0  0  0  0  0  0  0  0
  -18.5571  -27.2101   23.8578 C   0  0  0  0  0  0  0  0  0  0  0  0
  -19.9647  -28.6332   22.5050 C   0  0  0  0  0  0  0  0  0  0  0  0
  -30.4392  -20.2404   23.6457 C   0  0  0  0  0  0  0  0  0  0  0  0
  -26.0144  -28.4269   20.2082 C   0  0  0  0  0  0  0  0  0  0  0  0
  -28.0896  -29.1092   20.4595 C   0  0  0  0  0  0  0  0  0  0  0  0
  -26.3791  -30.7288   21.2960 C   0  0  0  0  0  0  0  0  0  0  0  0
  -23.5265  -17.8419   20.5867 C   0  0  0  0  0  0  0  0  0  0  0  0
  -23.4103  -14.6080   20.8124 C   0  0  0  0  0  0  0  0  0  0  0  0
  -25.0777  -11.6331   20.6842 C   0  0  0  0  0  0  0  0  0  0  0  0
  -30.7164  -23.7736   19.8791 C   0  0  0  0  0  0  0  0  0  0  0  0
  -20.5959  -22.3194   21.0667 C   0  0  0  0  0  0  0  0  0  0  0  0
  -24.6625  -17.1469   18.4461 C   0  0  0  0  0  0  0  0  0  0  0  0
  -25.7055  -15.6551   20.7766 C   0  0  0  0  0  0  0  0  0  0  0  0
  -20.8200  -21.2590   22.1398 C   0  0  0  0  0  0  0  0  0  0  0  0
  -30.7229  -26.4207   17.4979 C   0  0  0  0  0  0  0  0  0  0  0  0
  -21.2912  -19.9622   21.4987 C   0  0  0  0  0  0  0  0  0  0  0  0
  -29.5910  -27.3360   17.9701 C   0  0  0  0  0  0  0  0  0  0  0  0
  -30.3870  -24.9460   17.7130 C   0  0  0  0  0  0  0  0  0  0  0  0
  -28.8476  -25.5103   19.5517 C   0  0  0  0  0  0  0  0  0  0  0  0
  -22.6439  -20.1574   20.8022 C   0  0  1  0  0  0  0  0  0  0  0  0
  -23.7592  -16.7304   19.6028 C   0  0  1  0  0  0  0  0  0  0  0  0
  -29.1668  -27.0080   19.4151 C   0  0  2  0  0  0  0  0  0  0  0  0
  -24.7224   -9.1629   20.9472 C   0  0  0  0  0  0  0  0  0  0  0  0
  -23.3034  -14.9484   23.8427 C   0  0  0  0  0  0  0  0  0  0  0  0
  -23.9044  -12.5283   24.0659 C   0  0  0  0  0  0  0  0  0  0  0  0
  -21.7792  -13.1848   22.9366 C   0  0  0  0  0  0  0  0  0  0  0  0
  -28.8411  -22.7142   25.9801 C   0  0  0  0  0  0  0  0  0  0  0  0
  -29.4422  -20.3102   26.3088 C   0  0  0  0  0  0  0  0  0  0  0  0
  -31.5290  -17.8042   22.6886 C   0  0  0  0  0  0  0  0  0  0  0  0
  -25.9169  -11.0983   17.8970 C   0  0  0  0  0  0  0  0  0  0  0  0
  -31.9706  -18.9052   20.4883 C   0  0  0  0  0  0  0  0  0  0  0  0
  -30.8231  -18.6961   19.5143 C   0  0  0  0  0  0  0  0  0  1  0  0
  -23.9817  -13.5813   21.7602 C   0  0  1  0  0  0  0  0  0  0  0  0
  -24.7599  -10.3301   19.9731 C   0  0  2  0  0  0  0  0  0  0  0  0
  -23.2590  -13.5785   23.1368 C   0  0  0  0  0  0  0  0  0  0  0  0
  -26.7556  -27.4353   19.7069 N   0  0  0  0  0  0  0  0  0  0  0  0
  -28.0128  -27.8798   19.8739 N   0  0  0  0  0  0  0  0  0  0  0  0
  -24.2951  -15.5964   20.3585 N   0  0  0  0  0  0  0  0  0  0  0  0
  -29.9983  -24.7096   19.1050 N   0  0  0  0  0  0  0  0  0  0  0  0
  -29.2770  -29.7041   20.7014 N   0  0  0  0  0  0  0  0  0  0  0  0
  -26.2268  -30.7718   22.6886 N   0  0  0  0  0  0  0  0  0  0  0  0
  -30.2767  -23.6574   21.1973 N   0  0  0  0  0  0  0  0  0  0  0  0
  -22.9548  -18.9720   20.0340 N   0  0  0  0  0  0  0  0  0  0  0  0
  -23.9322  -12.3042   21.0567 N   0  0  0  0  0  0  0  0  0  0  0  0
  -29.4047  -21.4845   25.4601 N   0  0  0  0  0  0  0  0  0  0  0  0
  -31.4704  -18.9955   21.8409 N   0  0  3  0  0  0  0  0  0  0  0  0
  -25.7891  -10.0426   18.9344 N   0  3  0  0  0  0  0  0  0  0  0  0
  -26.1359  -31.7569   20.6198 O   0  0  0  0  0  0  0  0  0  0  0  0
  -23.8409  -17.6852   21.7607 O   0  0  0  0  0  0  0  0  0  0  0  0
  -22.2245  -14.5316   20.4813 O   0  0  0  0  0  0  0  0  0  0  0  0
  -26.2271  -12.0154   20.8920 O   0  0  0  0  0  0  0  0  0  0  0  0
  -31.6697  -23.1430   19.4150 O   0  0  0  0  0  0  0  0  0  0  0  0
  -20.4368  -28.0304   20.2219 O   0  0  0  0  0  0  0  0  0  0  0  0
  -30.1451  -17.4814   19.8320 O   0  0  0  0  0  0  0  0  0  1  0  0
  -17.9522  -26.9472   25.0237 F   0  0  0  0  0  0  0  0  0  0  0  0
  -20.7111  -29.7389   22.3779 F   0  0  0  0  0  0  0  0  0  0  0  0
  -30.4914  -19.1507   24.4269 F   0  0  0  0  0  0  0  0  0  0  0  0
  1  2  1  0  0  0  0
  1  5  2  0  0  0  0
  2  6  2  0  0  0  0
  3  8  2  0  0  0  0
  3 17  1  0  0  0  0
  4  9  1  0  0  0  0
  4 17  2  0  0  0  0
  5 19  1  0  0  0  0
  6 21  1  0  0  0  0
  7 10  2  0  0  0  0
  7 20  1  0  0  0  0
  8 26  1  0  0  0  0
  9 26  2  0  0  0  0
 10 27  1  0  0  0  0
 11 12  2  0  0  0  0
 11 28  1  0  0  0  0
 12 29  1  0  0  0  0
 13 22  1  0  0  0  0
 13 27  2  0  0  0  0
 14 23  1  0  0  0  0
 14 24  2  0  0  0  0
 15 23  2  0  0  0  0
 15 25  1  0  0  0  0
 16 29  2  0  0  0  0
 16 30  1  0  0  0  0
 17 32  1  0  0  0  0
 18 32  1  0  0  0  0
 18 33  2  0  0  0  0
 18 34  1  0  0  0  0
 19 21  2  0  0  0  0
 19 39  1  0  0  0  0
 20 22  2  0  0  0  0
 20 40  1  0  0  0  0
 21 48  1  0  0  0  0
 22 41  1  0  0  0  0
 23 70  1  0  0  0  0
 24 31  1  0  0  0  0
 24 73  1  0  0  0  0
 25 31  2  0  0  0  0
 25 74  1  0  0  0  0
 26 81  1  0  0  0  0
 27 82  1  0  0  0  0
 28 30  2  0  0  0  0
 28 81  1  0  0  0  0
 29 83  1  0  0  0  0
 30 84  1  0  0  0  0
 31 85  1  0  0  0  0
 32 64  2  0  0  0  0
 33 65  1  0  0  0  0
 33 68  1  0  0  0  0
 34 69  1  0  0  0  0
 34 76  2  0  0  0  0
 35 49  1  0  0  0  0
 35 71  1  0  0  0  0
 35 77  2  0  0  0  0
 36 61  1  0  0  0  0
 36 66  1  0  0  0  0
 36 78  2  0  0  0  0
 37 62  1  0  0  0  0
 37 72  1  0  0  0  0
 37 79  2  0  0  0  0
 38 67  1  0  0  0  0
 38 70  1  0  0  0  0
 38 80  2  0  0  0  0
 39 42  1  0  0  0  0
 40 49  1  0  0  0  0
 41 66  1  0  0  0  0
 42 44  1  0  0  0  0
 43 45  1  0  0  0  0
 43 46  1  0  0  0  0
 44 48  1  0  0  0  0
 45 50  1  0  0  0  0
 46 67  1  0  0  0  0
 47 50  1  0  0  0  0
 47 67  1  0  0  0  0
 48 71  1  0  0  0  0
 49 66  1  0  0  0  0
 50 65  1  0  0  0  0
 51 62  1  0  0  0  0
 52 63  1  0  0  0  0
 53 63  1  0  0  0  0
 54 63  1  0  0  0  0
 55 73  1  0  0  0  0
 56 73  1  0  0  0  0
 57 74  1  0  0  0  0
 58 75  1  0  0  0  0
 59 60  1  0  0  0  0
 59 74  1  0  0  0  0
 60 82  1  0  0  0  0
 61 63  1  0  0  0  0
 61 72  1  0  0  0  0
 62 75  1  0  0  0  0
 64 65  1  0  0  0  0
M  CHG  1  75   1
M  ISO  4  38 100  60 101  70 100  82 101
M  END
> <Batch ID>
0011

> <Smiles>
CNC(C)C(=O)NC(C(=O)N1Cc2cc([101O:1][101CH2:1]CN(C)c3cc([100NH:0][100C:0](=O)N4CCCC(n5nc(-c6ccc(Oc7ccc(F)cc7F)cc6)c(C(N)=O)c5N)C4)cc(N(C)C)c3F)ccc2CC1C(=O)NC1CCCc2ccccc21)C(C)(C)C

> <Shape>
0.232

> <Color>
0.077

> <Negative vol penalty>
0.000

$$$$

  -OEChem-04052315443D

 85 93  0     1  0  0  0  0  0999 V2000
  -23.6351  -30.8047   20.2921 C   0  0  0  0  0  0  0  0  0  0  0  0
  -23.7982  -29.4302   20.4316 C   0  0  0  0  0  0  0  0  0  0  0  0
  -22.9671   -9.8606   20.0459 C   0  0  0  0  0  0  0  0  0  0  0  0
  -23.6148  -10.0622   22.3647 C   0  0  0  0  0  0  0  0  0  0  0  0
  -24.3852  -31.6779   21.0787 C   0  0  0  0  0  0  0  0  0  0  0  0
  -24.7122  -28.9280   21.3572 C   0  0  0  0  0  0  0  0  0  0  0  0
  -24.1650  -23.8015   24.6626 C   0  0  0  0  0  0  0  0  0  0  0  0
  -22.1719   -8.7597   20.3638 C   0  0  0  0  0  0  0  0  0  0  0  0
  -22.8195   -8.9613   22.6826 C   0  0  0  0  0  0  0  0  0  0  0  0
  -24.6791  -22.5167   24.4929 C   0  0  0  0  0  0  0  0  0  0  0  0
  -23.0198   -5.5941   22.4536 C   0  0  0  0  0  0  0  0  0  0  0  0
  -23.5633   -4.6233   23.2949 C   0  0  0  0  0  0  0  0  0  0  0  0
  -26.5061  -23.0589   25.9718 C   0  0  0  0  0  0  0  0  0  0  0  0
  -31.8199  -18.4457   23.9436 C   0  0  0  0  0  0  0  0  0  0  0  0
  -32.0494  -16.5422   22.4736 C   0  0  0  0  0  0  0  0  0  0  0  0
  -29.8703  -17.5078   22.8683 C   0  0  0  0  0  0  0  0  0  0  0  0
  -21.7884   -5.0101   24.8878 C   0  0  0  0  0  0  0  0  0  0  0  0
  -23.6887  -10.5119   21.0464 C   0  0  0  0  0  0  0  0  0  0  0  0
  -24.1247  -13.0026   20.7089 C   0  0  0  0  0  0  0  0  0  0  0  0
  -25.3019  -31.1861   22.0213 C   0  0  0  0  0  0  0  0  0  0  0  0
  -24.8247  -24.7297   25.4809 C   0  0  0  0  0  0  0  0  0  0  0  0
  -25.4762  -29.7955   22.1563 C   0  0  0  0  0  0  0  0  0  0  0  0
  -25.9970  -24.3540   26.1523 C   0  0  0  0  0  0  0  0  0  0  0  0
  -32.6228  -17.4893   23.3221 C   0  0  0  0  0  0  0  0  0  0  0  0
  -30.4436  -18.4549   23.7168 C   0  0  0  0  0  0  0  0  0  0  0  0
  -30.6731  -16.5514   22.2467 C   0  0  0  0  0  0  0  0  0  0  0  0
  -22.0980   -8.3100   21.6821 C   0  0  0  0  0  0  0  0  0  0  0  0
  -25.8513  -22.1461   25.1453 C   0  0  0  0  0  0  0  0  0  0  0  0
  -21.8607   -6.2729   22.8294 C   0  0  0  0  0  0  0  0  0  0  0  0
  -22.9476   -4.3313   24.5120 C   0  0  0  0  0  0  0  0  0  0  0  0
  -21.2450   -5.9809   24.0465 C   0  0  0  0  0  0  0  0  0  0  0  0
  -24.5108  -11.6488   20.7186 C   0  0  0  0  0  0  0  0  0  0  0  0
  -25.2589  -13.6805   20.3341 C   0  0  0  0  0  0  0  0  0  0  0  0
  -22.8544  -13.5944   21.0119 C   0  0  0  0  0  0  0  0  0  0  0  0
  -26.1892  -27.5620   25.0122 C   0  0  0  0  0  0  0  0  0  0  0  0
  -26.4814  -27.5201   28.2426 C   0  0  0  0  0  0  0  0  0  0  0  0
  -28.2518  -19.5779   24.2352 C   0  0  0  0  0  0  0  0  0  0  0  0
  -26.6600  -25.6810   31.1118 C   0  0  0  0  0  0  0  0  0  0  0  0
  -30.7437  -14.5706   20.6918 C   0  0  0  0  0  0  0  0  0  0  0  0
  -26.1244  -32.1695   22.8157 C   0  0  0  0  0  0  0  0  0  0  0  0
  -24.2428  -26.1031   25.6747 C   0  0  0  0  0  0  0  0  0  0  0  0
  -26.7322  -25.3067   27.0580 C   0  0  0  0  0  0  0  0  0  0  0  0
  -26.8003  -31.5517   24.0370 C   0  0  0  0  0  0  0  0  0  0  0  0
  -29.6609  -11.9778   18.5050 C   0  0  0  0  0  0  0  0  0  0  0  0
  -27.4700  -30.2323   23.6662 C   0  0  0  0  0  0  0  0  0  0  0  0
  -28.1928  -11.7725   18.8851 C   0  0  0  0  0  0  0  0  0  0  0  0
  -30.5242  -12.2917   19.7256 C   0  0  0  0  0  0  0  0  0  0  0  0
  -28.5794  -13.2020   20.9331 C   0  0  0  0  0  0  0  0  0  0  0  0
  -26.4399  -29.2120   23.1668 C   0  0  1  0  0  0  0  0  0  0  0  0
  -25.2757  -27.1316   26.1248 C   0  0  1  0  0  0  0  0  0  0  0  0
  -27.6592  -12.9474   19.7280 C   0  0  2  0  0  0  0  0  0  0  0  0
  -26.9365  -25.9250   33.5940 C   0  0  0  0  0  0  0  0  0  0  0  0
  -29.4587  -28.0637   27.8551 C   0  0  0  0  0  0  0  0  0  0  0  0
  -29.8251  -27.3596   30.2296 C   0  0  0  0  0  0  0  0  0  0  0  0
  -28.3993  -29.3432   29.7246 C   0  0  0  0  0  0  0  0  0  0  0  0
  -24.0286  -24.4357   31.6442 C   0  0  0  0  0  0  0  0  0  0  0  0
  -27.7715  -20.7446   25.0783 C   0  0  0  0  0  0  0  0  0  1  0  0
  -27.5249  -27.0263   29.2153 C   0  0  1  0  0  0  0  0  0  0  0  0
  -25.9465  -25.8214   32.4443 C   0  0  2  0  0  0  0  0  0  0  0  0
  -34.0943  -17.4790   23.5661 C   0  0  0  0  0  0  0  0  0  0  0  0
  -28.7895  -27.9306   29.2377 C   0  0  0  0  0  0  0  0  0  0  0  0
  -25.7903  -11.4751   20.3768 N   0  0  0  0  0  0  0  0  0  0  0  0
  -26.2180  -12.7286   20.1488 N   0  0  0  0  0  0  0  0  0  0  0  0
  -26.1269  -26.6401   27.2102 N   0  0  0  0  0  0  0  0  0  0  0  0
  -29.9601  -13.4178   20.4729 N   0  0  0  0  0  0  0  0  0  0  0  0
  -25.5194  -14.9919   20.1480 N   0  0  0  0  0  0  0  0  0  0  0  0
  -21.7959  -12.7527   21.3799 N   0  0  0  0  0  0  0  0  0  0  0  0
  -29.6295  -19.4253   24.3477 N   0  0  0  0  0  0  0  0  0  0  0  0
  -30.0905  -15.5885   21.3859 N   0  0  0  0  0  0  0  0  0  0  0  0
  -25.7181  -28.6357   24.2810 N   0  0  0  0  0  0  0  0  0  0  0  0
  -26.8549  -26.9040   30.5055 N   0  0  0  0  0  0  0  0  0  0  0  0
  -25.0660  -24.6438   32.6870 N   0  3  0  0  0  0  0  0  0  0  0  0
  -22.6592  -14.8315   20.9418 O   0  0  0  0  0  0  0  0  0  0  0  0
  -27.2441  -26.9652   24.8316 O   0  0  0  0  0  0  0  0  0  0  0  0
  -25.9935  -28.6424   28.3973 O   0  0  0  0  0  0  0  0  0  0  0  0
  -27.4736  -18.9036   23.5687 O   0  0  0  0  0  0  0  0  0  0  0  0
  -27.0129  -24.5954   30.6563 O   0  0  0  0  0  0  0  0  0  0  0  0
  -31.8994  -14.6596   20.2693 O   0  0  0  0  0  0  0  0  0  0  0  0
  -21.3219   -7.2359   21.9927 O   0  0  0  0  0  0  0  0  0  0  0  0
  -26.3556  -20.8929   24.9809 O   0  0  0  0  0  0  0  0  0  1  0  0
  -23.4688   -3.3979   25.3191 F   0  0  0  0  0  0  0  0  0  0  0  0
  -20.1305   -6.6290   24.4124 F   0  0  0  0  0  0  0  0  0  0  0  0
  -34.5148  -18.4608   24.4174 F   0  0  0  0  0  0  0  0  0  0  0  0
  -34.5493  -16.3136   24.1140 F   0  0  0  0  0  0  0  0  0  0  0  0
  -34.8173  -17.6524   22.4216 F   0  0  0  0  0  0  0  0  0  0  0  0
  1  2  1  0  0  0  0
  1  5  2  0  0  0  0
  2  6  2  0  0  0  0
  3  8  2  0  0  0  0
  3 18  1  0  0  0  0
  4  9  1  0  0  0  0
  4 18  2  0  0  0  0
  5 20  1  0  0  0  0
  6 22  1  0  0  0  0
  7 10  2  0  0  0  0
  7 21  1  0  0  0  0
  8 27  1  0  0  0  0
  9 27  2  0  0  0  0
 10 28  1  0  0  0  0
 11 12  2  0  0  0  0
 11 29  1  0  0  0  0
 12 30  1  0  0  0  0
 13 23  1  0  0  0  0
 13 28  2  0  0  0  0
 14 24  1  0  0  0  0
 14 25  2  0  0  0  0
 15 24  2  0  0  0  0
 15 26  1  0  0  0  0
 16 25  1  0  0  0  0
 16 26  2  0  0  0  0
 17 30  2  0  0  0  0
 17 31  1  0  0  0  0
 18 32  1  0  0  0  0
 19 32  1  0  0  0  0
 19 33  2  0  0  0  0
 19 34  1  0  0  0  0
 20 22  2  0  0  0  0
 20 40  1  0  0  0  0
 21 23  2  0  0  0  0
 21 41  1  0  0  0  0
 22 49  1  0  0  0  0
 23 42  1  0  0  0  0
 24 60  1  0  0  0  0
 25 68  1  0  0  0  0
 26 69  1  0  0  0  0
 27 79  1  0  0  0  0
 28 80  1  0  0  0  0
 29 31  2  0  0  0  0
 29 79  1  0  0  0  0
 30 81  1  0  0  0  0
 31 82  1  0  0  0  0
 32 62  2  0  0  0  0
 33 63  1  0  0  0  0
 33 66  1  0  0  0  0
 34 67  1  0  0  0  0
 34 73  2  0  0  0  0
 35 50  1  0  0  0  0
 35 70  1  0  0  0  0
 35 74  2  0  0  0  0
 36 58  1  0  0  0  0
 36 64  1  0  0  0  0
 36 75  2  0  0  0  0
 37 57  1  0  0  0  0
 37 68  1  0  0  0  0
 37 76  2  0  0  0  0
 38 59  1  0  0  0  0
 38 71  1  0  0  0  0
 38 77  2  0  0  0  0
 39 65  1  0  0  0  0
 39 69  1  0  0  0  0
 39 78  2  0  0  0  0
 40 43  1  0  0  0  0
 41 50  1  0  0  0  0
 42 64  1  0  0  0  0
 43 45  1  0  0  0  0
 44 46  1  0  0  0  0
 44 47  1  0  0  0  0
 45 49  1  0  0  0  0
 46 51  1  0  0  0  0
 47 65  1  0  0  0  0
 48 51  1  0  0  0  0
 48 65  1  0  0  0  0
 49 70  1  0  0  0  0
 50 64  1  0  0  0  0
 51 63  1  0  0  0  0
 52 59  1  0  0  0  0
 53 61  1  0  0  0  0
 54 61  1  0  0  0  0
 55 61  1  0  0  0  0
 56 72  1  0  0  0  0
 57 80  1  0  0  0  0
 58 61  1  0  0  0  0
 58 71  1  0  0  0  0
 59 72  1  0  0  0  0
 60 83  1  0  0  0  0
 60 84  1  0  0  0  0
 60 85  1  0  0  0  0
 62 63  1  0  0  0  0
M  CHG  1  72   1
M  ISO  4  39 100  57 101  69 100  80 101
M  END
> <Batch ID>
0011

> <Smiles>
CNC(C)C(=O)NC(C(=O)N1Cc2cc([101O:1][101CH2:1]C(=O)Nc3cc([100NH:0][100C:0](=O)N4CCCC(n5nc(-c6ccc(Oc7ccc(F)cc7F)cc6)c(C(N)=O)c5N)C4)cc(C(F)(F)F)c3)ccc2CC1C(=O)NC1CCCc2ccccc21)C(C)(C)C

> <Shape>
0.236

> <Color>
0.213

> <Negative vol penalty>
0.000

$$$$

  -OEChem-04052315443D

 85 93  0     1  0  0  0  0  0999 V2000
  -18.6929  -32.5683   20.2539 C   0  0  0  0  0  0  0  0  0  0  0  0
  -19.9598  -32.1730   19.8368 C   0  0  0  0  0  0  0  0  0  0  0  0
  -23.9826  -10.0027   22.3817 C   0  0  0  0  0  0  0  0  0  0  0  0
  -24.3940  -11.6413   24.1087 C   0  0  0  0  0  0  0  0  0  0  0  0
  -18.2669  -32.2842   21.5507 C   0  0  0  0  0  0  0  0  0  0  0  0
  -20.8020  -31.4941   20.7167 C   0  0  0  0  0  0  0  0  0  0  0  0
  -24.8202  -27.0922   19.3086 C   0  0  0  0  0  0  0  0  0  0  0  0
  -23.5317   -9.1004   23.3452 C   0  0  0  0  0  0  0  0  0  0  0  0
  -23.9431  -10.7391   25.0722 C   0  0  0  0  0  0  0  0  0  0  0  0
  -26.1978  -27.1130   19.0949 C   0  0  0  0  0  0  0  0  0  0  0  0
  -20.7157   -8.5749   25.1414 C   0  0  0  0  0  0  0  0  0  0  0  0
  -19.5433   -7.8694   24.8706 C   0  0  0  0  0  0  0  0  0  0  0  0
  -26.5574  -26.4558   21.3880 C   0  0  0  0  0  0  0  0  0  0  0  0
  -28.3811  -20.8723   19.7898 C   0  0  0  0  0  0  0  0  0  0  0  0
  -30.5123  -19.0793   19.6287 C   0  0  0  0  0  0  0  0  0  0  0  0
  -20.7573   -5.7873   25.0394 C   0  0  0  0  0  0  0  0  0  0  0  0
  -24.4138  -11.2731   22.7635 C   0  0  0  0  0  0  0  0  0  0  0  0
  -24.1110  -13.1468   21.0590 C   0  0  0  0  0  0  0  0  0  0  0  0
  -19.1006  -31.5930   22.4439 C   0  0  0  0  0  0  0  0  0  0  0  0
  -24.3003  -26.7630   20.5687 C   0  0  0  0  0  0  0  0  0  0  0  0
  -20.3873  -31.2016   22.0271 C   0  0  0  0  0  0  0  0  0  0  0  0
  -25.1728  -26.4290   21.6144 C   0  0  0  0  0  0  0  0  0  0  0  0
  -29.6933  -21.3444   19.8178 C   0  0  0  0  0  0  0  0  0  0  0  0
  -29.2000  -18.6072   19.6007 C   0  0  0  0  0  0  0  0  0  0  0  0
  -23.5120   -9.4686   24.6904 C   0  0  0  0  0  0  0  0  0  0  0  0
  -27.0667  -26.7976   20.1354 C   0  0  0  0  0  0  0  0  0  0  0  0
  -21.9089   -7.8867   25.3612 C   0  0  0  0  0  0  0  0  0  0  0  0
  -19.5641   -6.4756   24.8196 C   0  0  0  0  0  0  0  0  0  0  0  0
  -30.7589  -20.4479   19.7373 C   0  0  0  0  0  0  0  0  0  0  0  0
  -21.9297   -6.4929   25.3102 C   0  0  0  0  0  0  0  0  0  0  0  0
  -28.1344  -19.5036   19.6812 C   0  0  0  0  0  0  0  0  0  0  0  0
  -24.8802  -12.2054   21.7688 C   0  0  0  0  0  0  0  0  0  0  0  0
  -25.0140  -13.7822   20.2422 C   0  0  0  0  0  0  0  0  0  0  0  0
  -22.7058  -13.4223   21.1317 C   0  0  0  0  0  0  0  0  0  0  0  0
  -22.5387  -28.2821   22.7350 C   0  0  0  0  0  0  0  0  0  0  0  0
  -29.9731  -24.7779   18.6161 C   0  0  0  0  0  0  0  0  0  0  0  0
  -22.5614  -25.3930   24.2098 C   0  0  0  0  0  0  0  0  0  0  0  0
  -24.1058  -22.3836   24.6631 C   0  0  0  0  0  0  0  0  0  0  0  0
  -29.9532  -16.2114   19.4019 C   0  0  0  0  0  0  0  0  0  0  0  0
  -18.6144  -31.3501   23.8508 C   0  0  0  0  0  0  0  0  0  0  0  0
  -22.8111  -26.7190   20.7757 C   0  0  0  0  0  0  0  0  0  0  0  0
  -24.6647  -26.0491   22.9804 C   0  0  0  0  0  0  0  0  0  0  0  0
  -19.4249  -30.2971   24.6021 C   0  0  0  0  0  0  0  0  0  0  0  0
  -29.8289  -12.6617   19.1546 C   0  0  0  0  0  0  0  0  0  0  0  0
  -20.9192  -30.5441   24.4210 C   0  0  0  0  0  0  0  0  0  0  0  0
  -28.4671  -12.3040   19.7543 C   0  0  0  0  0  0  0  0  0  0  0  0
  -30.4815  -13.8324   19.8877 C   0  0  0  0  0  0  0  0  0  0  0  0
  -28.2822  -14.6745   20.6107 C   0  0  0  0  0  0  0  0  0  0  0  0
  -21.3204  -30.4414   22.9445 C   0  0  1  0  0  0  0  0  0  0  0  0
  -22.4066  -26.8699   22.2389 C   0  0  1  0  0  0  0  0  0  0  0  0
  -27.5568  -13.5429   19.8644 C   0  0  2  0  0  0  0  0  0  0  0  0
  -29.7963  -25.6289   17.3805 C   0  0  0  0  0  0  0  0  0  0  0  0
  -23.9092  -20.2441   25.9596 C   0  0  0  0  0  0  0  0  0  0  0  0
  -23.5794  -26.8168   26.7091 C   0  0  0  0  0  0  0  0  0  0  0  0
  -24.2555  -24.5850   27.6203 C   0  0  0  0  0  0  0  0  0  0  0  0
  -21.8539  -25.0585   27.1399 C   0  0  0  0  0  0  0  0  0  0  0  0
  -23.8609  -20.7733   22.1922 C   0  0  0  0  0  0  0  0  0  0  0  0
  -29.9557  -22.8198   19.9348 C   0  0  0  0  0  0  0  0  0  0  0  0
  -30.4072  -25.4749   19.8942 C   0  0  0  0  0  0  0  0  0  0  0  0
  -29.2012  -25.9184   20.7069 C   0  0  0  0  0  0  0  0  0  1  0  0
  -23.4581  -24.7136   25.2165 C   0  0  1  0  0  0  0  0  0  0  0  0
  -23.5663  -20.9647   24.6651 C   0  0  2  0  0  0  0  0  0  0  0  0
  -23.2966  -25.3025   26.6463 C   0  0  0  0  0  0  0  0  0  0  0  0
  -26.1724  -12.2364   21.4322 N   0  0  0  0  0  0  0  0  0  0  0  0
  -29.7400  -23.5099   18.6725 N   0  0  0  0  0  0  0  0  0  0  0  0
  -26.2221  -13.2050   20.5019 N   0  0  0  0  0  0  0  0  0  0  0  0
  -23.2007  -26.0267   23.1348 N   0  0  0  0  0  0  0  0  0  0  0  0
  -29.5626  -14.9711   19.9495 N   0  0  0  0  0  0  0  0  0  0  0  0
  -24.8845  -14.7728   19.3341 N   0  0  0  0  0  0  0  0  0  0  0  0
  -21.9240  -12.6766   22.0245 N   0  0  0  0  0  0  0  0  0  0  0  0
  -28.9849  -17.2110   19.4899 N   0  0  0  0  0  0  0  0  0  0  0  0
  -21.4096  -29.0547   22.5403 N   0  0  0  0  0  0  0  0  0  0  0  0
  -23.1701  -23.2865   25.1219 N   0  0  0  0  0  0  0  0  0  0  0  0
  -24.1417  -20.1902   23.5294 N   0  3  0  0  0  0  0  0  0  0  0  0
  -22.1569  -14.2925   20.4140 O   0  0  0  0  0  0  0  0  0  0  0  0
  -23.5867  -28.6435   23.2571 O   0  0  0  0  0  0  0  0  0  0  0  0
  -21.3385  -25.3565   24.3674 O   0  0  0  0  0  0  0  0  0  0  0  0
  -25.2448  -22.6627   24.2951 O   0  0  0  0  0  0  0  0  0  0  0  0
  -31.0545  -16.3673   18.8682 O   0  0  0  0  0  0  0  0  0  0  0  0
  -23.0718   -8.5886   25.6308 O   0  0  0  0  0  0  0  0  0  0  0  0
  -28.4117  -26.8179   19.9297 O   0  0  0  0  0  0  0  0  0  1  0  0
  -18.4379   -5.7981   24.5610 F   0  0  0  0  0  0  0  0  0  0  0  0
  -32.0232  -20.8923   19.7636 F   0  0  0  0  0  0  0  0  0  0  0  0
  -23.0728   -5.8262   25.5217 F   0  0  0  0  0  0  0  0  0  0  0  0
  -26.4942  -18.9617   19.6506 Cl  0  0  0  0  0  0  0  0  0  0  0  0
  1  2  1  0  0  0  0
  1  5  2  0  0  0  0
  2  6  2  0  0  0  0
  3  8  2  0  0  0  0
  3 17  1  0  0  0  0
  4  9  1  0  0  0  0
  4 17  2  0  0  0  0
  5 19  1  0  0  0  0
  6 21  1  0  0  0  0
  7 10  2  0  0  0  0
  7 20  1  0  0  0  0
  8 25  1  0  0  0  0
  9 25  2  0  0  0  0
 10 26  1  0  0  0  0
 11 12  2  0  0  0  0
 11 27  1  0  0  0  0
 12 28  1  0  0  0  0
 13 22  1  0  0  0  0
 13 26  2  0  0  0  0
 14 23  1  0  0  0  0
 14 31  2  0  0  0  0
 15 24  2  0  0  0  0
 15 29  1  0  0  0  0
 16 28  2  0  0  0  0
 16 30  1  0  0  0  0
 17 32  1  0  0  0  0
 18 32  1  0  0  0  0
 18 33  2  0  0  0  0
 18 34  1  0  0  0  0
 19 21  2  0  0  0  0
 19 40  1  0  0  0  0
 20 22  2  0  0  0  0
 20 41  1  0  0  0  0
 21 49  1  0  0  0  0
 22 42  1  0  0  0  0
 23 29  2  0  0  0  0
 23 58  1  0  0  0  0
 24 31  1  0  0  0  0
 24 71  1  0  0  0  0
 25 80  1  0  0  0  0
 26 81  1  0  0  0  0
 27 30  2  0  0  0  0
 27 80  1  0  0  0  0
 28 82  1  0  0  0  0
 29 83  1  0  0  0  0
 30 84  1  0  0  0  0
 31 85  1  0  0  0  0
 32 64  2  0  0  0  0
 33 66  1  0  0  0  0
 33 69  1  0  0  0  0
 34 70  1  0  0  0  0
 34 75  2  0  0  0  0
 35 50  1  0  0  0  0
 35 72  1  0  0  0  0
 35 76  2  0  0  0  0
 36 52  1  0  0  0  0
 36 59  1  0  0  0  0
 36 65  2  0  0  0  0
 37 61  1  0  0  0  0
 37 67  1  0  0  0  0
 37 77  2  0  0  0  0
 38 62  1  0  0  0  0
 38 73  1  0  0  0  0
 38 78  2  0  0  0  0
 39 68  1  0  0  0  0
 39 71  1  0  0  0  0
 39 79  2  0  0  0  0
 40 43  1  0  0  0  0
 41 50  1  0  0  0  0
 42 67  1  0  0  0  0
 43 45  1  0  0  0  0
 44 46  1  0  0  0  0
 44 47  1  0  0  0  0
 45 49  1  0  0  0  0
 46 51  1  0  0  0  0
 47 68  1  0  0  0  0
 48 51  1  0  0  0  0
 48 68  1  0  0  0  0
 49 72  1  0  0  0  0
 50 67  1  0  0  0  0
 51 66  1  0  0  0  0
 53 62  1  0  0  0  0
 54 63  1  0  0  0  0
 55 63  1  0  0  0  0
 56 63  1  0  0  0  0
 57 74  1  0  0  0  0
 58 65  1  0  0  0  0
 59 60  1  0  0  0  0
 60 81  1  0  0  0  0
 61 63  1  0  0  0  0
 61 73  1  0  0  0  0
 62 74  1  0  0  0  0
 64 66  1  0  0  0  0
M  CHG  1  74   1
M  ISO  4  39 100  60 101  71 100  81 101
M  END
> <Batch ID>
0011

> <Smiles>
CNC(C)C(=O)NC(C(=O)N1Cc2cc([101O:1][101CH2:1]C=C(C)NCc3cc(Cl)c([100NH:0][100C:0](=O)N4CCCC(n5nc(-c6ccc(Oc7ccc(F)cc7F)cc6)c(C(N)=O)c5N)C4)cc3F)ccc2CC1C(=O)NC1CCCc2ccccc21)C(C)(C)C

> <Shape>
0.244

> <Color>
0.150

> <Negative vol penalty>
0.000

$$$$

  -OEChem-04052315443D

 83 91  0     1  0  0  0  0  0999 V2000
  -28.0667  -31.6684   28.1077 C   0  0  0  0  0  0  0  0  0  0  0  0
  -28.2617  -30.7530   27.0784 C   0  0  0  0  0  0  0  0  0  0  0  0
  -24.3972   -9.0445   21.4349 C   0  0  0  0  0  0  0  0  0  0  0  0
  -23.9346  -10.8276   22.9982 C   0  0  0  0  0  0  0  0  0  0  0  0
  -26.7779  -32.0965   28.4233 C   0  0  0  0  0  0  0  0  0  0  0  0
  -27.1679  -30.2643   26.3648 C   0  0  0  0  0  0  0  0  0  0  0  0
  -27.0031  -28.8122   20.4175 C   0  0  0  0  0  0  0  0  0  0  0  0
  -23.8859   -8.1165   22.3421 C   0  0  0  0  0  0  0  0  0  0  0  0
  -23.4232   -9.8995   23.9053 C   0  0  0  0  0  0  0  0  0  0  0  0
  -27.1092  -27.5951   19.7459 C   0  0  0  0  0  0  0  0  0  0  0  0
  -22.3706   -5.3192   24.1010 C   0  0  0  0  0  0  0  0  0  0  0  0
  -21.5063   -4.3407   23.6100 C   0  0  0  0  0  0  0  0  0  0  0  0
  -24.7035  -27.4371   19.6646 C   0  0  0  0  0  0  0  0  0  0  0  0
  -29.3845  -19.2371   19.4764 C   0  0  0  0  0  0  0  0  0  0  0  0
  -26.9720  -20.4832   18.8363 C   0  0  0  0  0  0  0  0  0  0  0  0
  -19.9809   -6.0608   22.8673 C   0  0  0  0  0  0  0  0  0  0  0  0
  -24.4216  -10.4000   21.7630 C   0  0  0  0  0  0  0  0  0  0  0  0
  -24.2407  -12.0515   19.8271 C   0  0  0  0  0  0  0  0  0  0  0  0
  -25.6686  -31.6201   27.7069 C   0  0  0  0  0  0  0  0  0  0  0  0
  -25.7443  -29.3465   20.7280 C   0  0  0  0  0  0  0  0  0  0  0  0
  -25.8629  -30.6854   26.6721 C   0  0  0  0  0  0  0  0  0  0  0  0
  -24.5841  -28.6624   20.3380 C   0  0  0  0  0  0  0  0  0  0  0  0
  -28.2670  -18.4681   19.1518 C   0  0  0  0  0  0  0  0  0  0  0  0
  -28.0896  -21.2522   19.1610 C   0  0  0  0  0  0  0  0  0  0  0  0
  -23.3989   -8.5440   23.5773 C   0  0  0  0  0  0  0  0  0  0  0  0
  -25.9594  -26.9059   19.3719 C   0  0  0  0  0  0  0  0  0  0  0  0
  -22.0401   -6.6685   23.9753 C   0  0  0  0  0  0  0  0  0  0  0  0
  -20.3115   -4.7115   22.9931 C   0  0  0  0  0  0  0  0  0  0  0  0
  -29.2958  -20.6292   19.4811 C   0  0  0  0  0  0  0  0  0  0  0  0
  -20.8453   -7.0393   23.3584 C   0  0  0  0  0  0  0  0  0  0  0  0
  -27.0608  -19.0912   18.8317 C   0  0  0  0  0  0  0  0  0  0  0  0
  -24.9503  -11.3591   20.8266 C   0  0  0  0  0  0  0  0  0  0  0  0
  -25.1875  -12.8354   19.2144 C   0  0  0  0  0  0  0  0  0  0  0  0
  -22.8501  -11.9914   19.4833 C   0  0  0  0  0  0  0  0  0  0  0  0
  -24.2190  -30.0764   23.4195 C   0  0  0  0  0  0  0  0  0  0  0  0
  -22.0097  -31.2924   21.3792 C   0  0  0  0  0  0  0  0  0  0  0  0
  -26.8803  -23.4407   18.8743 C   0  0  0  0  0  0  0  0  0  0  0  0
  -20.6310  -31.2781   18.2574 C   0  0  0  0  0  0  0  0  0  0  0  0
  -29.5315  -16.3104   19.4545 C   0  0  0  0  0  0  0  0  0  0  0  0
  -24.2902  -32.0759   28.1157 C   0  0  0  0  0  0  0  0  0  0  0  0
  -25.6467  -30.6735   21.4293 C   0  0  0  0  0  0  0  0  0  0  0  0
  -23.2089  -29.2030   20.6296 C   0  0  0  0  0  0  0  0  0  0  0  0
  -23.2192  -31.7951   27.0648 C   0  0  0  0  0  0  0  0  0  0  0  0
  -30.2336  -12.8234   19.6128 C   0  0  0  0  0  0  0  0  0  0  0  0
  -23.3474  -30.3686   26.5399 C   0  0  0  0  0  0  0  0  0  0  0  0
  -28.8633  -12.1885   19.8605 C   0  0  0  0  0  0  0  0  0  0  0  0
  -30.3835  -14.1539   20.3483 C   0  0  0  0  0  0  0  0  0  0  0  0
  -27.9433  -14.4925   20.3425 C   0  0  0  0  0  0  0  0  0  0  0  0
  -24.7040  -30.1512   25.8588 C   0  0  1  0  0  0  0  0  0  0  0  0
  -24.3164  -30.8726   22.1490 C   0  0  1  0  0  0  0  0  0  0  0  0
  -27.7212  -13.1819   19.5701 C   0  0  2  0  0  0  0  0  0  0  0  0
  -18.8152  -32.3552   16.9009 C   0  0  0  0  0  0  0  0  0  0  0  0
  -19.9282  -29.5824   22.8122 C   0  0  0  0  0  0  0  0  0  0  0  0
  -18.3901  -29.9522   20.8716 C   0  0  0  0  0  0  0  0  0  0  0  0
  -19.1629  -31.8925   22.2358 C   0  0  0  0  0  0  0  0  0  0  0  0
  -22.5754  -32.3870   16.3213 C   0  0  0  0  0  0  0  0  0  0  0  0
  -27.2083  -24.9172   18.9958 C   0  0  0  0  0  0  0  0  0  1  0  0
  -20.7901  -30.7479   20.6756 C   0  0  1  0  0  0  0  0  0  0  0  0
  -20.2801  -32.4078   17.3060 C   0  0  2  0  0  0  0  0  0  0  0  0
  -19.5936  -30.5323   21.6449 C   0  0  0  0  0  0  0  0  0  0  0  0
  -26.2477  -11.6752   20.8507 N   0  0  0  0  0  0  0  0  0  0  0  0
  -26.3610  -12.5749   19.8588 N   0  0  0  0  0  0  0  0  0  0  0  0
  -23.1657  -30.5010   21.3230 N   0  0  0  0  0  0  0  0  0  0  0  0
  -29.2685  -15.0454   20.0215 N   0  0  0  0  0  0  0  0  0  0  0  0
  -25.1225  -13.7153   18.1926 N   0  0  0  0  0  0  0  0  0  0  0  0
  -22.0175  -11.1333   20.2146 N   0  0  0  0  0  0  0  0  0  0  0  0
  -27.9968  -22.6643   19.1653 N   0  0  0  0  0  0  0  0  0  0  0  0
  -28.3920  -17.0567   19.1561 N   0  0  0  0  0  0  0  0  0  0  0  0
  -24.7035  -30.7340   24.5341 N   0  0  0  0  0  0  0  0  0  0  0  0
  -20.5103  -31.6643   19.5755 N   0  0  0  0  0  0  0  0  0  0  0  0
  -21.1121  -32.3236   16.0725 N   0  3  0  0  0  0  0  0  0  0  0  0
  -22.3634  -12.6661   18.5445 O   0  0  0  0  0  0  0  0  0  0  0  0
  -23.7384  -28.9495   23.3910 O   0  0  0  0  0  0  0  0  0  0  0  0
  -21.9412  -32.3831   21.9513 O   0  0  0  0  0  0  0  0  0  0  0  0
  -25.7597  -23.0554   18.5574 O   0  0  0  0  0  0  0  0  0  0  0  0
  -20.9740  -30.1633   17.8699 O   0  0  0  0  0  0  0  0  0  0  0  0
  -30.6819  -16.6916   19.2238 O   0  0  0  0  0  0  0  0  0  0  0  0
  -22.8996   -7.6388   24.4626 O   0  0  0  0  0  0  0  0  0  0  0  0
  -26.0601  -25.7174   18.7168 O   0  0  0  0  0  0  0  0  0  1  0  0
  -19.4823   -3.7718   22.5203 F   0  0  0  0  0  0  0  0  0  0  0  0
  -30.3763  -21.3584   19.7948 F   0  0  0  0  0  0  0  0  0  0  0  0
  -20.5229   -8.3340   23.2336 F   0  0  0  0  0  0  0  0  0  0  0  0
  -25.6525  -18.1766   18.4248 Cl  0  0  0  0  0  0  0  0  0  0  0  0
  1  2  1  0  0  0  0
  1  5  2  0  0  0  0
  2  6  2  0  0  0  0
  3  8  2  0  0  0  0
  3 17  1  0  0  0  0
  4  9  1  0  0  0  0
  4 17  2  0  0  0  0
  5 19  1  0  0  0  0
  6 21  1  0  0  0  0
  7 10  2  0  0  0  0
  7 20  1  0  0  0  0
  8 25  1  0  0  0  0
  9 25  2  0  0  0  0
 10 26  1  0  0  0  0
 11 12  2  0  0  0  0
 11 27  1  0  0  0  0
 12 28  1  0  0  0  0
 13 22  1  0  0  0  0
 13 26  2  0  0  0  0
 14 23  2  0  0  0  0
 14 29  1  0  0  0  0
 15 24  1  0  0  0  0
 15 31  2  0  0  0  0
 16 28  2  0  0  0  0
 16 30  1  0  0  0  0
 17 32  1  0  0  0  0
 18 32  1  0  0  0  0
 18 33  2  0  0  0  0
 18 34  1  0  0  0  0
 19 21  2  0  0  0  0
 19 40  1  0  0  0  0
 20 22  2  0  0  0  0
 20 41  1  0  0  0  0
 21 49  1  0  0  0  0
 22 42  1  0  0  0  0
 23 31  1  0  0  0  0
 23 68  1  0  0  0  0
 24 29  2  0  0  0  0
 24 67  1  0  0  0  0
 25 78  1  0  0  0  0
 26 79  1  0  0  0  0
 27 30  2  0  0  0  0
 27 78  1  0  0  0  0
 28 80  1  0  0  0  0
 29 81  1  0  0  0  0
 30 82  1  0  0  0  0
 31 83  1  0  0  0  0
 32 61  2  0  0  0  0
 33 62  1  0  0  0  0
 33 65  1  0  0  0  0
 34 66  1  0  0  0  0
 34 72  2  0  0  0  0
 35 50  1  0  0  0  0
 35 69  1  0  0  0  0
 35 73  2  0  0  0  0
 36 58  1  0  0  0  0
 36 63  1  0  0  0  0
 36 74  2  0  0  0  0
 37 57  1  0  0  0  0
 37 67  1  0  0  0  0
 37 75  2  0  0  0  0
 38 59  1  0  0  0  0
 38 70  1  0  0  0  0
 38 76  2  0  0  0  0
 39 64  1  0  0  0  0
 39 68  1  0  0  0  0
 39 77  2  0  0  0  0
 40 43  1  0  0  0  0
 41 50  1  0  0  0  0
 42 63  1  0  0  0  0
 43 45  1  0  0  0  0
 44 46  1  0  0  0  0
 44 47  1  0  0  0  0
 45 49  1  0  0  0  0
 46 51  1  0  0  0  0
 47 64  1  0  0  0  0
 48 51  1  0  0  0  0
 48 64  1  0  0  0  0
 49 69  1  0  0  0  0
 50 63  1  0  0  0  0
 51 62  1  0  0  0  0
 52 59  1  0  0  0  0
 53 60  1  0  0  0  0
 54 60  1  0  0  0  0
 55 60  1  0  0  0  0
 56 71  1  0  0  0  0
 57 79  1  0  0  0  0
 58 60  1  0  0  0  0
 58 70  1  0  0  0  0
 59 71  1  0  0  0  0
 61 62  1  0  0  0  0
M  CHG  1  71   1
M  ISO  4  39 100  57 101  68 100  79 101
M  END
> <Batch ID>
0011

> <Smiles>
CNC(C)C(=O)NC(C(=O)N1Cc2cc([101O:1][101CH2:1]C(=O)Nc3cc(Cl)c([100NH:0][100C:0](=O)N4CCCC(n5nc(-c6ccc(Oc7ccc(F)cc7F)cc6)c(C(N)=O)c5N)C4)cc3F)ccc2CC1C(=O)NC1CCCc2ccccc21)C(C)(C)C

> <Shape>
0.284

> <Color>
0.106

> <Negative vol penalty>
0.000

$$$$

  -OEChem-04052315443D

 85 93  0     1  0  0  0  0  0999 V2000
  -23.6351  -30.8047   20.2921 C   0  0  0  0  0  0  0  0  0  0  0  0
  -23.7982  -29.4302   20.4316 C   0  0  0  0  0  0  0  0  0  0  0  0
  -22.9671   -9.8606   20.0459 C   0  0  0  0  0  0  0  0  0  0  0  0
  -23.6148  -10.0622   22.3647 C   0  0  0  0  0  0  0  0  0  0  0  0
  -24.3852  -31.6779   21.0787 C   0  0  0  0  0  0  0  0  0  0  0  0
  -24.7122  -28.9280   21.3572 C   0  0  0  0  0  0  0  0  0  0  0  0
  -24.1650  -23.8015   24.6626 C   0  0  0  0  0  0  0  0  0  0  0  0
  -22.1719   -8.7597   20.3638 C   0  0  0  0  0  0  0  0  0  0  0  0
  -22.8195   -8.9613   22.6826 C   0  0  0  0  0  0  0  0  0  0  0  0
  -24.6791  -22.5167   24.4929 C   0  0  0  0  0  0  0  0  0  0  0  0
  -23.0198   -5.5941   22.4536 C   0  0  0  0  0  0  0  0  0  0  0  0
  -23.5633   -4.6233   23.2949 C   0  0  0  0  0  0  0  0  0  0  0  0
  -26.5061  -23.0589   25.9718 C   0  0  0  0  0  0  0  0  0  0  0  0
  -31.8199  -18.4457   23.9436 C   0  0  0  0  0  0  0  0  0  0  0  0
  -32.0494  -16.5422   22.4736 C   0  0  0  0  0  0  0  0  0  0  0  0
  -29.8703  -17.5078   22.8683 C   0  0  0  0  0  0  0  0  0  0  0  0
  -21.7884   -5.0101   24.8878 C   0  0  0  0  0  0  0  0  0  0  0  0
  -23.6887  -10.5119   21.0464 C   0  0  0  0  0  0  0  0  0  0  0  0
  -24.1247  -13.0026   20.7089 C   0  0  0  0  0  0  0  0  0  0  0  0
  -25.3019  -31.1861   22.0213 C   0  0  0  0  0  0  0  0  0  0  0  0
  -24.8247  -24.7297   25.4809 C   0  0  0  0  0  0  0  0  0  0  0  0
  -25.4762  -29.7955   22.1563 C   0  0  0  0  0  0  0  0  0  0  0  0
  -25.9970  -24.3540   26.1523 C   0  0  0  0  0  0  0  0  0  0  0  0
  -32.6228  -17.4893   23.3221 C   0  0  0  0  0  0  0  0  0  0  0  0
  -30.4436  -18.4549   23.7168 C   0  0  0  0  0  0  0  0  0  0  0  0
  -30.6731  -16.5514   22.2467 C   0  0  0  0  0  0  0  0  0  0  0  0
  -22.0980   -8.3100   21.6821 C   0  0  0  0  0  0  0  0  0  0  0  0
  -25.8513  -22.1461   25.1453 C   0  0  0  0  0  0  0  0  0  0  0  0
  -21.8607   -6.2729   22.8294 C   0  0  0  0  0  0  0  0  0  0  0  0
  -22.9476   -4.3313   24.5120 C   0  0  0  0  0  0  0  0  0  0  0  0
  -21.2450   -5.9809   24.0465 C   0  0  0  0  0  0  0  0  0  0  0  0
  -24.5108  -11.6488   20.7186 C   0  0  0  0  0  0  0  0  0  0  0  0
  -25.2589  -13.6805   20.3341 C   0  0  0  0  0  0  0  0  0  0  0  0
  -22.8544  -13.5944   21.0119 C   0  0  0  0  0  0  0  0  0  0  0  0
  -26.1892  -27.5620   25.0122 C   0  0  0  0  0  0  0  0  0  0  0  0
  -26.4814  -27.5201   28.2426 C   0  0  0  0  0  0  0  0  0  0  0  0
  -28.2518  -19.5779   24.2352 C   0  0  0  0  0  0  0  0  0  0  0  0
  -26.6600  -25.6810   31.1118 C   0  0  0  0  0  0  0  0  0  0  0  0
  -30.7437  -14.5706   20.6918 C   0  0  0  0  0  0  0  0  0  0  0  0
  -26.1244  -32.1695   22.8157 C   0  0  0  0  0  0  0  0  0  0  0  0
  -24.2428  -26.1031   25.6747 C   0  0  0  0  0  0  0  0  0  0  0  0
  -26.7322  -25.3067   27.0580 C   0  0  0  0  0  0  0  0  0  0  0  0
  -26.8003  -31.5517   24.0370 C   0  0  0  0  0  0  0  0  0  0  0  0
  -29.6609  -11.9778   18.5050 C   0  0  0  0  0  0  0  0  0  0  0  0
  -27.4700  -30.2323   23.6662 C   0  0  0  0  0  0  0  0  0  0  0  0
  -28.1928  -11.7725   18.8851 C   0  0  0  0  0  0  0  0  0  0  0  0
  -30.5242  -12.2917   19.7256 C   0  0  0  0  0  0  0  0  0  0  0  0
  -28.5794  -13.2020   20.9331 C   0  0  0  0  0  0  0  0  0  0  0  0
  -26.4399  -29.2120   23.1668 C   0  0  1  0  0  0  0  0  0  0  0  0
  -25.2757  -27.1316   26.1248 C   0  0  1  0  0  0  0  0  0  0  0  0
  -27.6592  -12.9474   19.7280 C   0  0  2  0  0  0  0  0  0  0  0  0
  -26.9365  -25.9250   33.5940 C   0  0  0  0  0  0  0  0  0  0  0  0
  -29.4587  -28.0637   27.8551 C   0  0  0  0  0  0  0  0  0  0  0  0
  -29.8251  -27.3596   30.2296 C   0  0  0  0  0  0  0  0  0  0  0  0
  -28.3993  -29.3432   29.7246 C   0  0  0  0  0  0  0  0  0  0  0  0
  -24.0286  -24.4357   31.6442 C   0  0  0  0  0  0  0  0  0  0  0  0
  -27.7715  -20.7446   25.0783 C   0  0  0  0  0  0  0  0  0  1  0  0
  -27.5249  -27.0263   29.2153 C   0  0  1  0  0  0  0  0  0  0  0  0
  -25.9465  -25.8214   32.4443 C   0  0  2  0  0  0  0  0  0  0  0  0
  -34.0943  -17.4790   23.5661 C   0  0  0  0  0  0  0  0  0  0  0  0
  -28.7895  -27.9306   29.2377 C   0  0  0  0  0  0  0  0  0  0  0  0
  -25.7903  -11.4751   20.3768 N   0  0  0  0  0  0  0  0  0  0  0  0
  -26.2180  -12.7286   20.1488 N   0  0  0  0  0  0  0  0  0  0  0  0
  -26.1269  -26.6401   27.2102 N   0  0  0  0  0  0  0  0  0  0  0  0
  -29.9601  -13.4178   20.4729 N   0  0  0  0  0  0  0  0  0  0  0  0
  -25.5194  -14.9919   20.1480 N   0  0  0  0  0  0  0  0  0  0  0  0
  -21.7959  -12.7527   21.3799 N   0  0  0  0  0  0  0  0  0  0  0  0
  -29.6295  -19.4253   24.3477 N   0  0  0  0  0  0  0  0  0  0  0  0
  -30.0905  -15.5885   21.3859 N   0  0  0  0  0  0  0  0  0  0  0  0
  -25.7181  -28.6357   24.2810 N   0  0  0  0  0  0  0  0  0  0  0  0
  -26.8549  -26.9040   30.5055 N   0  0  0  0  0  0  0  0  0  0  0  0
  -25.0660  -24.6438   32.6870 N   0  3  0  0  0  0  0  0  0  0  0  0
  -22.6592  -14.8315   20.9418 O   0  0  0  0  0  0  0  0  0  0  0  0
  -27.2441  -26.9652   24.8316 O   0  0  0  0  0  0  0  0  0  0  0  0
  -25.9935  -28.6424   28.3973 O   0  0  0  0  0  0  0  0  0  0  0  0
  -27.4736  -18.9036   23.5687 O   0  0  0  0  0  0  0  0  0  0  0  0
  -27.0129  -24.5954   30.6563 O   0  0  0  0  0  0  0  0  0  0  0  0
  -31.8994  -14.6596   20.2693 O   0  0  0  0  0  0  0  0  0  0  0  0
  -21.3219   -7.2359   21.9927 O   0  0  0  0  0  0  0  0  0  0  0  0
  -26.3556  -20.8929   24.9809 O   0  0  0  0  0  0  0  0  0  1  0  0
  -23.4688   -3.3979   25.3191 F   0  0  0  0  0  0  0  0  0  0  0  0
  -20.1305   -6.6290   24.4124 F   0  0  0  0  0  0  0  0  0  0  0  0
  -34.5148  -18.4608   24.4174 F   0  0  0  0  0  0  0  0  0  0  0  0
  -34.5493  -16.3136   24.1140 F   0  0  0  0  0  0  0  0  0  0  0  0
  -34.8173  -17.6524   22.4216 F   0  0  0  0  0  0  0  0  0  0  0  0
  1  2  1  0  0  0  0
  1  5  2  0  0  0  0
  2  6  2  0  0  0  0
  3  8  2  0  0  0  0
  3 18  1  0  0  0  0
  4  9  1  0  0  0  0
  4 18  2  0  0  0  0
  5 20  1  0  0  0  0
  6 22  1  0  0  0  0
  7 10  2  0  0  0  0
  7 21  1  0  0  0  0
  8 27  1  0  0  0  0
  9 27  2  0  0  0  0
 10 28  1  0  0  0  0
 11 12  2  0  0  0  0
 11 29  1  0  0  0  0
 12 30  1  0  0  0  0
 13 23  1  0  0  0  0
 13 28  2  0  0  0  0
 14 24  1  0  0  0  0
 14 25  2  0  0  0  0
 15 24  2  0  0  0  0
 15 26  1  0  0  0  0
 16 25  1  0  0  0  0
 16 26  2  0  0  0  0
 17 30  2  0  0  0  0
 17 31  1  0  0  0  0
 18 32  1  0  0  0  0
 19 32  1  0  0  0  0
 19 33  2  0  0  0  0
 19 34  1  0  0  0  0
 20 22  2  0  0  0  0
 20 40  1  0  0  0  0
 21 23  2  0  0  0  0
 21 41  1  0  0  0  0
 22 49  1  0  0  0  0
 23 42  1  0  0  0  0
 24 60  1  0  0  0  0
 25 68  1  0  0  0  0
 26 69  1  0  0  0  0
 27 79  1  0  0  0  0
 28 80  1  0  0  0  0
 29 31  2  0  0  0  0
 29 79  1  0  0  0  0
 30 81  1  0  0  0  0
 31 82  1  0  0  0  0
 32 62  2  0  0  0  0
 33 63  1  0  0  0  0
 33 66  1  0  0  0  0
 34 67  1  0  0  0  0
 34 73  2  0  0  0  0
 35 50  1  0  0  0  0
 35 70  1  0  0  0  0
 35 74  2  0  0  0  0
 36 58  1  0  0  0  0
 36 64  1  0  0  0  0
 36 75  2  0  0  0  0
 37 57  1  0  0  0  0
 37 68  1  0  0  0  0
 37 76  2  0  0  0  0
 38 59  1  0  0  0  0
 38 71  1  0  0  0  0
 38 77  2  0  0  0  0
 39 65  1  0  0  0  0
 39 69  1  0  0  0  0
 39 78  2  0  0  0  0
 40 43  1  0  0  0  0
 41 50  1  0  0  0  0
 42 64  1  0  0  0  0
 43 45  1  0  0  0  0
 44 46  1  0  0  0  0
 44 47  1  0  0  0  0
 45 49  1  0  0  0  0
 46 51  1  0  0  0  0
 47 65  1  0  0  0  0
 48 51  1  0  0  0  0
 48 65  1  0  0  0  0
 49 70  1  0  0  0  0
 50 64  1  0  0  0  0
 51 63  1  0  0  0  0
 52 59  1  0  0  0  0
 53 61  1  0  0  0  0
 54 61  1  0  0  0  0
 55 61  1  0  0  0  0
 56 72  1  0  0  0  0
 57 80  1  0  0  0  0
 58 61  1  0  0  0  0
 58 71  1  0  0  0  0
 59 72  1  0  0  0  0
 60 83  1  0  0  0  0
 60 84  1  0  0  0  0
 60 85  1  0  0  0  0
 62 63  1  0  0  0  0
M  CHG  1  72   1
M  ISO  4  39 100  57 101  69 100  80 101
M  END
> <Batch ID>
0011

> <Smiles>
CNC(C)C(=O)NC(C(=O)N1Cc2cc([101O:1][101CH2:1]C(=O)Nc3cc([100NH:0][100C:0](=O)N4CCCC(n5nc(-c6ccc(Oc7ccc(F)cc7F)cc6)c(C(N)=O)c5N)C4)cc(C(F)(F)F)c3)ccc2CC1C(=O)NC1CCCc2ccccc21)C(C)(C)C

> <Shape>
0.236

> <Color>
0.213

> <Negative vol penalty>
0.000

$$$$

  -OEChem-04052315443D

 82 90  0     1  0  0  0  0  0999 V2000
  -16.7190  -31.2412   22.4940 C   0  0  0  0  0  0  0  0  0  0  0  0
  -17.8243  -31.5048   21.6913 C   0  0  0  0  0  0  0  0  0  0  0  0
  -25.8216  -15.3277   21.5408 C   0  0  0  0  0  0  0  0  0  0  0  0
  -25.2071  -16.7639   19.6978 C   0  0  0  0  0  0  0  0  0  0  0  0
  -16.8760  -30.5298   23.6828 C   0  0  0  0  0  0  0  0  0  0  0  0
  -19.0875  -31.0580   22.0776 C   0  0  0  0  0  0  0  0  0  0  0  0
  -25.2590  -28.6935   19.3141 C   0  0  0  0  0  0  0  0  0  0  0  0
  -30.6611  -24.6372   16.7094 C   0  0  0  0  0  0  0  0  0  0  0  0
  -30.7478  -25.9362   17.2100 C   0  0  0  0  0  0  0  0  0  0  0  0
  -24.5234  -14.8188   21.5771 C   0  0  0  0  0  0  0  0  0  0  0  0
  -23.9088  -16.2550   19.7341 C   0  0  0  0  0  0  0  0  0  0  0  0
  -26.6300  -28.9403   19.3726 C   0  0  0  0  0  0  0  0  0  0  0  0
  -22.6804  -12.5696   19.8516 C   0  0  0  0  0  0  0  0  0  0  0  0
  -22.5288  -11.1880   19.9683 C   0  0  0  0  0  0  0  0  0  0  0  0
  -26.7689  -27.6523   21.4075 C   0  0  0  0  0  0  0  0  0  0  0  0
  -30.7702  -25.0662   19.4638 C   0  0  0  0  0  0  0  0  0  0  0  0
  -21.3153  -11.4957   22.0347 C   0  0  0  0  0  0  0  0  0  0  0  0
  -26.1634  -16.3003   20.6012 C   0  0  0  0  0  0  0  0  0  0  0  0
  -28.5905  -16.3333   19.8165 C   0  0  0  0  0  0  0  0  0  0  0  0
  -18.1402  -30.0658   24.0790 C   0  0  0  0  0  0  0  0  0  0  0  0
  -24.6298  -27.9321   20.3094 C   0  0  0  0  0  0  0  0  0  0  0  0
  -19.2617  -30.3409   23.2735 C   0  0  0  0  0  0  0  0  0  0  0  0
  -25.3903  -27.3951   21.3580 C   0  0  0  0  0  0  0  0  0  0  0  0
  -30.6288  -23.5527   17.5860 C   0  0  0  0  0  0  0  0  0  0  0  0
  -30.8024  -26.1507   18.5872 C   0  0  0  0  0  0  0  0  0  0  0  0
  -30.6834  -23.7671   18.9632 C   0  0  0  0  0  0  0  0  0  0  0  0
  -23.5670  -15.2824   20.6738 C   0  0  0  0  0  0  0  0  0  0  0  0
  -27.3846  -28.4221   20.4210 C   0  0  0  0  0  0  0  0  0  0  0  0
  -22.1495  -13.4144   20.8265 C   0  0  0  0  0  0  0  0  0  0  0  0
  -21.8462  -10.6510   21.0599 C   0  0  0  0  0  0  0  0  0  0  0  0
  -21.4669  -12.8774   21.9180 C   0  0  0  0  0  0  0  0  0  0  0  0
  -27.5041  -16.8268   20.5635 C   0  0  0  0  0  0  0  0  0  0  0  0
  -29.6304  -17.1759   20.1252 C   0  0  0  0  0  0  0  0  0  0  0  0
  -28.6540  -15.2136   18.9233 C   0  0  0  0  0  0  0  0  0  0  0  0
  -22.3531  -28.4892   22.4565 C   0  0  0  0  0  0  0  0  0  0  0  0
  -22.6504  -25.3090   23.0223 C   0  0  0  0  0  0  0  0  0  0  0  0
  -24.5962  -22.5093   22.8731 C   0  0  0  0  0  0  0  0  0  0  0  0
  -30.6984  -22.7371   21.2621 C   0  0  0  0  0  0  0  0  0  0  0  0
  -18.2678  -29.3420   25.3960 C   0  0  0  0  0  0  0  0  0  0  0  0
  -23.1547  -27.6525   20.2175 C   0  0  0  0  0  0  0  0  0  0  0  0
  -24.7661  -26.5544   22.4406 C   0  0  0  0  0  0  0  0  0  0  0  0
  -19.5816  -28.5794   25.5472 C   0  0  0  0  0  0  0  0  0  0  0  0
  -30.6068  -20.2886   23.8455 C   0  0  0  0  0  0  0  0  0  0  0  0
  -20.7577  -29.4530   25.1226 C   0  0  0  0  0  0  0  0  0  0  0  0
  -29.9039  -19.0972   23.1910 C   0  0  0  0  0  0  0  0  0  0  0  0
  -30.0223  -21.6197   23.3762 C   0  0  0  0  0  0  0  0  0  0  0  0
  -29.2634  -20.6025   21.2647 C   0  0  0  0  0  0  0  0  0  0  0  0
  -20.6443  -29.8515   23.6462 C   0  0  1  0  0  0  0  0  0  0  0  0
  -22.5294  -27.2947   21.5622 C   0  0  1  0  0  0  0  0  0  0  0  0
  -29.8607  -19.2413   21.6571 C   0  0  2  0  0  0  0  0  0  0  0  0
  -30.5355  -22.1723   17.0215 C   0  0  0  0  0  0  0  0  0  0  0  0
  -24.5794  -20.0659   23.4449 C   0  0  0  0  0  0  0  0  0  0  0  0
  -23.0557  -25.9979   25.9669 C   0  0  0  0  0  0  0  0  0  0  0  0
  -23.9600  -23.6887   26.3108 C   0  0  0  0  0  0  0  0  0  0  0  0
  -21.6046  -24.0037   25.5522 C   0  0  0  0  0  0  0  0  0  0  0  0
  -30.9233  -28.5947   18.1716 C   0  0  0  0  0  0  0  0  0  0  0  0
  -24.9725  -21.7258   20.0440 C   0  0  0  0  0  0  0  0  0  0  0  0
  -30.9341  -27.7136   20.5108 C   0  0  0  0  0  0  0  0  0  0  0  0
  -29.5343  -27.6649   21.1001 C   0  0  0  0  0  0  0  0  0  1  0  0
  -23.4976  -24.4610   23.9400 C   0  0  1  0  0  0  0  0  0  0  0  0
  -24.3061  -21.1066   22.3702 C   0  0  2  0  0  0  0  0  0  0  0  0
  -23.0412  -24.5552   25.4233 C   0  0  0  0  0  0  0  0  0  0  0  0
  -27.8242  -17.8995   21.2921 N   0  0  0  0  0  0  0  0  0  0  0  0
  -29.1235  -18.0870   21.0044 N   0  0  0  0  0  0  0  0  0  0  0  0
  -23.3194  -26.3144   22.3100 N   0  0  0  0  0  0  0  0  0  0  0  0
  -30.0174  -21.6868   21.9133 N   0  0  0  0  0  0  0  0  0  0  0  0
  -30.9198  -17.2187   19.7277 N   0  0  0  0  0  0  0  0  0  0  0  0
  -27.4935  -14.4546   18.7198 N   0  0  0  0  0  0  0  0  0  0  0  0
  -30.6519  -22.6785   19.8696 N   0  0  0  0  0  0  0  0  0  0  0  0
  -21.0388  -28.7504   22.7938 N   0  0  0  0  0  0  0  0  0  0  0  0
  -23.4680  -23.1099   23.3903 N   0  0  0  0  0  0  0  0  0  0  0  0
  -30.8895  -27.4559   19.0897 N   0  0  3  0  0  0  0  0  0  0  0  0
  -25.1563  -20.7944   21.1867 N   0  3  0  0  0  0  0  0  0  0  0  0
  -29.7128  -14.8856   18.3361 O   0  0  0  0  0  0  0  0  0  0  0  0
  -23.3368  -29.1259   22.8152 O   0  0  0  0  0  0  0  0  0  0  0  0
  -21.4409  -25.0829   22.9351 O   0  0  0  0  0  0  0  0  0  0  0  0
  -25.7129  -23.0195   22.8163 O   0  0  0  0  0  0  0  0  0  0  0  0
  -31.3029  -23.6080   21.8930 O   0  0  0  0  0  0  0  0  0  0  0  0
  -22.3002  -14.7859   20.7088 O   0  0  0  0  0  0  0  0  0  0  0  0
  -28.7228  -28.6620   20.4808 O   0  0  0  0  0  0  0  0  0  1  0  0
  -21.6993   -9.3243   21.1710 F   0  0  0  0  0  0  0  0  0  0  0  0
  -20.9537  -13.6840   22.8571 F   0  0  0  0  0  0  0  0  0  0  0  0
  1  2  1  0  0  0  0
  1  5  2  0  0  0  0
  2  6  2  0  0  0  0
  3 10  2  0  0  0  0
  3 18  1  0  0  0  0
  4 11  1  0  0  0  0
  4 18  2  0  0  0  0
  5 20  1  0  0  0  0
  6 22  1  0  0  0  0
  7 12  2  0  0  0  0
  7 21  1  0  0  0  0
  8  9  2  0  0  0  0
  8 24  1  0  0  0  0
  9 25  1  0  0  0  0
 10 27  1  0  0  0  0
 11 27  2  0  0  0  0
 12 28  1  0  0  0  0
 13 14  2  0  0  0  0
 13 29  1  0  0  0  0
 14 30  1  0  0  0  0
 15 23  1  0  0  0  0
 15 28  2  0  0  0  0
 16 25  2  0  0  0  0
 16 26  1  0  0  0  0
 17 30  2  0  0  0  0
 17 31  1  0  0  0  0
 18 32  1  0  0  0  0
 19 32  1  0  0  0  0
 19 33  2  0  0  0  0
 19 34  1  0  0  0  0
 20 22  2  0  0  0  0
 20 39  1  0  0  0  0
 21 23  2  0  0  0  0
 21 40  1  0  0  0  0
 22 48  1  0  0  0  0
 23 41  1  0  0  0  0
 24 26  2  0  0  0  0
 24 51  1  0  0  0  0
 25 72  1  0  0  0  0
 26 69  1  0  0  0  0
 27 79  1  0  0  0  0
 28 80  1  0  0  0  0
 29 31  2  0  0  0  0
 29 79  1  0  0  0  0
 30 81  1  0  0  0  0
 31 82  1  0  0  0  0
 32 63  2  0  0  0  0
 33 64  1  0  0  0  0
 33 67  1  0  0  0  0
 34 68  1  0  0  0  0
 34 74  2  0  0  0  0
 35 49  1  0  0  0  0
 35 70  1  0  0  0  0
 35 75  2  0  0  0  0
 36 60  1  0  0  0  0
 36 65  1  0  0  0  0
 36 76  2  0  0  0  0
 37 61  1  0  0  0  0
 37 71  1  0  0  0  0
 37 77  2  0  0  0  0
 38 66  1  0  0  0  0
 38 69  1  0  0  0  0
 38 78  2  0  0  0  0
 39 42  1  0  0  0  0
 40 49  1  0  0  0  0
 41 65  1  0  0  0  0
 42 44  1  0  0  0  0
 43 45  1  0  0  0  0
 43 46  1  0  0  0  0
 44 48  1  0  0  0  0
 45 50  1  0  0  0  0
 46 66  1  0  0  0  0
 47 50  1  0  0  0  0
 47 66  1  0  0  0  0
 48 70  1  0  0  0  0
 49 65  1  0  0  0  0
 50 64  1  0  0  0  0
 52 61  1  0  0  0  0
 53 62  1  0  0  0  0
 54 62  1  0  0  0  0
 55 62  1  0  0  0  0
 56 72  1  0  0  0  0
 57 73  1  0  0  0  0
 58 59  1  0  0  0  0
 58 72  1  0  0  0  0
 59 80  1  0  0  0  0
 60 62  1  0  0  0  0
 60 71  1  0  0  0  0
 61 73  1  0  0  0  0
 63 64  1  0  0  0  0
M  CHG  1  73   1
M  ISO  4  38 100  59 101  69 100  80 101
M  END
> <Batch ID>
0011

> <Smiles>
CNC(C)C(=O)NC(C(=O)N1Cc2cc([101O:1][101CH2:1]CN(C)c3ccc(C)c([100NH:0][100C:0](=O)N4CCCC(n5nc(-c6ccc(Oc7ccc(F)cc7F)cc6)c(C(N)=O)c5N)C4)c3)ccc2CC1C(=O)NC1CCCc2ccccc21)C(C)(C)C

> <Shape>
0.238

> <Color>
0.076

> <Negative vol penalty>
0.000

$$$$

  -OEChem-04052315443D

 86 94  0     1  0  0  0  0  0999 V2000
  -36.2918  -23.8020   18.5408 C   0  0  0  0  0  0  0  0  0  0  0  0
  -35.0798  -23.6216   19.1995 C   0  0  0  0  0  0  0  0  0  0  0  0
  -22.9992   -9.8965   19.9785 C   0  0  0  0  0  0  0  0  0  0  0  0
  -23.7282   -9.9391   22.2815 C   0  0  0  0  0  0  0  0  0  0  0  0
  -36.8015  -25.0871   18.3606 C   0  0  0  0  0  0  0  0  0  0  0  0
  -34.3772  -24.7264   19.6794 C   0  0  0  0  0  0  0  0  0  0  0  0
  -29.4277  -24.4841   18.6362 C   0  0  0  0  0  0  0  0  0  0  0  0
  -22.2323   -8.7616   20.2423 C   0  0  0  0  0  0  0  0  0  0  0  0
  -22.9614   -8.8043   22.5453 C   0  0  0  0  0  0  0  0  0  0  0  0
  -28.6484  -23.6499   19.4366 C   0  0  0  0  0  0  0  0  0  0  0  0
  -23.2027   -5.4668   22.0617 C   0  0  0  0  0  0  0  0  0  0  0  0
  -23.7908   -4.4466   22.8093 C   0  0  0  0  0  0  0  0  0  0  0  0
  -27.9105  -25.5653   20.7039 C   0  0  0  0  0  0  0  0  0  0  0  0
  -31.1984  -17.5984   20.5812 C   0  0  0  0  0  0  0  0  0  0  0  0
  -30.6649  -19.7995   21.4224 C   0  0  0  0  0  0  0  0  0  0  0  0
  -22.0699   -4.6850   24.4883 C   0  0  0  0  0  0  0  0  0  0  0  0
  -23.7472  -10.4852   20.9981 C   0  0  0  0  0  0  0  0  0  0  0  0
  -24.1339  -13.0011   20.8300 C   0  0  0  0  0  0  0  0  0  0  0  0
  -36.1001  -26.2089   18.8300 C   0  0  0  0  0  0  0  0  0  0  0  0
  -29.4628  -25.8662   18.8709 C   0  0  0  0  0  0  0  0  0  0  0  0
  -34.8787  -26.0277   19.5065 C   0  0  0  0  0  0  0  0  0  0  0  0
  -28.6891  -26.4151   19.9035 C   0  0  0  0  0  0  0  0  0  0  0  0
  -30.2762  -17.0372   21.4646 C   0  0  0  0  0  0  0  0  0  0  0  0
  -29.7427  -19.2383   22.3058 C   0  0  0  0  0  0  0  0  0  0  0  0
  -22.2134   -8.2155   21.5257 C   0  0  0  0  0  0  0  0  0  0  0  0
  -27.8919  -24.1901   20.4724 C   0  0  0  0  0  0  0  0  0  0  0  0
  -22.0482   -6.0961   22.5273 C   0  0  0  0  0  0  0  0  0  0  0  0
  -23.2244   -4.0557   24.0226 C   0  0  0  0  0  0  0  0  0  0  0  0
  -31.3927  -18.9795   20.5601 C   0  0  0  0  0  0  0  0  0  0  0  0
  -21.4818   -5.7052   23.7406 C   0  0  0  0  0  0  0  0  0  0  0  0
  -29.5484  -17.8572   22.3269 C   0  0  0  0  0  0  0  0  0  0  0  0
  -24.5400  -11.6572   20.7261 C   0  0  0  0  0  0  0  0  0  0  0  0
  -25.2435  -13.7242   20.4662 C   0  0  0  0  0  0  0  0  0  0  0  0
  -22.8669  -13.5471   21.2205 C   0  0  0  0  0  0  0  0  0  0  0  0
  -31.7264  -27.9482   19.6740 C   0  0  0  0  0  0  0  0  0  0  0  0
  -29.3591  -30.1137   19.1960 C   0  0  0  0  0  0  0  0  0  0  0  0
  -26.0117  -30.7680   19.0774 C   0  0  0  0  0  0  0  0  0  0  0  0
  -30.7240  -14.6809   20.6942 C   0  0  0  0  0  0  0  0  0  0  0  0
  -36.7141  -27.5751   18.6535 C   0  0  0  0  0  0  0  0  0  0  0  0
  -30.2877  -26.7556   17.9817 C   0  0  0  0  0  0  0  0  0  0  0  0
  -28.6763  -27.8949   20.1840 C   0  0  0  0  0  0  0  0  0  0  0  0
  -35.7249  -28.7190   18.8616 C   0  0  0  0  0  0  0  0  0  0  0  0
  -29.6002  -12.2366   18.3618 C   0  0  0  0  0  0  0  0  0  0  0  0
  -34.9021  -28.4898   20.1255 C   0  0  0  0  0  0  0  0  0  0  0  0
  -28.1501  -11.9786   18.7775 C   0  0  0  0  0  0  0  0  0  0  0  0
  -30.5029  -12.4753   19.5709 C   0  0  0  0  0  0  0  0  0  0  0  0
  -28.5903  -13.2610   20.9103 C   0  0  0  0  0  0  0  0  0  0  0  0
  -34.0750  -27.2029   20.0196 C   0  0  1  0  0  0  0  0  0  0  0  0
  -30.6486  -28.0856   18.6362 C   0  0  1  0  0  0  0  0  0  0  0  0
  -27.6305  -13.0793   19.7231 C   0  0  2  0  0  0  0  0  0  0  0  0
  -30.5251  -20.0851   25.0794 C   0  0  0  0  0  0  0  0  0  0  0  0
  -24.3824  -32.6390   18.7006 C   0  0  0  0  0  0  0  0  0  0  0  0
  -27.0070  -19.6423   24.4532 C   0  0  0  0  0  0  0  0  0  0  0  0
  -29.9402  -31.1801   21.9951 C   0  0  0  0  0  0  0  0  0  0  0  0
  -27.7304  -32.3553   21.9305 C   0  0  0  0  0  0  0  0  0  0  0  0
  -29.5029  -32.9438   20.2767 C   0  0  0  0  0  0  0  0  0  0  0  0
  -24.8319  -29.4211   16.7209 C   0  0  0  0  0  0  0  0  0  0  0  0
  -27.1069  -21.5444   22.8047 C   0  0  0  0  0  0  0  0  0  0  0  0
  -29.7053  -20.9063   24.1433 C   0  0  0  0  0  0  0  0  0  0  0  0
  -27.5926  -22.0414   21.4468 C   0  0  0  0  0  0  0  0  0  1  0  0
  -28.2893  -30.7364   20.0602 C   0  0  1  0  0  0  0  0  0  0  0  0
  -25.1652  -31.5057   18.0558 C   0  0  2  0  0  0  0  0  0  0  0  0
  -27.5675  -20.1170   23.1162 C   0  0  1  0  0  0  0  0  0  0  0  0
  -28.8672  -31.7758   21.0618 C   0  0  0  0  0  0  0  0  0  0  0  0
  -25.8085  -11.5312   20.3274 N   0  0  0  0  0  0  0  0  0  0  0  0
  -26.2091  -12.8053   20.1774 N   0  0  0  0  0  0  0  0  0  0  0  0
  -29.5041  -28.7223   19.2909 N   0  0  0  0  0  0  0  0  0  0  0  0
  -29.9500  -13.5338   20.4187 N   0  0  0  0  0  0  0  0  0  0  0  0
  -25.4777  -15.0501   20.3682 N   0  0  0  0  0  0  0  0  0  0  0  0
  -21.8351  -12.6624   21.5627 N   0  0  0  0  0  0  0  0  0  0  0  0
  -30.0817  -15.6338   21.4841 N   0  0  0  0  0  0  0  0  0  0  0  0
  -32.9081  -27.4188   19.1913 N   0  0  0  0  0  0  0  0  0  0  0  0
  -27.2905  -31.2792   19.1458 N   0  0  0  0  0  0  0  0  0  0  0  0
  -29.0136  -20.0635   23.1698 N   0  0  3  0  0  0  0  0  0  0  0  0
  -24.1974  -30.5719   17.4137 N   0  3  0  0  0  0  0  0  0  0  0  0
  -22.6511  -14.7824   21.2488 O   0  0  0  0  0  0  0  0  0  0  0  0
  -31.5031  -28.2980   20.8270 O   0  0  0  0  0  0  0  0  0  0  0  0
  -30.0361  -30.8342   18.4584 O   0  0  0  0  0  0  0  0  0  0  0  0
  -25.5806  -29.8342   19.7502 O   0  0  0  0  0  0  0  0  0  0  0  0
  -31.8620  -14.8206   20.2387 O   0  0  0  0  0  0  0  0  0  0  0  0
  -21.4650   -7.1082   21.7835 O   0  0  0  0  0  0  0  0  0  0  0  0
  -27.1309  -23.3781   21.2556 O   0  0  0  0  0  0  0  0  0  1  0  0
  -23.7884   -3.0750   24.7397 F   0  0  0  0  0  0  0  0  0  0  0  0
  -32.2773  -19.5184   19.7108 F   0  0  0  0  0  0  0  0  0  0  0  0
  -20.3720   -6.3053   24.1925 F   0  0  0  0  0  0  0  0  0  0  0  0
  -28.6616  -17.3179   23.1775 F   0  0  0  0  0  0  0  0  0  0  0  0
  1  2  1  0  0  0  0
  1  5  2  0  0  0  0
  2  6  2  0  0  0  0
  3  8  2  0  0  0  0
  3 17  1  0  0  0  0
  4  9  1  0  0  0  0
  4 17  2  0  0  0  0
  5 19  1  0  0  0  0
  6 21  1  0  0  0  0
  7 10  2  0  0  0  0
  7 20  1  0  0  0  0
  8 25  1  0  0  0  0
  9 25  2  0  0  0  0
 10 26  1  0  0  0  0
 11 12  2  0  0  0  0
 11 27  1  0  0  0  0
 12 28  1  0  0  0  0
 13 22  1  0  0  0  0
 13 26  2  0  0  0  0
 14 23  2  0  0  0  0
 14 29  1  0  0  0  0
 15 24  1  0  0  0  0
 15 29  2  0  0  0  0
 16 28  2  0  0  0  0
 16 30  1  0  0  0  0
 17 32  1  0  0  0  0
 18 32  1  0  0  0  0
 18 33  2  0  0  0  0
 18 34  1  0  0  0  0
 19 21  2  0  0  0  0
 19 39  1  0  0  0  0
 20 22  2  0  0  0  0
 20 40  1  0  0  0  0
 21 48  1  0  0  0  0
 22 41  1  0  0  0  0
 23 31  1  0  0  0  0
 23 71  1  0  0  0  0
 24 31  2  0  0  0  0
 24 74  1  0  0  0  0
 25 81  1  0  0  0  0
 26 82  1  0  0  0  0
 27 30  2  0  0  0  0
 27 81  1  0  0  0  0
 28 83  1  0  0  0  0
 29 84  1  0  0  0  0
 30 85  1  0  0  0  0
 31 86  1  0  0  0  0
 32 65  2  0  0  0  0
 33 66  1  0  0  0  0
 33 69  1  0  0  0  0
 34 70  1  0  0  0  0
 34 76  2  0  0  0  0
 35 49  1  0  0  0  0
 35 72  1  0  0  0  0
 35 77  2  0  0  0  0
 36 61  1  0  0  0  0
 36 67  1  0  0  0  0
 36 78  2  0  0  0  0
 37 62  1  0  0  0  0
 37 73  1  0  0  0  0
 37 79  2  0  0  0  0
 38 68  1  0  0  0  0
 38 71  1  0  0  0  0
 38 80  2  0  0  0  0
 39 42  1  0  0  0  0
 40 49  1  0  0  0  0
 41 67  1  0  0  0  0
 42 44  1  0  0  0  0
 43 45  1  0  0  0  0
 43 46  1  0  0  0  0
 44 48  1  0  0  0  0
 45 50  1  0  0  0  0
 46 68  1  0  0  0  0
 47 50  1  0  0  0  0
 47 68  1  0  0  0  0
 48 72  1  0  0  0  0
 49 67  1  0  0  0  0
 50 66  1  0  0  0  0
 51 59  1  0  0  0  0
 52 62  1  0  0  0  0
 53 63  1  0  0  0  0
 54 64  1  0  0  0  0
 55 64  1  0  0  0  0
 56 64  1  0  0  0  0
 57 75  1  0  0  0  0
 58 60  1  0  0  0  0
 58 63  1  0  0  0  0
 59 74  1  0  0  0  0
 60 82  1  0  0  0  0
 61 64  1  0  0  0  0
 61 73  1  0  0  0  0
 62 75  1  0  0  0  0
 63 74  1  0  0  0  0
 65 66  1  0  0  0  0
M  CHG  1  75   1
M  ISO  4  38 100  60 101  71 100  82 101
M  END
> <Batch ID>
0011

> <Smiles>
CCN(c1cc(F)cc([100NH:0][100C:0](=O)N2CCCC(n3nc(-c4ccc(Oc5ccc(F)cc5F)cc4)c(C(N)=O)c3N)C2)c1F)C(C)C[101CH2:1][101O:1]c1ccc2c(c1)CN(C(=O)C(NC(=O)C(C)NC)C(C)(C)C)C(C(=O)NC1CCCc3ccccc31)C2

> <Shape>
0.259

> <Color>
0.206

> <Negative vol penalty>
0.000

$$$$

  -OEChem-04052315443D

 85 93  0     1  0  0  0  0  0999 V2000
  -19.4493  -31.3598   24.9974 C   0  0  0  0  0  0  0  0  0  0  0  0
  -20.7742  -31.0065   24.7624 C   0  0  0  0  0  0  0  0  0  0  0  0
  -21.8691  -15.0384   21.5226 C   0  0  0  0  0  0  0  0  0  0  0  0
  -24.1076  -14.2699   22.0078 C   0  0  0  0  0  0  0  0  0  0  0  0
  -18.4182  -30.5625   24.5025 C   0  0  0  0  0  0  0  0  0  0  0  0
  -21.0687  -29.8549   24.0333 C   0  0  0  0  0  0  0  0  0  0  0  0
  -25.7670  -29.0304   20.1924 C   0  0  0  0  0  0  0  0  0  0  0  0
  -32.3648  -20.2571   20.9782 C   0  0  0  0  0  0  0  0  0  0  0  0
  -21.6203  -13.8647   20.8114 C   0  0  0  0  0  0  0  0  0  0  0  0
  -23.8588  -13.0960   21.2966 C   0  0  0  0  0  0  0  0  0  0  0  0
  -27.0095  -28.4176   20.3483 C   0  0  0  0  0  0  0  0  0  0  0  0
  -22.2591  -10.1643   21.8133 C   0  0  0  0  0  0  0  0  0  0  0  0
  -22.6632   -8.9606   22.3906 C   0  0  0  0  0  0  0  0  0  0  0  0
  -31.7997  -19.3088   21.8307 C   0  0  0  0  0  0  0  0  0  0  0  0
  -26.1181  -26.3840   19.4056 C   0  0  0  0  0  0  0  0  0  0  0  0
  -30.2363  -21.3901   20.8274 C   0  0  0  0  0  0  0  0  0  0  0  0
  -24.0971   -8.5323   20.4939 C   0  0  0  0  0  0  0  0  0  0  0  0
  -23.1129  -15.2411   22.1208 C   0  0  0  0  0  0  0  0  0  0  0  0
  -23.1511  -16.6796   24.2271 C   0  0  0  0  0  0  0  0  0  0  0  0
  -18.7001  -29.4058   23.7587 C   0  0  0  0  0  0  0  0  0  0  0  0
  -24.6859  -28.3200   19.6511 C   0  0  0  0  0  0  0  0  0  0  0  0
  -20.0404  -29.0406   23.5292 C   0  0  0  0  0  0  0  0  0  0  0  0
  -24.8635  -26.9908   19.2415 C   0  0  0  0  0  0  0  0  0  0  0  0
  -31.5832  -21.2979   20.4766 C   0  0  0  0  0  0  0  0  0  0  0  0
  -29.6711  -20.4417   21.6799 C   0  0  0  0  0  0  0  0  0  0  0  0
  -22.6150  -12.8934   20.6984 C   0  0  0  0  0  0  0  0  0  0  0  0
  -27.1845  -27.0933   19.9575 C   0  0  0  0  0  0  0  0  0  0  0  0
  -22.7740  -10.5520   20.5762 C   0  0  0  0  0  0  0  0  0  0  0  0
  -23.5822   -8.1446   21.7309 C   0  0  0  0  0  0  0  0  0  0  0  0
  -23.6930   -9.7360   19.9165 C   0  0  0  0  0  0  0  0  0  0  0  0
  -30.4528  -19.4010   22.1816 C   0  0  0  0  0  0  0  0  0  0  0  0
  -23.3708  -16.4537   22.8551 C   0  0  0  0  0  0  0  0  0  0  0  0
  -23.5535  -17.9771   24.4301 C   0  0  0  0  0  0  0  0  0  0  0  0
  -22.6301  -15.7957   25.2286 C   0  0  0  0  0  0  0  0  0  0  0  0
  -21.8206  -27.4440   20.7123 C   0  0  0  0  0  0  0  0  0  0  0  0
  -21.4283  -26.4325   17.6553 C   0  0  0  0  0  0  0  0  0  0  0  0
  -31.0234  -25.2598   20.6185 C   0  0  0  0  0  0  0  0  0  0  0  0
  -22.8671  -25.3969   14.7391 C   0  0  0  0  0  0  0  0  0  0  0  0
  -27.4096  -21.5476   21.5864 C   0  0  0  0  0  0  0  0  0  0  0  0
  -17.5523  -28.5499   23.2846 C   0  0  0  0  0  0  0  0  0  0  0  0
  -23.3591  -29.0037   19.4648 C   0  0  0  0  0  0  0  0  0  0  0  0
  -23.7402  -26.1907   18.6361 C   0  0  0  0  0  0  0  0  0  0  0  0
  -17.9460  -27.5486   22.2017 C   0  0  0  0  0  0  0  0  0  0  0  0
  -23.9514  -22.1736   22.1574 C   0  0  0  0  0  0  0  0  0  0  0  0
  -19.2335  -26.8262   22.5852 C   0  0  0  0  0  0  0  0  0  0  0  0
  -23.3912  -20.7995   22.5319 C   0  0  0  0  0  0  0  0  0  0  0  0
  -25.0331  -22.0716   21.0835 C   0  0  0  0  0  0  0  0  0  0  0  0
  -25.5648  -19.7641   21.7633 C   0  0  0  0  0  0  0  0  0  0  0  0
  -20.3999  -27.8124   22.7215 C   0  0  1  0  0  0  0  0  0  0  0  0
  -22.1906  -28.0268   19.3777 C   0  0  1  0  0  0  0  0  0  0  0  0
  -24.5177  -19.8097   22.8882 C   0  0  2  0  0  0  0  0  0  0  0  0
  -22.2880  -24.6025   12.4302 C   0  0  0  0  0  0  0  0  0  0  0  0
  -20.6634  -23.7047   18.7883 C   0  0  0  0  0  0  0  0  0  0  0  0
  -21.0259  -22.7340   16.5091 C   0  0  0  0  0  0  0  0  0  0  0  0
  -19.2629  -24.4635   16.8603 C   0  0  0  0  0  0  0  0  0  0  0  0
  -24.2747  -27.6739   13.4770 C   0  0  0  0  0  0  0  0  0  0  0  0
  -32.1950  -22.3239   19.5546 C   0  0  0  0  0  0  0  0  0  0  0  0
  -30.0749  -25.7888   21.6829 C   0  0  0  0  0  0  0  0  0  0  0  0
  -32.7798  -23.5210   20.3002 C   0  0  0  0  0  0  0  0  0  0  0  0
  -29.2124  -26.9407   21.1904 C   0  0  0  0  0  0  0  0  0  1  0  0
  -21.6967  -25.1462   16.9121 C   0  0  1  0  0  0  0  0  0  0  0  0
  -22.6271  -25.8053   13.2969 C   0  0  2  0  0  0  0  0  0  0  0  0
  -20.6831  -24.0263   17.2806 C   0  0  0  0  0  0  0  0  0  0  0  0
  -23.8735  -17.5220   22.2306 N   0  0  0  0  0  0  0  0  0  0  0  0
  -23.9730  -18.4318   23.2146 N   0  0  0  0  0  0  0  0  0  0  0  0
  -22.4603  -26.9015   18.4804 N   0  0  0  0  0  0  0  0  0  0  0  0
  -26.0684  -21.1196   21.4918 N   0  0  0  0  0  0  0  0  0  0  0  0
  -23.5858  -18.7620   25.5280 N   0  0  0  0  0  0  0  0  0  0  0  0
  -22.2655  -14.4968   24.8490 N   0  0  0  0  0  0  0  0  0  0  0  0
  -28.2999  -20.5638   22.0154 N   0  0  0  0  0  0  0  0  0  0  0  0
  -20.8960  -28.1919   21.4160 N   0  0  0  0  0  0  0  0  0  0  0  0
  -31.7941  -24.2114   21.1004 N   0  0  0  0  0  0  0  0  0  0  0  0
  -21.7174  -25.4906   15.4945 N   0  0  0  0  0  0  0  0  0  0  0  0
  -23.8415  -26.4617   12.7354 N   0  3  0  0  0  0  0  0  0  0  0  0
  -22.4765  -16.1527   26.4213 O   0  0  0  0  0  0  0  0  0  0  0  0
  -22.3347  -26.3928   21.0761 O   0  0  0  0  0  0  0  0  0  0  0  0
  -20.3457  -27.0040   17.5037 O   0  0  0  0  0  0  0  0  0  0  0  0
  -31.0827  -25.7186   19.4810 O   0  0  0  0  0  0  0  0  0  0  0  0
  -23.9638  -25.0279   15.1532 O   0  0  0  0  0  0  0  0  0  0  0  0
  -27.7394  -22.7092   21.3335 O   0  0  0  0  0  0  0  0  0  0  0  0
  -22.3724  -11.7478   20.0047 O   0  0  0  0  0  0  0  0  0  0  0  0
  -28.3961  -26.4925   20.1092 O   0  0  0  0  0  0  0  0  0  1  0  0
  -23.9713   -6.9894   22.2862 F   0  0  0  0  0  0  0  0  0  0  0  0
  -24.1921  -10.1037   18.7285 F   0  0  0  0  0  0  0  0  0  0  0  0
  -29.7937  -18.2049   23.2397 Cl  0  0  0  0  0  0  0  0  0  0  0  0
  1  2  1  0  0  0  0
  1  5  2  0  0  0  0
  2  6  2  0  0  0  0
  3  9  2  0  0  0  0
  3 18  1  0  0  0  0
  4 10  1  0  0  0  0
  4 18  2  0  0  0  0
  5 20  1  0  0  0  0
  6 22  1  0  0  0  0
  7 11  2  0  0  0  0
  7 21  1  0  0  0  0
  8 14  2  0  0  0  0
  8 24  1  0  0  0  0
  9 26  1  0  0  0  0
 10 26  2  0  0  0  0
 11 27  1  0  0  0  0
 12 13  2  0  0  0  0
 12 28  1  0  0  0  0
 13 29  1  0  0  0  0
 14 31  1  0  0  0  0
 15 23  1  0  0  0  0
 15 27  2  0  0  0  0
 16 24  2  0  0  0  0
 16 25  1  0  0  0  0
 17 29  2  0  0  0  0
 17 30  1  0  0  0  0
 18 32  1  0  0  0  0
 19 32  1  0  0  0  0
 19 33  2  0  0  0  0
 19 34  1  0  0  0  0
 20 22  2  0  0  0  0
 20 40  1  0  0  0  0
 21 23  2  0  0  0  0
 21 41  1  0  0  0  0
 22 49  1  0  0  0  0
 23 42  1  0  0  0  0
 24 57  1  0  0  0  0
 25 31  2  0  0  0  0
 25 70  1  0  0  0  0
 26 81  1  0  0  0  0
 27 82  1  0  0  0  0
 28 30  2  0  0  0  0
 28 81  1  0  0  0  0
 29 83  1  0  0  0  0
 30 84  1  0  0  0  0
 31 85  1  0  0  0  0
 32 64  2  0  0  0  0
 33 65  1  0  0  0  0
 33 68  1  0  0  0  0
 34 69  1  0  0  0  0
 34 75  2  0  0  0  0
 35 50  1  0  0  0  0
 35 71  1  0  0  0  0
 35 76  2  0  0  0  0
 36 61  1  0  0  0  0
 36 66  1  0  0  0  0
 36 77  2  0  0  0  0
 37 58  1  0  0  0  0
 37 72  1  0  0  0  0
 37 78  2  0  0  0  0
 38 62  1  0  0  0  0
 38 73  1  0  0  0  0
 38 79  2  0  0  0  0
 39 67  1  0  0  0  0
 39 70  1  0  0  0  0
 39 80  2  0  0  0  0
 40 43  1  0  0  0  0
 41 50  1  0  0  0  0
 42 66  1  0  0  0  0
 43 45  1  0  0  0  0
 44 46  1  0  0  0  0
 44 47  1  0  0  0  0
 45 49  1  0  0  0  0
 46 51  1  0  0  0  0
 47 67  1  0  0  0  0
 48 51  1  0  0  0  0
 48 67  1  0  0  0  0
 49 71  1  0  0  0  0
 50 66  1  0  0  0  0
 51 65  1  0  0  0  0
 52 62  1  0  0  0  0
 53 63  1  0  0  0  0
 54 63  1  0  0  0  0
 55 63  1  0  0  0  0
 56 74  1  0  0  0  0
 57 59  1  0  0  0  0
 58 60  1  0  0  0  0
 59 72  1  0  0  0  0
 60 82  1  0  0  0  0
 61 63  1  0  0  0  0
 61 73  1  0  0  0  0
 62 74  1  0  0  0  0
 64 65  1  0  0  0  0
M  CHG  1  74   1
M  ISO  4  39 100  60 101  70 100  82 101
M  END
> <Batch ID>
0011

> <Smiles>
CNC(C)C(=O)NC(C(=O)N1Cc2cc([101O:1][101CH2:1]CC(=O)NCCc3ccc(Cl)c([100NH:0][100C:0](=O)N4CCCC(n5nc(-c6ccc(Oc7ccc(F)cc7F)cc6)c(C(N)=O)c5N)C4)c3)ccc2CC1C(=O)NC1CCCc2ccccc21)C(C)(C)C

> <Shape>
0.195

> <Color>
0.077

> <Negative vol penalty>
0.000

$$$$

  -OEChem-04052315443D

 83 91  0     1  0  0  0  0  0999 V2000
  -41.0678  -26.3593   11.9789 C   0  0  0  0  0  0  0  0  0  0  0  0
  -40.6065  -25.2187   12.6282 C   0  0  0  0  0  0  0  0  0  0  0  0
  -23.0760   -9.8671   19.9410 C   0  0  0  0  0  0  0  0  0  0  0  0
  -23.8345   -9.8758   22.2349 C   0  0  0  0  0  0  0  0  0  0  0  0
  -41.3163  -27.5221   12.7070 C   0  0  0  0  0  0  0  0  0  0  0  0
  -40.3945  -25.2398   14.0063 C   0  0  0  0  0  0  0  0  0  0  0  0
  -36.0295  -22.2654   17.1055 C   0  0  0  0  0  0  0  0  0  0  0  0
  -31.8531  -18.3618   24.1984 C   0  0  0  0  0  0  0  0  0  0  0  0
  -22.3319   -8.7142   20.1914 C   0  0  0  0  0  0  0  0  0  0  0  0
  -23.0904   -8.7229   22.4853 C   0  0  0  0  0  0  0  0  0  0  0  0
  -36.0366  -21.0683   17.8202 C   0  0  0  0  0  0  0  0  0  0  0  0
  -19.8618   -7.9258   23.0864 C   0  0  0  0  0  0  0  0  0  0  0  0
  -30.4673  -18.3449   24.0406 C   0  0  0  0  0  0  0  0  0  0  0  0
  -19.1041   -7.8868   24.2569 C   0  0  0  0  0  0  0  0  0  0  0  0
  -36.3961  -22.2978   19.8643 C   0  0  0  0  0  0  0  0  0  0  0  0
  -32.0623  -16.6089   22.5490 C   0  0  0  0  0  0  0  0  0  0  0  0
  -20.3449   -5.9499   24.9956 C   0  0  0  0  0  0  0  0  0  0  0  0
  -23.8274  -10.4479   20.9627 C   0  0  0  0  0  0  0  0  0  0  0  0
  -24.1695  -12.9729   20.8410 C   0  0  0  0  0  0  0  0  0  0  0  0
  -41.0980  -27.5604   14.0932 C   0  0  0  0  0  0  0  0  0  0  0  0
  -36.2168  -23.4889   17.7646 C   0  0  0  0  0  0  0  0  0  0  0  0
  -40.6415  -26.4038   14.7538 C   0  0  0  0  0  0  0  0  0  0  0  0
  -36.3883  -23.5092   19.1561 C   0  0  0  0  0  0  0  0  0  0  0  0
  -32.6506  -17.4938   23.4525 C   0  0  0  0  0  0  0  0  0  0  0  0
  -30.6764  -16.5920   22.3912 C   0  0  0  0  0  0  0  0  0  0  0  0
  -22.3390   -8.1421   21.4635 C   0  0  0  0  0  0  0  0  0  0  0  0
  -36.2228  -21.0842   19.1994 C   0  0  0  0  0  0  0  0  0  0  0  0
  -20.8610   -6.9768   22.8705 C   0  0  0  0  0  0  0  0  0  0  0  0
  -19.3457   -6.8989   25.2115 C   0  0  0  0  0  0  0  0  0  0  0  0
  -29.8790  -17.4600   23.1371 C   0  0  0  0  0  0  0  0  0  0  0  0
  -21.1025   -5.9888   23.8251 C   0  0  0  0  0  0  0  0  0  0  0  0
  -24.5967  -11.6385   20.7046 C   0  0  0  0  0  0  0  0  0  0  0  0
  -25.2619  -13.7220   20.4778 C   0  0  0  0  0  0  0  0  0  0  0  0
  -22.8988  -13.4892   21.2587 C   0  0  0  0  0  0  0  0  0  0  0  0
  -38.3902  -25.8041   17.6216 C   0  0  0  0  0  0  0  0  0  0  0  0
  -36.3636  -27.2997   19.6657 C   0  0  0  0  0  0  0  0  0  0  0  0
  -35.1809  -18.6361   21.6630 C   0  0  0  0  0  0  0  0  0  0  0  0
  -33.8929  -27.0379   22.0054 C   0  0  0  0  0  0  0  0  0  0  0  0
  -30.7281  -14.7673   20.6550 C   0  0  0  0  0  0  0  0  0  0  0  0
  -41.4258  -28.8261   14.8450 C   0  0  0  0  0  0  0  0  0  0  0  0
  -36.1798  -24.7735   16.9829 C   0  0  0  0  0  0  0  0  0  0  0  0
  -36.5734  -24.7977   19.9136 C   0  0  0  0  0  0  0  0  0  0  0  0
  -40.8186  -28.8779   16.2446 C   0  0  0  0  0  0  0  0  0  0  0  0
  -29.6150  -12.3518   18.2879 C   0  0  0  0  0  0  0  0  0  0  0  0
  -41.0515  -27.5600   16.9766 C   0  0  0  0  0  0  0  0  0  0  0  0
  -28.1750  -12.0606   18.7169 C   0  0  0  0  0  0  0  0  0  0  0  0
  -30.5293  -12.5814   19.4900 C   0  0  0  0  0  0  0  0  0  0  0  0
  -28.6216  -13.3071   20.8695 C   0  0  0  0  0  0  0  0  0  0  0  0
  -40.3758  -26.3949   16.2436 C   0  0  1  0  0  0  0  0  0  0  0  0
  -36.8938  -25.9227   17.6878 C   0  0  1  0  0  0  0  0  0  0  0  0
  -27.6495  -13.1330   19.6912 C   0  0  2  0  0  0  0  0  0  0  0  0
  -32.4640  -28.4322   23.5258 C   0  0  0  0  0  0  0  0  0  0  0  0
  -38.7389  -27.6839   21.5419 C   0  0  0  0  0  0  0  0  0  0  0  0
  -37.1163  -28.1944   23.3789 C   0  0  0  0  0  0  0  0  0  0  0  0
  -37.2191  -29.6621   21.3644 C   0  0  0  0  0  0  0  0  0  0  0  0
  -31.4016  -26.1139   20.7021 C   0  0  0  0  0  0  0  0  0  0  0  0
  -34.1421  -17.5120   23.6233 C   0  0  0  0  0  0  0  0  0  0  0  0
  -35.7730  -19.9666   21.2499 C   0  0  0  0  0  0  0  0  0  1  0  0
  -36.2059  -27.3542   21.1661 C   0  0  1  0  0  0  0  0  0  0  0  0
  -32.5718  -27.7692   22.1614 C   0  0  2  0  0  0  0  0  0  0  0  0
  -37.3185  -28.1991   21.8486 C   0  0  0  0  0  0  0  0  0  0  0  0
  -25.8618  -11.5422   20.2871 N   0  0  0  0  0  0  0  0  0  0  0  0
  -26.2389  -12.8257   20.1580 N   0  0  0  0  0  0  0  0  0  0  0  0
  -36.5359  -26.0267   19.1039 N   0  0  0  0  0  0  0  0  0  0  0  0
  -29.9699  -13.6130   20.3662 N   0  0  0  0  0  0  0  0  0  0  0  0
  -25.4725  -15.0534   20.4039 N   0  0  0  0  0  0  0  0  0  0  0  0
  -21.8866  -12.5803   21.5961 N   0  0  0  0  0  0  0  0  0  0  0  0
  -30.0803  -15.6930   21.4723 N   0  0  0  0  0  0  0  0  0  0  0  0
  -38.9522  -26.3913   16.5042 N   0  0  0  0  0  0  0  0  0  0  0  0
  -34.7461  -18.6552   22.9789 N   0  0  0  0  0  0  0  0  0  0  0  0
  -34.8517  -27.8354   21.4170 N   0  0  0  0  0  0  0  0  0  0  0  0
  -31.4331  -26.8199   22.0089 N   0  3  0  0  0  0  0  0  0  0  0  0
  -22.6626  -14.7198   21.3150 O   0  0  0  0  0  0  0  0  0  0  0  0
  -38.9905  -25.2241   18.5188 O   0  0  0  0  0  0  0  0  0  0  0  0
  -36.3277  -28.3473   19.0154 O   0  0  0  0  0  0  0  0  0  0  0  0
  -35.1102  -17.6753   20.9015 O   0  0  0  0  0  0  0  0  0  0  0  0
  -34.0590  -25.8768   22.3725 O   0  0  0  0  0  0  0  0  0  0  0  0
  -31.8575  -14.9356   20.1880 O   0  0  0  0  0  0  0  0  0  0  0  0
  -21.6128   -7.0173   21.7083 O   0  0  0  0  0  0  0  0  0  0  0  0
  -36.2308  -19.9171   19.8992 O   0  0  0  0  0  0  0  0  0  1  0  0
  -18.6190   -6.8625   26.3362 F   0  0  0  0  0  0  0  0  0  0  0  0
  -28.5460  -17.4522   22.9942 F   0  0  0  0  0  0  0  0  0  0  0  0
  -22.0619   -5.0751   23.6237 F   0  0  0  0  0  0  0  0  0  0  0  0
  1  2  1  0  0  0  0
  1  5  2  0  0  0  0
  2  6  2  0  0  0  0
  3  9  2  0  0  0  0
  3 18  1  0  0  0  0
  4 10  1  0  0  0  0
  4 18  2  0  0  0  0
  5 20  1  0  0  0  0
  6 22  1  0  0  0  0
  7 11  2  0  0  0  0
  7 21  1  0  0  0  0
  8 13  2  0  0  0  0
  8 24  1  0  0  0  0
  9 26  1  0  0  0  0
 10 26  2  0  0  0  0
 11 27  1  0  0  0  0
 12 14  2  0  0  0  0
 12 28  1  0  0  0  0
 13 30  1  0  0  0  0
 14 29  1  0  0  0  0
 15 23  1  0  0  0  0
 15 27  2  0  0  0  0
 16 24  2  0  0  0  0
 16 25  1  0  0  0  0
 17 29  2  0  0  0  0
 17 31  1  0  0  0  0
 18 32  1  0  0  0  0
 19 32  1  0  0  0  0
 19 33  2  0  0  0  0
 19 34  1  0  0  0  0
 20 22  2  0  0  0  0
 20 40  1  0  0  0  0
 21 23  2  0  0  0  0
 21 41  1  0  0  0  0
 22 49  1  0  0  0  0
 23 42  1  0  0  0  0
 24 57  1  0  0  0  0
 25 30  2  0  0  0  0
 25 68  1  0  0  0  0
 26 79  1  0  0  0  0
 27 80  1  0  0  0  0
 28 31  2  0  0  0  0
 28 79  1  0  0  0  0
 29 81  1  0  0  0  0
 30 82  1  0  0  0  0
 31 83  1  0  0  0  0
 32 62  2  0  0  0  0
 33 63  1  0  0  0  0
 33 66  1  0  0  0  0
 34 67  1  0  0  0  0
 34 73  2  0  0  0  0
 35 50  1  0  0  0  0
 35 69  1  0  0  0  0
 35 74  2  0  0  0  0
 36 59  1  0  0  0  0
 36 64  1  0  0  0  0
 36 75  2  0  0  0  0
 37 58  1  0  0  0  0
 37 70  1  0  0  0  0
 37 76  2  0  0  0  0
 38 60  1  0  0  0  0
 38 71  1  0  0  0  0
 38 77  2  0  0  0  0
 39 65  1  0  0  0  0
 39 68  1  0  0  0  0
 39 78  2  0  0  0  0
 40 43  1  0  0  0  0
 41 50  1  0  0  0  0
 42 64  1  0  0  0  0
 43 45  1  0  0  0  0
 44 46  1  0  0  0  0
 44 47  1  0  0  0  0
 45 49  1  0  0  0  0
 46 51  1  0  0  0  0
 47 65  1  0  0  0  0
 48 51  1  0  0  0  0
 48 65  1  0  0  0  0
 49 69  1  0  0  0  0
 50 64  1  0  0  0  0
 51 63  1  0  0  0  0
 52 60  1  0  0  0  0
 53 61  1  0  0  0  0
 54 61  1  0  0  0  0
 55 61  1  0  0  0  0
 56 72  1  0  0  0  0
 57 70  1  0  0  0  0
 58 80  1  0  0  0  0
 59 61  1  0  0  0  0
 59 71  1  0  0  0  0
 60 72  1  0  0  0  0
 62 63  1  0  0  0  0
M  CHG  1  72   1
M  ISO  4  39 100  58 101  68 100  80 101
M  END
> <Batch ID>
0011

> <Smiles>
CNC(C)C(=O)NC(C(=O)N1Cc2cc([101O:1][101CH2:1]C(=O)NCc3ccc(F)c([100NH:0][100C:0](=O)N4CCCC(n5nc(-c6ccc(Oc7ccc(F)cc7F)cc6)c(C(N)=O)c5N)C4)c3)ccc2CC1C(=O)NC1CCCc2ccccc21)C(C)(C)C

> <Shape>
0.175

> <Color>
0.191

> <Negative vol penalty>
0.000

$$$$

  -OEChem-04052315443D

 81 89  0     1  0  0  0  0  0999 V2000
  -27.4111  -24.0520   17.1374 C   0  0  0  0  0  0  0  0  0  0  0  0
  -26.3616  -24.9193   17.4189 C   0  0  0  0  0  0  0  0  0  0  0  0
  -27.4921  -16.0840   21.6963 C   0  0  0  0  0  0  0  0  0  0  0  0
  -25.9079  -16.8496   20.0406 C   0  0  0  0  0  0  0  0  0  0  0  0
  -28.5072  -23.9889   17.9952 C   0  0  0  0  0  0  0  0  0  0  0  0
  -26.4132  -25.7323   18.5517 C   0  0  0  0  0  0  0  0  0  0  0  0
  -22.8488  -29.0848   19.0610 C   0  0  0  0  0  0  0  0  0  0  0  0
  -20.4267  -22.7897   21.8536 C   0  0  0  0  0  0  0  0  0  0  0  0
  -27.5092  -14.8243   21.0974 C   0  0  0  0  0  0  0  0  0  0  0  0
  -25.9251  -15.5900   19.4417 C   0  0  0  0  0  0  0  0  0  0  0  0
  -21.5368  -28.7461   19.3890 C   0  0  0  0  0  0  0  0  0  0  0  0
  -28.9387  -13.3669   18.4020 C   0  0  0  0  0  0  0  0  0  0  0  0
  -30.1787  -12.7589   18.2065 C   0  0  0  0  0  0  0  0  0  0  0  0
  -19.7500  -23.8765   21.3110 C   0  0  0  0  0  0  0  0  0  0  0  0
  -21.9168  -29.4900   21.6520 C   0  0  0  0  0  0  0  0  0  0  0  0
  -29.4880  -10.9046   19.5927 C   0  0  0  0  0  0  0  0  0  0  0  0
  -20.4550  -23.9186   23.9467 C   0  0  0  0  0  0  0  0  0  0  0  0
  -26.6914  -17.0966   21.1679 C   0  0  0  0  0  0  0  0  0  0  0  0
  -27.5091  -19.4912   21.4916 C   0  0  0  0  0  0  0  0  0  0  0  0
  -28.5658  -24.7928   19.1455 C   0  0  0  0  0  0  0  0  0  0  0  0
  -23.7095  -29.6195   20.0305 C   0  0  0  0  0  0  0  0  0  0  0  0
  -27.5218  -25.7005   19.4169 C   0  0  0  0  0  0  0  0  0  0  0  0
  -23.2385  -29.8371   21.3332 C   0  0  0  0  0  0  0  0  0  0  0  0
  -20.7896  -22.8034   23.1957 C   0  0  0  0  0  0  0  0  0  0  0  0
  -26.7257  -14.5773   19.9701 C   0  0  0  0  0  0  0  0  0  0  0  0
  -21.0714  -28.9460   20.6854 C   0  0  0  0  0  0  0  0  0  0  0  0
  -27.9733  -12.7438   19.1929 C   0  0  0  0  0  0  0  0  0  0  0  0
  -30.4533  -11.5277   18.8018 C   0  0  0  0  0  0  0  0  0  0  0  0
  -28.2479  -11.5127   19.7882 C   0  0  0  0  0  0  0  0  0  0  0  0
  -26.6728  -18.3978   21.7864 C   0  0  0  0  0  0  0  0  0  0  0  0
  -19.4618  -24.9437   22.1464 C   0  0  0  0  0  0  0  0  0  0  0  0
  -27.0930  -20.4822   22.3468 C   0  0  0  0  0  0  0  0  0  0  0  0
  -28.5674  -19.6013   20.5306 C   0  0  0  0  0  0  0  0  0  0  0  0
  -26.4537  -28.7009   21.3455 C   0  0  0  0  0  0  0  0  0  0  0  0
  -26.3113  -31.6235   22.7456 C   0  0  0  0  0  0  0  0  0  0  0  0
  -24.3932  -34.2485   23.7835 C   0  0  0  0  0  0  0  0  0  0  0  0
  -21.9054  -21.5868   25.0987 C   0  0  0  0  0  0  0  0  0  0  0  0
  -29.7794  -24.6898   20.0353 C   0  0  0  0  0  0  0  0  0  0  0  0
  -25.1139  -30.0046   19.6540 C   0  0  0  0  0  0  0  0  0  0  0  0
  -24.1163  -30.4270   22.4056 C   0  0  0  0  0  0  0  0  0  0  0  0
  -29.5430  -25.2568   21.4313 C   0  0  0  0  0  0  0  0  0  0  0  0
  -25.0782  -21.1175   26.6446 C   0  0  0  0  0  0  0  0  0  0  0  0
  -28.9194  -26.6409   21.3314 C   0  0  0  0  0  0  0  0  0  0  0  0
  -25.9251  -20.4718   25.5455 C   0  0  0  0  0  0  0  0  0  0  0  0
  -23.6316  -20.6279   26.6072 C   0  0  0  0  0  0  0  0  0  0  0  0
  -23.8130  -20.1109   24.2054 C   0  0  0  0  0  0  0  0  0  0  0  0
  -27.5421  -26.5721   20.6596 C   0  0  1  0  0  0  0  0  0  0  0  0
  -26.0585  -30.0634   20.8505 C   0  0  1  0  0  0  0  0  0  0  0  0
  -25.2623  -20.6219   24.1620 C   0  0  2  0  0  0  0  0  0  0  0  0
  -24.5559  -36.4759   24.9278 C   0  0  0  0  0  0  0  0  0  0  0  0
  -26.6614  -30.2161   25.4302 C   0  0  0  0  0  0  0  0  0  0  0  0
  -25.8750  -32.3115   26.5523 C   0  0  0  0  0  0  0  0  0  0  0  0
  -27.9627  -32.3380   25.1871 C   0  0  0  0  0  0  0  0  0  0  0  0
  -18.4037  -26.0107   20.1710 C   0  0  0  0  0  0  0  0  0  0  0  0
  -23.3161  -35.6705   21.4220 C   0  0  0  0  0  0  0  0  0  0  0  0
  -18.4229  -27.1859   22.3772 C   0  0  0  0  0  0  0  0  0  0  0  0
  -19.5451  -28.2102   22.3542 C   0  0  0  0  0  0  0  0  0  1  0  0
  -25.7238  -32.1686   24.0249 C   0  0  1  0  0  0  0  0  0  0  0  0
  -24.5483  -35.7465   23.5934 C   0  0  2  0  0  0  0  0  0  0  0  0
  -26.5395  -31.7456   25.2792 C   0  0  0  0  0  0  0  0  0  0  0  0
  -19.7981  -24.9930   23.4549 N   0  0  0  0  0  0  0  0  0  0  0  0
  -25.7921  -18.6683   22.7535 N   0  0  0  0  0  0  0  0  0  0  0  0
  -26.0727  -19.9430   23.0738 N   0  0  0  0  0  0  0  0  0  0  0  0
  -25.4834  -30.7814   21.9898 N   0  0  0  0  0  0  0  0  0  0  0  0
  -23.0679  -20.8053   25.2672 N   0  0  0  0  0  0  0  0  0  0  0  0
  -27.5040  -21.7534   22.5403 N   0  0  0  0  0  0  0  0  0  0  0  0
  -28.8640  -18.4877   19.7329 N   0  0  0  0  0  0  0  0  0  0  0  0
  -21.4808  -21.7112   23.7763 N   0  0  0  0  0  0  0  0  0  0  0  0
  -27.0783  -27.9162   20.3949 N   0  0  0  0  0  0  0  0  0  0  0  0
  -25.6150  -33.6119   23.8417 N   0  0  0  0  0  0  0  0  0  0  0  0
  -18.7807  -26.0318   21.5847 N   0  0  3  0  0  0  0  0  0  0  0  0
  -23.4273  -36.2831   22.7709 N   0  3  0  0  0  0  0  0  0  0  0  0
  -29.2412  -20.6506   20.3949 O   0  0  0  0  0  0  0  0  0  0  0  0
  -26.2112  -28.3854   22.5046 O   0  0  0  0  0  0  0  0  0  0  0  0
  -27.4599  -31.9391   22.4251 O   0  0  0  0  0  0  0  0  0  0  0  0
  -23.2980  -33.6985   23.8753 O   0  0  0  0  0  0  0  0  0  0  0  0
  -21.3444  -22.1299   26.0539 O   0  0  0  0  0  0  0  0  0  0  0  0
  -26.7424  -13.3484   19.3854 O   0  0  0  0  0  0  0  0  0  0  0  0
  -19.7914  -28.6156   21.0083 O   0  0  0  0  0  0  0  0  0  1  0  0
  -31.6436  -10.9432   18.6127 F   0  0  0  0  0  0  0  0  0  0  0  0
  -27.3241  -10.9086   20.5481 F   0  0  0  0  0  0  0  0  0  0  0  0
  1  2  1  0  0  0  0
  1  5  2  0  0  0  0
  2  6  2  0  0  0  0
  3  9  2  0  0  0  0
  3 18  1  0  0  0  0
  4 10  1  0  0  0  0
  4 18  2  0  0  0  0
  5 20  1  0  0  0  0
  6 22  1  0  0  0  0
  7 11  2  0  0  0  0
  7 21  1  0  0  0  0
  8 14  2  0  0  0  0
  8 24  1  0  0  0  0
  9 25  1  0  0  0  0
 10 25  2  0  0  0  0
 11 26  1  0  0  0  0
 12 13  2  0  0  0  0
 12 27  1  0  0  0  0
 13 28  1  0  0  0  0
 14 31  1  0  0  0  0
 15 23  1  0  0  0  0
 15 26  2  0  0  0  0
 16 28  2  0  0  0  0
 16 29  1  0  0  0  0
 17 24  2  0  0  0  0
 17 61  1  0  0  0  0
 18 30  1  0  0  0  0
 19 30  1  0  0  0  0
 19 32  2  0  0  0  0
 19 33  1  0  0  0  0
 20 22  2  0  0  0  0
 20 38  1  0  0  0  0
 21 23  2  0  0  0  0
 21 39  1  0  0  0  0
 22 47  1  0  0  0  0
 23 40  1  0  0  0  0
 24 68  1  0  0  0  0
 25 78  1  0  0  0  0
 26 79  1  0  0  0  0
 27 29  2  0  0  0  0
 27 78  1  0  0  0  0
 28 80  1  0  0  0  0
 29 81  1  0  0  0  0
 30 62  2  0  0  0  0
 31 61  2  0  0  0  0
 31 71  1  0  0  0  0
 32 63  1  0  0  0  0
 32 66  1  0  0  0  0
 33 67  1  0  0  0  0
 33 73  2  0  0  0  0
 34 48  1  0  0  0  0
 34 69  1  0  0  0  0
 34 74  2  0  0  0  0
 35 58  1  0  0  0  0
 35 64  1  0  0  0  0
 35 75  2  0  0  0  0
 36 59  1  0  0  0  0
 36 70  1  0  0  0  0
 36 76  2  0  0  0  0
 37 65  1  0  0  0  0
 37 68  1  0  0  0  0
 37 77  2  0  0  0  0
 38 41  1  0  0  0  0
 39 48  1  0  0  0  0
 40 64  1  0  0  0  0
 41 43  1  0  0  0  0
 42 44  1  0  0  0  0
 42 45  1  0  0  0  0
 43 47  1  0  0  0  0
 44 49  1  0  0  0  0
 45 65  1  0  0  0  0
 46 49  1  0  0  0  0
 46 65  1  0  0  0  0
 47 69  1  0  0  0  0
 48 64  1  0  0  0  0
 49 63  1  0  0  0  0
 50 59  1  0  0  0  0
 51 60  1  0  0  0  0
 52 60  1  0  0  0  0
 53 60  1  0  0  0  0
 54 71  1  0  0  0  0
 55 72  1  0  0  0  0
 56 57  1  0  0  0  0
 56 71  1  0  0  0  0
 57 79  1  0  0  0  0
 58 60  1  0  0  0  0
 58 70  1  0  0  0  0
 59 72  1  0  0  0  0
 62 63  1  0  0  0  0
M  CHG  1  72   1
M  ISO  4  37 100  57 101  68 100  79 101
M  END
> <Batch ID>
0011

> <Smiles>
CNC(C)C(=O)NC(C(=O)N1Cc2cc([101O:1][101CH2:1]CN(C)c3ccc([100NH:0][100C:0](=O)N4CCCC(n5nc(-c6ccc(Oc7ccc(F)cc7F)cc6)c(C(N)=O)c5N)C4)cn3)ccc2CC1C(=O)NC1CCCc2ccccc21)C(C)(C)C

> <Shape>
0.294

> <Color>
0.078

> <Negative vol penalty>
0.000

$$$$

  -OEChem-04052315443D

 87 94  0     1  0  0  0  0  0999 V2000
  -16.9305  -30.0862   23.3121 C   0  0  0  0  0  0  0  0  0  0  0  0
  -18.1994  -30.5106   22.9311 C   0  0  0  0  0  0  0  0  0  0  0  0
  -21.8918  -10.4124   20.1518 C   0  0  0  0  0  0  0  0  0  0  0  0
  -23.4768  -10.2382   21.9668 C   0  0  0  0  0  0  0  0  0  0  0  0
  -16.7189  -28.7537   23.6639 C   0  0  0  0  0  0  0  0  0  0  0  0
  -19.2577  -29.6030   22.9026 C   0  0  0  0  0  0  0  0  0  0  0  0
  -25.2917  -28.1737   19.3160 C   0  0  0  0  0  0  0  0  0  0  0  0
  -21.6583   -9.0392   20.2237 C   0  0  0  0  0  0  0  0  0  0  0  0
  -23.2433   -8.8649   22.0388 C   0  0  0  0  0  0  0  0  0  0  0  0
  -26.6470  -27.9356   19.5399 C   0  0  0  0  0  0  0  0  0  0  0  0
  -20.8845   -6.8042   23.3076 C   0  0  0  0  0  0  0  0  0  0  0  0
  -20.7055   -6.2442   24.5726 C   0  0  0  0  0  0  0  0  0  0  0  0
  -26.1465  -25.6412   20.0919 C   0  0  0  0  0  0  0  0  0  0  0  0
  -22.6168   -4.8118   24.2088 C   0  0  0  0  0  0  0  0  0  0  0  0
  -22.8011  -11.0120   21.0233 C   0  0  0  0  0  0  0  0  0  0  0  0
  -22.3600  -13.4468   21.6434 C   0  0  0  0  0  0  0  0  0  0  0  0
  -17.7730  -27.8272   23.6304 C   0  0  0  0  0  0  0  0  0  0  0  0
  -24.3508  -27.1485   19.4892 C   0  0  0  0  0  0  0  0  0  0  0  0
  -19.0602  -28.2572   23.2556 C   0  0  0  0  0  0  0  0  0  0  0  0
  -24.7801  -25.8683   19.8671 C   0  0  0  0  0  0  0  0  0  0  0  0
  -22.3340   -8.2654   21.1673 C   0  0  0  0  0  0  0  0  0  0  0  0
  -27.0743  -26.6699   19.9307 C   0  0  0  0  0  0  0  0  0  0  0  0
  -21.9295   -6.3679   22.4932 C   0  0  0  0  0  0  0  0  0  0  0  0
  -21.5717   -5.2481   25.0231 C   0  0  0  0  0  0  0  0  0  0  0  0
  -22.7956   -5.3717   22.9438 C   0  0  0  0  0  0  0  0  0  0  0  0
  -23.0431  -12.4304   20.9490 C   0  0  0  0  0  0  0  0  0  0  0  0
  -22.9626  -14.6098   21.2299 C   0  0  0  0  0  0  0  0  0  0  0  0
  -21.2777  -13.3486   22.5785 C   0  0  0  0  0  0  0  0  0  0  0  0
  -21.8480  -26.6998   21.3968 C   0  0  0  0  0  0  0  0  0  0  0  0
  -21.4289  -24.0480   19.5761 C   0  0  0  0  0  0  0  0  0  0  0  0
  -30.3738  -25.1093   18.3979 C   0  0  0  0  0  0  0  0  0  0  0  0
  -29.9097  -17.0145   21.7052 C   0  0  0  0  0  0  0  0  0  0  0  0
  -22.8068  -21.6962   17.5225 C   0  0  0  0  0  0  0  0  0  0  0  0
  -28.4062  -15.8320   19.0562 C   0  0  0  0  0  0  0  0  0  0  0  0
  -17.5059  -26.4078   24.0648 C   0  0  0  0  0  0  0  0  0  0  0  0
  -22.8954  -27.4147   19.2178 C   0  0  0  0  0  0  0  0  0  0  0  0
  -23.8123  -24.7284   20.0472 C   0  0  0  0  0  0  0  0  0  0  0  0
  -18.5991  -25.4273   23.6477 C   0  0  0  0  0  0  0  0  0  0  0  0
  -25.2773  -16.5054   17.4963 C   0  0  0  0  0  0  0  0  0  0  0  0
  -19.9776  -25.9985   23.9642 C   0  0  0  0  0  0  0  0  0  0  0  0
  -24.2883  -15.6291   18.2670 C   0  0  0  0  0  0  0  0  0  0  0  0
  -26.6302  -15.8169   17.3294 C   0  0  0  0  0  0  0  0  0  0  0  0
  -26.2527  -14.4645   19.3549 C   0  0  0  0  0  0  0  0  0  0  0  0
  -20.2281  -27.2972   23.1883 C   0  0  1  0  0  0  0  0  0  0  0  0
  -21.9665  -26.4313   19.9232 C   0  0  1  0  0  0  0  0  0  0  0  0
  -24.8916  -15.1391   19.5970 C   0  0  2  0  0  0  0  0  0  0  0  0
  -22.2220  -19.6325   16.2199 C   0  0  0  0  0  0  0  0  0  0  0  0
  -21.3799  -22.4317   22.1635 C   0  0  0  0  0  0  0  0  0  0  0  0
  -21.7516  -20.3661   20.7984 C   0  0  0  0  0  0  0  0  0  0  0  0
  -19.6885  -21.7273   20.4613 C   0  0  0  0  0  0  0  0  0  0  0  0
  -32.8304  -24.6923   18.6468 C   0  0  0  0  0  0  0  0  0  0  0  0
  -23.5684  -22.9593   14.9567 C   0  0  0  0  0  0  0  0  0  0  0  0
  -30.6027  -26.3972   19.1822 C   0  0  0  0  0  0  0  0  0  0  0  0
  -30.0869  -15.7573   20.8807 C   0  0  0  0  0  0  0  0  0  0  0  0
  -31.5667  -20.4077   20.3488 C   0  0  0  0  0  0  0  0  0  0  0  0
  -31.1158  -21.6437   19.5664 C   0  0  0  0  0  0  0  0  0  0  0  0
  -30.7503  -20.2396   21.6349 C   0  0  0  0  0  0  0  0  0  0  0  0
  -31.9044  -21.8664   18.2707 C   0  0  0  0  0  0  0  0  0  0  0  0
  -31.1829  -19.0227   22.4466 C   0  0  0  0  0  0  0  0  0  0  0  0
  -31.4431  -23.0565   17.4344 C   0  0  0  0  0  0  0  0  0  0  0  0
  -29.3280  -27.2050   19.3917 C   0  0  0  0  0  0  0  0  0  1  0  0
  -21.9087  -22.6182   19.6433 C   0  0  1  0  0  0  0  0  0  0  0  0
  -22.3614  -21.1463   16.1795 C   0  0  2  0  0  0  0  0  0  0  0  0
  -21.2005  -21.8076   20.7652 C   0  0  0  0  0  0  0  0  0  0  0  0
  -24.0058  -12.9059   20.1546 N   0  0  0  0  0  0  0  0  0  0  0  0
  -23.9320  -14.2339   20.3472 N   0  0  0  0  0  0  0  0  0  0  0  0
  -22.3993  -25.0402   19.7760 N   0  0  0  0  0  0  0  0  0  0  0  0
  -27.1480  -15.3779   18.6275 N   0  0  0  0  0  0  0  0  0  0  0  0
  -22.7525  -15.9070   21.5389 N   0  0  0  0  0  0  0  0  0  0  0  0
  -20.7784  -12.0769   22.8914 N   0  0  0  0  0  0  0  0  0  0  0  0
  -20.5661  -27.0063   21.8115 N   0  0  0  0  0  0  0  0  0  0  0  0
  -31.0620  -17.7953   21.7089 N   0  0  0  0  0  0  0  0  0  0  0  0
  -21.7329  -22.0653   18.3047 N   0  0  0  0  0  0  0  0  0  0  0  0
  -28.8192  -15.3731   20.3011 N   0  0  0  0  0  0  0  0  0  0  0  0
  -31.5050  -24.3179   18.1692 N   0  0  0  0  0  0  0  0  0  0  0  0
  -23.3502  -21.4991   15.1217 N   0  3  0  0  0  0  0  0  0  0  0  0
  -20.7575  -14.3597   23.1082 O   0  0  0  0  0  0  0  0  0  0  0  0
  -22.8456  -26.6323   22.1053 O   0  0  0  0  0  0  0  0  0  0  0  0
  -20.2385  -24.2763   19.3473 O   0  0  0  0  0  0  0  0  0  0  0  0
  -29.2448  -24.8086   18.0015 O   0  0  0  0  0  0  0  0  0  0  0  0
  -28.8796  -17.2772   22.3205 O   0  0  0  0  0  0  0  0  0  0  0  0
  -23.9888  -21.7855   17.8469 O   0  0  0  0  0  0  0  0  0  0  0  0
  -29.1071  -16.5943   18.3821 O   0  0  0  0  0  0  0  0  0  0  0  0
  -22.1063   -6.9253   21.2380 O   0  0  0  0  0  0  0  0  0  0  0  0
  -28.3965  -26.4349   20.1505 O   0  0  0  0  0  0  0  0  0  1  0  0
  -21.4007   -4.7115   26.2385 F   0  0  0  0  0  0  0  0  0  0  0  0
  -23.8021   -4.9493   22.1664 F   0  0  0  0  0  0  0  0  0  0  0  0
  1  2  1  0  0  0  0
  1  5  2  0  0  0  0
  2  6  2  0  0  0  0
  3  8  2  0  0  0  0
  3 15  1  0  0  0  0
  4  9  1  0  0  0  0
  4 15  2  0  0  0  0
  5 17  1  0  0  0  0
  6 19  1  0  0  0  0
  7 10  2  0  0  0  0
  7 18  1  0  0  0  0
  8 21  1  0  0  0  0
  9 21  2  0  0  0  0
 10 22  1  0  0  0  0
 11 12  2  0  0  0  0
 11 23  1  0  0  0  0
 12 24  1  0  0  0  0
 13 20  1  0  0  0  0
 13 22  2  0  0  0  0
 14 24  2  0  0  0  0
 14 25  1  0  0  0  0
 15 26  1  0  0  0  0
 16 26  1  0  0  0  0
 16 27  2  0  0  0  0
 16 28  1  0  0  0  0
 17 19  2  0  0  0  0
 17 35  1  0  0  0  0
 18 20  2  0  0  0  0
 18 36  1  0  0  0  0
 19 44  1  0  0  0  0
 20 37  1  0  0  0  0
 21 84  1  0  0  0  0
 22 85  1  0  0  0  0
 23 25  2  0  0  0  0
 23 84  1  0  0  0  0
 24 86  1  0  0  0  0
 25 87  1  0  0  0  0
 26 65  2  0  0  0  0
 27 66  1  0  0  0  0
 27 69  1  0  0  0  0
 28 70  1  0  0  0  0
 28 77  2  0  0  0  0
 29 45  1  0  0  0  0
 29 71  1  0  0  0  0
 29 78  2  0  0  0  0
 30 62  1  0  0  0  0
 30 67  1  0  0  0  0
 30 79  2  0  0  0  0
 31 53  1  0  0  0  0
 31 75  1  0  0  0  0
 31 80  2  0  0  0  0
 32 54  1  0  0  0  0
 32 72  1  0  0  0  0
 32 81  2  0  0  0  0
 33 63  1  0  0  0  0
 33 73  1  0  0  0  0
 33 82  2  0  0  0  0
 34 68  1  0  0  0  0
 34 74  1  0  0  0  0
 34 83  2  0  0  0  0
 35 38  1  0  0  0  0
 36 45  1  0  0  0  0
 37 67  1  0  0  0  0
 38 40  1  0  0  0  0
 39 41  1  0  0  0  0
 39 42  1  0  0  0  0
 40 44  1  0  0  0  0
 41 46  1  0  0  0  0
 42 68  1  0  0  0  0
 43 46  1  0  0  0  0
 43 68  1  0  0  0  0
 44 71  1  0  0  0  0
 45 67  1  0  0  0  0
 46 66  1  0  0  0  0
 47 63  1  0  0  0  0
 48 64  1  0  0  0  0
 49 64  1  0  0  0  0
 50 64  1  0  0  0  0
 51 75  1  0  0  0  0
 52 76  1  0  0  0  0
 53 61  1  0  0  0  0
 54 74  1  0  0  0  0
 55 56  1  0  0  0  0
 55 57  1  0  0  0  0
 56 58  1  0  0  0  0
 57 59  1  0  0  0  0
 58 60  1  0  0  0  0
 59 72  1  0  0  0  0
 60 75  1  0  0  0  0
 61 85  1  0  0  0  0
 62 64  1  0  0  0  0
 62 73  1  0  0  0  0
 63 76  1  0  0  0  0
 65 66  1  0  0  0  0
M  CHG  1  76   1
M  ISO  4  34 100  61 101  74 100  85 101
M  END
> <Batch ID>
0011

> <Smiles>
CNC(C)C(=O)NC(C(=O)N1Cc2cc([101O:1][101CH2:1]CC(=O)N(C)CCCCCCNC(=O)C[100NH:0][100C:0](=O)N3CCCC(n4nc(-c5ccc(Oc6ccc(F)cc6F)cc5)c(C(N)=O)c4N)C3)ccc2CC1C(=O)NC1CCCc2ccccc21)C(C)(C)C

> <Shape>
0.272

> <Color>
0.081

> <Negative vol penalty>
0.000

$$$$

  -OEChem-04052315443D

 83 91  0     1  0  0  0  0  0999 V2000
  -28.6478  -36.5586   18.0198 C   0  0  0  0  0  0  0  0  0  0  0  0
  -28.9311  -35.2021   18.1427 C   0  0  0  0  0  0  0  0  0  0  0  0
  -24.0120   -8.8896   20.3121 C   0  0  0  0  0  0  0  0  0  0  0  0
  -22.8153  -10.7154   21.3470 C   0  0  0  0  0  0  0  0  0  0  0  0
  -27.7977  -37.1777   18.9353 C   0  0  0  0  0  0  0  0  0  0  0  0
  -28.3654  -34.4641   19.1817 C   0  0  0  0  0  0  0  0  0  0  0  0
  -26.5875  -28.6067   18.9939 C   0  0  0  0  0  0  0  0  0  0  0  0
  -23.1055   -7.9835   20.8624 C   0  0  0  0  0  0  0  0  0  0  0  0
  -21.9088   -9.8093   21.8973 C   0  0  0  0  0  0  0  0  0  0  0  0
  -27.2009  -27.4264   19.4115 C   0  0  0  0  0  0  0  0  0  0  0  0
  -22.5578   -6.5173   23.8582 C   0  0  0  0  0  0  0  0  0  0  0  0
  -23.0735   -5.3645   24.4504 C   0  0  0  0  0  0  0  0  0  0  0  0
  -25.9866  -27.5388   21.4929 C   0  0  0  0  0  0  0  0  0  0  0  0
  -29.3017  -19.1274   20.7921 C   0  0  0  0  0  0  0  0  0  0  0  0
  -27.6427  -18.8570   19.0568 C   0  0  0  0  0  0  0  0  0  0  0  0
  -21.8330   -4.0053   22.8850 C   0  0  0  0  0  0  0  0  0  0  0  0
  -23.8669  -10.2556   20.5544 C   0  0  0  0  0  0  0  0  0  0  0  0
  -24.7093  -11.8378   18.7393 C   0  0  0  0  0  0  0  0  0  0  0  0
  -27.2136  -36.4448   19.9804 C   0  0  0  0  0  0  0  0  0  0  0  0
  -25.6757  -29.2689   19.8285 C   0  0  0  0  0  0  0  0  0  0  0  0
  -27.5077  -35.0742   20.1128 C   0  0  0  0  0  0  0  0  0  0  0  0
  -25.3610  -28.7260   21.0825 C   0  0  0  0  0  0  0  0  0  0  0  0
  -28.5226  -18.2992   19.9843 C   0  0  0  0  0  0  0  0  0  0  0  0
  -28.3211  -21.0714   19.7449 C   0  0  0  0  0  0  0  0  0  0  0  0
  -22.0539   -8.4433   21.6550 C   0  0  0  0  0  0  0  0  0  0  0  0
  -26.9027  -26.8938   20.6623 C   0  0  0  0  0  0  0  0  0  0  0  0
  -21.6796   -6.4141   22.7794 C   0  0  0  0  0  0  0  0  0  0  0  0
  -22.7112   -4.1085   23.9638 C   0  0  0  0  0  0  0  0  0  0  0  0
  -21.3172   -5.1581   22.2928 C   0  0  0  0  0  0  0  0  0  0  0  0
  -29.2009  -20.5135   20.6724 C   0  0  0  0  0  0  0  0  0  0  0  0
  -27.5419  -20.2431   18.9371 C   0  0  0  0  0  0  0  0  0  0  0  0
  -24.8033  -11.1920   19.9867 C   0  0  0  0  0  0  0  0  0  0  0  0
  -25.8379  -12.6176   18.6705 C   0  0  0  0  0  0  0  0  0  0  0  0
  -23.6928  -11.7414   17.7328 C   0  0  0  0  0  0  0  0  0  0  0  0
  -25.5713  -32.1269   21.2157 C   0  0  0  0  0  0  0  0  0  0  0  0
  -22.5912  -31.1718   22.0697 C   0  0  0  0  0  0  0  0  0  0  0  0
  -27.8452  -23.3875   20.6070 C   0  0  0  0  0  0  0  0  0  0  0  0
  -20.4347  -28.5952   22.6672 C   0  0  0  0  0  0  0  0  0  0  0  0
  -29.4478  -16.1758   20.9749 C   0  0  0  0  0  0  0  0  0  0  0  0
  -26.3384  -37.1678   20.9734 C   0  0  0  0  0  0  0  0  0  0  0  0
  -25.0024  -30.5268   19.3524 C   0  0  0  0  0  0  0  0  0  0  0  0
  -24.3738  -29.3874   22.0078 C   0  0  0  0  0  0  0  0  0  0  0  0
  -25.4831  -36.2333   21.8251 C   0  0  0  0  0  0  0  0  0  0  0  0
  -29.9624  -12.7092   21.6033 C   0  0  0  0  0  0  0  0  0  0  0  0
  -26.3240  -35.0780   22.3588 C   0  0  0  0  0  0  0  0  0  0  0  0
  -28.6583  -12.0585   21.1361 C   0  0  0  0  0  0  0  0  0  0  0  0
  -29.7156  -14.0660   22.2604 C   0  0  0  0  0  0  0  0  0  0  0  0
  -27.6257  -14.3605   20.9897 C   0  0  0  0  0  0  0  0  0  0  0  0
  -26.8938  -34.2345   21.2119 C   0  0  1  0  0  0  0  0  0  0  0  0
  -24.4773  -31.3922   20.4938 C   0  0  1  0  0  0  0  0  0  0  0  0
  -27.8295  -13.0211   20.2631 C   0  0  2  0  0  0  0  0  0  0  0  0
  -18.0767  -28.1265   23.3869 C   0  0  0  0  0  0  0  0  0  0  0  0
  -23.3446  -31.8231   24.9538 C   0  0  0  0  0  0  0  0  0  0  0  0
  -21.3703  -30.4765   25.7002 C   0  0  0  0  0  0  0  0  0  0  0  0
  -21.0315  -32.5121   24.2988 C   0  0  0  0  0  0  0  0  0  0  0  0
  -19.8042  -27.2322   20.1170 C   0  0  0  0  0  0  0  0  0  0  0  0
  -27.8643  -24.8033   20.0615 C   0  0  0  0  0  0  0  0  0  1  0  0
  -22.0022  -30.4292   23.2447 C   0  0  1  0  0  0  0  0  0  0  0  0
  -19.0098  -28.3467   22.2063 C   0  0  2  0  0  0  0  0  0  0  0  0
  -21.9573  -31.2986   24.5329 C   0  0  0  0  0  0  0  0  0  0  0  0
  -25.9047  -11.5320   20.6616 N   0  0  0  0  0  0  0  0  0  0  0  0
  -26.5131  -12.3998   19.8353 N   0  0  0  0  0  0  0  0  0  0  0  0
  -23.7466  -30.6186   21.4996 N   0  0  0  0  0  0  0  0  0  0  0  0
  -28.9285  -14.9260   21.3739 N   0  0  0  0  0  0  0  0  0  0  0  0
  -26.3086  -13.4614   17.7277 N   0  0  0  0  0  0  0  0  0  0  0  0
  -22.6012  -10.8934   17.9648 N   0  0  0  0  0  0  0  0  0  0  0  0
  -28.2185  -22.4775   19.6237 N   0  0  0  0  0  0  0  0  0  0  0  0
  -28.6249  -16.8912   20.1057 N   0  0  0  0  0  0  0  0  0  0  0  0
  -25.8741  -33.3608   20.6722 N   0  0  0  0  0  0  0  0  0  0  0  0
  -20.6988  -29.9412   22.8073 N   0  0  0  0  0  0  0  0  0  0  0  0
  -18.9513  -27.1427   21.3301 N   0  3  0  0  0  0  0  0  0  0  0  0
  -23.7589  -12.3754   16.6525 O   0  0  0  0  0  0  0  0  0  0  0  0
  -26.1004  -31.6131   22.1943 O   0  0  0  0  0  0  0  0  0  0  0  0
  -22.0422  -32.2007   21.6677 O   0  0  0  0  0  0  0  0  0  0  0  0
  -27.5322  -23.1508   21.7691 O   0  0  0  0  0  0  0  0  0  0  0  0
  -21.2324  -27.6859   22.8850 O   0  0  0  0  0  0  0  0  0  0  0  0
  -30.5541  -16.5696   21.3533 O   0  0  0  0  0  0  0  0  0  0  0  0
  -21.1690   -7.5595   22.1920 O   0  0  0  0  0  0  0  0  0  0  0  0
  -27.5005  -25.7423   21.0727 O   0  0  0  0  0  0  0  0  0  1  0  0
  -23.2077   -3.0017   24.5317 F   0  0  0  0  0  0  0  0  0  0  0  0
  -20.4749   -5.0526   21.2559 F   0  0  0  0  0  0  0  0  0  0  0  0
  -30.1869  -21.4980   21.6956 Cl  0  0  0  0  0  0  0  0  0  0  0  0
  -26.4381  -20.8865   17.7726 Cl  0  0  0  0  0  0  0  0  0  0  0  0
  1  2  1  0  0  0  0
  1  5  2  0  0  0  0
  2  6  2  0  0  0  0
  3  8  2  0  0  0  0
  3 17  1  0  0  0  0
  4  9  1  0  0  0  0
  4 17  2  0  0  0  0
  5 19  1  0  0  0  0
  6 21  1  0  0  0  0
  7 10  2  0  0  0  0
  7 20  1  0  0  0  0
  8 25  1  0  0  0  0
  9 25  2  0  0  0  0
 10 26  1  0  0  0  0
 11 12  2  0  0  0  0
 11 27  1  0  0  0  0
 12 28  1  0  0  0  0
 13 22  1  0  0  0  0
 13 26  2  0  0  0  0
 14 23  1  0  0  0  0
 14 30  2  0  0  0  0
 15 23  2  0  0  0  0
 15 31  1  0  0  0  0
 16 28  2  0  0  0  0
 16 29  1  0  0  0  0
 17 32  1  0  0  0  0
 18 32  1  0  0  0  0
 18 33  2  0  0  0  0
 18 34  1  0  0  0  0
 19 21  2  0  0  0  0
 19 40  1  0  0  0  0
 20 22  2  0  0  0  0
 20 41  1  0  0  0  0
 21 49  1  0  0  0  0
 22 42  1  0  0  0  0
 23 68  1  0  0  0  0
 24 30  1  0  0  0  0
 24 31  2  0  0  0  0
 24 67  1  0  0  0  0
 25 78  1  0  0  0  0
 26 79  1  0  0  0  0
 27 29  2  0  0  0  0
 27 78  1  0  0  0  0
 28 80  1  0  0  0  0
 29 81  1  0  0  0  0
 30 82  1  0  0  0  0
 31 83  1  0  0  0  0
 32 61  2  0  0  0  0
 33 62  1  0  0  0  0
 33 65  1  0  0  0  0
 34 66  1  0  0  0  0
 34 72  2  0  0  0  0
 35 50  1  0  0  0  0
 35 69  1  0  0  0  0
 35 73  2  0  0  0  0
 36 58  1  0  0  0  0
 36 63  1  0  0  0  0
 36 74  2  0  0  0  0
 37 57  1  0  0  0  0
 37 67  1  0  0  0  0
 37 75  2  0  0  0  0
 38 59  1  0  0  0  0
 38 70  1  0  0  0  0
 38 76  2  0  0  0  0
 39 64  1  0  0  0  0
 39 68  1  0  0  0  0
 39 77  2  0  0  0  0
 40 43  1  0  0  0  0
 41 50  1  0  0  0  0
 42 63  1  0  0  0  0
 43 45  1  0  0  0  0
 44 46  1  0  0  0  0
 44 47  1  0  0  0  0
 45 49  1  0  0  0  0
 46 51  1  0  0  0  0
 47 64  1  0  0  0  0
 48 51  1  0  0  0  0
 48 64  1  0  0  0  0
 49 69  1  0  0  0  0
 50 63  1  0  0  0  0
 51 62  1  0  0  0  0
 52 59  1  0  0  0  0
 53 60  1  0  0  0  0
 54 60  1  0  0  0  0
 55 60  1  0  0  0  0
 56 71  1  0  0  0  0
 57 79  1  0  0  0  0
 58 60  1  0  0  0  0
 58 70  1  0  0  0  0
 59 71  1  0  0  0  0
 61 62  1  0  0  0  0
M  CHG  1  71   1
M  ISO  4  39 100  57 101  68 100  79 101
M  END
> <Batch ID>
0011

> <Smiles>
CNC(C)C(=O)NC(C(=O)N1Cc2cc([101O:1][101CH2:1]C(=O)Nc3c(Cl)cc([100NH:0][100C:0](=O)N4CCCC(n5nc(-c6ccc(Oc7ccc(F)cc7F)cc6)c(C(N)=O)c5N)C4)cc3Cl)ccc2CC1C(=O)NC1CCCc2ccccc21)C(C)(C)C

> <Shape>
0.306

> <Color>
0.105

> <Negative vol penalty>
0.000

$$$$

  -OEChem-04052315443D

 83 91  0     1  0  0  0  0  0999 V2000
  -27.7385  -37.6465   22.0154 C   0  0  0  0  0  0  0  0  0  0  0  0
  -28.1996  -36.4396   21.4994 C   0  0  0  0  0  0  0  0  0  0  0  0
  -26.4280  -12.7931   21.4380 C   0  0  0  0  0  0  0  0  0  0  0  0
  -26.3413  -13.3093   19.0793 C   0  0  0  0  0  0  0  0  0  0  0  0
  -26.8510  -37.6500   23.0907 C   0  0  0  0  0  0  0  0  0  0  0  0
  -27.7742  -35.2354   22.0592 C   0  0  0  0  0  0  0  0  0  0  0  0
  -26.7636  -29.9610   19.1155 C   0  0  0  0  0  0  0  0  0  0  0  0
  -29.0185  -22.4585   15.3094 C   0  0  0  0  0  0  0  0  0  0  0  0
  -25.1592  -12.2191   21.3590 C   0  0  0  0  0  0  0  0  0  0  0  0
  -25.0725  -12.7353   19.0003 C   0  0  0  0  0  0  0  0  0  0  0  0
  -27.5401  -28.8148   18.9512 C   0  0  0  0  0  0  0  0  0  0  0  0
  -23.8051   -9.3032   20.3117 C   0  0  0  0  0  0  0  0  0  0  0  0
  -23.6087   -8.0751   20.9432 C   0  0  0  0  0  0  0  0  0  0  0  0
  -29.1419  -21.0921   15.0579 C   0  0  0  0  0  0  0  0  0  0  0  0
  -26.4018  -27.7843   20.8116 C   0  0  0  0  0  0  0  0  0  0  0  0
  -29.5900  -22.0836   17.6267 C   0  0  0  0  0  0  0  0  0  0  0  0
  -21.8978   -9.0635   22.3334 C   0  0  0  0  0  0  0  0  0  0  0  0
  -27.0190  -13.3383   20.2981 C   0  0  0  0  0  0  0  0  0  0  0  0
  -29.5674  -13.2880   20.1926 C   0  0  0  0  0  0  0  0  0  0  0  0
  -26.4069  -36.4450   23.6577 C   0  0  0  0  0  0  0  0  0  0  0  0
  -25.8062  -30.0317   20.1377 C   0  0  0  0  0  0  0  0  0  0  0  0
  -26.8809  -35.2228   23.1439 C   0  0  0  0  0  0  0  0  0  0  0  0
  -25.6126  -28.9315   20.9852 C   0  0  0  0  0  0  0  0  0  0  0  0
  -29.2426  -22.9543   16.5939 C   0  0  0  0  0  0  0  0  0  0  0  0
  -29.7134  -20.7172   17.3752 C   0  0  0  0  0  0  0  0  0  0  0  0
  -24.4814  -12.1902   20.1402 C   0  0  0  0  0  0  0  0  0  0  0  0
  -27.3613  -27.7273   19.8011 C   0  0  0  0  0  0  0  0  0  0  0  0
  -23.0478  -10.4115   20.6912 C   0  0  0  0  0  0  0  0  0  0  0  0
  -22.6551   -7.9552   21.9540 C   0  0  0  0  0  0  0  0  0  0  0  0
  -22.0942  -10.2917   21.7020 C   0  0  0  0  0  0  0  0  0  0  0  0
  -29.4894  -20.2214   16.0907 C   0  0  0  0  0  0  0  0  0  0  0  0
  -28.3294  -13.9319   20.3792 C   0  0  0  0  0  0  0  0  0  0  0  0
  -30.5007  -14.2791   20.3743 C   0  0  0  0  0  0  0  0  0  0  0  0
  -29.8484  -11.9166   19.8826 C   0  0  0  0  0  0  0  0  0  0  0  0
  -25.3858  -31.8739   22.6937 C   0  0  0  0  0  0  0  0  0  0  0  0
  -22.5892  -30.2465   22.9237 C   0  0  0  0  0  0  0  0  0  0  0  0
  -28.7110  -24.8010   18.1368 C   0  0  0  0  0  0  0  0  0  0  0  0
  -20.8087  -27.4281   22.1935 C   0  0  0  0  0  0  0  0  0  0  0  0
  -30.3159  -20.2210   19.7704 C   0  0  0  0  0  0  0  0  0  0  0  0
  -25.4841  -36.5001   24.8493 C   0  0  0  0  0  0  0  0  0  0  0  0
  -24.9581  -31.2652   20.2848 C   0  0  0  0  0  0  0  0  0  0  0  0
  -24.5841  -28.9493   22.0853 C   0  0  0  0  0  0  0  0  0  0  0  0
  -24.7900  -35.1728   25.1441 C   0  0  0  0  0  0  0  0  0  0  0  0
  -31.1752  -18.4051   22.7100 C   0  0  0  0  0  0  0  0  0  0  0  0
  -25.7932  -34.0245   25.1002 C   0  0  0  0  0  0  0  0  0  0  0  0
  -30.6611  -16.9918   22.4264 C   0  0  0  0  0  0  0  0  0  0  0  0
  -30.2437  -19.4728   22.1390 C   0  0  0  0  0  0  0  0  0  0  0  0
  -29.4093  -17.9063   20.4304 C   0  0  0  0  0  0  0  0  0  0  0  0
  -26.4232  -33.8952   23.7081 C   0  0  1  0  0  0  0  0  0  0  0  0
  -24.3694  -31.4221   21.6835 C   0  0  1  0  0  0  0  0  0  0  0  0
  -30.3479  -16.7958   20.9301 C   0  0  2  0  0  0  0  0  0  0  0  0
  -18.5605  -26.3712   22.5482 C   0  0  0  0  0  0  0  0  0  0  0  0
  -23.3614  -29.5743   25.7981 C   0  0  0  0  0  0  0  0  0  0  0  0
  -21.6080  -27.7873   25.7776 C   0  0  0  0  0  0  0  0  0  0  0  0
  -20.9552  -30.1762   25.4778 C   0  0  0  0  0  0  0  0  0  0  0  0
  -29.4135  -25.3265   15.7732 C   0  0  0  0  0  0  0  0  0  0  0  0
  -20.2631  -27.3383   19.2860 C   0  0  0  0  0  0  0  0  0  0  0  0
  -28.5618  -26.3043   18.3213 C   0  0  0  0  0  0  0  0  0  1  0  0
  -22.1465  -28.9720   23.6010 C   0  0  1  0  0  0  0  0  0  0  0  0
  -19.4114  -27.2366   21.6318 C   0  0  2  0  0  0  0  0  0  0  0  0
  -22.0386  -29.1275   25.1442 C   0  0  0  0  0  0  0  0  0  0  0  0
  -28.4610  -15.2314   20.6582 N   0  0  0  0  0  0  0  0  0  0  0  0
  -29.7927  -15.4121   20.6484 N   0  0  0  0  0  0  0  0  0  0  0  0
  -23.7839  -30.1804   22.1929 N   0  0  0  0  0  0  0  0  0  0  0  0
  -29.9955  -19.2250   20.7170 N   0  0  0  0  0  0  0  0  0  0  0  0
  -31.8498  -14.2832   20.3249 N   0  0  0  0  0  0  0  0  0  0  0  0
  -28.7721  -11.0321   19.7293 N   0  0  0  0  0  0  0  0  0  0  0  0
  -30.0665  -19.8600   18.4468 N   0  0  0  0  0  0  0  0  0  0  0  0
  -25.5053  -33.2468   22.7962 N   0  0  0  0  0  0  0  0  0  0  0  0
  -20.9015  -28.5760   22.9518 N   0  0  0  0  0  0  0  0  0  0  0  0
  -29.1160  -24.3741   16.8541 N   0  0  0  0  0  0  0  0  0  0  0  0
  -19.4759  -26.5828   20.2942 N   0  3  0  0  0  0  0  0  0  0  0  0
  -31.0199  -11.4848   19.7618 O   0  0  0  0  0  0  0  0  0  0  0  0
  -26.0139  -31.0389   23.3339 O   0  0  0  0  0  0  0  0  0  0  0  0
  -21.8966  -31.2614   23.0331 O   0  0  0  0  0  0  0  0  0  0  0  0
  -28.4469  -24.0576   19.0851 O   0  0  0  0  0  0  0  0  0  0  0  0
  -21.7251  -26.6365   21.9837 O   0  0  0  0  0  0  0  0  0  0  0  0
  -30.8028  -21.3034   20.1069 O   0  0  0  0  0  0  0  0  0  0  0  0
  -23.2434  -11.6299   20.0627 O   0  0  0  0  0  0  0  0  0  0  0  0
  -28.1183  -26.6076   19.6434 O   0  0  0  0  0  0  0  0  0  1  0  0
  -22.4656   -6.7754   22.5593 F   0  0  0  0  0  0  0  0  0  0  0  0
  -21.3628  -11.3526   22.0700 F   0  0  0  0  0  0  0  0  0  0  0  0
  -29.6281  -18.5364   15.7354 Cl  0  0  0  0  0  0  0  0  0  0  0  0
  1  2  1  0  0  0  0
  1  5  2  0  0  0  0
  2  6  2  0  0  0  0
  3  9  2  0  0  0  0
  3 18  1  0  0  0  0
  4 10  1  0  0  0  0
  4 18  2  0  0  0  0
  5 20  1  0  0  0  0
  6 22  1  0  0  0  0
  7 11  2  0  0  0  0
  7 21  1  0  0  0  0
  8 14  2  0  0  0  0
  8 24  1  0  0  0  0
  9 26  1  0  0  0  0
 10 26  2  0  0  0  0
 11 27  1  0  0  0  0
 12 13  2  0  0  0  0
 12 28  1  0  0  0  0
 13 29  1  0  0  0  0
 14 31  1  0  0  0  0
 15 23  1  0  0  0  0
 15 27  2  0  0  0  0
 16 24  2  0  0  0  0
 16 25  1  0  0  0  0
 17 29  2  0  0  0  0
 17 30  1  0  0  0  0
 18 32  1  0  0  0  0
 19 32  1  0  0  0  0
 19 33  2  0  0  0  0
 19 34  1  0  0  0  0
 20 22  2  0  0  0  0
 20 40  1  0  0  0  0
 21 23  2  0  0  0  0
 21 41  1  0  0  0  0
 22 49  1  0  0  0  0
 23 42  1  0  0  0  0
 24 71  1  0  0  0  0
 25 31  2  0  0  0  0
 25 68  1  0  0  0  0
 26 79  1  0  0  0  0
 27 80  1  0  0  0  0
 28 30  2  0  0  0  0
 28 79  1  0  0  0  0
 29 81  1  0  0  0  0
 30 82  1  0  0  0  0
 31 83  1  0  0  0  0
 32 62  2  0  0  0  0
 33 63  1  0  0  0  0
 33 66  1  0  0  0  0
 34 67  1  0  0  0  0
 34 73  2  0  0  0  0
 35 50  1  0  0  0  0
 35 69  1  0  0  0  0
 35 74  2  0  0  0  0
 36 59  1  0  0  0  0
 36 64  1  0  0  0  0
 36 75  2  0  0  0  0
 37 58  1  0  0  0  0
 37 71  1  0  0  0  0
 37 76  2  0  0  0  0
 38 60  1  0  0  0  0
 38 70  1  0  0  0  0
 38 77  2  0  0  0  0
 39 65  1  0  0  0  0
 39 68  1  0  0  0  0
 39 78  2  0  0  0  0
 40 43  1  0  0  0  0
 41 50  1  0  0  0  0
 42 64  1  0  0  0  0
 43 45  1  0  0  0  0
 44 46  1  0  0  0  0
 44 47  1  0  0  0  0
 45 49  1  0  0  0  0
 46 51  1  0  0  0  0
 47 65  1  0  0  0  0
 48 51  1  0  0  0  0
 48 65  1  0  0  0  0
 49 69  1  0  0  0  0
 50 64  1  0  0  0  0
 51 63  1  0  0  0  0
 52 60  1  0  0  0  0
 53 61  1  0  0  0  0
 54 61  1  0  0  0  0
 55 61  1  0  0  0  0
 56 71  1  0  0  0  0
 57 72  1  0  0  0  0
 58 80  1  0  0  0  0
 59 61  1  0  0  0  0
 59 70  1  0  0  0  0
 60 72  1  0  0  0  0
 62 63  1  0  0  0  0
M  CHG  1  72   1
M  ISO  4  39 100  58 101  68 100  80 101
M  END
> <Batch ID>
0011

> <Smiles>
CNC(C)C(=O)NC(C(=O)N1Cc2cc([101O:1][101CH2:1]C(=O)N(C)c3ccc(Cl)c([100NH:0][100C:0](=O)N4CCCC(n5nc(-c6ccc(Oc7ccc(F)cc7F)cc6)c(C(N)=O)c5N)C4)c3)ccc2CC1C(=O)NC1CCCc2ccccc21)C(C)(C)C

> <Shape>
0.356

> <Color>
0.106

> <Negative vol penalty>
0.000

$$$$

  -OEChem-04052315443D

 84 92  0     1  0  0  0  0  0999 V2000
  -35.4350  -30.4230   19.4111 C   0  0  0  0  0  0  0  0  0  0  0  0
  -34.3001  -29.6425   19.6066 C   0  0  0  0  0  0  0  0  0  0  0  0
  -24.5731   -9.9706   21.9757 C   0  0  0  0  0  0  0  0  0  0  0  0
  -24.7005  -11.3113   23.9816 C   0  0  0  0  0  0  0  0  0  0  0  0
  -35.7102  -31.4802   20.2774 C   0  0  0  0  0  0  0  0  0  0  0  0
  -33.4403  -29.9181   20.6692 C   0  0  0  0  0  0  0  0  0  0  0  0
  -28.5652  -29.8031   19.3036 C   0  0  0  0  0  0  0  0  0  0  0  0
  -24.2229   -8.8585   22.7413 C   0  0  0  0  0  0  0  0  0  0  0  0
  -24.3503  -10.1992   24.7472 C   0  0  0  0  0  0  0  0  0  0  0  0
  -27.9737  -28.5488   19.1598 C   0  0  0  0  0  0  0  0  0  0  0  0
  -22.9431   -5.7531   24.1319 C   0  0  0  0  0  0  0  0  0  0  0  0
  -21.8913   -4.9579   23.6771 C   0  0  0  0  0  0  0  0  0  0  0  0
  -26.9739  -28.7766   21.3433 C   0  0  0  0  0  0  0  0  0  0  0  0
  -29.8442  -20.1989   21.2127 C   0  0  0  0  0  0  0  0  0  0  0  0
  -28.6646  -22.2398   21.7422 C   0  0  0  0  0  0  0  0  0  0  0  0
  -20.4012   -6.8554   23.8057 C   0  0  0  0  0  0  0  0  0  0  0  0
  -24.8120  -11.1971   22.5959 C   0  0  0  0  0  0  0  0  0  0  0  0
  -24.3036  -13.2907   21.2299 C   0  0  0  0  0  0  0  0  0  0  0  0
  -34.8482  -31.7750   21.3454 C   0  0  0  0  0  0  0  0  0  0  0  0
  -28.3741  -30.5501   20.4749 C   0  0  0  0  0  0  0  0  0  0  0  0
  -33.7050  -30.9794   21.5514 C   0  0  0  0  0  0  0  0  0  0  0  0
  -27.5620  -30.0411   21.4985 C   0  0  0  0  0  0  0  0  0  0  0  0
  -28.6270  -19.5443   21.0244 C   0  0  0  0  0  0  0  0  0  0  0  0
  -27.4474  -21.5852   21.5538 C   0  0  0  0  0  0  0  0  0  0  0  0
  -24.1115   -8.9728   24.1270 C   0  0  0  0  0  0  0  0  0  0  0  0
  -27.1803  -28.0341   20.1809 C   0  0  0  0  0  0  0  0  0  0  0  0
  -22.7241   -7.0995   24.4237 C   0  0  0  0  0  0  0  0  0  0  0  0
  -20.6204   -5.5090   23.5140 C   0  0  0  0  0  0  0  0  0  0  0  0
  -29.8630  -21.5467   21.5716 C   0  0  0  0  0  0  0  0  0  0  0  0
  -21.4531   -7.6506   24.2605 C   0  0  0  0  0  0  0  0  0  0  0  0
  -27.4286  -20.2374   21.1949 C   0  0  0  0  0  0  0  0  0  0  0  0
  -25.1743  -12.3461   21.8057 C   0  0  0  0  0  0  0  0  0  0  0  0
  -25.1340  -14.1757   20.5866 C   0  0  0  0  0  0  0  0  0  0  0  0
  -22.8723  -13.3618   21.2727 C   0  0  0  0  0  0  0  0  0  0  0  0
  -30.2814  -31.6673   22.7592 C   0  0  0  0  0  0  0  0  0  0  0  0
  -27.5616  -33.1065   23.7859 C   0  0  0  0  0  0  0  0  0  0  0  0
  -24.1498  -33.1385   23.8567 C   0  0  0  0  0  0  0  0  0  0  0  0
  -29.7112  -17.3433   20.4528 C   0  0  0  0  0  0  0  0  0  0  0  0
  -35.2124  -32.8984   22.2835 C   0  0  0  0  0  0  0  0  0  0  0  0
  -28.9973  -31.9129   20.6035 C   0  0  0  0  0  0  0  0  0  0  0  0
  -27.3090  -30.8121   22.7674 C   0  0  0  0  0  0  0  0  0  0  0  0
  -34.0524  -33.3579   23.1629 C   0  0  0  0  0  0  0  0  0  0  0  0
  -30.0885  -13.9110   19.5846 C   0  0  0  0  0  0  0  0  0  0  0  0
  -33.3343  -32.1568   23.7700 C   0  0  0  0  0  0  0  0  0  0  0  0
  -28.7721  -13.2756   20.0377 C   0  0  0  0  0  0  0  0  0  0  0  0
  -30.5498  -15.0059   20.5448 C   0  0  0  0  0  0  0  0  0  0  0  0
  -28.2339  -15.4082   21.2825 C   0  0  0  0  0  0  0  0  0  0  0  0
  -32.7350  -31.2625   22.6780 C   0  0  1  0  0  0  0  0  0  0  0  0
  -29.1534  -32.3643   22.0524 C   0  0  1  0  0  0  0  0  0  0  0  0
  -27.6957  -14.3441   20.3121 C   0  0  2  0  0  0  0  0  0  0  0  0
  -22.2111  -34.4160   24.8089 C   0  0  0  0  0  0  0  0  0  0  0  0
  -28.0693  -31.8383   26.5143 C   0  0  0  0  0  0  0  0  0  0  0  0
  -25.6908  -32.3412   27.1129 C   0  0  0  0  0  0  0  0  0  0  0  0
  -27.2662  -34.2053   26.5972 C   0  0  0  0  0  0  0  0  0  0  0  0
  -24.9656  -21.5990   21.5284 C   0  0  0  0  0  0  0  0  0  0  0  0
  -23.1191  -33.8082   21.1645 C   0  0  0  0  0  0  0  0  0  0  0  0
  -26.4350  -24.5724   20.8947 C   0  0  0  0  0  0  0  0  0  0  0  0
  -26.2300  -23.6755   22.1096 C   0  0  0  0  0  0  0  0  0  0  0  0
  -26.3839  -26.0570   21.2358 C   0  0  0  0  0  0  0  0  0  1  0  0
  -26.4386  -32.7270   24.7206 C   0  0  1  0  0  0  0  0  0  0  0  0
  -23.1478  -34.2545   23.6218 C   0  0  2  0  0  0  0  0  0  0  0  0
  -26.8724  -32.7623   26.2133 C   0  0  0  0  0  0  0  0  0  0  0  0
  -26.4593  -12.6066   21.5505 N   0  0  0  0  0  0  0  0  0  0  0  0
  -26.4021  -13.7248   20.8073 N   0  0  0  0  0  0  0  0  0  0  0  0
  -27.9455  -32.1372   22.8484 N   0  0  0  0  0  0  0  0  0  0  0  0
  -29.4803  -15.9843   20.7538 N   0  0  0  0  0  0  0  0  0  0  0  0
  -24.8958  -15.2878   19.8593 N   0  0  0  0  0  0  0  0  0  0  0  0
  -22.1749  -12.3715   21.9780 N   0  0  0  0  0  0  0  0  0  0  0  0
  -28.6113  -18.1749   20.6605 N   0  0  0  0  0  0  0  0  0  0  0  0
  -31.5146  -31.8443   22.1616 N   0  0  0  0  0  0  0  0  0  0  0  0
  -25.3245  -33.6129   24.4010 N   0  0  0  0  0  0  0  0  0  0  0  0
  -26.2442  -22.2846   21.7257 N   0  0  3  0  0  0  0  0  0  0  0  0
  -22.3273  -33.9676   22.4113 N   0  3  0  0  0  0  0  0  0  0  0  0
  -22.2298  -14.2672   20.6887 O   0  0  0  0  0  0  0  0  0  0  0  0
  -30.0501  -31.0182   23.7726 O   0  0  0  0  0  0  0  0  0  0  0  0
  -28.0745  -34.2245   23.8793 O   0  0  0  0  0  0  0  0  0  0  0  0
  -23.9126  -31.9629   23.5878 O   0  0  0  0  0  0  0  0  0  0  0  0
  -30.7959  -17.7358   20.0152 O   0  0  0  0  0  0  0  0  0  0  0  0
  -23.7695   -7.8878   24.8743 O   0  0  0  0  0  0  0  0  0  0  0  0
  -26.6023  -26.8098   20.0433 O   0  0  0  0  0  0  0  0  0  1  0  0
  -19.6107   -4.7456   23.0758 F   0  0  0  0  0  0  0  0  0  0  0  0
  -31.0320  -22.1756   21.7512 F   0  0  0  0  0  0  0  0  0  0  0  0
  -21.2368   -8.9436   24.5380 F   0  0  0  0  0  0  0  0  0  0  0  0
  -26.2572  -19.6080   21.0145 F   0  0  0  0  0  0  0  0  0  0  0  0
  1  2  1  0  0  0  0
  1  5  2  0  0  0  0
  2  6  2  0  0  0  0
  3  8  2  0  0  0  0
  3 17  1  0  0  0  0
  4  9  1  0  0  0  0
  4 17  2  0  0  0  0
  5 19  1  0  0  0  0
  6 21  1  0  0  0  0
  7 10  2  0  0  0  0
  7 20  1  0  0  0  0
  8 25  1  0  0  0  0
  9 25  2  0  0  0  0
 10 26  1  0  0  0  0
 11 12  2  0  0  0  0
 11 27  1  0  0  0  0
 12 28  1  0  0  0  0
 13 22  1  0  0  0  0
 13 26  2  0  0  0  0
 14 23  2  0  0  0  0
 14 29  1  0  0  0  0
 15 24  1  0  0  0  0
 15 29  2  0  0  0  0
 16 28  2  0  0  0  0
 16 30  1  0  0  0  0
 17 32  1  0  0  0  0
 18 32  1  0  0  0  0
 18 33  2  0  0  0  0
 18 34  1  0  0  0  0
 19 21  2  0  0  0  0
 19 39  1  0  0  0  0
 20 22  2  0  0  0  0
 20 40  1  0  0  0  0
 21 48  1  0  0  0  0
 22 41  1  0  0  0  0
 23 31  1  0  0  0  0
 23 69  1  0  0  0  0
 24 31  2  0  0  0  0
 24 72  1  0  0  0  0
 25 79  1  0  0  0  0
 26 80  1  0  0  0  0
 27 30  2  0  0  0  0
 27 79  1  0  0  0  0
 28 81  1  0  0  0  0
 29 82  1  0  0  0  0
 30 83  1  0  0  0  0
 31 84  1  0  0  0  0
 32 63  2  0  0  0  0
 33 64  1  0  0  0  0
 33 67  1  0  0  0  0
 34 68  1  0  0  0  0
 34 74  2  0  0  0  0
 35 49  1  0  0  0  0
 35 70  1  0  0  0  0
 35 75  2  0  0  0  0
 36 60  1  0  0  0  0
 36 65  1  0  0  0  0
 36 76  2  0  0  0  0
 37 61  1  0  0  0  0
 37 71  1  0  0  0  0
 37 77  2  0  0  0  0
 38 66  1  0  0  0  0
 38 69  1  0  0  0  0
 38 78  2  0  0  0  0
 39 42  1  0  0  0  0
 40 49  1  0  0  0  0
 41 65  1  0  0  0  0
 42 44  1  0  0  0  0
 43 45  1  0  0  0  0
 43 46  1  0  0  0  0
 44 48  1  0  0  0  0
 45 50  1  0  0  0  0
 46 66  1  0  0  0  0
 47 50  1  0  0  0  0
 47 66  1  0  0  0  0
 48 70  1  0  0  0  0
 49 65  1  0  0  0  0
 50 64  1  0  0  0  0
 51 61  1  0  0  0  0
 52 62  1  0  0  0  0
 53 62  1  0  0  0  0
 54 62  1  0  0  0  0
 55 72  1  0  0  0  0
 56 73  1  0  0  0  0
 57 58  1  0  0  0  0
 57 59  1  0  0  0  0
 58 72  1  0  0  0  0
 59 80  1  0  0  0  0
 60 62  1  0  0  0  0
 60 71  1  0  0  0  0
 61 73  1  0  0  0  0
 63 64  1  0  0  0  0
M  CHG  1  73   1
M  ISO  4  38 100  59 101  69 100  80 101
M  END
> <Batch ID>
0011

> <Smiles>
CNC(C)C(=O)NC(C(=O)N1Cc2cc([101O:1][101CH2:1]CCN(C)c3cc(F)cc([100NH:0][100C:0](=O)N4CCCC(n5nc(-c6ccc(Oc7ccc(F)cc7F)cc6)c(C(N)=O)c5N)C4)c3F)ccc2CC1C(=O)NC1CCCc2ccccc21)C(C)(C)C

> <Shape>
0.238

> <Color>
0.132

> <Negative vol penalty>
0.000

$$$$

  -OEChem-04052315443D

 77 84  0     1  0  0  0  0  0999 V2000
  -29.8023   -7.2873   37.2300 C   0  0  0  0  0  0  0  0  0  0  0  0
  -29.7889   -8.2044   36.1839 C   0  0  0  0  0  0  0  0  0  0  0  0
  -23.2863   -9.8009   19.9108 C   0  0  0  0  0  0  0  0  0  0  0  0
  -23.7330   -9.9415   22.2810 C   0  0  0  0  0  0  0  0  0  0  0  0
  -29.8026   -5.9201   36.9570 C   0  0  0  0  0  0  0  0  0  0  0  0
  -29.7769   -7.7546   34.8641 C   0  0  0  0  0  0  0  0  0  0  0  0
  -26.9481  -10.3764   30.1069 C   0  0  0  0  0  0  0  0  0  0  0  0
  -22.5585   -8.6290   20.1175 C   0  0  0  0  0  0  0  0  0  0  0  0
  -23.0052   -8.7697   22.4877 C   0  0  0  0  0  0  0  0  0  0  0  0
  -27.4036  -11.2155   29.0910 C   0  0  0  0  0  0  0  0  0  0  0  0
  -20.2795   -5.7973   20.0665 C   0  0  0  0  0  0  0  0  0  0  0  0
  -19.0532   -5.6719   19.4139 C   0  0  0  0  0  0  0  0  0  0  0  0
  -27.6756   -9.3052   27.6433 C   0  0  0  0  0  0  0  0  0  0  0  0
  -18.2463   -7.6451   20.5508 C   0  0  0  0  0  0  0  0  0  0  0  0
  -23.8736  -10.4571   20.9926 C   0  0  0  0  0  0  0  0  0  0  0  0
  -24.1357  -12.9868   20.7940 C   0  0  0  0  0  0  0  0  0  0  0  0
  -29.7808   -5.4533   35.6332 C   0  0  0  0  0  0  0  0  0  0  0  0
  -26.8631   -8.9918   29.9019 C   0  0  0  0  0  0  0  0  0  0  0  0
  -29.7782   -6.3798   34.5730 C   0  0  0  0  0  0  0  0  0  0  0  0
  -27.2162   -8.4510   28.6574 C   0  0  0  0  0  0  0  0  0  0  0  0
  -22.4179   -8.1134   21.4059 C   0  0  0  0  0  0  0  0  0  0  0  0
  -27.7702  -10.6797   27.8599 C   0  0  0  0  0  0  0  0  0  0  0  0
  -20.4893   -6.8466   20.9614 C   0  0  0  0  0  0  0  0  0  0  0  0
  -18.0366   -6.5958   19.6560 C   0  0  0  0  0  0  0  0  0  0  0  0
  -19.4727   -7.7705   21.2035 C   0  0  0  0  0  0  0  0  0  0  0  0
  -24.6260  -11.6673   20.7797 C   0  0  0  0  0  0  0  0  0  0  0  0
  -25.2383  -13.7656   20.5408 C   0  0  0  0  0  0  0  0  0  0  0  0
  -29.8492  -14.3596   25.8717 C   0  0  0  0  0  0  0  0  0  0  0  0
  -28.7355  -13.6145   25.9283 C   0  0  0  0  0  0  0  0  0  0  0  0
  -22.8026  -13.4657   21.0164 C   0  0  0  0  0  0  0  0  0  0  0  0
  -28.2271   -6.4411   31.2199 C   0  0  0  0  0  0  0  0  0  0  0  0
  -26.1636   -4.8312   29.3036 C   0  0  0  0  0  0  0  0  0  0  0  0
  -24.2322   -4.8183   26.4900 C   0  0  0  0  0  0  0  0  0  0  0  0
  -31.1071  -12.9175   21.3709 C   0  0  0  0  0  0  0  0  0  0  0  0
  -29.8296   -3.9661   35.3870 C   0  0  0  0  0  0  0  0  0  0  0  0
  -26.3444   -8.1032   30.9991 C   0  0  0  0  0  0  0  0  0  0  0  0
  -27.1241   -6.9735   28.3798 C   0  0  0  0  0  0  0  0  0  0  0  0
  -29.4377   -3.5709   33.9655 C   0  0  0  0  0  0  0  0  0  0  0  0
  -29.4642  -13.6578   18.3001 C   0  0  0  0  0  0  0  0  0  0  0  0
  -30.1445   -4.4626   32.9495 C   0  0  0  0  0  0  0  0  0  0  0  0
  -27.9937  -13.3507   18.5887 C   0  0  0  0  0  0  0  0  0  0  0  0
  -30.3954  -12.6777   19.0103 C   0  0  0  0  0  0  0  0  0  0  0  0
  -28.7053  -12.2502   20.7523 C   0  0  0  0  0  0  0  0  0  0  0  0
  -29.7399   -5.9309   33.1284 C   0  0  1  0  0  0  0  0  0  0  0  0
  -26.7859   -6.6505   30.8504 C   0  0  1  0  0  0  0  0  0  0  0  0
  -27.7294  -13.2461   20.1028 C   0  0  2  0  0  0  0  0  0  0  0  0
  -22.6897   -3.3467   25.1662 C   0  0  0  0  0  0  0  0  0  0  0  0
  -28.5651   -3.2898   28.2235 C   0  0  0  0  0  0  0  0  0  0  0  0
  -27.1408   -2.5562   26.2996 C   0  0  0  0  0  0  0  0  0  0  0  0
  -26.5270   -1.8974   28.6260 C   0  0  0  0  0  0  0  0  0  0  0  0
  -21.9587   -6.6782   26.8523 C   0  0  0  0  0  0  0  0  0  0  0  0
  -30.3009  -15.0948   24.6428 C   0  0  0  0  0  0  0  0  0  0  0  0
  -28.2825  -12.8925   27.1549 C   0  0  0  0  0  0  0  0  0  1  0  0
  -31.6758  -14.6040   24.1784 C   0  0  0  0  0  0  0  0  0  0  0  0
  -31.6649  -13.1311   23.7797 C   0  0  0  0  0  0  0  0  0  0  0  0
  -26.2106   -4.2962   27.8927 C   0  0  1  0  0  0  0  0  0  0  0  0
  -22.7915   -4.3993   26.2591 C   0  0  2  0  0  0  0  0  0  0  0  0
  -27.1146   -3.0376   27.7660 C   0  0  0  0  0  0  0  0  0  0  0  0
  -25.9380  -11.6074   20.5364 N   0  0  0  0  0  0  0  0  0  0  0  0
  -26.2814  -12.8990   20.3955 N   0  0  0  0  0  0  0  0  0  0  0  0
  -26.6171   -6.1453   29.4864 N   0  0  0  0  0  0  0  0  0  0  0  0
  -30.0935  -12.6268   20.4429 N   0  0  0  0  0  0  0  0  0  0  0  0
  -25.4076  -15.1004   20.4304 N   0  0  0  0  0  0  0  0  0  0  0  0
  -21.7888  -12.5297   21.2622 N   0  0  0  0  0  0  0  0  0  0  0  0
  -28.4305   -6.1673   32.5590 N   0  0  0  0  0  0  0  0  0  0  0  0
  -24.8247   -4.0793   27.4920 N   0  0  0  0  0  0  0  0  0  0  0  0
  -30.7349  -12.8525   22.7081 N   0  0  0  0  0  0  0  0  0  0  0  0
  -21.9681   -5.5748   25.8576 N   0  3  0  0  0  0  0  0  0  0  0  0
  -22.5159  -14.6864   20.9813 O   0  0  0  0  0  0  0  0  0  0  0  0
  -29.0906   -6.5206   30.3540 O   0  0  0  0  0  0  0  0  0  0  0  0
  -25.7334   -4.1122   30.2090 O   0  0  0  0  0  0  0  0  0  0  0  0
  -24.7785   -5.7094   25.8435 O   0  0  0  0  0  0  0  0  0  0  0  0
  -32.2569  -13.2182   21.0327 O   0  0  0  0  0  0  0  0  0  0  0  0
  -21.7076   -6.9701   21.6080 O   0  0  0  0  0  0  0  0  0  0  0  0
  -28.2158  -11.4964   26.8668 O   0  0  0  0  0  0  0  0  0  1  0  0
  -16.8595   -6.4762   19.0280 F   0  0  0  0  0  0  0  0  0  0  0  0
  -19.6687   -8.7812   22.0613 F   0  0  0  0  0  0  0  0  0  0  0  0
  1  2  1  0  0  0  0
  1  5  2  0  0  0  0
  2  6  2  0  0  0  0
  3  8  2  0  0  0  0
  3 15  1  0  0  0  0
  4  9  1  0  0  0  0
  4 15  2  0  0  0  0
  5 17  1  0  0  0  0
  6 19  1  0  0  0  0
  7 10  2  0  0  0  0
  7 18  1  0  0  0  0
  8 21  1  0  0  0  0
  9 21  2  0  0  0  0
 10 22  1  0  0  0  0
 11 12  2  0  0  0  0
 11 23  1  0  0  0  0
 12 24  1  0  0  0  0
 13 20  1  0  0  0  0
 13 22  2  0  0  0  0
 14 24  2  0  0  0  0
 14 25  1  0  0  0  0
 15 26  1  0  0  0  0
 16 26  1  0  0  0  0
 16 27  2  0  0  0  0
 16 30  1  0  0  0  0
 17 19  2  0  0  0  0
 17 35  1  0  0  0  0
 18 20  2  0  0  0  0
 18 36  1  0  0  0  0
 19 44  1  0  0  0  0
 20 37  1  0  0  0  0
 21 74  1  0  0  0  0
 22 75  1  0  0  0  0
 23 25  2  0  0  0  0
 23 74  1  0  0  0  0
 24 76  1  0  0  0  0
 25 77  1  0  0  0  0
 26 59  2  0  0  0  0
 27 60  1  0  0  0  0
 27 63  1  0  0  0  0
 28 29  2  0  0  0  0
 28 52  1  0  0  0  0
 29 53  1  0  0  0  0
 30 64  1  0  0  0  0
 30 69  2  0  0  0  0
 31 45  1  0  0  0  0
 31 65  1  0  0  0  0
 31 70  2  0  0  0  0
 32 56  1  0  0  0  0
 32 61  1  0  0  0  0
 32 71  2  0  0  0  0
 33 57  1  0  0  0  0
 33 66  1  0  0  0  0
 33 72  2  0  0  0  0
 34 62  1  0  0  0  0
 34 67  1  0  0  0  0
 34 73  2  0  0  0  0
 35 38  1  0  0  0  0
 36 45  1  0  0  0  0
 37 61  1  0  0  0  0
 38 40  1  0  0  0  0
 39 41  1  0  0  0  0
 39 42  1  0  0  0  0
 40 44  1  0  0  0  0
 41 46  1  0  0  0  0
 42 62  1  0  0  0  0
 43 46  1  0  0  0  0
 43 62  1  0  0  0  0
 44 65  1  0  0  0  0
 45 61  1  0  0  0  0
 46 60  1  0  0  0  0
 47 57  1  0  0  0  0
 48 58  1  0  0  0  0
 49 58  1  0  0  0  0
 50 58  1  0  0  0  0
 51 68  1  0  0  0  0
 52 54  1  0  0  0  0
 53 75  1  0  0  0  0
 54 55  1  0  0  0  0
 55 67  1  0  0  0  0
 56 58  1  0  0  0  0
 56 66  1  0  0  0  0
 57 68  1  0  0  0  0
 59 60  1  0  0  0  0
M  CHG  1  68   1
M  ISO  4  34 100  53 101  67 100  75 101
M  END
> <Batch ID>
0011

> <Smiles>
CNC(C)C(=O)NC(C(=O)N1Cc2cc([101O:1][101CH2:1]C=CCCC[100NH:0][100C:0](=O)N3CCCC(n4nc(-c5ccc(Oc6ccc(F)cc6F)cc5)c(C(N)=O)c4N)C3)ccc2CC1C(=O)NC1CCCc2ccccc21)C(C)(C)C

> <Shape>
0.130

> <Color>
0.186

> <Negative vol penalty>
0.000

$$$$

  -OEChem-04052315443D

 84 92  0     1  0  0  0  0  0999 V2000
  -33.8661  -31.0870   19.1680 C   0  0  0  0  0  0  0  0  0  0  0  0
  -33.4885  -30.1534   20.1279 C   0  0  0  0  0  0  0  0  0  0  0  0
  -22.9852  -10.0848   19.8704 C   0  0  0  0  0  0  0  0  0  0  0  0
  -23.9750   -9.6267   22.0262 C   0  0  0  0  0  0  0  0  0  0  0  0
  -33.0451  -31.3232   18.0661 C   0  0  0  0  0  0  0  0  0  0  0  0
  -32.2892  -29.4563   19.9870 C   0  0  0  0  0  0  0  0  0  0  0  0
  -32.7914  -24.5109   20.9542 C   0  0  0  0  0  0  0  0  0  0  0  0
  -22.2415   -8.9083   19.9618 C   0  0  0  0  0  0  0  0  0  0  0  0
  -23.2312   -8.4502   22.1177 C   0  0  0  0  0  0  0  0  0  0  0  0
  -32.8491  -24.1266   22.2932 C   0  0  0  0  0  0  0  0  0  0  0  0
  -21.3237   -5.5091   23.0818 C   0  0  0  0  0  0  0  0  0  0  0  0
  -20.6900   -5.2341   24.2936 C   0  0  0  0  0  0  0  0  0  0  0  0
  -30.5223  -23.4960   22.2062 C   0  0  0  0  0  0  0  0  0  0  0  0
  -32.0830  -17.0423   22.0153 C   0  0  0  0  0  0  0  0  0  0  0  0
  -30.7400  -18.3128   24.1046 C   0  0  0  0  0  0  0  0  0  0  0  0
  -19.4272   -7.2846   24.0985 C   0  0  0  0  0  0  0  0  0  0  0  0
  -23.8520  -10.4440   20.9026 C   0  0  0  0  0  0  0  0  0  0  0  0
  -24.2442  -12.9400   21.2540 C   0  0  0  0  0  0  0  0  0  0  0  0
  -31.8397  -30.6216   17.9067 C   0  0  0  0  0  0  0  0  0  0  0  0
  -31.5939  -24.4006   20.2331 C   0  0  0  0  0  0  0  0  0  0  0  0
  -31.4506  -29.6843   18.8826 C   0  0  0  0  0  0  0  0  0  0  0  0
  -30.4527  -23.8771   20.8575 C   0  0  0  0  0  0  0  0  0  0  0  0
  -30.8364  -16.5738   22.4301 C   0  0  0  0  0  0  0  0  0  0  0  0
  -31.9867  -18.7813   23.6898 C   0  0  0  0  0  0  0  0  0  0  0  0
  -22.3644   -8.0910   21.0855 C   0  0  0  0  0  0  0  0  0  0  0  0
  -31.7137  -23.6218   22.9202 C   0  0  0  0  0  0  0  0  0  0  0  0
  -21.0092   -6.6719   22.3784 C   0  0  0  0  0  0  0  0  0  0  0  0
  -32.6582  -18.1460   22.6452 C   0  0  0  0  0  0  0  0  0  0  0  0
  -19.7417   -6.1219   24.8019 C   0  0  0  0  0  0  0  0  0  0  0  0
  -30.1649  -17.2090   23.4747 C   0  0  0  0  0  0  0  0  0  0  0  0
  -20.0610   -7.5596   22.8867 C   0  0  0  0  0  0  0  0  0  0  0  0
  -24.6210  -11.6588   20.8085 C   0  0  0  0  0  0  0  0  0  0  0  0
  -25.3124  -13.7423   20.9350 C   0  0  0  0  0  0  0  0  0  0  0  0
  -23.0367  -13.3667   21.8986 C   0  0  0  0  0  0  0  0  0  0  0  0
  -29.6582  -26.4550   18.7715 C   0  0  0  0  0  0  0  0  0  0  0  0
  -28.1550  -23.7488   17.8026 C   0  0  0  0  0  0  0  0  0  0  0  0
  -27.4940  -20.4462   18.3530 C   0  0  0  0  0  0  0  0  0  0  0  0
  -30.7929  -14.7065   20.7396 C   0  0  0  0  0  0  0  0  0  0  0  0
  -30.9625  -30.9452   16.7233 C   0  0  0  0  0  0  0  0  0  0  0  0
  -31.5551  -24.7944   18.7819 C   0  0  0  0  0  0  0  0  0  0  0  0
  -29.1480  -23.7196   20.1218 C   0  0  0  0  0  0  0  0  0  0  0  0
  -29.8888  -29.8936   16.4554 C   0  0  0  0  0  0  0  0  0  0  0  0
  -29.3813  -12.8238   18.0675 C   0  0  0  0  0  0  0  0  0  0  0  0
  -29.1843  -29.5076   17.7520 C   0  0  0  0  0  0  0  0  0  0  0  0
  -27.9860  -12.4583   18.5790 C   0  0  0  0  0  0  0  0  0  0  0  0
  -30.4198  -12.8020   19.1877 C   0  0  0  0  0  0  0  0  0  0  0  0
  -28.6829  -13.2423   20.8784 C   0  0  0  0  0  0  0  0  0  0  0  0
  -30.1690  -28.8901   18.7523 C   0  0  1  0  0  0  0  0  0  0  0  0
  -30.1486  -25.1195   18.2884 C   0  0  1  0  0  0  0  0  0  0  0  0
  -27.5908  -13.3140   19.7985 C   0  0  2  0  0  0  0  0  0  0  0  0
  -26.2017  -18.5123   17.4111 C   0  0  0  0  0  0  0  0  0  0  0  0
  -25.5746  -24.9302   18.9234 C   0  0  0  0  0  0  0  0  0  0  0  0
  -24.5659  -22.6409   18.8253 C   0  0  0  0  0  0  0  0  0  0  0  0
  -25.3191  -23.7610   16.7275 C   0  0  0  0  0  0  0  0  0  0  0  0
  -29.9569  -18.8659   17.9106 C   0  0  0  0  0  0  0  0  0  0  0  0
  -33.8906  -19.5703   21.1931 C   0  0  0  0  0  0  0  0  0  0  0  0
  -32.7583  -21.7773   25.8452 C   0  0  0  0  0  0  0  0  0  0  0  0
  -31.9131  -20.5858   25.4114 C   0  0  0  0  0  0  0  0  0  0  0  0
  -33.0191  -22.7651   24.7141 C   0  0  0  0  0  0  0  0  0  1  0  0
  -27.0456  -22.8862   18.3541 C   0  0  1  0  0  0  0  0  0  0  0  0
  -27.5353  -19.2430   17.4284 C   0  0  2  0  0  0  0  0  0  0  0  0
  -25.6502  -23.5592   18.2223 C   0  0  0  0  0  0  0  0  0  0  0  0
  -25.8337  -11.6434   20.2490 N   0  0  0  0  0  0  0  0  0  0  0  0
  -26.2282  -12.9248   20.3406 N   0  0  0  0  0  0  0  0  0  0  0  0
  -29.1589  -24.1245   18.7064 N   0  0  0  0  0  0  0  0  0  0  0  0
  -29.9798  -13.6376   20.3070 N   0  0  0  0  0  0  0  0  0  0  0  0
  -25.5483  -15.0603   21.1076 N   0  0  0  0  0  0  0  0  0  0  0  0
  -22.0416  -12.4129   22.1519 N   0  0  0  0  0  0  0  0  0  0  0  0
  -30.2562  -15.4509   21.7896 N   0  0  0  0  0  0  0  0  0  0  0  0
  -32.5469  -19.8787   24.3249 N   0  0  0  0  0  0  0  0  0  0  0  0
  -30.4577  -27.5176   18.3955 N   0  0  0  0  0  0  0  0  0  0  0  0
  -27.1544  -21.5987   17.6765 N   0  0  0  0  0  0  0  0  0  0  0  0
  -28.5895  -18.2865   17.8697 N   0  3  0  0  0  0  0  0  0  0  0  0
  -22.8391  -14.5617   22.2250 O   0  0  0  0  0  0  0  0  0  0  0  0
  -28.6298  -26.5171   19.4349 O   0  0  0  0  0  0  0  0  0  0  0  0
  -28.1353  -24.0713   16.6122 O   0  0  0  0  0  0  0  0  0  0  0  0
  -27.7349  -20.3706   19.5558 O   0  0  0  0  0  0  0  0  0  0  0  0
  -31.8723  -14.9608   20.1991 O   0  0  0  0  0  0  0  0  0  0  0  0
  -21.6387   -6.9431   21.1751 O   0  0  0  0  0  0  0  0  0  0  0  0
  -33.8777  -18.5875   22.2262 O   0  0  0  0  0  0  0  0  0  0  0  0
  -31.7671  -23.2466   24.2272 O   0  0  0  0  0  0  0  0  0  1  0  0
  -19.1321   -5.8569   25.9648 F   0  0  0  0  0  0  0  0  0  0  0  0
  -28.9669  -16.7664   23.8825 F   0  0  0  0  0  0  0  0  0  0  0  0
  -19.7538   -8.6777   22.2149 F   0  0  0  0  0  0  0  0  0  0  0  0
  1  2  1  0  0  0  0
  1  5  2  0  0  0  0
  2  6  2  0  0  0  0
  3  8  2  0  0  0  0
  3 17  1  0  0  0  0
  4  9  1  0  0  0  0
  4 17  2  0  0  0  0
  5 19  1  0  0  0  0
  6 21  1  0  0  0  0
  7 10  2  0  0  0  0
  7 20  1  0  0  0  0
  8 25  1  0  0  0  0
  9 25  2  0  0  0  0
 10 26  1  0  0  0  0
 11 12  2  0  0  0  0
 11 27  1  0  0  0  0
 12 29  1  0  0  0  0
 13 22  1  0  0  0  0
 13 26  2  0  0  0  0
 14 23  2  0  0  0  0
 14 28  1  0  0  0  0
 15 24  1  0  0  0  0
 15 30  2  0  0  0  0
 16 29  2  0  0  0  0
 16 31  1  0  0  0  0
 17 32  1  0  0  0  0
 18 32  1  0  0  0  0
 18 33  2  0  0  0  0
 18 34  1  0  0  0  0
 19 21  2  0  0  0  0
 19 39  1  0  0  0  0
 20 22  2  0  0  0  0
 20 40  1  0  0  0  0
 21 48  1  0  0  0  0
 22 41  1  0  0  0  0
 23 30  1  0  0  0  0
 23 69  1  0  0  0  0
 24 28  2  0  0  0  0
 24 70  1  0  0  0  0
 25 79  1  0  0  0  0
 26 81  1  0  0  0  0
 27 31  2  0  0  0  0
 27 79  1  0  0  0  0
 28 80  1  0  0  0  0
 29 82  1  0  0  0  0
 30 83  1  0  0  0  0
 31 84  1  0  0  0  0
 32 63  2  0  0  0  0
 33 64  1  0  0  0  0
 33 67  1  0  0  0  0
 34 68  1  0  0  0  0
 34 74  2  0  0  0  0
 35 49  1  0  0  0  0
 35 71  1  0  0  0  0
 35 75  2  0  0  0  0
 36 60  1  0  0  0  0
 36 65  1  0  0  0  0
 36 76  2  0  0  0  0
 37 61  1  0  0  0  0
 37 72  1  0  0  0  0
 37 77  2  0  0  0  0
 38 66  1  0  0  0  0
 38 69  1  0  0  0  0
 38 78  2  0  0  0  0
 39 42  1  0  0  0  0
 40 49  1  0  0  0  0
 41 65  1  0  0  0  0
 42 44  1  0  0  0  0
 43 45  1  0  0  0  0
 43 46  1  0  0  0  0
 44 48  1  0  0  0  0
 45 50  1  0  0  0  0
 46 66  1  0  0  0  0
 47 50  1  0  0  0  0
 47 66  1  0  0  0  0
 48 71  1  0  0  0  0
 49 65  1  0  0  0  0
 50 64  1  0  0  0  0
 51 61  1  0  0  0  0
 52 62  1  0  0  0  0
 53 62  1  0  0  0  0
 54 62  1  0  0  0  0
 55 73  1  0  0  0  0
 56 80  1  0  0  0  0
 57 58  1  0  0  0  0
 57 59  1  0  0  0  0
 58 70  1  0  0  0  0
 59 81  1  0  0  0  0
 60 62  1  0  0  0  0
 60 72  1  0  0  0  0
 61 73  1  0  0  0  0
 63 64  1  0  0  0  0
M  CHG  1  73   1
M  ISO  4  38 100  59 101  69 100  81 101
M  END
> <Batch ID>
0011

> <Smiles>
CNC(C)C(=O)NC(C(=O)N1Cc2cc([101O:1][101CH2:1]CCNc3cc(F)c([100NH:0][100C:0](=O)N4CCCC(n5nc(-c6ccc(Oc7ccc(F)cc7F)cc6)c(C(N)=O)c5N)C4)cc3OC)ccc2CC1C(=O)NC1CCCc2ccccc21)C(C)(C)C

> <Shape>
0.239

> <Color>
0.177

> <Negative vol penalty>
0.000

$$$$

  -OEChem-04052315443D

 82 90  0     1  0  0  0  0  0999 V2000
  -23.6153  -30.7372   20.2741 C   0  0  0  0  0  0  0  0  0  0  0  0
  -23.7865  -29.3636   20.4134 C   0  0  0  0  0  0  0  0  0  0  0  0
  -22.9549   -9.8821   20.0484 C   0  0  0  0  0  0  0  0  0  0  0  0
  -23.6106  -10.0717   22.3660 C   0  0  0  0  0  0  0  0  0  0  0  0
  -24.3551  -31.6145   21.0659 C   0  0  0  0  0  0  0  0  0  0  0  0
  -24.6984  -28.8666   21.3439 C   0  0  0  0  0  0  0  0  0  0  0  0
  -24.1653  -23.7336   24.6416 C   0  0  0  0  0  0  0  0  0  0  0  0
  -32.6567  -17.4530   23.3230 C   0  0  0  0  0  0  0  0  0  0  0  0
  -32.0756  -16.5113   22.4738 C   0  0  0  0  0  0  0  0  0  0  0  0
  -22.1555   -8.7837   20.3644 C   0  0  0  0  0  0  0  0  0  0  0  0
  -22.8111   -8.9733   22.6820 C   0  0  0  0  0  0  0  0  0  0  0  0
  -24.6886  -22.4523   24.4738 C   0  0  0  0  0  0  0  0  0  0  0  0
  -22.9949   -5.6061   22.4394 C   0  0  0  0  0  0  0  0  0  0  0  0
  -23.5364   -4.6295   23.2753 C   0  0  0  0  0  0  0  0  0  0  0  0
  -26.5035  -23.0050   25.9638 C   0  0  0  0  0  0  0  0  0  0  0  0
  -29.9028  -17.4871   22.8785 C   0  0  0  0  0  0  0  0  0  0  0  0
  -21.7682   -5.0184   24.8751 C   0  0  0  0  0  0  0  0  0  0  0  0
  -23.6825  -10.5261   21.0492 C   0  0  0  0  0  0  0  0  0  0  0  0
  -24.1292  -13.0161   20.7200 C   0  0  0  0  0  0  0  0  0  0  0  0
  -25.2695  -31.1278   22.0134 C   0  0  0  0  0  0  0  0  0  0  0  0
  -24.8141  -24.6654   25.4646 C   0  0  0  0  0  0  0  0  0  0  0  0
  -25.4521  -29.7382   22.1482 C   0  0  0  0  0  0  0  0  0  0  0  0
  -25.9849  -24.2966   26.1424 C   0  0  0  0  0  0  0  0  0  0  0  0
  -31.8608  -18.4117   23.9501 C   0  0  0  0  0  0  0  0  0  0  0  0
  -30.6987  -16.5284   22.2515 C   0  0  0  0  0  0  0  0  0  0  0  0
  -30.4839  -18.4288   23.7278 C   0  0  0  0  0  0  0  0  0  0  0  0
  -22.0835   -8.3293   21.6812 C   0  0  0  0  0  0  0  0  0  0  0  0
  -25.8595  -22.0888   25.1326 C   0  0  0  0  0  0  0  0  0  0  0  0
  -21.8401   -6.2889   22.8214 C   0  0  0  0  0  0  0  0  0  0  0  0
  -22.9230   -4.3357   24.4931 C   0  0  0  0  0  0  0  0  0  0  0  0
  -21.2267   -5.9950   24.0392 C   0  0  0  0  0  0  0  0  0  0  0  0
  -24.5090  -11.6605   20.7233 C   0  0  0  0  0  0  0  0  0  0  0  0
  -25.2654  -13.6901   20.3443 C   0  0  0  0  0  0  0  0  0  0  0  0
  -22.8626  -13.6126   21.0290 C   0  0  0  0  0  0  0  0  0  0  0  0
  -26.1629  -27.5069   25.0063 C   0  0  0  0  0  0  0  0  0  0  0  0
  -26.4366  -27.4640   28.2383 C   0  0  0  0  0  0  0  0  0  0  0  0
  -28.2819  -19.5371   24.2344 C   0  0  0  0  0  0  0  0  0  0  0  0
  -26.6104  -25.6234   31.1069 C   0  0  0  0  0  0  0  0  0  0  0  0
  -30.7553  -14.5533   20.6888 C   0  0  0  0  0  0  0  0  0  0  0  0
  -26.0809  -32.1158   22.8134 C   0  0  0  0  0  0  0  0  0  0  0  0
  -24.2222  -26.0348   25.6562 C   0  0  0  0  0  0  0  0  0  0  0  0
  -26.7086  -25.2533   27.0532 C   0  0  0  0  0  0  0  0  0  0  0  0
  -26.7537  -31.5013   24.0382 C   0  0  0  0  0  0  0  0  0  0  0  0
  -29.6538  -11.9741   18.4953 C   0  0  0  0  0  0  0  0  0  0  0  0
  -27.4341  -30.1866   23.6701 C   0  0  0  0  0  0  0  0  0  0  0  0
  -28.1859  -11.7741   18.8791 C   0  0  0  0  0  0  0  0  0  0  0  0
  -30.5223  -12.2792   19.7144 C   0  0  0  0  0  0  0  0  0  0  0  0
  -28.5853  -13.1939   20.9313 C   0  0  0  0  0  0  0  0  0  0  0  0
  -26.4136  -29.1601   23.1638 C   0  0  1  0  0  0  0  0  0  0  0  0
  -25.2457  -27.0696   26.1132 C   0  0  1  0  0  0  0  0  0  0  0  0
  -27.6604  -12.9482   19.7281 C   0  0  2  0  0  0  0  0  0  0  0  0
  -32.5104  -19.4080   24.8546 C   0  0  0  0  0  0  0  0  0  0  0  0
  -26.8708  -25.8670   33.5909 C   0  0  0  0  0  0  0  0  0  0  0  0
  -29.4125  -28.0272   27.8687 C   0  0  0  0  0  0  0  0  0  0  0  0
  -29.7696  -27.3233   30.2446 C   0  0  0  0  0  0  0  0  0  0  0  0
  -28.3339  -29.2981   29.7331 C   0  0  0  0  0  0  0  0  0  0  0  0
  -23.9840  -24.3606   31.6228 C   0  0  0  0  0  0  0  0  0  0  0  0
  -27.7891  -20.6998   25.0756 C   0  0  0  0  0  0  0  0  0  1  0  0
  -27.4775  -26.9760   29.2166 C   0  0  1  0  0  0  0  0  0  0  0  0
  -25.8882  -25.7580   32.4353 C   0  0  2  0  0  0  0  0  0  0  0  0
  -28.7360  -27.8885   29.2471 C   0  0  0  0  0  0  0  0  0  0  0  0
  -25.7866  -11.4822   20.3769 N   0  0  0  0  0  0  0  0  0  0  0  0
  -26.2194  -12.7345   20.1525 N   0  0  0  0  0  0  0  0  0  0  0  0
  -26.0938  -26.5826   27.2031 N   0  0  0  0  0  0  0  0  0  0  0  0
  -29.9657  -13.4050   20.4678 N   0  0  0  0  0  0  0  0  0  0  0  0
  -25.5314  -15.0010   20.1625 N   0  0  0  0  0  0  0  0  0  0  0  0
  -21.8013  -12.7744   21.3971 N   0  0  0  0  0  0  0  0  0  0  0  0
  -29.6599  -19.3933   24.3548 N   0  0  0  0  0  0  0  0  0  0  0  0
  -30.1089  -15.5715   21.3887 N   0  0  0  0  0  0  0  0  0  0  0  0
  -25.6891  -28.5781   24.2732 N   0  0  0  0  0  0  0  0  0  0  0  0
  -26.8008  -26.8482   30.5028 N   0  0  0  0  0  0  0  0  0  0  0  0
  -25.0140  -24.5744   32.6718 N   0  3  0  0  0  0  0  0  0  0  0  0
  -22.6729  -14.8509   20.9644 O   0  0  0  0  0  0  0  0  0  0  0  0
  -27.2227  -26.9171   24.8313 O   0  0  0  0  0  0  0  0  0  0  0  0
  -25.9404  -28.5829   28.3911 O   0  0  0  0  0  0  0  0  0  0  0  0
  -27.5120  -18.8583   23.5627 O   0  0  0  0  0  0  0  0  0  0  0  0
  -26.9730  -24.5406   30.6525 O   0  0  0  0  0  0  0  0  0  0  0  0
  -31.9101  -14.6385   20.2631 O   0  0  0  0  0  0  0  0  0  0  0  0
  -21.3033   -7.2576   21.9900 O   0  0  0  0  0  0  0  0  0  0  0  0
  -26.3728  -20.8390   24.9701 O   0  0  0  0  0  0  0  0  0  1  0  0
  -23.4423   -3.3968   25.2950 F   0  0  0  0  0  0  0  0  0  0  0  0
  -20.1164   -6.6468   24.4110 F   0  0  0  0  0  0  0  0  0  0  0  0
  1  2  1  0  0  0  0
  1  5  2  0  0  0  0
  2  6  2  0  0  0  0
  3 10  2  0  0  0  0
  3 18  1  0  0  0  0
  4 11  1  0  0  0  0
  4 18  2  0  0  0  0
  5 20  1  0  0  0  0
  6 22  1  0  0  0  0
  7 12  2  0  0  0  0
  7 21  1  0  0  0  0
  8  9  2  0  0  0  0
  8 24  1  0  0  0  0
  9 25  1  0  0  0  0
 10 27  1  0  0  0  0
 11 27  2  0  0  0  0
 12 28  1  0  0  0  0
 13 14  2  0  0  0  0
 13 29  1  0  0  0  0
 14 30  1  0  0  0  0
 15 23  1  0  0  0  0
 15 28  2  0  0  0  0
 16 25  2  0  0  0  0
 16 26  1  0  0  0  0
 17 30  2  0  0  0  0
 17 31  1  0  0  0  0
 18 32  1  0  0  0  0
 19 32  1  0  0  0  0
 19 33  2  0  0  0  0
 19 34  1  0  0  0  0
 20 22  2  0  0  0  0
 20 40  1  0  0  0  0
 21 23  2  0  0  0  0
 21 41  1  0  0  0  0
 22 49  1  0  0  0  0
 23 42  1  0  0  0  0
 24 26  2  0  0  0  0
 24 52  1  0  0  0  0
 25 69  1  0  0  0  0
 26 68  1  0  0  0  0
 27 79  1  0  0  0  0
 28 80  1  0  0  0  0
 29 31  2  0  0  0  0
 29 79  1  0  0  0  0
 30 81  1  0  0  0  0
 31 82  1  0  0  0  0
 32 62  2  0  0  0  0
 33 63  1  0  0  0  0
 33 66  1  0  0  0  0
 34 67  1  0  0  0  0
 34 73  2  0  0  0  0
 35 50  1  0  0  0  0
 35 70  1  0  0  0  0
 35 74  2  0  0  0  0
 36 59  1  0  0  0  0
 36 64  1  0  0  0  0
 36 75  2  0  0  0  0
 37 58  1  0  0  0  0
 37 68  1  0  0  0  0
 37 76  2  0  0  0  0
 38 60  1  0  0  0  0
 38 71  1  0  0  0  0
 38 77  2  0  0  0  0
 39 65  1  0  0  0  0
 39 69  1  0  0  0  0
 39 78  2  0  0  0  0
 40 43  1  0  0  0  0
 41 50  1  0  0  0  0
 42 64  1  0  0  0  0
 43 45  1  0  0  0  0
 44 46  1  0  0  0  0
 44 47  1  0  0  0  0
 45 49  1  0  0  0  0
 46 51  1  0  0  0  0
 47 65  1  0  0  0  0
 48 51  1  0  0  0  0
 48 65  1  0  0  0  0
 49 70  1  0  0  0  0
 50 64  1  0  0  0  0
 51 63  1  0  0  0  0
 53 60  1  0  0  0  0
 54 61  1  0  0  0  0
 55 61  1  0  0  0  0
 56 61  1  0  0  0  0
 57 72  1  0  0  0  0
 58 80  1  0  0  0  0
 59 61  1  0  0  0  0
 59 71  1  0  0  0  0
 60 72  1  0  0  0  0
 62 63  1  0  0  0  0
M  CHG  1  72   1
M  ISO  4  39 100  58 101  69 100  80 101
M  END
> <Batch ID>
0011

> <Smiles>
CNC(C)C(=O)NC(C(=O)N1Cc2cc([101O:1][101CH2:1]C(=O)Nc3cc([100NH:0][100C:0](=O)N4CCCC(n5nc(-c6ccc(Oc7ccc(F)cc7F)cc6)c(C(N)=O)c5N)C4)ccc3C)ccc2CC1C(=O)NC1CCCc2ccccc21)C(C)(C)C

> <Shape>
0.240

> <Color>
0.214

> <Negative vol penalty>
0.000

$$$$

  -OEChem-04052315443D

 83 91  0     1  0  0  0  0  0999 V2000
  -17.9933  -25.2503   21.8439 C   0  0  0  0  0  0  0  0  0  0  0  0
  -19.2625  -24.7817   22.1678 C   0  0  0  0  0  0  0  0  0  0  0  0
  -23.8215   -9.8878   21.6507 C   0  0  0  0  0  0  0  0  0  0  0  0
  -24.3997  -11.0310   23.6991 C   0  0  0  0  0  0  0  0  0  0  0  0
  -17.8437  -26.5069   21.2585 C   0  0  0  0  0  0  0  0  0  0  0  0
  -20.3831  -25.5690   21.9055 C   0  0  0  0  0  0  0  0  0  0  0  0
  -25.5029  -25.9157   25.2481 C   0  0  0  0  0  0  0  0  0  0  0  0
  -31.4184  -20.1023   21.3150 C   0  0  0  0  0  0  0  0  0  0  0  0
  -31.0814  -18.8158   20.8944 C   0  0  0  0  0  0  0  0  0  0  0  0
  -23.3059   -8.8235   22.3902 C   0  0  0  0  0  0  0  0  0  0  0  0
  -23.8840   -9.9666   24.4386 C   0  0  0  0  0  0  0  0  0  0  0  0
  -26.7520  -25.3106   25.1161 C   0  0  0  0  0  0  0  0  0  0  0  0
  -20.4791   -8.1221   24.1079 C   0  0  0  0  0  0  0  0  0  0  0  0
  -19.2454   -7.6002   23.7192 C   0  0  0  0  0  0  0  0  0  0  0  0
  -27.5764  -27.2735   23.9818 C   0  0  0  0  0  0  0  0  0  0  0  0
  -29.0742  -20.6462   21.5296 C   0  0  0  0  0  0  0  0  0  0  0  0
  -20.2728   -5.4444   23.3529 C   0  0  0  0  0  0  0  0  0  0  0  0
  -24.3686  -10.9916   22.3052 C   0  0  0  0  0  0  0  0  0  0  0  0
  -24.2093  -13.2341   21.0997 C   0  0  0  0  0  0  0  0  0  0  0  0
  -18.9623  -27.3140   20.9977 C   0  0  0  0  0  0  0  0  0  0  0  0
  -25.2777  -27.2021   24.7373 C   0  0  0  0  0  0  0  0  0  0  0  0
  -20.2485  -26.8370   21.3148 C   0  0  0  0  0  0  0  0  0  0  0  0
  -26.3242  -27.8937   24.1108 C   0  0  0  0  0  0  0  0  0  0  0  0
  -30.4148  -21.0175   21.6327 C   0  0  0  0  0  0  0  0  0  0  0  0
  -29.7408  -18.4445   20.7913 C   0  0  0  0  0  0  0  0  0  0  0  0
  -23.3371   -8.8629   23.7842 C   0  0  0  0  0  0  0  0  0  0  0  0
  -27.7882  -25.9884   24.4803 C   0  0  0  0  0  0  0  0  0  0  0  0
  -21.6097   -7.3052   24.1191 C   0  0  0  0  0  0  0  0  0  0  0  0
  -19.1422   -6.2614   23.3417 C   0  0  0  0  0  0  0  0  0  0  0  0
  -28.7372  -19.3597   21.1089 C   0  0  0  0  0  0  0  0  0  0  0  0
  -21.5065   -5.9664   23.7416 C   0  0  0  0  0  0  0  0  0  0  0  0
  -24.9019  -12.0911   21.5418 C   0  0  0  0  0  0  0  0  0  0  0  0
  -25.1537  -13.9681   20.4245 C   0  0  0  0  0  0  0  0  0  0  0  0
  -22.8351  -13.5998   21.2829 C   0  0  0  0  0  0  0  0  0  0  0  0
  -23.3525  -28.4330   22.5278 C   0  0  0  0  0  0  0  0  0  0  0  0
  -24.5538  -31.2463   23.6068 C   0  0  0  0  0  0  0  0  0  0  0  0
  -29.8906  -23.3543   22.4128 C   0  0  0  0  0  0  0  0  0  0  0  0
  -27.0962  -32.9018   25.1695 C   0  0  0  0  0  0  0  0  0  0  0  0
  -30.2765  -16.1102   20.0100 C   0  0  0  0  0  0  0  0  0  0  0  0
  -18.7547  -28.6454   20.3203 C   0  0  0  0  0  0  0  0  0  0  0  0
  -23.9322  -27.8515   24.9114 C   0  0  0  0  0  0  0  0  0  0  0  0
  -26.1397  -29.2846   23.5632 C   0  0  0  0  0  0  0  0  0  0  0  0
  -19.9625  -29.5737   20.4186 C   0  0  0  0  0  0  0  0  0  0  0  0
  -29.8355  -12.7429   18.9405 C   0  0  0  0  0  0  0  0  0  0  0  0
  -21.2445  -28.8194   20.0805 C   0  0  0  0  0  0  0  0  0  0  0  0
  -28.4556  -12.3671   19.4856 C   0  0  0  0  0  0  0  0  0  0  0  0
  -30.5990  -13.6485   19.9052 C   0  0  0  0  0  0  0  0  0  0  0  0
  -28.4927  -14.4743   20.8804 C   0  0  0  0  0  0  0  0  0  0  0  0
  -21.4864  -27.6719   21.0685 C   0  0  1  0  0  0  0  0  0  0  0  0
  -23.6688  -28.9613   23.8983 C   0  0  1  0  0  0  0  0  0  0  0  0
  -27.6601  -13.6156   19.9145 C   0  0  2  0  0  0  0  0  0  0  0  0
  -27.8105  -35.2026   25.8719 C   0  0  0  0  0  0  0  0  0  0  0  0
  -25.2836  -31.8992   20.7170 C   0  0  0  0  0  0  0  0  0  0  0  0
  -26.7980  -33.6970   21.5789 C   0  0  0  0  0  0  0  0  0  0  0  0
  -24.3450  -33.8196   22.0153 C   0  0  0  0  0  0  0  0  0  0  0  0
  -27.1536  -32.1375   28.0281 C   0  0  0  0  0  0  0  0  0  0  0  0
  -30.6769  -24.5979   22.8118 C   0  0  0  0  0  0  0  0  0  0  0  0
  -29.7869  -25.7651   23.2110 C   0  0  0  0  0  0  0  0  0  1  0  0
  -25.7395  -32.1097   23.2495 C   0  0  1  0  0  0  0  0  0  0  0  0
  -27.0925  -33.9282   26.2879 C   0  0  2  0  0  0  0  0  0  0  0  0
  -25.5448  -32.8544   21.8987 C   0  0  0  0  0  0  0  0  0  0  0  0
  -26.1871  -12.0940   21.1780 N   0  0  0  0  0  0  0  0  0  0  0  0
  -26.3095  -13.2479   20.5000 N   0  0  0  0  0  0  0  0  0  0  0  0
  -24.8042  -29.8745   23.7524 N   0  0  0  0  0  0  0  0  0  0  0  0
  -29.7853  -14.8121   20.2640 N   0  0  0  0  0  0  0  0  0  0  0  0
  -25.1000  -15.1527   19.7794 N   0  0  0  0  0  0  0  0  0  0  0  0
  -22.0027  -12.7311   22.0018 N   0  0  0  0  0  0  0  0  0  0  0  0
  -30.7565  -22.3230   22.0589 N   0  0  0  0  0  0  0  0  0  0  0  0
  -29.4016  -17.1371   20.3631 N   0  0  0  0  0  0  0  0  0  0  0  0
  -22.0099  -28.1823   22.3175 N   0  0  0  0  0  0  0  0  0  0  0  0
  -25.9617  -32.9907   24.3910 N   0  0  0  0  0  0  0  0  0  0  0  0
  -27.7706  -33.3799   27.4964 N   0  3  0  0  0  0  0  0  0  0  0  0
  -22.3555  -14.6575   20.8088 O   0  0  0  0  0  0  0  0  0  0  0  0
  -24.2591  -28.2665   21.7203 O   0  0  0  0  0  0  0  0  0  0  0  0
  -23.4476  -31.7708   23.7583 O   0  0  0  0  0  0  0  0  0  0  0  0
  -28.6644  -23.3265   22.4216 O   0  0  0  0  0  0  0  0  0  0  0  0
  -28.0155  -32.1037   25.0009 O   0  0  0  0  0  0  0  0  0  0  0  0
  -31.3799  -16.2964   19.4905 O   0  0  0  0  0  0  0  0  0  0  0  0
  -22.8337   -7.8246   24.5061 O   0  0  0  0  0  0  0  0  0  0  0  0
  -29.0082  -25.3998   24.3496 O   0  0  0  0  0  0  0  0  0  1  0  0
  -17.9571   -5.7600   22.9698 F   0  0  0  0  0  0  0  0  0  0  0  0
  -27.4453  -19.0144   21.0120 F   0  0  0  0  0  0  0  0  0  0  0  0
  -22.5890   -5.1764   23.7515 F   0  0  0  0  0  0  0  0  0  0  0  0
  1  2  1  0  0  0  0
  1  5  2  0  0  0  0
  2  6  2  0  0  0  0
  3 10  2  0  0  0  0
  3 18  1  0  0  0  0
  4 11  1  0  0  0  0
  4 18  2  0  0  0  0
  5 20  1  0  0  0  0
  6 22  1  0  0  0  0
  7 12  2  0  0  0  0
  7 21  1  0  0  0  0
  8  9  2  0  0  0  0
  8 24  1  0  0  0  0
  9 25  1  0  0  0  0
 10 26  1  0  0  0  0
 11 26  2  0  0  0  0
 12 27  1  0  0  0  0
 13 14  2  0  0  0  0
 13 28  1  0  0  0  0
 14 29  1  0  0  0  0
 15 23  1  0  0  0  0
 15 27  2  0  0  0  0
 16 24  2  0  0  0  0
 16 30  1  0  0  0  0
 17 29  2  0  0  0  0
 17 31  1  0  0  0  0
 18 32  1  0  0  0  0
 19 32  1  0  0  0  0
 19 33  2  0  0  0  0
 19 34  1  0  0  0  0
 20 22  2  0  0  0  0
 20 40  1  0  0  0  0
 21 23  2  0  0  0  0
 21 41  1  0  0  0  0
 22 49  1  0  0  0  0
 23 42  1  0  0  0  0
 24 68  1  0  0  0  0
 25 30  2  0  0  0  0
 25 69  1  0  0  0  0
 26 79  1  0  0  0  0
 27 80  1  0  0  0  0
 28 31  2  0  0  0  0
 28 79  1  0  0  0  0
 29 81  1  0  0  0  0
 30 82  1  0  0  0  0
 31 83  1  0  0  0  0
 32 62  2  0  0  0  0
 33 63  1  0  0  0  0
 33 66  1  0  0  0  0
 34 67  1  0  0  0  0
 34 73  2  0  0  0  0
 35 50  1  0  0  0  0
 35 70  1  0  0  0  0
 35 74  2  0  0  0  0
 36 59  1  0  0  0  0
 36 64  1  0  0  0  0
 36 75  2  0  0  0  0
 37 57  1  0  0  0  0
 37 68  1  0  0  0  0
 37 76  2  0  0  0  0
 38 60  1  0  0  0  0
 38 71  1  0  0  0  0
 38 77  2  0  0  0  0
 39 65  1  0  0  0  0
 39 69  1  0  0  0  0
 39 78  2  0  0  0  0
 40 43  1  0  0  0  0
 41 50  1  0  0  0  0
 42 64  1  0  0  0  0
 43 45  1  0  0  0  0
 44 46  1  0  0  0  0
 44 47  1  0  0  0  0
 45 49  1  0  0  0  0
 46 51  1  0  0  0  0
 47 65  1  0  0  0  0
 48 51  1  0  0  0  0
 48 65  1  0  0  0  0
 49 70  1  0  0  0  0
 50 64  1  0  0  0  0
 51 63  1  0  0  0  0
 52 60  1  0  0  0  0
 53 61  1  0  0  0  0
 54 61  1  0  0  0  0
 55 61  1  0  0  0  0
 56 72  1  0  0  0  0
 57 58  1  0  0  0  0
 58 80  1  0  0  0  0
 59 61  1  0  0  0  0
 59 71  1  0  0  0  0
 60 72  1  0  0  0  0
 62 63  1  0  0  0  0
M  CHG  1  72   1
M  ISO  4  39 100  58 101  69 100  80 101
M  END
> <Batch ID>
0011

> <Smiles>
CNC(C)C(=O)NC(C(=O)N1Cc2cc([101O:1][101CH2:1]CC(=O)Nc3ccc([100NH:0][100C:0](=O)N4CCCC(n5nc(-c6ccc(Oc7ccc(F)cc7F)cc6)c(C(N)=O)c5N)C4)c(F)c3)ccc2CC1C(=O)NC1CCCc2ccccc21)C(C)(C)C

> <Shape>
0.285

> <Color>
0.134

> <Negative vol penalty>
0.000

$$$$

  -OEChem-04052315443D

 84 92  0     1  0  0  0  0  0999 V2000
  -34.0581  -28.8455   30.9830 C   0  0  0  0  0  0  0  0  0  0  0  0
  -34.4851  -27.6140   30.4966 C   0  0  0  0  0  0  0  0  0  0  0  0
  -23.0733   -9.8689   19.9429 C   0  0  0  0  0  0  0  0  0  0  0  0
  -23.8311   -9.8782   22.2369 C   0  0  0  0  0  0  0  0  0  0  0  0
  -33.2858  -29.6818   30.1780 C   0  0  0  0  0  0  0  0  0  0  0  0
  -34.1391  -27.2177   29.2052 C   0  0  0  0  0  0  0  0  0  0  0  0
  -37.5358  -23.8986   25.3385 C   0  0  0  0  0  0  0  0  0  0  0  0
  -31.8562  -18.3587   24.1989 C   0  0  0  0  0  0  0  0  0  0  0  0
  -22.3284   -8.7166   20.1936 C   0  0  0  0  0  0  0  0  0  0  0  0
  -23.0862   -8.7259   22.4877 C   0  0  0  0  0  0  0  0  0  0  0  0
  -37.5323  -22.5427   25.0137 C   0  0  0  0  0  0  0  0  0  0  0  0
  -22.8980   -5.3981   20.4892 C   0  0  0  0  0  0  0  0  0  0  0  0
  -30.4704  -18.3434   24.0413 C   0  0  0  0  0  0  0  0  0  0  0  0
  -22.9650   -4.3673   19.5520 C   0  0  0  0  0  0  0  0  0  0  0  0
  -36.1388  -23.0107   23.1010 C   0  0  0  0  0  0  0  0  0  0  0  0
  -32.0632  -16.6055   22.5495 C   0  0  0  0  0  0  0  0  0  0  0  0
  -20.5809   -4.5344   19.1979 C   0  0  0  0  0  0  0  0  0  0  0  0
  -23.8248  -10.4497   20.9645 C   0  0  0  0  0  0  0  0  0  0  0  0
  -24.1685  -12.9744   20.8416 C   0  0  0  0  0  0  0  0  0  0  0  0
  -32.9383  -29.2998   28.8727 C   0  0  0  0  0  0  0  0  0  0  0  0
  -36.8306  -24.8207   24.5519 C   0  0  0  0  0  0  0  0  0  0  0  0
  -33.3603  -28.0492   28.3825 C   0  0  0  0  0  0  0  0  0  0  0  0
  -36.1370  -24.3780   23.4165 C   0  0  0  0  0  0  0  0  0  0  0  0
  -32.6527  -17.4898   23.4529 C   0  0  0  0  0  0  0  0  0  0  0  0
  -30.6773  -16.5901   22.3920 C   0  0  0  0  0  0  0  0  0  0  0  0
  -22.3348   -8.1451   21.4660 C   0  0  0  0  0  0  0  0  0  0  0  0
  -36.8314  -22.0982   23.8964 C   0  0  0  0  0  0  0  0  0  0  0  0
  -21.6725   -5.9970   20.7809 C   0  0  0  0  0  0  0  0  0  0  0  0
  -21.8064   -3.9354   18.9063 C   0  0  0  0  0  0  0  0  0  0  0  0
  -29.8809  -17.4590   23.1379 C   0  0  0  0  0  0  0  0  0  0  0  0
  -20.5140   -5.5652   20.1352 C   0  0  0  0  0  0  0  0  0  0  0  0
  -24.5949  -11.6397   20.7060 C   0  0  0  0  0  0  0  0  0  0  0  0
  -25.2616  -13.7227   20.4784 C   0  0  0  0  0  0  0  0  0  0  0  0
  -22.8981  -13.4917   21.2588 C   0  0  0  0  0  0  0  0  0  0  0  0
  -34.4067  -26.8128   25.0614 C   0  0  0  0  0  0  0  0  0  0  0  0
  -35.0828  -27.7882   22.0425 C   0  0  0  0  0  0  0  0  0  0  0  0
  -34.7741  -18.6898   23.9780 C   0  0  0  0  0  0  0  0  0  0  0  0
  -36.4498  -27.0620   19.0010 C   0  0  0  0  0  0  0  0  0  0  0  0
  -30.7283  -14.7645   20.6567 C   0  0  0  0  0  0  0  0  0  0  0  0
  -32.0621  -30.2170   28.0568 C   0  0  0  0  0  0  0  0  0  0  0  0
  -36.8663  -26.2835   24.9005 C   0  0  0  0  0  0  0  0  0  0  0  0
  -35.3809  -25.3303   22.5278 C   0  0  0  0  0  0  0  0  0  0  0  0
  -32.0537  -29.8852   26.5668 C   0  0  0  0  0  0  0  0  0  0  0  0
  -29.6143  -12.3485   18.2905 C   0  0  0  0  0  0  0  0  0  0  0  0
  -31.8699  -28.3858   26.3549 C   0  0  0  0  0  0  0  0  0  0  0  0
  -28.1741  -12.0585   18.7191 C   0  0  0  0  0  0  0  0  0  0  0  0
  -30.5285  -12.5782   19.4927 C   0  0  0  0  0  0  0  0  0  0  0  0
  -28.6208  -13.3058   20.8713 C   0  0  0  0  0  0  0  0  0  0  0  0
  -33.0263  -27.5947   26.9782 C   0  0  1  0  0  0  0  0  0  0  0  0
  -35.6903  -27.0644   24.3221 C   0  0  1  0  0  0  0  0  0  0  0  0
  -27.6490  -13.1317   19.6928 C   0  0  2  0  0  0  0  0  0  0  0  0
  -36.8171  -28.0443   16.7212 C   0  0  0  0  0  0  0  0  0  0  0  0
  -32.1495  -27.2968   21.3608 C   0  0  0  0  0  0  0  0  0  0  0  0
  -32.7733  -27.3669   18.9371 C   0  0  0  0  0  0  0  0  0  0  0  0
  -33.1160  -29.3798   20.3701 C   0  0  0  0  0  0  0  0  0  0  0  0
  -34.7811  -16.2117   23.4914 C   0  0  0  0  0  0  0  0  0  0  0  0
  -39.3914  -26.8749   19.2671 C   0  0  0  0  0  0  0  0  0  0  0  0
  -36.2666  -18.5358   24.2718 C   0  0  0  0  0  0  0  0  0  0  0  0
  -36.9429  -19.8470   24.6549 C   0  0  0  0  0  0  0  0  0  1  0  0
  -34.6333  -27.3785   20.6608 C   0  0  1  0  0  0  0  0  0  0  0  0
  -37.4000  -27.8430   18.1114 C   0  0  2  0  0  0  0  0  0  0  0  0
  -33.1806  -27.8370   20.3498 C   0  0  0  0  0  0  0  0  0  0  0  0
  -25.8601  -11.5424   20.2890 N   0  0  0  0  0  0  0  0  0  0  0  0
  -26.2381  -12.8255   20.1594 N   0  0  0  0  0  0  0  0  0  0  0  0
  -35.4407  -26.7498   22.9139 N   0  0  0  0  0  0  0  0  0  0  0  0
  -29.9695  -13.6105   20.3683 N   0  0  0  0  0  0  0  0  0  0  0  0
  -25.4730  -15.0539   20.4039 N   0  0  0  0  0  0  0  0  0  0  0  0
  -21.8852  -12.5837   21.5963 N   0  0  0  0  0  0  0  0  0  0  0  0
  -30.0809  -15.6911   21.4734 N   0  0  0  0  0  0  0  0  0  0  0  0
  -34.1984  -27.6614   26.1319 N   0  0  0  0  0  0  0  0  0  0  0  0
  -35.6347  -27.8973   19.7353 N   0  0  0  0  0  0  0  0  0  0  0  0
  -34.0925  -17.5059   23.6168 N   0  0  0  0  0  0  0  0  0  0  0  0
  -38.6962  -27.1200   17.9773 N   0  3  0  0  0  0  0  0  0  0  0  0
  -22.6626  -14.7226   21.3143 O   0  0  0  0  0  0  0  0  0  0  0  0
  -33.6597  -25.9162   24.6874 O   0  0  0  0  0  0  0  0  0  0  0  0
  -35.1218  -28.9858   22.3354 O   0  0  0  0  0  0  0  0  0  0  0  0
  -34.2455  -19.7980   24.0969 O   0  0  0  0  0  0  0  0  0  0  0  0
  -36.4298  -25.8336   19.0379 O   0  0  0  0  0  0  0  0  0  0  0  0
  -31.8580  -14.9318   20.1899 O   0  0  0  0  0  0  0  0  0  0  0  0
  -21.6078   -7.0209   21.7111 O   0  0  0  0  0  0  0  0  0  0  0  0
  -36.8258  -20.7753   23.5775 O   0  0  0  0  0  0  0  0  0  1  0  0
  -21.8711   -2.9466   18.0051 F   0  0  0  0  0  0  0  0  0  0  0  0
  -28.5481  -17.4530   22.9953 F   0  0  0  0  0  0  0  0  0  0  0  0
  -19.3339   -6.1375   20.4104 F   0  0  0  0  0  0  0  0  0  0  0  0
  1  2  1  0  0  0  0
  1  5  2  0  0  0  0
  2  6  2  0  0  0  0
  3  9  2  0  0  0  0
  3 18  1  0  0  0  0
  4 10  1  0  0  0  0
  4 18  2  0  0  0  0
  5 20  1  0  0  0  0
  6 22  1  0  0  0  0
  7 11  2  0  0  0  0
  7 21  1  0  0  0  0
  8 13  2  0  0  0  0
  8 24  1  0  0  0  0
  9 26  1  0  0  0  0
 10 26  2  0  0  0  0
 11 27  1  0  0  0  0
 12 14  2  0  0  0  0
 12 28  1  0  0  0  0
 13 30  1  0  0  0  0
 14 29  1  0  0  0  0
 15 23  1  0  0  0  0
 15 27  2  0  0  0  0
 16 24  2  0  0  0  0
 16 25  1  0  0  0  0
 17 29  2  0  0  0  0
 17 31  1  0  0  0  0
 18 32  1  0  0  0  0
 19 32  1  0  0  0  0
 19 33  2  0  0  0  0
 19 34  1  0  0  0  0
 20 22  2  0  0  0  0
 20 40  1  0  0  0  0
 21 23  2  0  0  0  0
 21 41  1  0  0  0  0
 22 49  1  0  0  0  0
 23 42  1  0  0  0  0
 24 72  1  0  0  0  0
 25 30  2  0  0  0  0
 25 69  1  0  0  0  0
 26 80  1  0  0  0  0
 27 81  1  0  0  0  0
 28 31  2  0  0  0  0
 28 80  1  0  0  0  0
 29 82  1  0  0  0  0
 30 83  1  0  0  0  0
 31 84  1  0  0  0  0
 32 63  2  0  0  0  0
 33 64  1  0  0  0  0
 33 67  1  0  0  0  0
 34 68  1  0  0  0  0
 34 74  2  0  0  0  0
 35 50  1  0  0  0  0
 35 70  1  0  0  0  0
 35 75  2  0  0  0  0
 36 60  1  0  0  0  0
 36 65  1  0  0  0  0
 36 76  2  0  0  0  0
 37 58  1  0  0  0  0
 37 72  1  0  0  0  0
 37 77  2  0  0  0  0
 38 61  1  0  0  0  0
 38 71  1  0  0  0  0
 38 78  2  0  0  0  0
 39 66  1  0  0  0  0
 39 69  1  0  0  0  0
 39 79  2  0  0  0  0
 40 43  1  0  0  0  0
 41 50  1  0  0  0  0
 42 65  1  0  0  0  0
 43 45  1  0  0  0  0
 44 46  1  0  0  0  0
 44 47  1  0  0  0  0
 45 49  1  0  0  0  0
 46 51  1  0  0  0  0
 47 66  1  0  0  0  0
 48 51  1  0  0  0  0
 48 66  1  0  0  0  0
 49 70  1  0  0  0  0
 50 65  1  0  0  0  0
 51 64  1  0  0  0  0
 52 61  1  0  0  0  0
 53 62  1  0  0  0  0
 54 62  1  0  0  0  0
 55 62  1  0  0  0  0
 56 72  1  0  0  0  0
 57 73  1  0  0  0  0
 58 59  1  0  0  0  0
 59 81  1  0  0  0  0
 60 62  1  0  0  0  0
 60 71  1  0  0  0  0
 61 73  1  0  0  0  0
 63 64  1  0  0  0  0
M  CHG  1  73   1
M  ISO  4  39 100  59 101  69 100  81 101
M  END
> <Batch ID>
0011

> <Smiles>
CNC(C)C(=O)NC(C(=O)N1Cc2cc([101O:1][101CH2:1]CC(=O)N(C)c3ccc(F)c([100NH:0][100C:0](=O)N4CCCC(n5nc(-c6ccc(Oc7ccc(F)cc7F)cc6)c(C(N)=O)c5N)C4)c3)ccc2CC1C(=O)NC1CCCc2ccccc21)C(C)(C)C

> <Shape>
0.155

> <Color>
0.196

> <Negative vol penalty>
0.000

$$$$

  -OEChem-04052315443D

 83 91  0     1  0  0  0  0  0999 V2000
  -28.1519  -34.5058   14.8843 C   0  0  0  0  0  0  0  0  0  0  0  0
  -28.3146  -33.2094   15.3619 C   0  0  0  0  0  0  0  0  0  0  0  0
  -24.6946   -9.0043   21.6628 C   0  0  0  0  0  0  0  0  0  0  0  0
  -22.9374  -10.3712   20.7242 C   0  0  0  0  0  0  0  0  0  0  0  0
  -27.7765  -35.5268   15.7564 C   0  0  0  0  0  0  0  0  0  0  0  0
  -28.1031  -32.9334   16.7123 C   0  0  0  0  0  0  0  0  0  0  0  0
  -25.7714  -27.7978   19.0989 C   0  0  0  0  0  0  0  0  0  0  0  0
  -23.7627   -8.3707   22.4848 C   0  0  0  0  0  0  0  0  0  0  0  0
  -22.0055   -9.7375   21.5462 C   0  0  0  0  0  0  0  0  0  0  0  0
  -26.3671  -26.6752   19.6721 C   0  0  0  0  0  0  0  0  0  0  0  0
  -21.4208   -5.9497   22.1904 C   0  0  0  0  0  0  0  0  0  0  0  0
  -21.4845   -4.5599   22.2914 C   0  0  0  0  0  0  0  0  0  0  0  0
  -26.0378  -27.6273   21.8640 C   0  0  0  0  0  0  0  0  0  0  0  0
  -25.8901  -19.3459   20.0003 C   0  0  0  0  0  0  0  0  0  0  0  0
  -24.1879  -18.1639   18.7584 C   0  0  0  0  0  0  0  0  0  0  0  0
  -21.8522   -4.7498   24.6717 C   0  0  0  0  0  0  0  0  0  0  0  0
  -24.2819  -10.0046   20.7825 C   0  0  0  0  0  0  0  0  0  0  0  0
  -25.6363  -10.2745   18.6376 C   0  0  0  0  0  0  0  0  0  0  0  0
  -27.5508  -35.2613   17.1163 C   0  0  0  0  0  0  0  0  0  0  0  0
  -25.3135  -28.8503   19.9045 C   0  0  0  0  0  0  0  0  0  0  0  0
  -27.7256  -33.9520   17.6037 C   0  0  0  0  0  0  0  0  0  0  0  0
  -25.4344  -28.7610   21.2987 C   0  0  0  0  0  0  0  0  0  0  0  0
  -25.4408  -18.1849   19.3712 C   0  0  0  0  0  0  0  0  0  0  0  0
  -25.0865  -20.4859   20.0167 C   0  0  0  0  0  0  0  0  0  0  0  0
  -22.4182   -8.7373   22.4265 C   0  0  0  0  0  0  0  0  0  0  0  0
  -26.5030  -26.5911   21.0547 C   0  0  0  0  0  0  0  0  0  0  0  0
  -21.5728   -6.7395   23.3301 C   0  0  0  0  0  0  0  0  0  0  0  0
  -21.7002   -3.9600   23.5320 C   0  0  0  0  0  0  0  0  0  0  0  0
  -23.3843  -19.3040   18.7747 C   0  0  0  0  0  0  0  0  0  0  0  0
  -21.7885   -6.1395   24.5707 C   0  0  0  0  0  0  0  0  0  0  0  0
  -23.8336  -20.4650   19.4039 C   0  0  0  0  0  0  0  0  0  0  0  0
  -25.2442  -10.6599   19.9335 C   0  0  0  0  0  0  0  0  0  0  0  0
  -26.5654  -11.2152   18.2659 C   0  0  0  0  0  0  0  0  0  0  0  0
  -25.1996   -9.1652   17.8410 C   0  0  0  0  0  0  0  0  0  0  0  0
  -26.0397  -31.9310   20.1972 C   0  0  0  0  0  0  0  0  0  0  0  0
  -23.5112  -31.9334   22.2291 C   0  0  0  0  0  0  0  0  0  0  0  0
  -21.4731  -30.1669   24.3202 C   0  0  0  0  0  0  0  0  0  0  0  0
  -27.5252  -16.8782   19.9134 C   0  0  0  0  0  0  0  0  0  0  0  0
  -27.1923  -36.4066   18.0297 C   0  0  0  0  0  0  0  0  0  0  0  0
  -24.6491  -30.0424   19.2723 C   0  0  0  0  0  0  0  0  0  0  0  0
  -24.9408  -29.8547   22.2090 C   0  0  0  0  0  0  0  0  0  0  0  0
  -26.6230  -35.9588   19.3735 C   0  0  0  0  0  0  0  0  0  0  0  0
  -29.8395  -14.1801   20.1164 C   0  0  0  0  0  0  0  0  0  0  0  0
  -27.4744  -34.8416   19.9683 C   0  0  0  0  0  0  0  0  0  0  0  0
  -28.9601  -12.9363   19.9685 C   0  0  0  0  0  0  0  0  0  0  0  0
  -29.1398  -15.2775   20.9163 C   0  0  0  0  0  0  0  0  0  0  0  0
  -26.9262  -14.4037   20.2792 C   0  0  0  0  0  0  0  0  0  0  0  0
  -27.4811  -33.6083   19.0570 C   0  0  1  0  0  0  0  0  0  0  0  0
  -24.6838  -31.2848   20.1570 C   0  0  1  0  0  0  0  0  0  0  0  0
  -27.5631  -13.2952   19.4254 C   0  0  2  0  0  0  0  0  0  0  0  0
  -19.5194  -30.4494   25.8696 C   0  0  0  0  0  0  0  0  0  0  0  0
  -25.3523  -33.1783   24.3197 C   0  0  0  0  0  0  0  0  0  0  0  0
  -23.6687  -32.5628   26.0676 C   0  0  0  0  0  0  0  0  0  0  0  0
  -23.0494  -34.1507   24.2462 C   0  0  0  0  0  0  0  0  0  0  0  0
  -19.7943  -28.3225   22.7269 C   0  0  0  0  0  0  0  0  0  0  0  0
  -26.9780  -23.1211   21.9391 C   0  0  0  0  0  0  0  0  0  0  0  0
  -26.8149  -21.7473   21.3001 C   0  0  0  0  0  0  0  0  0  0  0  0
  -26.9422  -24.2575   20.9239 C   0  0  0  0  0  0  0  0  0  1  0  0
  -23.3284  -31.6961   23.7087 C   0  0  1  0  0  0  0  0  0  0  0  0
  -19.9615  -30.1210   24.4521 C   0  0  2  0  0  0  0  0  0  0  0  0
  -23.8608  -32.8770   24.5685 C   0  0  0  0  0  0  0  0  0  0  0  0
  -25.8729  -11.7598   20.3567 N   0  0  0  0  0  0  0  0  0  0  0  0
  -26.6696  -12.0734   19.3208 N   0  0  0  0  0  0  0  0  0  0  0  0
  -24.3040  -31.0027   21.5427 N   0  0  0  0  0  0  0  0  0  0  0  0
  -27.8244  -15.5674   20.3413 N   0  0  0  0  0  0  0  0  0  0  0  0
  -27.2953  -11.3837   17.1428 N   0  0  0  0  0  0  0  0  0  0  0  0
  -24.2389   -8.2959   18.3755 N   0  0  0  0  0  0  0  0  0  0  0  0
  -26.2566  -17.0265   19.3537 N   0  0  0  0  0  0  0  0  0  0  0  0
  -25.5350  -21.6385   20.6428 N   0  0  0  0  0  0  0  0  0  0  0  0
  -26.2469  -32.8664   19.2014 N   0  0  0  0  0  0  0  0  0  0  0  0
  -21.9120  -31.4059   23.9037 N   0  0  0  0  0  0  0  0  0  0  0  0
  -19.4521  -28.7646   24.1033 N   0  3  0  0  0  0  0  0  0  0  0  0
  -25.6600   -8.9419   16.6957 O   0  0  0  0  0  0  0  0  0  0  0  0
  -26.8382  -31.6061   21.0681 O   0  0  0  0  0  0  0  0  0  0  0  0
  -22.9645  -32.9047   21.7004 O   0  0  0  0  0  0  0  0  0  0  0  0
  -22.1929  -29.2015   24.5660 O   0  0  0  0  0  0  0  0  0  0  0  0
  -28.3448  -17.7953   20.0097 O   0  0  0  0  0  0  0  0  0  0  0  0
  -21.5085   -8.1190   23.2283 O   0  0  0  0  0  0  0  0  0  0  0  0
  -27.0847  -25.4968   21.6169 O   0  0  0  0  0  0  0  0  0  1  0  0
  -21.7598   -2.6254   23.6291 F   0  0  0  0  0  0  0  0  0  0  0  0
  -22.1816  -19.2841   18.1856 F   0  0  0  0  0  0  0  0  0  0  0  0
  -21.9341   -6.8930   25.6693 F   0  0  0  0  0  0  0  0  0  0  0  0
  -23.0526  -21.5548   19.4142 F   0  0  0  0  0  0  0  0  0  0  0  0
  1  2  1  0  0  0  0
  1  5  2  0  0  0  0
  2  6  2  0  0  0  0
  3  8  2  0  0  0  0
  3 17  1  0  0  0  0
  4  9  1  0  0  0  0
  4 17  2  0  0  0  0
  5 19  1  0  0  0  0
  6 21  1  0  0  0  0
  7 10  2  0  0  0  0
  7 20  1  0  0  0  0
  8 25  1  0  0  0  0
  9 25  2  0  0  0  0
 10 26  1  0  0  0  0
 11 12  2  0  0  0  0
 11 27  1  0  0  0  0
 12 28  1  0  0  0  0
 13 22  1  0  0  0  0
 13 26  2  0  0  0  0
 14 23  2  0  0  0  0
 14 24  1  0  0  0  0
 15 23  1  0  0  0  0
 15 29  2  0  0  0  0
 16 28  2  0  0  0  0
 16 30  1  0  0  0  0
 17 32  1  0  0  0  0
 18 32  1  0  0  0  0
 18 33  2  0  0  0  0
 18 34  1  0  0  0  0
 19 21  2  0  0  0  0
 19 39  1  0  0  0  0
 20 22  2  0  0  0  0
 20 40  1  0  0  0  0
 21 48  1  0  0  0  0
 22 41  1  0  0  0  0
 23 68  1  0  0  0  0
 24 31  2  0  0  0  0
 24 69  1  0  0  0  0
 25 78  1  0  0  0  0
 26 79  1  0  0  0  0
 27 30  2  0  0  0  0
 27 78  1  0  0  0  0
 28 80  1  0  0  0  0
 29 31  1  0  0  0  0
 29 81  1  0  0  0  0
 30 82  1  0  0  0  0
 31 83  1  0  0  0  0
 32 62  2  0  0  0  0
 33 63  1  0  0  0  0
 33 66  1  0  0  0  0
 34 67  1  0  0  0  0
 34 73  2  0  0  0  0
 35 49  1  0  0  0  0
 35 70  1  0  0  0  0
 35 74  2  0  0  0  0
 36 59  1  0  0  0  0
 36 64  1  0  0  0  0
 36 75  2  0  0  0  0
 37 60  1  0  0  0  0
 37 71  1  0  0  0  0
 37 76  2  0  0  0  0
 38 65  1  0  0  0  0
 38 68  1  0  0  0  0
 38 77  2  0  0  0  0
 39 42  1  0  0  0  0
 40 49  1  0  0  0  0
 41 64  1  0  0  0  0
 42 44  1  0  0  0  0
 43 45  1  0  0  0  0
 43 46  1  0  0  0  0
 44 48  1  0  0  0  0
 45 50  1  0  0  0  0
 46 65  1  0  0  0  0
 47 50  1  0  0  0  0
 47 65  1  0  0  0  0
 48 70  1  0  0  0  0
 49 64  1  0  0  0  0
 50 63  1  0  0  0  0
 51 60  1  0  0  0  0
 52 61  1  0  0  0  0
 53 61  1  0  0  0  0
 54 61  1  0  0  0  0
 55 72  1  0  0  0  0
 56 57  1  0  0  0  0
 56 58  1  0  0  0  0
 57 69  1  0  0  0  0
 58 79  1  0  0  0  0
 59 61  1  0  0  0  0
 59 71  1  0  0  0  0
 60 72  1  0  0  0  0
 62 63  1  0  0  0  0
M  CHG  1  72   1
M  ISO  4  38 100  58 101  68 100  79 101
M  END
> <Batch ID>
0011

> <Smiles>
CNC(C)C(=O)NC(C(=O)N1Cc2cc([101O:1][101CH2:1]CCNc3cc([100NH:0][100C:0](=O)N4CCCC(n5nc(-c6ccc(Oc7ccc(F)cc7F)cc6)c(C(N)=O)c5N)C4)cc(F)c3F)ccc2CC1C(=O)NC1CCCc2ccccc21)C(C)(C)C

> <Shape>
0.230

> <Color>
0.086

> <Negative vol penalty>
0.000

$$$$

  -OEChem-04052315443D

 85 93  0     1  0  0  0  0  0999 V2000
  -26.9220  -38.0111   23.7450 C   0  0  0  0  0  0  0  0  0  0  0  0
  -27.5883  -37.1319   22.8974 C   0  0  0  0  0  0  0  0  0  0  0  0
  -24.8010   -9.1457   20.9678 C   0  0  0  0  0  0  0  0  0  0  0  0
  -25.8358  -10.0104   22.9724 C   0  0  0  0  0  0  0  0  0  0  0  0
  -26.1099  -37.5147   24.7638 C   0  0  0  0  0  0  0  0  0  0  0  0
  -27.4437  -35.7557   23.0688 C   0  0  0  0  0  0  0  0  0  0  0  0
  -27.2566  -29.6524   19.3229 C   0  0  0  0  0  0  0  0  0  0  0  0
  -28.8114  -19.9459   20.6415 C   0  0  0  0  0  0  0  0  0  0  0  0
  -28.9741  -21.1711   21.2879 C   0  0  0  0  0  0  0  0  0  0  0  0
  -24.8869   -7.8518   21.4815 C   0  0  0  0  0  0  0  0  0  0  0  0
  -25.9217   -8.7165   23.4862 C   0  0  0  0  0  0  0  0  0  0  0  0
  -27.8499  -28.3912   19.2884 C   0  0  0  0  0  0  0  0  0  0  0  0
  -23.2110   -5.9405   23.7111 C   0  0  0  0  0  0  0  0  0  0  0  0
  -22.0888   -5.1205   23.5934 C   0  0  0  0  0  0  0  0  0  0  0  0
  -26.3581  -27.6484   21.0325 C   0  0  0  0  0  0  0  0  0  0  0  0
  -23.3801   -3.5389   22.3017 C   0  0  0  0  0  0  0  0  0  0  0  0
  -25.2755  -10.2250   21.7132 C   0  0  0  0  0  0  0  0  0  0  0  0
  -24.1239  -12.4705   21.3402 C   0  0  0  0  0  0  0  0  0  0  0  0
  -25.9477  -36.1317   24.9417 C   0  0  0  0  0  0  0  0  0  0  0  0
  -26.2152  -29.9248   20.2215 C   0  0  0  0  0  0  0  0  0  0  0  0
  -26.6297  -35.2402   24.0918 C   0  0  0  0  0  0  0  0  0  0  0  0
  -25.7516  -28.9131   21.0746 C   0  0  0  0  0  0  0  0  0  0  0  0
  -27.6646  -19.1848   20.8677 C   0  0  0  0  0  0  0  0  0  0  0  0
  -27.9901  -21.6353   22.1607 C   0  0  0  0  0  0  0  0  0  0  0  0
  -25.4473   -7.6371   22.7407 C   0  0  0  0  0  0  0  0  0  0  0  0
  -27.4026  -27.3899   20.1453 C   0  0  0  0  0  0  0  0  0  0  0  0
  -24.4177   -5.5598   23.1240 C   0  0  0  0  0  0  0  0  0  0  0  0
  -26.6805  -19.6489   21.7405 C   0  0  0  0  0  0  0  0  0  0  0  0
  -22.1734   -3.9196   22.8888 C   0  0  0  0  0  0  0  0  0  0  0  0
  -24.5022   -4.3590   22.4194 C   0  0  0  0  0  0  0  0  0  0  0  0
  -26.8432  -20.8742   22.3870 C   0  0  0  0  0  0  0  0  0  0  0  0
  -25.1875  -11.5618   21.1828 C   0  0  0  0  0  0  0  0  0  0  0  0
  -24.5238  -13.5898   20.6519 C   0  0  0  0  0  0  0  0  0  0  0  0
  -22.8851  -12.3167   22.0455 C   0  0  0  0  0  0  0  0  0  0  0  0
  -25.8164  -31.9369   22.6497 C   0  0  0  0  0  0  0  0  0  0  0  0
  -22.7844  -30.7850   22.5981 C   0  0  0  0  0  0  0  0  0  0  0  0
  -20.6625  -28.2496   21.7518 C   0  0  0  0  0  0  0  0  0  0  0  0
  -28.4003  -17.3524   19.3033 C   0  0  0  0  0  0  0  0  0  0  0  0
  -25.0968  -35.6419   26.0867 C   0  0  0  0  0  0  0  0  0  0  0  0
  -25.5678  -31.2825   20.2277 C   0  0  0  0  0  0  0  0  0  0  0  0
  -24.6230  -29.1485   22.0439 C   0  0  0  0  0  0  0  0  0  0  0  0
  -24.7002  -34.1728   25.9658 C   0  0  0  0  0  0  0  0  0  0  0  0
  -28.4049  -14.2944   17.4797 C   0  0  0  0  0  0  0  0  0  0  0  0
  -25.9099  -33.3223   25.5915 C   0  0  0  0  0  0  0  0  0  0  0  0
  -27.4808  -13.3856   18.2935 C   0  0  0  0  0  0  0  0  0  0  0  0
  -29.2404  -15.2045   18.3783 C   0  0  0  0  0  0  0  0  0  0  0  0
  -27.5477  -15.0836   20.1642 C   0  0  0  0  0  0  0  0  0  0  0  0
  -26.4785  -33.7409   24.2303 C   0  0  1  0  0  0  0  0  0  0  0  0
  -24.8596  -31.6008   21.5410 C   0  0  1  0  0  0  0  0  0  0  0  0
  -26.6389  -14.1941   19.3001 C   0  0  2  0  0  0  0  0  0  0  0  0
  -18.2469  -27.5800   21.8708 C   0  0  0  0  0  0  0  0  0  0  0  0
  -23.1103  -30.1453   25.5637 C   0  0  0  0  0  0  0  0  0  0  0  0
  -21.1032  -28.6586   25.3922 C   0  0  0  0  0  0  0  0  0  0  0  0
  -20.8853  -31.1024   24.9413 C   0  0  0  0  0  0  0  0  0  0  0  0
  -27.1240  -23.3561   23.7255 C   0  0  0  0  0  0  0  0  0  0  0  0
  -20.4385  -28.1004   18.8045 C   0  0  0  0  0  0  0  0  0  0  0  0
  -25.5973  -17.9867   23.0518 C   0  0  0  0  0  0  0  0  0  0  0  0
  -29.2139  -24.4986   21.3320 C   0  0  0  0  0  0  0  0  0  0  0  0
  -29.3367  -23.6720   22.6064 C   0  0  0  0  0  0  0  0  0  0  0  0
  -27.9984  -25.4182   21.3342 C   0  0  0  0  0  0  0  0  0  1  0  0
  -22.0674  -29.6321   23.2582 C   0  0  1  0  0  0  0  0  0  0  0  0
  -19.3244  -28.2530   21.0348 C   0  0  2  0  0  0  0  0  0  0  0  0
  -21.8141  -29.8804   24.7720 C   0  0  0  0  0  0  0  0  0  0  0  0
  -26.1879  -12.0606   20.4518 N   0  0  0  0  0  0  0  0  0  0  0  0
  -25.7546  -13.2949   20.1436 N   0  0  0  0  0  0  0  0  0  0  0  0
  -24.0267  -30.4943   22.0166 N   0  0  0  0  0  0  0  0  0  0  0  0
  -28.3757  -15.9417   19.3022 N   0  0  0  0  0  0  0  0  0  0  0  0
  -23.9393  -14.7877   20.4378 N   0  0  0  0  0  0  0  0  0  0  0  0
  -22.6342  -11.1020   22.6980 N   0  0  0  0  0  0  0  0  0  0  0  0
  -27.5120  -17.9439   20.2009 N   0  0  0  0  0  0  0  0  0  0  0  0
  -25.6629  -33.2128   23.1578 N   0  0  0  0  0  0  0  0  0  0  0  0
  -20.8552  -29.4053   22.4789 N   0  0  0  0  0  0  0  0  0  0  0  0
  -28.1560  -22.8675   22.8091 N   0  0  3  0  0  0  0  0  0  0  0  0
  -19.4311  -27.5305   19.7357 N   0  3  0  0  0  0  0  0  0  0  0  0
  -22.0190  -13.2234   22.0818 O   0  0  0  0  0  0  0  0  0  0  0  0
  -26.6324  -31.1002   23.0180 O   0  0  0  0  0  0  0  0  0  0  0  0
  -22.2583  -31.9007   22.5922 O   0  0  0  0  0  0  0  0  0  0  0  0
  -21.4556  -27.3137   21.6776 O   0  0  0  0  0  0  0  0  0  0  0  0
  -29.1344  -17.9892   18.5433 O   0  0  0  0  0  0  0  0  0  0  0  0
  -25.5311   -6.3747   23.2425 O   0  0  0  0  0  0  0  0  0  0  0  0
  -25.5528  -18.9198   21.9746 O   0  0  0  0  0  0  0  0  0  0  0  0
  -27.9803  -26.1581   20.1141 O   0  0  0  0  0  0  0  0  0  1  0  0
  -21.0961   -3.1315   22.7771 F   0  0  0  0  0  0  0  0  0  0  0  0
  -25.6591   -3.9874   21.8543 F   0  0  0  0  0  0  0  0  0  0  0  0
  -25.8955  -21.3162   23.2271 F   0  0  0  0  0  0  0  0  0  0  0  0
  1  2  1  0  0  0  0
  1  5  2  0  0  0  0
  2  6  2  0  0  0  0
  3 10  2  0  0  0  0
  3 17  1  0  0  0  0
  4 11  1  0  0  0  0
  4 17  2  0  0  0  0
  5 19  1  0  0  0  0
  6 21  1  0  0  0  0
  7 12  2  0  0  0  0
  7 20  1  0  0  0  0
  8  9  2  0  0  0  0
  8 23  1  0  0  0  0
  9 24  1  0  0  0  0
 10 25  1  0  0  0  0
 11 25  2  0  0  0  0
 12 26  1  0  0  0  0
 13 14  2  0  0  0  0
 13 27  1  0  0  0  0
 14 29  1  0  0  0  0
 15 22  1  0  0  0  0
 15 26  2  0  0  0  0
 16 29  2  0  0  0  0
 16 30  1  0  0  0  0
 17 32  1  0  0  0  0
 18 32  1  0  0  0  0
 18 33  2  0  0  0  0
 18 34  1  0  0  0  0
 19 21  2  0  0  0  0
 19 39  1  0  0  0  0
 20 22  2  0  0  0  0
 20 40  1  0  0  0  0
 21 48  1  0  0  0  0
 22 41  1  0  0  0  0
 23 28  2  0  0  0  0
 23 70  1  0  0  0  0
 24 31  2  0  0  0  0
 24 73  1  0  0  0  0
 25 80  1  0  0  0  0
 26 82  1  0  0  0  0
 27 30  2  0  0  0  0
 27 80  1  0  0  0  0
 28 31  1  0  0  0  0
 28 81  1  0  0  0  0
 29 83  1  0  0  0  0
 30 84  1  0  0  0  0
 31 85  1  0  0  0  0
 32 64  2  0  0  0  0
 33 65  1  0  0  0  0
 33 68  1  0  0  0  0
 34 69  1  0  0  0  0
 34 75  2  0  0  0  0
 35 49  1  0  0  0  0
 35 71  1  0  0  0  0
 35 76  2  0  0  0  0
 36 61  1  0  0  0  0
 36 66  1  0  0  0  0
 36 77  2  0  0  0  0
 37 62  1  0  0  0  0
 37 72  1  0  0  0  0
 37 78  2  0  0  0  0
 38 67  1  0  0  0  0
 38 70  1  0  0  0  0
 38 79  2  0  0  0  0
 39 42  1  0  0  0  0
 40 49  1  0  0  0  0
 41 66  1  0  0  0  0
 42 44  1  0  0  0  0
 43 45  1  0  0  0  0
 43 46  1  0  0  0  0
 44 48  1  0  0  0  0
 45 50  1  0  0  0  0
 46 67  1  0  0  0  0
 47 50  1  0  0  0  0
 47 67  1  0  0  0  0
 48 71  1  0  0  0  0
 49 66  1  0  0  0  0
 50 65  1  0  0  0  0
 51 62  1  0  0  0  0
 52 63  1  0  0  0  0
 53 63  1  0  0  0  0
 54 63  1  0  0  0  0
 55 73  1  0  0  0  0
 56 74  1  0  0  0  0
 57 81  1  0  0  0  0
 58 59  1  0  0  0  0
 58 60  1  0  0  0  0
 59 73  1  0  0  0  0
 60 82  1  0  0  0  0
 61 63  1  0  0  0  0
 61 72  1  0  0  0  0
 62 74  1  0  0  0  0
 64 65  1  0  0  0  0
M  CHG  1  74   1
M  ISO  4  38 100  60 101  70 100  82 101
M  END
> <Batch ID>
0011

> <Smiles>
CNC(C)C(=O)NC(C(=O)N1Cc2cc([101O:1][101CH2:1]CCN(C)c3ccc([100NH:0][100C:0](=O)N4CCCC(n5nc(-c6ccc(Oc7ccc(F)cc7F)cc6)c(C(N)=O)c5N)C4)c(OC)c3F)ccc2CC1C(=O)NC1CCCc2ccccc21)C(C)(C)C

> <Shape>
0.312

> <Color>
0.100

> <Negative vol penalty>
0.000

$$$$

  -OEChem-04052315443D

 89 97  0     1  0  0  0  0  0999 V2000
  -24.9539  -18.7406   18.0750 C   0  0  0  0  0  0  0  0  0  0  0  0
  -25.2578  -19.4544   19.2298 C   0  0  0  0  0  0  0  0  0  0  0  0
  -23.0779   -9.8563   19.9443 C   0  0  0  0  0  0  0  0  0  0  0  0
  -23.8344   -9.8728   22.2387 C   0  0  0  0  0  0  0  0  0  0  0  0
  -25.9780  -18.3170   17.2290 C   0  0  0  0  0  0  0  0  0  0  0  0
  -26.5861  -19.7440   19.5399 C   0  0  0  0  0  0  0  0  0  0  0  0
  -28.7097  -24.7887   22.2872 C   0  0  0  0  0  0  0  0  0  0  0  0
  -32.6630  -17.4787   23.4139 C   0  0  0  0  0  0  0  0  0  0  0  0
  -32.0479  -16.6028   22.5195 C   0  0  0  0  0  0  0  0  0  0  0  0
  -22.3364   -8.7023   20.1970 C   0  0  0  0  0  0  0  0  0  0  0  0
  -23.0929   -8.7188   22.4915 C   0  0  0  0  0  0  0  0  0  0  0  0
  -29.0635  -25.0589   23.6084 C   0  0  0  0  0  0  0  0  0  0  0  0
  -21.1125   -5.9815   23.8345 C   0  0  0  0  0  0  0  0  0  0  0  0
  -20.3546   -5.9401   25.0047 C   0  0  0  0  0  0  0  0  0  0  0  0
  -31.3710  -24.5959   23.0787 C   0  0  0  0  0  0  0  0  0  0  0  0
  -30.5018  -18.3613   24.0360 C   0  0  0  0  0  0  0  0  0  0  0  0
  -19.1065   -7.8719   24.2648 C   0  0  0  0  0  0  0  0  0  0  0  0
  -23.8270  -10.4416   20.9651 C   0  0  0  0  0  0  0  0  0  0  0  0
  -24.1630  -12.9671   20.8370 C   0  0  0  0  0  0  0  0  0  0  0  0
  -27.3189  -18.6099   17.5239 C   0  0  0  0  0  0  0  0  0  0  0  0
  -29.6839  -24.4088   21.3529 C   0  0  0  0  0  0  0  0  0  0  0  0
  -27.6292  -19.3227   18.6978 C   0  0  0  0  0  0  0  0  0  0  0  0
  -31.0273  -24.3239   21.7457 C   0  0  0  0  0  0  0  0  0  0  0  0
  -31.8899  -18.3579   24.1722 C   0  0  0  0  0  0  0  0  0  0  0  0
  -30.6597  -16.6062   22.3832 C   0  0  0  0  0  0  0  0  0  0  0  0
  -22.3439   -8.1335   21.4706 C   0  0  0  0  0  0  0  0  0  0  0  0
  -30.3939  -24.9598   24.0050 C   0  0  0  0  0  0  0  0  0  0  0  0
  -20.8675   -6.9682   22.8794 C   0  0  0  0  0  0  0  0  0  0  0  0
  -19.3516   -6.8852   25.2199 C   0  0  0  0  0  0  0  0  0  0  0  0
  -19.8645   -7.9133   23.0946 C   0  0  0  0  0  0  0  0  0  0  0  0
  -29.8866  -17.4854   23.1415 C   0  0  0  0  0  0  0  0  0  0  0  0
  -24.5936  -11.6334   20.7044 C   0  0  0  0  0  0  0  0  0  0  0  0
  -25.2539  -13.7180   20.4728 C   0  0  0  0  0  0  0  0  0  0  0  0
  -22.8907  -13.4813   21.2524 C   0  0  0  0  0  0  0  0  0  0  0  0
  -30.2034  -21.8224   19.5795 C   0  0  0  0  0  0  0  0  0  0  0  0
  -32.5701  -23.6436   18.3127 C   0  0  0  0  0  0  0  0  0  0  0  0
  -31.5381  -22.4080   28.2164 C   0  0  0  0  0  0  0  0  0  0  0  0
  -31.9017  -20.1806   25.9073 C   0  0  0  0  0  0  0  0  0  0  0  0
  -34.7296  -26.2593   18.6888 C   0  0  0  0  0  0  0  0  0  0  0  0
  -30.7174  -14.7771   20.6519 C   0  0  0  0  0  0  0  0  0  0  0  0
  -28.3948  -18.0900   16.6037 C   0  0  0  0  0  0  0  0  0  0  0  0
  -29.2898  -24.1466   19.9252 C   0  0  0  0  0  0  0  0  0  0  0  0
  -32.1142  -23.9397   20.7764 C   0  0  0  0  0  0  0  0  0  0  0  0
  -29.7499  -18.7619   16.8103 C   0  0  0  0  0  0  0  0  0  0  0  0
  -29.6121  -12.3527   18.2902 C   0  0  0  0  0  0  0  0  0  0  0  0
  -30.0882  -18.8357   18.2958 C   0  0  0  0  0  0  0  0  0  0  0  0
  -28.1725  -12.0591   18.7186 C   0  0  0  0  0  0  0  0  0  0  0  0
  -30.5249  -12.5877   19.4924 C   0  0  0  0  0  0  0  0  0  0  0  0
  -28.6143  -13.3123   20.8684 C   0  0  0  0  0  0  0  0  0  0  0  0
  -29.0561  -19.6777   19.0555 C   0  0  1  0  0  0  0  0  0  0  0  0
  -30.2907  -23.2684   19.1806 C   0  0  1  0  0  0  0  0  0  0  0  0
  -27.6436  -13.1328   19.6898 C   0  0  2  0  0  0  0  0  0  0  0  0
  -30.9550  -22.6324   29.5603 C   0  0  0  0  0  0  0  0  0  0  0  0
  -36.5687  -27.4823   17.4975 C   0  0  0  0  0  0  0  0  0  0  0  0
  -31.4032  -25.6258   28.0928 C   0  0  0  0  0  0  0  0  0  0  0  0
  -34.4937  -21.3608   18.9441 C   0  0  0  0  0  0  0  0  0  0  0  0
  -36.3902  -22.9650   18.6303 C   0  0  0  0  0  0  0  0  0  0  0  0
  -34.8636  -22.4532   16.7250 C   0  0  0  0  0  0  0  0  0  0  0  0
  -33.2055  -28.7962   18.6968 C   0  0  0  0  0  0  0  0  0  0  0  0
  -32.9080  -20.9465   26.7375 C   0  0  0  0  0  0  0  0  0  0  0  0
  -29.7657  -24.9500   26.2988 C   0  0  0  0  0  0  0  0  0  1  0  0
  -34.0255  -23.8811   18.6357 C   0  0  1  0  0  0  0  0  0  0  0  0
  -35.0745  -27.4203   17.7736 C   0  0  2  0  0  0  0  0  0  0  0  0
  -30.4731  -24.5381   27.5822 C   0  0  1  0  0  0  0  0  0  0  0  0
  -34.9227  -22.6704   18.2527 C   0  0  0  0  0  0  0  0  0  0  0  0
  -25.8593  -11.5392   20.2883 N   0  0  0  0  0  0  0  0  0  0  0  0
  -26.2334  -12.8232   20.1562 N   0  0  0  0  0  0  0  0  0  0  0  0
  -31.6777  -23.6871   19.3933 N   0  0  0  0  0  0  0  0  0  0  0  0
  -29.9622  -13.6202   20.3654 N   0  0  0  0  0  0  0  0  0  0  0  0
  -25.4613  -15.0497   20.3956 N   0  0  0  0  0  0  0  0  0  0  0  0
  -21.8805  -12.5709   21.5912 N   0  0  0  0  0  0  0  0  0  0  0  0
  -32.5148  -19.2464   25.0805 N   0  0  0  0  0  0  0  0  0  0  0  0
  -30.0666  -15.7034   21.4662 N   0  0  0  0  0  0  0  0  0  0  0  0
  -29.2967  -21.0883   18.8391 N   0  0  0  0  0  0  0  0  0  0  0  0
  -31.2802  -23.3472   27.3036 N   0  0  0  0  0  0  0  0  0  0  0  0
  -34.3919  -25.1290   17.9748 N   0  0  0  0  0  0  0  0  0  0  0  0
  -32.2674  -21.3086   28.0060 N   0  3  0  0  0  0  0  0  0  0  0  0
  -34.6571  -28.7099   18.3931 N   0  3  0  0  0  0  0  0  0  0  0  0
  -22.6515  -14.7116   21.3052 O   0  0  0  0  0  0  0  0  0  0  0  0
  -30.9077  -21.4035   20.4906 O   0  0  0  0  0  0  0  0  0  0  0  0
  -32.2363  -23.4345   17.1438 O   0  0  0  0  0  0  0  0  0  0  0  0
  -30.6989  -20.4098   26.0089 O   0  0  0  0  0  0  0  0  0  0  0  0
  -34.7605  -26.3453   19.9144 O   0  0  0  0  0  0  0  0  0  0  0  0
  -31.8467  -14.9469   20.1853 O   0  0  0  0  0  0  0  0  0  0  0  0
  -21.6202   -7.0075   21.7177 O   0  0  0  0  0  0  0  0  0  0  0  0
  -30.7419  -25.2224   25.2941 O   0  0  0  0  0  0  0  0  0  1  0  0
  -18.6229   -6.8444   26.3430 F   0  0  0  0  0  0  0  0  0  0  0  0
  -19.6236   -8.8629   22.1801 F   0  0  0  0  0  0  0  0  0  0  0  0
  -28.1648  -17.5220   23.0037 Cl  0  0  0  0  0  0  0  0  0  0  0  0
  1  2  1  0  0  0  0
  1  5  2  0  0  0  0
  2  6  2  0  0  0  0
  3 10  2  0  0  0  0
  3 18  1  0  0  0  0
  4 11  1  0  0  0  0
  4 18  2  0  0  0  0
  5 20  1  0  0  0  0
  6 22  1  0  0  0  0
  7 12  2  0  0  0  0
  7 21  1  0  0  0  0
  8  9  2  0  0  0  0
  8 24  1  0  0  0  0
  9 25  1  0  0  0  0
 10 26  1  0  0  0  0
 11 26  2  0  0  0  0
 12 27  1  0  0  0  0
 13 14  2  0  0  0  0
 13 28  1  0  0  0  0
 14 29  1  0  0  0  0
 15 23  1  0  0  0  0
 15 27  2  0  0  0  0
 16 24  2  0  0  0  0
 16 31  1  0  0  0  0
 17 29  2  0  0  0  0
 17 30  1  0  0  0  0
 18 32  1  0  0  0  0
 19 32  1  0  0  0  0
 19 33  2  0  0  0  0
 19 34  1  0  0  0  0
 20 22  2  0  0  0  0
 20 41  1  0  0  0  0
 21 23  2  0  0  0  0
 21 42  1  0  0  0  0
 22 50  1  0  0  0  0
 23 43  1  0  0  0  0
 24 72  1  0  0  0  0
 25 31  2  0  0  0  0
 25 73  1  0  0  0  0
 26 85  1  0  0  0  0
 27 86  1  0  0  0  0
 28 30  2  0  0  0  0
 28 85  1  0  0  0  0
 29 87  1  0  0  0  0
 30 88  1  0  0  0  0
 31 89  1  0  0  0  0
 32 66  2  0  0  0  0
 33 67  1  0  0  0  0
 33 70  1  0  0  0  0
 34 71  1  0  0  0  0
 34 79  2  0  0  0  0
 35 51  1  0  0  0  0
 35 74  1  0  0  0  0
 35 80  2  0  0  0  0
 36 62  1  0  0  0  0
 36 68  1  0  0  0  0
 36 81  2  0  0  0  0
 37 53  1  0  0  0  0
 37 75  1  0  0  0  0
 37 77  2  0  0  0  0
 38 60  1  0  0  0  0
 38 72  1  0  0  0  0
 38 82  2  0  0  0  0
 39 63  1  0  0  0  0
 39 76  1  0  0  0  0
 39 83  2  0  0  0  0
 40 69  1  0  0  0  0
 40 73  1  0  0  0  0
 40 84  2  0  0  0  0
 41 44  1  0  0  0  0
 42 51  1  0  0  0  0
 43 68  1  0  0  0  0
 44 46  1  0  0  0  0
 45 47  1  0  0  0  0
 45 48  1  0  0  0  0
 46 50  1  0  0  0  0
 47 52  1  0  0  0  0
 48 69  1  0  0  0  0
 49 52  1  0  0  0  0
 49 69  1  0  0  0  0
 50 74  1  0  0  0  0
 51 68  1  0  0  0  0
 52 67  1  0  0  0  0
 54 63  1  0  0  0  0
 55 64  1  0  0  0  0
 56 65  1  0  0  0  0
 57 65  1  0  0  0  0
 58 65  1  0  0  0  0
 59 78  1  0  0  0  0
 60 77  1  0  0  0  0
 61 64  1  0  0  0  0
 61 86  1  0  0  0  0
 62 65  1  0  0  0  0
 62 76  1  0  0  0  0
 63 78  1  0  0  0  0
 64 75  1  0  0  0  0
 66 67  1  0  0  0  0
M  CHG  2  77   1  78   1
M  ISO  4  40 100  61 101  73 100  86 101
M  END
> <Batch ID>
0011

> <Smiles>
CNC(C)C(=O)NC(C(=O)N1Cc2cc([101O:1][101CH2:1]C(C)N=C(C)NCC(=O)Nc3ccc([100NH:0][100C:0](=O)N4CCCC(n5nc(-c6ccc(Oc7ccc(F)cc7F)cc6)c(C(N)=O)c5N)C4)c(Cl)c3)ccc2CC1C(=O)NC1CCCc2ccccc21)C(C)(C)C

> <Shape>
0.216

> <Color>
0.181

> <Negative vol penalty>
0.000

$$$$

  -OEChem-04052315443D

 83 91  0     1  0  0  0  0  0999 V2000
  -30.4654  -30.5346   14.6262 C   0  0  0  0  0  0  0  0  0  0  0  0
  -31.0948  -29.7150   15.5577 C   0  0  0  0  0  0  0  0  0  0  0  0
  -22.9155  -10.0708   19.9733 C   0  0  0  0  0  0  0  0  0  0  0  0
  -23.7212   -9.9463   22.2476 C   0  0  0  0  0  0  0  0  0  0  0  0
  -29.1004  -30.7952   14.7384 C   0  0  0  0  0  0  0  0  0  0  0  0
  -30.3596  -29.1565   16.6027 C   0  0  0  0  0  0  0  0  0  0  0  0
  -31.1951  -23.6564   19.1633 C   0  0  0  0  0  0  0  0  0  0  0  0
  -32.7705  -18.0980   22.1265 C   0  0  0  0  0  0  0  0  0  0  0  0
  -32.1772  -16.9281   21.6523 C   0  0  0  0  0  0  0  0  0  0  0  0
  -22.1080   -8.9560   20.1983 C   0  0  0  0  0  0  0  0  0  0  0  0
  -22.9137   -8.8314   22.4726 C   0  0  0  0  0  0  0  0  0  0  0  0
  -31.8508  -23.2527   20.3256 C   0  0  0  0  0  0  0  0  0  0  0  0
  -21.3360   -5.7359   23.5395 C   0  0  0  0  0  0  0  0  0  0  0  0
  -21.9011   -4.6506   24.2090 C   0  0  0  0  0  0  0  0  0  0  0  0
  -29.7517  -23.2854   21.5139 C   0  0  0  0  0  0  0  0  0  0  0  0
  -30.7710  -18.6016   23.3856 C   0  0  0  0  0  0  0  0  0  0  0  0
  -23.5558   -4.4343   22.4620 C   0  0  0  0  0  0  0  0  0  0  0  0
  -23.7222  -10.5660   20.9979 C   0  0  0  0  0  0  0  0  0  0  0  0
  -24.2147  -13.0687   20.9614 C   0  0  0  0  0  0  0  0  0  0  0  0
  -28.3461  -30.2318   15.7798 C   0  0  0  0  0  0  0  0  0  0  0  0
  -29.8122  -23.8886   19.1703 C   0  0  0  0  0  0  0  0  0  0  0  0
  -28.9834  -29.4109   16.7297 C   0  0  0  0  0  0  0  0  0  0  0  0
  -29.0804  -23.6895   20.3497 C   0  0  0  0  0  0  0  0  0  0  0  0
  -32.0674  -18.9348   22.9932 C   0  0  0  0  0  0  0  0  0  0  0  0
  -30.8808  -16.5949   22.0447 C   0  0  0  0  0  0  0  0  0  0  0  0
  -22.1070   -8.3363   21.4480 C   0  0  0  0  0  0  0  0  0  0  0  0
  -31.1296  -23.0699   21.5018 C   0  0  0  0  0  0  0  0  0  0  0  0
  -21.8807   -6.1704   22.3311 C   0  0  0  0  0  0  0  0  0  0  0  0
  -30.1776  -17.4317   22.9114 C   0  0  0  0  0  0  0  0  0  0  0  0
  -23.0110   -3.9998   23.6703 C   0  0  0  0  0  0  0  0  0  0  0  0
  -22.9906   -5.5196   21.7924 C   0  0  0  0  0  0  0  0  0  0  0  0
  -24.5569  -11.7172   20.7659 C   0  0  0  0  0  0  0  0  0  0  0  0
  -25.3429  -13.7642   20.6007 C   0  0  0  0  0  0  0  0  0  0  0  0
  -22.9869  -13.6440   21.4274 C   0  0  0  0  0  0  0  0  0  0  0  0
  -27.9590  -26.4149   18.6342 C   0  0  0  0  0  0  0  0  0  0  0  0
  -25.5722  -24.2380   18.9285 C   0  0  0  0  0  0  0  0  0  0  0  0
  -24.5258  -21.2359   20.1692 C   0  0  0  0  0  0  0  0  0  0  0  0
  -30.8650  -14.4718   20.6888 C   0  0  0  0  0  0  0  0  0  0  0  0
  -26.8827  -30.5805   15.8871 C   0  0  0  0  0  0  0  0  0  0  0  0
  -29.1155  -24.2979   17.9016 C   0  0  0  0  0  0  0  0  0  0  0  0
  -27.5909  -23.9058   20.4049 C   0  0  0  0  0  0  0  0  0  0  0  0
  -26.1003  -29.6479   16.8081 C   0  0  0  0  0  0  0  0  0  0  0  0
  -29.5573  -12.2196   18.2609 C   0  0  0  0  0  0  0  0  0  0  0  0
  -26.8561  -29.4309   18.1152 C   0  0  0  0  0  0  0  0  0  0  0  0
  -28.1117  -11.9993   18.7123 C   0  0  0  0  0  0  0  0  0  0  0  0
  -30.5091  -12.3479   19.4489 C   0  0  0  0  0  0  0  0  0  0  0  0
  -28.6785  -13.1336   20.8984 C   0  0  0  0  0  0  0  0  0  0  0  0
  -28.2150  -28.7666   17.8630 C   0  0  1  0  0  0  0  0  0  0  0  0
  -27.7857  -25.0028   18.1508 C   0  0  1  0  0  0  0  0  0  0  0  0
  -27.6730  -13.0633   19.7375 C   0  0  2  0  0  0  0  0  0  0  0  0
  -22.5112  -19.7435   20.2774 C   0  0  0  0  0  0  0  0  0  0  0  0
  -24.3340  -26.0660   21.0345 C   0  0  0  0  0  0  0  0  0  0  0  0
  -22.9075  -24.1426   21.7649 C   0  0  0  0  0  0  0  0  0  0  0  0
  -22.6943  -25.0420   19.4479 C   0  0  0  0  0  0  0  0  0  0  0  0
  -34.0236  -20.4608   23.0603 C   0  0  0  0  0  0  0  0  0  0  0  0
  -25.9272  -19.0472   18.7534 C   0  0  0  0  0  0  0  0  0  0  0  0
  -27.8425  -17.6175   22.5013 C   0  0  0  0  0  0  0  0  0  0  0  0
  -31.9577  -21.0049   24.3581 C   0  0  0  0  0  0  0  0  0  0  0  0
  -31.0157  -21.8977   23.5679 C   0  0  0  0  0  0  0  0  0  1  0  0
  -24.7466  -23.7050   20.0746 C   0  0  1  0  0  0  0  0  0  0  0  0
  -23.7861  -20.0802   19.5197 C   0  0  2  0  0  0  0  0  0  0  0  0
  -23.6990  -24.7366   20.5802 C   0  0  0  0  0  0  0  0  0  0  0  0
  -25.8048  -11.5612   20.3159 N   0  0  0  0  0  0  0  0  0  0  0  0
  -26.2565  -12.8237   20.2254 N   0  0  0  0  0  0  0  0  0  0  0  0
  -26.9563  -24.3116   19.1400 N   0  0  0  0  0  0  0  0  0  0  0  0
  -30.0321  -13.3769   20.3754 N   0  0  0  0  0  0  0  0  0  0  0  0
  -25.6325  -15.0824   20.5710 N   0  0  0  0  0  0  0  0  0  0  0  0
  -21.9286  -12.7854   21.7545 N   0  0  0  0  0  0  0  0  0  0  0  0
  -30.2922  -15.4028   21.5546 N   0  0  0  0  0  0  0  0  0  0  0  0
  -28.0477  -27.3497   17.6204 N   0  0  0  0  0  0  0  0  0  0  0  0
  -24.1712  -22.4465   19.6125 N   0  0  0  0  0  0  0  0  0  0  0  0
  -32.6636  -20.1097   23.4702 N   0  0  3  0  0  0  0  0  0  0  0  0
  -24.6488  -18.8655   19.4880 N   0  3  0  0  0  0  0  0  0  0  0  0
  -22.8273  -14.8836   21.5345 O   0  0  0  0  0  0  0  0  0  0  0  0
  -28.0072  -26.6398   19.8379 O   0  0  0  0  0  0  0  0  0  0  0  0
  -25.0105  -24.5698   17.8816 O   0  0  0  0  0  0  0  0  0  0  0  0
  -25.3342  -21.0806   21.0818 O   0  0  0  0  0  0  0  0  0  0  0  0
  -31.9925  -14.5896   20.2021 O   0  0  0  0  0  0  0  0  0  0  0  0
  -21.3190   -7.2486   21.6680 O   0  0  0  0  0  0  0  0  0  0  0  0
  -28.9100  -17.1246   23.3077 O   0  0  0  0  0  0  0  0  0  0  0  0
  -31.7672  -22.6765   22.6378 O   0  0  0  0  0  0  0  0  0  1  0  0
  -23.5545   -2.9585   24.3142 F   0  0  0  0  0  0  0  0  0  0  0  0
  -23.5191   -5.9333   20.6324 F   0  0  0  0  0  0  0  0  0  0  0  0
  1  2  1  0  0  0  0
  1  5  2  0  0  0  0
  2  6  2  0  0  0  0
  3 10  2  0  0  0  0
  3 18  1  0  0  0  0
  4 11  1  0  0  0  0
  4 18  2  0  0  0  0
  5 20  1  0  0  0  0
  6 22  1  0  0  0  0
  7 12  2  0  0  0  0
  7 21  1  0  0  0  0
  8  9  2  0  0  0  0
  8 24  1  0  0  0  0
  9 25  1  0  0  0  0
 10 26  1  0  0  0  0
 11 26  2  0  0  0  0
 12 27  1  0  0  0  0
 13 14  2  0  0  0  0
 13 28  1  0  0  0  0
 14 30  1  0  0  0  0
 15 23  1  0  0  0  0
 15 27  2  0  0  0  0
 16 24  2  0  0  0  0
 16 29  1  0  0  0  0
 17 30  2  0  0  0  0
 17 31  1  0  0  0  0
 18 32  1  0  0  0  0
 19 32  1  0  0  0  0
 19 33  2  0  0  0  0
 19 34  1  0  0  0  0
 20 22  2  0  0  0  0
 20 39  1  0  0  0  0
 21 23  2  0  0  0  0
 21 40  1  0  0  0  0
 22 48  1  0  0  0  0
 23 41  1  0  0  0  0
 24 72  1  0  0  0  0
 25 29  2  0  0  0  0
 25 69  1  0  0  0  0
 26 79  1  0  0  0  0
 27 81  1  0  0  0  0
 28 31  2  0  0  0  0
 28 79  1  0  0  0  0
 29 80  1  0  0  0  0
 30 82  1  0  0  0  0
 31 83  1  0  0  0  0
 32 63  2  0  0  0  0
 33 64  1  0  0  0  0
 33 67  1  0  0  0  0
 34 68  1  0  0  0  0
 34 74  2  0  0  0  0
 35 49  1  0  0  0  0
 35 70  1  0  0  0  0
 35 75  2  0  0  0  0
 36 60  1  0  0  0  0
 36 65  1  0  0  0  0
 36 76  2  0  0  0  0
 37 61  1  0  0  0  0
 37 71  1  0  0  0  0
 37 77  2  0  0  0  0
 38 66  1  0  0  0  0
 38 69  1  0  0  0  0
 38 78  2  0  0  0  0
 39 42  1  0  0  0  0
 40 49  1  0  0  0  0
 41 65  1  0  0  0  0
 42 44  1  0  0  0  0
 43 45  1  0  0  0  0
 43 46  1  0  0  0  0
 44 48  1  0  0  0  0
 45 50  1  0  0  0  0
 46 66  1  0  0  0  0
 47 50  1  0  0  0  0
 47 66  1  0  0  0  0
 48 70  1  0  0  0  0
 49 65  1  0  0  0  0
 50 64  1  0  0  0  0
 51 61  1  0  0  0  0
 52 62  1  0  0  0  0
 53 62  1  0  0  0  0
 54 62  1  0  0  0  0
 55 72  1  0  0  0  0
 56 73  1  0  0  0  0
 57 80  1  0  0  0  0
 58 59  1  0  0  0  0
 58 72  1  0  0  0  0
 59 81  1  0  0  0  0
 60 62  1  0  0  0  0
 60 71  1  0  0  0  0
 61 73  1  0  0  0  0
 63 64  1  0  0  0  0
M  CHG  1  73   1
M  ISO  4  38 100  59 101  69 100  81 101
M  END
> <Batch ID>
0011

> <Smiles>
CNC(C)C(=O)NC(C(=O)N1Cc2cc([101O:1][101CH2:1]CN(C)c3ccc([100NH:0][100C:0](=O)N4CCCC(n5nc(-c6ccc(Oc7ccc(F)cc7F)cc6)c(C(N)=O)c5N)C4)c(OC)c3)ccc2CC1C(=O)NC1CCCc2ccccc21)C(C)(C)C

> <Shape>
0.230

> <Color>
0.215

> <Negative vol penalty>
0.000

$$$$

  -OEChem-04052315443D

 83 91  0     1  0  0  0  0  0999 V2000
  -23.0837  -27.8494   18.5448 C   0  0  0  0  0  0  0  0  0  0  0  0
  -23.7171  -26.8046   19.2102 C   0  0  0  0  0  0  0  0  0  0  0  0
  -23.0506   -9.8143   20.0723 C   0  0  0  0  0  0  0  0  0  0  0  0
  -23.6447  -10.1144   22.3948 C   0  0  0  0  0  0  0  0  0  0  0  0
  -23.2197  -29.1560   19.0120 C   0  0  0  0  0  0  0  0  0  0  0  0
  -24.4878  -27.0660   20.3425 C   0  0  0  0  0  0  0  0  0  0  0  0
  -23.5934  -23.7904   24.0996 C   0  0  0  0  0  0  0  0  0  0  0  0
  -22.2840   -8.6997   20.4124 C   0  0  0  0  0  0  0  0  0  0  0  0
  -22.8781   -8.9998   22.7349 C   0  0  0  0  0  0  0  0  0  0  0  0
  -24.1814  -22.5302   23.9991 C   0  0  0  0  0  0  0  0  0  0  0  0
  -23.1885   -5.6349   22.6251 C   0  0  0  0  0  0  0  0  0  0  0  0
  -23.7451   -4.7109   23.5094 C   0  0  0  0  0  0  0  0  0  0  0  0
  -25.9211  -23.2276   25.5178 C   0  0  0  0  0  0  0  0  0  0  0  0
  -31.8681  -16.8607   22.4426 C   0  0  0  0  0  0  0  0  0  0  0  0
  -29.6528  -17.7707   22.7612 C   0  0  0  0  0  0  0  0  0  0  0  0
  -21.9272   -5.0939   25.0539 C   0  0  0  0  0  0  0  0  0  0  0  0
  -23.7310  -10.5216   21.0635 C   0  0  0  0  0  0  0  0  0  0  0  0
  -24.0954  -13.0122   20.6494 C   0  0  0  0  0  0  0  0  0  0  0  0
  -23.9845  -29.4323   20.1563 C   0  0  0  0  0  0  0  0  0  0  0  0
  -24.1719  -24.7837   24.9027 C   0  0  0  0  0  0  0  0  0  0  0  0
  -24.6352  -28.3777   20.8247 C   0  0  0  0  0  0  0  0  0  0  0  0
  -25.3371  -24.4987   25.6288 C   0  0  0  0  0  0  0  0  0  0  0  0
  -32.3950  -17.8547   23.2671 C   0  0  0  0  0  0  0  0  0  0  0  0
  -30.4969  -16.8187   22.1896 C   0  0  0  0  0  0  0  0  0  0  0  0
  -30.1798  -18.7647   23.5858 C   0  0  0  0  0  0  0  0  0  0  0  0
  -22.1977   -8.2925   21.7437 C   0  0  0  0  0  0  0  0  0  0  0  0
  -25.3470  -22.2496   24.7060 C   0  0  0  0  0  0  0  0  0  0  0  0
  -22.0013   -6.2886   22.9552 C   0  0  0  0  0  0  0  0  0  0  0  0
  -23.1144   -4.4404   24.7237 C   0  0  0  0  0  0  0  0  0  0  0  0
  -21.3706   -6.0180   24.1696 C   0  0  0  0  0  0  0  0  0  0  0  0
  -31.5509  -18.8067   23.8388 C   0  0  0  0  0  0  0  0  0  0  0  0
  -24.5236  -11.6726   20.7127 C   0  0  0  0  0  0  0  0  0  0  0  0
  -25.2152  -13.7131   20.2732 C   0  0  0  0  0  0  0  0  0  0  0  0
  -22.8013  -13.5729   20.9075 C   0  0  0  0  0  0  0  0  0  0  0  0
  -25.3991  -27.6670   24.3693 C   0  0  0  0  0  0  0  0  0  0  0  0
  -25.5741  -27.7635   27.6069 C   0  0  0  0  0  0  0  0  0  0  0  0
  -27.9134  -19.7845   23.9828 C   0  0  0  0  0  0  0  0  0  0  0  0
  -25.7452  -26.0470   30.5516 C   0  0  0  0  0  0  0  0  0  0  0  0
  -30.6610  -14.7900   20.7051 C   0  0  0  0  0  0  0  0  0  0  0  0
  -24.1410  -30.8665   20.5960 C   0  0  0  0  0  0  0  0  0  0  0  0
  -23.5105  -26.1295   25.0214 C   0  0  0  0  0  0  0  0  0  0  0  0
  -25.9864  -25.5240   26.5208 C   0  0  0  0  0  0  0  0  0  0  0  0
  -24.6692  -31.0126   22.0207 C   0  0  0  0  0  0  0  0  0  0  0  0
  -29.7044  -12.0919   18.5879 C   0  0  0  0  0  0  0  0  0  0  0  0
  -25.8610  -30.0875   22.2457 C   0  0  0  0  0  0  0  0  0  0  0  0
  -28.2360  -11.8525   18.9468 C   0  0  0  0  0  0  0  0  0  0  0  0
  -30.5326  -12.4741   19.8134 C   0  0  0  0  0  0  0  0  0  0  0  0
  -28.5362  -13.3617   20.9516 C   0  0  0  0  0  0  0  0  0  0  0  0
  -25.4595  -28.6180   22.0708 C   0  0  1  0  0  0  0  0  0  0  0  0
  -24.4696  -27.2295   25.4658 C   0  0  1  0  0  0  0  0  0  0  0  0
  -27.6490  -13.0374   19.7386 C   0  0  2  0  0  0  0  0  0  0  0  0
  -33.8704  -17.8604   23.5095 C   0  0  0  0  0  0  0  0  0  0  0  0
  -25.9166  -26.3997   33.0302 C   0  0  0  0  0  0  0  0  0  0  0  0
  -28.5302  -28.4547   27.3017 C   0  0  0  0  0  0  0  0  0  0  0  0
  -28.8462  -27.8622   29.7136 C   0  0  0  0  0  0  0  0  0  0  0  0
  -27.3358  -29.7440   29.0809 C   0  0  0  0  0  0  0  0  0  0  0  0
  -23.1663  -24.6801   31.0414 C   0  0  0  0  0  0  0  0  0  0  0  0
  -27.3406  -20.9541   24.7615 C   0  0  0  0  0  0  0  0  0  1  0  0
  -26.6060  -27.3649   28.6342 C   0  0  1  0  0  0  0  0  0  0  0  0
  -24.9765  -26.1983   31.8519 C   0  0  2  0  0  0  0  0  0  0  0  0
  -27.8186  -28.3375   28.6643 C   0  0  0  0  0  0  0  0  0  0  0  0
  -25.8145  -11.5286   20.4016 N   0  0  0  0  0  0  0  0  0  0  0  0
  -26.2072  -12.7868   20.1390 N   0  0  0  0  0  0  0  0  0  0  0  0
  -25.3054  -26.8269   26.5987 N   0  0  0  0  0  0  0  0  0  0  0  0
  -29.9185  -13.6060   20.5108 N   0  0  0  0  0  0  0  0  0  0  0  0
  -25.4381  -15.0253   20.0474 N   0  0  0  0  0  0  0  0  0  0  0  0
  -21.7626  -12.7106   21.2839 N   0  0  0  0  0  0  0  0  0  0  0  0
  -29.2922  -19.7121   24.1490 N   0  0  0  0  0  0  0  0  0  0  0  0
  -29.9622  -15.8093   21.3512 N   0  0  0  0  0  0  0  0  0  0  0  0
  -24.7557  -28.1434   23.2430 N   0  0  0  0  0  0  0  0  0  0  0  0
  -25.8964  -27.2550   29.9041 N   0  0  0  0  0  0  0  0  0  0  0  0
  -24.1520  -24.9841   32.1105 N   0  3  0  0  0  0  0  0  0  0  0  0
  -22.5688  -14.8001   20.7914 O   0  0  0  0  0  0  0  0  0  0  0  0
  -26.6104  -27.5801   24.5335 O   0  0  0  0  0  0  0  0  0  0  0  0
  -25.0214  -28.8624   27.6998 O   0  0  0  0  0  0  0  0  0  0  0  0
  -27.1975  -19.0437   23.3170 O   0  0  0  0  0  0  0  0  0  0  0  0
  -26.1721  -24.9659   30.1521 O   0  0  0  0  0  0  0  0  0  0  0  0
  -31.8216  -14.9017   20.3019 O   0  0  0  0  0  0  0  0  0  0  0  0
  -21.4495   -7.2051   22.0759 O   0  0  0  0  0  0  0  0  0  0  0  0
  -25.9233  -21.0206   24.6092 O   0  0  0  0  0  0  0  0  0  1  0  0
  -23.6482   -3.5518   25.5721 F   0  0  0  0  0  0  0  0  0  0  0  0
  -20.2292   -6.6420   24.4918 F   0  0  0  0  0  0  0  0  0  0  0  0
  -32.2114  -20.0388   24.8641 Cl  0  0  0  0  0  0  0  0  0  0  0  0
  1  2  1  0  0  0  0
  1  5  2  0  0  0  0
  2  6  2  0  0  0  0
  3  8  2  0  0  0  0
  3 17  1  0  0  0  0
  4  9  1  0  0  0  0
  4 17  2  0  0  0  0
  5 19  1  0  0  0  0
  6 21  1  0  0  0  0
  7 10  2  0  0  0  0
  7 20  1  0  0  0  0
  8 26  1  0  0  0  0
  9 26  2  0  0  0  0
 10 27  1  0  0  0  0
 11 12  2  0  0  0  0
 11 28  1  0  0  0  0
 12 29  1  0  0  0  0
 13 22  1  0  0  0  0
 13 27  2  0  0  0  0
 14 23  2  0  0  0  0
 14 24  1  0  0  0  0
 15 24  2  0  0  0  0
 15 25  1  0  0  0  0
 16 29  2  0  0  0  0
 16 30  1  0  0  0  0
 17 32  1  0  0  0  0
 18 32  1  0  0  0  0
 18 33  2  0  0  0  0
 18 34  1  0  0  0  0
 19 21  2  0  0  0  0
 19 40  1  0  0  0  0
 20 22  2  0  0  0  0
 20 41  1  0  0  0  0
 21 49  1  0  0  0  0
 22 42  1  0  0  0  0
 23 31  1  0  0  0  0
 23 52  1  0  0  0  0
 24 69  1  0  0  0  0
 25 31  2  0  0  0  0
 25 68  1  0  0  0  0
 26 79  1  0  0  0  0
 27 80  1  0  0  0  0
 28 30  2  0  0  0  0
 28 79  1  0  0  0  0
 29 81  1  0  0  0  0
 30 82  1  0  0  0  0
 31 83  1  0  0  0  0
 32 62  2  0  0  0  0
 33 63  1  0  0  0  0
 33 66  1  0  0  0  0
 34 67  1  0  0  0  0
 34 73  2  0  0  0  0
 35 50  1  0  0  0  0
 35 70  1  0  0  0  0
 35 74  2  0  0  0  0
 36 59  1  0  0  0  0
 36 64  1  0  0  0  0
 36 75  2  0  0  0  0
 37 58  1  0  0  0  0
 37 68  1  0  0  0  0
 37 76  2  0  0  0  0
 38 60  1  0  0  0  0
 38 71  1  0  0  0  0
 38 77  2  0  0  0  0
 39 65  1  0  0  0  0
 39 69  1  0  0  0  0
 39 78  2  0  0  0  0
 40 43  1  0  0  0  0
 41 50  1  0  0  0  0
 42 64  1  0  0  0  0
 43 45  1  0  0  0  0
 44 46  1  0  0  0  0
 44 47  1  0  0  0  0
 45 49  1  0  0  0  0
 46 51  1  0  0  0  0
 47 65  1  0  0  0  0
 48 51  1  0  0  0  0
 48 65  1  0  0  0  0
 49 70  1  0  0  0  0
 50 64  1  0  0  0  0
 51 63  1  0  0  0  0
 53 60  1  0  0  0  0
 54 61  1  0  0  0  0
 55 61  1  0  0  0  0
 56 61  1  0  0  0  0
 57 72  1  0  0  0  0
 58 80  1  0  0  0  0
 59 61  1  0  0  0  0
 59 71  1  0  0  0  0
 60 72  1  0  0  0  0
 62 63  1  0  0  0  0
M  CHG  1  72   1
M  ISO  4  39 100  58 101  69 100  80 101
M  END
> <Batch ID>
0011

> <Smiles>
CNC(C)C(=O)NC(C(=O)N1Cc2cc([101O:1][101CH2:1]C(=O)Nc3cc([100NH:0][100C:0](=O)N4CCCC(n5nc(-c6ccc(Oc7ccc(F)cc7F)cc6)c(C(N)=O)c5N)C4)cc(C)c3Cl)ccc2CC1C(=O)NC1CCCc2ccccc21)C(C)(C)C

> <Shape>
0.224

> <Color>
0.205

> <Negative vol penalty>
0.000

$$$$

  -OEChem-04052315443D

 88 96  0     1  0  0  0  0  0999 V2000
  -16.9653  -26.8092   21.7291 C   0  0  0  0  0  0  0  0  0  0  0  0
  -18.2206  -26.6527   21.1501 C   0  0  0  0  0  0  0  0  0  0  0  0
  -24.4202   -8.2976   20.4221 C   0  0  0  0  0  0  0  0  0  0  0  0
  -23.0079  -10.2243   20.7827 C   0  0  0  0  0  0  0  0  0  0  0  0
  -16.7698  -27.7740   22.7165 C   0  0  0  0  0  0  0  0  0  0  0  0
  -19.2808  -27.4616   21.5574 C   0  0  0  0  0  0  0  0  0  0  0  0
  -23.5549  -24.8437   22.2815 C   0  0  0  0  0  0  0  0  0  0  0  0
  -23.3995   -7.4639   20.8789 C   0  0  0  0  0  0  0  0  0  0  0  0
  -21.9871   -9.3906   21.2395 C   0  0  0  0  0  0  0  0  0  0  0  0
  -24.2783  -24.4793   21.1468 C   0  0  0  0  0  0  0  0  0  0  0  0
  -22.1013   -6.5158   23.8521 C   0  0  0  0  0  0  0  0  0  0  0  0
  -22.4442   -5.5046   24.7496 C   0  0  0  0  0  0  0  0  0  0  0  0
  -25.7834  -26.3271   21.5202 C   0  0  0  0  0  0  0  0  0  0  0  0
  -28.2545  -19.4063   18.0095 C   0  0  0  0  0  0  0  0  0  0  0  0
  -29.4669  -18.6548   20.4070 C   0  0  0  0  0  0  0  0  0  0  0  0
  -21.6364   -3.8460   23.1896 C   0  0  0  0  0  0  0  0  0  0  0  0
  -24.2244   -9.6778   20.3741 C   0  0  0  0  0  0  0  0  0  0  0  0
  -25.5079  -10.9559   18.5777 C   0  0  0  0  0  0  0  0  0  0  0  0
  -17.8306  -28.5886   23.1430 C   0  0  0  0  0  0  0  0  0  0  0  0
  -23.9345  -25.9610   23.0392 C   0  0  0  0  0  0  0  0  0  0  0  0
  -19.0990  -28.4391   22.5505 C   0  0  0  0  0  0  0  0  0  0  0  0
  -25.0646  -26.7021   22.6656 C   0  0  0  0  0  0  0  0  0  0  0  0
  -28.3022  -18.0611   18.3752 C   0  0  0  0  0  0  0  0  0  0  0  0
  -28.8131  -20.3758   18.8425 C   0  0  0  0  0  0  0  0  0  0  0  0
  -28.9084  -17.6853   19.5739 C   0  0  0  0  0  0  0  0  0  0  0  0
  -22.1830   -8.0104   21.2876 C   0  0  0  0  0  0  0  0  0  0  0  0
  -25.3910  -25.2227   20.7643 C   0  0  0  0  0  0  0  0  0  0  0  0
  -21.5258   -6.1921   22.6234 C   0  0  0  0  0  0  0  0  0  0  0  0
  -22.2119   -4.1697   24.4183 C   0  0  0  0  0  0  0  0  0  0  0  0
  -21.2934   -4.8572   22.2921 C   0  0  0  0  0  0  0  0  0  0  0  0
  -29.4192  -20.0000   20.0413 C   0  0  0  0  0  0  0  0  0  0  0  0
  -25.2787  -10.5396   19.9028 C   0  0  0  0  0  0  0  0  0  0  0  0
  -26.6204  -11.7575   18.6572 C   0  0  0  0  0  0  0  0  0  0  0  0
  -24.7803  -10.6458   17.3819 C   0  0  0  0  0  0  0  0  0  0  0  0
  -22.5656  -28.7280   23.7964 C   0  0  0  0  0  0  0  0  0  0  0  0
  -25.1945  -29.0711   25.6655 C   0  0  0  0  0  0  0  0  0  0  0  0
  -28.0876  -22.7305   19.2235 C   0  0  0  0  0  0  0  0  0  0  0  0
  -28.4463  -28.2330   26.2737 C   0  0  0  0  0  0  0  0  0  0  0  0
  -29.5417  -15.8044   21.1254 C   0  0  0  0  0  0  0  0  0  0  0  0
  -17.5595  -29.6497   24.1799 C   0  0  0  0  0  0  0  0  0  0  0  0
  -23.1594  -26.3252   24.2757 C   0  0  0  0  0  0  0  0  0  0  0  0
  -25.5257  -27.8981   23.4565 C   0  0  0  0  0  0  0  0  0  0  0  0
  -18.8254  -30.2125   24.8209 C   0  0  0  0  0  0  0  0  0  0  0  0
  -29.8638  -12.5222   22.4674 C   0  0  0  0  0  0  0  0  0  0  0  0
  -19.8643  -30.5400   23.7530 C   0  0  0  0  0  0  0  0  0  0  0  0
  -28.7185  -11.7480   21.8108 C   0  0  0  0  0  0  0  0  0  0  0  0
  -29.4642  -13.9609   22.7900 C   0  0  0  0  0  0  0  0  0  0  0  0
  -27.7675  -13.9461   21.0040 C   0  0  0  0  0  0  0  0  0  0  0  0
  -20.2800  -29.2806   22.9831 C   0  0  1  0  0  0  0  0  0  0  0  0
  -23.3323  -27.7858   24.6808 C   0  0  1  0  0  0  0  0  0  0  0  0
  -28.1433  -12.5108   20.6012 C   0  0  2  0  0  0  0  0  0  0  0  0
  -28.4466  -17.2691   15.2058 C   0  0  0  0  0  0  0  0  0  0  0  0
  -30.3398  -28.7034   27.8519 C   0  0  0  0  0  0  0  0  0  0  0  0
  -25.6569  -31.7626   24.3046 C   0  0  0  0  0  0  0  0  0  0  0  0
  -27.9959  -31.7333   25.1971 C   0  0  0  0  0  0  0  0  0  0  0  0
  -26.0620  -31.7582   26.7725 C   0  0  0  0  0  0  0  0  0  0  0  0
  -29.4885  -22.1224   17.2121 C   0  0  0  0  0  0  0  0  0  0  0  0
  -26.3408  -16.7181   17.6615 C   0  0  0  0  0  0  0  0  0  0  0  0
  -28.5861  -25.4044   27.1329 C   0  0  0  0  0  0  0  0  0  0  0  0
  -28.2262  -24.1802   18.7579 C   0  0  0  0  0  0  0  0  0  0  0  0
  -28.5265  -16.4848   16.4712 C   0  0  0  0  0  0  0  0  0  0  0  0
  -27.4930  -25.1725   19.6530 C   0  0  0  0  0  0  0  0  0  1  0  0
  -26.5749  -29.6510   25.4729 C   0  0  1  0  0  0  0  0  0  0  0  0
  -29.1544  -27.8014   27.5452 C   0  0  2  0  0  0  0  0  0  0  0  0
  -26.5629  -31.2049   25.4205 C   0  0  0  0  0  0  0  0  0  0  0  0
  -26.1737  -11.0356   20.7613 N   0  0  0  0  0  0  0  0  0  0  0  0
  -26.9762  -11.7718   19.9738 N   0  0  0  0  0  0  0  0  0  0  0  0
  -24.7311  -28.2180   24.6539 N   0  0  0  0  0  0  0  0  0  0  0  0
  -28.9324  -14.6221   21.5963 N   0  0  0  0  0  0  0  0  0  0  0  0
  -27.3192  -12.4444   17.7287 N   0  0  0  0  0  0  0  0  0  0  0  0
  -23.6617   -9.8069   17.4789 N   0  0  0  0  0  0  0  0  0  0  0  0
  -28.9701  -16.3248   19.9648 N   0  0  0  0  0  0  0  0  0  0  0  0
  -21.2046  -28.4907   23.7678 N   0  0  0  0  0  0  0  0  0  0  0  0
  -27.4033  -29.0954   26.5375 N   0  0  0  0  0  0  0  0  0  0  0  0
  -28.7472  -21.7639   18.4315 N   0  0  0  0  0  0  0  0  0  0  0  0
  -27.7311  -17.0959   17.5156 N   0  0  3  0  0  0  0  0  0  0  0  0
  -29.6504  -26.4024   27.4125 N   0  3  0  0  0  0  0  0  0  0  0  0
  -25.1218  -11.0860   16.2580 O   0  0  0  0  0  0  0  0  0  0  0  0
  -23.1642  -29.6062   23.1865 O   0  0  0  0  0  0  0  0  0  0  0  0
  -24.5539  -29.3586   26.6797 O   0  0  0  0  0  0  0  0  0  0  0  0
  -27.4537  -22.4838   20.2525 O   0  0  0  0  0  0  0  0  0  0  0  0
  -28.7869  -27.8469   25.1577 O   0  0  0  0  0  0  0  0  0  0  0  0
  -30.5171  -16.3023   21.6934 O   0  0  0  0  0  0  0  0  0  0  0  0
  -21.1866   -7.1971   21.7331 O   0  0  0  0  0  0  0  0  0  0  0  0
  -26.0985  -24.8695   19.6568 O   0  0  0  0  0  0  0  0  0  1  0  0
  -22.5427   -3.1987   25.2796 F   0  0  0  0  0  0  0  0  0  0  0  0
  -20.7420   -4.5401   21.1127 F   0  0  0  0  0  0  0  0  0  0  0  0
  -30.1237  -21.1679   21.1019 Cl  0  0  0  0  0  0  0  0  0  0  0  0
  1  2  1  0  0  0  0
  1  5  2  0  0  0  0
  2  6  2  0  0  0  0
  3  8  2  0  0  0  0
  3 17  1  0  0  0  0
  4  9  1  0  0  0  0
  4 17  2  0  0  0  0
  5 19  1  0  0  0  0
  6 21  1  0  0  0  0
  7 10  2  0  0  0  0
  7 20  1  0  0  0  0
  8 26  1  0  0  0  0
  9 26  2  0  0  0  0
 10 27  1  0  0  0  0
 11 12  2  0  0  0  0
 11 28  1  0  0  0  0
 12 29  1  0  0  0  0
 13 22  1  0  0  0  0
 13 27  2  0  0  0  0
 14 23  1  0  0  0  0
 14 24  2  0  0  0  0
 15 25  1  0  0  0  0
 15 31  2  0  0  0  0
 16 29  2  0  0  0  0
 16 30  1  0  0  0  0
 17 32  1  0  0  0  0
 18 32  1  0  0  0  0
 18 33  2  0  0  0  0
 18 34  1  0  0  0  0
 19 21  2  0  0  0  0
 19 40  1  0  0  0  0
 20 22  2  0  0  0  0
 20 41  1  0  0  0  0
 21 49  1  0  0  0  0
 22 42  1  0  0  0  0
 23 25  2  0  0  0  0
 23 76  1  0  0  0  0
 24 31  1  0  0  0  0
 24 75  1  0  0  0  0
 25 72  1  0  0  0  0
 26 84  1  0  0  0  0
 27 85  1  0  0  0  0
 28 30  2  0  0  0  0
 28 84  1  0  0  0  0
 29 86  1  0  0  0  0
 30 87  1  0  0  0  0
 31 88  1  0  0  0  0
 32 66  2  0  0  0  0
 33 67  1  0  0  0  0
 33 70  1  0  0  0  0
 34 71  1  0  0  0  0
 34 78  2  0  0  0  0
 35 50  1  0  0  0  0
 35 73  1  0  0  0  0
 35 79  2  0  0  0  0
 36 63  1  0  0  0  0
 36 68  1  0  0  0  0
 36 80  2  0  0  0  0
 37 60  1  0  0  0  0
 37 75  1  0  0  0  0
 37 81  2  0  0  0  0
 38 64  1  0  0  0  0
 38 74  1  0  0  0  0
 38 82  2  0  0  0  0
 39 69  1  0  0  0  0
 39 72  1  0  0  0  0
 39 83  2  0  0  0  0
 40 43  1  0  0  0  0
 41 50  1  0  0  0  0
 42 68  1  0  0  0  0
 43 45  1  0  0  0  0
 44 46  1  0  0  0  0
 44 47  1  0  0  0  0
 45 49  1  0  0  0  0
 46 51  1  0  0  0  0
 47 69  1  0  0  0  0
 48 51  1  0  0  0  0
 48 69  1  0  0  0  0
 49 73  1  0  0  0  0
 50 68  1  0  0  0  0
 51 67  1  0  0  0  0
 52 61  1  0  0  0  0
 53 64  1  0  0  0  0
 54 65  1  0  0  0  0
 55 65  1  0  0  0  0
 56 65  1  0  0  0  0
 57 75  1  0  0  0  0
 58 76  1  0  0  0  0
 59 77  1  0  0  0  0
 60 62  1  0  0  0  0
 61 76  1  0  0  0  0
 62 85  1  0  0  0  0
 63 65  1  0  0  0  0
 63 74  1  0  0  0  0
 64 77  1  0  0  0  0
 66 67  1  0  0  0  0
M  CHG  1  77   1
M  ISO  4  39 100  62 101  72 100  85 101
M  END
> <Batch ID>
0011

> <Smiles>
CCN(C)c1cc(N(C)C(=O)C[101CH2:1][101O:1]c2ccc3c(c2)CN(C(=O)C(NC(=O)C(C)NC)C(C)(C)C)C(C(=O)NC2CCCc4ccccc42)C3)c(Cl)cc1[100NH:0][100C:0](=O)N1CCCC(n2nc(-c3ccc(Oc4ccc(F)cc4F)cc3)c(C(N)=O)c2N)C1

> <Shape>
0.294

> <Color>
0.100

> <Negative vol penalty>
0.000

$$$$

  -OEChem-04052315443D

 83 91  0     1  0  0  0  0  0999 V2000
  -35.8961  -31.1734   20.0865 C   0  0  0  0  0  0  0  0  0  0  0  0
  -35.9770  -30.0126   20.8489 C   0  0  0  0  0  0  0  0  0  0  0  0
  -23.0458   -9.9645   19.8689 C   0  0  0  0  0  0  0  0  0  0  0  0
  -23.9071   -9.7575   22.1166 C   0  0  0  0  0  0  0  0  0  0  0  0
  -34.6644  -31.8000   19.9014 C   0  0  0  0  0  0  0  0  0  0  0  0
  -34.8264  -29.4782   21.4276 C   0  0  0  0  0  0  0  0  0  0  0  0
  -33.5406  -23.5498   22.2677 C   0  0  0  0  0  0  0  0  0  0  0  0
  -22.3126   -8.7906   20.0417 C   0  0  0  0  0  0  0  0  0  0  0  0
  -23.1739   -8.5836   22.2894 C   0  0  0  0  0  0  0  0  0  0  0  0
  -33.6545  -22.7133   23.3773 C   0  0  0  0  0  0  0  0  0  0  0  0
  -19.9750   -7.7222   22.9568 C   0  0  0  0  0  0  0  0  0  0  0  0
  -19.2709   -7.5696   24.1512 C   0  0  0  0  0  0  0  0  0  0  0  0
  -31.3328  -23.1042   23.9028 C   0  0  0  0  0  0  0  0  0  0  0  0
  -32.1473  -16.4565   22.6980 C   0  0  0  0  0  0  0  0  0  0  0  0
  -30.6255  -18.0360   24.4220 C   0  0  0  0  0  0  0  0  0  0  0  0
  -20.5419   -5.5752   24.6455 C   0  0  0  0  0  0  0  0  0  0  0  0
  -23.8431  -10.4480   20.9063 C   0  0  0  0  0  0  0  0  0  0  0  0
  -24.1819  -12.9743   21.0102 C   0  0  0  0  0  0  0  0  0  0  0  0
  -33.4966  -31.2677   20.4701 C   0  0  0  0  0  0  0  0  0  0  0  0
  -32.3227  -24.1794   21.9731 C   0  0  0  0  0  0  0  0  0  0  0  0
  -33.5781  -30.0990   21.2511 C   0  0  0  0  0  0  0  0  0  0  0  0
  -31.2054  -23.9461   22.7874 C   0  0  0  0  0  0  0  0  0  0  0  0
  -30.7557  -16.4511   22.6031 C   0  0  0  0  0  0  0  0  0  0  0  0
  -32.0171  -18.0413   24.5169 C   0  0  0  0  0  0  0  0  0  0  0  0
  -22.3766   -8.1001   21.2519 C   0  0  0  0  0  0  0  0  0  0  0  0
  -32.5513  -22.4927   24.1967 C   0  0  0  0  0  0  0  0  0  0  0  0
  -20.9625   -6.8013   22.6067 C   0  0  0  0  0  0  0  0  0  0  0  0
  -19.5543   -6.4961   24.9956 C   0  0  0  0  0  0  0  0  0  0  0  0
  -29.9948  -17.2408   23.4651 C   0  0  0  0  0  0  0  0  0  0  0  0
  -32.7780  -17.2516   23.6550 C   0  0  0  0  0  0  0  0  0  0  0  0
  -21.2459   -5.7279   23.4511 C   0  0  0  0  0  0  0  0  0  0  0  0
  -24.6012  -11.6603   20.7283 C   0  0  0  0  0  0  0  0  0  0  0  0
  -25.2575  -13.7582   20.6711 C   0  0  0  0  0  0  0  0  0  0  0  0
  -22.9318  -13.4442   21.5319 C   0  0  0  0  0  0  0  0  0  0  0  0
  -31.3492  -27.1987   21.7732 C   0  0  0  0  0  0  0  0  0  0  0  0
  -28.6025  -25.8343   20.7167 C   0  0  0  0  0  0  0  0  0  0  0  0
  -26.5806  -23.0865   20.6264 C   0  0  0  0  0  0  0  0  0  0  0  0
  -30.7271  -14.8000   20.7006 C   0  0  0  0  0  0  0  0  0  0  0  0
  -32.1954  -32.0066   20.2815 C   0  0  0  0  0  0  0  0  0  0  0  0
  -32.2092  -25.0576   20.7572 C   0  0  0  0  0  0  0  0  0  0  0  0
  -29.8701  -24.5822   22.5029 C   0  0  0  0  0  0  0  0  0  0  0  0
  -30.9647  -31.1684   20.6177 C   0  0  0  0  0  0  0  0  0  0  0  0
  -29.5059  -12.6169   18.1669 C   0  0  0  0  0  0  0  0  0  0  0  0
  -31.1600  -30.4416   21.9445 C   0  0  0  0  0  0  0  0  0  0  0  0
  -28.0865  -12.2815   18.6306 C   0  0  0  0  0  0  0  0  0  0  0  0
  -30.4738  -12.7342   19.3430 C   0  0  0  0  0  0  0  0  0  0  0  0
  -28.6310  -13.3190   20.8698 C   0  0  0  0  0  0  0  0  0  0  0  0
  -32.3484  -29.4751   21.8745 C   0  0  1  0  0  0  0  0  0  0  0  0
  -31.0570  -26.0537   20.8451 C   0  0  1  0  0  0  0  0  0  0  0  0
  -27.6065  -13.2546   19.7253 C   0  0  2  0  0  0  0  0  0  0  0  0
  -24.3838  -22.2863   19.7147 C   0  0  0  0  0  0  0  0  0  0  0  0
  -27.1338  -27.4190   22.8712 C   0  0  0  0  0  0  0  0  0  0  0  0
  -25.1691  -25.9007   22.5503 C   0  0  0  0  0  0  0  0  0  0  0  0
  -25.9626  -27.3265   20.6634 C   0  0  0  0  0  0  0  0  0  0  0  0
  -34.1074  -18.8501   25.5830 C   0  0  0  0  0  0  0  0  0  0  0  0
  -27.8844  -20.9612   19.0320 C   0  0  0  0  0  0  0  0  0  0  0  0
  -31.8870  -19.6795   26.3769 C   0  0  0  0  0  0  0  0  0  0  0  0
  -31.4872  -20.9701   25.6816 C   0  0  0  0  0  0  0  0  0  1  0  0
  -27.3398  -25.3278   21.3710 C   0  0  1  0  0  0  0  0  0  0  0  0
  -25.8820  -22.3873   19.4742 C   0  0  2  0  0  0  0  0  0  0  0  0
  -26.4269  -26.4829   21.8707 C   0  0  0  0  0  0  0  0  0  0  0  0
  -25.8461  -11.6084   20.2470 N   0  0  0  0  0  0  0  0  0  0  0  0
  -26.2182  -12.8995   20.2238 N   0  0  0  0  0  0  0  0  0  0  0  0
  -29.8112  -25.4376   21.3062 N   0  0  0  0  0  0  0  0  0  0  0  0
  -29.9555  -13.6758   20.3377 N   0  0  0  0  0  0  0  0  0  0  0  0
  -25.4658  -15.0912   20.7148 N   0  0  0  0  0  0  0  0  0  0  0  0
  -21.9350  -12.5041   21.8265 N   0  0  0  0  0  0  0  0  0  0  0  0
  -30.1178  -15.6416   21.6307 N   0  0  0  0  0  0  0  0  0  0  0  0
  -31.9778  -28.2689   21.1658 N   0  0  0  0  0  0  0  0  0  0  0  0
  -26.7051  -24.4412   20.4017 N   0  0  0  0  0  0  0  0  0  0  0  0
  -32.6479  -18.8409   25.4793 N   0  0  3  0  0  0  0  0  0  0  0  0
  -26.4238  -21.0101   19.2990 N   0  3  0  0  0  0  0  0  0  0  0  0
  -22.6996  -14.6632   21.7156 O   0  0  0  0  0  0  0  0  0  0  0  0
  -31.0269  -27.1177   22.9527 O   0  0  0  0  0  0  0  0  0  0  0  0
  -28.5195  -26.5496   19.7151 O   0  0  0  0  0  0  0  0  0  0  0  0
  -26.9729  -22.4911   21.6274 O   0  0  0  0  0  0  0  0  0  0  0  0
  -31.8344  -15.0157   20.2013 O   0  0  0  0  0  0  0  0  0  0  0  0
  -21.6611   -6.9547   21.4210 O   0  0  0  0  0  0  0  0  0  0  0  0
  -32.6600  -21.6773   25.2808 O   0  0  0  0  0  0  0  0  0  1  0  0
  -18.8792   -6.3505   26.1432 F   0  0  0  0  0  0  0  0  0  0  0  0
  -28.6566  -17.2416   23.3843 F   0  0  0  0  0  0  0  0  0  0  0  0
  -34.1161  -17.2491   23.7383 F   0  0  0  0  0  0  0  0  0  0  0  0
  -22.1943   -4.8406   23.1207 F   0  0  0  0  0  0  0  0  0  0  0  0
  1  2  1  0  0  0  0
  1  5  2  0  0  0  0
  2  6  2  0  0  0  0
  3  8  2  0  0  0  0
  3 17  1  0  0  0  0
  4  9  1  0  0  0  0
  4 17  2  0  0  0  0
  5 19  1  0  0  0  0
  6 21  1  0  0  0  0
  7 10  2  0  0  0  0
  7 20  1  0  0  0  0
  8 25  1  0  0  0  0
  9 25  2  0  0  0  0
 10 26  1  0  0  0  0
 11 12  2  0  0  0  0
 11 27  1  0  0  0  0
 12 28  1  0  0  0  0
 13 22  1  0  0  0  0
 13 26  2  0  0  0  0
 14 23  2  0  0  0  0
 14 30  1  0  0  0  0
 15 24  1  0  0  0  0
 15 29  2  0  0  0  0
 16 28  2  0  0  0  0
 16 31  1  0  0  0  0
 17 32  1  0  0  0  0
 18 32  1  0  0  0  0
 18 33  2  0  0  0  0
 18 34  1  0  0  0  0
 19 21  2  0  0  0  0
 19 39  1  0  0  0  0
 20 22  2  0  0  0  0
 20 40  1  0  0  0  0
 21 48  1  0  0  0  0
 22 41  1  0  0  0  0
 23 29  1  0  0  0  0
 23 68  1  0  0  0  0
 24 30  2  0  0  0  0
 24 71  1  0  0  0  0
 25 78  1  0  0  0  0
 26 79  1  0  0  0  0
 27 31  2  0  0  0  0
 27 78  1  0  0  0  0
 28 80  1  0  0  0  0
 29 81  1  0  0  0  0
 30 82  1  0  0  0  0
 31 83  1  0  0  0  0
 32 62  2  0  0  0  0
 33 63  1  0  0  0  0
 33 66  1  0  0  0  0
 34 67  1  0  0  0  0
 34 73  2  0  0  0  0
 35 49  1  0  0  0  0
 35 69  1  0  0  0  0
 35 74  2  0  0  0  0
 36 59  1  0  0  0  0
 36 64  1  0  0  0  0
 36 75  2  0  0  0  0
 37 60  1  0  0  0  0
 37 70  1  0  0  0  0
 37 76  2  0  0  0  0
 38 65  1  0  0  0  0
 38 68  1  0  0  0  0
 38 77  2  0  0  0  0
 39 42  1  0  0  0  0
 40 49  1  0  0  0  0
 41 64  1  0  0  0  0
 42 44  1  0  0  0  0
 43 45  1  0  0  0  0
 43 46  1  0  0  0  0
 44 48  1  0  0  0  0
 45 50  1  0  0  0  0
 46 65  1  0  0  0  0
 47 50  1  0  0  0  0
 47 65  1  0  0  0  0
 48 69  1  0  0  0  0
 49 64  1  0  0  0  0
 50 63  1  0  0  0  0
 51 60  1  0  0  0  0
 52 61  1  0  0  0  0
 53 61  1  0  0  0  0
 54 61  1  0  0  0  0
 55 71  1  0  0  0  0
 56 72  1  0  0  0  0
 57 58  1  0  0  0  0
 57 71  1  0  0  0  0
 58 79  1  0  0  0  0
 59 61  1  0  0  0  0
 59 70  1  0  0  0  0
 60 72  1  0  0  0  0
 62 63  1  0  0  0  0
M  CHG  1  72   1
M  ISO  4  38 100  58 101  68 100  79 101
M  END
> <Batch ID>
0011

> <Smiles>
CNC(C)C(=O)NC(C(=O)N1Cc2cc([101O:1][101CH2:1]CN(C)c3cc(F)c([100NH:0][100C:0](=O)N4CCCC(n5nc(-c6ccc(Oc7ccc(F)cc7F)cc6)c(C(N)=O)c5N)C4)cc3F)ccc2CC1C(=O)NC1CCCc2ccccc21)C(C)(C)C

> <Shape>
0.211

> <Color>
0.214

> <Negative vol penalty>
0.000

$$$$

  -OEChem-04052315443D

 84 92  0     1  0  0  0  0  0999 V2000
  -27.2209   -9.6151   17.9501 C   0  0  0  0  0  0  0  0  0  0  0  0
  -26.2005  -10.2558   18.6457 C   0  0  0  0  0  0  0  0  0  0  0  0
  -25.4277  -31.1228   23.2531 C   0  0  0  0  0  0  0  0  0  0  0  0
  -24.9829  -30.3484   25.4980 C   0  0  0  0  0  0  0  0  0  0  0  0
  -28.5198  -10.1192   17.9993 C   0  0  0  0  0  0  0  0  0  0  0  0
  -26.4789  -11.4005   19.3918 C   0  0  0  0  0  0  0  0  0  0  0  0
  -22.8113  -16.2337   20.2252 C   0  0  0  0  0  0  0  0  0  0  0  0
  -26.1042  -32.2284   23.7685 C   0  0  0  0  0  0  0  0  0  0  0  0
  -25.6595  -31.4540   26.0134 C   0  0  0  0  0  0  0  0  0  0  0  0
  -21.9611  -16.5972   21.2687 C   0  0  0  0  0  0  0  0  0  0  0  0
  -25.3139  -35.2216   25.1250 C   0  0  0  0  0  0  0  0  0  0  0  0
  -25.0410  -36.4680   24.5615 C   0  0  0  0  0  0  0  0  0  0  0  0
  -23.7015  -17.9877   22.1942 C   0  0  0  0  0  0  0  0  0  0  0  0
  -17.4234  -22.9503   24.5487 C   0  0  0  0  0  0  0  0  0  0  0  0
  -27.3631  -36.6921   23.9329 C   0  0  0  0  0  0  0  0  0  0  0  0
  -24.8670  -30.1828   24.1179 C   0  0  0  0  0  0  0  0  0  0  0  0
  -24.7139  -27.7848   23.2613 C   0  0  0  0  0  0  0  0  0  0  0  0
  -28.8124  -11.2762   18.7385 C   0  0  0  0  0  0  0  0  0  0  0  0
  -24.1188  -16.7368   20.1642 C   0  0  0  0  0  0  0  0  0  0  0  0
  -27.7832  -11.9198   19.4520 C   0  0  0  0  0  0  0  0  0  0  0  0
  -24.5654  -17.6311   21.1475 C   0  0  0  0  0  0  0  0  0  0  0  0
  -18.7788  -23.1395   24.2794 C   0  0  0  0  0  0  0  0  0  0  0  0
  -19.2785  -21.0048   25.2945 C   0  0  0  0  0  0  0  0  0  0  0  0
  -26.2201  -32.3940   25.1486 C   0  0  0  0  0  0  0  0  0  0  0  0
  -22.4071  -17.4720   22.2550 C   0  0  0  0  0  0  0  0  0  0  0  0
  -26.6113  -34.7104   25.0926 C   0  0  0  0  0  0  0  0  0  0  0  0
  -26.0656  -37.2032   23.9654 C   0  0  0  0  0  0  0  0  0  0  0  0
  -16.9955  -21.7884   25.1910 C   0  0  0  0  0  0  0  0  0  0  0  0
  -27.6359  -35.4457   24.4965 C   0  0  0  0  0  0  0  0  0  0  0  0
  -17.9230  -20.8156   25.5639 C   0  0  0  0  0  0  0  0  0  0  0  0
  -19.7064  -22.1668   24.6523 C   0  0  0  0  0  0  0  0  0  0  0  0
  -24.1675  -29.0409   23.5861 C   0  0  0  0  0  0  0  0  0  0  0  0
  -23.6462  -27.0551   22.7989 C   0  0  0  0  0  0  0  0  0  0  0  0
  -26.0658  -27.3193   23.3681 C   0  0  0  0  0  0  0  0  0  0  0  0
  -27.0237  -15.4488   20.2407 C   0  0  0  0  0  0  0  0  0  0  0  0
  -27.9638  -18.4902   19.6175 C   0  0  0  0  0  0  0  0  0  0  0  0
  -27.2673  -21.8275   19.7734 C   0  0  0  0  0  0  0  0  0  0  0  0
  -18.3524  -25.3770   23.2032 C   0  0  0  0  0  0  0  0  0  0  0  0
  -30.2407  -11.7565   18.8000 C   0  0  0  0  0  0  0  0  0  0  0  0
  -25.0145  -16.3560   19.0175 C   0  0  0  0  0  0  0  0  0  0  0  0
  -25.9533  -18.2152   21.1167 C   0  0  0  0  0  0  0  0  0  0  0  0
  -30.3803  -13.1885   19.3100 C   0  0  0  0  0  0  0  0  0  0  0  0
  -18.9462  -28.4965   21.5927 C   0  0  0  0  0  0  0  0  0  0  0  0
  -29.5276  -13.3964   20.5576 C   0  0  0  0  0  0  0  0  0  0  0  0
  -20.4025  -28.8129   21.9411 C   0  0  0  0  0  0  0  0  0  0  0  0
  -18.2204  -27.8172   22.7527 C   0  0  0  0  0  0  0  0  0  0  0  0
  -20.3457  -26.9427   23.6400 C   0  0  0  0  0  0  0  0  0  0  0  0
  -28.0408  -13.1781   20.2523 C   0  0  1  0  0  0  0  0  0  0  0  0
  -26.4969  -16.5260   19.3353 C   0  0  1  0  0  0  0  0  0  0  0  0
  -21.1362  -27.5690   22.4795 C   0  0  2  0  0  0  0  0  0  0  0  0
  -28.2442  -24.0717   19.2196 C   0  0  0  0  0  0  0  0  0  0  0  0
  -29.8008  -18.2869   22.0453 C   0  0  0  0  0  0  0  0  0  0  0  0
  -30.0103  -20.7815   22.0084 C   0  0  0  0  0  0  0  0  0  0  0  0
  -30.8104  -19.4356   20.0664 C   0  0  0  0  0  0  0  0  0  0  0  0
  -25.0594  -22.4570   17.9058 C   0  0  0  0  0  0  0  0  0  0  0  0
  -21.2071  -17.8070   25.6456 C   0  0  0  0  0  0  0  0  0  0  0  0
  -19.9123  -18.6058   25.5561 C   0  0  0  0  0  0  0  0  0  0  0  0
  -22.1888  -18.1378   24.5277 C   0  0  0  0  0  0  0  0  0  1  0  0
  -28.3257  -19.6908   20.4580 C   0  0  1  0  0  0  0  0  0  0  0  0
  -27.3691  -22.9274   18.7321 C   0  0  2  0  0  0  0  0  0  0  0  0
  -29.7113  -19.5364   21.1465 C   0  0  0  0  0  0  0  0  0  0  0  0
  -22.8546  -29.1087   23.3499 N   0  0  0  0  0  0  0  0  0  0  0  0
  -22.5672  -27.8861   22.8717 N   0  0  0  0  0  0  0  0  0  0  0  0
  -26.7937  -17.8075   19.9787 N   0  0  0  0  0  0  0  0  0  0  0  0
  -18.9713  -26.6450   23.2074 N   0  0  0  0  0  0  0  0  0  0  0  0
  -23.5344  -25.7900   22.3411 N   0  0  0  0  0  0  0  0  0  0  0  0
  -27.0382  -28.1989   23.8633 N   0  0  0  0  0  0  0  0  0  0  0  0
  -19.1745  -24.3328   23.6256 N   0  0  0  0  0  0  0  0  0  0  0  0
  -20.1749  -20.0194   25.6777 N   0  0  0  0  0  0  0  0  0  0  0  0
  -27.4894  -14.3315   19.5741 N   0  0  0  0  0  0  0  0  0  0  0  0
  -28.2211  -20.8508   19.5794 N   0  0  0  0  0  0  0  0  0  0  0  0
  -26.0171  -23.4704   18.4183 N   0  3  0  0  0  0  0  0  0  0  0  0
  -26.4046  -26.1631   23.0188 O   0  0  0  0  0  0  0  0  0  0  0  0
  -27.0102  -15.6193   21.4541 O   0  0  0  0  0  0  0  0  0  0  0  0
  -28.6887  -18.1742   18.6707 O   0  0  0  0  0  0  0  0  0  0  0  0
  -26.4282  -21.8359   20.6713 O   0  0  0  0  0  0  0  0  0  0  0  0
  -17.1882  -25.2244   22.8248 O   0  0  0  0  0  0  0  0  0  0  0  0
  -26.8804  -33.4725   25.6519 O   0  0  0  0  0  0  0  0  0  0  0  0
  -21.5796  -17.8279   23.2750 O   0  0  0  0  0  0  0  0  0  1  0  0
  -25.8032  -38.3995   23.4228 F   0  0  0  0  0  0  0  0  0  0  0  0
  -15.6938  -21.6067   25.4496 F   0  0  0  0  0  0  0  0  0  0  0  0
  -28.8841  -34.9593   24.4613 F   0  0  0  0  0  0  0  0  0  0  0  0
  -17.4989  -19.7031   26.1805 F   0  0  0  0  0  0  0  0  0  0  0  0
  -21.3929  -22.4022   24.3172 Cl  0  0  0  0  0  0  0  0  0  0  0  0
  1  2  1  0  0  0  0
  1  5  2  0  0  0  0
  2  6  2  0  0  0  0
  3  8  2  0  0  0  0
  3 16  1  0  0  0  0
  4  9  1  0  0  0  0
  4 16  2  0  0  0  0
  5 18  1  0  0  0  0
  6 20  1  0  0  0  0
  7 10  2  0  0  0  0
  7 19  1  0  0  0  0
  8 24  1  0  0  0  0
  9 24  2  0  0  0  0
 10 25  1  0  0  0  0
 11 12  2  0  0  0  0
 11 26  1  0  0  0  0
 12 27  1  0  0  0  0
 13 21  1  0  0  0  0
 13 25  2  0  0  0  0
 14 22  2  0  0  0  0
 14 28  1  0  0  0  0
 15 27  2  0  0  0  0
 15 29  1  0  0  0  0
 16 32  1  0  0  0  0
 17 32  1  0  0  0  0
 17 33  2  0  0  0  0
 17 34  1  0  0  0  0
 18 20  2  0  0  0  0
 18 39  1  0  0  0  0
 19 21  2  0  0  0  0
 19 40  1  0  0  0  0
 20 48  1  0  0  0  0
 21 41  1  0  0  0  0
 22 31  1  0  0  0  0
 22 68  1  0  0  0  0
 23 30  1  0  0  0  0
 23 31  2  0  0  0  0
 23 69  1  0  0  0  0
 24 78  1  0  0  0  0
 25 79  1  0  0  0  0
 26 29  2  0  0  0  0
 26 78  1  0  0  0  0
 27 80  1  0  0  0  0
 28 30  2  0  0  0  0
 28 81  1  0  0  0  0
 29 82  1  0  0  0  0
 30 83  1  0  0  0  0
 31 84  1  0  0  0  0
 32 62  2  0  0  0  0
 33 63  1  0  0  0  0
 33 66  1  0  0  0  0
 34 67  1  0  0  0  0
 34 73  2  0  0  0  0
 35 49  1  0  0  0  0
 35 70  1  0  0  0  0
 35 74  2  0  0  0  0
 36 59  1  0  0  0  0
 36 64  1  0  0  0  0
 36 75  2  0  0  0  0
 37 60  1  0  0  0  0
 37 71  1  0  0  0  0
 37 76  2  0  0  0  0
 38 65  1  0  0  0  0
 38 68  1  0  0  0  0
 38 77  2  0  0  0  0
 39 42  1  0  0  0  0
 40 49  1  0  0  0  0
 41 64  1  0  0  0  0
 42 44  1  0  0  0  0
 43 45  1  0  0  0  0
 43 46  1  0  0  0  0
 44 48  1  0  0  0  0
 45 50  1  0  0  0  0
 46 65  1  0  0  0  0
 47 50  1  0  0  0  0
 47 65  1  0  0  0  0
 48 70  1  0  0  0  0
 49 64  1  0  0  0  0
 50 63  1  0  0  0  0
 51 60  1  0  0  0  0
 52 61  1  0  0  0  0
 53 61  1  0  0  0  0
 54 61  1  0  0  0  0
 55 72  1  0  0  0  0
 56 57  1  0  0  0  0
 56 58  1  0  0  0  0
 57 69  1  0  0  0  0
 58 79  1  0  0  0  0
 59 61  1  0  0  0  0
 59 71  1  0  0  0  0
 60 72  1  0  0  0  0
 62 63  1  0  0  0  0
M  CHG  1  72   1
M  ISO  4  38 100  58 101  68 100  79 101
M  END
> <Batch ID>
0011

> <Smiles>
CNC(C)C(=O)NC(C(=O)N1Cc2cc([101O:1][101CH2:1]CCNc3c(F)c(F)cc([100NH:0][100C:0](=O)N4CCCC(n5nc(-c6ccc(Oc7ccc(F)cc7F)cc6)c(C(N)=O)c5N)C4)c3Cl)ccc2CC1C(=O)NC1CCCc2ccccc21)C(C)(C)C

> <Shape>
0.238

> <Color>
0.047

> <Negative vol penalty>
0.000

$$$$

  -OEChem-04052315443D

 85 93  0     1  0  0  0  0  0999 V2000
  -27.5932  -28.1072   28.7179 C   0  0  0  0  0  0  0  0  0  0  0  0
  -27.7935  -27.8870   27.3589 C   0  0  0  0  0  0  0  0  0  0  0  0
  -24.3491  -11.5438   24.5600 C   0  0  0  0  0  0  0  0  0  0  0  0
  -23.8346  -13.7275   25.4566 C   0  0  0  0  0  0  0  0  0  0  0  0
  -28.1370  -22.4219   18.6432 C   0  0  0  0  0  0  0  0  0  0  0  0
  -26.3237  -28.4388   29.1894 C   0  0  0  0  0  0  0  0  0  0  0  0
  -26.7241  -27.9972   26.4708 C   0  0  0  0  0  0  0  0  0  0  0  0
  -27.9310  -30.5851   22.2885 C   0  0  0  0  0  0  0  0  0  0  0  0
  -27.0356  -21.5717   18.5450 C   0  0  0  0  0  0  0  0  0  0  0  0
  -23.8023  -10.9483   25.6966 C   0  0  0  0  0  0  0  0  0  0  0  0
  -23.2877  -13.1319   26.5932 C   0  0  0  0  0  0  0  0  0  0  0  0
  -28.6632  -29.9114   21.3119 C   0  0  0  0  0  0  0  0  0  0  0  0
  -20.7237  -10.2268   26.8943 C   0  0  0  0  0  0  0  0  0  0  0  0
  -19.8724   -9.1375   26.7094 C   0  0  0  0  0  0  0  0  0  0  0  0
  -29.4279  -20.6353   19.6326 C   0  0  0  0  0  0  0  0  0  0  0  0
  -26.6374  -29.5449   20.0545 C   0  0  0  0  0  0  0  0  0  0  0  0
  -21.3611   -7.7524   28.0142 C   0  0  0  0  0  0  0  0  0  0  0  0
  -24.3653  -12.9335   24.4400 C   0  0  0  0  0  0  0  0  0  0  0  0
  -29.3332  -21.9536   19.1870 C   0  0  0  0  0  0  0  0  0  0  0  0
  -24.2600  -13.8812   22.0739 C   0  0  0  0  0  0  0  0  0  0  0  0
  -25.2403  -28.5626   28.3055 C   0  0  0  0  0  0  0  0  0  0  0  0
  -26.5426  -30.7346   22.1606 C   0  0  0  0  0  0  0  0  0  0  0  0
  -25.4387  -28.3295   26.9312 C   0  0  0  0  0  0  0  0  0  0  0  0
  -25.8903  -30.2232   21.0296 C   0  0  0  0  0  0  0  0  0  0  0  0
  -27.1303  -20.2533   18.9906 C   0  0  0  0  0  0  0  0  0  0  0  0
  -28.3264  -19.7851   19.5344 C   0  0  0  0  0  0  0  0  0  0  0  0
  -23.2716  -11.7423   26.7132 C   0  0  0  0  0  0  0  0  0  0  0  0
  -28.0160  -29.3886   20.1961 C   0  0  0  0  0  0  0  0  0  0  0  0
  -21.8939  -10.0789   27.6390 C   0  0  0  0  0  0  0  0  0  0  0  0
  -20.1910   -7.9003   27.2694 C   0  0  0  0  0  0  0  0  0  0  0  0
  -22.2126   -8.8417   28.1990 C   0  0  0  0  0  0  0  0  0  0  0  0
  -24.9306  -13.5493   23.2664 C   0  0  0  0  0  0  0  0  0  0  0  0
  -25.2308  -14.4378   21.2776 C   0  0  0  0  0  0  0  0  0  0  0  0
  -30.5062  -22.8595   19.2904 C   0  0  0  0  0  0  0  0  0  0  0  0
  -22.8827  -13.7023   21.7179 C   0  0  0  0  0  0  0  0  0  0  0  0
  -24.0198  -29.7896   23.8477 C   0  0  0  0  0  0  0  0  0  0  0  0
  -22.3986  -31.6236   21.7192 C   0  0  0  0  0  0  0  0  0  0  0  0
  -22.2922  -33.0671   18.6286 C   0  0  0  0  0  0  0  0  0  0  0  0
  -29.5729  -17.8474   20.5532 C   0  0  0  0  0  0  0  0  0  0  0  0
  -23.8766  -28.8767   28.8680 C   0  0  0  0  0  0  0  0  0  0  0  0
  -25.7710  -31.4873   23.2097 C   0  0  0  0  0  0  0  0  0  0  0  0
  -24.4044  -30.3746   20.8350 C   0  0  0  0  0  0  0  0  0  0  0  0
  -22.8750  -29.3410   27.8138 C   0  0  0  0  0  0  0  0  0  0  0  0
  -30.2589  -14.5986   21.8384 C   0  0  0  0  0  0  0  0  0  0  0  0
  -22.9246  -28.4291   26.5920 C   0  0  0  0  0  0  0  0  0  0  0  0
  -28.8787  -14.0633   22.2264 C   0  0  0  0  0  0  0  0  0  0  0  0
  -30.3855  -16.0953   22.1168 C   0  0  0  0  0  0  0  0  0  0  0  0
  -27.9482  -16.3925   21.9167 C   0  0  0  0  0  0  0  0  0  0  0  0
  -24.3089  -28.4640   25.9333 C   0  0  1  0  0  0  0  0  0  0  0  0
  -24.2873  -31.1327   23.2295 C   0  0  1  0  0  0  0  0  0  0  0  0
  -27.7508  -14.9023   21.5943 C   0  0  2  0  0  0  0  0  0  0  0  0
  -20.8215  -34.4749   17.1615 C   0  0  0  0  0  0  0  0  0  0  0  0
  -20.6394  -29.1949   21.1565 C   0  0  0  0  0  0  0  0  0  0  0  0
  -19.8514  -30.3359   19.0719 C   0  0  0  0  0  0  0  0  0  0  0  0
  -19.4059  -31.3658   21.2998 C   0  0  0  0  0  0  0  0  0  0  0  0
  -24.3073  -35.2300   18.4863 C   0  0  0  0  0  0  0  0  0  0  0  0
  -31.3952  -26.0603   19.1925 C   0  0  0  0  0  0  0  0  0  0  0  0
  -30.1564  -26.8438   18.7573 C   0  0  0  0  0  0  0  0  0  0  0  0
  -31.6490  -24.8359   18.3189 C   0  0  0  0  0  0  0  0  0  0  0  0
  -29.9008  -28.0377   19.6685 C   0  0  0  0  0  0  0  0  0  1  0  0
  -21.7581  -31.3860   20.3730 C   0  0  1  0  0  0  0  0  0  0  0  0
  -21.9446  -34.4772   18.1869 C   0  0  2  0  0  0  0  0  0  0  0  0
  -20.4414  -30.5659   20.4796 C   0  0  0  0  0  0  0  0  0  0  0  0
  -26.2272  -13.8684   23.2348 N   0  0  0  0  0  0  0  0  0  0  0  0
  -26.3792  -14.4065   22.0127 N   0  0  0  0  0  0  0  0  0  0  0  0
  -23.6930  -31.1130   21.8914 N   0  0  0  0  0  0  0  0  0  0  0  0
  -29.2857  -16.8263   21.4837 N   0  0  0  0  0  0  0  0  0  0  0  0
  -26.0025  -19.4093   18.8802 N   0  0  0  0  0  0  0  0  0  0  0  0
  -25.2057  -14.9461   20.0272 N   0  0  0  0  0  0  0  0  0  0  0  0
  -22.0216  -13.1141   22.6542 N   0  0  0  0  0  0  0  0  0  0  0  0
  -28.4471  -18.4496   19.9924 N   0  0  0  0  0  0  0  0  0  0  0  0
  -30.5653  -23.8928   18.3625 N   0  0  0  0  0  0  0  0  0  0  0  0
  -24.4657  -29.6709   25.1502 N   0  0  0  0  0  0  0  0  0  0  0  0
  -21.5957  -32.7001   19.7606 N   0  0  0  0  0  0  0  0  0  0  0  0
  -23.1343  -35.1379   17.5794 N   0  3  0  0  0  0  0  0  0  0  0  0
  -31.3544  -22.6467   20.1528 O   0  0  0  0  0  0  0  0  0  0  0  0
  -22.4327  -14.0387   20.5963 O   0  0  0  0  0  0  0  0  0  0  0  0
  -23.4497  -28.9255   23.1920 O   0  0  0  0  0  0  0  0  0  0  0  0
  -21.7762  -32.2458   22.5836 O   0  0  0  0  0  0  0  0  0  0  0  0
  -23.0982  -32.3604   18.0273 O   0  0  0  0  0  0  0  0  0  0  0  0
  -30.7320  -18.1456   20.2542 O   0  0  0  0  0  0  0  0  0  0  0  0
  -22.7377  -11.1615   27.8223 O   0  0  0  0  0  0  0  0  0  0  0  0
  -28.7282  -28.7300   19.2418 O   0  0  0  0  0  0  0  0  0  1  0  0
  -19.3726   -6.8548   27.0931 F   0  0  0  0  0  0  0  0  0  0  0  0
  -23.3347   -8.6939   28.9165 F   0  0  0  0  0  0  0  0  0  0  0  0
  1  2  1  0  0  0  0
  1  6  2  0  0  0  0
  2  7  2  0  0  0  0
  3 10  2  0  0  0  0
  3 18  1  0  0  0  0
  4 11  1  0  0  0  0
  4 18  2  0  0  0  0
  5  9  2  0  0  0  0
  5 19  1  0  0  0  0
  6 21  1  0  0  0  0
  7 23  1  0  0  0  0
  8 12  2  0  0  0  0
  8 22  1  0  0  0  0
  9 25  1  0  0  0  0
 10 27  1  0  0  0  0
 11 27  2  0  0  0  0
 12 28  1  0  0  0  0
 13 14  2  0  0  0  0
 13 29  1  0  0  0  0
 14 30  1  0  0  0  0
 15 19  2  0  0  0  0
 15 26  1  0  0  0  0
 16 24  1  0  0  0  0
 16 28  2  0  0  0  0
 17 30  2  0  0  0  0
 17 31  1  0  0  0  0
 18 32  1  0  0  0  0
 19 34  1  0  0  0  0
 20 32  1  0  0  0  0
 20 33  2  0  0  0  0
 20 35  1  0  0  0  0
 21 23  2  0  0  0  0
 21 40  1  0  0  0  0
 22 24  2  0  0  0  0
 22 41  1  0  0  0  0
 23 49  1  0  0  0  0
 24 42  1  0  0  0  0
 25 26  2  0  0  0  0
 25 68  1  0  0  0  0
 26 71  1  0  0  0  0
 27 82  1  0  0  0  0
 28 83  1  0  0  0  0
 29 31  2  0  0  0  0
 29 82  1  0  0  0  0
 30 84  1  0  0  0  0
 31 85  1  0  0  0  0
 32 64  2  0  0  0  0
 33 65  1  0  0  0  0
 33 69  1  0  0  0  0
 34 72  1  0  0  0  0
 34 76  2  0  0  0  0
 35 70  1  0  0  0  0
 35 77  2  0  0  0  0
 36 50  1  0  0  0  0
 36 73  1  0  0  0  0
 36 78  2  0  0  0  0
 37 61  1  0  0  0  0
 37 66  1  0  0  0  0
 37 79  2  0  0  0  0
 38 62  1  0  0  0  0
 38 74  1  0  0  0  0
 38 80  2  0  0  0  0
 39 67  1  0  0  0  0
 39 71  1  0  0  0  0
 39 81  2  0  0  0  0
 40 43  1  0  0  0  0
 41 50  1  0  0  0  0
 42 66  1  0  0  0  0
 43 45  1  0  0  0  0
 44 46  1  0  0  0  0
 44 47  1  0  0  0  0
 45 49  1  0  0  0  0
 46 51  1  0  0  0  0
 47 67  1  0  0  0  0
 48 51  1  0  0  0  0
 48 67  1  0  0  0  0
 49 73  1  0  0  0  0
 50 66  1  0  0  0  0
 51 65  1  0  0  0  0
 52 62  1  0  0  0  0
 53 63  1  0  0  0  0
 54 63  1  0  0  0  0
 55 63  1  0  0  0  0
 56 75  1  0  0  0  0
 57 58  1  0  0  0  0
 57 59  1  0  0  0  0
 58 60  1  0  0  0  0
 59 72  1  0  0  0  0
 60 83  1  0  0  0  0
 61 63  1  0  0  0  0
 61 74  1  0  0  0  0
 62 75  1  0  0  0  0
 64 65  1  0  0  0  0
M  CHG  1  75   1
M  ISO  4  39 100  60 101  71 100  83 101
M  END
> <Batch ID>
0011

> <Smiles>
CNC(C)C(=O)NC(C(=O)N1Cc2cc([101O:1][101CH2:1]CCCNC(=O)c3ccc(N)c([100NH:0][100C:0](=O)N4CCCC(n5nc(-c6ccc(Oc7ccc(F)cc7F)cc6)c(C(N)=O)c5N)C4)c3)ccc2CC1C(=O)NC1CCCc2ccccc21)C(C)(C)C

> <Shape>
0.201

> <Color>
0.089

> <Negative vol penalty>
0.000

$$$$

  -OEChem-04052315443D

 88 96  0     1  0  0  0  0  0999 V2000
  -27.6227  -19.5869   16.1679 C   0  0  0  0  0  0  0  0  0  0  0  0
  -27.6006  -20.0798   17.4687 C   0  0  0  0  0  0  0  0  0  0  0  0
  -23.0946   -9.8914   19.9015 C   0  0  0  0  0  0  0  0  0  0  0  0
  -23.8450   -9.8603   22.1978 C   0  0  0  0  0  0  0  0  0  0  0  0
  -28.5508  -20.0808   15.2522 C   0  0  0  0  0  0  0  0  0  0  0  0
  -28.5074  -21.0662   17.8548 C   0  0  0  0  0  0  0  0  0  0  0  0
  -27.5142  -25.6356   21.8095 C   0  0  0  0  0  0  0  0  0  0  0  0
  -31.0084  -17.8544   20.7752 C   0  0  0  0  0  0  0  0  0  0  0  0
  -22.3728   -8.7183   20.1214 C   0  0  0  0  0  0  0  0  0  0  0  0
  -23.1232   -8.6871   22.4178 C   0  0  0  0  0  0  0  0  0  0  0  0
  -27.8257  -25.7921   23.1594 C   0  0  0  0  0  0  0  0  0  0  0  0
  -23.4823   -5.3854   21.7852 C   0  0  0  0  0  0  0  0  0  0  0  0
  -24.1151   -4.3561   22.4820 C   0  0  0  0  0  0  0  0  0  0  0  0
  -31.1486  -19.2372   20.8150 C   0  0  0  0  0  0  0  0  0  0  0  0
  -29.8263  -26.9954   22.5521 C   0  0  0  0  0  0  0  0  0  0  0  0
  -22.4038   -4.4564   24.1844 C   0  0  0  0  0  0  0  0  0  0  0  0
  -23.8308  -10.4624   20.9397 C   0  0  0  0  0  0  0  0  0  0  0  0
  -24.1228  -12.9959   20.8796 C   0  0  0  0  0  0  0  0  0  0  0  0
  -29.4631  -21.0806   15.6245 C   0  0  0  0  0  0  0  0  0  0  0  0
  -28.3635  -26.1492   20.8189 C   0  0  0  0  0  0  0  0  0  0  0  0
  -29.4495  -21.5730   16.9435 C   0  0  0  0  0  0  0  0  0  0  0  0
  -29.5221  -26.8463   21.1904 C   0  0  0  0  0  0  0  0  0  0  0  0
  -30.1185  -17.2262   21.6394 C   0  0  0  0  0  0  0  0  0  0  0  0
  -22.3871   -8.1162   21.3796 C   0  0  0  0  0  0  0  0  0  0  0  0
  -28.9833  -26.4696   23.5309 C   0  0  0  0  0  0  0  0  0  0  0  0
  -22.3102   -5.9503   22.2880 C   0  0  0  0  0  0  0  0  0  0  0  0
  -23.5759   -3.8915   23.6816 C   0  0  0  0  0  0  0  0  0  0  0  0
  -21.7709   -5.4858   23.4876 C   0  0  0  0  0  0  0  0  0  0  0  0
  -24.5771  -11.6739   20.7130 C   0  0  0  0  0  0  0  0  0  0  0  0
  -30.3820  -19.9407   21.7300 C   0  0  0  0  0  0  0  0  0  0  0  0
  -29.3982  -18.0197   22.5176 C   0  0  0  0  0  0  0  0  0  0  0  0
  -25.2013  -13.7751   20.5386 C   0  0  0  0  0  0  0  0  0  0  0  0
  -22.8407  -13.4766   21.3046 C   0  0  0  0  0  0  0  0  0  0  0  0
  -30.0717  -24.8873   18.4539 C   0  0  0  0  0  0  0  0  0  0  0  0
  -30.6196  -27.9973   17.7121 C   0  0  0  0  0  0  0  0  0  0  0  0
  -31.2410  -25.1760   26.4584 C   0  0  0  0  0  0  0  0  0  0  0  0
  -30.7716  -31.2420   18.7586 C   0  0  0  0  0  0  0  0  0  0  0  0
  -30.6449  -14.9242   20.7619 C   0  0  0  0  0  0  0  0  0  0  0  0
  -30.4789  -21.5496   14.6131 C   0  0  0  0  0  0  0  0  0  0  0  0
  -27.9996  -25.9952   19.3676 C   0  0  0  0  0  0  0  0  0  0  0  0
  -30.4566  -27.4343   20.1660 C   0  0  0  0  0  0  0  0  0  0  0  0
  -31.1587  -22.8617   14.9960 C   0  0  0  0  0  0  0  0  0  0  0  0
  -29.5882  -12.5444   18.3335 C   0  0  0  0  0  0  0  0  0  0  0  0
  -31.6023  -22.8271   16.4551 C   0  0  0  0  0  0  0  0  0  0  0  0
  -28.1530  -12.2145   18.7498 C   0  0  0  0  0  0  0  0  0  0  0  0
  -30.4938  -12.7633   19.5442 C   0  0  0  0  0  0  0  0  0  0  0  0
  -28.5673  -13.4177   20.9333 C   0  0  0  0  0  0  0  0  0  0  0  0
  -30.4007  -22.6608   17.3932 C   0  0  1  0  0  0  0  0  0  0  0  0
  -29.2011  -26.1118   18.4347 C   0  0  1  0  0  0  0  0  0  0  0  0
  -27.6028  -13.2526   19.7475 C   0  0  2  0  0  0  0  0  0  0  0  0
  -31.2828  -33.5561   17.9333 C   0  0  0  0  0  0  0  0  0  0  0  0
  -33.6019  -27.3542   17.7637 C   0  0  0  0  0  0  0  0  0  0  0  0
  -34.0589  -29.8128   17.8844 C   0  0  0  0  0  0  0  0  0  0  0  0
  -32.8913  -28.8591   15.8969 C   0  0  0  0  0  0  0  0  0  0  0  0
  -28.0432  -32.1967   19.3937 C   0  0  0  0  0  0  0  0  0  0  0  0
  -30.5081  -21.4417   21.8009 C   0  0  0  0  0  0  0  0  0  0  0  0
  -29.8211  -25.4900   26.9031 C   0  0  0  0  0  0  0  0  0  0  0  0
  -31.5790  -21.9273   22.7843 C   0  0  0  0  0  0  0  0  0  0  0  0
  -31.7005  -23.4540   22.8318 C   0  0  0  0  0  0  0  0  0  0  0  0
  -32.8000  -23.8916   23.8049 C   0  0  0  0  0  0  0  0  0  0  0  0
  -32.5313  -23.4307   25.2341 C   0  0  0  0  0  0  0  0  0  0  0  0
  -28.8461  -25.6030   25.7414 C   0  0  0  0  0  0  0  0  0  1  0  0
  -31.6592  -29.0214   18.0986 C   0  0  1  0  0  0  0  0  0  0  0  0
  -30.1970  -32.5181   18.1703 C   0  0  2  0  0  0  0  0  0  0  0  0
  -33.0364  -28.7492   17.4304 C   0  0  0  0  0  0  0  0  0  0  0  0
  -25.8453  -11.6128   20.2983 N   0  0  0  0  0  0  0  0  0  0  0  0
  -29.5073  -19.3655   22.5854 N   0  0  0  0  0  0  0  0  0  0  0  0
  -26.1971  -12.9062   20.2013 N   0  0  0  0  0  0  0  0  0  0  0  0
  -30.0606  -27.2519   18.7598 N   0  0  0  0  0  0  0  0  0  0  0  0
  -29.9109  -13.7623   20.4427 N   0  0  0  0  0  0  0  0  0  0  0  0
  -28.4886  -17.3880   23.4029 N   0  0  0  0  0  0  0  0  0  0  0  0
  -25.3855  -15.1118   20.4973 N   0  0  0  0  0  0  0  0  0  0  0  0
  -21.8457  -12.5401   21.6163 N   0  0  0  0  0  0  0  0  0  0  0  0
  -29.9760  -15.8171   21.5985 N   0  0  0  0  0  0  0  0  0  0  0  0
  -29.6987  -23.9174   17.5431 N   0  0  0  0  0  0  0  0  0  0  0  0
  -31.3036  -23.9726   25.7706 N   0  0  0  0  0  0  0  0  0  0  0  0
  -31.0869  -30.3247   17.7786 N   0  0  0  0  0  0  0  0  0  0  0  0
  -29.1818  -33.1020   19.0920 N   0  3  0  0  0  0  0  0  0  0  0  0
  -22.5798  -14.7007   21.3893 O   0  0  0  0  0  0  0  0  0  0  0  0
  -31.0132  -24.8275   19.2361 O   0  0  0  0  0  0  0  0  0  0  0  0
  -30.3097  -27.8684   16.5250 O   0  0  0  0  0  0  0  0  0  0  0  0
  -32.1974  -25.9105   26.6901 O   0  0  0  0  0  0  0  0  0  0  0  0
  -30.9287  -31.0771   19.9663 O   0  0  0  0  0  0  0  0  0  0  0  0
  -31.7723  -15.1260   20.3034 O   0  0  0  0  0  0  0  0  0  0  0  0
  -21.6826   -6.9716   21.5946 O   0  0  0  0  0  0  0  0  0  0  0  0
  -29.2900  -26.6232   24.8478 O   0  0  0  0  0  0  0  0  0  1  0  0
  -24.1829   -2.9020   24.3499 F   0  0  0  0  0  0  0  0  0  0  0  0
  -20.6445   -6.0237   23.9750 F   0  0  0  0  0  0  0  0  0  0  0  0
  1  2  1  0  0  0  0
  1  5  2  0  0  0  0
  2  6  2  0  0  0  0
  3  9  2  0  0  0  0
  3 17  1  0  0  0  0
  4 10  1  0  0  0  0
  4 17  2  0  0  0  0
  5 19  1  0  0  0  0
  6 21  1  0  0  0  0
  7 11  2  0  0  0  0
  7 20  1  0  0  0  0
  8 14  2  0  0  0  0
  8 23  1  0  0  0  0
  9 24  1  0  0  0  0
 10 24  2  0  0  0  0
 11 25  1  0  0  0  0
 12 13  2  0  0  0  0
 12 26  1  0  0  0  0
 13 27  1  0  0  0  0
 14 30  1  0  0  0  0
 15 22  1  0  0  0  0
 15 25  2  0  0  0  0
 16 27  2  0  0  0  0
 16 28  1  0  0  0  0
 17 29  1  0  0  0  0
 18 29  1  0  0  0  0
 18 32  2  0  0  0  0
 18 33  1  0  0  0  0
 19 21  2  0  0  0  0
 19 39  1  0  0  0  0
 20 22  2  0  0  0  0
 20 40  1  0  0  0  0
 21 48  1  0  0  0  0
 22 41  1  0  0  0  0
 23 31  2  0  0  0  0
 23 74  1  0  0  0  0
 24 85  1  0  0  0  0
 25 86  1  0  0  0  0
 26 28  2  0  0  0  0
 26 85  1  0  0  0  0
 27 87  1  0  0  0  0
 28 88  1  0  0  0  0
 29 66  2  0  0  0  0
 30 56  1  0  0  0  0
 30 67  2  0  0  0  0
 31 67  1  0  0  0  0
 31 71  1  0  0  0  0
 32 68  1  0  0  0  0
 32 72  1  0  0  0  0
 33 73  1  0  0  0  0
 33 79  2  0  0  0  0
 34 49  1  0  0  0  0
 34 75  1  0  0  0  0
 34 80  2  0  0  0  0
 35 63  1  0  0  0  0
 35 69  1  0  0  0  0
 35 81  2  0  0  0  0
 36 57  1  0  0  0  0
 36 76  1  0  0  0  0
 36 82  2  0  0  0  0
 37 64  1  0  0  0  0
 37 77  1  0  0  0  0
 37 83  2  0  0  0  0
 38 70  1  0  0  0  0
 38 74  1  0  0  0  0
 38 84  2  0  0  0  0
 39 42  1  0  0  0  0
 40 49  1  0  0  0  0
 41 69  1  0  0  0  0
 42 44  1  0  0  0  0
 43 45  1  0  0  0  0
 43 46  1  0  0  0  0
 44 48  1  0  0  0  0
 45 50  1  0  0  0  0
 46 70  1  0  0  0  0
 47 50  1  0  0  0  0
 47 70  1  0  0  0  0
 48 75  1  0  0  0  0
 49 69  1  0  0  0  0
 50 68  1  0  0  0  0
 51 64  1  0  0  0  0
 52 65  1  0  0  0  0
 53 65  1  0  0  0  0
 54 65  1  0  0  0  0
 55 78  1  0  0  0  0
 56 58  1  0  0  0  0
 57 62  1  0  0  0  0
 58 59  1  0  0  0  0
 59 60  1  0  0  0  0
 60 61  1  0  0  0  0
 61 76  1  0  0  0  0
 62 86  1  0  0  0  0
 63 65  1  0  0  0  0
 63 77  1  0  0  0  0
 64 78  1  0  0  0  0
 66 68  1  0  0  0  0
M  CHG  1  78   1
M  ISO  4  38 100  62 101  74 100  86 101
M  END
> <Batch ID>
0011

> <Smiles>
CNC(C)C(=O)NC(C(=O)N1Cc2cc([101O:1][101CH2:1]CC(=O)NCCCCCc3ccc([100NH:0][100C:0](=O)N4CCCC(n5nc(-c6ccc(Oc7ccc(F)cc7F)cc6)c(C(N)=O)c5N)C4)c(N)n3)ccc2CC1C(=O)NC1CCCc2ccccc21)C(C)(C)C

> <Shape>
0.251

> <Color>
0.192

> <Negative vol penalty>
0.000

$$$$

  -OEChem-04052315443D

 84 92  0     1  0  0  0  0  0999 V2000
  -26.6569  -32.6425   14.7860 C   0  0  0  0  0  0  0  0  0  0  0  0
  -26.8910  -31.3399   15.2147 C   0  0  0  0  0  0  0  0  0  0  0  0
  -23.6310   -9.7507   21.9362 C   0  0  0  0  0  0  0  0  0  0  0  0
  -24.3199  -11.1055   23.8143 C   0  0  0  0  0  0  0  0  0  0  0  0
  -26.7325  -33.6981   15.6937 C   0  0  0  0  0  0  0  0  0  0  0  0
  -27.2019  -31.0923   16.5513 C   0  0  0  0  0  0  0  0  0  0  0  0
  -25.5916  -26.1967   19.8598 C   0  0  0  0  0  0  0  0  0  0  0  0
  -23.0851   -8.8131   22.8128 C   0  0  0  0  0  0  0  0  0  0  0  0
  -23.7739  -10.1679   24.6909 C   0  0  0  0  0  0  0  0  0  0  0  0
  -26.2739  -25.0299   20.2016 C   0  0  0  0  0  0  0  0  0  0  0  0
  -20.2761   -8.4739   24.6642 C   0  0  0  0  0  0  0  0  0  0  0  0
  -19.0084   -7.9723   24.3695 C   0  0  0  0  0  0  0  0  0  0  0  0
  -26.9012  -26.0214   22.3094 C   0  0  0  0  0  0  0  0  0  0  0  0
  -28.9786  -18.8165   20.1193 C   0  0  0  0  0  0  0  0  0  0  0  0
  -31.2891  -18.1382   19.9233 C   0  0  0  0  0  0  0  0  0  0  0  0
  -19.9200   -5.7379   24.2515 C   0  0  0  0  0  0  0  0  0  0  0  0
  -24.2485  -10.8969   22.4369 C   0  0  0  0  0  0  0  0  0  0  0  0
  -24.1647  -12.9797   20.9664 C   0  0  0  0  0  0  0  0  0  0  0  0
  -27.0350  -33.4623   17.0440 C   0  0  0  0  0  0  0  0  0  0  0  0
  -25.5681  -27.2904   20.7370 C   0  0  0  0  0  0  0  0  0  0  0  0
  -27.2830  -32.1459   17.4776 C   0  0  0  0  0  0  0  0  0  0  0  0
  -26.2157  -27.2000   21.9774 C   0  0  0  0  0  0  0  0  0  0  0  0
  -29.9308  -17.8220   19.8964 C   0  0  0  0  0  0  0  0  0  0  0  0
  -30.7429  -20.4437   20.3962 C   0  0  0  0  0  0  0  0  0  0  0  0
  -23.1565   -9.0217   24.1901 C   0  0  0  0  0  0  0  0  0  0  0  0
  -26.9312  -24.9432   21.4253 C   0  0  0  0  0  0  0  0  0  0  0  0
  -21.3659   -7.6076   24.7524 C   0  0  0  0  0  0  0  0  0  0  0  0
  -18.8303   -6.6043   24.1632 C   0  0  0  0  0  0  0  0  0  0  0  0
  -29.3846  -20.1274   20.3692 C   0  0  0  0  0  0  0  0  0  0  0  0
  -31.6951  -19.4491   20.1732 C   0  0  0  0  0  0  0  0  0  0  0  0
  -21.1878   -6.2396   24.5461 C   0  0  0  0  0  0  0  0  0  0  0  0
  -24.8132  -11.8655   21.5320 C   0  0  0  0  0  0  0  0  0  0  0  0
  -25.1245  -13.5758   20.1854 C   0  0  0  0  0  0  0  0  0  0  0  0
  -22.8153  -13.4352   21.1322 C   0  0  0  0  0  0  0  0  0  0  0  0
  -26.5896  -30.2974   20.6010 C   0  0  0  0  0  0  0  0  0  0  0  0
  -25.0624  -30.5348   23.4529 C   0  0  0  0  0  0  0  0  0  0  0  0
  -23.8699  -28.9675   26.2401 C   0  0  0  0  0  0  0  0  0  0  0  0
  -30.3314  -15.3850   19.3993 C   0  0  0  0  0  0  0  0  0  0  0  0
  -27.1520  -34.6405   17.9783 C   0  0  0  0  0  0  0  0  0  0  0  0
  -24.8052  -28.5321   20.3648 C   0  0  0  0  0  0  0  0  0  0  0  0
  -26.2035  -28.3386   22.9633 C   0  0  0  0  0  0  0  0  0  0  0  0
  -27.1187  -34.2530   19.4544 C   0  0  0  0  0  0  0  0  0  0  0  0
  -29.6990  -11.9390   18.7652 C   0  0  0  0  0  0  0  0  0  0  0  0
  -28.0444  -33.0693   19.7167 C   0  0  0  0  0  0  0  0  0  0  0  0
  -28.3182  -11.7043   19.3820 C   0  0  0  0  0  0  0  0  0  0  0  0
  -30.5316  -12.9158   19.5937 C   0  0  0  0  0  0  0  0  0  0  0  0
  -28.4953  -13.9621   20.5037 C   0  0  0  0  0  0  0  0  0  0  0  0
  -27.5986  -31.8343   18.9245 C   0  0  1  0  0  0  0  0  0  0  0  0
  -25.2793  -29.7724   21.1160 C   0  0  1  0  0  0  0  0  0  0  0  0
  -27.5959  -13.0352   19.6697 C   0  0  2  0  0  0  0  0  0  0  0  0
  -22.7039  -29.4303   28.4135 C   0  0  0  0  0  0  0  0  0  0  0  0
  -27.6644  -31.6269   24.6136 C   0  0  0  0  0  0  0  0  0  0  0  0
  -26.7533  -31.1728   26.9009 C   0  0  0  0  0  0  0  0  0  0  0  0
  -25.5990  -32.7971   25.4003 C   0  0  0  0  0  0  0  0  0  0  0  0
  -32.5767  -22.0930   20.6744 C   0  0  0  0  0  0  0  0  0  0  0  0
  -21.5639  -27.2672   25.4985 C   0  0  0  0  0  0  0  0  0  0  0  0
  -29.7159  -22.8207   22.3139 C   0  0  0  0  0  0  0  0  0  0  0  0
  -30.1921  -22.8177   20.8663 C   0  0  0  0  0  0  0  0  0  0  0  0
  -28.7334  -23.9464   22.6148 C   0  0  0  0  0  0  0  0  0  1  0  0
  -25.4533  -30.3240   24.8958 C   0  0  1  0  0  0  0  0  0  0  0  0
  -22.5309  -29.0552   26.9499 C   0  0  2  0  0  0  0  0  0  0  0  0
  -26.3695  -31.4593   25.4335 C   0  0  0  0  0  0  0  0  0  0  0  0
  -26.0865  -11.7578   21.1432 N   0  0  0  0  0  0  0  0  0  0  0  0
  -26.2458  -12.8119   20.3250 N   0  0  0  0  0  0  0  0  0  0  0  0
  -25.4493  -29.5337   22.5507 N   0  0  0  0  0  0  0  0  0  0  0  0
  -29.7852  -14.1549   19.8227 N   0  0  0  0  0  0  0  0  0  0  0  0
  -25.1103  -14.6734   19.3997 N   0  0  0  0  0  0  0  0  0  0  0  0
  -21.9620  -12.7051   21.9708 N   0  0  0  0  0  0  0  0  0  0  0  0
  -29.5172  -16.4910   19.6410 N   0  0  0  0  0  0  0  0  0  0  0  0
  -26.4645  -31.2046   19.5661 N   0  0  0  0  0  0  0  0  0  0  0  0
  -24.2071  -30.1605   25.6366 N   0  0  0  0  0  0  0  0  0  0  0  0
  -31.1507  -21.7619   20.6463 N   0  0  3  0  0  0  0  0  0  0  0  0
  -21.8214  -27.7465   26.8808 N   0  3  0  0  0  0  0  0  0  0  0  0
  -22.3745  -14.4498   20.5409 O   0  0  0  0  0  0  0  0  0  0  0  0
  -27.6365  -29.9093   21.1061 O   0  0  0  0  0  0  0  0  0  0  0  0
  -24.4307  -31.5468   23.1392 O   0  0  0  0  0  0  0  0  0  0  0  0
  -24.5505  -27.9442   26.2259 O   0  0  0  0  0  0  0  0  0  0  0  0
  -31.4277  -15.4492   18.8373 O   0  0  0  0  0  0  0  0  0  0  0  0
  -22.6237   -8.1071   25.0458 O   0  0  0  0  0  0  0  0  0  0  0  0
  -27.5985  -23.8057   21.7612 O   0  0  0  0  0  0  0  0  0  1  0  0
  -17.6126   -6.1225   23.8818 F   0  0  0  0  0  0  0  0  0  0  0  0
  -28.4613  -21.0759   20.5815 F   0  0  0  0  0  0  0  0  0  0  0  0
  -33.0031  -19.7424   20.1956 F   0  0  0  0  0  0  0  0  0  0  0  0
  -22.2306   -5.4023   24.6307 F   0  0  0  0  0  0  0  0  0  0  0  0
  1  2  1  0  0  0  0
  1  5  2  0  0  0  0
  2  6  2  0  0  0  0
  3  8  2  0  0  0  0
  3 17  1  0  0  0  0
  4  9  1  0  0  0  0
  4 17  2  0  0  0  0
  5 19  1  0  0  0  0
  6 21  1  0  0  0  0
  7 10  2  0  0  0  0
  7 20  1  0  0  0  0
  8 25  1  0  0  0  0
  9 25  2  0  0  0  0
 10 26  1  0  0  0  0
 11 12  2  0  0  0  0
 11 27  1  0  0  0  0
 12 28  1  0  0  0  0
 13 22  1  0  0  0  0
 13 26  2  0  0  0  0
 14 23  1  0  0  0  0
 14 29  2  0  0  0  0
 15 23  2  0  0  0  0
 15 30  1  0  0  0  0
 16 28  2  0  0  0  0
 16 31  1  0  0  0  0
 17 32  1  0  0  0  0
 18 32  1  0  0  0  0
 18 33  2  0  0  0  0
 18 34  1  0  0  0  0
 19 21  2  0  0  0  0
 19 39  1  0  0  0  0
 20 22  2  0  0  0  0
 20 40  1  0  0  0  0
 21 48  1  0  0  0  0
 22 41  1  0  0  0  0
 23 69  1  0  0  0  0
 24 29  1  0  0  0  0
 24 30  2  0  0  0  0
 24 72  1  0  0  0  0
 25 79  1  0  0  0  0
 26 80  1  0  0  0  0
 27 31  2  0  0  0  0
 27 79  1  0  0  0  0
 28 81  1  0  0  0  0
 29 82  1  0  0  0  0
 30 83  1  0  0  0  0
 31 84  1  0  0  0  0
 32 63  2  0  0  0  0
 33 64  1  0  0  0  0
 33 67  1  0  0  0  0
 34 68  1  0  0  0  0
 34 74  2  0  0  0  0
 35 49  1  0  0  0  0
 35 70  1  0  0  0  0
 35 75  2  0  0  0  0
 36 60  1  0  0  0  0
 36 65  1  0  0  0  0
 36 76  2  0  0  0  0
 37 61  1  0  0  0  0
 37 71  1  0  0  0  0
 37 77  2  0  0  0  0
 38 66  1  0  0  0  0
 38 69  1  0  0  0  0
 38 78  2  0  0  0  0
 39 42  1  0  0  0  0
 40 49  1  0  0  0  0
 41 65  1  0  0  0  0
 42 44  1  0  0  0  0
 43 45  1  0  0  0  0
 43 46  1  0  0  0  0
 44 48  1  0  0  0  0
 45 50  1  0  0  0  0
 46 66  1  0  0  0  0
 47 50  1  0  0  0  0
 47 66  1  0  0  0  0
 48 70  1  0  0  0  0
 49 65  1  0  0  0  0
 50 64  1  0  0  0  0
 51 61  1  0  0  0  0
 52 62  1  0  0  0  0
 53 62  1  0  0  0  0
 54 62  1  0  0  0  0
 55 72  1  0  0  0  0
 56 73  1  0  0  0  0
 57 58  1  0  0  0  0
 57 59  1  0  0  0  0
 58 72  1  0  0  0  0
 59 80  1  0  0  0  0
 60 62  1  0  0  0  0
 60 71  1  0  0  0  0
 61 73  1  0  0  0  0
 63 64  1  0  0  0  0
M  CHG  1  73   1
M  ISO  4  38 100  59 101  69 100  80 101
M  END
> <Batch ID>
0011

> <Smiles>
CNC(C)C(=O)NC(C(=O)N1Cc2cc([101O:1][101CH2:1]CCN(C)c3c(F)cc([100NH:0][100C:0](=O)N4CCCC(n5nc(-c6ccc(Oc7ccc(F)cc7F)cc6)c(C(N)=O)c5N)C4)cc3F)ccc2CC1C(=O)NC1CCCc2ccccc21)C(C)(C)C

> <Shape>
0.253

> <Color>
0.134

> <Negative vol penalty>
0.000

$$$$

  -OEChem-04052315443D

 83 91  0     1  0  0  0  0  0999 V2000
  -23.5933  -29.0633   24.0023 C   0  0  0  0  0  0  0  0  0  0  0  0
  -24.0158  -27.7501   23.8226 C   0  0  0  0  0  0  0  0  0  0  0  0
  -21.0375  -24.4534   18.2495 C   0  0  0  0  0  0  0  0  0  0  0  0
  -22.2102  -24.4630   20.3618 C   0  0  0  0  0  0  0  0  0  0  0  0
  -23.9521  -30.0426   23.0770 C   0  0  0  0  0  0  0  0  0  0  0  0
  -24.7966  -27.4152   22.7169 C   0  0  0  0  0  0  0  0  0  0  0  0
  -29.2662  -23.2343   22.4967 C   0  0  0  0  0  0  0  0  0  0  0  0
  -20.4307  -25.6648   18.5809 C   0  0  0  0  0  0  0  0  0  0  0  0
  -21.6035  -25.6745   20.6931 C   0  0  0  0  0  0  0  0  0  0  0  0
  -29.2943  -21.9139   22.0502 C   0  0  0  0  0  0  0  0  0  0  0  0
  -18.6027  -26.7255   21.8429 C   0  0  0  0  0  0  0  0  0  0  0  0
  -18.0809  -26.8584   23.1296 C   0  0  0  0  0  0  0  0  0  0  0  0
  -30.1352  -22.6599   19.9158 C   0  0  0  0  0  0  0  0  0  0  0  0
  -28.4530  -15.3570   19.2088 C   0  0  0  0  0  0  0  0  0  0  0  0
  -25.8583  -14.3332   19.2549 C   0  0  0  0  0  0  0  0  0  0  0  0
  -19.5642  -28.7210   23.5389 C   0  0  0  0  0  0  0  0  0  0  0  0
  -21.9272  -23.8525   19.1400 C   0  0  0  0  0  0  0  0  0  0  0  0
  -23.7747  -22.4181   18.1218 C   0  0  0  0  0  0  0  0  0  0  0  0
  -24.7458  -29.7214   21.9645 C   0  0  0  0  0  0  0  0  0  0  0  0
  -29.6628  -24.2803   21.6511 C   0  0  0  0  0  0  0  0  0  0  0  0
  -25.1652  -28.3908   21.7751 C   0  0  0  0  0  0  0  0  0  0  0  0
  -30.1136  -23.9925   20.3549 C   0  0  0  0  0  0  0  0  0  0  0  0
  -28.1993  -14.0774   18.7151 C   0  0  0  0  0  0  0  0  0  0  0  0
  -26.9020  -13.5655   18.7380 C   0  0  0  0  0  0  0  0  0  0  0  0
  -27.4093  -16.1247   19.7257 C   0  0  0  0  0  0  0  0  0  0  0  0
  -26.1120  -15.6128   19.7487 C   0  0  0  0  0  0  0  0  0  0  0  0
  -20.7137  -26.2754   19.8027 C   0  0  0  0  0  0  0  0  0  0  0  0
  -29.7261  -21.6267   20.7586 C   0  0  0  0  0  0  0  0  0  0  0  0
  -19.6054  -27.5904   21.4042 C   0  0  0  0  0  0  0  0  0  0  0  0
  -18.5616  -27.8561   23.9776 C   0  0  0  0  0  0  0  0  0  0  0  0
  -20.0861  -28.5881   22.2522 C   0  0  0  0  0  0  0  0  0  0  0  0
  -22.5539  -22.6008   18.7985 C   0  0  0  0  0  0  0  0  0  0  0  0
  -23.9245  -21.0549   18.0458 C   0  0  0  0  0  0  0  0  0  0  0  0
  -24.6914  -23.3934   17.6078 C   0  0  0  0  0  0  0  0  0  0  0  0
  -28.2268  -26.8323   20.4146 C   0  0  0  0  0  0  0  0  0  0  0  0
  -31.2148  -27.5155   19.3528 C   0  0  0  0  0  0  0  0  0  0  0  0
  -28.9251  -18.0605   20.2633 C   0  0  0  0  0  0  0  0  0  0  0  0
  -34.3185  -26.3783   18.5042 C   0  0  0  0  0  0  0  0  0  0  0  0
  -23.6967  -15.9934   20.3550 C   0  0  0  0  0  0  0  0  0  0  0  0
  -25.0687  -30.8047   20.9661 C   0  0  0  0  0  0  0  0  0  0  0  0
  -29.6520  -25.6967   22.1569 C   0  0  0  0  0  0  0  0  0  0  0  0
  -30.5691  -25.0774   19.4146 C   0  0  0  0  0  0  0  0  0  0  0  0
  -26.2113  -30.4413   20.0212 C   0  0  0  0  0  0  0  0  0  0  0  0
  -20.6594  -17.3210   19.0550 C   0  0  0  0  0  0  0  0  0  0  0  0
  -26.0219  -29.0307   19.4724 C   0  0  0  0  0  0  0  0  0  0  0  0
  -20.9820  -18.7979   18.8167 C   0  0  0  0  0  0  0  0  0  0  0  0
  -21.3422  -16.7871   20.3130 C   0  0  0  0  0  0  0  0  0  0  0  0
  -23.1145  -18.4893   20.1373 C   0  0  0  0  0  0  0  0  0  0  0  0
  -26.0340  -27.9932   20.6016 C   0  0  1  0  0  0  0  0  0  0  0  0
  -29.5907  -26.7307   21.0368 C   0  0  1  0  0  0  0  0  0  0  0  0
  -22.5014  -19.0547   18.8458 C   0  0  2  0  0  0  0  0  0  0  0  0
  -29.3325  -13.2738   18.1666 C   0  0  0  0  0  0  0  0  0  0  0  0
  -26.6065  -12.1982   18.2149 C   0  0  0  0  0  0  0  0  0  0  0  0
  -36.5364  -27.1680   17.6354 C   0  0  0  0  0  0  0  0  0  0  0  0
  -30.0287  -27.7576   16.5519 C   0  0  0  0  0  0  0  0  0  0  0  0
  -32.3509  -27.5960   15.6303 C   0  0  0  0  0  0  0  0  0  0  0  0
  -31.7311  -29.4999   17.1181 C   0  0  0  0  0  0  0  0  0  0  0  0
  -35.7288  -25.4654   20.9407 C   0  0  0  0  0  0  0  0  0  0  0  0
  -28.7900  -19.4435   20.8728 C   0  0  0  0  0  0  0  0  0  1  0  0
  -32.0080  -27.1909   18.1100 C   0  0  1  0  0  0  0  0  0  0  0  0
  -35.7068  -26.8682   18.8743 C   0  0  2  0  0  0  0  0  0  0  0  0
  -31.5193  -27.9906   16.8694 C   0  0  0  0  0  0  0  0  0  0  0  0
  -21.9696  -21.4460   19.1288 N   0  0  0  0  0  0  0  0  0  0  0  0
  -22.8269  -20.5246   18.6575 N   0  0  0  0  0  0  0  0  0  0  0  0
  -30.5341  -26.4470   19.9535 N   0  0  0  0  0  0  0  0  0  0  0  0
  -22.7800  -17.0625   20.2684 N   0  0  0  0  0  0  0  0  0  0  0  0
  -24.8867  -20.2701   17.5159 N   0  0  0  0  0  0  0  0  0  0  0  0
  -24.3839  -24.7509   17.7716 N   0  0  0  0  0  0  0  0  0  0  0  0
  -27.6914  -17.4200   20.2209 N   0  0  0  0  0  0  0  0  0  0  0  0
  -25.0356  -16.3735   20.2686 N   0  0  0  0  0  0  0  0  0  0  0  0
  -27.3898  -27.7376   21.0386 N   0  0  0  0  0  0  0  0  0  0  0  0
  -33.4091  -27.4133   18.4504 N   0  0  0  0  0  0  0  0  0  0  0  0
  -36.4216  -25.8388   19.6807 N   0  3  0  0  0  0  0  0  0  0  0  0
  -25.7438  -23.0705   17.0063 O   0  0  0  0  0  0  0  0  0  0  0  0
  -27.9545  -26.1416   19.4397 O   0  0  0  0  0  0  0  0  0  0  0  0
  -31.2054  -28.6730   19.7791 O   0  0  0  0  0  0  0  0  0  0  0  0
  -30.0082  -17.6299   19.8810 O   0  0  0  0  0  0  0  0  0  0  0  0
  -34.0668  -25.1961   18.2812 O   0  0  0  0  0  0  0  0  0  0  0  0
  -23.3208  -14.8238   20.4680 O   0  0  0  0  0  0  0  0  0  0  0  0
  -20.1219  -27.4577   20.1262 O   0  0  0  0  0  0  0  0  0  0  0  0
  -29.7539  -20.3388   20.3200 O   0  0  0  0  0  0  0  0  0  1  0  0
  -18.0593  -27.9846   25.2127 F   0  0  0  0  0  0  0  0  0  0  0  0
  -21.0484  -29.4227   21.8359 F   0  0  0  0  0  0  0  0  0  0  0  0
  1  2  1  0  0  0  0
  1  5  2  0  0  0  0
  2  6  2  0  0  0  0
  3  8  2  0  0  0  0
  3 17  1  0  0  0  0
  4  9  1  0  0  0  0
  4 17  2  0  0  0  0
  5 19  1  0  0  0  0
  6 21  1  0  0  0  0
  7 10  2  0  0  0  0
  7 20  1  0  0  0  0
  8 27  1  0  0  0  0
  9 27  2  0  0  0  0
 10 28  1  0  0  0  0
 11 12  2  0  0  0  0
 11 29  1  0  0  0  0
 12 30  1  0  0  0  0
 13 22  1  0  0  0  0
 13 28  2  0  0  0  0
 14 23  2  0  0  0  0
 14 25  1  0  0  0  0
 15 24  2  0  0  0  0
 15 26  1  0  0  0  0
 16 30  2  0  0  0  0
 16 31  1  0  0  0  0
 17 32  1  0  0  0  0
 18 32  1  0  0  0  0
 18 33  2  0  0  0  0
 18 34  1  0  0  0  0
 19 21  2  0  0  0  0
 19 40  1  0  0  0  0
 20 22  2  0  0  0  0
 20 41  1  0  0  0  0
 21 49  1  0  0  0  0
 22 42  1  0  0  0  0
 23 24  1  0  0  0  0
 23 52  1  0  0  0  0
 24 53  1  0  0  0  0
 25 26  2  0  0  0  0
 25 69  1  0  0  0  0
 26 70  1  0  0  0  0
 27 80  1  0  0  0  0
 28 81  1  0  0  0  0
 29 31  2  0  0  0  0
 29 80  1  0  0  0  0
 30 82  1  0  0  0  0
 31 83  1  0  0  0  0
 32 63  2  0  0  0  0
 33 64  1  0  0  0  0
 33 67  1  0  0  0  0
 34 68  1  0  0  0  0
 34 74  2  0  0  0  0
 35 50  1  0  0  0  0
 35 71  1  0  0  0  0
 35 75  2  0  0  0  0
 36 60  1  0  0  0  0
 36 65  1  0  0  0  0
 36 76  2  0  0  0  0
 37 59  1  0  0  0  0
 37 69  1  0  0  0  0
 37 77  2  0  0  0  0
 38 61  1  0  0  0  0
 38 72  1  0  0  0  0
 38 78  2  0  0  0  0
 39 66  1  0  0  0  0
 39 70  1  0  0  0  0
 39 79  2  0  0  0  0
 40 43  1  0  0  0  0
 41 50  1  0  0  0  0
 42 65  1  0  0  0  0
 43 45  1  0  0  0  0
 44 46  1  0  0  0  0
 44 47  1  0  0  0  0
 45 49  1  0  0  0  0
 46 51  1  0  0  0  0
 47 66  1  0  0  0  0
 48 51  1  0  0  0  0
 48 66  1  0  0  0  0
 49 71  1  0  0  0  0
 50 65  1  0  0  0  0
 51 64  1  0  0  0  0
 54 61  1  0  0  0  0
 55 62  1  0  0  0  0
 56 62  1  0  0  0  0
 57 62  1  0  0  0  0
 58 73  1  0  0  0  0
 59 81  1  0  0  0  0
 60 62  1  0  0  0  0
 60 72  1  0  0  0  0
 61 73  1  0  0  0  0
 63 64  1  0  0  0  0
M  CHG  1  73   1
M  ISO  4  39 100  59 101  70 100  81 101
M  END
> <Batch ID>
0011

> <Smiles>
CNC(C)C(=O)NC(C(=O)N1Cc2cc([101O:1][101CH2:1]C(=O)Nc3cc(C)c(C)cc3[100NH:0][100C:0](=O)N3CCCC(n4nc(-c5ccc(Oc6ccc(F)cc6F)cc5)c(C(N)=O)c4N)C3)ccc2CC1C(=O)NC1CCCc2ccccc21)C(C)(C)C

> <Shape>
0.212

> <Color>
0.077

> <Negative vol penalty>
0.000

$$$$

  -OEChem-04052315443D

 84 92  0     1  0  0  0  0  0999 V2000
  -27.8070  -38.3653   20.4001 C   0  0  0  0  0  0  0  0  0  0  0  0
  -28.3208  -37.1044   20.1146 C   0  0  0  0  0  0  0  0  0  0  0  0
  -24.3311   -9.0107   21.5551 C   0  0  0  0  0  0  0  0  0  0  0  0
  -22.3434  -10.3078   21.1038 C   0  0  0  0  0  0  0  0  0  0  0  0
  -26.8685  -38.5199   21.4196 C   0  0  0  0  0  0  0  0  0  0  0  0
  -27.8971  -35.9974   20.8491 C   0  0  0  0  0  0  0  0  0  0  0  0
  -27.1546  -30.2778   18.7898 C   0  0  0  0  0  0  0  0  0  0  0  0
  -23.5690   -7.8425   21.5542 C   0  0  0  0  0  0  0  0  0  0  0  0
  -21.5812   -9.1395   21.1028 C   0  0  0  0  0  0  0  0  0  0  0  0
  -27.9649  -29.1451   18.8543 C   0  0  0  0  0  0  0  0  0  0  0  0
  -22.0882   -4.5550   22.0274 C   0  0  0  0  0  0  0  0  0  0  0  0
  -22.3149   -3.6302   23.0467 C   0  0  0  0  0  0  0  0  0  0  0  0
  -26.7621  -28.4034   20.8094 C   0  0  0  0  0  0  0  0  0  0  0  0
  -26.7698  -20.4254   20.0390 C   0  0  0  0  0  0  0  0  0  0  0  0
  -27.2547  -19.8191   22.7185 C   0  0  0  0  0  0  0  0  0  0  0  0
  -21.7161   -5.2958   24.6911 C   0  0  0  0  0  0  0  0  0  0  0  0
  -23.7183  -10.2434   21.3300 C   0  0  0  0  0  0  0  0  0  0  0  0
  -25.1454  -12.0491   20.2298 C   0  0  0  0  0  0  0  0  0  0  0  0
  -26.4259  -37.4128   22.1605 C   0  0  0  0  0  0  0  0  0  0  0  0
  -26.1474  -30.4876   19.7427 C   0  0  0  0  0  0  0  0  0  0  0  0
  -26.9528  -36.1375   21.8803 C   0  0  0  0  0  0  0  0  0  0  0  0
  -25.9387  -29.5383   20.7533 C   0  0  0  0  0  0  0  0  0  0  0  0
  -27.7456  -21.1267   20.7471 C   0  0  0  0  0  0  0  0  0  0  0  0
  -26.0363  -19.4209   20.6706 C   0  0  0  0  0  0  0  0  0  0  0  0
  -27.9881  -20.8235   22.0869 C   0  0  0  0  0  0  0  0  0  0  0  0
  -26.2788  -19.1178   22.0104 C   0  0  0  0  0  0  0  0  0  0  0  0
  -22.1941   -7.9068   21.3281 C   0  0  0  0  0  0  0  0  0  0  0  0
  -27.7706  -28.2091   19.8658 C   0  0  0  0  0  0  0  0  0  0  0  0
  -21.6755   -5.8503   22.3400 C   0  0  0  0  0  0  0  0  0  0  0  0
  -22.1288   -4.0006   24.3785 C   0  0  0  0  0  0  0  0  0  0  0  0
  -21.4894   -6.2207   23.6718 C   0  0  0  0  0  0  0  0  0  0  0  0
  -24.5049  -11.4506   21.3313 C   0  0  0  0  0  0  0  0  0  0  0  0
  -25.7539  -13.1647   20.7510 C   0  0  0  0  0  0  0  0  0  0  0  0
  -25.1864  -11.6339   18.8581 C   0  0  0  0  0  0  0  0  0  0  0  0
  -25.5603  -32.7154   21.9326 C   0  0  0  0  0  0  0  0  0  0  0  0
  -22.7948  -31.0624   22.3092 C   0  0  0  0  0  0  0  0  0  0  0  0
  -28.6212  -24.6844   19.8967 C   0  0  0  0  0  0  0  0  0  0  0  0
  -21.1184  -28.1075   21.9843 C   0  0  0  0  0  0  0  0  0  0  0  0
  -25.6748  -17.6891   23.9954 C   0  0  0  0  0  0  0  0  0  0  0  0
  -25.4453  -37.6365   23.2843 C   0  0  0  0  0  0  0  0  0  0  0  0
  -25.2644  -31.7013   19.6435 C   0  0  0  0  0  0  0  0  0  0  0  0
  -24.8579  -29.7067   21.7886 C   0  0  0  0  0  0  0  0  0  0  0  0
  -24.7691  -36.3557   23.7667 C   0  0  0  0  0  0  0  0  0  0  0  0
  -26.4635  -14.5879   25.5565 C   0  0  0  0  0  0  0  0  0  0  0  0
  -25.7999  -35.2481   23.9600 C   0  0  0  0  0  0  0  0  0  0  0  0
  -26.0770  -13.5444   24.5058 C   0  0  0  0  0  0  0  0  0  0  0  0
  -25.4963  -15.7703   25.5642 C   0  0  0  0  0  0  0  0  0  0  0  0
  -24.9003  -15.3662   23.2082 C   0  0  0  0  0  0  0  0  0  0  0  0
  -26.4995  -34.9087   22.6383 C   0  0  1  0  0  0  0  0  0  0  0  0
  -24.6050  -32.0703   20.9688 C   0  0  1  0  0  0  0  0  0  0  0  0
  -25.8827  -14.1869   23.1184 C   0  0  2  0  0  0  0  0  0  0  0  0
  -24.9973  -18.6859   19.8877 C   0  0  0  0  0  0  0  0  0  0  0  0
  -29.0277  -21.5612   22.8652 C   0  0  0  0  0  0  0  0  0  0  0  0
  -18.8811  -27.0546   22.4121 C   0  0  0  0  0  0  0  0  0  0  0  0
  -23.4421  -30.9023   25.2867 C   0  0  0  0  0  0  0  0  0  0  0  0
  -21.7342  -29.0828   25.4891 C   0  0  0  0  0  0  0  0  0  0  0  0
  -21.0409  -31.3670   24.7647 C   0  0  0  0  0  0  0  0  0  0  0  0
  -20.7169  -27.5182   19.1120 C   0  0  0  0  0  0  0  0  0  0  0  0
  -28.5220  -22.2038   20.0463 C   0  0  0  0  0  0  0  0  0  0  0  0
  -27.9808  -25.9229   20.4862 C   0  0  0  0  0  0  0  0  0  1  0  0
  -22.3498  -29.9051   23.1704 C   0  0  1  0  0  0  0  0  0  0  0  0
  -19.7549  -27.7817   21.4019 C   0  0  2  0  0  0  0  0  0  0  0  0
  -22.1635  -30.3118   24.6595 C   0  0  0  0  0  0  0  0  0  0  0  0
  -24.6896  -12.1295   22.4666 N   0  0  0  0  0  0  0  0  0  0  0  0
  -25.4530  -13.1662   22.0813 N   0  0  0  0  0  0  0  0  0  0  0  0
  -24.0247  -30.9129   21.6530 N   0  0  0  0  0  0  0  0  0  0  0  0
  -25.3654  -16.3305   24.2174 N   0  0  0  0  0  0  0  0  0  0  0  0
  -26.5118  -14.1345   20.1967 N   0  0  0  0  0  0  0  0  0  0  0  0
  -24.5065  -10.4638   18.4936 N   0  0  0  0  0  0  0  0  0  0  0  0
  -25.5445  -18.1009   22.6695 N   0  0  0  0  0  0  0  0  0  0  0  0
  -25.6425  -34.0892   21.8087 N   0  0  0  0  0  0  0  0  0  0  0  0
  -28.0860  -23.5249   20.4355 N   0  0  0  0  0  0  0  0  0  0  0  0
  -21.1473  -29.3679   22.5428 N   0  0  0  0  0  0  0  0  0  0  0  0
  -19.8996  -26.9168   20.1970 N   0  3  0  0  0  0  0  0  0  0  0  0
  -25.8213  -12.2725   17.9847 O   0  0  0  0  0  0  0  0  0  0  0  0
  -26.1760  -32.0185   22.7307 O   0  0  0  0  0  0  0  0  0  0  0  0
  -22.0741  -32.0592   22.2163 O   0  0  0  0  0  0  0  0  0  0  0  0
  -29.5061  -24.7345   19.0468 O   0  0  0  0  0  0  0  0  0  0  0  0
  -22.0623  -27.3211   21.9507 O   0  0  0  0  0  0  0  0  0  0  0  0
  -26.0553  -18.4257   24.9090 O   0  0  0  0  0  0  0  0  0  0  0  0
  -21.4501   -6.7671   21.3269 O   0  0  0  0  0  0  0  0  0  0  0  0
  -28.5605  -27.1029   19.9314 O   0  0  0  0  0  0  0  0  0  1  0  0
  -22.3451   -3.1119   25.3572 F   0  0  0  0  0  0  0  0  0  0  0  0
  -21.0919   -7.4632   23.9782 F   0  0  0  0  0  0  0  0  0  0  0  0
  1  2  1  0  0  0  0
  1  5  2  0  0  0  0
  2  6  2  0  0  0  0
  3  8  2  0  0  0  0
  3 17  1  0  0  0  0
  4  9  1  0  0  0  0
  4 17  2  0  0  0  0
  5 19  1  0  0  0  0
  6 21  1  0  0  0  0
  7 10  2  0  0  0  0
  7 20  1  0  0  0  0
  8 27  1  0  0  0  0
  9 27  2  0  0  0  0
 10 28  1  0  0  0  0
 11 12  2  0  0  0  0
 11 29  1  0  0  0  0
 12 30  1  0  0  0  0
 13 22  1  0  0  0  0
 13 28  2  0  0  0  0
 14 23  1  0  0  0  0
 14 24  2  0  0  0  0
 15 25  1  0  0  0  0
 15 26  2  0  0  0  0
 16 30  2  0  0  0  0
 16 31  1  0  0  0  0
 17 32  1  0  0  0  0
 18 32  1  0  0  0  0
 18 33  2  0  0  0  0
 18 34  1  0  0  0  0
 19 21  2  0  0  0  0
 19 40  1  0  0  0  0
 20 22  2  0  0  0  0
 20 41  1  0  0  0  0
 21 49  1  0  0  0  0
 22 42  1  0  0  0  0
 23 25  2  0  0  0  0
 23 59  1  0  0  0  0
 24 26  1  0  0  0  0
 24 52  1  0  0  0  0
 25 53  1  0  0  0  0
 26 70  1  0  0  0  0
 27 81  1  0  0  0  0
 28 82  1  0  0  0  0
 29 31  2  0  0  0  0
 29 81  1  0  0  0  0
 30 83  1  0  0  0  0
 31 84  1  0  0  0  0
 32 64  2  0  0  0  0
 33 65  1  0  0  0  0
 33 68  1  0  0  0  0
 34 69  1  0  0  0  0
 34 75  2  0  0  0  0
 35 50  1  0  0  0  0
 35 71  1  0  0  0  0
 35 76  2  0  0  0  0
 36 61  1  0  0  0  0
 36 66  1  0  0  0  0
 36 77  2  0  0  0  0
 37 60  1  0  0  0  0
 37 72  1  0  0  0  0
 37 78  2  0  0  0  0
 38 62  1  0  0  0  0
 38 73  1  0  0  0  0
 38 79  2  0  0  0  0
 39 67  1  0  0  0  0
 39 70  1  0  0  0  0
 39 80  2  0  0  0  0
 40 43  1  0  0  0  0
 41 50  1  0  0  0  0
 42 66  1  0  0  0  0
 43 45  1  0  0  0  0
 44 46  1  0  0  0  0
 44 47  1  0  0  0  0
 45 49  1  0  0  0  0
 46 51  1  0  0  0  0
 47 67  1  0  0  0  0
 48 51  1  0  0  0  0
 48 67  1  0  0  0  0
 49 71  1  0  0  0  0
 50 66  1  0  0  0  0
 51 65  1  0  0  0  0
 54 62  1  0  0  0  0
 55 63  1  0  0  0  0
 56 63  1  0  0  0  0
 57 63  1  0  0  0  0
 58 74  1  0  0  0  0
 59 72  1  0  0  0  0
 60 82  1  0  0  0  0
 61 63  1  0  0  0  0
 61 73  1  0  0  0  0
 62 74  1  0  0  0  0
 64 65  1  0  0  0  0
M  CHG  1  74   1
M  ISO  4  39 100  60 101  70 100  82 101
M  END
> <Batch ID>
0011

> <Smiles>
CNC(C)C(=O)NC(C(=O)N1Cc2cc([101O:1][101CH2:1]C(=O)NCc3cc(C)c([100NH:0][100C:0](=O)N4CCCC(n5nc(-c6ccc(Oc7ccc(F)cc7F)cc6)c(C(N)=O)c5N)C4)cc3C)ccc2CC1C(=O)NC1CCCc2ccccc21)C(C)(C)C

> <Shape>
0.288

> <Color>
0.120

> <Negative vol penalty>
0.000

$$$$

  -OEChem-04052315443D

 88 96  0     1  0  0  0  0  0999 V2000
  -30.0048  -25.5221   17.0471 C   0  0  0  0  0  0  0  0  0  0  0  0
  -28.6184  -25.6014   17.1316 C   0  0  0  0  0  0  0  0  0  0  0  0
  -28.5015  -15.3891   19.2696 C   0  0  0  0  0  0  0  0  0  0  0  0
  -27.8099  -17.6142   19.9081 C   0  0  0  0  0  0  0  0  0  0  0  0
  -30.7909  -25.8930   18.1372 C   0  0  0  0  0  0  0  0  0  0  0  0
  -28.0173  -26.0506   18.3069 C   0  0  0  0  0  0  0  0  0  0  0  0
  -22.8844  -29.3567   18.7858 C   0  0  0  0  0  0  0  0  0  0  0  0
  -29.4480  -15.9325   18.4011 C   0  0  0  0  0  0  0  0  0  0  0  0
  -28.7565  -18.1576   19.0396 C   0  0  0  0  0  0  0  0  0  0  0  0
  -21.5638  -29.0041   19.0602 C   0  0  0  0  0  0  0  0  0  0  0  0
  -29.0589  -18.7188   15.7192 C   0  0  0  0  0  0  0  0  0  0  0  0
  -28.6574  -19.7755   14.9020 C   0  0  0  0  0  0  0  0  0  0  0  0
  -21.9102  -29.5405   21.3864 C   0  0  0  0  0  0  0  0  0  0  0  0
  -18.3573  -18.0195   20.2730 C   0  0  0  0  0  0  0  0  0  0  0  0
  -19.1769  -20.5219   21.1943 C   0  0  0  0  0  0  0  0  0  0  0  0
  -30.3408  -21.1897   15.9036 C   0  0  0  0  0  0  0  0  0  0  0  0
  -27.6824  -16.2300   20.0231 C   0  0  0  0  0  0  0  0  0  0  0  0
  -26.8856  -15.3368   22.2759 C   0  0  0  0  0  0  0  0  0  0  0  0
  -30.1994  -26.3562   19.3230 C   0  0  0  0  0  0  0  0  0  0  0  0
  -23.7325  -29.7942   19.8133 C   0  0  0  0  0  0  0  0  0  0  0  0
  -28.7962  -26.4268   19.4144 C   0  0  0  0  0  0  0  0  0  0  0  0
  -23.2405  -29.9006   21.1220 C   0  0  0  0  0  0  0  0  0  0  0  0
  -19.5758  -18.1529   20.9385 C   0  0  0  0  0  0  0  0  0  0  0  0
  -17.9583  -20.3886   20.5287 C   0  0  0  0  0  0  0  0  0  0  0  0
  -29.5755  -17.3167   18.2860 C   0  0  0  0  0  0  0  0  0  0  0  0
  -21.0773  -29.0932   20.3611 C   0  0  0  0  0  0  0  0  0  0  0  0
  -30.1013  -18.8976   16.6287 C   0  0  0  0  0  0  0  0  0  0  0  0
  -29.2984  -21.0109   14.9942 C   0  0  0  0  0  0  0  0  0  0  0  0
  -17.5485  -19.1374   20.0680 C   0  0  0  0  0  0  0  0  0  0  0  0
  -30.7423  -20.1330   16.7209 C   0  0  0  0  0  0  0  0  0  0  0  0
  -19.9856  -19.4041   21.3992 C   0  0  0  0  0  0  0  0  0  0  0  0
  -26.7040  -15.6693   20.9201 C   0  0  0  0  0  0  0  0  0  0  0  0
  -25.6671  -14.8445   22.6749 C   0  0  0  0  0  0  0  0  0  0  0  0
  -28.0515  -15.4620   23.1010 C   0  0  0  0  0  0  0  0  0  0  0  0
  -26.4445  -28.7339   21.0877 C   0  0  0  0  0  0  0  0  0  0  0  0
  -26.3037  -31.5223   22.7391 C   0  0  0  0  0  0  0  0  0  0  0  0
  -17.3946  -22.8356   20.7117 C   0  0  0  0  0  0  0  0  0  0  0  0
  -24.3912  -34.0651   23.9734 C   0  0  0  0  0  0  0  0  0  0  0  0
  -20.0835  -15.6947   20.7239 C   0  0  0  0  0  0  0  0  0  0  0  0
  -31.0888  -26.7010   20.4913 C   0  0  0  0  0  0  0  0  0  0  0  0
  -25.1468  -30.1963   19.4962 C   0  0  0  0  0  0  0  0  0  0  0  0
  -24.1044  -30.3839   22.2572 C   0  0  0  0  0  0  0  0  0  0  0  0
  -30.3866  -27.5217   21.5700 C   0  0  0  0  0  0  0  0  0  0  0  0
  -21.8016  -12.5862   20.9740 C   0  0  0  0  0  0  0  0  0  0  0  0
  -29.0224  -26.9212   21.8944 C   0  0  0  0  0  0  0  0  0  0  0  0
  -23.2697  -12.9940   21.1181 C   0  0  0  0  0  0  0  0  0  0  0  0
  -21.0462  -13.5134   20.0236 C   0  0  0  0  0  0  0  0  0  0  0  0
  -22.6210  -15.3519   20.4806 C   0  0  0  0  0  0  0  0  0  0  0  0
  -28.1078  -26.9327   20.6636 C   0  0  1  0  0  0  0  0  0  0  0  0
  -26.0705  -30.1390   20.7090 C   0  0  1  0  0  0  0  0  0  0  0  0
  -23.4073  -14.4862   21.4786 C   0  0  2  0  0  0  0  0  0  0  0  0
  -24.5535  -36.1806   25.3134 C   0  0  0  0  0  0  0  0  0  0  0  0
  -26.5934  -29.8791   25.2937 C   0  0  0  0  0  0  0  0  0  0  0  0
  -25.8060  -31.8749   26.5840 C   0  0  0  0  0  0  0  0  0  0  0  0
  -27.9177  -32.0002   25.2620 C   0  0  0  0  0  0  0  0  0  0  0  0
  -23.3690  -35.7020   21.7296 C   0  0  0  0  0  0  0  0  0  0  0  0
  -15.1925  -25.9126   20.8840 C   0  0  0  0  0  0  0  0  0  0  0  0
  -16.2585  -23.7411   20.2931 C   0  0  0  0  0  0  0  0  0  0  0  0
  -18.1520  -26.9957   20.6256 C   0  0  0  0  0  0  0  0  0  0  0  0
  -17.4619  -25.8775   19.8591 C   0  0  0  0  0  0  0  0  0  0  0  0
  -19.1985  -27.7439   19.8088 C   0  0  0  0  0  0  0  0  0  1  0  0
  -25.6984  -31.9581   24.0517 C   0  0  1  0  0  0  0  0  0  0  0  0
  -24.5631  -35.5724   23.9196 C   0  0  2  0  0  0  0  0  0  0  0  0
  -26.4879  -31.4171   25.2770 C   0  0  0  0  0  0  0  0  0  0  0  0
  -25.4675  -15.4098   20.4867 N   0  0  0  0  0  0  0  0  0  0  0  0
  -24.8612  -14.9091   21.5765 N   0  0  0  0  0  0  0  0  0  0  0  0
  -25.4818  -30.7593   21.8977 N   0  0  0  0  0  0  0  0  0  0  0  0
  -21.2186  -14.9099   20.4297 N   0  0  0  0  0  0  0  0  0  0  0  0
  -25.2170  -14.3669   23.8547 N   0  0  0  0  0  0  0  0  0  0  0  0
  -29.2195  -15.9875   22.5318 N   0  0  0  0  0  0  0  0  0  0  0  0
  -17.1398  -21.5243   20.3217 N   0  0  0  0  0  0  0  0  0  0  0  0
  -20.3726  -16.9969   21.1304 N   0  0  0  0  0  0  0  0  0  0  0  0
  -27.5717  -28.2590   20.4447 N   0  0  0  0  0  0  0  0  0  0  0  0
  -25.6059  -33.4130   23.9954 N   0  0  0  0  0  0  0  0  0  0  0  0
  -23.4617  -36.1915   23.1291 N   0  3  0  0  0  0  0  0  0  0  0  0
  -16.4962  -25.1668   20.7296 N   0  3  1  0  0  0  0  0  0  0  0  0
  -28.0621  -15.1027   24.3028 O   0  0  0  0  0  0  0  0  0  0  0  0
  -25.7620  -28.1261   21.9041 O   0  0  0  0  0  0  0  0  0  0  0  0
  -27.4606  -31.8530   22.4673 O   0  0  0  0  0  0  0  0  0  0  0  0
  -18.3793  -23.2606   21.3068 O   0  0  0  0  0  0  0  0  0  0  0  0
  -23.2895  -33.5207   23.9975 O   0  0  0  0  0  0  0  0  0  0  0  0
  -18.9406  -15.2365   20.6488 O   0  0  0  0  0  0  0  0  0  0  0  0
  -30.4992  -17.8473   17.4388 O   0  0  0  0  0  0  0  0  0  0  0  0
  -19.7889  -28.7490   20.6318 O   0  0  0  0  0  0  0  0  0  1  0  0
  -28.9137  -22.0251   14.2083 F   0  0  0  0  0  0  0  0  0  0  0  0
  -16.3794  -18.9975   19.4269 F   0  0  0  0  0  0  0  0  0  0  0  0
  -31.7451  -20.3104   17.5918 F   0  0  0  0  0  0  0  0  0  0  0  0
  -21.4875  -19.6137   22.2272 Cl  0  0  0  0  0  0  0  0  0  0  0  0
  1  2  1  0  0  0  0
  1  5  2  0  0  0  0
  2  6  2  0  0  0  0
  3  8  2  0  0  0  0
  3 17  1  0  0  0  0
  4  9  1  0  0  0  0
  4 17  2  0  0  0  0
  5 19  1  0  0  0  0
  6 21  1  0  0  0  0
  7 10  2  0  0  0  0
  7 20  1  0  0  0  0
  8 25  1  0  0  0  0
  9 25  2  0  0  0  0
 10 26  1  0  0  0  0
 11 12  2  0  0  0  0
 11 27  1  0  0  0  0
 12 28  1  0  0  0  0
 13 22  1  0  0  0  0
 13 26  2  0  0  0  0
 14 23  2  0  0  0  0
 14 29  1  0  0  0  0
 15 24  1  0  0  0  0
 15 31  2  0  0  0  0
 16 28  2  0  0  0  0
 16 30  1  0  0  0  0
 17 32  1  0  0  0  0
 18 32  1  0  0  0  0
 18 33  2  0  0  0  0
 18 34  1  0  0  0  0
 19 21  2  0  0  0  0
 19 40  1  0  0  0  0
 20 22  2  0  0  0  0
 20 41  1  0  0  0  0
 21 49  1  0  0  0  0
 22 42  1  0  0  0  0
 23 31  1  0  0  0  0
 23 72  1  0  0  0  0
 24 29  2  0  0  0  0
 24 71  1  0  0  0  0
 25 83  1  0  0  0  0
 26 84  1  0  0  0  0
 27 30  2  0  0  0  0
 27 83  1  0  0  0  0
 28 85  1  0  0  0  0
 29 86  1  0  0  0  0
 30 87  1  0  0  0  0
 31 88  1  0  0  0  0
 32 65  2  0  0  0  0
 33 66  1  0  0  0  0
 33 69  1  0  0  0  0
 34 70  1  0  0  0  0
 34 77  2  0  0  0  0
 35 50  1  0  0  0  0
 35 73  1  0  0  0  0
 35 78  2  0  0  0  0
 36 62  1  0  0  0  0
 36 67  1  0  0  0  0
 36 79  2  0  0  0  0
 37 58  1  0  0  0  0
 37 71  1  0  0  0  0
 37 80  2  0  0  0  0
 38 63  1  0  0  0  0
 38 74  1  0  0  0  0
 38 81  2  0  0  0  0
 39 68  1  0  0  0  0
 39 72  1  0  0  0  0
 39 82  2  0  0  0  0
 40 43  1  0  0  0  0
 41 50  1  0  0  0  0
 42 67  1  0  0  0  0
 43 45  1  0  0  0  0
 44 46  1  0  0  0  0
 44 47  1  0  0  0  0
 45 49  1  0  0  0  0
 46 51  1  0  0  0  0
 47 68  1  0  0  0  0
 48 51  1  0  0  0  0
 48 68  1  0  0  0  0
 49 73  1  0  0  0  0
 50 67  1  0  0  0  0
 51 66  1  0  0  0  0
 52 63  1  0  0  0  0
 53 64  1  0  0  0  0
 54 64  1  0  0  0  0
 55 64  1  0  0  0  0
 56 75  1  0  0  0  0
 57 76  1  0  0  0  0
 58 76  1  0  0  0  0
 59 60  1  0  0  0  0
 59 61  1  0  0  0  0
 60 76  1  0  0  0  0
 61 84  1  0  0  0  0
 62 64  1  0  0  0  0
 62 74  1  0  0  0  0
 63 75  1  0  0  0  0
 65 66  1  0  0  0  0
M  CHG  2  75   1  76   1
M  ISO  4  39 100  61 101  72 100  84 101
M  END
> <Batch ID>
0011

> <Smiles>
CNC(C)C(=O)NC(C(=O)N1Cc2cc([101O:1][101CH2:1]CCN(C)CC(=O)Nc3cc(Cl)c([100NH:0][100C:0](=O)N4CCCC(n5nc(-c6ccc(Oc7ccc(F)cc7F)cc6)c(C(N)=O)c5N)C4)cc3F)ccc2CC1C(=O)NC1CCCc2ccccc21)C(C)(C)C

> <Shape>
0.248

> <Color>
0.069

> <Negative vol penalty>
0.000

$$$$

  -OEChem-04052315443D

 83 91  0     1  0  0  0  0  0999 V2000
  -19.2585  -20.9447   23.9644 C   0  0  0  0  0  0  0  0  0  0  0  0
  -20.6437  -21.0386   23.8764 C   0  0  0  0  0  0  0  0  0  0  0  0
  -23.1166   -9.7565   20.0511 C   0  0  0  0  0  0  0  0  0  0  0  0
  -23.7786   -9.9772   22.3641 C   0  0  0  0  0  0  0  0  0  0  0  0
  -18.4593  -21.9893   23.5017 C   0  0  0  0  0  0  0  0  0  0  0  0
  -21.2306  -22.1768   23.3245 C   0  0  0  0  0  0  0  0  0  0  0  0
  -25.1563  -23.8537   26.0489 C   0  0  0  0  0  0  0  0  0  0  0  0
  -32.5352  -17.7085   23.2340 C   0  0  0  0  0  0  0  0  0  0  0  0
  -31.9680  -16.7499   22.3944 C   0  0  0  0  0  0  0  0  0  0  0  0
  -22.3661   -8.6259   20.3738 C   0  0  0  0  0  0  0  0  0  0  0  0
  -23.0281   -8.8466   22.6868 C   0  0  0  0  0  0  0  0  0  0  0  0
  -26.3647  -23.1723   25.9105 C   0  0  0  0  0  0  0  0  0  0  0  0
  -19.7797   -8.0851   23.2237 C   0  0  0  0  0  0  0  0  0  0  0  0
  -18.9739   -8.1467   24.3606 C   0  0  0  0  0  0  0  0  0  0  0  0
  -27.1518  -24.8862   24.4063 C   0  0  0  0  0  0  0  0  0  0  0  0
  -20.1887   -6.2927   25.3220 C   0  0  0  0  0  0  0  0  0  0  0  0
  -23.8228  -10.4322   21.0463 C   0  0  0  0  0  0  0  0  0  0  0  0
  -24.1621  -12.9382   20.7110 C   0  0  0  0  0  0  0  0  0  0  0  0
  -19.0370  -23.1450   22.9528 C   0  0  0  0  0  0  0  0  0  0  0  0
  -24.9320  -25.0528   25.3573 C   0  0  0  0  0  0  0  0  0  0  0  0
  -20.4383  -23.2373   22.8528 C   0  0  0  0  0  0  0  0  0  0  0  0
  -25.9406  -25.5821   24.5396 C   0  0  0  0  0  0  0  0  0  0  0  0
  -31.7220  -18.6437   23.8743 C   0  0  0  0  0  0  0  0  0  0  0  0
  -29.7744  -17.6616   22.8353 C   0  0  0  0  0  0  0  0  0  0  0  0
  -30.5876  -16.7264   22.1950 C   0  0  0  0  0  0  0  0  0  0  0  0
  -30.3417  -18.6203   23.6749 C   0  0  0  0  0  0  0  0  0  0  0  0
  -22.3219   -8.1709   21.6916 C   0  0  0  0  0  0  0  0  0  0  0  0
  -27.3616  -23.6870   25.0868 C   0  0  0  0  0  0  0  0  0  0  0  0
  -20.7899   -7.1272   23.1359 C   0  0  0  0  0  0  0  0  0  0  0  0
  -19.1784   -7.2506   25.4098 C   0  0  0  0  0  0  0  0  0  0  0  0
  -20.9944   -6.2311   24.1851 C   0  0  0  0  0  0  0  0  0  0  0  0
  -24.5987  -11.5998   20.7135 C   0  0  0  0  0  0  0  0  0  0  0  0
  -25.2665  -13.6589   20.3270 C   0  0  0  0  0  0  0  0  0  0  0  0
  -22.8735  -13.4814   21.0275 C   0  0  0  0  0  0  0  0  0  0  0  0
  -22.8567  -26.0150   23.1503 C   0  0  0  0  0  0  0  0  0  0  0  0
  -24.2552  -28.8986   23.6516 C   0  0  0  0  0  0  0  0  0  0  0  0
  -29.5681  -20.9546   24.2101 C   0  0  0  0  0  0  0  0  0  0  0  0
  -26.9906  -30.6486   24.7016 C   0  0  0  0  0  0  0  0  0  0  0  0
  -30.7173  -14.7530   20.6346 C   0  0  0  0  0  0  0  0  0  0  0  0
  -18.1308  -24.2278   22.4226 C   0  0  0  0  0  0  0  0  0  0  0  0
  -23.6331  -25.7895   25.5382 C   0  0  0  0  0  0  0  0  0  0  0  0
  -25.7573  -26.8763   23.7914 C   0  0  0  0  0  0  0  0  0  0  0  0
  -18.8417  -25.5594   22.1945 C   0  0  0  0  0  0  0  0  0  0  0  0
  -29.7112  -12.1262   18.4516 C   0  0  0  0  0  0  0  0  0  0  0  0
  -20.1605  -25.3414   21.4596 C   0  0  0  0  0  0  0  0  0  0  0  0
  -28.2555  -11.8652   18.8453 C   0  0  0  0  0  0  0  0  0  0  0  0
  -30.5739  -12.4696   19.6647 C   0  0  0  0  0  0  0  0  0  0  0  0
  -28.6081  -13.3038   20.8930 C   0  0  0  0  0  0  0  0  0  0  0  0
  -21.1130  -24.4663   22.2833 C   0  0  1  0  0  0  0  0  0  0  0  0
  -23.3179  -26.7369   24.3848 C   0  0  1  0  0  0  0  0  0  0  0  0
  -27.6865  -13.0175   19.6962 C   0  0  2  0  0  0  0  0  0  0  0  0
  -32.3597  -19.6579   24.7679 C   0  0  0  0  0  0  0  0  0  0  0  0
  -28.2924  -17.6352   22.6194 C   0  0  0  0  0  0  0  0  0  0  0  0
  -27.8508  -32.9921   24.9576 C   0  0  0  0  0  0  0  0  0  0  0  0
  -24.7376  -29.0476   20.6425 C   0  0  0  0  0  0  0  0  0  0  0  0
  -26.3902  -30.8794   21.0684 C   0  0  0  0  0  0  0  0  0  0  0  0
  -23.9944  -31.1948   21.6874 C   0  0  0  0  0  0  0  0  0  0  0  0
  -27.2846  -30.3446   27.6308 C   0  0  0  0  0  0  0  0  0  0  0  0
  -28.5075  -21.6031   25.0802 C   0  0  0  0  0  0  0  0  0  1  0  0
  -25.4336  -29.6328   23.0589 C   0  0  1  0  0  0  0  0  0  0  0  0
  -27.1282  -31.8380   25.6348 C   0  0  2  0  0  0  0  0  0  0  0  0
  -25.1420  -30.1633   21.6268 C   0  0  0  0  0  0  0  0  0  0  0  0
  -25.8804  -11.4749   20.3591 N   0  0  0  0  0  0  0  0  0  0  0  0
  -26.2586  -12.7440   20.1302 N   0  0  0  0  0  0  0  0  0  0  0  0
  -24.4675  -27.5562   23.9960 N   0  0  0  0  0  0  0  0  0  0  0  0
  -29.9753  -13.5722   20.4203 N   0  0  0  0  0  0  0  0  0  0  0  0
  -25.4759  -14.9796   20.1417 N   0  0  0  0  0  0  0  0  0  0  0  0
  -21.8509  -12.5998   21.4035 N   0  0  0  0  0  0  0  0  0  0  0  0
  -29.5188  -19.5696   24.3261 N   0  0  0  0  0  0  0  0  0  0  0  0
  -30.0331  -15.7442   21.3374 N   0  0  0  0  0  0  0  0  0  0  0  0
  -21.7266  -25.2426   23.3393 N   0  0  0  0  0  0  0  0  0  0  0  0
  -25.7928  -30.6709   24.0190 N   0  0  0  0  0  0  0  0  0  0  0  0
  -27.8947  -31.4540   26.8538 N   0  3  0  0  0  0  0  0  0  0  0  0
  -22.6314  -14.7105   20.9624 O   0  0  0  0  0  0  0  0  0  0  0  0
  -23.4792  -26.1501   22.1034 O   0  0  0  0  0  0  0  0  0  0  0  0
  -23.1879  -29.4963   23.8101 O   0  0  0  0  0  0  0  0  0  0  0  0
  -30.3324  -21.6237   23.5227 O   0  0  0  0  0  0  0  0  0  0  0  0
  -27.8604  -29.7879   24.5867 O   0  0  0  0  0  0  0  0  0  0  0  0
  -31.8647  -14.8861   20.2013 O   0  0  0  0  0  0  0  0  0  0  0  0
  -21.5895   -7.0678   22.0069 O   0  0  0  0  0  0  0  0  0  0  0  0
  -28.5418  -23.0237   24.9495 O   0  0  0  0  0  0  0  0  0  1  0  0
  -18.4056   -7.3109   26.5021 F   0  0  0  0  0  0  0  0  0  0  0  0
  -21.9641   -5.3095   24.1070 F   0  0  0  0  0  0  0  0  0  0  0  0
  1  2  1  0  0  0  0
  1  5  2  0  0  0  0
  2  6  2  0  0  0  0
  3 10  2  0  0  0  0
  3 17  1  0  0  0  0
  4 11  1  0  0  0  0
  4 17  2  0  0  0  0
  5 19  1  0  0  0  0
  6 21  1  0  0  0  0
  7 12  2  0  0  0  0
  7 20  1  0  0  0  0
  8  9  1  0  0  0  0
  8 23  2  0  0  0  0
  9 25  2  0  0  0  0
 10 27  1  0  0  0  0
 11 27  2  0  0  0  0
 12 28  1  0  0  0  0
 13 14  2  0  0  0  0
 13 29  1  0  0  0  0
 14 30  1  0  0  0  0
 15 22  1  0  0  0  0
 15 28  2  0  0  0  0
 16 30  2  0  0  0  0
 16 31  1  0  0  0  0
 17 32  1  0  0  0  0
 18 32  1  0  0  0  0
 18 33  2  0  0  0  0
 18 34  1  0  0  0  0
 19 21  2  0  0  0  0
 19 40  1  0  0  0  0
 20 22  2  0  0  0  0
 20 41  1  0  0  0  0
 21 49  1  0  0  0  0
 22 42  1  0  0  0  0
 23 26  1  0  0  0  0
 23 52  1  0  0  0  0
 24 25  1  0  0  0  0
 24 26  2  0  0  0  0
 24 53  1  0  0  0  0
 25 70  1  0  0  0  0
 26 69  1  0  0  0  0
 27 80  1  0  0  0  0
 28 81  1  0  0  0  0
 29 31  2  0  0  0  0
 29 80  1  0  0  0  0
 30 82  1  0  0  0  0
 31 83  1  0  0  0  0
 32 63  2  0  0  0  0
 33 64  1  0  0  0  0
 33 67  1  0  0  0  0
 34 68  1  0  0  0  0
 34 74  2  0  0  0  0
 35 50  1  0  0  0  0
 35 71  1  0  0  0  0
 35 75  2  0  0  0  0
 36 60  1  0  0  0  0
 36 65  1  0  0  0  0
 36 76  2  0  0  0  0
 37 59  1  0  0  0  0
 37 69  1  0  0  0  0
 37 77  2  0  0  0  0
 38 61  1  0  0  0  0
 38 72  1  0  0  0  0
 38 78  2  0  0  0  0
 39 66  1  0  0  0  0
 39 70  1  0  0  0  0
 39 79  2  0  0  0  0
 40 43  1  0  0  0  0
 41 50  1  0  0  0  0
 42 65  1  0  0  0  0
 43 45  1  0  0  0  0
 44 46  1  0  0  0  0
 44 47  1  0  0  0  0
 45 49  1  0  0  0  0
 46 51  1  0  0  0  0
 47 66  1  0  0  0  0
 48 51  1  0  0  0  0
 48 66  1  0  0  0  0
 49 71  1  0  0  0  0
 50 65  1  0  0  0  0
 51 64  1  0  0  0  0
 54 61  1  0  0  0  0
 55 62  1  0  0  0  0
 56 62  1  0  0  0  0
 57 62  1  0  0  0  0
 58 73  1  0  0  0  0
 59 81  1  0  0  0  0
 60 62  1  0  0  0  0
 60 72  1  0  0  0  0
 61 73  1  0  0  0  0
 63 64  1  0  0  0  0
M  CHG  1  73   1
M  ISO  4  39 100  59 101  70 100  81 101
M  END
> <Batch ID>
0011

> <Smiles>
CNC(C)C(=O)NC(C(=O)N1Cc2cc([101O:1][101CH2:1]C(=O)Nc3c(C)ccc([100NH:0][100C:0](=O)N4CCCC(n5nc(-c6ccc(Oc7ccc(F)cc7F)cc6)c(C(N)=O)c5N)C4)c3C)ccc2CC1C(=O)NC1CCCc2ccccc21)C(C)(C)C

> <Shape>
0.268

> <Color>
0.195

> <Negative vol penalty>
0.000

$$$$

  -OEChem-04052315443D

 84 92  0     1  0  0  0  0  0999 V2000
  -27.7228  -37.6916   21.8998 C   0  0  0  0  0  0  0  0  0  0  0  0
  -28.1860  -36.4801   21.3966 C   0  0  0  0  0  0  0  0  0  0  0  0
  -26.4357  -12.7627   21.4500 C   0  0  0  0  0  0  0  0  0  0  0  0
  -26.3380  -13.3033   19.0973 C   0  0  0  0  0  0  0  0  0  0  0  0
  -26.8375  -37.7050   22.9767 C   0  0  0  0  0  0  0  0  0  0  0  0
  -27.7648  -35.2812   21.9709 C   0  0  0  0  0  0  0  0  0  0  0  0
  -26.7620  -29.9712   19.0893 C   0  0  0  0  0  0  0  0  0  0  0  0
  -25.1643  -12.1943   21.3722 C   0  0  0  0  0  0  0  0  0  0  0  0
  -25.0666  -12.7347   19.0195 C   0  0  0  0  0  0  0  0  0  0  0  0
  -27.5411  -28.8252   18.9364 C   0  0  0  0  0  0  0  0  0  0  0  0
  -23.7935   -9.2942   20.3028 C   0  0  0  0  0  0  0  0  0  0  0  0
  -23.5961   -8.0605   20.9229 C   0  0  0  0  0  0  0  0  0  0  0  0
  -26.4092  -27.8129   20.8108 C   0  0  0  0  0  0  0  0  0  0  0  0
  -29.0287  -22.4312   15.3643 C   0  0  0  0  0  0  0  0  0  0  0  0
  -29.6038  -22.0848   17.6851 C   0  0  0  0  0  0  0  0  0  0  0  0
  -21.8965   -9.0410   22.3326 C   0  0  0  0  0  0  0  0  0  0  0  0
  -27.0225  -13.3173   20.3125 C   0  0  0  0  0  0  0  0  0  0  0  0
  -29.5700  -13.2587   20.1923 C   0  0  0  0  0  0  0  0  0  0  0  0
  -26.3977  -36.5054   23.5583 C   0  0  0  0  0  0  0  0  0  0  0  0
  -25.8065  -30.0510   20.1126 C   0  0  0  0  0  0  0  0  0  0  0  0
  -26.8738  -35.2786   23.0575 C   0  0  0  0  0  0  0  0  0  0  0  0
  -25.6174  -28.9600   20.9729 C   0  0  0  0  0  0  0  0  0  0  0  0
  -29.1533  -21.0621   15.1290 C   0  0  0  0  0  0  0  0  0  0  0  0
  -29.2540  -22.9426   16.6424 C   0  0  0  0  0  0  0  0  0  0  0  0
  -29.7284  -20.7156   17.4499 C   0  0  0  0  0  0  0  0  0  0  0  0
  -24.4798  -12.1803   20.1570 C   0  0  0  0  0  0  0  0  0  0  0  0
  -27.3668  -27.7469   19.7990 C   0  0  0  0  0  0  0  0  0  0  0  0
  -23.0426  -10.4014   20.6977 C   0  0  0  0  0  0  0  0  0  0  0  0
  -22.6476   -7.9338   21.9377 C   0  0  0  0  0  0  0  0  0  0  0  0
  -22.0940  -10.2747   21.7126 C   0  0  0  0  0  0  0  0  0  0  0  0
  -29.5032  -20.2042   16.1718 C   0  0  0  0  0  0  0  0  0  0  0  0
  -28.3355  -13.9052   20.3923 C   0  0  0  0  0  0  0  0  0  0  0  0
  -30.5080  -14.2444   20.3790 C   0  0  0  0  0  0  0  0  0  0  0  0
  -29.8442  -11.8895   19.8669 C   0  0  0  0  0  0  0  0  0  0  0  0
  -25.3864  -31.9211   22.6483 C   0  0  0  0  0  0  0  0  0  0  0  0
  -22.5945  -30.2892   22.9026 C   0  0  0  0  0  0  0  0  0  0  0  0
  -28.7207  -24.8054   18.1653 C   0  0  0  0  0  0  0  0  0  0  0  0
  -20.8198  -27.4582   22.2080 C   0  0  0  0  0  0  0  0  0  0  0  0
  -30.3422  -20.1928   19.8366 C   0  0  0  0  0  0  0  0  0  0  0  0
  -25.4771  -36.5717   24.7511 C   0  0  0  0  0  0  0  0  0  0  0  0
  -24.9555  -31.2839   20.2475 C   0  0  0  0  0  0  0  0  0  0  0  0
  -24.5910  -28.9877   22.0748 C   0  0  0  0  0  0  0  0  0  0  0  0
  -24.7871  -35.2460   25.0623 C   0  0  0  0  0  0  0  0  0  0  0  0
  -31.2109  -18.3439   22.7527 C   0  0  0  0  0  0  0  0  0  0  0  0
  -25.7931  -34.0999   25.0294 C   0  0  0  0  0  0  0  0  0  0  0  0
  -30.6898  -16.9355   22.4576 C   0  0  0  0  0  0  0  0  0  0  0  0
  -30.2802  -19.4207   22.1977 C   0  0  0  0  0  0  0  0  0  0  0  0
  -29.4305  -17.8748   20.4780 C   0  0  0  0  0  0  0  0  0  0  0  0
  -26.4206  -33.9564   23.6376 C   0  0  1  0  0  0  0  0  0  0  0  0
  -24.3692  -31.4552   21.6454 C   0  0  1  0  0  0  0  0  0  0  0  0
  -30.3677  -16.7559   20.9611 C   0  0  2  0  0  0  0  0  0  0  0  0
  -28.9107  -20.5188   13.7611 C   0  0  0  0  0  0  0  0  0  0  0  0
  -18.5751  -26.3996   22.5793 C   0  0  0  0  0  0  0  0  0  0  0  0
  -23.3742  -29.6517   25.7828 C   0  0  0  0  0  0  0  0  0  0  0  0
  -21.6254  -27.8601   25.7861 C   0  0  0  0  0  0  0  0  0  0  0  0
  -20.9659  -30.2438   25.4606 C   0  0  0  0  0  0  0  0  0  0  0  0
  -29.4171  -25.3058   15.7944 C   0  0  0  0  0  0  0  0  0  0  0  0
  -20.2687  -27.3339   19.3029 C   0  0  0  0  0  0  0  0  0  0  0  0
  -28.5680  -26.3103   18.3331 C   0  0  0  0  0  0  0  0  0  1  0  0
  -22.1565  -29.0213   23.5951 C   0  0  1  0  0  0  0  0  0  0  0  0
  -19.4219  -27.2567   21.6514 C   0  0  2  0  0  0  0  0  0  0  0  0
  -22.0513  -29.1941   25.1367 C   0  0  0  0  0  0  0  0  0  0  0  0
  -28.4736  -15.2013   20.6839 N   0  0  0  0  0  0  0  0  0  0  0  0
  -29.8058  -15.3772   20.6685 N   0  0  0  0  0  0  0  0  0  0  0  0
  -23.7879  -30.2179   22.1701 N   0  0  0  0  0  0  0  0  0  0  0  0
  -30.0233  -19.1884   20.7748 N   0  0  0  0  0  0  0  0  0  0  0  0
  -31.8568  -14.2441   20.3221 N   0  0  0  0  0  0  0  0  0  0  0  0
  -28.7638  -11.0106   19.7106 N   0  0  0  0  0  0  0  0  0  0  0  0
  -30.0842  -19.8462   18.5107 N   0  0  0  0  0  0  0  0  0  0  0  0
  -25.5026  -33.2953   22.7350 N   0  0  0  0  0  0  0  0  0  0  0  0
  -20.9112  -28.6148   22.9530 N   0  0  0  0  0  0  0  0  0  0  0  0
  -29.1243  -24.3650   16.8867 N   0  0  0  0  0  0  0  0  0  0  0  0
  -19.4854  -26.5879   20.3212 N   0  3  0  0  0  0  0  0  0  0  0  0
  -31.0134  -11.4546   19.7352 O   0  0  0  0  0  0  0  0  0  0  0  0
  -26.0180  -31.0950   23.2967 O   0  0  0  0  0  0  0  0  0  0  0  0
  -21.8996  -31.3035   23.0018 O   0  0  0  0  0  0  0  0  0  0  0  0
  -28.4605  -24.0721   19.1225 O   0  0  0  0  0  0  0  0  0  0  0  0
  -21.7379  -26.6666   22.0054 O   0  0  0  0  0  0  0  0  0  0  0  0
  -30.8350  -21.2700   20.1813 O   0  0  0  0  0  0  0  0  0  0  0  0
  -23.2392  -11.6254   20.0807 O   0  0  0  0  0  0  0  0  0  0  0  0
  -28.1265  -26.6274   19.6525 O   0  0  0  0  0  0  0  0  0  1  0  0
  -22.4569   -6.7486   22.5319 F   0  0  0  0  0  0  0  0  0  0  0  0
  -21.3687  -11.3345   22.0954 F   0  0  0  0  0  0  0  0  0  0  0  0
  -29.6230  -18.8877   15.9429 F   0  0  0  0  0  0  0  0  0  0  0  0
  1  2  1  0  0  0  0
  1  5  2  0  0  0  0
  2  6  2  0  0  0  0
  3  8  2  0  0  0  0
  3 17  1  0  0  0  0
  4  9  1  0  0  0  0
  4 17  2  0  0  0  0
  5 19  1  0  0  0  0
  6 21  1  0  0  0  0
  7 10  2  0  0  0  0
  7 20  1  0  0  0  0
  8 26  1  0  0  0  0
  9 26  2  0  0  0  0
 10 27  1  0  0  0  0
 11 12  2  0  0  0  0
 11 28  1  0  0  0  0
 12 29  1  0  0  0  0
 13 22  1  0  0  0  0
 13 27  2  0  0  0  0
 14 23  2  0  0  0  0
 14 24  1  0  0  0  0
 15 24  2  0  0  0  0
 15 25  1  0  0  0  0
 16 29  2  0  0  0  0
 16 30  1  0  0  0  0
 17 32  1  0  0  0  0
 18 32  1  0  0  0  0
 18 33  2  0  0  0  0
 18 34  1  0  0  0  0
 19 21  2  0  0  0  0
 19 40  1  0  0  0  0
 20 22  2  0  0  0  0
 20 41  1  0  0  0  0
 21 49  1  0  0  0  0
 22 42  1  0  0  0  0
 23 31  1  0  0  0  0
 23 52  1  0  0  0  0
 24 72  1  0  0  0  0
 25 31  2  0  0  0  0
 25 69  1  0  0  0  0
 26 80  1  0  0  0  0
 27 81  1  0  0  0  0
 28 30  2  0  0  0  0
 28 80  1  0  0  0  0
 29 82  1  0  0  0  0
 30 83  1  0  0  0  0
 31 84  1  0  0  0  0
 32 63  2  0  0  0  0
 33 64  1  0  0  0  0
 33 67  1  0  0  0  0
 34 68  1  0  0  0  0
 34 74  2  0  0  0  0
 35 50  1  0  0  0  0
 35 70  1  0  0  0  0
 35 75  2  0  0  0  0
 36 60  1  0  0  0  0
 36 65  1  0  0  0  0
 36 76  2  0  0  0  0
 37 59  1  0  0  0  0
 37 72  1  0  0  0  0
 37 77  2  0  0  0  0
 38 61  1  0  0  0  0
 38 71  1  0  0  0  0
 38 78  2  0  0  0  0
 39 66  1  0  0  0  0
 39 69  1  0  0  0  0
 39 79  2  0  0  0  0
 40 43  1  0  0  0  0
 41 50  1  0  0  0  0
 42 65  1  0  0  0  0
 43 45  1  0  0  0  0
 44 46  1  0  0  0  0
 44 47  1  0  0  0  0
 45 49  1  0  0  0  0
 46 51  1  0  0  0  0
 47 66  1  0  0  0  0
 48 51  1  0  0  0  0
 48 66  1  0  0  0  0
 49 70  1  0  0  0  0
 50 65  1  0  0  0  0
 51 64  1  0  0  0  0
 53 61  1  0  0  0  0
 54 62  1  0  0  0  0
 55 62  1  0  0  0  0
 56 62  1  0  0  0  0
 57 72  1  0  0  0  0
 58 73  1  0  0  0  0
 59 81  1  0  0  0  0
 60 62  1  0  0  0  0
 60 71  1  0  0  0  0
 61 73  1  0  0  0  0
 63 64  1  0  0  0  0
M  CHG  1  73   1
M  ISO  4  39 100  59 101  69 100  81 101
M  END
> <Batch ID>
0011

> <Smiles>
CNC(C)C(=O)NC(C(=O)N1Cc2cc([101O:1][101CH2:1]C(=O)N(C)c3cc(C)c(F)c([100NH:0][100C:0](=O)N4CCCC(n5nc(-c6ccc(Oc7ccc(F)cc7F)cc6)c(C(N)=O)c5N)C4)c3)ccc2CC1C(=O)NC1CCCc2ccccc21)C(C)(C)C

> <Shape>
0.354

> <Color>
0.106

> <Negative vol penalty>
0.000

$$$$

  -OEChem-04052315443D

 91 99  0     1  0  0  0  0  0999 V2000
  -20.3179  -11.1803   18.4848 C   0  0  0  0  0  0  0  0  0  0  0  0
  -20.6331  -12.4736   18.0804 C   0  0  0  0  0  0  0  0  0  0  0  0
  -20.2411  -28.3745   21.5699 C   0  0  0  0  0  0  0  0  0  0  0  0
  -21.1039  -27.2959   23.5521 C   0  0  0  0  0  0  0  0  0  0  0  0
  -33.1789  -29.4888   23.1746 C   0  0  0  0  0  0  0  0  0  0  0  0
  -21.0034  -10.5976   19.5499 C   0  0  0  0  0  0  0  0  0  0  0  0
  -21.6333  -13.1854   18.7418 C   0  0  0  0  0  0  0  0  0  0  0  0
  -26.7277  -18.0770   17.5434 C   0  0  0  0  0  0  0  0  0  0  0  0
  -18.9632  -27.9023   21.8692 C   0  0  0  0  0  0  0  0  0  0  0  0
  -19.8260  -26.8237   23.8514 C   0  0  0  0  0  0  0  0  0  0  0  0
  -27.1776  -19.3044   18.0278 C   0  0  0  0  0  0  0  0  0  0  0  0
  -16.7247  -25.6357   25.3309 C   0  0  0  0  0  0  0  0  0  0  0  0
  -32.0052  -29.8660   23.8270 C   0  0  0  0  0  0  0  0  0  0  0  0
  -16.2832  -25.7482   26.6492 C   0  0  0  0  0  0  0  0  0  0  0  0
  -31.8915  -28.1394   21.6387 C   0  0  0  0  0  0  0  0  0  0  0  0
  -28.3494  -18.1672   19.8035 C   0  0  0  0  0  0  0  0  0  0  0  0
  -16.5350  -28.1480   26.5288 C   0  0  0  0  0  0  0  0  0  0  0  0
  -21.3115  -28.0713   22.4113 C   0  0  0  0  0  0  0  0  0  0  0  0
  -33.1220  -28.6255   22.0803 C   0  0  0  0  0  0  0  0  0  0  0  0
  -23.2071  -29.7753   22.5145 C   0  0  0  0  0  0  0  0  0  0  0  0
  -22.0192  -11.2990   20.2184 C   0  0  0  0  0  0  0  0  0  0  0  0
  -27.0769  -16.8842   18.1928 C   0  0  0  0  0  0  0  0  0  0  0  0
  -22.3322  -12.6120   19.8177 C   0  0  0  0  0  0  0  0  0  0  0  0
  -27.9048  -16.9258   19.3237 C   0  0  0  0  0  0  0  0  0  0  0  0
  -30.7177  -28.5166   22.2912 C   0  0  0  0  0  0  0  0  0  0  0  0
  -18.7556  -27.1269   23.0099 C   0  0  0  0  0  0  0  0  0  0  0  0
  -27.9862  -19.3499   19.1597 C   0  0  0  0  0  0  0  0  0  0  0  0
  -17.0714  -26.7794   24.6114 C   0  0  0  0  0  0  0  0  0  0  0  0
  -16.1884  -27.0043   27.2482 C   0  0  0  0  0  0  0  0  0  0  0  0
  -30.7746  -29.3799   23.3854 C   0  0  0  0  0  0  0  0  0  0  0  0
  -16.9765  -28.0355   25.2104 C   0  0  0  0  0  0  0  0  0  0  0  0
  -22.6319  -28.5583   22.1024 C   0  0  0  0  0  0  0  0  0  0  0  0
  -24.4647  -29.7650   21.9625 C   0  0  0  0  0  0  0  0  0  0  0  0
  -34.3560  -28.2296   21.3943 C   0  0  0  0  0  0  0  0  0  0  0  0
  -22.6540  -30.8215   23.3240 C   0  0  0  0  0  0  0  0  0  0  0  0
  -35.1229  -27.1633   21.6963 C   0  0  0  0  0  0  0  0  0  0  0  0
  -25.4612  -14.5705   19.6557 C   0  0  0  0  0  0  0  0  0  0  0  0
  -28.3791  -13.1613   19.8061 C   0  0  0  0  0  0  0  0  0  0  0  0
  -32.8553  -24.7509   22.9937 C   0  0  0  0  0  0  0  0  0  0  0  0
  -29.6291  -21.9238   21.2197 C   0  0  0  0  0  0  0  0  0  0  0  0
  -31.7729  -13.5198   19.8080 C   0  0  0  0  0  0  0  0  0  0  0  0
  -29.2388  -27.1602   20.7683 C   0  0  0  0  0  0  0  0  0  0  0  0
  -22.7000  -10.6450   21.3946 C   0  0  0  0  0  0  0  0  0  0  0  0
  -26.6054  -15.5663   17.6420 C   0  0  0  0  0  0  0  0  0  0  0  0
  -28.3249  -15.6723   20.0455 C   0  0  0  0  0  0  0  0  0  0  0  0
  -24.0032  -11.3281   21.8011 C   0  0  0  0  0  0  0  0  0  0  0  0
  -26.5236  -26.6833   18.5149 C   0  0  0  0  0  0  0  0  0  0  0  0
  -23.8158  -12.8406   21.8652 C   0  0  0  0  0  0  0  0  0  0  0  0
  -25.3164  -27.2287   19.2813 C   0  0  0  0  0  0  0  0  0  0  0  0
  -27.5080  -25.9703   19.4404 C   0  0  0  0  0  0  0  0  0  0  0  0
  -26.7414  -27.3002   21.3673 C   0  0  0  0  0  0  0  0  0  0  0  0
  -23.4279  -13.4070   20.4940 C   0  0  1  0  0  0  0  0  0  0  0  0
  -26.6002  -14.4511   18.6830 C   0  0  1  0  0  0  0  0  0  0  0  0
  -25.7536  -28.0833   20.4871 C   0  0  2  0  0  0  0  0  0  0  0  0
  -36.3672  -26.8841   20.8912 C   0  0  0  0  0  0  0  0  0  0  0  0
  -33.8941  -12.1904   19.9831 C   0  0  0  0  0  0  0  0  0  0  0  0
  -27.9431  -12.8663   22.8115 C   0  0  0  0  0  0  0  0  0  0  0  0
  -30.3970  -12.4332   23.0545 C   0  0  0  0  0  0  0  0  0  0  0  0
  -28.9851  -10.8784   21.7085 C   0  0  0  0  0  0  0  0  0  0  0  0
  -32.6701  -14.3791   17.1218 C   0  0  0  0  0  0  0  0  0  0  0  0
  -34.8648  -26.2107   22.8421 C   0  0  0  0  0  0  0  0  0  0  0  0
  -32.2674  -23.4930   22.3798 C   0  0  0  0  0  0  0  0  0  0  0  0
  -29.2514  -20.5195   20.7990 C   0  0  0  0  0  0  0  0  0  1  0  0
  -30.9125  -23.1328   22.9737 C   0  0  0  0  0  0  0  0  0  0  0  0
  -29.5222  -13.1726   20.7920 C   0  0  1  0  0  0  0  0  0  0  0  0
  -32.8630  -12.7928   19.0414 C   0  0  2  0  0  0  0  0  0  0  0  0
  -29.2026  -12.3616   22.0794 C   0  0  0  0  0  0  0  0  0  0  0  0
  -23.4564  -27.8280   21.3468 N   0  0  0  0  0  0  0  0  0  0  0  0
  -24.5624  -28.5884   21.2796 N   0  0  0  0  0  0  0  0  0  0  0  0
  -27.8329  -14.4087   19.4721 N   0  0  0  0  0  0  0  0  0  0  0  0
  -27.8806  -26.8418   20.5568 N   0  0  0  0  0  0  0  0  0  0  0  0
  -25.4854  -30.6477   21.9994 N   0  0  0  0  0  0  0  0  0  0  0  0
  -21.3479  -30.6710   23.8096 N   0  0  0  0  0  0  0  0  0  0  0  0
  -29.4687  -28.0229   21.8395 N   0  0  0  0  0  0  0  0  0  0  0  0
  -24.5907  -13.4975   19.6372 N   0  0  0  0  0  0  0  0  0  0  0  0
  -34.0883  -25.0609   22.4391 N   0  0  0  0  0  0  0  0  0  0  0  0
  -30.4161  -21.9226   22.3606 N   0  0  0  0  0  0  0  0  0  0  0  0
  -30.6943  -12.6996   20.0634 N   0  0  0  0  0  0  0  0  0  0  0  0
  -33.5614  -13.7316   18.1184 N   0  3  0  0  0  0  0  0  0  0  0  0
  -23.2930  -31.8665   23.5945 O   0  0  0  0  0  0  0  0  0  0  0  0
  -25.3791  -15.5620   20.3712 O   0  0  0  0  0  0  0  0  0  0  0  0
  -27.9899  -12.0860   19.3437 O   0  0  0  0  0  0  0  0  0  0  0  0
  -32.2897  -25.3986   23.8704 O   0  0  0  0  0  0  0  0  0  0  0  0
  -29.2652  -22.9222   20.6043 O   0  0  0  0  0  0  0  0  0  0  0  0
  -31.8702  -14.6964   20.1495 O   0  0  0  0  0  0  0  0  0  0  0  0
  -30.1296  -26.7232   20.0351 O   0  0  0  0  0  0  0  0  0  0  0  0
  -17.5087  -26.6662   23.3024 O   0  0  0  0  0  0  0  0  0  0  0  0
  -28.4262  -20.5467   19.6351 O   0  0  0  0  0  0  0  0  0  1  0  0
  -15.7629  -27.1123   28.5137 F   0  0  0  0  0  0  0  0  0  0  0  0
  -29.6528  -29.7500   24.0193 F   0  0  0  0  0  0  0  0  0  0  0  0
  -17.3070  -29.1380   24.5239 F   0  0  0  0  0  0  0  0  0  0  0  0
  1  2  1  0  0  0  0
  1  6  2  0  0  0  0
  2  7  2  0  0  0  0
  3  9  2  0  0  0  0
  3 18  1  0  0  0  0
  4 10  1  0  0  0  0
  4 18  2  0  0  0  0
  5 13  2  0  0  0  0
  5 19  1  0  0  0  0
  6 21  1  0  0  0  0
  7 23  1  0  0  0  0
  8 11  2  0  0  0  0
  8 22  1  0  0  0  0
  9 26  1  0  0  0  0
 10 26  2  0  0  0  0
 11 27  1  0  0  0  0
 12 14  2  0  0  0  0
 12 28  1  0  0  0  0
 13 30  1  0  0  0  0
 14 29  1  0  0  0  0
 15 19  2  0  0  0  0
 15 25  1  0  0  0  0
 16 24  1  0  0  0  0
 16 27  2  0  0  0  0
 17 29  2  0  0  0  0
 17 31  1  0  0  0  0
 18 32  1  0  0  0  0
 19 34  1  0  0  0  0
 20 32  1  0  0  0  0
 20 33  2  0  0  0  0
 20 35  1  0  0  0  0
 21 23  2  0  0  0  0
 21 43  1  0  0  0  0
 22 24  2  0  0  0  0
 22 44  1  0  0  0  0
 23 52  1  0  0  0  0
 24 45  1  0  0  0  0
 25 30  2  0  0  0  0
 25 74  1  0  0  0  0
 26 87  1  0  0  0  0
 27 88  1  0  0  0  0
 28 31  2  0  0  0  0
 28 87  1  0  0  0  0
 29 89  1  0  0  0  0
 30 90  1  0  0  0  0
 31 91  1  0  0  0  0
 32 68  2  0  0  0  0
 33 69  1  0  0  0  0
 33 72  1  0  0  0  0
 34 36  2  0  0  0  0
 35 73  1  0  0  0  0
 35 80  2  0  0  0  0
 36 55  1  0  0  0  0
 36 61  1  0  0  0  0
 37 53  1  0  0  0  0
 37 75  1  0  0  0  0
 37 81  2  0  0  0  0
 38 65  1  0  0  0  0
 38 70  1  0  0  0  0
 38 82  2  0  0  0  0
 39 62  1  0  0  0  0
 39 76  1  0  0  0  0
 39 83  2  0  0  0  0
 40 63  1  0  0  0  0
 40 77  1  0  0  0  0
 40 84  2  0  0  0  0
 41 66  1  0  0  0  0
 41 78  1  0  0  0  0
 41 85  2  0  0  0  0
 42 71  1  0  0  0  0
 42 74  1  0  0  0  0
 42 86  2  0  0  0  0
 43 46  1  0  0  0  0
 44 53  1  0  0  0  0
 45 70  1  0  0  0  0
 46 48  1  0  0  0  0
 47 49  1  0  0  0  0
 47 50  1  0  0  0  0
 48 52  1  0  0  0  0
 49 54  1  0  0  0  0
 50 71  1  0  0  0  0
 51 54  1  0  0  0  0
 51 71  1  0  0  0  0
 52 75  1  0  0  0  0
 53 70  1  0  0  0  0
 54 69  1  0  0  0  0
 56 66  1  0  0  0  0
 57 67  1  0  0  0  0
 58 67  1  0  0  0  0
 59 67  1  0  0  0  0
 60 79  1  0  0  0  0
 61 76  1  0  0  0  0
 62 64  1  0  0  0  0
 63 88  1  0  0  0  0
 64 77  1  0  0  0  0
 65 67  1  0  0  0  0
 65 78  1  0  0  0  0
 66 79  1  0  0  0  0
 68 69  1  0  0  0  0
M  CHG  1  79   1
M  ISO  4  42 100  63 101  74 100  88 101
M  END
> <Batch ID>
0011

> <Smiles>
CNC(C)C(=O)NC(C(=O)N1Cc2cc([101O:1][101CH2:1]C(=O)NCCC(=O)NCC(C)=Cc3ccc(F)c([100NH:0][100C:0](=O)N4CCCC(n5nc(-c6ccc(Oc7ccc(F)cc7F)cc6)c(C(N)=O)c5N)C4)c3)ccc2CC1C(=O)NC1CCCc2ccccc21)C(C)(C)C

> <Shape>
0.263

> <Color>
0.075

> <Negative vol penalty>
0.000

$$$$

  -OEChem-04052315443D

 82 90  0     1  0  0  0  0  0999 V2000
  -21.4642  -25.5843   23.0971 C   0  0  0  0  0  0  0  0  0  0  0  0
  -22.4036  -24.7453   23.6878 C   0  0  0  0  0  0  0  0  0  0  0  0
  -23.0778   -9.8641   19.9446 C   0  0  0  0  0  0  0  0  0  0  0  0
  -23.8330   -9.8803   22.2395 C   0  0  0  0  0  0  0  0  0  0  0  0
  -21.8250  -26.3743   22.0063 C   0  0  0  0  0  0  0  0  0  0  0  0
  -23.7041  -24.6950   23.1875 C   0  0  0  0  0  0  0  0  0  0  0  0
  -28.8551  -23.8813   26.3986 C   0  0  0  0  0  0  0  0  0  0  0  0
  -22.3339   -8.7117   20.1975 C   0  0  0  0  0  0  0  0  0  0  0  0
  -23.0891   -8.7278   22.4924 C   0  0  0  0  0  0  0  0  0  0  0  0
  -29.6414  -22.7558   26.6410 C   0  0  0  0  0  0  0  0  0  0  0  0
  -19.8600   -7.9310   23.0915 C   0  0  0  0  0  0  0  0  0  0  0  0
  -19.1007   -7.8953   24.2610 C   0  0  0  0  0  0  0  0  0  0  0  0
  -30.4605  -18.3597   24.0271 C   0  0  0  0  0  0  0  0  0  0  0  0
  -31.0920  -23.3841   24.8188 C   0  0  0  0  0  0  0  0  0  0  0  0
  -32.0570  -16.6179   22.5438 C   0  0  0  0  0  0  0  0  0  0  0  0
  -20.3415   -5.9612   25.0075 C   0  0  0  0  0  0  0  0  0  0  0  0
  -23.8274  -10.4485   20.9656 C   0  0  0  0  0  0  0  0  0  0  0  0
  -31.8461  -18.3772   24.1863 C   0  0  0  0  0  0  0  0  0  0  0  0
  -24.1685  -12.9733   20.8364 C   0  0  0  0  0  0  0  0  0  0  0  0
  -23.1332  -26.3408   21.4984 C   0  0  0  0  0  0  0  0  0  0  0  0
  -29.1757  -24.7623   25.3557 C   0  0  0  0  0  0  0  0  0  0  0  0
  -24.0825  -25.4842   22.0881 C   0  0  0  0  0  0  0  0  0  0  0  0
  -30.3096  -24.5214   24.5669 C   0  0  0  0  0  0  0  0  0  0  0  0
  -30.6714  -16.6004   22.3846 C   0  0  0  0  0  0  0  0  0  0  0  0
  -22.3395   -8.1435   21.4714 C   0  0  0  0  0  0  0  0  0  0  0  0
  -30.7584  -22.5055   25.8492 C   0  0  0  0  0  0  0  0  0  0  0  0
  -20.8600   -6.9818   22.8799 C   0  0  0  0  0  0  0  0  0  0  0  0
  -19.3414   -6.9104   25.2190 C   0  0  0  0  0  0  0  0  0  0  0  0
  -29.8731  -17.4712   23.1263 C   0  0  0  0  0  0  0  0  0  0  0  0
  -21.1007   -5.9969   23.8379 C   0  0  0  0  0  0  0  0  0  0  0  0
  -32.6444  -17.5063   23.4446 C   0  0  0  0  0  0  0  0  0  0  0  0
  -24.5965  -11.6386   20.7048 C   0  0  0  0  0  0  0  0  0  0  0  0
  -25.2610  -13.7218   20.4725 C   0  0  0  0  0  0  0  0  0  0  0  0
  -32.4270  -19.3423   25.1602 C   0  0  0  0  0  0  0  0  0  0  0  0
  -22.8969  -13.4902   21.2508 C   0  0  0  0  0  0  0  0  0  0  0  0
  -27.7203  -25.7116   22.6941 C   0  0  0  0  0  0  0  0  0  0  0  0
  -30.2449  -27.7393   22.5006 C   0  0  0  0  0  0  0  0  0  0  0  0
  -33.4765  -28.4317   23.3512 C   0  0  0  0  0  0  0  0  0  0  0  0
  -30.7264  -14.7704   20.6542 C   0  0  0  0  0  0  0  0  0  0  0  0
  -23.4637  -27.1777   20.2880 C   0  0  0  0  0  0  0  0  0  0  0  0
  -28.3326  -25.9862   25.1242 C   0  0  0  0  0  0  0  0  0  0  0  0
  -30.7084  -25.4473   23.4478 C   0  0  0  0  0  0  0  0  0  0  0  0
  -24.9628  -27.3448   20.0538 C   0  0  0  0  0  0  0  0  0  0  0  0
  -29.6178  -12.3469   18.2931 C   0  0  0  0  0  0  0  0  0  0  0  0
  -25.6758  -26.0022   20.1806 C   0  0  0  0  0  0  0  0  0  0  0  0
  -28.1774  -12.0564   18.7209 C   0  0  0  0  0  0  0  0  0  0  0  0
  -30.5304  -12.5808   19.4957 C   0  0  0  0  0  0  0  0  0  0  0  0
  -28.6203  -13.3098   20.8703 C   0  0  0  0  0  0  0  0  0  0  0  0
  -25.5099  -25.4203   21.5896 C   0  0  1  0  0  0  0  0  0  0  0  0
  -28.4584  -26.5392   23.7080 C   0  0  1  0  0  0  0  0  0  0  0  0
  -27.6500  -13.1315   19.6911 C   0  0  2  0  0  0  0  0  0  0  0  0
  -35.2790  -30.1445   23.0123 C   0  0  0  0  0  0  0  0  0  0  0  0
  -30.7266  -26.6713   19.6832 C   0  0  0  0  0  0  0  0  0  0  0  0
  -33.0177  -27.6771   19.7688 C   0  0  0  0  0  0  0  0  0  0  0  0
  -31.0065  -29.1448   19.9232 C   0  0  0  0  0  0  0  0  0  0  0  0
  -33.6240  -29.0192   26.2481 C   0  0  0  0  0  0  0  0  0  0  0  0
  -32.1951  -20.8310   24.9616 C   0  0  0  0  0  0  0  0  0  1  0  0
  -31.6225  -27.6757   21.8865 C   0  0  1  0  0  0  0  0  0  0  0  0
  -34.1272  -29.6906   23.8955 C   0  0  2  0  0  0  0  0  0  0  0  0
  -31.5850  -27.7736   20.3352 C   0  0  0  0  0  0  0  0  0  0  0  0
  -25.8623  -11.5417   20.2894 N   0  0  0  0  0  0  0  0  0  0  0  0
  -33.1434  -18.9190   26.1533 N   0  0  0  0  0  0  0  0  0  0  0  0
  -26.2389  -12.8250   20.1569 N   0  0  0  0  0  0  0  0  0  0  0  0
  -29.8487  -26.6271   23.2569 N   0  0  0  0  0  0  0  0  0  0  0  0
  -29.9692  -13.6147   20.3679 N   0  0  0  0  0  0  0  0  0  0  0  0
  -25.4710  -15.0531   20.3947 N   0  0  0  0  0  0  0  0  0  0  0  0
  -21.8847  -12.5819   21.5895 N   0  0  0  0  0  0  0  0  0  0  0  0
  -30.0770  -15.6983   21.4677 N   0  0  0  0  0  0  0  0  0  0  0  0
  -26.4009  -26.0825   22.5181 N   0  0  0  0  0  0  0  0  0  0  0  0
  -32.4060  -28.7232   22.5325 N   0  0  0  0  0  0  0  0  0  0  0  0
  -34.6546  -29.4491   25.2683 N   0  3  0  0  0  0  0  0  0  0  0  0
  -22.6600  -14.7209   21.3029 O   0  0  0  0  0  0  0  0  0  0  0  0
  -28.3051  -24.8047   22.1133 O   0  0  0  0  0  0  0  0  0  0  0  0
  -29.5488  -28.7419   22.3219 O   0  0  0  0  0  0  0  0  0  0  0  0
  -33.8800  -27.3029   23.6221 O   0  0  0  0  0  0  0  0  0  0  0  0
  -31.8564  -14.9377   20.1882 O   0  0  0  0  0  0  0  0  0  0  0  0
  -21.6135   -7.0191   21.7186 O   0  0  0  0  0  0  0  0  0  0  0  0
  -31.5272  -21.4073   26.0833 O   0  0  0  0  0  0  0  0  0  1  0  0
  -18.6132   -6.8772   26.3427 F   0  0  0  0  0  0  0  0  0  0  0  0
  -28.5405  -17.4648   22.9800 F   0  0  0  0  0  0  0  0  0  0  0  0
  -22.0609   -5.0831   23.6408 F   0  0  0  0  0  0  0  0  0  0  0  0
  -34.3632  -17.4953   23.6135 Cl  0  0  0  0  0  0  0  0  0  0  0  0
  1  2  1  0  0  0  0
  1  5  2  0  0  0  0
  2  6  2  0  0  0  0
  3  8  2  0  0  0  0
  3 17  1  0  0  0  0
  4  9  1  0  0  0  0
  4 17  2  0  0  0  0
  5 20  1  0  0  0  0
  6 22  1  0  0  0  0
  7 10  2  0  0  0  0
  7 21  1  0  0  0  0
  8 25  1  0  0  0  0
  9 25  2  0  0  0  0
 10 26  1  0  0  0  0
 11 12  2  0  0  0  0
 11 27  1  0  0  0  0
 12 28  1  0  0  0  0
 13 18  1  0  0  0  0
 13 29  2  0  0  0  0
 14 23  1  0  0  0  0
 14 26  2  0  0  0  0
 15 24  2  0  0  0  0
 15 31  1  0  0  0  0
 16 28  2  0  0  0  0
 16 30  1  0  0  0  0
 17 32  1  0  0  0  0
 18 31  2  0  0  0  0
 18 34  1  0  0  0  0
 19 32  1  0  0  0  0
 19 33  2  0  0  0  0
 19 35  1  0  0  0  0
 20 22  2  0  0  0  0
 20 40  1  0  0  0  0
 21 23  2  0  0  0  0
 21 41  1  0  0  0  0
 22 49  1  0  0  0  0
 23 42  1  0  0  0  0
 24 29  1  0  0  0  0
 24 68  1  0  0  0  0
 25 77  1  0  0  0  0
 26 78  1  0  0  0  0
 27 30  2  0  0  0  0
 27 77  1  0  0  0  0
 28 79  1  0  0  0  0
 29 80  1  0  0  0  0
 30 81  1  0  0  0  0
 31 82  1  0  0  0  0
 32 61  2  0  0  0  0
 33 63  1  0  0  0  0
 33 66  1  0  0  0  0
 34 57  1  0  0  0  0
 34 62  2  0  0  0  0
 35 67  1  0  0  0  0
 35 72  2  0  0  0  0
 36 50  1  0  0  0  0
 36 69  1  0  0  0  0
 36 73  2  0  0  0  0
 37 58  1  0  0  0  0
 37 64  1  0  0  0  0
 37 74  2  0  0  0  0
 38 59  1  0  0  0  0
 38 70  1  0  0  0  0
 38 75  2  0  0  0  0
 39 65  1  0  0  0  0
 39 68  1  0  0  0  0
 39 76  2  0  0  0  0
 40 43  1  0  0  0  0
 41 50  1  0  0  0  0
 42 64  1  0  0  0  0
 43 45  1  0  0  0  0
 44 46  1  0  0  0  0
 44 47  1  0  0  0  0
 45 49  1  0  0  0  0
 46 51  1  0  0  0  0
 47 65  1  0  0  0  0
 48 51  1  0  0  0  0
 48 65  1  0  0  0  0
 49 69  1  0  0  0  0
 50 64  1  0  0  0  0
 51 63  1  0  0  0  0
 52 59  1  0  0  0  0
 53 60  1  0  0  0  0
 54 60  1  0  0  0  0
 55 60  1  0  0  0  0
 56 71  1  0  0  0  0
 57 78  1  0  0  0  0
 58 60  1  0  0  0  0
 58 70  1  0  0  0  0
 59 71  1  0  0  0  0
 61 63  1  0  0  0  0
M  CHG  1  71   1
M  ISO  4  39 100  57 101  68 100  78 101
M  END
> <Batch ID>
0011

> <Smiles>
CNC(C)C(=O)NC(C(=O)N1Cc2cc([101O:1][101CH2:1]C(=N)c3cc(F)c([100NH:0][100C:0](=O)N4CCCC(n5nc(-c6ccc(Oc7ccc(F)cc7F)cc6)c(C(N)=O)c5N)C4)cc3Cl)ccc2CC1C(=O)NC1CCCc2ccccc21)C(C)(C)C

> <Shape>
0.214

> <Color>
0.192

> <Negative vol penalty>
0.000

$$$$

  -OEChem-04052315443D

 84 92  0     1  0  0  0  0  0999 V2000
  -28.6337  -22.3214   18.8443 C   0  0  0  0  0  0  0  0  0  0  0  0
  -27.4309  -22.6522   19.4603 C   0  0  0  0  0  0  0  0  0  0  0  0
  -28.1528  -14.8628   21.4280 C   0  0  0  0  0  0  0  0  0  0  0  0
  -25.8105  -15.4506   21.4989 C   0  0  0  0  0  0  0  0  0  0  0  0
  -29.8057  -22.9850   19.2046 C   0  0  0  0  0  0  0  0  0  0  0  0
  -27.3998  -23.6462   20.4378 C   0  0  0  0  0  0  0  0  0  0  0  0
  -23.5177  -26.8419   19.8358 C   0  0  0  0  0  0  0  0  0  0  0  0
  -20.3971  -22.2825   26.5130 C   0  0  0  0  0  0  0  0  0  0  0  0
  -21.7541  -21.9608   26.4884 C   0  0  0  0  0  0  0  0  0  0  0  0
  -27.8161  -13.5688   21.0309 C   0  0  0  0  0  0  0  0  0  0  0  0
  -25.4737  -14.1566   21.1018 C   0  0  0  0  0  0  0  0  0  0  0  0
  -22.2615  -26.4032   20.2521 C   0  0  0  0  0  0  0  0  0  0  0  0
  -23.9808  -10.9065   20.4553 C   0  0  0  0  0  0  0  0  0  0  0  0
  -22.9397  -10.2710   21.1317 C   0  0  0  0  0  0  0  0  0  0  0  0
  -22.5037  -27.6658   22.2933 C   0  0  0  0  0  0  0  0  0  0  0  0
  -20.2932  -22.0279   24.1127 C   0  0  0  0  0  0  0  0  0  0  0  0
  -24.1669  -10.4659   23.2037 C   0  0  0  0  0  0  0  0  0  0  0  0
  -27.1500  -15.8038   21.6621 C   0  0  0  0  0  0  0  0  0  0  0  0
  -28.2872  -18.0683   21.3679 C   0  0  0  0  0  0  0  0  0  0  0  0
  -29.7872  -23.9943   20.1801 C   0  0  0  0  0  0  0  0  0  0  0  0
  -24.2823  -27.6885   20.6513 C   0  0  0  0  0  0  0  0  0  0  0  0
  -28.5729  -24.3230   20.8124 C   0  0  0  0  0  0  0  0  0  0  0  0
  -23.7682  -28.1158   21.8839 C   0  0  0  0  0  0  0  0  0  0  0  0
  -21.6502  -21.7062   24.0881 C   0  0  0  0  0  0  0  0  0  0  0  0
  -19.6666  -22.3160   25.3251 C   0  0  0  0  0  0  0  0  0  0  0  0
  -22.3807  -21.6727   25.2760 C   0  0  0  0  0  0  0  0  0  0  0  0
  -26.4766  -13.2157   20.8678 C   0  0  0  0  0  0  0  0  0  0  0  0
  -21.7555  -26.8129   21.4822 C   0  0  0  0  0  0  0  0  0  0  0  0
  -25.1151  -11.3216   21.1530 C   0  0  0  0  0  0  0  0  0  0  0  0
  -23.0327  -10.0507   22.5060 C   0  0  0  0  0  0  0  0  0  0  0  0
  -25.2081  -11.1014   22.5272 C   0  0  0  0  0  0  0  0  0  0  0  0
  -27.4972  -17.1405   22.0729 C   0  0  0  0  0  0  0  0  0  0  0  0
  -28.3164  -19.1784   22.1761 C   0  0  0  0  0  0  0  0  0  0  0  0
  -28.9364  -17.9382   20.0962 C   0  0  0  0  0  0  0  0  0  0  0  0
  -27.1100  -27.4678   22.0863 C   0  0  0  0  0  0  0  0  0  0  0  0
  -17.9284  -23.8798   25.2346 C   0  0  0  0  0  0  0  0  0  0  0  0
  -26.5426  -30.5757   22.8222 C   0  0  0  0  0  0  0  0  0  0  0  0
  -24.2633  -33.0704   23.2999 C   0  0  0  0  0  0  0  0  0  0  0  0
  -24.6130  -21.2715   26.3724 C   0  0  0  0  0  0  0  0  0  0  0  0
  -31.0878  -24.6508   20.5701 C   0  0  0  0  0  0  0  0  0  0  0  0
  -25.6242  -28.1742   20.1760 C   0  0  0  0  0  0  0  0  0  0  0  0
  -24.5407  -29.0405   22.7876 C   0  0  0  0  0  0  0  0  0  0  0  0
  -30.9044  -25.9518   21.3473 C   0  0  0  0  0  0  0  0  0  0  0  0
  -28.0569  -20.4656   26.7815 C   0  0  0  0  0  0  0  0  0  0  0  0
  -29.8635  -25.7738   22.4481 C   0  0  0  0  0  0  0  0  0  0  0  0
  -28.3776  -19.6110   25.5532 C   0  0  0  0  0  0  0  0  0  0  0  0
  -26.6484  -20.1959   27.3080 C   0  0  0  0  0  0  0  0  0  0  0  0
  -25.8998  -19.4578   25.0800 C   0  0  0  0  0  0  0  0  0  0  0  0
  -28.4943  -25.4128   21.8594 C   0  0  1  0  0  0  0  0  0  0  0  0
  -26.5352  -28.6220   21.3148 C   0  0  1  0  0  0  0  0  0  0  0  0
  -27.2843  -19.7415   24.4747 C   0  0  2  0  0  0  0  0  0  0  0  0
  -22.2953  -21.4010   22.7750 C   0  0  0  0  0  0  0  0  0  0  0  0
  -16.4932  -24.3568   25.2463 C   0  0  0  0  0  0  0  0  0  0  0  0
  -24.0983  -35.4935   23.9314 C   0  0  0  0  0  0  0  0  0  0  0  0
  -27.0497  -29.8469   25.7414 C   0  0  0  0  0  0  0  0  0  0  0  0
  -25.9637  -32.0056   26.3964 C   0  0  0  0  0  0  0  0  0  0  0  0
  -28.0453  -32.0254   25.0219 C   0  0  0  0  0  0  0  0  0  0  0  0
  -23.0300  -33.7823   20.7055 C   0  0  0  0  0  0  0  0  0  0  0  0
  -19.0125  -24.9213   25.0198 C   0  0  0  0  0  0  0  0  0  0  0  0
  -19.2903  -25.1591   23.5392 C   0  0  0  0  0  0  0  0  0  0  0  0
  -20.3247  -26.2517   23.2971 C   0  0  0  0  0  0  0  0  0  1  0  0
  -25.8677  -31.2982   23.9630 C   0  0  1  0  0  0  0  0  0  0  0  0
  -24.2104  -34.4982   22.7870 C   0  0  2  0  0  0  0  0  0  0  0  0
  -26.7176  -31.2750   25.2648 C   0  0  0  0  0  0  0  0  0  0  0  0
  -27.0565  -17.6195   23.2392 N   0  0  0  0  0  0  0  0  0  0  0  0
  -18.3013  -22.6399   25.3501 N   0  0  0  0  0  0  0  0  0  0  0  0
  -27.5714  -18.8604   23.2734 N   0  0  0  0  0  0  0  0  0  0  0  0
  -25.8505  -29.4829   22.2813 N   0  0  0  0  0  0  0  0  0  0  0  0
  -25.6654  -20.3423   26.2322 N   0  0  0  0  0  0  0  0  0  0  0  0
  -28.9064  -20.3859   22.0480 N   0  0  0  0  0  0  0  0  0  0  0  0
  -28.2305  -18.3114   18.9444 N   0  0  0  0  0  0  0  0  0  0  0  0
  -23.7595  -21.3463   25.2721 N   0  0  0  0  0  0  0  0  0  0  0  0
  -27.8507  -26.5904   21.3176 N   0  0  0  0  0  0  0  0  0  0  0  0
  -25.5610  -32.6378   23.4734 N   0  0  0  0  0  0  0  0  0  0  0  0
  -23.0366  -34.6823   21.8874 N   0  3  0  0  0  0  0  0  0  0  0  0
  -30.1020  -17.4885   19.9832 O   0  0  0  0  0  0  0  0  0  0  0  0
  -26.8985  -27.3807   23.2902 O   0  0  0  0  0  0  0  0  0  0  0  0
  -27.6401  -30.9709   22.4210 O   0  0  0  0  0  0  0  0  0  0  0  0
  -23.2543  -32.4066   23.5277 O   0  0  0  0  0  0  0  0  0  0  0  0
  -24.4945  -21.9704   27.3821 O   0  0  0  0  0  0  0  0  0  0  0  0
  -26.1476  -11.9531   20.4801 O   0  0  0  0  0  0  0  0  0  0  0  0
  -20.5300  -26.3857   21.8913 O   0  0  0  0  0  0  0  0  0  1  0  0
  -22.0321   -9.4418   23.1557 F   0  0  0  0  0  0  0  0  0  0  0  0
  -26.2948  -11.4990   23.2031 F   0  0  0  0  0  0  0  0  0  0  0  0
  1  2  1  0  0  0  0
  1  5  2  0  0  0  0
  2  6  2  0  0  0  0
  3 10  2  0  0  0  0
  3 18  1  0  0  0  0
  4 11  1  0  0  0  0
  4 18  2  0  0  0  0
  5 20  1  0  0  0  0
  6 22  1  0  0  0  0
  7 12  2  0  0  0  0
  7 21  1  0  0  0  0
  8  9  2  0  0  0  0
  8 25  1  0  0  0  0
  9 26  1  0  0  0  0
 10 27  1  0  0  0  0
 11 27  2  0  0  0  0
 12 28  1  0  0  0  0
 13 14  2  0  0  0  0
 13 29  1  0  0  0  0
 14 30  1  0  0  0  0
 15 23  1  0  0  0  0
 15 28  2  0  0  0  0
 16 24  1  0  0  0  0
 16 25  2  0  0  0  0
 17 30  2  0  0  0  0
 17 31  1  0  0  0  0
 18 32  1  0  0  0  0
 19 32  1  0  0  0  0
 19 33  2  0  0  0  0
 19 34  1  0  0  0  0
 20 22  2  0  0  0  0
 20 40  1  0  0  0  0
 21 23  2  0  0  0  0
 21 41  1  0  0  0  0
 22 49  1  0  0  0  0
 23 42  1  0  0  0  0
 24 26  2  0  0  0  0
 24 52  1  0  0  0  0
 25 66  1  0  0  0  0
 26 72  1  0  0  0  0
 27 81  1  0  0  0  0
 28 82  1  0  0  0  0
 29 31  2  0  0  0  0
 29 81  1  0  0  0  0
 30 83  1  0  0  0  0
 31 84  1  0  0  0  0
 32 65  2  0  0  0  0
 33 67  1  0  0  0  0
 33 70  1  0  0  0  0
 34 71  1  0  0  0  0
 34 76  2  0  0  0  0
 35 50  1  0  0  0  0
 35 73  1  0  0  0  0
 35 77  2  0  0  0  0
 36 53  1  0  0  0  0
 36 59  1  0  0  0  0
 36 66  2  0  0  0  0
 37 62  1  0  0  0  0
 37 68  1  0  0  0  0
 37 78  2  0  0  0  0
 38 63  1  0  0  0  0
 38 74  1  0  0  0  0
 38 79  2  0  0  0  0
 39 69  1  0  0  0  0
 39 72  1  0  0  0  0
 39 80  2  0  0  0  0
 40 43  1  0  0  0  0
 41 50  1  0  0  0  0
 42 68  1  0  0  0  0
 43 45  1  0  0  0  0
 44 46  1  0  0  0  0
 44 47  1  0  0  0  0
 45 49  1  0  0  0  0
 46 51  1  0  0  0  0
 47 69  1  0  0  0  0
 48 51  1  0  0  0  0
 48 69  1  0  0  0  0
 49 73  1  0  0  0  0
 50 68  1  0  0  0  0
 51 67  1  0  0  0  0
 54 63  1  0  0  0  0
 55 64  1  0  0  0  0
 56 64  1  0  0  0  0
 57 64  1  0  0  0  0
 58 75  1  0  0  0  0
 59 60  1  0  0  0  0
 60 61  1  0  0  0  0
 61 82  1  0  0  0  0
 62 64  1  0  0  0  0
 62 74  1  0  0  0  0
 63 75  1  0  0  0  0
 65 67  1  0  0  0  0
M  CHG  1  75   1
M  ISO  4  39 100  61 101  72 100  82 101
M  END
> <Batch ID>
0011

> <Smiles>
C=C(CC[101CH2:1][101O:1]c1ccc2c(c1)CN(C(=O)C(NC(=O)C(C)NC)C(C)(C)C)C(C(=O)NC1CCCc3ccccc31)C2)Nc1ccc([100NH:0][100C:0](=O)N2CCCC(n3nc(-c4ccc(Oc5ccc(F)cc5F)cc4)c(C(N)=O)c3N)C2)c(C)c1

> <Shape>
0.230

> <Color>
0.072

> <Negative vol penalty>
0.000

$$$$

  -OEChem-04052315443D

 82 90  0     1  0  0  0  0  0999 V2000
  -30.8855  -31.8023   24.9060 C   0  0  0  0  0  0  0  0  0  0  0  0
  -30.3823  -30.6725   24.2690 C   0  0  0  0  0  0  0  0  0  0  0  0
  -24.6230   -8.9744   21.3597 C   0  0  0  0  0  0  0  0  0  0  0  0
  -23.3429  -10.8324   22.2236 C   0  0  0  0  0  0  0  0  0  0  0  0
  -30.0211  -32.6649   25.5788 C   0  0  0  0  0  0  0  0  0  0  0  0
  -29.0145  -30.4041   24.3054 C   0  0  0  0  0  0  0  0  0  0  0  0
  -27.1845  -29.0249   19.7894 C   0  0  0  0  0  0  0  0  0  0  0  0
  -28.1678  -19.0876   20.3270 C   0  0  0  0  0  0  0  0  0  0  0  0
  -27.7295  -20.3999   20.1500 C   0  0  0  0  0  0  0  0  0  0  0  0
  -24.0775   -8.1436   22.3383 C   0  0  0  0  0  0  0  0  0  0  0  0
  -22.7973  -10.0015   23.2022 C   0  0  0  0  0  0  0  0  0  0  0  0
  -27.4235  -27.7141   19.3789 C   0  0  0  0  0  0  0  0  0  0  0  0
  -21.1785   -6.4844   22.8639 C   0  0  0  0  0  0  0  0  0  0  0  0
  -20.7286   -5.2250   22.4677 C   0  0  0  0  0  0  0  0  0  0  0  0
  -25.1913  -27.1009   20.0575 C   0  0  0  0  0  0  0  0  0  0  0  0
  -26.1409  -18.5740   21.5373 C   0  0  0  0  0  0  0  0  0  0  0  0
  -22.2950   -4.1875   23.9866 C   0  0  0  0  0  0  0  0  0  0  0  0
  -24.2558  -10.3189   21.3024 C   0  0  0  0  0  0  0  0  0  0  0  0
  -24.3078  -11.4246   19.0041 C   0  0  0  0  0  0  0  0  0  0  0  0
  -28.6407  -32.4121   25.6153 C   0  0  0  0  0  0  0  0  0  0  0  0
  -25.9488  -29.3816   20.3481 C   0  0  0  0  0  0  0  0  0  0  0  0
  -28.1309  -31.2634   24.9805 C   0  0  0  0  0  0  0  0  0  0  0  0
  -24.9383  -28.4175   20.4720 C   0  0  0  0  0  0  0  0  0  0  0  0
  -27.3734  -18.1746   21.0206 C   0  0  0  0  0  0  0  0  0  0  0  0
  -26.4970  -20.7993   20.6666 C   0  0  0  0  0  0  0  0  0  0  0  0
  -23.1646   -8.6571   23.2595 C   0  0  0  0  0  0  0  0  0  0  0  0
  -26.4279  -26.7512   19.5156 C   0  0  0  0  0  0  0  0  0  0  0  0
  -22.1868   -6.5954   23.8214 C   0  0  0  0  0  0  0  0  0  0  0  0
  -21.2868   -4.0766   23.0291 C   0  0  0  0  0  0  0  0  0  0  0  0
  -22.7450   -5.4470   24.3828 C   0  0  0  0  0  0  0  0  0  0  0  0
  -25.7026  -19.8864   21.3603 C   0  0  0  0  0  0  0  0  0  0  0  0
  -24.8194  -11.1779   20.2922 C   0  0  0  0  0  0  0  0  0  0  0  0
  -25.2018  -12.3029   18.4420 C   0  0  0  0  0  0  0  0  0  0  0  0
  -23.1299  -10.9062   18.3721 C   0  0  0  0  0  0  0  0  0  0  0  0
  -25.0022  -30.5069   23.1662 C   0  0  0  0  0  0  0  0  0  0  0  0
  -22.1256  -30.7101   21.6809 C   0  0  0  0  0  0  0  0  0  0  0  0
  -26.7666  -23.1471   19.8010 C   0  0  0  0  0  0  0  0  0  0  0  0
  -20.0682  -29.6143   19.1882 C   0  0  0  0  0  0  0  0  0  0  0  0
  -29.0147  -16.2827   20.7501 C   0  0  0  0  0  0  0  0  0  0  0  0
  -27.7516  -33.3480   26.3951 C   0  0  0  0  0  0  0  0  0  0  0  0
  -25.6975  -30.8059   20.7614 C   0  0  0  0  0  0  0  0  0  0  0  0
  -23.5874  -28.7539   21.0468 C   0  0  0  0  0  0  0  0  0  0  0  0
  -26.2685  -33.1925   26.0689 C   0  0  0  0  0  0  0  0  0  0  0  0
  -29.8200  -13.5604   18.6012 C   0  0  0  0  0  0  0  0  0  0  0  0
  -25.8765  -31.7184   26.0558 C   0  0  0  0  0  0  0  0  0  0  0  0
  -28.5800  -12.6660   18.6690 C   0  0  0  0  0  0  0  0  0  0  0  0
  -30.1259  -14.2090   19.9501 C   0  0  0  0  0  0  0  0  0  0  0  0
  -27.7633  -14.0390   20.6273 C   0  0  0  0  0  0  0  0  0  0  0  0
  -26.6502  -30.9514   24.9766 C   0  0  1  0  0  0  0  0  0  0  0  0
  -24.5800  -30.9410   21.7910 C   0  0  1  0  0  0  0  0  0  0  0  0
  -27.3775  -13.4149   19.2762 C   0  0  2  0  0  0  0  0  0  0  0  0
  -17.7635  -29.9400   18.2503 C   0  0  0  0  0  0  0  0  0  0  0  0
  -20.9601  -29.0898   23.9887 C   0  0  0  0  0  0  0  0  0  0  0  0
  -18.9487  -28.6419   22.5667 C   0  0  0  0  0  0  0  0  0  0  0  0
  -19.5218  -30.9824   23.2119 C   0  0  0  0  0  0  0  0  0  0  0  0
  -21.1321  -30.5071   16.5747 C   0  0  0  0  0  0  0  0  0  0  0  0
  -25.9684  -24.4374   19.8174 C   0  0  0  0  0  0  0  0  0  1  0  0
  -20.9470  -29.7838   21.5019 C   0  0  1  0  0  0  0  0  0  0  0  0
  -19.2215  -30.3665   18.1774 C   0  0  2  0  0  0  0  0  0  0  0  0
  -20.1204  -29.6174   22.8082 C   0  0  0  0  0  0  0  0  0  0  0  0
  -25.9507  -11.8454   20.5342 N   0  0  0  0  0  0  0  0  0  0  0  0
  -26.1574  -12.5202   19.3905 N   0  0  0  0  0  0  0  0  0  0  0  0
  -23.3924  -30.1586   21.4422 N   0  0  0  0  0  0  0  0  0  0  0  0
  -28.9423  -14.9035   20.4618 N   0  0  0  0  0  0  0  0  0  0  0  0
  -25.2558  -12.9028   17.2339 N   0  0  0  0  0  0  0  0  0  0  0  0
  -22.3229  -10.0146   19.0919 N   0  0  0  0  0  0  0  0  0  0  0  0
  -26.0819  -22.1376   20.4690 N   0  0  0  0  0  0  0  0  0  0  0  0
  -27.8187  -16.8414   21.1995 N   0  0  0  0  0  0  0  0  0  0  0  0
  -26.0822  -31.2063   23.6701 N   0  0  0  0  0  0  0  0  0  0  0  0
  -20.1837  -30.3077   20.3744 N   0  0  0  0  0  0  0  0  0  0  0  0
  -19.7170  -30.1121   16.7951 N   0  3  0  0  0  0  0  0  0  0  0  0
  -22.8114  -11.2116   17.1979 O   0  0  0  0  0  0  0  0  0  0  0  0
  -24.3924  -29.6052   23.7290 O   0  0  0  0  0  0  0  0  0  0  0  0
  -21.9290  -31.8817   22.0130 O   0  0  0  0  0  0  0  0  0  0  0  0
  -27.8620  -23.0761   19.2535 O   0  0  0  0  0  0  0  0  0  0  0  0
  -20.5735  -28.5194   18.9506 O   0  0  0  0  0  0  0  0  0  0  0  0
  -30.0534  -16.9270   20.5828 O   0  0  0  0  0  0  0  0  0  0  0  0
  -22.6319   -7.8465   24.2143 O   0  0  0  0  0  0  0  0  0  0  0  0
  -26.6588  -25.4709   19.1163 O   0  0  0  0  0  0  0  0  0  1  0  0
  -20.8535   -2.8672   22.6496 F   0  0  0  0  0  0  0  0  0  0  0  0
  -23.7131   -5.5473   25.3040 F   0  0  0  0  0  0  0  0  0  0  0  0
  -24.1698  -20.3395   22.0160 Cl  0  0  0  0  0  0  0  0  0  0  0  0
  1  2  1  0  0  0  0
  1  5  2  0  0  0  0
  2  6  2  0  0  0  0
  3 10  2  0  0  0  0
  3 18  1  0  0  0  0
  4 11  1  0  0  0  0
  4 18  2  0  0  0  0
  5 20  1  0  0  0  0
  6 22  1  0  0  0  0
  7 12  2  0  0  0  0
  7 21  1  0  0  0  0
  8  9  2  0  0  0  0
  8 24  1  0  0  0  0
  9 25  1  0  0  0  0
 10 26  1  0  0  0  0
 11 26  2  0  0  0  0
 12 27  1  0  0  0  0
 13 14  2  0  0  0  0
 13 28  1  0  0  0  0
 14 29  1  0  0  0  0
 15 23  1  0  0  0  0
 15 27  2  0  0  0  0
 16 24  2  0  0  0  0
 16 31  1  0  0  0  0
 17 29  2  0  0  0  0
 17 30  1  0  0  0  0
 18 32  1  0  0  0  0
 19 32  1  0  0  0  0
 19 33  2  0  0  0  0
 19 34  1  0  0  0  0
 20 22  2  0  0  0  0
 20 40  1  0  0  0  0
 21 23  2  0  0  0  0
 21 41  1  0  0  0  0
 22 49  1  0  0  0  0
 23 42  1  0  0  0  0
 24 68  1  0  0  0  0
 25 31  2  0  0  0  0
 25 67  1  0  0  0  0
 26 78  1  0  0  0  0
 27 79  1  0  0  0  0
 28 30  2  0  0  0  0
 28 78  1  0  0  0  0
 29 80  1  0  0  0  0
 30 81  1  0  0  0  0
 31 82  1  0  0  0  0
 32 61  2  0  0  0  0
 33 62  1  0  0  0  0
 33 65  1  0  0  0  0
 34 66  1  0  0  0  0
 34 72  2  0  0  0  0
 35 50  1  0  0  0  0
 35 69  1  0  0  0  0
 35 73  2  0  0  0  0
 36 58  1  0  0  0  0
 36 63  1  0  0  0  0
 36 74  2  0  0  0  0
 37 57  1  0  0  0  0
 37 67  1  0  0  0  0
 37 75  2  0  0  0  0
 38 59  1  0  0  0  0
 38 70  1  0  0  0  0
 38 76  2  0  0  0  0
 39 64  1  0  0  0  0
 39 68  1  0  0  0  0
 39 77  2  0  0  0  0
 40 43  1  0  0  0  0
 41 50  1  0  0  0  0
 42 63  1  0  0  0  0
 43 45  1  0  0  0  0
 44 46  1  0  0  0  0
 44 47  1  0  0  0  0
 45 49  1  0  0  0  0
 46 51  1  0  0  0  0
 47 64  1  0  0  0  0
 48 51  1  0  0  0  0
 48 64  1  0  0  0  0
 49 69  1  0  0  0  0
 50 63  1  0  0  0  0
 51 62  1  0  0  0  0
 52 59  1  0  0  0  0
 53 60  1  0  0  0  0
 54 60  1  0  0  0  0
 55 60  1  0  0  0  0
 56 71  1  0  0  0  0
 57 79  1  0  0  0  0
 58 60  1  0  0  0  0
 58 70  1  0  0  0  0
 59 71  1  0  0  0  0
 61 62  1  0  0  0  0
M  CHG  1  71   1
M  ISO  4  39 100  57 101  68 100  79 101
M  END
> <Batch ID>
0011

> <Smiles>
CNC(C)C(=O)NC(C(=O)N1Cc2cc([101O:1][101CH2:1]C(=O)Nc3ccc([100NH:0][100C:0](=O)N4CCCC(n5nc(-c6ccc(Oc7ccc(F)cc7F)cc6)c(C(N)=O)c5N)C4)cc3Cl)ccc2CC1C(=O)NC1CCCc2ccccc21)C(C)(C)C

> <Shape>
0.303

> <Color>
0.101

> <Negative vol penalty>
0.000

$$$$

  -OEChem-04052315443D

 83 91  0     1  0  0  0  0  0999 V2000
  -28.0667  -31.6684   28.1077 C   0  0  0  0  0  0  0  0  0  0  0  0
  -28.2617  -30.7530   27.0784 C   0  0  0  0  0  0  0  0  0  0  0  0
  -24.3972   -9.0445   21.4349 C   0  0  0  0  0  0  0  0  0  0  0  0
  -23.9346  -10.8276   22.9982 C   0  0  0  0  0  0  0  0  0  0  0  0
  -26.7779  -32.0965   28.4233 C   0  0  0  0  0  0  0  0  0  0  0  0
  -27.1679  -30.2643   26.3648 C   0  0  0  0  0  0  0  0  0  0  0  0
  -27.0031  -28.8122   20.4175 C   0  0  0  0  0  0  0  0  0  0  0  0
  -23.8859   -8.1165   22.3421 C   0  0  0  0  0  0  0  0  0  0  0  0
  -23.4232   -9.8995   23.9053 C   0  0  0  0  0  0  0  0  0  0  0  0
  -27.1092  -27.5951   19.7459 C   0  0  0  0  0  0  0  0  0  0  0  0
  -22.3706   -5.3192   24.1010 C   0  0  0  0  0  0  0  0  0  0  0  0
  -21.5063   -4.3407   23.6100 C   0  0  0  0  0  0  0  0  0  0  0  0
  -24.7035  -27.4371   19.6646 C   0  0  0  0  0  0  0  0  0  0  0  0
  -29.3845  -19.2371   19.4764 C   0  0  0  0  0  0  0  0  0  0  0  0
  -26.9720  -20.4832   18.8363 C   0  0  0  0  0  0  0  0  0  0  0  0
  -19.9809   -6.0608   22.8673 C   0  0  0  0  0  0  0  0  0  0  0  0
  -24.4216  -10.4000   21.7630 C   0  0  0  0  0  0  0  0  0  0  0  0
  -24.2407  -12.0515   19.8271 C   0  0  0  0  0  0  0  0  0  0  0  0
  -25.6686  -31.6201   27.7069 C   0  0  0  0  0  0  0  0  0  0  0  0
  -25.7443  -29.3465   20.7280 C   0  0  0  0  0  0  0  0  0  0  0  0
  -25.8629  -30.6854   26.6721 C   0  0  0  0  0  0  0  0  0  0  0  0
  -24.5841  -28.6624   20.3380 C   0  0  0  0  0  0  0  0  0  0  0  0
  -28.2670  -18.4681   19.1518 C   0  0  0  0  0  0  0  0  0  0  0  0
  -28.0896  -21.2522   19.1610 C   0  0  0  0  0  0  0  0  0  0  0  0
  -23.3989   -8.5440   23.5773 C   0  0  0  0  0  0  0  0  0  0  0  0
  -25.9594  -26.9059   19.3719 C   0  0  0  0  0  0  0  0  0  0  0  0
  -22.0401   -6.6685   23.9753 C   0  0  0  0  0  0  0  0  0  0  0  0
  -20.3115   -4.7115   22.9931 C   0  0  0  0  0  0  0  0  0  0  0  0
  -29.2958  -20.6292   19.4811 C   0  0  0  0  0  0  0  0  0  0  0  0
  -20.8453   -7.0393   23.3584 C   0  0  0  0  0  0  0  0  0  0  0  0
  -27.0608  -19.0912   18.8317 C   0  0  0  0  0  0  0  0  0  0  0  0
  -24.9503  -11.3591   20.8266 C   0  0  0  0  0  0  0  0  0  0  0  0
  -25.1875  -12.8354   19.2144 C   0  0  0  0  0  0  0  0  0  0  0  0
  -22.8501  -11.9914   19.4833 C   0  0  0  0  0  0  0  0  0  0  0  0
  -24.2190  -30.0764   23.4195 C   0  0  0  0  0  0  0  0  0  0  0  0
  -22.0097  -31.2924   21.3792 C   0  0  0  0  0  0  0  0  0  0  0  0
  -26.8803  -23.4407   18.8743 C   0  0  0  0  0  0  0  0  0  0  0  0
  -20.6310  -31.2781   18.2574 C   0  0  0  0  0  0  0  0  0  0  0  0
  -29.5315  -16.3104   19.4545 C   0  0  0  0  0  0  0  0  0  0  0  0
  -24.2902  -32.0759   28.1157 C   0  0  0  0  0  0  0  0  0  0  0  0
  -25.6467  -30.6735   21.4293 C   0  0  0  0  0  0  0  0  0  0  0  0
  -23.2089  -29.2030   20.6296 C   0  0  0  0  0  0  0  0  0  0  0  0
  -23.2192  -31.7951   27.0648 C   0  0  0  0  0  0  0  0  0  0  0  0
  -30.2336  -12.8234   19.6128 C   0  0  0  0  0  0  0  0  0  0  0  0
  -23.3474  -30.3686   26.5399 C   0  0  0  0  0  0  0  0  0  0  0  0
  -28.8633  -12.1885   19.8605 C   0  0  0  0  0  0  0  0  0  0  0  0
  -30.3835  -14.1539   20.3483 C   0  0  0  0  0  0  0  0  0  0  0  0
  -27.9433  -14.4925   20.3425 C   0  0  0  0  0  0  0  0  0  0  0  0
  -24.7040  -30.1512   25.8588 C   0  0  1  0  0  0  0  0  0  0  0  0
  -24.3164  -30.8726   22.1490 C   0  0  1  0  0  0  0  0  0  0  0  0
  -27.7212  -13.1819   19.5701 C   0  0  2  0  0  0  0  0  0  0  0  0
  -18.8152  -32.3552   16.9009 C   0  0  0  0  0  0  0  0  0  0  0  0
  -19.9282  -29.5824   22.8122 C   0  0  0  0  0  0  0  0  0  0  0  0
  -18.3901  -29.9522   20.8716 C   0  0  0  0  0  0  0  0  0  0  0  0
  -19.1629  -31.8925   22.2358 C   0  0  0  0  0  0  0  0  0  0  0  0
  -22.5754  -32.3870   16.3213 C   0  0  0  0  0  0  0  0  0  0  0  0
  -27.2083  -24.9172   18.9958 C   0  0  0  0  0  0  0  0  0  1  0  0
  -20.7901  -30.7479   20.6756 C   0  0  1  0  0  0  0  0  0  0  0  0
  -20.2801  -32.4078   17.3060 C   0  0  2  0  0  0  0  0  0  0  0  0
  -19.5936  -30.5323   21.6449 C   0  0  0  0  0  0  0  0  0  0  0  0
  -26.2477  -11.6752   20.8507 N   0  0  0  0  0  0  0  0  0  0  0  0
  -26.3610  -12.5749   19.8588 N   0  0  0  0  0  0  0  0  0  0  0  0
  -23.1657  -30.5010   21.3230 N   0  0  0  0  0  0  0  0  0  0  0  0
  -29.2685  -15.0454   20.0215 N   0  0  0  0  0  0  0  0  0  0  0  0
  -25.1225  -13.7153   18.1926 N   0  0  0  0  0  0  0  0  0  0  0  0
  -22.0175  -11.1333   20.2146 N   0  0  0  0  0  0  0  0  0  0  0  0
  -27.9968  -22.6643   19.1653 N   0  0  0  0  0  0  0  0  0  0  0  0
  -28.3920  -17.0567   19.1561 N   0  0  0  0  0  0  0  0  0  0  0  0
  -24.7035  -30.7340   24.5341 N   0  0  0  0  0  0  0  0  0  0  0  0
  -20.5103  -31.6643   19.5755 N   0  0  0  0  0  0  0  0  0  0  0  0
  -21.1121  -32.3236   16.0725 N   0  3  0  0  0  0  0  0  0  0  0  0
  -22.3634  -12.6661   18.5445 O   0  0  0  0  0  0  0  0  0  0  0  0
  -23.7384  -28.9495   23.3910 O   0  0  0  0  0  0  0  0  0  0  0  0
  -21.9412  -32.3831   21.9513 O   0  0  0  0  0  0  0  0  0  0  0  0
  -25.7597  -23.0554   18.5574 O   0  0  0  0  0  0  0  0  0  0  0  0
  -20.9740  -30.1633   17.8699 O   0  0  0  0  0  0  0  0  0  0  0  0
  -30.6819  -16.6916   19.2238 O   0  0  0  0  0  0  0  0  0  0  0  0
  -22.8996   -7.6388   24.4626 O   0  0  0  0  0  0  0  0  0  0  0  0
  -26.0601  -25.7174   18.7168 O   0  0  0  0  0  0  0  0  0  1  0  0
  -19.4823   -3.7718   22.5203 F   0  0  0  0  0  0  0  0  0  0  0  0
  -30.3763  -21.3584   19.7948 F   0  0  0  0  0  0  0  0  0  0  0  0
  -20.5229   -8.3340   23.2336 F   0  0  0  0  0  0  0  0  0  0  0  0
  -25.6525  -18.1766   18.4248 Cl  0  0  0  0  0  0  0  0  0  0  0  0
  1  2  1  0  0  0  0
  1  5  2  0  0  0  0
  2  6  2  0  0  0  0
  3  8  2  0  0  0  0
  3 17  1  0  0  0  0
  4  9  1  0  0  0  0
  4 17  2  0  0  0  0
  5 19  1  0  0  0  0
  6 21  1  0  0  0  0
  7 10  2  0  0  0  0
  7 20  1  0  0  0  0
  8 25  1  0  0  0  0
  9 25  2  0  0  0  0
 10 26  1  0  0  0  0
 11 12  2  0  0  0  0
 11 27  1  0  0  0  0
 12 28  1  0  0  0  0
 13 22  1  0  0  0  0
 13 26  2  0  0  0  0
 14 23  2  0  0  0  0
 14 29  1  0  0  0  0
 15 24  1  0  0  0  0
 15 31  2  0  0  0  0
 16 28  2  0  0  0  0
 16 30  1  0  0  0  0
 17 32  1  0  0  0  0
 18 32  1  0  0  0  0
 18 33  2  0  0  0  0
 18 34  1  0  0  0  0
 19 21  2  0  0  0  0
 19 40  1  0  0  0  0
 20 22  2  0  0  0  0
 20 41  1  0  0  0  0
 21 49  1  0  0  0  0
 22 42  1  0  0  0  0
 23 31  1  0  0  0  0
 23 68  1  0  0  0  0
 24 29  2  0  0  0  0
 24 67  1  0  0  0  0
 25 78  1  0  0  0  0
 26 79  1  0  0  0  0
 27 30  2  0  0  0  0
 27 78  1  0  0  0  0
 28 80  1  0  0  0  0
 29 81  1  0  0  0  0
 30 82  1  0  0  0  0
 31 83  1  0  0  0  0
 32 61  2  0  0  0  0
 33 62  1  0  0  0  0
 33 65  1  0  0  0  0
 34 66  1  0  0  0  0
 34 72  2  0  0  0  0
 35 50  1  0  0  0  0
 35 69  1  0  0  0  0
 35 73  2  0  0  0  0
 36 58  1  0  0  0  0
 36 63  1  0  0  0  0
 36 74  2  0  0  0  0
 37 57  1  0  0  0  0
 37 67  1  0  0  0  0
 37 75  2  0  0  0  0
 38 59  1  0  0  0  0
 38 70  1  0  0  0  0
 38 76  2  0  0  0  0
 39 64  1  0  0  0  0
 39 68  1  0  0  0  0
 39 77  2  0  0  0  0
 40 43  1  0  0  0  0
 41 50  1  0  0  0  0
 42 63  1  0  0  0  0
 43 45  1  0  0  0  0
 44 46  1  0  0  0  0
 44 47  1  0  0  0  0
 45 49  1  0  0  0  0
 46 51  1  0  0  0  0
 47 64  1  0  0  0  0
 48 51  1  0  0  0  0
 48 64  1  0  0  0  0
 49 69  1  0  0  0  0
 50 63  1  0  0  0  0
 51 62  1  0  0  0  0
 52 59  1  0  0  0  0
 53 60  1  0  0  0  0
 54 60  1  0  0  0  0
 55 60  1  0  0  0  0
 56 71  1  0  0  0  0
 57 79  1  0  0  0  0
 58 60  1  0  0  0  0
 58 70  1  0  0  0  0
 59 71  1  0  0  0  0
 61 62  1  0  0  0  0
M  CHG  1  71   1
M  ISO  4  39 100  57 101  68 100  79 101
M  END
> <Batch ID>
0011

> <Smiles>
CNC(C)C(=O)NC(C(=O)N1Cc2cc([101O:1][101CH2:1]C(=O)Nc3cc(Cl)c([100NH:0][100C:0](=O)N4CCCC(n5nc(-c6ccc(Oc7ccc(F)cc7F)cc6)c(C(N)=O)c5N)C4)cc3F)ccc2CC1C(=O)NC1CCCc2ccccc21)C(C)(C)C

> <Shape>
0.284

> <Color>
0.106

> <Negative vol penalty>
0.000

$$$$

  -OEChem-04052315443D

 83 91  0     1  0  0  0  0  0999 V2000
  -32.3139  -26.8979   37.4443 C   0  0  0  0  0  0  0  0  0  0  0  0
  -31.8454  -26.3339   36.2620 C   0  0  0  0  0  0  0  0  0  0  0  0
  -23.0756   -9.8685   19.9403 C   0  0  0  0  0  0  0  0  0  0  0  0
  -23.8351   -9.8747   22.2338 C   0  0  0  0  0  0  0  0  0  0  0  0
  -33.3783  -26.3066   38.1235 C   0  0  0  0  0  0  0  0  0  0  0  0
  -32.4420  -25.1789   35.7576 C   0  0  0  0  0  0  0  0  0  0  0  0
  -29.6724  -20.6142   32.7577 C   0  0  0  0  0  0  0  0  0  0  0  0
  -29.8795  -17.4553   23.1407 C   0  0  0  0  0  0  0  0  0  0  0  0
  -30.4662  -18.3398   24.0456 C   0  0  0  0  0  0  0  0  0  0  0  0
  -22.3314   -8.7155   20.1898 C   0  0  0  0  0  0  0  0  0  0  0  0
  -23.0909   -8.7216   22.4834 C   0  0  0  0  0  0  0  0  0  0  0  0
  -29.5568  -20.3180   31.4002 C   0  0  0  0  0  0  0  0  0  0  0  0
  -21.1049   -5.9847   23.8189 C   0  0  0  0  0  0  0  0  0  0  0  0
  -20.3485   -5.9411   24.9900 C   0  0  0  0  0  0  0  0  0  0  0  0
  -31.4391  -18.8192   31.5733 C   0  0  0  0  0  0  0  0  0  0  0  0
  -32.0642  -16.6080   22.5523 C   0  0  0  0  0  0  0  0  0  0  0  0
  -19.1046   -7.8789   24.2587 C   0  0  0  0  0  0  0  0  0  0  0  0
  -23.8276  -10.4481   20.9623 C   0  0  0  0  0  0  0  0  0  0  0  0
  -24.1701  -12.9732   20.8430 C   0  0  0  0  0  0  0  0  0  0  0  0
  -33.9819  -25.1383   37.6323 C   0  0  0  0  0  0  0  0  0  0  0  0
  -30.6807  -20.0225   33.5320 C   0  0  0  0  0  0  0  0  0  0  0  0
  -33.5163  -24.5721   36.4301 C   0  0  0  0  0  0  0  0  0  0  0  0
  -31.5637  -19.1076   32.9409 C   0  0  0  0  0  0  0  0  0  0  0  0
  -32.6510  -17.4926   23.4572 C   0  0  0  0  0  0  0  0  0  0  0  0
  -30.6785  -16.5893   22.3941 C   0  0  0  0  0  0  0  0  0  0  0  0
  -31.8520  -18.3585   24.2039 C   0  0  0  0  0  0  0  0  0  0  0  0
  -22.3390   -8.1421   21.4613 C   0  0  0  0  0  0  0  0  0  0  0  0
  -30.4421  -19.4226   30.8072 C   0  0  0  0  0  0  0  0  0  0  0  0
  -20.8613   -6.9756   22.8677 C   0  0  0  0  0  0  0  0  0  0  0  0
  -19.3483   -6.8881   25.2099 C   0  0  0  0  0  0  0  0  0  0  0  0
  -19.8611   -7.9226   23.0877 C   0  0  0  0  0  0  0  0  0  0  0  0
  -24.5970  -11.6388   20.7050 C   0  0  0  0  0  0  0  0  0  0  0  0
  -25.2625  -13.7224   20.4801 C   0  0  0  0  0  0  0  0  0  0  0  0
  -22.8997  -13.4892   21.2619 C   0  0  0  0  0  0  0  0  0  0  0  0
  -33.1661  -21.1096   35.1887 C   0  0  0  0  0  0  0  0  0  0  0  0
  -33.4211  -18.0063   36.0977 C   0  0  0  0  0  0  0  0  0  0  0  0
  -32.7694  -14.7257   35.4194 C   0  0  0  0  0  0  0  0  0  0  0  0
  -30.7290  -14.7664   20.6560 C   0  0  0  0  0  0  0  0  0  0  0  0
  -35.1604  -24.5620   38.3764 C   0  0  0  0  0  0  0  0  0  0  0  0
  -30.7752  -20.3321   35.0009 C   0  0  0  0  0  0  0  0  0  0  0  0
  -32.6509  -18.4298   33.7328 C   0  0  0  0  0  0  0  0  0  0  0  0
  -35.4933  -23.1279   37.9730 C   0  0  0  0  0  0  0  0  0  0  0  0
  -29.6143  -12.3536   18.2869 C   0  0  0  0  0  0  0  0  0  0  0  0
  -35.5007  -22.9886   36.4540 C   0  0  0  0  0  0  0  0  0  0  0  0
  -28.1745  -12.0623   18.7161 C   0  0  0  0  0  0  0  0  0  0  0  0
  -30.5293  -12.5818   19.4887 C   0  0  0  0  0  0  0  0  0  0  0  0
  -28.6223  -13.3064   20.8699 C   0  0  0  0  0  0  0  0  0  0  0  0
  -34.1211  -23.3056   35.8642 C   0  0  1  0  0  0  0  0  0  0  0  0
  -32.1608  -20.0637   35.5801 C   0  0  1  0  0  0  0  0  0  0  0  0
  -27.6496  -13.1338   19.6919 C   0  0  2  0  0  0  0  0  0  0  0  0
  -34.1377  -17.4923   23.6061 C   0  0  0  0  0  0  0  0  0  0  0  0
  -33.1353  -12.4157   36.3290 C   0  0  0  0  0  0  0  0  0  0  0  0
  -36.3256  -18.1029   35.1680 C   0  0  0  0  0  0  0  0  0  0  0  0
  -36.3476  -15.5996   35.2040 C   0  0  0  0  0  0  0  0  0  0  0  0
  -35.9575  -16.8722   37.3138 C   0  0  0  0  0  0  0  0  0  0  0  0
  -32.8157  -20.5955   24.6808 C   0  0  0  0  0  0  0  0  0  0  0  0
  -29.8608  -14.2336   35.6587 C   0  0  0  0  0  0  0  0  0  0  0  0
  -31.3876  -19.1973   27.3281 C   0  0  0  0  0  0  0  0  0  0  0  0
  -32.6297  -18.8911   26.4999 C   0  0  0  0  0  0  0  0  0  0  0  0
  -31.5324  -18.7913   28.7901 C   0  0  0  0  0  0  0  0  0  1  0  0
  -34.1373  -16.7905   35.5611 C   0  0  1  0  0  0  0  0  0  0  0  0
  -32.1990  -13.6131   36.2804 C   0  0  2  0  0  0  0  0  0  0  0  0
  -35.6728  -16.8554   35.7961 C   0  0  0  0  0  0  0  0  0  0  0  0
  -25.8619  -11.5427   20.2869 N   0  0  0  0  0  0  0  0  0  0  0  0
  -26.2392  -12.8262   20.1590 N   0  0  0  0  0  0  0  0  0  0  0  0
  -32.7065  -18.7701   35.1641 N   0  0  0  0  0  0  0  0  0  0  0  0
  -29.9704  -13.6126   20.3663 N   0  0  0  0  0  0  0  0  0  0  0  0
  -25.4733  -15.0539   20.4075 N   0  0  0  0  0  0  0  0  0  0  0  0
  -21.8875  -12.5802   21.5987 N   0  0  0  0  0  0  0  0  0  0  0  0
  -30.0817  -15.6915   21.4745 N   0  0  0  0  0  0  0  0  0  0  0  0
  -33.2221  -22.1872   36.0520 N   0  0  0  0  0  0  0  0  0  0  0  0
  -33.4883  -15.6334   36.1681 N   0  0  0  0  0  0  0  0  0  0  0  0
  -32.4246  -19.2541   25.1185 N   0  0  3  0  0  0  0  0  0  0  0  0
  -30.8858  -13.1613   35.7399 N   0  3  0  0  0  0  0  0  0  0  0  0
  -22.6638  -14.7199   21.3195 O   0  0  0  0  0  0  0  0  0  0  0  0
  -33.8420  -20.9501   34.1790 O   0  0  0  0  0  0  0  0  0  0  0  0
  -33.4873  -18.2645   37.3021 O   0  0  0  0  0  0  0  0  0  0  0  0
  -32.5976  -14.7818   34.2037 O   0  0  0  0  0  0  0  0  0  0  0  0
  -31.8582  -14.9350   20.1886 O   0  0  0  0  0  0  0  0  0  0  0  0
  -21.6127   -7.0171   21.7053 O   0  0  0  0  0  0  0  0  0  0  0  0
  -30.3319  -19.1321   29.4823 O   0  0  0  0  0  0  0  0  0  1  0  0
  -18.6209   -6.8451   26.3338 F   0  0  0  0  0  0  0  0  0  0  0  0
  -19.6216   -8.8761   22.1770 F   0  0  0  0  0  0  0  0  0  0  0  0
  1  2  1  0  0  0  0
  1  5  2  0  0  0  0
  2  6  2  0  0  0  0
  3 10  2  0  0  0  0
  3 18  1  0  0  0  0
  4 11  1  0  0  0  0
  4 18  2  0  0  0  0
  5 20  1  0  0  0  0
  6 22  1  0  0  0  0
  7 12  2  0  0  0  0
  7 21  1  0  0  0  0
  8  9  2  0  0  0  0
  8 25  1  0  0  0  0
  9 26  1  0  0  0  0
 10 27  1  0  0  0  0
 11 27  2  0  0  0  0
 12 28  1  0  0  0  0
 13 14  2  0  0  0  0
 13 29  1  0  0  0  0
 14 30  1  0  0  0  0
 15 23  1  0  0  0  0
 15 28  2  0  0  0  0
 16 24  1  0  0  0  0
 16 25  2  0  0  0  0
 17 30  2  0  0  0  0
 17 31  1  0  0  0  0
 18 32  1  0  0  0  0
 19 32  1  0  0  0  0
 19 33  2  0  0  0  0
 19 34  1  0  0  0  0
 20 22  2  0  0  0  0
 20 39  1  0  0  0  0
 21 23  2  0  0  0  0
 21 40  1  0  0  0  0
 22 48  1  0  0  0  0
 23 41  1  0  0  0  0
 24 26  2  0  0  0  0
 24 51  1  0  0  0  0
 25 70  1  0  0  0  0
 26 73  1  0  0  0  0
 27 80  1  0  0  0  0
 28 81  1  0  0  0  0
 29 31  2  0  0  0  0
 29 80  1  0  0  0  0
 30 82  1  0  0  0  0
 31 83  1  0  0  0  0
 32 64  2  0  0  0  0
 33 65  1  0  0  0  0
 33 68  1  0  0  0  0
 34 69  1  0  0  0  0
 34 75  2  0  0  0  0
 35 49  1  0  0  0  0
 35 71  1  0  0  0  0
 35 76  2  0  0  0  0
 36 61  1  0  0  0  0
 36 66  1  0  0  0  0
 36 77  2  0  0  0  0
 37 62  1  0  0  0  0
 37 72  1  0  0  0  0
 37 78  2  0  0  0  0
 38 67  1  0  0  0  0
 38 70  1  0  0  0  0
 38 79  2  0  0  0  0
 39 42  1  0  0  0  0
 40 49  1  0  0  0  0
 41 66  1  0  0  0  0
 42 44  1  0  0  0  0
 43 45  1  0  0  0  0
 43 46  1  0  0  0  0
 44 48  1  0  0  0  0
 45 50  1  0  0  0  0
 46 67  1  0  0  0  0
 47 50  1  0  0  0  0
 47 67  1  0  0  0  0
 48 71  1  0  0  0  0
 49 66  1  0  0  0  0
 50 65  1  0  0  0  0
 52 62  1  0  0  0  0
 53 63  1  0  0  0  0
 54 63  1  0  0  0  0
 55 63  1  0  0  0  0
 56 73  1  0  0  0  0
 57 74  1  0  0  0  0
 58 59  1  0  0  0  0
 58 60  1  0  0  0  0
 59 73  1  0  0  0  0
 60 81  1  0  0  0  0
 61 63  1  0  0  0  0
 61 72  1  0  0  0  0
 62 74  1  0  0  0  0
 64 65  1  0  0  0  0
M  CHG  1  74   1
M  ISO  4  38 100  60 101  70 100  81 101
M  END
> <Batch ID>
0011

> <Smiles>
CNC(C)C(=O)NC(C(=O)N1Cc2cc([101O:1][101CH2:1]CCN(C)c3ccc([100NH:0][100C:0](=O)N4CCCC(n5nc(-c6ccc(Oc7ccc(F)cc7F)cc6)c(C(N)=O)c5N)C4)cc3C)ccc2CC1C(=O)NC1CCCc2ccccc21)C(C)(C)C

> <Shape>
0.161

> <Color>
0.200

> <Negative vol penalty>
0.000

$$$$

  -OEChem-04052315443D

 88 96  0     1  0  0  0  0  0999 V2000
  -28.5420  -25.9331   15.8123 C   0  0  0  0  0  0  0  0  0  0  0  0
  -27.3919  -25.8826   16.5934 C   0  0  0  0  0  0  0  0  0  0  0  0
  -28.4162  -17.3409   18.1836 C   0  0  0  0  0  0  0  0  0  0  0  0
  -30.2523  -17.2952   19.7532 C   0  0  0  0  0  0  0  0  0  0  0  0
  -29.6928  -26.5453   16.3069 C   0  0  0  0  0  0  0  0  0  0  0  0
  -27.3923  -26.4433   17.8701 C   0  0  0  0  0  0  0  0  0  0  0  0
  -23.2378  -29.1899   18.7871 C   0  0  0  0  0  0  0  0  0  0  0  0
  -28.3124  -15.9524   18.2646 C   0  0  0  0  0  0  0  0  0  0  0  0
  -30.1485  -15.9066   19.8343 C   0  0  0  0  0  0  0  0  0  0  0  0
  -22.0710  -28.4942   19.1009 C   0  0  0  0  0  0  0  0  0  0  0  0
  -30.1318  -12.3832   20.7307 C   0  0  0  0  0  0  0  0  0  0  0  0
  -30.1845  -11.8009   21.9972 C   0  0  0  0  0  0  0  0  0  0  0  0
  -22.4378  -28.9468   21.4418 C   0  0  0  0  0  0  0  0  0  0  0  0
  -22.0481  -24.1405   23.4545 C   0  0  0  0  0  0  0  0  0  0  0  0
  -24.4149  -24.4858   23.7943 C   0  0  0  0  0  0  0  0  0  0  0  0
  -28.2304  -13.0593   22.6569 C   0  0  0  0  0  0  0  0  0  0  0  0
  -29.3863  -18.0124   18.9279 C   0  0  0  0  0  0  0  0  0  0  0  0
  -29.7595  -20.2136   17.6938 C   0  0  0  0  0  0  0  0  0  0  0  0
  -29.7045  -27.1224   17.5866 C   0  0  0  0  0  0  0  0  0  0  0  0
  -24.0204  -29.7609   19.8009 C   0  0  0  0  0  0  0  0  0  0  0  0
  -28.5448  -27.0626   18.3829 C   0  0  0  0  0  0  0  0  0  0  0  0
  -23.6127  -29.6514   21.1380 C   0  0  0  0  0  0  0  0  0  0  0  0
  -23.1010  -24.5918   24.2503 C   0  0  0  0  0  0  0  0  0  0  0  0
  -23.6230  -23.4770   21.7467 C   0  0  0  0  0  0  0  0  0  0  0  0
  -22.3091  -23.5830   22.2028 C   0  0  0  0  0  0  0  0  0  0  0  0
  -24.6760  -23.9284   22.5425 C   0  0  0  0  0  0  0  0  0  0  0  0
  -29.1784  -15.2351   19.0899 C   0  0  0  0  0  0  0  0  0  0  0  0
  -21.6724  -28.3701   20.4286 C   0  0  0  0  0  0  0  0  0  0  0  0
  -29.1286  -13.3036   20.4274 C   0  0  0  0  0  0  0  0  0  0  0  0
  -29.2337  -12.1390   22.9602 C   0  0  0  0  0  0  0  0  0  0  0  0
  -28.1778  -13.6416   21.3904 C   0  0  0  0  0  0  0  0  0  0  0  0
  -29.4944  -19.4468   18.8442 C   0  0  0  0  0  0  0  0  0  0  0  0
  -29.7595  -21.5127   18.1397 C   0  0  0  0  0  0  0  0  0  0  0  0
  -29.9854  -19.7896   16.3430 C   0  0  0  0  0  0  0  0  0  0  0  0
  -26.9960  -29.3471   20.8395 C   0  0  0  0  0  0  0  0  0  0  0  0
  -26.2791  -31.8918   22.7190 C   0  0  0  0  0  0  0  0  0  0  0  0
  -20.0299  -22.6387   21.8971 C   0  0  0  0  0  0  0  0  0  0  0  0
  -19.3782  -25.5687   20.6215 C   0  0  0  0  0  0  0  0  0  0  0  0
  -23.8835  -33.7744   24.2566 C   0  0  0  0  0  0  0  0  0  0  0  0
  -27.1648  -24.2352   22.7830 C   0  0  0  0  0  0  0  0  0  0  0  0
  -30.9865  -27.7314   18.0967 C   0  0  0  0  0  0  0  0  0  0  0  0
  -25.2621  -30.5310   19.4438 C   0  0  0  0  0  0  0  0  0  0  0  0
  -24.4069  -30.2635   22.2619 C   0  0  0  0  0  0  0  0  0  0  0  0
  -30.7910  -28.6321   19.3136 C   0  0  0  0  0  0  0  0  0  0  0  0
  -30.6476  -24.1296   22.0509 C   0  0  0  0  0  0  0  0  0  0  0  0
  -29.8924  -27.9524   20.3419 C   0  0  0  0  0  0  0  0  0  0  0  0
  -30.7704  -22.9905   21.0362 C   0  0  0  0  0  0  0  0  0  0  0  0
  -29.5938  -23.8296   23.1154 C   0  0  0  0  0  0  0  0  0  0  0  0
  -28.3940  -22.3234   21.5789 C   0  0  0  0  0  0  0  0  0  0  0  0
  -28.4985  -27.6814   19.7631 C   0  0  1  0  0  0  0  0  0  0  0  0
  -26.2552  -30.6318   20.5974 C   0  0  1  0  0  0  0  0  0  0  0  0
  -29.3975  -22.6080   20.4495 C   0  0  2  0  0  0  0  0  0  0  0  0
  -22.8213  -25.1869   25.5889 C   0  0  0  0  0  0  0  0  0  0  0  0
  -23.9047  -22.8789   20.4031 C   0  0  0  0  0  0  0  0  0  0  0  0
  -22.9025  -35.6744   25.5700 C   0  0  0  0  0  0  0  0  0  0  0  0
  -27.1543  -30.2125   25.1114 C   0  0  0  0  0  0  0  0  0  0  0  0
  -25.9861  -31.8513   26.6007 C   0  0  0  0  0  0  0  0  0  0  0  0
  -27.8984  -32.5990   25.1840 C   0  0  0  0  0  0  0  0  0  0  0  0
  -23.5444  -35.4310   21.8277 C   0  0  0  0  0  0  0  0  0  0  0  0
  -19.1226  -22.2580   20.7314 C   0  0  0  0  0  0  0  0  0  0  0  0
  -20.1575  -26.6249   19.8673 C   0  0  0  0  0  0  0  0  0  1  0  0
  -18.2261  -23.3946   20.2589 C   0  0  0  0  0  0  0  0  0  0  0  0
  -25.6796  -32.0710   24.0929 C   0  0  1  0  0  0  0  0  0  0  0  0
  -23.6675  -35.2757   24.3176 C   0  0  2  0  0  0  0  0  0  0  0  0
  -26.6655  -31.6701   25.2265 C   0  0  0  0  0  0  0  0  0  0  0  0
  -29.3376  -20.1962   19.9387 N   0  0  0  0  0  0  0  0  0  0  0  0
  -29.5048  -21.4476   19.4779 N   0  0  0  0  0  0  0  0  0  0  0  0
  -25.6167  -31.0013   21.8623 N   0  0  0  0  0  0  0  0  0  0  0  0
  -28.3187  -23.4795   22.4859 N   0  0  0  0  0  0  0  0  0  0  0  0
  -29.9528  -22.6930   17.5136 N   0  0  0  0  0  0  0  0  0  0  0  0
  -31.2992  -19.5140   15.9400 N   0  0  0  0  0  0  0  0  0  0  0  0
  -21.2396  -23.1370   21.4220 N   0  0  0  0  0  0  0  0  0  0  0  0
  -26.0185  -23.8298   22.1002 N   0  0  0  0  0  0  0  0  0  0  0  0
  -27.7127  -28.8966   19.7473 N   0  0  0  0  0  0  0  0  0  0  0  0
  -18.9851  -24.5312   19.7907 N   0  0  0  0  0  0  0  0  0  0  0  0
  -25.2213  -33.4544   24.1611 N   0  0  0  0  0  0  0  0  0  0  0  0
  -22.8959  -35.7367   23.1289 N   0  3  0  0  0  0  0  0  0  0  0  0
  -29.0518  -19.6746   15.5130 O   0  0  0  0  0  0  0  0  0  0  0  0
  -26.9238  -28.8055   21.9364 O   0  0  0  0  0  0  0  0  0  0  0  0
  -27.2934  -32.5243   22.4146 O   0  0  0  0  0  0  0  0  0  0  0  0
  -19.6828  -22.4908   23.0639 O   0  0  0  0  0  0  0  0  0  0  0  0
  -19.1388  -25.6512   21.8231 O   0  0  0  0  0  0  0  0  0  0  0  0
  -22.9583  -32.9662   24.2941 O   0  0  0  0  0  0  0  0  0  0  0  0
  -27.1976  -25.1900   23.5635 O   0  0  0  0  0  0  0  0  0  0  0  0
  -29.0772  -13.8801   19.1694 O   0  0  0  0  0  0  0  0  0  0  0  0
  -20.5343  -27.6910   20.7377 O   0  0  0  0  0  0  0  0  0  1  0  0
  -29.2834  -11.5786   24.1758 F   0  0  0  0  0  0  0  0  0  0  0  0
  -27.2109  -14.5243   21.1045 F   0  0  0  0  0  0  0  0  0  0  0  0
  1  2  1  0  0  0  0
  1  5  2  0  0  0  0
  2  6  2  0  0  0  0
  3  8  2  0  0  0  0
  3 17  1  0  0  0  0
  4  9  1  0  0  0  0
  4 17  2  0  0  0  0
  5 19  1  0  0  0  0
  6 21  1  0  0  0  0
  7 10  2  0  0  0  0
  7 20  1  0  0  0  0
  8 27  1  0  0  0  0
  9 27  2  0  0  0  0
 10 28  1  0  0  0  0
 11 12  2  0  0  0  0
 11 29  1  0  0  0  0
 12 30  1  0  0  0  0
 13 22  1  0  0  0  0
 13 28  2  0  0  0  0
 14 23  2  0  0  0  0
 14 25  1  0  0  0  0
 15 23  1  0  0  0  0
 15 26  2  0  0  0  0
 16 30  2  0  0  0  0
 16 31  1  0  0  0  0
 17 32  1  0  0  0  0
 18 32  1  0  0  0  0
 18 33  2  0  0  0  0
 18 34  1  0  0  0  0
 19 21  2  0  0  0  0
 19 41  1  0  0  0  0
 20 22  2  0  0  0  0
 20 42  1  0  0  0  0
 21 50  1  0  0  0  0
 22 43  1  0  0  0  0
 23 53  1  0  0  0  0
 24 25  2  0  0  0  0
 24 26  1  0  0  0  0
 24 54  1  0  0  0  0
 25 72  1  0  0  0  0
 26 73  1  0  0  0  0
 27 85  1  0  0  0  0
 28 86  1  0  0  0  0
 29 31  2  0  0  0  0
 29 85  1  0  0  0  0
 30 87  1  0  0  0  0
 31 88  1  0  0  0  0
 32 66  2  0  0  0  0
 33 67  1  0  0  0  0
 33 70  1  0  0  0  0
 34 71  1  0  0  0  0
 34 78  2  0  0  0  0
 35 51  1  0  0  0  0
 35 74  1  0  0  0  0
 35 79  2  0  0  0  0
 36 63  1  0  0  0  0
 36 68  1  0  0  0  0
 36 80  2  0  0  0  0
 37 60  1  0  0  0  0
 37 72  1  0  0  0  0
 37 81  2  0  0  0  0
 38 61  1  0  0  0  0
 38 75  1  0  0  0  0
 38 82  2  0  0  0  0
 39 64  1  0  0  0  0
 39 76  1  0  0  0  0
 39 83  2  0  0  0  0
 40 69  1  0  0  0  0
 40 73  1  0  0  0  0
 40 84  2  0  0  0  0
 41 44  1  0  0  0  0
 42 51  1  0  0  0  0
 43 68  1  0  0  0  0
 44 46  1  0  0  0  0
 45 47  1  0  0  0  0
 45 48  1  0  0  0  0
 46 50  1  0  0  0  0
 47 52  1  0  0  0  0
 48 69  1  0  0  0  0
 49 52  1  0  0  0  0
 49 69  1  0  0  0  0
 50 74  1  0  0  0  0
 51 68  1  0  0  0  0
 52 67  1  0  0  0  0
 55 64  1  0  0  0  0
 56 65  1  0  0  0  0
 57 65  1  0  0  0  0
 58 65  1  0  0  0  0
 59 77  1  0  0  0  0
 60 62  1  0  0  0  0
 61 86  1  0  0  0  0
 62 75  1  0  0  0  0
 63 65  1  0  0  0  0
 63 76  1  0  0  0  0
 64 77  1  0  0  0  0
 66 67  1  0  0  0  0
M  CHG  1  77   1
M  ISO  4  40 100  61 101  73 100  86 101
M  END
> <Batch ID>
0011

> <Smiles>
CNC(C)C(=O)NC(C(=O)N1Cc2cc([101O:1][101CH2:1]C(=O)NCCC(=O)Nc3cc(C)cc([100NH:0][100C:0](=O)N4CCCC(n5nc(-c6ccc(Oc7ccc(F)cc7F)cc6)c(C(N)=O)c5N)C4)c3C)ccc2CC1C(=O)NC1CCCc2ccccc21)C(C)(C)C

> <Shape>
0.258

> <Color>
0.071

> <Negative vol penalty>
0.000

$$$$

  -OEChem-04052315443D

 83 91  0     1  0  0  0  0  0999 V2000
  -23.7793  -24.2973   31.4618 C   0  0  0  0  0  0  0  0  0  0  0  0
  -23.7656  -23.6960   30.2074 C   0  0  0  0  0  0  0  0  0  0  0  0
  -23.2751   -9.7104   19.9202 C   0  0  0  0  0  0  0  0  0  0  0  0
  -23.5114   -9.9996   22.3072 C   0  0  0  0  0  0  0  0  0  0  0  0
  -23.2596  -25.5808   31.6241 C   0  0  0  0  0  0  0  0  0  0  0  0
  -23.2310  -24.3775   29.1146 C   0  0  0  0  0  0  0  0  0  0  0  0
  -26.1419  -24.0166   24.9865 C   0  0  0  0  0  0  0  0  0  0  0  0
  -27.7573  -17.1476   18.0653 C   0  0  0  0  0  0  0  0  0  0  0  0
  -27.3288  -18.0456   19.0429 C   0  0  0  0  0  0  0  0  0  0  0  0
  -22.5239   -8.5549   20.1345 C   0  0  0  0  0  0  0  0  0  0  0  0
  -22.7601   -8.8440   22.5215 C   0  0  0  0  0  0  0  0  0  0  0  0
  -26.0789  -22.8252   24.2651 C   0  0  0  0  0  0  0  0  0  0  0  0
  -23.2504   -5.5002   22.4255 C   0  0  0  0  0  0  0  0  0  0  0  0
  -23.7185   -4.5891   23.3722 C   0  0  0  0  0  0  0  0  0  0  0  0
  -24.5965  -23.8726   22.6763 C   0  0  0  0  0  0  0  0  0  0  0  0
  -29.6136  -16.5030   19.4708 C   0  0  0  0  0  0  0  0  0  0  0  0
  -21.6795   -4.8587   24.6399 C   0  0  0  0  0  0  0  0  0  0  0  0
  -23.7690  -10.4328   21.0066 C   0  0  0  0  0  0  0  0  0  0  0  0
  -24.0649  -12.9446   20.6739 C   0  0  0  0  0  0  0  0  0  0  0  0
  -22.7271  -26.2822   30.5309 C   0  0  0  0  0  0  0  0  0  0  0  0
  -25.4228  -25.1437   24.5634 C   0  0  0  0  0  0  0  0  0  0  0  0
  -22.7024  -25.6711   29.2627 C   0  0  0  0  0  0  0  0  0  0  0  0
  -24.6541  -25.0779   23.3926 C   0  0  0  0  0  0  0  0  0  0  0  0
  -28.8996  -16.3763   18.2793 C   0  0  0  0  0  0  0  0  0  0  0  0
  -28.0428  -18.1723   20.2345 C   0  0  0  0  0  0  0  0  0  0  0  0
  -22.2663   -8.1217   21.4352 C   0  0  0  0  0  0  0  0  0  0  0  0
  -25.3038  -22.7522   23.1114 C   0  0  0  0  0  0  0  0  0  0  0  0
  -21.9968   -6.0906   22.5859 C   0  0  0  0  0  0  0  0  0  0  0  0
  -22.9331   -4.2684   24.4794 C   0  0  0  0  0  0  0  0  0  0  0  0
  -29.1852  -17.4010   20.4485 C   0  0  0  0  0  0  0  0  0  0  0  0
  -21.2114   -5.7698   23.6931 C   0  0  0  0  0  0  0  0  0  0  0  0
  -24.5456  -11.6262   20.7858 C   0  0  0  0  0  0  0  0  0  0  0  0
  -25.1909  -13.7045   20.4713 C   0  0  0  0  0  0  0  0  0  0  0  0
  -22.7208  -13.4382   20.7467 C   0  0  0  0  0  0  0  0  0  0  0  0
  -23.0931  -26.9141   25.8050 C   0  0  0  0  0  0  0  0  0  0  0  0
  -23.6303  -28.7575   23.1905 C   0  0  0  0  0  0  0  0  0  0  0  0
  -26.4976  -19.9229   21.1734 C   0  0  0  0  0  0  0  0  0  0  0  0
  -24.8037  -28.9794   19.9935 C   0  0  0  0  0  0  0  0  0  0  0  0
  -30.0333  -14.2567   17.5627 C   0  0  0  0  0  0  0  0  0  0  0  0
  -22.1336  -27.6489   30.7646 C   0  0  0  0  0  0  0  0  0  0  0  0
  -25.5226  -26.4292   25.3380 C   0  0  0  0  0  0  0  0  0  0  0  0
  -23.8794  -26.2655   22.8848 C   0  0  0  0  0  0  0  0  0  0  0  0
  -21.9264  -28.4504   29.4820 C   0  0  0  0  0  0  0  0  0  0  0  0
  -30.0914  -12.5614   20.8514 C   0  0  0  0  0  0  0  0  0  0  0  0
  -21.2674  -27.5852   28.4124 C   0  0  0  0  0  0  0  0  0  0  0  0
  -28.6235  -12.2020   21.0738 C   0  0  0  0  0  0  0  0  0  0  0  0
  -30.4428  -12.6152   19.3677 C   0  0  0  0  0  0  0  0  0  0  0  0
  -28.0958  -13.1762   18.8036 C   0  0  0  0  0  0  0  0  0  0  0  0
  -22.1536  -26.3880   28.0481 C   0  0  1  0  0  0  0  0  0  0  0  0
  -24.3409  -27.3640   25.0991 C   0  0  1  0  0  0  0  0  0  0  0  0
  -27.7068  -13.1552   20.2894 C   0  0  1  0  0  0  0  0  0  0  0  0
  -25.0740  -30.6072   18.1029 C   0  0  0  0  0  0  0  0  0  0  0  0
  -20.6501  -28.5341   22.5753 C   0  0  0  0  0  0  0  0  0  0  0  0
  -21.1404  -29.3343   20.2542 C   0  0  0  0  0  0  0  0  0  0  0  0
  -21.6236  -30.8083   22.2078 C   0  0  0  0  0  0  0  0  0  0  0  0
  -29.3051  -15.8847   15.8742 C   0  0  0  0  0  0  0  0  0  0  0  0
  -27.7484  -28.6838   20.0066 C   0  0  0  0  0  0  0  0  0  0  0  0
  -26.3871  -20.7424   22.4456 C   0  0  0  0  0  0  0  0  0  1  0  0
  -23.0926  -28.7955   21.7804 C   0  0  1  0  0  0  0  0  0  0  0  0
  -25.7266  -29.9834   19.3267 C   0  0  2  0  0  0  0  0  0  0  0  0
  -21.6396  -29.3449   21.7148 C   0  0  0  0  0  0  0  0  0  0  0  0
  -25.8735  -11.5494   20.6642 N   0  0  0  0  0  0  0  0  0  0  0  0
  -26.2368  -12.8292   20.4737 N   0  0  0  0  0  0  0  0  0  0  0  0
  -24.0041  -27.4980   23.6804 N   0  0  0  0  0  0  0  0  0  0  0  0
  -29.5250  -13.4792   18.6235 N   0  0  0  0  0  0  0  0  0  0  0  0
  -25.3785  -15.0295   20.2929 N   0  0  0  0  0  0  0  0  0  0  0  0
  -21.6827  -12.5210   20.9598 N   0  0  0  0  0  0  0  0  0  0  0  0
  -27.6060  -19.0845   21.2242 N   0  0  0  0  0  0  0  0  0  0  0  0
  -23.2308  -26.8035   27.1755 N   0  0  0  0  0  0  0  0  0  0  0  0
  -24.0566  -29.5601   20.9964 N   0  0  0  0  0  0  0  0  0  0  0  0
  -29.3433  -15.4481   17.2681 N   0  0  0  0  0  0  0  0  0  0  0  0
  -26.9907  -29.3202   18.8985 N   0  3  0  0  0  0  0  0  0  0  0  0
  -22.4467  -14.6547   20.6100 O   0  0  0  0  0  0  0  0  0  0  0  0
  -22.0799  -26.6857   25.1546 O   0  0  0  0  0  0  0  0  0  0  0  0
  -23.7223  -29.8076   23.8312 O   0  0  0  0  0  0  0  0  0  0  0  0
  -25.6831  -20.0364   20.2633 O   0  0  0  0  0  0  0  0  0  0  0  0
  -24.7481  -27.7990   19.6558 O   0  0  0  0  0  0  0  0  0  0  0  0
  -31.0020  -13.8884   16.8871 O   0  0  0  0  0  0  0  0  0  0  0  0
  -21.5331   -6.9943   21.6447 O   0  0  0  0  0  0  0  0  0  0  0  0
  -25.2400  -21.5903   22.4058 O   0  0  0  0  0  0  0  0  0  1  0  0
  -23.3822   -3.3923   25.3877 F   0  0  0  0  0  0  0  0  0  0  0  0
  -29.8802  -17.5155   21.5894 F   0  0  0  0  0  0  0  0  0  0  0  0
  -20.0058   -6.3329   23.8520 F   0  0  0  0  0  0  0  0  0  0  0  0
  1  2  1  0  0  0  0
  1  5  2  0  0  0  0
  2  6  2  0  0  0  0
  3 10  2  0  0  0  0
  3 18  1  0  0  0  0
  4 11  1  0  0  0  0
  4 18  2  0  0  0  0
  5 20  1  0  0  0  0
  6 22  1  0  0  0  0
  7 12  2  0  0  0  0
  7 21  1  0  0  0  0
  8  9  2  0  0  0  0
  8 24  1  0  0  0  0
  9 25  1  0  0  0  0
 10 26  1  0  0  0  0
 11 26  2  0  0  0  0
 12 27  1  0  0  0  0
 13 14  2  0  0  0  0
 13 28  1  0  0  0  0
 14 29  1  0  0  0  0
 15 23  1  0  0  0  0
 15 27  2  0  0  0  0
 16 24  2  0  0  0  0
 16 30  1  0  0  0  0
 17 29  2  0  0  0  0
 17 31  1  0  0  0  0
 18 32  1  0  0  0  0
 19 32  1  0  0  0  0
 19 33  2  0  0  0  0
 19 34  1  0  0  0  0
 20 22  2  0  0  0  0
 20 40  1  0  0  0  0
 21 23  2  0  0  0  0
 21 41  1  0  0  0  0
 22 49  1  0  0  0  0
 23 42  1  0  0  0  0
 24 71  1  0  0  0  0
 25 30  2  0  0  0  0
 25 68  1  0  0  0  0
 26 79  1  0  0  0  0
 27 80  1  0  0  0  0
 28 31  2  0  0  0  0
 28 79  1  0  0  0  0
 29 81  1  0  0  0  0
 30 82  1  0  0  0  0
 31 83  1  0  0  0  0
 32 62  2  0  0  0  0
 33 63  1  0  0  0  0
 33 66  1  0  0  0  0
 34 67  1  0  0  0  0
 34 73  2  0  0  0  0
 35 50  1  0  0  0  0
 35 69  1  0  0  0  0
 35 74  2  0  0  0  0
 36 59  1  0  0  0  0
 36 64  1  0  0  0  0
 36 75  2  0  0  0  0
 37 58  1  0  0  0  0
 37 68  1  0  0  0  0
 37 76  2  0  0  0  0
 38 60  1  0  0  0  0
 38 70  1  0  0  0  0
 38 77  2  0  0  0  0
 39 65  1  0  0  0  0
 39 71  1  0  0  0  0
 39 78  2  0  0  0  0
 40 43  1  0  0  0  0
 41 50  1  0  0  0  0
 42 64  1  0  0  0  0
 43 45  1  0  0  0  0
 44 46  1  0  0  0  0
 44 47  1  0  0  0  0
 45 49  1  0  0  0  0
 46 51  1  0  0  0  0
 47 65  1  0  0  0  0
 48 51  1  0  0  0  0
 48 65  1  0  0  0  0
 49 69  1  0  0  0  0
 50 64  1  0  0  0  0
 51 63  1  0  0  0  0
 52 60  1  0  0  0  0
 53 61  1  0  0  0  0
 54 61  1  0  0  0  0
 55 61  1  0  0  0  0
 56 71  1  0  0  0  0
 57 72  1  0  0  0  0
 58 80  1  0  0  0  0
 59 61  1  0  0  0  0
 59 70  1  0  0  0  0
 60 72  1  0  0  0  0
 62 63  1  0  0  0  0
M  CHG  1  72   1
M  ISO  4  39 100  58 101  71 100  80 101
M  END
> <Batch ID>
0011

> <Smiles>
CNC(C)C(=O)NC(C(=O)N1Cc2cc([101O:1][101CH2:1]C(=O)Nc3ccc([100N:0](C)[100C:0](=O)N4CCCC(n5nc(-c6ccc(Oc7ccc(F)cc7F)cc6)c(C(N)=O)c5N)C4)cc3F)ccc2CC1C(=O)NC1CCCc2ccccc21)C(C)(C)C

> <Shape>
0.245

> <Color>
0.189

> <Negative vol penalty>
0.000

$$$$

  -OEChem-04052315443D

 88 96  0     1  0  0  0  0  0999 V2000
  -20.4332  -33.2031   19.2945 C   0  0  0  0  0  0  0  0  0  0  0  0
  -21.7347  -32.7291   19.4249 C   0  0  0  0  0  0  0  0  0  0  0  0
  -26.5049  -13.1534   20.8490 C   0  0  0  0  0  0  0  0  0  0  0  0
  -24.8582  -14.9055   20.6136 C   0  0  0  0  0  0  0  0  0  0  0  0
  -19.4668  -32.8509   20.2357 C   0  0  0  0  0  0  0  0  0  0  0  0
  -22.0707  -31.9035   20.4973 C   0  0  0  0  0  0  0  0  0  0  0  0
  -24.8814  -27.9342   19.0868 C   0  0  0  0  0  0  0  0  0  0  0  0
  -25.5310  -12.3099   21.3834 C   0  0  0  0  0  0  0  0  0  0  0  0
  -23.8842  -14.0620   21.1480 C   0  0  0  0  0  0  0  0  0  0  0  0
  -26.2357  -28.1652   18.8497 C   0  0  0  0  0  0  0  0  0  0  0  0
  -22.9955  -10.3904   20.2346 C   0  0  0  0  0  0  0  0  0  0  0  0
  -22.9455   -9.0782   19.7643 C   0  0  0  0  0  0  0  0  0  0  0  0
  -29.5307  -22.6455   16.9938 C   0  0  0  0  0  0  0  0  0  0  0  0
  -29.7103  -25.0537   16.9236 C   0  0  0  0  0  0  0  0  0  0  0  0
  -26.7615  -27.2907   21.0356 C   0  0  0  0  0  0  0  0  0  0  0  0
  -30.3566  -23.8518   18.9173 C   0  0  0  0  0  0  0  0  0  0  0  0
  -23.3475   -8.2609   22.0021 C   0  0  0  0  0  0  0  0  0  0  0  0
  -26.1685  -14.4512   20.4641 C   0  0  0  0  0  0  0  0  0  0  0  0
  -29.3751  -23.8488   16.3059 C   0  0  0  0  0  0  0  0  0  0  0  0
  -27.5223  -15.4685   18.5563 C   0  0  0  0  0  0  0  0  0  0  0  0
  -19.7887  -32.0128   21.3148 C   0  0  0  0  0  0  0  0  0  0  0  0
  -24.4553  -27.3889   20.3065 C   0  0  0  0  0  0  0  0  0  0  0  0
  -21.1079  -31.5409   21.4545 C   0  0  0  0  0  0  0  0  0  0  0  0
  -25.4014  -27.0514   21.2847 C   0  0  0  0  0  0  0  0  0  0  0  0
  -30.0214  -22.6469   18.2996 C   0  0  0  0  0  0  0  0  0  0  0  0
  -30.2011  -25.0552   18.2293 C   0  0  0  0  0  0  0  0  0  0  0  0
  -24.2207  -12.7641   21.5329 C   0  0  0  0  0  0  0  0  0  0  0  0
  -27.1757  -27.8461   19.8252 C   0  0  0  0  0  0  0  0  0  0  0  0
  -23.2215  -10.6379   21.5886 C   0  0  0  0  0  0  0  0  0  0  0  0
  -23.1215   -8.0134   20.6480 C   0  0  0  0  0  0  0  0  0  0  0  0
  -23.3975   -9.5732   22.4723 C   0  0  0  0  0  0  0  0  0  0  0  0
  -27.1742  -15.3233   19.9126 C   0  0  0  0  0  0  0  0  0  0  0  0
  -28.5225  -16.4098   18.5574 C   0  0  0  0  0  0  0  0  0  0  0  0
  -28.8640  -23.8475   14.9443 C   0  0  0  0  0  0  0  0  0  0  0  0
  -26.9892  -14.8114   17.3989 C   0  0  0  0  0  0  0  0  0  0  0  0
  -22.5905  -28.3860   22.6797 C   0  0  0  0  0  0  0  0  0  0  0  0
  -23.0441  -25.3696   23.7833 C   0  0  0  0  0  0  0  0  0  0  0  0
  -24.9838  -22.5620   23.8281 C   0  0  0  0  0  0  0  0  0  0  0  0
  -30.6539  -21.2502   20.2985 C   0  0  0  0  0  0  0  0  0  0  0  0
  -18.7216  -31.6979   22.3330 C   0  0  0  0  0  0  0  0  0  0  0  0
  -22.9931  -27.1211   20.5364 C   0  0  0  0  0  0  0  0  0  0  0  0
  -24.9974  -26.4450   22.6029 C   0  0  0  0  0  0  0  0  0  0  0  0
  -19.0687  -30.5149   23.2332 C   0  0  0  0  0  0  0  0  0  0  0  0
  -31.1576  -18.4115   22.3878 C   0  0  0  0  0  0  0  0  0  0  0  0
  -20.4994  -30.6373   23.7478 C   0  0  0  0  0  0  0  0  0  0  0  0
  -30.1948  -17.3670   21.8185 C   0  0  0  0  0  0  0  0  0  0  0  0
  -30.5671  -19.8192   22.3281 C   0  0  0  0  0  0  0  0  0  0  0  0
  -29.1208  -19.1895   20.4358 C   0  0  0  0  0  0  0  0  0  0  0  0
  -21.5052  -30.6231   22.5903 C   0  0  1  0  0  0  0  0  0  0  0  0
  -22.6260  -27.0390   22.0148 C   0  0  1  0  0  0  0  0  0  0  0  0
  -29.6976  -17.7646   20.4148 C   0  0  2  0  0  0  0  0  0  0  0  0
  -25.1156  -20.2749   24.8524 C   0  0  0  0  0  0  0  0  0  0  0  0
  -31.3120  -28.5373   18.9100 C   0  0  0  0  0  0  0  0  0  0  0  0
  -23.9579  -26.6054   26.4192 C   0  0  0  0  0  0  0  0  0  0  0  0
  -24.9524  -24.3911   27.0323 C   0  0  0  0  0  0  0  0  0  0  0  0
  -22.4937  -24.5927   26.6629 C   0  0  0  0  0  0  0  0  0  0  0  0
  -26.8773  -26.4856   13.1157 C   0  0  0  0  0  0  0  0  0  0  0  0
  -28.7254  -25.0925   12.1503 C   0  0  0  0  0  0  0  0  0  0  0  0
  -26.6193  -23.9988   12.9605 C   0  0  0  0  0  0  0  0  0  0  0  0
  -24.8612  -21.2428   21.1816 C   0  0  0  0  0  0  0  0  0  0  0  0
  -28.9462  -27.9920   18.2440 C   0  0  0  0  0  0  0  0  0  1  0  0
  -24.0579  -24.7002   24.6796 C   0  0  1  0  0  0  0  0  0  0  0  0
  -24.6346  -21.0937   23.6646 C   0  0  2  0  0  0  0  0  0  0  0  0
  -30.4048  -27.5418   18.1990 C   0  0  2  0  0  0  0  0  0  0  0  0
  -23.8732  -25.0856   26.1745 C   0  0  0  0  0  0  0  0  0  0  0  0
  -27.6114  -25.1425   13.2011 C   0  0  0  0  0  0  0  0  0  0  0  0
  -27.8948  -16.1092   20.7169 N   0  0  0  0  0  0  0  0  0  0  0  0
  -28.7058  -16.7574   19.8635 N   0  0  0  0  0  0  0  0  0  0  0  0
  -23.5555  -26.2081   22.7828 N   0  0  0  0  0  0  0  0  0  0  0  0
  -30.1216  -20.1278   20.9676 N   0  0  0  0  0  0  0  0  0  0  0  0
  -29.2544  -16.9658   17.5687 N   0  0  0  0  0  0  0  0  0  0  0  0
  -25.9648  -13.8715   17.5767 N   0  0  0  0  0  0  0  0  0  0  0  0
  -30.1803  -21.4246   18.9985 N   0  0  0  0  0  0  0  0  0  0  0  0
  -30.5337  -26.2494   18.8419 N   0  0  0  0  0  0  0  0  0  0  0  0
  -28.1952  -24.9999   14.5155 N   0  0  0  0  0  0  0  0  0  0  0  0
  -21.6997  -29.2731   22.1063 N   0  0  0  0  0  0  0  0  0  0  0  0
  -23.9555  -23.2693   24.4143 N   0  0  0  0  0  0  0  0  0  0  0  0
  -25.2644  -20.5458   22.4301 N   0  3  0  0  0  0  0  0  0  0  0  0
  -29.0073  -22.8486   14.2172 O   0  0  0  0  0  0  0  0  0  0  0  0
  -27.4201  -15.0385   16.2429 O   0  0  0  0  0  0  0  0  0  0  0  0
  -23.3165  -28.6037   23.6427 O   0  0  0  0  0  0  0  0  0  0  0  0
  -21.8431  -25.1507   23.9599 O   0  0  0  0  0  0  0  0  0  0  0  0
  -26.0624  -23.0335   23.4747 O   0  0  0  0  0  0  0  0  0  0  0  0
  -31.4902  -21.9857   20.8291 O   0  0  0  0  0  0  0  0  0  0  0  0
  -23.2700  -11.9412   22.0541 O   0  0  0  0  0  0  0  0  0  0  0  0
  -28.4982  -28.0711   19.5965 O   0  0  0  0  0  0  0  0  0  1  0  0
  -23.0720   -6.7533   20.1965 F   0  0  0  0  0  0  0  0  0  0  0  0
  -23.6138   -9.8047   23.7744 F   0  0  0  0  0  0  0  0  0  0  0  0
  1  2  1  0  0  0  0
  1  5  2  0  0  0  0
  2  6  2  0  0  0  0
  3  8  2  0  0  0  0
  3 18  1  0  0  0  0
  4  9  1  0  0  0  0
  4 18  2  0  0  0  0
  5 21  1  0  0  0  0
  6 23  1  0  0  0  0
  7 10  2  0  0  0  0
  7 22  1  0  0  0  0
  8 27  1  0  0  0  0
  9 27  2  0  0  0  0
 10 28  1  0  0  0  0
 11 12  2  0  0  0  0
 11 29  1  0  0  0  0
 12 30  1  0  0  0  0
 13 19  2  0  0  0  0
 13 25  1  0  0  0  0
 14 19  1  0  0  0  0
 14 26  2  0  0  0  0
 15 24  1  0  0  0  0
 15 28  2  0  0  0  0
 16 25  2  0  0  0  0
 16 26  1  0  0  0  0
 17 30  2  0  0  0  0
 17 31  1  0  0  0  0
 18 32  1  0  0  0  0
 19 34  1  0  0  0  0
 20 32  1  0  0  0  0
 20 33  2  0  0  0  0
 20 35  1  0  0  0  0
 21 23  2  0  0  0  0
 21 40  1  0  0  0  0
 22 24  2  0  0  0  0
 22 41  1  0  0  0  0
 23 49  1  0  0  0  0
 24 42  1  0  0  0  0
 25 73  1  0  0  0  0
 26 74  1  0  0  0  0
 27 85  1  0  0  0  0
 28 86  1  0  0  0  0
 29 31  2  0  0  0  0
 29 85  1  0  0  0  0
 30 87  1  0  0  0  0
 31 88  1  0  0  0  0
 32 67  2  0  0  0  0
 33 68  1  0  0  0  0
 33 71  1  0  0  0  0
 34 75  1  0  0  0  0
 34 79  2  0  0  0  0
 35 72  1  0  0  0  0
 35 80  2  0  0  0  0
 36 50  1  0  0  0  0
 36 76  1  0  0  0  0
 36 81  2  0  0  0  0
 37 62  1  0  0  0  0
 37 69  1  0  0  0  0
 37 82  2  0  0  0  0
 38 63  1  0  0  0  0
 38 77  1  0  0  0  0
 38 83  2  0  0  0  0
 39 70  1  0  0  0  0
 39 73  1  0  0  0  0
 39 84  2  0  0  0  0
 40 43  1  0  0  0  0
 41 50  1  0  0  0  0
 42 69  1  0  0  0  0
 43 45  1  0  0  0  0
 44 46  1  0  0  0  0
 44 47  1  0  0  0  0
 45 49  1  0  0  0  0
 46 51  1  0  0  0  0
 47 70  1  0  0  0  0
 48 51  1  0  0  0  0
 48 70  1  0  0  0  0
 49 76  1  0  0  0  0
 50 69  1  0  0  0  0
 51 68  1  0  0  0  0
 52 63  1  0  0  0  0
 53 64  1  0  0  0  0
 54 65  1  0  0  0  0
 55 65  1  0  0  0  0
 56 65  1  0  0  0  0
 57 66  1  0  0  0  0
 58 66  1  0  0  0  0
 59 66  1  0  0  0  0
 60 78  1  0  0  0  0
 61 64  1  0  0  0  0
 61 86  1  0  0  0  0
 62 65  1  0  0  0  0
 62 77  1  0  0  0  0
 63 78  1  0  0  0  0
 64 74  1  0  0  0  0
 66 75  1  0  0  0  0
 67 68  1  0  0  0  0
M  CHG  1  78   1
M  ISO  4  39 100  61 101  73 100  86 101
M  END
> <Batch ID>
0011

> <Smiles>
CNC(C)C(=O)NC(C(=O)N1Cc2cc([101O:1][101CH2:1]C(C)Nc3cc([100NH:0][100C:0](=O)N4CCCC(n5nc(-c6ccc(Oc7ccc(F)cc7F)cc6)c(C(N)=O)c5N)C4)cc(C(=O)NC(C)(C)C)c3)ccc2CC1C(=O)NC1CCCc2ccccc21)C(C)(C)C

> <Shape>
0.218

> <Color>
0.070

> <Negative vol penalty>
0.000

$$$$

  -OEChem-04052315443D

 82 90  0     1  0  0  0  0  0999 V2000
  -35.8843  -31.1724   20.0880 C   0  0  0  0  0  0  0  0  0  0  0  0
  -35.9659  -30.0121   20.8512 C   0  0  0  0  0  0  0  0  0  0  0  0
  -23.0446   -9.9682   19.8682 C   0  0  0  0  0  0  0  0  0  0  0  0
  -23.9072   -9.7577   22.1151 C   0  0  0  0  0  0  0  0  0  0  0  0
  -34.6520  -31.7974   19.9014 C   0  0  0  0  0  0  0  0  0  0  0  0
  -34.8153  -29.4767   21.4290 C   0  0  0  0  0  0  0  0  0  0  0  0
  -33.5360  -23.5471   22.2711 C   0  0  0  0  0  0  0  0  0  0  0  0
  -29.9970  -17.2351   23.4676 C   0  0  0  0  0  0  0  0  0  0  0  0
  -30.6256  -18.0307   24.4254 C   0  0  0  0  0  0  0  0  0  0  0  0
  -22.3109   -8.7944   20.0399 C   0  0  0  0  0  0  0  0  0  0  0  0
  -23.1734   -8.5839   22.2868 C   0  0  0  0  0  0  0  0  0  0  0  0
  -33.6499  -22.7114   23.3813 C   0  0  0  0  0  0  0  0  0  0  0  0
  -19.9744   -7.7235   22.9551 C   0  0  0  0  0  0  0  0  0  0  0  0
  -19.2710   -7.5697   24.1497 C   0  0  0  0  0  0  0  0  0  0  0  0
  -31.3272  -23.0997   23.9042 C   0  0  0  0  0  0  0  0  0  0  0  0
  -32.1514  -16.4538   22.7026 C   0  0  0  0  0  0  0  0  0  0  0  0
  -20.5411   -5.5740   24.6406 C   0  0  0  0  0  0  0  0  0  0  0  0
  -23.8428  -10.4498   20.9058 C   0  0  0  0  0  0  0  0  0  0  0  0
  -24.1831  -12.9757   21.0127 C   0  0  0  0  0  0  0  0  0  0  0  0
  -33.4843  -31.2640   20.4692 C   0  0  0  0  0  0  0  0  0  0  0  0
  -32.3177  -24.1750   21.9749 C   0  0  0  0  0  0  0  0  0  0  0  0
  -33.5665  -30.0958   21.2509 C   0  0  0  0  0  0  0  0  0  0  0  0
  -31.1998  -23.9408   22.7883 C   0  0  0  0  0  0  0  0  0  0  0  0
  -30.7599  -16.4466   22.6062 C   0  0  0  0  0  0  0  0  0  0  0  0
  -32.0171  -18.0380   24.5218 C   0  0  0  0  0  0  0  0  0  0  0  0
  -22.3752   -8.1023   21.2492 C   0  0  0  0  0  0  0  0  0  0  0  0
  -32.5462  -22.4899   24.1997 C   0  0  0  0  0  0  0  0  0  0  0  0
  -20.9611   -6.8025   22.6032 C   0  0  0  0  0  0  0  0  0  0  0  0
  -19.5543   -6.4949   24.9925 C   0  0  0  0  0  0  0  0  0  0  0  0
  -32.7801  -17.2495   23.6604 C   0  0  0  0  0  0  0  0  0  0  0  0
  -21.2445   -5.7278   23.4459 C   0  0  0  0  0  0  0  0  0  0  0  0
  -24.6015  -11.6619   20.7288 C   0  0  0  0  0  0  0  0  0  0  0  0
  -25.2590  -13.7594   20.6740 C   0  0  0  0  0  0  0  0  0  0  0  0
  -22.9337  -13.4457   21.5359 C   0  0  0  0  0  0  0  0  0  0  0  0
  -31.3406  -27.1930   21.7724 C   0  0  0  0  0  0  0  0  0  0  0  0
  -28.5966  -25.8247   20.7140 C   0  0  0  0  0  0  0  0  0  0  0  0
  -26.5782  -23.0743   20.6232 C   0  0  0  0  0  0  0  0  0  0  0  0
  -30.7292  -14.7981   20.7015 C   0  0  0  0  0  0  0  0  0  0  0  0
  -32.1823  -32.0012   20.2789 C   0  0  0  0  0  0  0  0  0  0  0  0
  -32.2042  -25.0524   20.7585 C   0  0  0  0  0  0  0  0  0  0  0  0
  -29.8640  -24.5751   22.5021 C   0  0  0  0  0  0  0  0  0  0  0  0
  -30.9523  -31.1616   20.6144 C   0  0  0  0  0  0  0  0  0  0  0  0
  -29.5051  -12.6190   18.1657 C   0  0  0  0  0  0  0  0  0  0  0  0
  -31.1472  -30.4358   21.9418 C   0  0  0  0  0  0  0  0  0  0  0  0
  -28.0858  -12.2838   18.6298 C   0  0  0  0  0  0  0  0  0  0  0  0
  -30.4739  -12.7342   19.3412 C   0  0  0  0  0  0  0  0  0  0  0  0
  -28.6324  -13.3181   20.8700 C   0  0  0  0  0  0  0  0  0  0  0  0
  -32.3369  -29.4707   21.8734 C   0  0  1  0  0  0  0  0  0  0  0  0
  -31.0508  -26.0471   20.8447 C   0  0  1  0  0  0  0  0  0  0  0  0
  -27.6071  -13.2558   19.7261 C   0  0  2  0  0  0  0  0  0  0  0  0
  -24.3833  -22.2709   19.7097 C   0  0  0  0  0  0  0  0  0  0  0  0
  -27.1239  -27.4087   22.8661 C   0  0  0  0  0  0  0  0  0  0  0  0
  -25.1614  -25.8879   22.5442 C   0  0  0  0  0  0  0  0  0  0  0  0
  -25.9549  -27.3135   20.6573 C   0  0  0  0  0  0  0  0  0  0  0  0
  -34.1054  -18.8499   25.5895 C   0  0  0  0  0  0  0  0  0  0  0  0
  -27.8862  -20.9498   19.0312 C   0  0  0  0  0  0  0  0  0  0  0  0
  -31.8832  -19.6770   26.3808 C   0  0  0  0  0  0  0  0  0  0  0  0
  -31.4824  -20.9667   25.6844 C   0  0  0  0  0  0  0  0  0  1  0  0
  -27.3339  -25.3170   21.3673 C   0  0  1  0  0  0  0  0  0  0  0  0
  -25.8816  -22.3737   19.4706 C   0  0  2  0  0  0  0  0  0  0  0  0
  -26.4191  -26.4712   21.8655 C   0  0  0  0  0  0  0  0  0  0  0  0
  -25.8460  -11.6099   20.2467 N   0  0  0  0  0  0  0  0  0  0  0  0
  -26.2189  -12.9009   20.2250 N   0  0  0  0  0  0  0  0  0  0  0  0
  -29.8052  -25.4298   21.3048 N   0  0  0  0  0  0  0  0  0  0  0  0
  -29.9568  -13.6749   20.3376 N   0  0  0  0  0  0  0  0  0  0  0  0
  -25.4681  -15.0923   20.7194 N   0  0  0  0  0  0  0  0  0  0  0  0
  -21.9365  -12.5057   21.8299 N   0  0  0  0  0  0  0  0  0  0  0  0
  -30.1210  -15.6388   21.6330 N   0  0  0  0  0  0  0  0  0  0  0  0
  -31.9685  -28.2637   21.1651 N   0  0  0  0  0  0  0  0  0  0  0  0
  -26.7013  -24.4291   20.3979 N   0  0  0  0  0  0  0  0  0  0  0  0
  -32.6460  -18.8389   25.4844 N   0  0  3  0  0  0  0  0  0  0  0  0
  -26.4253  -20.9970   19.2967 N   0  3  0  0  0  0  0  0  0  0  0  0
  -22.7023  -14.6645   21.7214 O   0  0  0  0  0  0  0  0  0  0  0  0
  -31.0172  -27.1123   22.9517 O   0  0  0  0  0  0  0  0  0  0  0  0
  -28.5138  -26.5393   19.7119 O   0  0  0  0  0  0  0  0  0  0  0  0
  -26.9703  -22.4799   21.6249 O   0  0  0  0  0  0  0  0  0  0  0  0
  -31.8363  -15.0138   20.2018 O   0  0  0  0  0  0  0  0  0  0  0  0
  -21.6592   -6.9570   21.4172 O   0  0  0  0  0  0  0  0  0  0  0  0
  -32.6547  -21.6752   25.2843 O   0  0  0  0  0  0  0  0  0  1  0  0
  -18.8798   -6.3482   26.1404 F   0  0  0  0  0  0  0  0  0  0  0  0
  -34.1181  -17.2502   23.7434 F   0  0  0  0  0  0  0  0  0  0  0  0
  -22.1922   -4.8404   23.1138 F   0  0  0  0  0  0  0  0  0  0  0  0
  1  2  1  0  0  0  0
  1  5  2  0  0  0  0
  2  6  2  0  0  0  0
  3 10  2  0  0  0  0
  3 18  1  0  0  0  0
  4 11  1  0  0  0  0
  4 18  2  0  0  0  0
  5 20  1  0  0  0  0
  6 22  1  0  0  0  0
  7 12  2  0  0  0  0
  7 21  1  0  0  0  0
  8  9  2  0  0  0  0
  8 24  1  0  0  0  0
  9 25  1  0  0  0  0
 10 26  1  0  0  0  0
 11 26  2  0  0  0  0
 12 27  1  0  0  0  0
 13 14  2  0  0  0  0
 13 28  1  0  0  0  0
 14 29  1  0  0  0  0
 15 23  1  0  0  0  0
 15 27  2  0  0  0  0
 16 24  2  0  0  0  0
 16 30  1  0  0  0  0
 17 29  2  0  0  0  0
 17 31  1  0  0  0  0
 18 32  1  0  0  0  0
 19 32  1  0  0  0  0
 19 33  2  0  0  0  0
 19 34  1  0  0  0  0
 20 22  2  0  0  0  0
 20 39  1  0  0  0  0
 21 23  2  0  0  0  0
 21 40  1  0  0  0  0
 22 48  1  0  0  0  0
 23 41  1  0  0  0  0
 24 68  1  0  0  0  0
 25 30  2  0  0  0  0
 25 71  1  0  0  0  0
 26 78  1  0  0  0  0
 27 79  1  0  0  0  0
 28 31  2  0  0  0  0
 28 78  1  0  0  0  0
 29 80  1  0  0  0  0
 30 81  1  0  0  0  0
 31 82  1  0  0  0  0
 32 62  2  0  0  0  0
 33 63  1  0  0  0  0
 33 66  1  0  0  0  0
 34 67  1  0  0  0  0
 34 73  2  0  0  0  0
 35 49  1  0  0  0  0
 35 69  1  0  0  0  0
 35 74  2  0  0  0  0
 36 59  1  0  0  0  0
 36 64  1  0  0  0  0
 36 75  2  0  0  0  0
 37 60  1  0  0  0  0
 37 70  1  0  0  0  0
 37 76  2  0  0  0  0
 38 65  1  0  0  0  0
 38 68  1  0  0  0  0
 38 77  2  0  0  0  0
 39 42  1  0  0  0  0
 40 49  1  0  0  0  0
 41 64  1  0  0  0  0
 42 44  1  0  0  0  0
 43 45  1  0  0  0  0
 43 46  1  0  0  0  0
 44 48  1  0  0  0  0
 45 50  1  0  0  0  0
 46 65  1  0  0  0  0
 47 50  1  0  0  0  0
 47 65  1  0  0  0  0
 48 69  1  0  0  0  0
 49 64  1  0  0  0  0
 50 63  1  0  0  0  0
 51 60  1  0  0  0  0
 52 61  1  0  0  0  0
 53 61  1  0  0  0  0
 54 61  1  0  0  0  0
 55 71  1  0  0  0  0
 56 72  1  0  0  0  0
 57 58  1  0  0  0  0
 57 71  1  0  0  0  0
 58 79  1  0  0  0  0
 59 61  1  0  0  0  0
 59 70  1  0  0  0  0
 60 72  1  0  0  0  0
 62 63  1  0  0  0  0
M  CHG  1  72   1
M  ISO  4  38 100  58 101  68 100  79 101
M  END
> <Batch ID>
0011

> <Smiles>
CNC(C)C(=O)NC(C(=O)N1Cc2cc([101O:1][101CH2:1]CN(C)c3ccc([100NH:0][100C:0](=O)N4CCCC(n5nc(-c6ccc(Oc7ccc(F)cc7F)cc6)c(C(N)=O)c5N)C4)cc3F)ccc2CC1C(=O)NC1CCCc2ccccc21)C(C)(C)C

> <Shape>
0.211

> <Color>
0.214

> <Negative vol penalty>
0.000

$$$$

  -OEChem-04052315443D

 83 91  0     1  0  0  0  0  0999 V2000
  -35.8961  -31.1734   20.0865 C   0  0  0  0  0  0  0  0  0  0  0  0
  -35.9770  -30.0126   20.8489 C   0  0  0  0  0  0  0  0  0  0  0  0
  -23.0458   -9.9645   19.8689 C   0  0  0  0  0  0  0  0  0  0  0  0
  -23.9071   -9.7575   22.1166 C   0  0  0  0  0  0  0  0  0  0  0  0
  -34.6644  -31.8000   19.9014 C   0  0  0  0  0  0  0  0  0  0  0  0
  -34.8264  -29.4782   21.4276 C   0  0  0  0  0  0  0  0  0  0  0  0
  -33.5406  -23.5498   22.2677 C   0  0  0  0  0  0  0  0  0  0  0  0
  -22.3126   -8.7906   20.0417 C   0  0  0  0  0  0  0  0  0  0  0  0
  -23.1739   -8.5836   22.2894 C   0  0  0  0  0  0  0  0  0  0  0  0
  -33.6545  -22.7133   23.3773 C   0  0  0  0  0  0  0  0  0  0  0  0
  -19.9750   -7.7222   22.9568 C   0  0  0  0  0  0  0  0  0  0  0  0
  -19.2709   -7.5696   24.1512 C   0  0  0  0  0  0  0  0  0  0  0  0
  -31.3328  -23.1042   23.9028 C   0  0  0  0  0  0  0  0  0  0  0  0
  -32.1473  -16.4565   22.6980 C   0  0  0  0  0  0  0  0  0  0  0  0
  -30.6255  -18.0360   24.4220 C   0  0  0  0  0  0  0  0  0  0  0  0
  -20.5419   -5.5752   24.6455 C   0  0  0  0  0  0  0  0  0  0  0  0
  -23.8431  -10.4480   20.9063 C   0  0  0  0  0  0  0  0  0  0  0  0
  -24.1819  -12.9743   21.0102 C   0  0  0  0  0  0  0  0  0  0  0  0
  -33.4966  -31.2677   20.4701 C   0  0  0  0  0  0  0  0  0  0  0  0
  -32.3227  -24.1794   21.9731 C   0  0  0  0  0  0  0  0  0  0  0  0
  -33.5781  -30.0990   21.2511 C   0  0  0  0  0  0  0  0  0  0  0  0
  -31.2054  -23.9461   22.7874 C   0  0  0  0  0  0  0  0  0  0  0  0
  -30.7557  -16.4511   22.6031 C   0  0  0  0  0  0  0  0  0  0  0  0
  -32.0171  -18.0413   24.5169 C   0  0  0  0  0  0  0  0  0  0  0  0
  -22.3766   -8.1001   21.2519 C   0  0  0  0  0  0  0  0  0  0  0  0
  -32.5513  -22.4927   24.1967 C   0  0  0  0  0  0  0  0  0  0  0  0
  -20.9625   -6.8013   22.6067 C   0  0  0  0  0  0  0  0  0  0  0  0
  -19.5543   -6.4961   24.9956 C   0  0  0  0  0  0  0  0  0  0  0  0
  -29.9948  -17.2408   23.4651 C   0  0  0  0  0  0  0  0  0  0  0  0
  -32.7780  -17.2516   23.6550 C   0  0  0  0  0  0  0  0  0  0  0  0
  -21.2459   -5.7279   23.4511 C   0  0  0  0  0  0  0  0  0  0  0  0
  -24.6012  -11.6603   20.7283 C   0  0  0  0  0  0  0  0  0  0  0  0
  -25.2575  -13.7582   20.6711 C   0  0  0  0  0  0  0  0  0  0  0  0
  -22.9318  -13.4442   21.5319 C   0  0  0  0  0  0  0  0  0  0  0  0
  -31.3492  -27.1987   21.7732 C   0  0  0  0  0  0  0  0  0  0  0  0
  -28.6025  -25.8343   20.7167 C   0  0  0  0  0  0  0  0  0  0  0  0
  -26.5806  -23.0865   20.6264 C   0  0  0  0  0  0  0  0  0  0  0  0
  -30.7271  -14.8000   20.7006 C   0  0  0  0  0  0  0  0  0  0  0  0
  -32.1954  -32.0066   20.2815 C   0  0  0  0  0  0  0  0  0  0  0  0
  -32.2092  -25.0576   20.7572 C   0  0  0  0  0  0  0  0  0  0  0  0
  -29.8701  -24.5822   22.5029 C   0  0  0  0  0  0  0  0  0  0  0  0
  -30.9647  -31.1684   20.6177 C   0  0  0  0  0  0  0  0  0  0  0  0
  -29.5059  -12.6169   18.1669 C   0  0  0  0  0  0  0  0  0  0  0  0
  -31.1600  -30.4416   21.9445 C   0  0  0  0  0  0  0  0  0  0  0  0
  -28.0865  -12.2815   18.6306 C   0  0  0  0  0  0  0  0  0  0  0  0
  -30.4738  -12.7342   19.3430 C   0  0  0  0  0  0  0  0  0  0  0  0
  -28.6310  -13.3190   20.8698 C   0  0  0  0  0  0  0  0  0  0  0  0
  -32.3484  -29.4751   21.8745 C   0  0  1  0  0  0  0  0  0  0  0  0
  -31.0570  -26.0537   20.8451 C   0  0  1  0  0  0  0  0  0  0  0  0
  -27.6065  -13.2546   19.7253 C   0  0  2  0  0  0  0  0  0  0  0  0
  -24.3838  -22.2863   19.7147 C   0  0  0  0  0  0  0  0  0  0  0  0
  -27.1338  -27.4190   22.8712 C   0  0  0  0  0  0  0  0  0  0  0  0
  -25.1691  -25.9007   22.5503 C   0  0  0  0  0  0  0  0  0  0  0  0
  -25.9626  -27.3265   20.6634 C   0  0  0  0  0  0  0  0  0  0  0  0
  -34.1074  -18.8501   25.5830 C   0  0  0  0  0  0  0  0  0  0  0  0
  -27.8844  -20.9612   19.0320 C   0  0  0  0  0  0  0  0  0  0  0  0
  -31.8870  -19.6795   26.3769 C   0  0  0  0  0  0  0  0  0  0  0  0
  -31.4872  -20.9701   25.6816 C   0  0  0  0  0  0  0  0  0  1  0  0
  -27.3398  -25.3278   21.3710 C   0  0  1  0  0  0  0  0  0  0  0  0
  -25.8820  -22.3873   19.4742 C   0  0  2  0  0  0  0  0  0  0  0  0
  -26.4269  -26.4829   21.8707 C   0  0  0  0  0  0  0  0  0  0  0  0
  -25.8461  -11.6084   20.2470 N   0  0  0  0  0  0  0  0  0  0  0  0
  -26.2182  -12.8995   20.2238 N   0  0  0  0  0  0  0  0  0  0  0  0
  -29.8112  -25.4376   21.3062 N   0  0  0  0  0  0  0  0  0  0  0  0
  -29.9555  -13.6758   20.3377 N   0  0  0  0  0  0  0  0  0  0  0  0
  -25.4658  -15.0912   20.7148 N   0  0  0  0  0  0  0  0  0  0  0  0
  -21.9350  -12.5041   21.8265 N   0  0  0  0  0  0  0  0  0  0  0  0
  -30.1178  -15.6416   21.6307 N   0  0  0  0  0  0  0  0  0  0  0  0
  -31.9778  -28.2689   21.1658 N   0  0  0  0  0  0  0  0  0  0  0  0
  -26.7051  -24.4412   20.4017 N   0  0  0  0  0  0  0  0  0  0  0  0
  -32.6479  -18.8409   25.4793 N   0  0  3  0  0  0  0  0  0  0  0  0
  -26.4238  -21.0101   19.2990 N   0  3  0  0  0  0  0  0  0  0  0  0
  -22.6996  -14.6632   21.7156 O   0  0  0  0  0  0  0  0  0  0  0  0
  -31.0269  -27.1177   22.9527 O   0  0  0  0  0  0  0  0  0  0  0  0
  -28.5195  -26.5496   19.7151 O   0  0  0  0  0  0  0  0  0  0  0  0
  -26.9729  -22.4911   21.6274 O   0  0  0  0  0  0  0  0  0  0  0  0
  -31.8344  -15.0157   20.2013 O   0  0  0  0  0  0  0  0  0  0  0  0
  -21.6611   -6.9547   21.4210 O   0  0  0  0  0  0  0  0  0  0  0  0
  -32.6600  -21.6773   25.2808 O   0  0  0  0  0  0  0  0  0  1  0  0
  -18.8792   -6.3505   26.1432 F   0  0  0  0  0  0  0  0  0  0  0  0
  -28.6566  -17.2416   23.3843 F   0  0  0  0  0  0  0  0  0  0  0  0
  -34.1161  -17.2491   23.7383 F   0  0  0  0  0  0  0  0  0  0  0  0
  -22.1943   -4.8406   23.1207 F   0  0  0  0  0  0  0  0  0  0  0  0
  1  2  1  0  0  0  0
  1  5  2  0  0  0  0
  2  6  2  0  0  0  0
  3  8  2  0  0  0  0
  3 17  1  0  0  0  0
  4  9  1  0  0  0  0
  4 17  2  0  0  0  0
  5 19  1  0  0  0  0
  6 21  1  0  0  0  0
  7 10  2  0  0  0  0
  7 20  1  0  0  0  0
  8 25  1  0  0  0  0
  9 25  2  0  0  0  0
 10 26  1  0  0  0  0
 11 12  2  0  0  0  0
 11 27  1  0  0  0  0
 12 28  1  0  0  0  0
 13 22  1  0  0  0  0
 13 26  2  0  0  0  0
 14 23  2  0  0  0  0
 14 30  1  0  0  0  0
 15 24  1  0  0  0  0
 15 29  2  0  0  0  0
 16 28  2  0  0  0  0
 16 31  1  0  0  0  0
 17 32  1  0  0  0  0
 18 32  1  0  0  0  0
 18 33  2  0  0  0  0
 18 34  1  0  0  0  0
 19 21  2  0  0  0  0
 19 39  1  0  0  0  0
 20 22  2  0  0  0  0
 20 40  1  0  0  0  0
 21 48  1  0  0  0  0
 22 41  1  0  0  0  0
 23 29  1  0  0  0  0
 23 68  1  0  0  0  0
 24 30  2  0  0  0  0
 24 71  1  0  0  0  0
 25 78  1  0  0  0  0
 26 79  1  0  0  0  0
 27 31  2  0  0  0  0
 27 78  1  0  0  0  0
 28 80  1  0  0  0  0
 29 81  1  0  0  0  0
 30 82  1  0  0  0  0
 31 83  1  0  0  0  0
 32 62  2  0  0  0  0
 33 63  1  0  0  0  0
 33 66  1  0  0  0  0
 34 67  1  0  0  0  0
 34 73  2  0  0  0  0
 35 49  1  0  0  0  0
 35 69  1  0  0  0  0
 35 74  2  0  0  0  0
 36 59  1  0  0  0  0
 36 64  1  0  0  0  0
 36 75  2  0  0  0  0
 37 60  1  0  0  0  0
 37 70  1  0  0  0  0
 37 76  2  0  0  0  0
 38 65  1  0  0  0  0
 38 68  1  0  0  0  0
 38 77  2  0  0  0  0
 39 42  1  0  0  0  0
 40 49  1  0  0  0  0
 41 64  1  0  0  0  0
 42 44  1  0  0  0  0
 43 45  1  0  0  0  0
 43 46  1  0  0  0  0
 44 48  1  0  0  0  0
 45 50  1  0  0  0  0
 46 65  1  0  0  0  0
 47 50  1  0  0  0  0
 47 65  1  0  0  0  0
 48 69  1  0  0  0  0
 49 64  1  0  0  0  0
 50 63  1  0  0  0  0
 51 60  1  0  0  0  0
 52 61  1  0  0  0  0
 53 61  1  0  0  0  0
 54 61  1  0  0  0  0
 55 71  1  0  0  0  0
 56 72  1  0  0  0  0
 57 58  1  0  0  0  0
 57 71  1  0  0  0  0
 58 79  1  0  0  0  0
 59 61  1  0  0  0  0
 59 70  1  0  0  0  0
 60 72  1  0  0  0  0
 62 63  1  0  0  0  0
M  CHG  1  72   1
M  ISO  4  38 100  58 101  68 100  79 101
M  END
> <Batch ID>
0011

> <Smiles>
CNC(C)C(=O)NC(C(=O)N1Cc2cc([101O:1][101CH2:1]CN(C)c3cc(F)c([100NH:0][100C:0](=O)N4CCCC(n5nc(-c6ccc(Oc7ccc(F)cc7F)cc6)c(C(N)=O)c5N)C4)cc3F)ccc2CC1C(=O)NC1CCCc2ccccc21)C(C)(C)C

> <Shape>
0.211

> <Color>
0.214

> <Negative vol penalty>
0.000

$$$$

  -OEChem-04052315443D

 84 92  0     1  0  0  0  0  0999 V2000
  -38.2472  -31.9545   16.3307 C   0  0  0  0  0  0  0  0  0  0  0  0
  -38.2554  -30.7337   16.9978 C   0  0  0  0  0  0  0  0  0  0  0  0
  -23.0207   -9.8587   20.0240 C   0  0  0  0  0  0  0  0  0  0  0  0
  -23.7012  -10.0172   22.3367 C   0  0  0  0  0  0  0  0  0  0  0  0
  -37.2610  -32.8975   16.6170 C   0  0  0  0  0  0  0  0  0  0  0  0
  -37.2778  -30.4557   17.9526 C   0  0  0  0  0  0  0  0  0  0  0  0
  -34.7368  -25.0120   19.1425 C   0  0  0  0  0  0  0  0  0  0  0  0
  -22.2571   -8.7312   20.3259 C   0  0  0  0  0  0  0  0  0  0  0  0
  -22.9376   -8.8897   22.6387 C   0  0  0  0  0  0  0  0  0  0  0  0
  -34.9878  -24.0542   20.1239 C   0  0  0  0  0  0  0  0  0  0  0  0
  -23.2139   -5.5351   22.3200 C   0  0  0  0  0  0  0  0  0  0  0  0
  -23.7940   -4.5568   23.1274 C   0  0  0  0  0  0  0  0  0  0  0  0
  -33.2091  -24.9746   21.4686 C   0  0  0  0  0  0  0  0  0  0  0  0
  -30.4110  -18.5370   23.8033 C   0  0  0  0  0  0  0  0  0  0  0  0
  -31.9835  -16.6667   22.4571 C   0  0  0  0  0  0  0  0  0  0  0  0
  -22.0367   -4.8601   24.7575 C   0  0  0  0  0  0  0  0  0  0  0  0
  -23.7428  -10.5017   21.0294 C   0  0  0  0  0  0  0  0  0  0  0  0
  -24.1141  -13.0100   20.7492 C   0  0  0  0  0  0  0  0  0  0  0  0
  -36.2652  -32.6270   17.5688 C   0  0  0  0  0  0  0  0  0  0  0  0
  -33.7255  -25.9668   19.3219 C   0  0  0  0  0  0  0  0  0  0  0  0
  -36.2781  -31.3965   18.2529 C   0  0  0  0  0  0  0  0  0  0  0  0
  -32.9456  -25.9419   20.4868 C   0  0  0  0  0  0  0  0  0  0  0  0
  -31.7938  -18.5279   23.9859 C   0  0  0  0  0  0  0  0  0  0  0  0
  -30.6006  -16.6758   22.2746 C   0  0  0  0  0  0  0  0  0  0  0  0
  -22.2155   -8.2467   21.6332 C   0  0  0  0  0  0  0  0  0  0  0  0
  -34.2258  -24.0371   21.2885 C   0  0  0  0  0  0  0  0  0  0  0  0
  -22.0453   -6.1761   22.7313 C   0  0  0  0  0  0  0  0  0  0  0  0
  -23.2054   -4.2192   24.3461 C   0  0  0  0  0  0  0  0  0  0  0  0
  -32.5801  -17.5928   23.3128 C   0  0  0  0  0  0  0  0  0  0  0  0
  -21.4567   -5.8386   23.9500 C   0  0  0  0  0  0  0  0  0  0  0  0
  -29.8144  -17.6109   22.9477 C   0  0  0  0  0  0  0  0  0  0  0  0
  -24.5323  -11.6661   20.7180 C   0  0  0  0  0  0  0  0  0  0  0  0
  -25.2256  -13.7243   20.3741 C   0  0  0  0  0  0  0  0  0  0  0  0
  -22.8352  -13.5631   21.0872 C   0  0  0  0  0  0  0  0  0  0  0  0
  -33.6451  -29.1379   19.5253 C   0  0  0  0  0  0  0  0  0  0  0  0
  -30.4357  -28.6667   19.5356 C   0  0  0  0  0  0  0  0  0  0  0  0
  -33.5540  -21.2641   23.5261 C   0  0  0  0  0  0  0  0  0  0  0  0
  -27.8173  -26.5701   20.1641 C   0  0  0  0  0  0  0  0  0  0  0  0
  -30.6928  -14.7372   20.6684 C   0  0  0  0  0  0  0  0  0  0  0  0
  -35.2476  -33.6962   17.8786 C   0  0  0  0  0  0  0  0  0  0  0  0
  -33.4496  -26.9768   18.2419 C   0  0  0  0  0  0  0  0  0  0  0  0
  -31.8348  -26.9323   20.7188 C   0  0  0  0  0  0  0  0  0  0  0  0
  -34.0275  -33.1754   18.6339 C   0  0  0  0  0  0  0  0  0  0  0  0
  -29.6362  -12.1753   18.4329 C   0  0  0  0  0  0  0  0  0  0  0  0
  -34.4582  -32.2767   19.7887 C   0  0  0  0  0  0  0  0  0  0  0  0
  -28.1798  -11.9250   18.8307 C   0  0  0  0  0  0  0  0  0  0  0  0
  -30.5117  -12.4790   19.6474 C   0  0  0  0  0  0  0  0  0  0  0  0
  -28.5658  -13.3111   20.9083 C   0  0  0  0  0  0  0  0  0  0  0  0
  -35.2201  -31.0481   19.2772 C   0  0  1  0  0  0  0  0  0  0  0  0
  -32.7348  -28.2222   18.7570 C   0  0  1  0  0  0  0  0  0  0  0  0
  -27.6324  -13.0650   19.7118 C   0  0  2  0  0  0  0  0  0  0  0  0
  -25.3100  -26.4798   20.1133 C   0  0  0  0  0  0  0  0  0  0  0  0
  -30.3267  -30.3236   22.0955 C   0  0  0  0  0  0  0  0  0  0  0  0
  -28.0285  -29.4171   22.5016 C   0  0  0  0  0  0  0  0  0  0  0  0
  -28.4842  -30.7918   20.4705 C   0  0  0  0  0  0  0  0  0  0  0  0
  -27.8209  -24.3742   18.1799 C   0  0  0  0  0  0  0  0  0  0  0  0
  -32.4330  -19.5261   24.9075 C   0  0  0  0  0  0  0  0  0  0  0  0
  -33.3606  -22.6859   23.0439 C   0  0  0  0  0  0  0  0  0  1  0  0
  -29.3925  -28.4360   20.6021 C   0  0  1  0  0  0  0  0  0  0  0  0
  -26.5927  -26.2133   19.3411 C   0  0  2  0  0  0  0  0  0  0  0  0
  -29.0801  -29.7245   21.4142 C   0  0  0  0  0  0  0  0  0  0  0  0
  -25.8098  -11.5321   20.3518 N   0  0  0  0  0  0  0  0  0  0  0  0
  -26.2038  -12.8009   20.1494 N   0  0  0  0  0  0  0  0  0  0  0  0
  -31.6079  -27.9040   19.6363 N   0  0  0  0  0  0  0  0  0  0  0  0
  -29.9333  -13.5718   20.4322 N   0  0  0  0  0  0  0  0  0  0  0  0
  -25.4518  -15.0460   20.2178 N   0  0  0  0  0  0  0  0  0  0  0  0
  -21.8031  -12.6870   21.4501 N   0  0  0  0  0  0  0  0  0  0  0  0
  -30.0270  -15.7212   21.3985 N   0  0  0  0  0  0  0  0  0  0  0  0
  -34.2989  -30.0691   18.7411 N   0  0  0  0  0  0  0  0  0  0  0  0
  -32.4967  -20.8432   24.3175 N   0  0  0  0  0  0  0  0  0  0  0  0
  -28.2354  -27.8619   19.9238 N   0  0  0  0  0  0  0  0  0  0  0  0
  -26.6237  -24.7716   18.9646 N   0  3  0  0  0  0  0  0  0  0  0  0
  -22.6095  -14.7965   21.0521 O   0  0  0  0  0  0  0  0  0  0  0  0
  -33.7458  -29.0101   20.7399 O   0  0  0  0  0  0  0  0  0  0  0  0
  -30.2156  -29.4881   18.6420 O   0  0  0  0  0  0  0  0  0  0  0  0
  -34.5398  -20.5922   23.2352 O   0  0  0  0  0  0  0  0  0  0  0  0
  -28.3476  -25.7830   20.9450 O   0  0  0  0  0  0  0  0  0  0  0  0
  -31.8389  -14.8648   20.2302 O   0  0  0  0  0  0  0  0  0  0  0  0
  -21.4702   -7.1466   21.9282 O   0  0  0  0  0  0  0  0  0  0  0  0
  -34.4691  -23.1036   22.2483 O   0  0  0  0  0  0  0  0  0  1  0  0
  -23.7616   -3.2786   25.1207 F   0  0  0  0  0  0  0  0  0  0  0  0
  -33.9096  -17.5763   23.4822 F   0  0  0  0  0  0  0  0  0  0  0  0
  -20.3333   -6.4500   24.3500 F   0  0  0  0  0  0  0  0  0  0  0  0
  -28.0986  -17.6569   22.7507 Cl  0  0  0  0  0  0  0  0  0  0  0  0
  1  2  1  0  0  0  0
  1  5  2  0  0  0  0
  2  6  2  0  0  0  0
  3  8  2  0  0  0  0
  3 17  1  0  0  0  0
  4  9  1  0  0  0  0
  4 17  2  0  0  0  0
  5 19  1  0  0  0  0
  6 21  1  0  0  0  0
  7 10  2  0  0  0  0
  7 20  1  0  0  0  0
  8 25  1  0  0  0  0
  9 25  2  0  0  0  0
 10 26  1  0  0  0  0
 11 12  2  0  0  0  0
 11 27  1  0  0  0  0
 12 28  1  0  0  0  0
 13 22  1  0  0  0  0
 13 26  2  0  0  0  0
 14 23  1  0  0  0  0
 14 31  2  0  0  0  0
 15 24  2  0  0  0  0
 15 29  1  0  0  0  0
 16 28  2  0  0  0  0
 16 30  1  0  0  0  0
 17 32  1  0  0  0  0
 18 32  1  0  0  0  0
 18 33  2  0  0  0  0
 18 34  1  0  0  0  0
 19 21  2  0  0  0  0
 19 40  1  0  0  0  0
 20 22  2  0  0  0  0
 20 41  1  0  0  0  0
 21 49  1  0  0  0  0
 22 42  1  0  0  0  0
 23 29  2  0  0  0  0
 23 57  1  0  0  0  0
 24 31  1  0  0  0  0
 24 68  1  0  0  0  0
 25 79  1  0  0  0  0
 26 80  1  0  0  0  0
 27 30  2  0  0  0  0
 27 79  1  0  0  0  0
 28 81  1  0  0  0  0
 29 82  1  0  0  0  0
 30 83  1  0  0  0  0
 31 84  1  0  0  0  0
 32 62  2  0  0  0  0
 33 63  1  0  0  0  0
 33 66  1  0  0  0  0
 34 67  1  0  0  0  0
 34 73  2  0  0  0  0
 35 50  1  0  0  0  0
 35 69  1  0  0  0  0
 35 74  2  0  0  0  0
 36 59  1  0  0  0  0
 36 64  1  0  0  0  0
 36 75  2  0  0  0  0
 37 58  1  0  0  0  0
 37 70  1  0  0  0  0
 37 76  2  0  0  0  0
 38 60  1  0  0  0  0
 38 71  1  0  0  0  0
 38 77  2  0  0  0  0
 39 65  1  0  0  0  0
 39 68  1  0  0  0  0
 39 78  2  0  0  0  0
 40 43  1  0  0  0  0
 41 50  1  0  0  0  0
 42 64  1  0  0  0  0
 43 45  1  0  0  0  0
 44 46  1  0  0  0  0
 44 47  1  0  0  0  0
 45 49  1  0  0  0  0
 46 51  1  0  0  0  0
 47 65  1  0  0  0  0
 48 51  1  0  0  0  0
 48 65  1  0  0  0  0
 49 69  1  0  0  0  0
 50 64  1  0  0  0  0
 51 63  1  0  0  0  0
 52 60  1  0  0  0  0
 53 61  1  0  0  0  0
 54 61  1  0  0  0  0
 55 61  1  0  0  0  0
 56 72  1  0  0  0  0
 57 70  1  0  0  0  0
 58 80  1  0  0  0  0
 59 61  1  0  0  0  0
 59 71  1  0  0  0  0
 60 72  1  0  0  0  0
 62 63  1  0  0  0  0
M  CHG  1  72   1
M  ISO  4  39 100  58 101  68 100  80 101
M  END
> <Batch ID>
0011

> <Smiles>
CNC(C)C(=O)NC(C(=O)N1Cc2cc([101O:1][101CH2:1]C(=O)NCc3cc(Cl)c([100NH:0][100C:0](=O)N4CCCC(n5nc(-c6ccc(Oc7ccc(F)cc7F)cc6)c(C(N)=O)c5N)C4)cc3F)ccc2CC1C(=O)NC1CCCc2ccccc21)C(C)(C)C

> <Shape>
0.228

> <Color>
0.200

> <Negative vol penalty>
0.000

$$$$

  -OEChem-04052315443D

 86 94  0     1  0  0  0  0  0999 V2000
  -18.0099  -31.9408   20.5099 C   0  0  0  0  0  0  0  0  0  0  0  0
  -19.2637  -31.6796   19.9668 C   0  0  0  0  0  0  0  0  0  0  0  0
  -27.3663  -11.4555   20.6974 C   0  0  0  0  0  0  0  0  0  0  0  0
  -26.7209  -12.9354   18.9000 C   0  0  0  0  0  0  0  0  0  0  0  0
  -17.7777  -31.7136   21.8658 C   0  0  0  0  0  0  0  0  0  0  0  0
  -20.2866  -31.1921   20.7795 C   0  0  0  0  0  0  0  0  0  0  0  0
  -24.6910  -27.2464   19.1861 C   0  0  0  0  0  0  0  0  0  0  0  0
  -26.3182  -10.5967   20.3666 C   0  0  0  0  0  0  0  0  0  0  0  0
  -25.6728  -12.0765   18.5692 C   0  0  0  0  0  0  0  0  0  0  0  0
  -26.0190  -27.4279   18.8024 C   0  0  0  0  0  0  0  0  0  0  0  0
  -23.5921   -8.1943   20.2213 C   0  0  0  0  0  0  0  0  0  0  0  0
  -22.8110   -7.6912   21.2616 C   0  0  0  0  0  0  0  0  0  0  0  0
  -26.7247  -27.0178   21.0724 C   0  0  0  0  0  0  0  0  0  0  0  0
  -29.3626  -22.0128   21.2602 C   0  0  0  0  0  0  0  0  0  0  0  0
  -22.1923   -9.9419   21.8854 C   0  0  0  0  0  0  0  0  0  0  0  0
  -27.5676  -12.6249   19.9641 C   0  0  0  0  0  0  0  0  0  0  0  0
  -29.9656  -13.4807   19.8064 C   0  0  0  0  0  0  0  0  0  0  0  0
  -18.7954  -31.2139   22.6936 C   0  0  0  0  0  0  0  0  0  0  0  0
  -24.3685  -26.9595   20.5203 C   0  0  0  0  0  0  0  0  0  0  0  0
  -20.0682  -30.9593   22.1480 C   0  0  0  0  0  0  0  0  0  0  0  0
  -25.3920  -26.8306   21.4700 C   0  0  0  0  0  0  0  0  0  0  0  0
  -28.5933  -20.9853   20.7144 C   0  0  0  0  0  0  0  0  0  0  0  0
  -29.2444  -23.2134   19.1670 C   0  0  0  0  0  0  0  0  0  0  0  0
  -25.4714  -10.9071   19.3025 C   0  0  0  0  0  0  0  0  0  0  0  0
  -27.0358  -27.3165   19.7461 C   0  0  0  0  0  0  0  0  0  0  0  0
  -23.6734   -9.5712   20.0130 C   0  0  0  0  0  0  0  0  0  0  0  0
  -28.1496  -21.0718   19.3948 C   0  0  0  0  0  0  0  0  0  0  0  0
  -22.1110   -8.5650   22.0936 C   0  0  0  0  0  0  0  0  0  0  0  0
  -29.6881  -23.1269   20.4866 C   0  0  0  0  0  0  0  0  0  0  0  0
  -22.9735  -10.4449   20.8451 C   0  0  0  0  0  0  0  0  0  0  0  0
  -28.4752  -22.1858   18.6211 C   0  0  0  0  0  0  0  0  0  0  0  0
  -28.6497  -13.5129   20.3056 C   0  0  0  0  0  0  0  0  0  0  0  0
  -30.5978  -14.5241   20.4373 C   0  0  0  0  0  0  0  0  0  0  0  0
  -30.5630  -12.5875   18.8571 C   0  0  0  0  0  0  0  0  0  0  0  0
  -22.6706  -28.4135   22.7802 C   0  0  0  0  0  0  0  0  0  0  0  0
  -23.2620  -25.6860   24.4333 C   0  0  0  0  0  0  0  0  0  0  0  0
  -25.2509  -22.9513   24.8948 C   0  0  0  0  0  0  0  0  0  0  0  0
  -28.6383  -19.6326   22.8391 C   0  0  0  0  0  0  0  0  0  0  0  0
  -18.5107  -31.0290   24.1631 C   0  0  0  0  0  0  0  0  0  0  0  0
  -22.9331  -26.7402   20.9128 C   0  0  0  0  0  0  0  0  0  0  0  0
  -25.1002  -26.5040   22.9111 C   0  0  0  0  0  0  0  0  0  0  0  0
  -19.5397  -30.1569   24.8778 C   0  0  0  0  0  0  0  0  0  0  0  0
  -30.4822  -17.0730   24.4900 C   0  0  0  0  0  0  0  0  0  0  0  0
  -20.9549  -30.5797   24.4966 C   0  0  0  0  0  0  0  0  0  0  0  0
  -30.3464  -15.8683   23.5559 C   0  0  0  0  0  0  0  0  0  0  0  0
  -29.2013  -17.9042   24.5335 C   0  0  0  0  0  0  0  0  0  0  0  0
  -28.5543  -17.1215   22.2889 C   0  0  0  0  0  0  0  0  0  0  0  0
  -21.1960  -30.4064   22.9921 C   0  0  1  0  0  0  0  0  0  0  0  0
  -22.6805  -26.9596   22.4013 C   0  0  1  0  0  0  0  0  0  0  0  0
  -29.8414  -16.2901   22.1621 C   0  0  2  0  0  0  0  0  0  0  0  0
  -25.5020  -20.9208   26.3478 C   0  0  0  0  0  0  0  0  0  0  0  0
  -31.8305  -25.0245   18.8819 C   0  0  0  0  0  0  0  0  0  0  0  0
  -24.3497  -27.4346   26.6848 C   0  0  0  0  0  0  0  0  0  0  0  0
  -25.4284  -25.3939   27.6545 C   0  0  0  0  0  0  0  0  0  0  0  0
  -22.9454  -25.5096   27.4445 C   0  0  0  0  0  0  0  0  0  0  0  0
  -24.9527  -21.1211   22.5883 C   0  0  0  0  0  0  0  0  0  0  0  0
  -28.0962  -19.0230   18.1883 C   0  0  0  0  0  0  0  0  0  0  0  0
  -30.1265  -26.6632   18.0121 C   0  0  0  0  0  0  0  0  0  0  0  0
  -28.6785  -27.1423   18.0352 C   0  0  0  0  0  0  0  0  0  1  0  0
  -24.3528  -25.2156   25.3649 C   0  0  1  0  0  0  0  0  0  0  0  0
  -24.9174  -21.4796   25.0599 C   0  0  2  0  0  0  0  0  0  0  0  0
  -30.3594  -25.4280   18.8879 C   0  0  1  0  0  0  0  0  0  0  0  0
  -24.2748  -25.8965   26.7605 C   0  0  0  0  0  0  0  0  0  0  0  0
  -28.4562  -14.4985   21.1860 N   0  0  0  0  0  0  0  0  0  0  0  0
  -29.6589  -15.0953   21.2449 N   0  0  0  0  0  0  0  0  0  0  0  0
  -23.6806  -26.3047   23.2469 N   0  0  0  0  0  0  0  0  0  0  0  0
  -28.7854  -18.2709   23.1779 N   0  0  0  0  0  0  0  0  0  0  0  0
  -31.8598  -14.9994   20.3746 N   0  0  0  0  0  0  0  0  0  0  0  0
  -29.7709  -11.5712   18.3057 N   0  0  0  0  0  0  0  0  0  0  0  0
  -28.2707  -19.8605   21.5134 N   0  0  0  0  0  0  0  0  0  0  0  0
  -29.5678  -24.3181   18.3997 N   0  0  0  0  0  0  0  0  0  0  0  0
  -21.4305  -29.0140   22.6750 N   0  0  0  0  0  0  0  0  0  0  0  0
  -24.2571  -23.7604   25.4038 N   0  0  0  0  0  0  0  0  0  0  0  0
  -25.4620  -20.6937   23.9168 N   0  3  0  0  0  0  0  0  0  0  0  0
  -31.7680  -12.6776   18.5205 O   0  0  0  0  0  0  0  0  0  0  0  0
  -23.7108  -28.9505   23.1426 O   0  0  0  0  0  0  0  0  0  0  0  0
  -22.0819  -25.5044   24.7435 O   0  0  0  0  0  0  0  0  0  0  0  0
  -26.2907  -23.3440   24.3704 O   0  0  0  0  0  0  0  0  0  0  0  0
  -28.8513  -20.5315   23.6569 O   0  0  0  0  0  0  0  0  0  0  0  0
  -24.4488  -10.0691   18.9793 O   0  0  0  0  0  0  0  0  0  0  0  0
  -27.3963  -20.0783   18.8438 O   0  0  0  0  0  0  0  0  0  0  0  0
  -28.3328  -27.4938   19.3744 O   0  0  0  0  0  0  0  0  0  1  0  0
  -21.3597   -8.0816   23.0917 F   0  0  0  0  0  0  0  0  0  0  0  0
  -30.4286  -24.1082   21.0214 F   0  0  0  0  0  0  0  0  0  0  0  0
  -23.0467  -11.7686   20.6492 F   0  0  0  0  0  0  0  0  0  0  0  0
  -28.0463  -22.2652   17.3526 F   0  0  0  0  0  0  0  0  0  0  0  0
  1  2  1  0  0  0  0
  1  5  2  0  0  0  0
  2  6  2  0  0  0  0
  3  8  2  0  0  0  0
  3 16  1  0  0  0  0
  4  9  1  0  0  0  0
  4 16  2  0  0  0  0
  5 18  1  0  0  0  0
  6 20  1  0  0  0  0
  7 10  2  0  0  0  0
  7 19  1  0  0  0  0
  8 24  1  0  0  0  0
  9 24  2  0  0  0  0
 10 25  1  0  0  0  0
 11 12  2  0  0  0  0
 11 26  1  0  0  0  0
 12 28  1  0  0  0  0
 13 21  1  0  0  0  0
 13 25  2  0  0  0  0
 14 22  1  0  0  0  0
 14 29  2  0  0  0  0
 15 28  2  0  0  0  0
 15 30  1  0  0  0  0
 16 32  1  0  0  0  0
 17 32  1  0  0  0  0
 17 33  2  0  0  0  0
 17 34  1  0  0  0  0
 18 20  2  0  0  0  0
 18 39  1  0  0  0  0
 19 21  2  0  0  0  0
 19 40  1  0  0  0  0
 20 48  1  0  0  0  0
 21 41  1  0  0  0  0
 22 27  2  0  0  0  0
 22 70  1  0  0  0  0
 23 29  1  0  0  0  0
 23 31  2  0  0  0  0
 23 71  1  0  0  0  0
 24 80  1  0  0  0  0
 25 82  1  0  0  0  0
 26 30  2  0  0  0  0
 26 80  1  0  0  0  0
 27 31  1  0  0  0  0
 27 81  1  0  0  0  0
 28 83  1  0  0  0  0
 29 84  1  0  0  0  0
 30 85  1  0  0  0  0
 31 86  1  0  0  0  0
 32 64  2  0  0  0  0
 33 65  1  0  0  0  0
 33 68  1  0  0  0  0
 34 69  1  0  0  0  0
 34 75  2  0  0  0  0
 35 49  1  0  0  0  0
 35 72  1  0  0  0  0
 35 76  2  0  0  0  0
 36 60  1  0  0  0  0
 36 66  1  0  0  0  0
 36 77  2  0  0  0  0
 37 61  1  0  0  0  0
 37 73  1  0  0  0  0
 37 78  2  0  0  0  0
 38 67  1  0  0  0  0
 38 70  1  0  0  0  0
 38 79  2  0  0  0  0
 39 42  1  0  0  0  0
 40 49  1  0  0  0  0
 41 66  1  0  0  0  0
 42 44  1  0  0  0  0
 43 45  1  0  0  0  0
 43 46  1  0  0  0  0
 44 48  1  0  0  0  0
 45 50  1  0  0  0  0
 46 67  1  0  0  0  0
 47 50  1  0  0  0  0
 47 67  1  0  0  0  0
 48 72  1  0  0  0  0
 49 66  1  0  0  0  0
 50 65  1  0  0  0  0
 51 61  1  0  0  0  0
 52 62  1  0  0  0  0
 53 63  1  0  0  0  0
 54 63  1  0  0  0  0
 55 63  1  0  0  0  0
 56 74  1  0  0  0  0
 57 81  1  0  0  0  0
 58 59  1  0  0  0  0
 58 62  1  0  0  0  0
 59 82  1  0  0  0  0
 60 63  1  0  0  0  0
 60 73  1  0  0  0  0
 61 74  1  0  0  0  0
 62 71  1  0  0  0  0
 64 65  1  0  0  0  0
M  CHG  1  74   1
M  ISO  4  38 100  59 101  70 100  82 101
M  END
> <Batch ID>
0011

> <Smiles>
CNC(C)C(=O)NC(C(=O)N1Cc2cc([101O:1][101CH2:1]CC(C)Nc3c(F)cc([100NH:0][100C:0](=O)N4CCCC(n5nc(-c6ccc(Oc7ccc(F)cc7F)cc6)c(C(N)=O)c5N)C4)c(OC)c3F)ccc2CC1C(=O)NC1CCCc2ccccc21)C(C)(C)C

> <Shape>
0.256

> <Color>
0.079

> <Negative vol penalty>
0.000

$$$$

  -OEChem-04052315443D

 82 90  0     1  0  0  0  0  0999 V2000
  -29.4672  -33.9674   26.0575 C   0  0  0  0  0  0  0  0  0  0  0  0
  -29.6188  -32.8719   25.2135 C   0  0  0  0  0  0  0  0  0  0  0  0
  -24.6252   -9.0147   21.3673 C   0  0  0  0  0  0  0  0  0  0  0  0
  -23.3766  -10.8879   22.2444 C   0  0  0  0  0  0  0  0  0  0  0  0
  -28.2412  -34.2032   26.6783 C   0  0  0  0  0  0  0  0  0  0  0  0
  -28.5449  -32.0108   24.9908 C   0  0  0  0  0  0  0  0  0  0  0  0
  -27.2104  -29.0574   19.7944 C   0  0  0  0  0  0  0  0  0  0  0  0
  -27.8372  -20.4031   20.0854 C   0  0  0  0  0  0  0  0  0  0  0  0
  -28.2619  -19.0861   20.2607 C   0  0  0  0  0  0  0  0  0  0  0  0
  -24.0847   -8.1918   22.3553 C   0  0  0  0  0  0  0  0  0  0  0  0
  -22.8361  -10.0649   23.2324 C   0  0  0  0  0  0  0  0  0  0  0  0
  -27.4532  -27.7523   19.3684 C   0  0  0  0  0  0  0  0  0  0  0  0
  -21.1762   -6.5642   22.9251 C   0  0  0  0  0  0  0  0  0  0  0  0
  -20.7078   -5.3086   22.5382 C   0  0  0  0  0  0  0  0  0  0  0  0
  -25.2408  -27.1127   20.0866 C   0  0  0  0  0  0  0  0  0  0  0  0
  -25.8207  -19.9178   21.3245 C   0  0  0  0  0  0  0  0  0  0  0  0
  -22.2843   -4.2583   24.0377 C   0  0  0  0  0  0  0  0  0  0  0  0
  -24.2712  -10.3628   21.3118 C   0  0  0  0  0  0  0  0  0  0  0  0
  -24.3028  -11.4627   19.0103 C   0  0  0  0  0  0  0  0  0  0  0  0
  -27.1489  -33.3500   26.4555 C   0  0  0  0  0  0  0  0  0  0  0  0
  -25.9829  -29.3980   20.3807 C   0  0  0  0  0  0  0  0  0  0  0  0
  -27.3036  -32.2346   25.6103 C   0  0  0  0  0  0  0  0  0  0  0  0
  -24.9840  -28.4234   20.5169 C   0  0  0  0  0  0  0  0  0  0  0  0
  -26.6166  -20.8190   20.6174 C   0  0  0  0  0  0  0  0  0  0  0  0
  -27.4660  -18.1849   20.9679 C   0  0  0  0  0  0  0  0  0  0  0  0
  -23.1901   -8.7168   23.2878 C   0  0  0  0  0  0  0  0  0  0  0  0
  -26.4694  -26.7790   19.5171 C   0  0  0  0  0  0  0  0  0  0  0  0
  -22.1988   -6.6668   23.8683 C   0  0  0  0  0  0  0  0  0  0  0  0
  -21.2617   -4.1557   23.0945 C   0  0  0  0  0  0  0  0  0  0  0  0
  -26.2454  -18.6007   21.4998 C   0  0  0  0  0  0  0  0  0  0  0  0
  -22.7528   -5.5139   24.4246 C   0  0  0  0  0  0  0  0  0  0  0  0
  -24.8296  -11.2135   20.2918 C   0  0  0  0  0  0  0  0  0  0  0  0
  -25.1979  -12.3304   18.4338 C   0  0  0  0  0  0  0  0  0  0  0  0
  -23.1108  -10.9552   18.3960 C   0  0  0  0  0  0  0  0  0  0  0  0
  -25.0829  -30.4916   23.2264 C   0  0  0  0  0  0  0  0  0  0  0  0
  -22.1752  -30.6797   21.8008 C   0  0  0  0  0  0  0  0  0  0  0  0
  -26.8471  -23.1760   19.7659 C   0  0  0  0  0  0  0  0  0  0  0  0
  -20.0783  -29.5848   19.3409 C   0  0  0  0  0  0  0  0  0  0  0  0
  -29.0837  -16.2754   20.6792 C   0  0  0  0  0  0  0  0  0  0  0  0
  -25.8571  -33.6187   27.1860 C   0  0  0  0  0  0  0  0  0  0  0  0
  -25.7269  -30.8165   20.8106 C   0  0  0  0  0  0  0  0  0  0  0  0
  -23.6420  -28.7425   21.1214 C   0  0  0  0  0  0  0  0  0  0  0  0
  -24.6608  -32.8708   26.6031 C   0  0  0  0  0  0  0  0  0  0  0  0
  -29.8307  -13.5400   18.5259 C   0  0  0  0  0  0  0  0  0  0  0  0
  -25.0179  -31.4102   26.3463 C   0  0  0  0  0  0  0  0  0  0  0  0
  -28.5825  -12.6587   18.6130 C   0  0  0  0  0  0  0  0  0  0  0  0
  -30.1620  -14.1884   19.8688 C   0  0  0  0  0  0  0  0  0  0  0  0
  -27.8074  -14.0446   20.5791 C   0  0  0  0  0  0  0  0  0  0  0  0
  -26.1549  -31.2918   25.3243 C   0  0  1  0  0  0  0  0  0  0  0  0
  -24.6291  -30.9327   21.8636 C   0  0  1  0  0  0  0  0  0  0  0  0
  -27.3964  -13.4214   19.2351 C   0  0  2  0  0  0  0  0  0  0  0  0
  -17.7523  -29.8963   18.4521 C   0  0  0  0  0  0  0  0  0  0  0  0
  -21.0714  -29.0300   24.1181 C   0  0  0  0  0  0  0  0  0  0  0  0
  -19.0360  -28.5747   22.7331 C   0  0  0  0  0  0  0  0  0  0  0  0
  -19.6003  -30.9152   23.3859 C   0  0  0  0  0  0  0  0  0  0  0  0
  -21.0811  -30.5085   16.7141 C   0  0  0  0  0  0  0  0  0  0  0  0
  -26.0374  -24.4587   19.8089 C   0  0  0  0  0  0  0  0  0  1  0  0
  -21.0019  -29.7439   21.6379 C   0  0  1  0  0  0  0  0  0  0  0  0
  -19.2045  -30.3371   18.3535 C   0  0  2  0  0  0  0  0  0  0  0  0
  -20.2033  -29.5592   22.9591 C   0  0  0  0  0  0  0  0  0  0  0  0
  -25.9711  -11.8698   20.5165 N   0  0  0  0  0  0  0  0  0  0  0  0
  -26.1688  -12.5398   19.3684 N   0  0  0  0  0  0  0  0  0  0  0  0
  -23.4420  -30.1421   21.5322 N   0  0  0  0  0  0  0  0  0  0  0  0
  -28.9930  -14.8963   20.3953 N   0  0  0  0  0  0  0  0  0  0  0  0
  -25.2413  -12.9269   17.2236 N   0  0  0  0  0  0  0  0  0  0  0  0
  -22.3047  -10.0736   19.1291 N   0  0  0  0  0  0  0  0  0  0  0  0
  -26.1853  -22.1549   20.4391 N   0  0  0  0  0  0  0  0  0  0  0  0
  -27.8999  -16.8475   21.1438 N   0  0  0  0  0  0  0  0  0  0  0  0
  -25.6524  -31.4980   23.9829 N   0  0  0  0  0  0  0  0  0  0  0  0
  -20.2112  -30.2696   20.5303 N   0  0  0  0  0  0  0  0  0  0  0  0
  -19.6744  -30.0985   16.9595 N   0  3  0  0  0  0  0  0  0  0  0  0
  -22.7792  -11.2612   17.2256 O   0  0  0  0  0  0  0  0  0  0  0  0
  -24.9266  -29.3248   23.5669 O   0  0  0  0  0  0  0  0  0  0  0  0
  -21.9746  -31.8467   22.1465 O   0  0  0  0  0  0  0  0  0  0  0  0
  -27.9319  -23.1198   19.1960 O   0  0  0  0  0  0  0  0  0  0  0  0
  -20.5887  -28.4966   19.0842 O   0  0  0  0  0  0  0  0  0  0  0  0
  -30.1266  -16.9085   20.4960 O   0  0  0  0  0  0  0  0  0  0  0  0
  -22.6623   -7.9141   24.2519 O   0  0  0  0  0  0  0  0  0  0  0  0
  -26.7040  -25.5042   19.1027 O   0  0  0  0  0  0  0  0  0  1  0  0
  -20.8107   -2.9501   22.7240 F   0  0  0  0  0  0  0  0  0  0  0  0
  -25.4715  -17.7428   22.1800 F   0  0  0  0  0  0  0  0  0  0  0  0
  -23.7346   -5.6062   25.3320 F   0  0  0  0  0  0  0  0  0  0  0  0
  1  2  1  0  0  0  0
  1  5  2  0  0  0  0
  2  6  2  0  0  0  0
  3 10  2  0  0  0  0
  3 18  1  0  0  0  0
  4 11  1  0  0  0  0
  4 18  2  0  0  0  0
  5 20  1  0  0  0  0
  6 22  1  0  0  0  0
  7 12  2  0  0  0  0
  7 21  1  0  0  0  0
  8  9  2  0  0  0  0
  8 24  1  0  0  0  0
  9 25  1  0  0  0  0
 10 26  1  0  0  0  0
 11 26  2  0  0  0  0
 12 27  1  0  0  0  0
 13 14  2  0  0  0  0
 13 28  1  0  0  0  0
 14 29  1  0  0  0  0
 15 23  1  0  0  0  0
 15 27  2  0  0  0  0
 16 24  2  0  0  0  0
 16 30  1  0  0  0  0
 17 29  2  0  0  0  0
 17 31  1  0  0  0  0
 18 32  1  0  0  0  0
 19 32  1  0  0  0  0
 19 33  2  0  0  0  0
 19 34  1  0  0  0  0
 20 22  2  0  0  0  0
 20 40  1  0  0  0  0
 21 23  2  0  0  0  0
 21 41  1  0  0  0  0
 22 49  1  0  0  0  0
 23 42  1  0  0  0  0
 24 67  1  0  0  0  0
 25 30  2  0  0  0  0
 25 68  1  0  0  0  0
 26 78  1  0  0  0  0
 27 79  1  0  0  0  0
 28 31  2  0  0  0  0
 28 78  1  0  0  0  0
 29 80  1  0  0  0  0
 30 81  1  0  0  0  0
 31 82  1  0  0  0  0
 32 61  2  0  0  0  0
 33 62  1  0  0  0  0
 33 65  1  0  0  0  0
 34 66  1  0  0  0  0
 34 72  2  0  0  0  0
 35 50  1  0  0  0  0
 35 69  1  0  0  0  0
 35 73  2  0  0  0  0
 36 58  1  0  0  0  0
 36 63  1  0  0  0  0
 36 74  2  0  0  0  0
 37 57  1  0  0  0  0
 37 67  1  0  0  0  0
 37 75  2  0  0  0  0
 38 59  1  0  0  0  0
 38 70  1  0  0  0  0
 38 76  2  0  0  0  0
 39 64  1  0  0  0  0
 39 68  1  0  0  0  0
 39 77  2  0  0  0  0
 40 43  1  0  0  0  0
 41 50  1  0  0  0  0
 42 63  1  0  0  0  0
 43 45  1  0  0  0  0
 44 46  1  0  0  0  0
 44 47  1  0  0  0  0
 45 49  1  0  0  0  0
 46 51  1  0  0  0  0
 47 64  1  0  0  0  0
 48 51  1  0  0  0  0
 48 64  1  0  0  0  0
 49 69  1  0  0  0  0
 50 63  1  0  0  0  0
 51 62  1  0  0  0  0
 52 59  1  0  0  0  0
 53 60  1  0  0  0  0
 54 60  1  0  0  0  0
 55 60  1  0  0  0  0
 56 71  1  0  0  0  0
 57 79  1  0  0  0  0
 58 60  1  0  0  0  0
 58 70  1  0  0  0  0
 59 71  1  0  0  0  0
 61 62  1  0  0  0  0
M  CHG  1  71   1
M  ISO  4  39 100  57 101  68 100  79 101
M  END
> <Batch ID>
0011

> <Smiles>
CNC(C)C(=O)NC(C(=O)N1Cc2cc([101O:1][101CH2:1]C(=O)Nc3ccc([100NH:0][100C:0](=O)N4CCCC(n5nc(-c6ccc(Oc7ccc(F)cc7F)cc6)c(C(N)=O)c5N)C4)c(F)c3)ccc2CC1C(=O)NC1CCCc2ccccc21)C(C)(C)C

> <Shape>
0.309

> <Color>
0.101

> <Negative vol penalty>
0.000

$$$$

  -OEChem-04052315443D

 83 91  0     1  0  0  0  0  0999 V2000
  -28.0667  -31.6684   28.1077 C   0  0  0  0  0  0  0  0  0  0  0  0
  -28.2617  -30.7530   27.0784 C   0  0  0  0  0  0  0  0  0  0  0  0
  -24.3972   -9.0445   21.4349 C   0  0  0  0  0  0  0  0  0  0  0  0
  -23.9346  -10.8276   22.9982 C   0  0  0  0  0  0  0  0  0  0  0  0
  -26.7779  -32.0965   28.4233 C   0  0  0  0  0  0  0  0  0  0  0  0
  -27.1679  -30.2643   26.3648 C   0  0  0  0  0  0  0  0  0  0  0  0
  -27.0031  -28.8122   20.4175 C   0  0  0  0  0  0  0  0  0  0  0  0
  -23.8859   -8.1165   22.3421 C   0  0  0  0  0  0  0  0  0  0  0  0
  -23.4232   -9.8995   23.9053 C   0  0  0  0  0  0  0  0  0  0  0  0
  -27.1092  -27.5951   19.7459 C   0  0  0  0  0  0  0  0  0  0  0  0
  -22.3706   -5.3192   24.1010 C   0  0  0  0  0  0  0  0  0  0  0  0
  -21.5063   -4.3407   23.6100 C   0  0  0  0  0  0  0  0  0  0  0  0
  -24.7035  -27.4371   19.6646 C   0  0  0  0  0  0  0  0  0  0  0  0
  -29.3845  -19.2371   19.4764 C   0  0  0  0  0  0  0  0  0  0  0  0
  -26.9720  -20.4832   18.8363 C   0  0  0  0  0  0  0  0  0  0  0  0
  -19.9809   -6.0608   22.8673 C   0  0  0  0  0  0  0  0  0  0  0  0
  -24.4216  -10.4000   21.7630 C   0  0  0  0  0  0  0  0  0  0  0  0
  -24.2407  -12.0515   19.8271 C   0  0  0  0  0  0  0  0  0  0  0  0
  -25.6686  -31.6201   27.7069 C   0  0  0  0  0  0  0  0  0  0  0  0
  -25.7443  -29.3465   20.7280 C   0  0  0  0  0  0  0  0  0  0  0  0
  -25.8629  -30.6854   26.6721 C   0  0  0  0  0  0  0  0  0  0  0  0
  -24.5841  -28.6624   20.3380 C   0  0  0  0  0  0  0  0  0  0  0  0
  -28.2670  -18.4681   19.1518 C   0  0  0  0  0  0  0  0  0  0  0  0
  -28.0896  -21.2522   19.1610 C   0  0  0  0  0  0  0  0  0  0  0  0
  -23.3989   -8.5440   23.5773 C   0  0  0  0  0  0  0  0  0  0  0  0
  -25.9594  -26.9059   19.3719 C   0  0  0  0  0  0  0  0  0  0  0  0
  -22.0401   -6.6685   23.9753 C   0  0  0  0  0  0  0  0  0  0  0  0
  -20.3115   -4.7115   22.9931 C   0  0  0  0  0  0  0  0  0  0  0  0
  -29.2958  -20.6292   19.4811 C   0  0  0  0  0  0  0  0  0  0  0  0
  -20.8453   -7.0393   23.3584 C   0  0  0  0  0  0  0  0  0  0  0  0
  -27.0608  -19.0912   18.8317 C   0  0  0  0  0  0  0  0  0  0  0  0
  -24.9503  -11.3591   20.8266 C   0  0  0  0  0  0  0  0  0  0  0  0
  -25.1875  -12.8354   19.2144 C   0  0  0  0  0  0  0  0  0  0  0  0
  -22.8501  -11.9914   19.4833 C   0  0  0  0  0  0  0  0  0  0  0  0
  -24.2190  -30.0764   23.4195 C   0  0  0  0  0  0  0  0  0  0  0  0
  -22.0097  -31.2924   21.3792 C   0  0  0  0  0  0  0  0  0  0  0  0
  -26.8803  -23.4407   18.8743 C   0  0  0  0  0  0  0  0  0  0  0  0
  -20.6310  -31.2781   18.2574 C   0  0  0  0  0  0  0  0  0  0  0  0
  -29.5315  -16.3104   19.4545 C   0  0  0  0  0  0  0  0  0  0  0  0
  -24.2902  -32.0759   28.1157 C   0  0  0  0  0  0  0  0  0  0  0  0
  -25.6467  -30.6735   21.4293 C   0  0  0  0  0  0  0  0  0  0  0  0
  -23.2089  -29.2030   20.6296 C   0  0  0  0  0  0  0  0  0  0  0  0
  -23.2192  -31.7951   27.0648 C   0  0  0  0  0  0  0  0  0  0  0  0
  -30.2336  -12.8234   19.6128 C   0  0  0  0  0  0  0  0  0  0  0  0
  -23.3474  -30.3686   26.5399 C   0  0  0  0  0  0  0  0  0  0  0  0
  -28.8633  -12.1885   19.8605 C   0  0  0  0  0  0  0  0  0  0  0  0
  -30.3835  -14.1539   20.3483 C   0  0  0  0  0  0  0  0  0  0  0  0
  -27.9433  -14.4925   20.3425 C   0  0  0  0  0  0  0  0  0  0  0  0
  -24.7040  -30.1512   25.8588 C   0  0  1  0  0  0  0  0  0  0  0  0
  -24.3164  -30.8726   22.1490 C   0  0  1  0  0  0  0  0  0  0  0  0
  -27.7212  -13.1819   19.5701 C   0  0  2  0  0  0  0  0  0  0  0  0
  -18.8152  -32.3552   16.9009 C   0  0  0  0  0  0  0  0  0  0  0  0
  -19.9282  -29.5824   22.8122 C   0  0  0  0  0  0  0  0  0  0  0  0
  -18.3901  -29.9522   20.8716 C   0  0  0  0  0  0  0  0  0  0  0  0
  -19.1629  -31.8925   22.2358 C   0  0  0  0  0  0  0  0  0  0  0  0
  -22.5754  -32.3870   16.3213 C   0  0  0  0  0  0  0  0  0  0  0  0
  -27.2083  -24.9172   18.9958 C   0  0  0  0  0  0  0  0  0  1  0  0
  -20.7901  -30.7479   20.6756 C   0  0  1  0  0  0  0  0  0  0  0  0
  -20.2801  -32.4078   17.3060 C   0  0  2  0  0  0  0  0  0  0  0  0
  -19.5936  -30.5323   21.6449 C   0  0  0  0  0  0  0  0  0  0  0  0
  -26.2477  -11.6752   20.8507 N   0  0  0  0  0  0  0  0  0  0  0  0
  -26.3610  -12.5749   19.8588 N   0  0  0  0  0  0  0  0  0  0  0  0
  -23.1657  -30.5010   21.3230 N   0  0  0  0  0  0  0  0  0  0  0  0
  -29.2685  -15.0454   20.0215 N   0  0  0  0  0  0  0  0  0  0  0  0
  -25.1225  -13.7153   18.1926 N   0  0  0  0  0  0  0  0  0  0  0  0
  -22.0175  -11.1333   20.2146 N   0  0  0  0  0  0  0  0  0  0  0  0
  -27.9968  -22.6643   19.1653 N   0  0  0  0  0  0  0  0  0  0  0  0
  -28.3920  -17.0567   19.1561 N   0  0  0  0  0  0  0  0  0  0  0  0
  -24.7035  -30.7340   24.5341 N   0  0  0  0  0  0  0  0  0  0  0  0
  -20.5103  -31.6643   19.5755 N   0  0  0  0  0  0  0  0  0  0  0  0
  -21.1121  -32.3236   16.0725 N   0  3  0  0  0  0  0  0  0  0  0  0
  -22.3634  -12.6661   18.5445 O   0  0  0  0  0  0  0  0  0  0  0  0
  -23.7384  -28.9495   23.3910 O   0  0  0  0  0  0  0  0  0  0  0  0
  -21.9412  -32.3831   21.9513 O   0  0  0  0  0  0  0  0  0  0  0  0
  -25.7597  -23.0554   18.5574 O   0  0  0  0  0  0  0  0  0  0  0  0
  -20.9740  -30.1633   17.8699 O   0  0  0  0  0  0  0  0  0  0  0  0
  -30.6819  -16.6916   19.2238 O   0  0  0  0  0  0  0  0  0  0  0  0
  -22.8996   -7.6388   24.4626 O   0  0  0  0  0  0  0  0  0  0  0  0
  -26.0601  -25.7174   18.7168 O   0  0  0  0  0  0  0  0  0  1  0  0
  -19.4823   -3.7718   22.5203 F   0  0  0  0  0  0  0  0  0  0  0  0
  -30.3763  -21.3584   19.7948 F   0  0  0  0  0  0  0  0  0  0  0  0
  -20.5229   -8.3340   23.2336 F   0  0  0  0  0  0  0  0  0  0  0  0
  -25.6525  -18.1766   18.4248 Cl  0  0  0  0  0  0  0  0  0  0  0  0
  1  2  1  0  0  0  0
  1  5  2  0  0  0  0
  2  6  2  0  0  0  0
  3  8  2  0  0  0  0
  3 17  1  0  0  0  0
  4  9  1  0  0  0  0
  4 17  2  0  0  0  0
  5 19  1  0  0  0  0
  6 21  1  0  0  0  0
  7 10  2  0  0  0  0
  7 20  1  0  0  0  0
  8 25  1  0  0  0  0
  9 25  2  0  0  0  0
 10 26  1  0  0  0  0
 11 12  2  0  0  0  0
 11 27  1  0  0  0  0
 12 28  1  0  0  0  0
 13 22  1  0  0  0  0
 13 26  2  0  0  0  0
 14 23  2  0  0  0  0
 14 29  1  0  0  0  0
 15 24  1  0  0  0  0
 15 31  2  0  0  0  0
 16 28  2  0  0  0  0
 16 30  1  0  0  0  0
 17 32  1  0  0  0  0
 18 32  1  0  0  0  0
 18 33  2  0  0  0  0
 18 34  1  0  0  0  0
 19 21  2  0  0  0  0
 19 40  1  0  0  0  0
 20 22  2  0  0  0  0
 20 41  1  0  0  0  0
 21 49  1  0  0  0  0
 22 42  1  0  0  0  0
 23 31  1  0  0  0  0
 23 68  1  0  0  0  0
 24 29  2  0  0  0  0
 24 67  1  0  0  0  0
 25 78  1  0  0  0  0
 26 79  1  0  0  0  0
 27 30  2  0  0  0  0
 27 78  1  0  0  0  0
 28 80  1  0  0  0  0
 29 81  1  0  0  0  0
 30 82  1  0  0  0  0
 31 83  1  0  0  0  0
 32 61  2  0  0  0  0
 33 62  1  0  0  0  0
 33 65  1  0  0  0  0
 34 66  1  0  0  0  0
 34 72  2  0  0  0  0
 35 50  1  0  0  0  0
 35 69  1  0  0  0  0
 35 73  2  0  0  0  0
 36 58  1  0  0  0  0
 36 63  1  0  0  0  0
 36 74  2  0  0  0  0
 37 57  1  0  0  0  0
 37 67  1  0  0  0  0
 37 75  2  0  0  0  0
 38 59  1  0  0  0  0
 38 70  1  0  0  0  0
 38 76  2  0  0  0  0
 39 64  1  0  0  0  0
 39 68  1  0  0  0  0
 39 77  2  0  0  0  0
 40 43  1  0  0  0  0
 41 50  1  0  0  0  0
 42 63  1  0  0  0  0
 43 45  1  0  0  0  0
 44 46  1  0  0  0  0
 44 47  1  0  0  0  0
 45 49  1  0  0  0  0
 46 51  1  0  0  0  0
 47 64  1  0  0  0  0
 48 51  1  0  0  0  0
 48 64  1  0  0  0  0
 49 69  1  0  0  0  0
 50 63  1  0  0  0  0
 51 62  1  0  0  0  0
 52 59  1  0  0  0  0
 53 60  1  0  0  0  0
 54 60  1  0  0  0  0
 55 60  1  0  0  0  0
 56 71  1  0  0  0  0
 57 79  1  0  0  0  0
 58 60  1  0  0  0  0
 58 70  1  0  0  0  0
 59 71  1  0  0  0  0
 61 62  1  0  0  0  0
M  CHG  1  71   1
M  ISO  4  39 100  57 101  68 100  79 101
M  END
> <Batch ID>
0011

> <Smiles>
CNC(C)C(=O)NC(C(=O)N1Cc2cc([101O:1][101CH2:1]C(=O)Nc3cc(Cl)c([100NH:0][100C:0](=O)N4CCCC(n5nc(-c6ccc(Oc7ccc(F)cc7F)cc6)c(C(N)=O)c5N)C4)cc3F)ccc2CC1C(=O)NC1CCCc2ccccc21)C(C)(C)C

> <Shape>
0.284

> <Color>
0.106

> <Negative vol penalty>
0.000

$$$$

  -OEChem-04052315443D

 84 92  0     1  0  0  0  0  0999 V2000
  -22.7999  -12.0980   17.7833 C   0  0  0  0  0  0  0  0  0  0  0  0
  -22.4729  -13.4389   17.9583 C   0  0  0  0  0  0  0  0  0  0  0  0
  -29.9997  -27.5972   18.4193 C   0  0  0  0  0  0  0  0  0  0  0  0
  -30.0298  -26.8703   20.7232 C   0  0  0  0  0  0  0  0  0  0  0  0
  -23.7251  -11.4909   18.6315 C   0  0  0  0  0  0  0  0  0  0  0  0
  -23.0700  -14.1731   18.9824 C   0  0  0  0  0  0  0  0  0  0  0  0
  -24.6100  -20.0990   18.8484 C   0  0  0  0  0  0  0  0  0  0  0  0
  -31.3924  -27.5312   18.3803 C   0  0  0  0  0  0  0  0  0  0  0  0
  -31.4225  -26.8042   20.6841 C   0  0  0  0  0  0  0  0  0  0  0  0
  -23.9777  -21.2437   19.3319 C   0  0  0  0  0  0  0  0  0  0  0  0
  -34.9201  -27.2068   17.5646 C   0  0  0  0  0  0  0  0  0  0  0  0
  -35.5099  -26.6084   16.4512 C   0  0  0  0  0  0  0  0  0  0  0  0
  -25.3151  -21.1286   21.3362 C   0  0  0  0  0  0  0  0  0  0  0  0
  -19.5029  -28.8455   22.2840 C   0  0  0  0  0  0  0  0  0  0  0  0
  -19.1354  -26.1132   22.7103 C   0  0  0  0  0  0  0  0  0  0  0  0
  -34.3562  -24.5449   16.9489 C   0  0  0  0  0  0  0  0  0  0  0  0
  -29.3183  -27.2668   19.5908 C   0  0  0  0  0  0  0  0  0  0  0  0
  -26.9703  -26.3072   19.3197 C   0  0  0  0  0  0  0  0  0  0  0  0
  -24.3411  -12.2207   19.6605 C   0  0  0  0  0  0  0  0  0  0  0  0
  -25.5936  -19.4532   19.6112 C   0  0  0  0  0  0  0  0  0  0  0  0
  -24.0033  -13.5749   19.8460 C   0  0  0  0  0  0  0  0  0  0  0  0
  -25.9603  -19.9774   20.8590 C   0  0  0  0  0  0  0  0  0  0  0  0
  -20.5937  -28.0363   22.6015 C   0  0  0  0  0  0  0  0  0  0  0  0
  -20.4100  -26.6701   22.8146 C   0  0  0  0  0  0  0  0  0  0  0  0
  -32.1038  -27.1347   19.5126 C   0  0  0  0  0  0  0  0  0  0  0  0
  -24.3281  -21.7570   20.5772 C   0  0  0  0  0  0  0  0  0  0  0  0
  -34.0483  -26.4742   18.3702 C   0  0  0  0  0  0  0  0  0  0  0  0
  -35.2280  -25.2775   16.1434 C   0  0  0  0  0  0  0  0  0  0  0  0
  -18.2283  -28.2886   22.1797 C   0  0  0  0  0  0  0  0  0  0  0  0
  -18.0445  -26.9224   22.3929 C   0  0  0  0  0  0  0  0  0  0  0  0
  -33.7663  -25.1432   18.0624 C   0  0  0  0  0  0  0  0  0  0  0  0
  -27.8797  -27.3354   19.6320 C   0  0  0  0  0  0  0  0  0  0  0  0
  -25.7335  -26.8716   19.5148 C   0  0  0  0  0  0  0  0  0  0  0  0
  -27.2212  -24.9620   18.8915 C   0  0  0  0  0  0  0  0  0  0  0  0
  -25.8876  -16.5686   20.9136 C   0  0  0  0  0  0  0  0  0  0  0  0
  -28.8741  -17.6196   21.6197 C   0  0  0  0  0  0  0  0  0  0  0  0
  -30.9624  -20.2640   22.1605 C   0  0  0  0  0  0  0  0  0  0  0  0
  -22.2106  -29.9664   22.5173 C   0  0  0  0  0  0  0  0  0  0  0  0
  -25.2997  -11.5088   20.5818 C   0  0  0  0  0  0  0  0  0  0  0  0
  -26.2852  -18.2348   19.0639 C   0  0  0  0  0  0  0  0  0  0  0  0
  -27.0244  -19.3332   21.7081 C   0  0  0  0  0  0  0  0  0  0  0  0
  -26.1673  -12.4553   21.4075 C   0  0  0  0  0  0  0  0  0  0  0  0
  -24.3989  -31.6907   20.3003 C   0  0  0  0  0  0  0  0  0  0  0  0
  -25.3157  -13.5632   22.0192 C   0  0  0  0  0  0  0  0  0  0  0  0
  -25.4247  -30.6268   19.9031 C   0  0  0  0  0  0  0  0  0  0  0  0
  -23.9706  -31.5487   21.7598 C   0  0  0  0  0  0  0  0  0  0  0  0
  -24.5228  -29.1478   21.7433 C   0  0  0  0  0  0  0  0  0  0  0  0
  -24.6482  -14.4112   20.9299 C   0  0  1  0  0  0  0  0  0  0  0  0
  -26.9087  -17.3633   20.1497 C   0  0  1  0  0  0  0  0  0  0  0  0
  -24.9359  -29.2102   20.2637 C   0  0  2  0  0  0  0  0  0  0  0  0
  -33.3389  -20.8078   22.7555 C   0  0  0  0  0  0  0  0  0  0  0  0
  -28.3161  -16.8690   24.5241 C   0  0  0  0  0  0  0  0  0  0  0  0
  -30.2781  -18.2739   25.1912 C   0  0  0  0  0  0  0  0  0  0  0  0
  -30.6114  -16.2880   23.7189 C   0  0  0  0  0  0  0  0  0  0  0  0
  -21.8615  -25.6202   24.5324 C   0  0  0  0  0  0  0  0  0  0  0  0
  -31.3903  -21.7126   19.6154 C   0  0  0  0  0  0  0  0  0  0  0  0
  -21.6244  -23.8287   21.7509 C   0  0  0  0  0  0  0  0  0  0  0  0
  -22.2556  -25.1697   22.1054 C   0  0  0  0  0  0  0  0  0  0  0  0
  -22.3653  -23.0984   20.6370 C   0  0  0  0  0  0  0  0  0  1  0  0
  -29.5022  -18.3560   22.7782 C   0  0  1  0  0  0  0  0  0  0  0  0
  -32.3474  -20.5797   21.6252 C   0  0  2  0  0  0  0  0  0  0  0  0
  -29.6555  -17.4580   24.0382 C   0  0  0  0  0  0  0  0  0  0  0  0
  -27.2723  -28.4674   19.9976 N   0  0  0  0  0  0  0  0  0  0  0  0
  -25.9681  -28.1538   19.9162 N   0  0  0  0  0  0  0  0  0  0  0  0
  -27.6671  -18.1404   21.1321 N   0  0  0  0  0  0  0  0  0  0  0  0
  -23.5158  -30.1824   22.0268 N   0  0  0  0  0  0  0  0  0  0  0  0
  -24.4790  -26.3913   19.3804 N   0  0  0  0  0  0  0  0  0  0  0  0
  -28.5510  -24.5455   18.7420 N   0  0  0  0  0  0  0  0  0  0  0  0
  -21.8789  -28.6246   22.7022 N   0  0  0  0  0  0  0  0  0  0  0  0
  -25.6006  -15.3374   20.3558 N   0  0  0  0  0  0  0  0  0  0  0  0
  -30.7583  -18.9056   22.2798 N   0  0  0  0  0  0  0  0  0  0  0  0
  -21.4928  -25.8376   23.1323 N   0  0  3  0  0  0  0  0  0  0  0  0
  -32.3087  -21.8061   20.7793 N   0  3  0  0  0  0  0  0  0  0  0  0
  -26.2934  -24.1584   18.6330 O   0  0  0  0  0  0  0  0  0  0  0  0
  -25.3975  -17.0372   21.9344 O   0  0  0  0  0  0  0  0  0  0  0  0
  -29.4373  -16.6232   21.1597 O   0  0  0  0  0  0  0  0  0  0  0  0
  -30.1448  -21.1355   22.4480 O   0  0  0  0  0  0  0  0  0  0  0  0
  -21.4342  -30.9013   22.7298 O   0  0  0  0  0  0  0  0  0  0  0  0
  -33.4628  -27.0699   19.4748 O   0  0  0  0  0  0  0  0  0  0  0  0
  -23.7121  -22.8737   21.0517 O   0  0  0  0  0  0  0  0  0  1  0  0
  -35.7933  -24.7035   15.0733 F   0  0  0  0  0  0  0  0  0  0  0  0
  -17.1803  -29.0650   21.8747 F   0  0  0  0  0  0  0  0  0  0  0  0
  -16.8207  -26.3878   22.2893 F   0  0  0  0  0  0  0  0  0  0  0  0
  -32.9287  -24.4347   18.8319 F   0  0  0  0  0  0  0  0  0  0  0  0
  1  2  1  0  0  0  0
  1  5  2  0  0  0  0
  2  6  2  0  0  0  0
  3  8  2  0  0  0  0
  3 17  1  0  0  0  0
  4  9  1  0  0  0  0
  4 17  2  0  0  0  0
  5 19  1  0  0  0  0
  6 21  1  0  0  0  0
  7 10  2  0  0  0  0
  7 20  1  0  0  0  0
  8 25  1  0  0  0  0
  9 25  2  0  0  0  0
 10 26  1  0  0  0  0
 11 12  2  0  0  0  0
 11 27  1  0  0  0  0
 12 28  1  0  0  0  0
 13 22  1  0  0  0  0
 13 26  2  0  0  0  0
 14 23  1  0  0  0  0
 14 29  2  0  0  0  0
 15 24  1  0  0  0  0
 15 30  2  0  0  0  0
 16 28  2  0  0  0  0
 16 31  1  0  0  0  0
 17 32  1  0  0  0  0
 18 32  1  0  0  0  0
 18 33  2  0  0  0  0
 18 34  1  0  0  0  0
 19 21  2  0  0  0  0
 19 39  1  0  0  0  0
 20 22  2  0  0  0  0
 20 40  1  0  0  0  0
 21 48  1  0  0  0  0
 22 41  1  0  0  0  0
 23 24  2  0  0  0  0
 23 69  1  0  0  0  0
 24 72  1  0  0  0  0
 25 79  1  0  0  0  0
 26 80  1  0  0  0  0
 27 31  2  0  0  0  0
 27 79  1  0  0  0  0
 28 81  1  0  0  0  0
 29 30  1  0  0  0  0
 29 82  1  0  0  0  0
 30 83  1  0  0  0  0
 31 84  1  0  0  0  0
 32 63  2  0  0  0  0
 33 64  1  0  0  0  0
 33 67  1  0  0  0  0
 34 68  1  0  0  0  0
 34 74  2  0  0  0  0
 35 49  1  0  0  0  0
 35 70  1  0  0  0  0
 35 75  2  0  0  0  0
 36 60  1  0  0  0  0
 36 65  1  0  0  0  0
 36 76  2  0  0  0  0
 37 61  1  0  0  0  0
 37 71  1  0  0  0  0
 37 77  2  0  0  0  0
 38 66  1  0  0  0  0
 38 69  1  0  0  0  0
 38 78  2  0  0  0  0
 39 42  1  0  0  0  0
 40 49  1  0  0  0  0
 41 65  1  0  0  0  0
 42 44  1  0  0  0  0
 43 45  1  0  0  0  0
 43 46  1  0  0  0  0
 44 48  1  0  0  0  0
 45 50  1  0  0  0  0
 46 66  1  0  0  0  0
 47 50  1  0  0  0  0
 47 66  1  0  0  0  0
 48 70  1  0  0  0  0
 49 65  1  0  0  0  0
 50 64  1  0  0  0  0
 51 61  1  0  0  0  0
 52 62  1  0  0  0  0
 53 62  1  0  0  0  0
 54 62  1  0  0  0  0
 55 72  1  0  0  0  0
 56 73  1  0  0  0  0
 57 58  1  0  0  0  0
 57 59  1  0  0  0  0
 58 72  1  0  0  0  0
 59 80  1  0  0  0  0
 60 62  1  0  0  0  0
 60 71  1  0  0  0  0
 61 73  1  0  0  0  0
 63 64  1  0  0  0  0
M  CHG  1  73   1
M  ISO  4  38 100  59 101  69 100  80 101
M  END
> <Batch ID>
0011

> <Smiles>
CNC(C)C(=O)NC(C(=O)N1Cc2cc([101O:1][101CH2:1]CCN(C)c3cc(F)c(F)cc3[100NH:0][100C:0](=O)N3CCCC(n4nc(-c5ccc(Oc6ccc(F)cc6F)cc5)c(C(N)=O)c4N)C3)ccc2CC1C(=O)NC1CCCc2ccccc21)C(C)(C)C

> <Shape>
0.222

> <Color>
0.087

> <Negative vol penalty>
0.000

$$$$

  -OEChem-04052315443D

 86 94  0     1  0  0  0  0  0999 V2000
  -31.4000  -25.5698   14.4499 C   0  0  0  0  0  0  0  0  0  0  0  0
  -30.0311  -25.5979   14.6965 C   0  0  0  0  0  0  0  0  0  0  0  0
  -27.4401  -18.1991   21.5808 C   0  0  0  0  0  0  0  0  0  0  0  0
  -25.3030  -18.9228   20.7169 C   0  0  0  0  0  0  0  0  0  0  0  0
  -32.2998  -25.6064   15.5143 C   0  0  0  0  0  0  0  0  0  0  0  0
  -29.5612  -25.6615   16.0078 C   0  0  0  0  0  0  0  0  0  0  0  0
  -24.5585  -28.5868   17.9880 C   0  0  0  0  0  0  0  0  0  0  0  0
  -22.3195  -26.6434   25.8648 C   0  0  0  0  0  0  0  0  0  0  0  0
  -27.1631  -16.8943   21.1730 C   0  0  0  0  0  0  0  0  0  0  0  0
  -25.0260  -17.6179   20.3091 C   0  0  0  0  0  0  0  0  0  0  0  0
  -23.2675  -28.1469   18.2773 C   0  0  0  0  0  0  0  0  0  0  0  0
  -26.8643  -13.3038   20.6808 C   0  0  0  0  0  0  0  0  0  0  0  0
  -21.4808  -27.7101   25.5418 C   0  0  0  0  0  0  0  0  0  0  0  0
  -27.1398  -12.2705   21.5763 C   0  0  0  0  0  0  0  0  0  0  0  0
  -23.8597  -27.9609   20.6084 C   0  0  0  0  0  0  0  0  0  0  0  0
  -25.6042  -13.2413   23.1689 C   0  0  0  0  0  0  0  0  0  0  0  0
  -26.5100  -19.2134   21.3528 C   0  0  0  0  0  0  0  0  0  0  0  0
  -27.4374  -21.5675   21.0280 C   0  0  0  0  0  0  0  0  0  0  0  0
  -31.8408  -25.6803   16.8388 C   0  0  0  0  0  0  0  0  0  0  0  0
  -25.5145  -28.7068   19.0068 C   0  0  0  0  0  0  0  0  0  0  0  0
  -30.4557  -25.6978   17.0910 C   0  0  0  0  0  0  0  0  0  0  0  0
  -25.1614  -28.4050   20.3298 C   0  0  0  0  0  0  0  0  0  0  0  0
  -22.2415  -25.4517   25.1440 C   0  0  0  0  0  0  0  0  0  0  0  0
  -20.4858  -26.3934   23.7773 C   0  0  0  0  0  0  0  0  0  0  0  0
  -25.9561  -16.6037   20.5371 C   0  0  0  0  0  0  0  0  0  0  0  0
  -22.9188  -27.8311   19.5871 C   0  0  0  0  0  0  0  0  0  0  0  0
  -25.9587  -14.3059   21.0293 C   0  0  0  0  0  0  0  0  0  0  0  0
  -26.5098  -12.2392   22.8204 C   0  0  0  0  0  0  0  0  0  0  0  0
  -20.5640  -27.5851   24.4980 C   0  0  0  0  0  0  0  0  0  0  0  0
  -25.3287  -14.2746   22.2734 C   0  0  0  0  0  0  0  0  0  0  0  0
  -21.3246  -25.3267   24.1003 C   0  0  0  0  0  0  0  0  0  0  0  0
  -26.7953  -20.5614   21.7743 C   0  0  0  0  0  0  0  0  0  0  0  0
  -27.4647  -22.6537   21.8682 C   0  0  0  0  0  0  0  0  0  0  0  0
  -27.9623  -21.5242   19.6945 C   0  0  0  0  0  0  0  0  0  0  0  0
  -28.3258  -27.3540   19.6155 C   0  0  0  0  0  0  0  0  0  0  0  0
  -28.4001  -29.5106   22.0375 C   0  0  0  0  0  0  0  0  0  0  0  0
  -19.9304  -26.6279   21.3877 C   0  0  0  0  0  0  0  0  0  0  0  0
  -26.6657  -31.5311   24.1719 C   0  0  0  0  0  0  0  0  0  0  0  0
  -24.0588  -24.3322   26.4820 C   0  0  0  0  0  0  0  0  0  0  0  0
  -32.8509  -25.6700   17.9588 C   0  0  0  0  0  0  0  0  0  0  0  0
  -26.8950  -29.2082   18.6824 C   0  0  0  0  0  0  0  0  0  0  0  0
  -26.1449  -28.5363   21.4628 C   0  0  0  0  0  0  0  0  0  0  0  0
  -32.2765  -26.1153   19.3012 C   0  0  0  0  0  0  0  0  0  0  0  0
  -27.5773  -23.7884   26.5194 C   0  0  0  0  0  0  0  0  0  0  0  0
  -30.9434  -25.4233   19.5674 C   0  0  0  0  0  0  0  0  0  0  0  0
  -27.8353  -22.9960   25.2358 C   0  0  0  0  0  0  0  0  0  0  0  0
  -26.2539  -23.3944   27.1728 C   0  0  0  0  0  0  0  0  0  0  0  0
  -25.3409  -22.6618   25.0051 C   0  0  0  0  0  0  0  0  0  0  0  0
  -29.9075  -25.7916   18.4984 C   0  0  1  0  0  0  0  0  0  0  0  0
  -27.9374  -28.8018   19.7195 C   0  0  1  0  0  0  0  0  0  0  0  0
  -26.6315  -23.0701   24.2762 C   0  0  2  0  0  0  0  0  0  0  0  0
  -26.9988  -33.1452   26.0643 C   0  0  0  0  0  0  0  0  0  0  0  0
  -17.9519  -24.4750   22.2023 C   0  0  0  0  0  0  0  0  0  0  0  0
  -17.1669  -26.8317   22.6214 C   0  0  0  0  0  0  0  0  0  0  0  0
  -28.9243  -27.1772   23.9322 C   0  0  0  0  0  0  0  0  0  0  0  0
  -28.3059  -28.6773   25.8389 C   0  0  0  0  0  0  0  0  0  0  0  0
  -30.2723  -29.2295   24.4069 C   0  0  0  0  0  0  0  0  0  0  0  0
  -25.4448  -33.7530   22.6450 C   0  0  0  0  0  0  0  0  0  0  0  0
  -21.3708  -27.0949   21.2357 C   0  0  0  0  0  0  0  0  0  1  0  0
  -27.9400  -29.5199   23.4752 C   0  0  1  0  0  0  0  0  0  0  0  0
  -26.8553  -32.9867   24.5587 C   0  0  2  0  0  0  0  0  0  0  0  0
  -18.1836  -25.7595   22.9848 C   0  0  0  0  0  0  0  0  0  0  0  0
  -28.8425  -28.6465   24.3919 C   0  0  0  0  0  0  0  0  0  0  0  0
  -26.4403  -20.9718   22.9948 N   0  0  0  0  0  0  0  0  0  0  0  0
  -26.8610  -22.2479   23.0219 N   0  0  0  0  0  0  0  0  0  0  0  0
  -27.4840  -29.0245   21.0939 N   0  0  0  0  0  0  0  0  0  0  0  0
  -25.1586  -23.4928   26.2055 N   0  0  0  0  0  0  0  0  0  0  0  0
  -27.9459  -23.9069   21.7253 N   0  0  0  0  0  0  0  0  0  0  0  0
  -27.8508  -20.3290   18.9711 N   0  0  0  0  0  0  0  0  0  0  0  0
  -23.0949  -24.3701   25.4750 N   0  0  0  0  0  0  0  0  0  0  0  0
  -29.3731  -27.1134   18.7468 N   0  0  0  0  0  0  0  0  0  0  0  0
  -27.8656  -30.9221   23.8710 N   0  0  0  0  0  0  0  0  0  0  0  0
  -19.5339  -26.2647   22.6925 N   0  0  0  0  0  0  0  0  0  0  0  0
  -25.6887  -33.7982   24.1097 N   0  3  0  0  0  0  0  0  0  0  0  0
  -28.5285  -22.5110   19.1661 O   0  0  0  0  0  0  0  0  0  0  0  0
  -27.7210  -26.5173   20.2758 O   0  0  0  0  0  0  0  0  0  0  0  0
  -29.5281  -29.9262   21.7608 O   0  0  0  0  0  0  0  0  0  0  0  0
  -19.2176  -26.5655   20.3828 O   0  0  0  0  0  0  0  0  0  0  0  0
  -25.5637  -30.9875   24.1436 O   0  0  0  0  0  0  0  0  0  0  0  0
  -23.9910  -24.9913   27.5227 O   0  0  0  0  0  0  0  0  0  0  0  0
  -25.6856  -15.3306   20.1388 O   0  0  0  0  0  0  0  0  0  0  0  0
  -21.6596  -27.4009   19.8722 O   0  0  0  0  0  0  0  0  0  1  0  0
  -26.7733  -11.2461   23.6797 F   0  0  0  0  0  0  0  0  0  0  0  0
  -19.7639  -28.6179   24.1960 F   0  0  0  0  0  0  0  0  0  0  0  0
  -24.4569  -15.2339   22.6134 F   0  0  0  0  0  0  0  0  0  0  0  0
  -21.2502  -24.1804   23.4063 F   0  0  0  0  0  0  0  0  0  0  0  0
  1  2  1  0  0  0  0
  1  5  2  0  0  0  0
  2  6  2  0  0  0  0
  3  9  2  0  0  0  0
  3 17  1  0  0  0  0
  4 10  1  0  0  0  0
  4 17  2  0  0  0  0
  5 19  1  0  0  0  0
  6 21  1  0  0  0  0
  7 11  2  0  0  0  0
  7 20  1  0  0  0  0
  8 13  1  0  0  0  0
  8 23  2  0  0  0  0
  9 25  1  0  0  0  0
 10 25  2  0  0  0  0
 11 26  1  0  0  0  0
 12 14  2  0  0  0  0
 12 27  1  0  0  0  0
 13 29  2  0  0  0  0
 14 28  1  0  0  0  0
 15 22  1  0  0  0  0
 15 26  2  0  0  0  0
 16 28  2  0  0  0  0
 16 30  1  0  0  0  0
 17 32  1  0  0  0  0
 18 32  1  0  0  0  0
 18 33  2  0  0  0  0
 18 34  1  0  0  0  0
 19 21  2  0  0  0  0
 19 40  1  0  0  0  0
 20 22  2  0  0  0  0
 20 41  1  0  0  0  0
 21 49  1  0  0  0  0
 22 42  1  0  0  0  0
 23 31  1  0  0  0  0
 23 70  1  0  0  0  0
 24 29  1  0  0  0  0
 24 31  2  0  0  0  0
 24 73  1  0  0  0  0
 25 81  1  0  0  0  0
 26 82  1  0  0  0  0
 27 30  2  0  0  0  0
 27 81  1  0  0  0  0
 28 83  1  0  0  0  0
 29 84  1  0  0  0  0
 30 85  1  0  0  0  0
 31 86  1  0  0  0  0
 32 64  2  0  0  0  0
 33 65  1  0  0  0  0
 33 68  1  0  0  0  0
 34 69  1  0  0  0  0
 34 75  2  0  0  0  0
 35 50  1  0  0  0  0
 35 71  1  0  0  0  0
 35 76  2  0  0  0  0
 36 60  1  0  0  0  0
 36 66  1  0  0  0  0
 36 77  2  0  0  0  0
 37 59  1  0  0  0  0
 37 73  1  0  0  0  0
 37 78  2  0  0  0  0
 38 61  1  0  0  0  0
 38 72  1  0  0  0  0
 38 79  2  0  0  0  0
 39 67  1  0  0  0  0
 39 70  1  0  0  0  0
 39 80  2  0  0  0  0
 40 43  1  0  0  0  0
 41 50  1  0  0  0  0
 42 66  1  0  0  0  0
 43 45  1  0  0  0  0
 44 46  1  0  0  0  0
 44 47  1  0  0  0  0
 45 49  1  0  0  0  0
 46 51  1  0  0  0  0
 47 67  1  0  0  0  0
 48 51  1  0  0  0  0
 48 67  1  0  0  0  0
 49 71  1  0  0  0  0
 50 66  1  0  0  0  0
 51 65  1  0  0  0  0
 52 61  1  0  0  0  0
 53 62  1  0  0  0  0
 54 62  1  0  0  0  0
 55 63  1  0  0  0  0
 56 63  1  0  0  0  0
 57 63  1  0  0  0  0
 58 74  1  0  0  0  0
 59 82  1  0  0  0  0
 60 63  1  0  0  0  0
 60 72  1  0  0  0  0
 61 74  1  0  0  0  0
 62 73  1  0  0  0  0
 64 65  1  0  0  0  0
M  CHG  1  74   1
M  ISO  4  39 100  59 101  70 100  82 101
M  END
> <Batch ID>
0011

> <Smiles>
CNC(C)C(=O)NC(C(=O)N1Cc2cc([101O:1][101CH2:1]C(=O)N(c3c(F)ccc([100NH:0][100C:0](=O)N4CCCC(n5nc(-c6ccc(Oc7ccc(F)cc7F)cc6)c(C(N)=O)c5N)C4)c3F)C(C)C)ccc2CC1C(=O)NC1CCCc2ccccc21)C(C)(C)C

> <Shape>
0.218

> <Color>
0.069

> <Negative vol penalty>
0.000

$$$$

  -OEChem-04052315443D

 83 91  0     1  0  0  0  0  0999 V2000
  -27.8340  -37.6935   20.2810 C   0  0  0  0  0  0  0  0  0  0  0  0
  -28.3269  -36.4029   20.1173 C   0  0  0  0  0  0  0  0  0  0  0  0
  -23.8285  -12.2812   24.0983 C   0  0  0  0  0  0  0  0  0  0  0  0
  -22.6459  -14.0454   22.9466 C   0  0  0  0  0  0  0  0  0  0  0  0
  -26.8151  -37.9380   21.2009 C   0  0  0  0  0  0  0  0  0  0  0  0
  -27.8018  -35.3561   20.8742 C   0  0  0  0  0  0  0  0  0  0  0  0
  -27.0458  -29.5450   19.0951 C   0  0  0  0  0  0  0  0  0  0  0  0
  -27.4355  -21.7384   18.1725 C   0  0  0  0  0  0  0  0  0  0  0  0
  -26.3731  -20.8468   18.0248 C   0  0  0  0  0  0  0  0  0  0  0  0
  -22.9627  -12.4098   25.1843 C   0  0  0  0  0  0  0  0  0  0  0  0
  -21.7801  -14.1740   24.0327 C   0  0  0  0  0  0  0  0  0  0  0  0
  -27.8074  -28.3951   19.2986 C   0  0  0  0  0  0  0  0  0  0  0  0
  -19.8240  -11.4487   25.9952 C   0  0  0  0  0  0  0  0  0  0  0  0
  -19.3126  -10.2796   26.5585 C   0  0  0  0  0  0  0  0  0  0  0  0
  -26.4117  -27.8105   21.1774 C   0  0  0  0  0  0  0  0  0  0  0  0
  -28.8616  -19.9216   18.8814 C   0  0  0  0  0  0  0  0  0  0  0  0
  -20.3269  -10.8553   28.6744 C   0  0  0  0  0  0  0  0  0  0  0  0
  -23.6701  -13.0991   22.9794 C   0  0  0  0  0  0  0  0  0  0  0  0
  -24.4052  -12.1294   20.7373 C   0  0  0  0  0  0  0  0  0  0  0  0
  -26.2707  -36.8919   21.9625 C   0  0  0  0  0  0  0  0  0  0  0  0
  -25.9663  -29.8424   19.9393 C   0  0  0  0  0  0  0  0  0  0  0  0
  -26.7757  -35.5870   21.8061 C   0  0  0  0  0  0  0  0  0  0  0  0
  -25.6364  -28.9635   20.9809 C   0  0  0  0  0  0  0  0  0  0  0  0
  -28.6799  -21.2758   18.6008 C   0  0  0  0  0  0  0  0  0  0  0  0
  -26.5549  -19.4926   18.3053 C   0  0  0  0  0  0  0  0  0  0  0  0
  -27.7992  -19.0300   18.7337 C   0  0  0  0  0  0  0  0  0  0  0  0
  -21.9385  -13.3561   25.1516 C   0  0  0  0  0  0  0  0  0  0  0  0
  -27.4922  -27.5291   20.3416 C   0  0  0  0  0  0  0  0  0  0  0  0
  -20.5870  -12.3211   26.7715 C   0  0  0  0  0  0  0  0  0  0  0  0
  -19.5640   -9.9829   27.8981 C   0  0  0  0  0  0  0  0  0  0  0  0
  -20.8384  -12.0244   28.1111 C   0  0  0  0  0  0  0  0  0  0  0  0
  -24.5644  -12.9671   21.8575 C   0  0  0  0  0  0  0  0  0  0  0  0
  -25.5158  -12.3719   19.9665 C   0  0  0  0  0  0  0  0  0  0  0  0
  -23.3478  -11.2139   20.4217 C   0  0  0  0  0  0  0  0  0  0  0  0
  -25.2660  -32.2169   21.9331 C   0  0  0  0  0  0  0  0  0  0  0  0
  -22.4223  -30.6720   22.1551 C   0  0  0  0  0  0  0  0  0  0  0  0
  -20.6796  -27.7532   21.8541 C   0  0  0  0  0  0  0  0  0  0  0  0
  -29.1887  -17.0578   19.4591 C   0  0  0  0  0  0  0  0  0  0  0  0
  -25.2031  -37.2130   22.9783 C   0  0  0  0  0  0  0  0  0  0  0  0
  -25.1382  -31.0731   19.6901 C   0  0  0  0  0  0  0  0  0  0  0  0
  -24.4750  -29.2269   21.9029 C   0  0  0  0  0  0  0  0  0  0  0  0
  -24.4429  -35.9847   23.4719 C   0  0  0  0  0  0  0  0  0  0  0  0
  -30.0964  -13.7242   20.3194 C   0  0  0  0  0  0  0  0  0  0  0  0
  -25.4136  -34.8612   23.8220 C   0  0  0  0  0  0  0  0  0  0  0  0
  -28.7654  -13.0737   20.7036 C   0  0  0  0  0  0  0  0  0  0  0  0
  -30.1645  -15.1833   20.7665 C   0  0  0  0  0  0  0  0  0  0  0  0
  -27.7085  -15.3694   20.7136 C   0  0  0  0  0  0  0  0  0  0  0  0
  -26.2149  -34.4209   22.5909 C   0  0  1  0  0  0  0  0  0  0  0  0
  -24.3776  -31.5420   20.9266 C   0  0  1  0  0  0  0  0  0  0  0  0
  -27.5672  -13.9179   20.2268 C   0  0  2  0  0  0  0  0  0  0  0  0
  -18.3780  -26.7948   22.1394 C   0  0  0  0  0  0  0  0  0  0  0  0
  -22.7985  -30.6763   25.1830 C   0  0  0  0  0  0  0  0  0  0  0  0
  -21.0172  -28.9237   25.3369 C   0  0  0  0  0  0  0  0  0  0  0  0
  -20.4702  -31.1783   24.4204 C   0  0  0  0  0  0  0  0  0  0  0  0
  -31.0537  -21.6862   19.1981 C   0  0  0  0  0  0  0  0  0  0  0  0
  -20.5128  -27.0006   18.9967 C   0  0  0  0  0  0  0  0  0  0  0  0
  -28.9776  -24.3132   19.6344 C   0  0  0  0  0  0  0  0  0  0  0  0
  -29.5981  -23.5770   18.4532 C   0  0  0  0  0  0  0  0  0  0  0  0
  -28.8372  -25.8118   19.3943 C   0  0  0  0  0  0  0  0  0  1  0  0
  -21.8632  -29.5834   23.0390 C   0  0  1  0  0  0  0  0  0  0  0  0
  -19.3623  -27.4324   21.1712 C   0  0  2  0  0  0  0  0  0  0  0  0
  -21.5604  -30.0862   24.4788 C   0  0  0  0  0  0  0  0  0  0  0  0
  -25.6878  -13.6878   21.8068 N   0  0  0  0  0  0  0  0  0  0  0  0
  -26.2446  -13.3036   20.6456 N   0  0  0  0  0  0  0  0  0  0  0  0
  -23.6994  -30.4465   21.6223 N   0  0  0  0  0  0  0  0  0  0  0  0
  -28.9995  -15.9221   20.2746 N   0  0  0  0  0  0  0  0  0  0  0  0
  -25.4645  -18.6073   18.1502 N   0  0  0  0  0  0  0  0  0  0  0  0
  -25.9304  -11.8769   18.7810 N   0  0  0  0  0  0  0  0  0  0  0  0
  -22.2824  -11.0873   21.3235 N   0  0  0  0  0  0  0  0  0  0  0  0
  -28.0078  -17.6590   19.0249 N   0  0  0  0  0  0  0  0  0  0  0  0
  -25.4064  -33.5775   21.7368 N   0  0  0  0  0  0  0  0  0  0  0  0
  -20.7028  -29.0442   22.3381 N   0  0  0  0  0  0  0  0  0  0  0  0
  -29.7478  -22.1724   18.7485 N   0  0  3  0  0  0  0  0  0  0  0  0
  -19.5826  -26.4912   20.0370 N   0  3  0  0  0  0  0  0  0  0  0  0
  -23.3559  -10.5165   19.3792 O   0  0  0  0  0  0  0  0  0  0  0  0
  -25.7843  -31.5526   22.8229 O   0  0  0  0  0  0  0  0  0  0  0  0
  -21.7477  -31.6820   21.9394 O   0  0  0  0  0  0  0  0  0  0  0  0
  -21.5948  -26.9389   21.9519 O   0  0  0  0  0  0  0  0  0  0  0  0
  -30.3151  -17.4509   19.1451 O   0  0  0  0  0  0  0  0  0  0  0  0
  -21.0934  -13.4817   26.2110 O   0  0  0  0  0  0  0  0  0  0  0  0
  -28.2343  -26.4064   20.5429 O   0  0  0  0  0  0  0  0  0  1  0  0
  -19.0715   -8.8610   28.4392 F   0  0  0  0  0  0  0  0  0  0  0  0
  -21.5697  -12.8592   28.8621 F   0  0  0  0  0  0  0  0  0  0  0  0
  1  2  1  0  0  0  0
  1  5  2  0  0  0  0
  2  6  2  0  0  0  0
  3 10  2  0  0  0  0
  3 18  1  0  0  0  0
  4 11  1  0  0  0  0
  4 18  2  0  0  0  0
  5 20  1  0  0  0  0
  6 22  1  0  0  0  0
  7 12  2  0  0  0  0
  7 21  1  0  0  0  0
  8  9  2  0  0  0  0
  8 24  1  0  0  0  0
  9 25  1  0  0  0  0
 10 27  1  0  0  0  0
 11 27  2  0  0  0  0
 12 28  1  0  0  0  0
 13 14  2  0  0  0  0
 13 29  1  0  0  0  0
 14 30  1  0  0  0  0
 15 23  1  0  0  0  0
 15 28  2  0  0  0  0
 16 24  2  0  0  0  0
 16 26  1  0  0  0  0
 17 30  2  0  0  0  0
 17 31  1  0  0  0  0
 18 32  1  0  0  0  0
 19 32  1  0  0  0  0
 19 33  2  0  0  0  0
 19 34  1  0  0  0  0
 20 22  2  0  0  0  0
 20 39  1  0  0  0  0
 21 23  2  0  0  0  0
 21 40  1  0  0  0  0
 22 48  1  0  0  0  0
 23 41  1  0  0  0  0
 24 73  1  0  0  0  0
 25 26  2  0  0  0  0
 25 67  1  0  0  0  0
 26 70  1  0  0  0  0
 27 80  1  0  0  0  0
 28 81  1  0  0  0  0
 29 31  2  0  0  0  0
 29 80  1  0  0  0  0
 30 82  1  0  0  0  0
 31 83  1  0  0  0  0
 32 63  2  0  0  0  0
 33 64  1  0  0  0  0
 33 68  1  0  0  0  0
 34 69  1  0  0  0  0
 34 75  2  0  0  0  0
 35 49  1  0  0  0  0
 35 71  1  0  0  0  0
 35 76  2  0  0  0  0
 36 60  1  0  0  0  0
 36 65  1  0  0  0  0
 36 77  2  0  0  0  0
 37 61  1  0  0  0  0
 37 72  1  0  0  0  0
 37 78  2  0  0  0  0
 38 66  1  0  0  0  0
 38 70  1  0  0  0  0
 38 79  2  0  0  0  0
 39 42  1  0  0  0  0
 40 49  1  0  0  0  0
 41 65  1  0  0  0  0
 42 44  1  0  0  0  0
 43 45  1  0  0  0  0
 43 46  1  0  0  0  0
 44 48  1  0  0  0  0
 45 50  1  0  0  0  0
 46 66  1  0  0  0  0
 47 50  1  0  0  0  0
 47 66  1  0  0  0  0
 48 71  1  0  0  0  0
 49 65  1  0  0  0  0
 50 64  1  0  0  0  0
 51 61  1  0  0  0  0
 52 62  1  0  0  0  0
 53 62  1  0  0  0  0
 54 62  1  0  0  0  0
 55 73  1  0  0  0  0
 56 74  1  0  0  0  0
 57 58  1  0  0  0  0
 57 59  1  0  0  0  0
 58 73  1  0  0  0  0
 59 81  1  0  0  0  0
 60 62  1  0  0  0  0
 60 72  1  0  0  0  0
 61 74  1  0  0  0  0
 63 64  1  0  0  0  0
M  CHG  1  74   1
M  ISO  4  38 100  59 101  70 100  81 101
M  END
> <Batch ID>
0011

> <Smiles>
CNC(C)C(=O)NC(C(=O)N1Cc2cc([101O:1][101CH2:1]CCN(C)c3ccc(N)c([100NH:0][100C:0](=O)N4CCCC(n5nc(-c6ccc(Oc7ccc(F)cc7F)cc6)c(C(N)=O)c5N)C4)c3)ccc2CC1C(=O)NC1CCCc2ccccc21)C(C)(C)C

> <Shape>
0.280

> <Color>
0.079

> <Negative vol penalty>
0.000

$$$$

  -OEChem-04052315443D

 82 90  0     1  0  0  0  0  0999 V2000
  -29.4609  -33.9616   26.0651 C   0  0  0  0  0  0  0  0  0  0  0  0
  -29.6130  -32.8665   25.2207 C   0  0  0  0  0  0  0  0  0  0  0  0
  -24.6254   -9.0141   21.3663 C   0  0  0  0  0  0  0  0  0  0  0  0
  -23.3749  -10.8876   22.2399 C   0  0  0  0  0  0  0  0  0  0  0  0
  -28.2344  -34.1977   26.6847 C   0  0  0  0  0  0  0  0  0  0  0  0
  -28.5389  -32.0061   24.9963 C   0  0  0  0  0  0  0  0  0  0  0  0
  -27.2088  -29.0561   19.7969 C   0  0  0  0  0  0  0  0  0  0  0  0
  -28.2583  -19.0882   20.2571 C   0  0  0  0  0  0  0  0  0  0  0  0
  -27.8311  -20.4045   20.0827 C   0  0  0  0  0  0  0  0  0  0  0  0
  -24.0837   -8.1918   22.3542 C   0  0  0  0  0  0  0  0  0  0  0  0
  -22.8332  -10.0653   23.2279 C   0  0  0  0  0  0  0  0  0  0  0  0
  -27.4513  -27.7511   19.3704 C   0  0  0  0  0  0  0  0  0  0  0  0
  -21.1749   -6.5638   22.9211 C   0  0  0  0  0  0  0  0  0  0  0  0
  -20.7074   -5.3078   22.5345 C   0  0  0  0  0  0  0  0  0  0  0  0
  -25.2378  -27.1124   20.0857 C   0  0  0  0  0  0  0  0  0  0  0  0
  -26.2425  -18.5979   21.4954 C   0  0  0  0  0  0  0  0  0  0  0  0
  -22.2821   -4.2592   24.0373 C   0  0  0  0  0  0  0  0  0  0  0  0
  -24.2711  -10.3620   21.3092 C   0  0  0  0  0  0  0  0  0  0  0  0
  -24.3057  -11.4600   19.0068 C   0  0  0  0  0  0  0  0  0  0  0  0
  -27.1420  -33.3453   26.4602 C   0  0  0  0  0  0  0  0  0  0  0  0
  -25.9808  -29.3971   20.3819 C   0  0  0  0  0  0  0  0  0  0  0  0
  -27.2970  -32.2302   25.6146 C   0  0  0  0  0  0  0  0  0  0  0  0
  -24.9812  -28.4230   20.5164 C   0  0  0  0  0  0  0  0  0  0  0  0
  -27.4640  -18.1849   20.9633 C   0  0  0  0  0  0  0  0  0  0  0  0
  -26.6097  -20.8176   20.6148 C   0  0  0  0  0  0  0  0  0  0  0  0
  -23.1876   -8.7174   23.2850 C   0  0  0  0  0  0  0  0  0  0  0  0
  -26.4669  -26.7783   19.5174 C   0  0  0  0  0  0  0  0  0  0  0  0
  -22.1961   -6.6675   23.8657 C   0  0  0  0  0  0  0  0  0  0  0  0
  -21.2610   -4.1555   23.0926 C   0  0  0  0  0  0  0  0  0  0  0  0
  -25.8153  -19.9143   21.3211 C   0  0  0  0  0  0  0  0  0  0  0  0
  -22.7496   -5.5153   24.4238 C   0  0  0  0  0  0  0  0  0  0  0  0
  -24.8308  -11.2121   20.2892 C   0  0  0  0  0  0  0  0  0  0  0  0
  -25.2014  -12.3274   18.4309 C   0  0  0  0  0  0  0  0  0  0  0  0
  -23.1148  -10.9516   18.3912 C   0  0  0  0  0  0  0  0  0  0  0  0
  -25.0781  -30.4896   23.2271 C   0  0  0  0  0  0  0  0  0  0  0  0
  -22.1722  -30.6800   21.7983 C   0  0  0  0  0  0  0  0  0  0  0  0
  -26.8424  -23.1750   19.7648 C   0  0  0  0  0  0  0  0  0  0  0  0
  -20.0775  -29.5876   19.3354 C   0  0  0  0  0  0  0  0  0  0  0  0
  -29.0827  -16.2756   20.6787 C   0  0  0  0  0  0  0  0  0  0  0  0
  -25.8494  -33.6143   27.1893 C   0  0  0  0  0  0  0  0  0  0  0  0
  -25.7250  -30.8155   20.8123 C   0  0  0  0  0  0  0  0  0  0  0  0
  -23.6386  -28.7425   21.1196 C   0  0  0  0  0  0  0  0  0  0  0  0
  -24.6534  -32.8673   26.6047 C   0  0  0  0  0  0  0  0  0  0  0  0
  -29.8337  -13.5387   18.5288 C   0  0  0  0  0  0  0  0  0  0  0  0
  -25.0100  -31.4067   26.3474 C   0  0  0  0  0  0  0  0  0  0  0  0
  -28.5857  -12.6570   18.6148 C   0  0  0  0  0  0  0  0  0  0  0  0
  -30.1628  -14.1883   19.8717 C   0  0  0  0  0  0  0  0  0  0  0  0
  -27.8072  -14.0443   20.5786 C   0  0  0  0  0  0  0  0  0  0  0  0
  -26.1482  -31.2882   25.3267 C   0  0  1  0  0  0  0  0  0  0  0  0
  -24.6261  -30.9318   21.8641 C   0  0  1  0  0  0  0  0  0  0  0  0
  -27.3984  -13.4199   19.2345 C   0  0  2  0  0  0  0  0  0  0  0  0
  -17.7527  -29.9008   18.4441 C   0  0  0  0  0  0  0  0  0  0  0  0
  -21.0648  -29.0297   24.1135 C   0  0  0  0  0  0  0  0  0  0  0  0
  -19.0308  -28.5762   22.7259 C   0  0  0  0  0  0  0  0  0  0  0  0
  -19.5956  -30.9161   23.3806 C   0  0  0  0  0  0  0  0  0  0  0  0
  -21.0837  -30.5122   16.7103 C   0  0  0  0  0  0  0  0  0  0  0  0
  -26.0333  -24.4580   19.8076 C   0  0  0  0  0  0  0  0  0  1  0  0
  -20.9985  -29.7450   21.6336 C   0  0  1  0  0  0  0  0  0  0  0  0
  -19.2052  -30.3408   18.3474 C   0  0  2  0  0  0  0  0  0  0  0  0
  -20.1983  -29.5600   22.9538 C   0  0  0  0  0  0  0  0  0  0  0  0
  -25.9716  -11.8689   20.5151 N   0  0  0  0  0  0  0  0  0  0  0  0
  -26.1709  -12.5380   19.3668 N   0  0  0  0  0  0  0  0  0  0  0  0
  -23.4389  -30.1419   21.5309 N   0  0  0  0  0  0  0  0  0  0  0  0
  -28.9928  -14.8963   20.3958 N   0  0  0  0  0  0  0  0  0  0  0  0
  -25.2465  -12.9230   17.2202 N   0  0  0  0  0  0  0  0  0  0  0  0
  -22.3079  -10.0704   19.1238 N   0  0  0  0  0  0  0  0  0  0  0  0
  -26.1792  -22.1538   20.4367 N   0  0  0  0  0  0  0  0  0  0  0  0
  -27.8980  -16.8478   21.1411 N   0  0  0  0  0  0  0  0  0  0  0  0
  -25.6472  -31.4953   23.9848 N   0  0  0  0  0  0  0  0  0  0  0  0
  -20.2094  -30.2717   20.5253 N   0  0  0  0  0  0  0  0  0  0  0  0
  -19.6766  -30.1028   16.9539 N   0  3  0  0  0  0  0  0  0  0  0  0
  -22.7849  -11.2565   17.2200 O   0  0  0  0  0  0  0  0  0  0  0  0
  -24.9208  -29.3228   23.5668 O   0  0  0  0  0  0  0  0  0  0  0  0
  -21.9717  -31.8470   22.1444 O   0  0  0  0  0  0  0  0  0  0  0  0
  -27.9277  -23.1185   19.1961 O   0  0  0  0  0  0  0  0  0  0  0  0
  -20.5876  -28.4993   19.0788 O   0  0  0  0  0  0  0  0  0  0  0  0
  -30.1257  -16.9089   20.4965 O   0  0  0  0  0  0  0  0  0  0  0  0
  -22.6586   -7.9153   24.2490 O   0  0  0  0  0  0  0  0  0  0  0  0
  -26.7013  -25.5036   19.1026 O   0  0  0  0  0  0  0  0  0  1  0  0
  -20.8108   -2.9494   22.7225 F   0  0  0  0  0  0  0  0  0  0  0  0
  -24.6401  -20.3006   21.8382 F   0  0  0  0  0  0  0  0  0  0  0  0
  -23.7300   -5.6086   25.3326 F   0  0  0  0  0  0  0  0  0  0  0  0
  1  2  1  0  0  0  0
  1  5  2  0  0  0  0
  2  6  2  0  0  0  0
  3 10  2  0  0  0  0
  3 18  1  0  0  0  0
  4 11  1  0  0  0  0
  4 18  2  0  0  0  0
  5 20  1  0  0  0  0
  6 22  1  0  0  0  0
  7 12  2  0  0  0  0
  7 21  1  0  0  0  0
  8  9  2  0  0  0  0
  8 24  1  0  0  0  0
  9 25  1  0  0  0  0
 10 26  1  0  0  0  0
 11 26  2  0  0  0  0
 12 27  1  0  0  0  0
 13 14  2  0  0  0  0
 13 28  1  0  0  0  0
 14 29  1  0  0  0  0
 15 23  1  0  0  0  0
 15 27  2  0  0  0  0
 16 24  2  0  0  0  0
 16 30  1  0  0  0  0
 17 29  2  0  0  0  0
 17 31  1  0  0  0  0
 18 32  1  0  0  0  0
 19 32  1  0  0  0  0
 19 33  2  0  0  0  0
 19 34  1  0  0  0  0
 20 22  2  0  0  0  0
 20 40  1  0  0  0  0
 21 23  2  0  0  0  0
 21 41  1  0  0  0  0
 22 49  1  0  0  0  0
 23 42  1  0  0  0  0
 24 68  1  0  0  0  0
 25 30  2  0  0  0  0
 25 67  1  0  0  0  0
 26 78  1  0  0  0  0
 27 79  1  0  0  0  0
 28 31  2  0  0  0  0
 28 78  1  0  0  0  0
 29 80  1  0  0  0  0
 30 81  1  0  0  0  0
 31 82  1  0  0  0  0
 32 61  2  0  0  0  0
 33 62  1  0  0  0  0
 33 65  1  0  0  0  0
 34 66  1  0  0  0  0
 34 72  2  0  0  0  0
 35 50  1  0  0  0  0
 35 69  1  0  0  0  0
 35 73  2  0  0  0  0
 36 58  1  0  0  0  0
 36 63  1  0  0  0  0
 36 74  2  0  0  0  0
 37 57  1  0  0  0  0
 37 67  1  0  0  0  0
 37 75  2  0  0  0  0
 38 59  1  0  0  0  0
 38 70  1  0  0  0  0
 38 76  2  0  0  0  0
 39 64  1  0  0  0  0
 39 68  1  0  0  0  0
 39 77  2  0  0  0  0
 40 43  1  0  0  0  0
 41 50  1  0  0  0  0
 42 63  1  0  0  0  0
 43 45  1  0  0  0  0
 44 46  1  0  0  0  0
 44 47  1  0  0  0  0
 45 49  1  0  0  0  0
 46 51  1  0  0  0  0
 47 64  1  0  0  0  0
 48 51  1  0  0  0  0
 48 64  1  0  0  0  0
 49 69  1  0  0  0  0
 50 63  1  0  0  0  0
 51 62  1  0  0  0  0
 52 59  1  0  0  0  0
 53 60  1  0  0  0  0
 54 60  1  0  0  0  0
 55 60  1  0  0  0  0
 56 71  1  0  0  0  0
 57 79  1  0  0  0  0
 58 60  1  0  0  0  0
 58 70  1  0  0  0  0
 59 71  1  0  0  0  0
 61 62  1  0  0  0  0
M  CHG  1  71   1
M  ISO  4  39 100  57 101  68 100  79 101
M  END
> <Batch ID>
0011

> <Smiles>
CNC(C)C(=O)NC(C(=O)N1Cc2cc([101O:1][101CH2:1]C(=O)Nc3ccc([100NH:0][100C:0](=O)N4CCCC(n5nc(-c6ccc(Oc7ccc(F)cc7F)cc6)c(C(N)=O)c5N)C4)cc3F)ccc2CC1C(=O)NC1CCCc2ccccc21)C(C)(C)C

> <Shape>
0.309

> <Color>
0.101

> <Negative vol penalty>
0.000

$$$$

  -OEChem-04052315443D

 82 90  0     1  0  0  0  0  0999 V2000
  -35.9092  -31.1665   20.0709 C   0  0  0  0  0  0  0  0  0  0  0  0
  -35.9895  -30.0060   20.8339 C   0  0  0  0  0  0  0  0  0  0  0  0
  -23.0463   -9.9635   19.8683 C   0  0  0  0  0  0  0  0  0  0  0  0
  -23.9077   -9.7563   22.1160 C   0  0  0  0  0  0  0  0  0  0  0  0
  -34.6783  -31.7950   19.8874 C   0  0  0  0  0  0  0  0  0  0  0  0
  -34.8389  -29.4739   21.4148 C   0  0  0  0  0  0  0  0  0  0  0  0
  -33.5448  -23.5480   22.2608 C   0  0  0  0  0  0  0  0  0  0  0  0
  -32.7769  -17.2532   23.6545 C   0  0  0  0  0  0  0  0  0  0  0  0
  -32.1462  -16.4571   22.6984 C   0  0  0  0  0  0  0  0  0  0  0  0
  -22.3135   -8.7894   20.0408 C   0  0  0  0  0  0  0  0  0  0  0  0
  -23.1748   -8.5821   22.2886 C   0  0  0  0  0  0  0  0  0  0  0  0
  -33.6592  -22.7121   23.3707 C   0  0  0  0  0  0  0  0  0  0  0  0
  -19.9761   -7.7198   22.9558 C   0  0  0  0  0  0  0  0  0  0  0  0
  -19.2721   -7.5667   24.1502 C   0  0  0  0  0  0  0  0  0  0  0  0
  -31.3390  -23.1072   23.8997 C   0  0  0  0  0  0  0  0  0  0  0  0
  -30.6244  -18.0379   24.4212 C   0  0  0  0  0  0  0  0  0  0  0  0
  -20.5436   -5.5726   24.6441 C   0  0  0  0  0  0  0  0  0  0  0  0
  -23.8435  -10.4470   20.9058 C   0  0  0  0  0  0  0  0  0  0  0  0
  -24.1816  -12.9733   21.0101 C   0  0  0  0  0  0  0  0  0  0  0  0
  -33.5105  -31.2649   20.4583 C   0  0  0  0  0  0  0  0  0  0  0  0
  -32.3275  -24.1795   21.9677 C   0  0  0  0  0  0  0  0  0  0  0  0
  -33.5914  -30.0966   21.2399 C   0  0  0  0  0  0  0  0  0  0  0  0
  -31.2111  -23.9486   22.7840 C   0  0  0  0  0  0  0  0  0  0  0  0
  -32.0160  -18.0435   24.5160 C   0  0  0  0  0  0  0  0  0  0  0  0
  -30.7546  -16.4515   22.6037 C   0  0  0  0  0  0  0  0  0  0  0  0
  -22.3777   -8.0986   21.2510 C   0  0  0  0  0  0  0  0  0  0  0  0
  -32.5569  -22.4939   24.1920 C   0  0  0  0  0  0  0  0  0  0  0  0
  -20.9638   -6.7992   22.6055 C   0  0  0  0  0  0  0  0  0  0  0  0
  -19.5558   -6.4932   24.9943 C   0  0  0  0  0  0  0  0  0  0  0  0
  -29.9936  -17.2419   23.4651 C   0  0  0  0  0  0  0  0  0  0  0  0
  -21.2476   -5.7257   23.4497 C   0  0  0  0  0  0  0  0  0  0  0  0
  -24.6013  -11.6595   20.7280 C   0  0  0  0  0  0  0  0  0  0  0  0
  -25.2570  -13.7576   20.6712 C   0  0  0  0  0  0  0  0  0  0  0  0
  -22.9314  -13.4428   21.5320 C   0  0  0  0  0  0  0  0  0  0  0  0
  -31.3586  -27.2002   21.7675 C   0  0  0  0  0  0  0  0  0  0  0  0
  -28.6079  -25.8397   20.7163 C   0  0  0  0  0  0  0  0  0  0  0  0
  -26.5814  -23.0951   20.6311 C   0  0  0  0  0  0  0  0  0  0  0  0
  -30.7264  -14.8008   20.7008 C   0  0  0  0  0  0  0  0  0  0  0  0
  -32.2102  -32.0058   20.2713 C   0  0  0  0  0  0  0  0  0  0  0  0
  -32.2134  -25.0571   20.7515 C   0  0  0  0  0  0  0  0  0  0  0  0
  -29.8764  -24.5866   22.5013 C   0  0  0  0  0  0  0  0  0  0  0  0
  -30.9787  -31.1698   20.6101 C   0  0  0  0  0  0  0  0  0  0  0  0
  -29.5056  -12.6179   18.1667 C   0  0  0  0  0  0  0  0  0  0  0  0
  -31.1749  -30.4436   21.9371 C   0  0  0  0  0  0  0  0  0  0  0  0
  -28.0864  -12.2820   18.6304 C   0  0  0  0  0  0  0  0  0  0  0  0
  -30.4736  -12.7352   19.3428 C   0  0  0  0  0  0  0  0  0  0  0  0
  -28.6307  -13.3193   20.8698 C   0  0  0  0  0  0  0  0  0  0  0  0
  -32.3617  -29.4751   21.8657 C   0  0  1  0  0  0  0  0  0  0  0  0
  -31.0630  -26.0551   20.8406 C   0  0  1  0  0  0  0  0  0  0  0  0
  -27.6062  -13.2548   19.7253 C   0  0  2  0  0  0  0  0  0  0  0  0
  -24.3818  -22.2980   19.7234 C   0  0  0  0  0  0  0  0  0  0  0  0
  -27.1454  -27.4281   22.8722 C   0  0  0  0  0  0  0  0  0  0  0  0
  -25.1776  -25.9129   22.5555 C   0  0  0  0  0  0  0  0  0  0  0  0
  -25.9704  -27.3361   20.6664 C   0  0  0  0  0  0  0  0  0  0  0  0
  -34.1094  -18.8496   25.5781 C   0  0  0  0  0  0  0  0  0  0  0  0
  -27.8791  -20.9667   19.0359 C   0  0  0  0  0  0  0  0  0  0  0  0
  -31.8916  -19.6831   26.3751 C   0  0  0  0  0  0  0  0  0  0  0  0
  -31.4927  -20.9739   25.6797 C   0  0  0  0  0  0  0  0  0  1  0  0
  -27.3455  -25.3357   21.3730 C   0  0  1  0  0  0  0  0  0  0  0  0
  -25.8798  -22.3964   19.4804 C   0  0  2  0  0  0  0  0  0  0  0  0
  -26.4352  -26.4926   21.8735 C   0  0  0  0  0  0  0  0  0  0  0  0
  -25.8461  -11.6080   20.2467 N   0  0  0  0  0  0  0  0  0  0  0  0
  -26.2179  -12.8993   20.2237 N   0  0  0  0  0  0  0  0  0  0  0  0
  -29.8169  -25.4414   21.3041 N   0  0  0  0  0  0  0  0  0  0  0  0
  -29.9551  -13.6765   20.3377 N   0  0  0  0  0  0  0  0  0  0  0  0
  -25.4650  -15.0907   20.7152 N   0  0  0  0  0  0  0  0  0  0  0  0
  -21.9349  -12.5024   21.8264 N   0  0  0  0  0  0  0  0  0  0  0  0
  -30.1169  -15.6421   21.6311 N   0  0  0  0  0  0  0  0  0  0  0  0
  -31.9879  -28.2690   21.1584 N   0  0  0  0  0  0  0  0  0  0  0  0
  -26.7078  -24.4495   20.4053 N   0  0  0  0  0  0  0  0  0  0  0  0
  -32.6497  -18.8427   25.4768 N   0  0  3  0  0  0  0  0  0  0  0  0
  -26.4191  -21.0181   19.3052 N   0  3  0  0  0  0  0  0  0  0  0  0
  -22.6989  -14.6617   21.7160 O   0  0  0  0  0  0  0  0  0  0  0  0
  -31.0380  -27.1206   22.9476 O   0  0  0  0  0  0  0  0  0  0  0  0
  -28.5245  -26.5544   19.7144 O   0  0  0  0  0  0  0  0  0  0  0  0
  -26.9744  -22.4997   21.6318 O   0  0  0  0  0  0  0  0  0  0  0  0
  -31.8336  -15.0169   20.2015 O   0  0  0  0  0  0  0  0  0  0  0  0
  -21.6625   -6.9530   21.4198 O   0  0  0  0  0  0  0  0  0  0  0  0
  -32.6660  -21.6789   25.2764 O   0  0  0  0  0  0  0  0  0  1  0  0
  -18.8807   -6.3472   26.1420 F   0  0  0  0  0  0  0  0  0  0  0  0
  -28.6555  -17.2445   23.3825 F   0  0  0  0  0  0  0  0  0  0  0  0
  -22.1962   -4.8387   23.1191 F   0  0  0  0  0  0  0  0  0  0  0  0
  1  2  1  0  0  0  0
  1  5  2  0  0  0  0
  2  6  2  0  0  0  0
  3 10  2  0  0  0  0
  3 18  1  0  0  0  0
  4 11  1  0  0  0  0
  4 18  2  0  0  0  0
  5 20  1  0  0  0  0
  6 22  1  0  0  0  0
  7 12  2  0  0  0  0
  7 21  1  0  0  0  0
  8  9  2  0  0  0  0
  8 24  1  0  0  0  0
  9 25  1  0  0  0  0
 10 26  1  0  0  0  0
 11 26  2  0  0  0  0
 12 27  1  0  0  0  0
 13 14  2  0  0  0  0
 13 28  1  0  0  0  0
 14 29  1  0  0  0  0
 15 23  1  0  0  0  0
 15 27  2  0  0  0  0
 16 24  2  0  0  0  0
 16 30  1  0  0  0  0
 17 29  2  0  0  0  0
 17 31  1  0  0  0  0
 18 32  1  0  0  0  0
 19 32  1  0  0  0  0
 19 33  2  0  0  0  0
 19 34  1  0  0  0  0
 20 22  2  0  0  0  0
 20 39  1  0  0  0  0
 21 23  2  0  0  0  0
 21 40  1  0  0  0  0
 22 48  1  0  0  0  0
 23 41  1  0  0  0  0
 24 71  1  0  0  0  0
 25 30  2  0  0  0  0
 25 68  1  0  0  0  0
 26 78  1  0  0  0  0
 27 79  1  0  0  0  0
 28 31  2  0  0  0  0
 28 78  1  0  0  0  0
 29 80  1  0  0  0  0
 30 81  1  0  0  0  0
 31 82  1  0  0  0  0
 32 62  2  0  0  0  0
 33 63  1  0  0  0  0
 33 66  1  0  0  0  0
 34 67  1  0  0  0  0
 34 73  2  0  0  0  0
 35 49  1  0  0  0  0
 35 69  1  0  0  0  0
 35 74  2  0  0  0  0
 36 59  1  0  0  0  0
 36 64  1  0  0  0  0
 36 75  2  0  0  0  0
 37 60  1  0  0  0  0
 37 70  1  0  0  0  0
 37 76  2  0  0  0  0
 38 65  1  0  0  0  0
 38 68  1  0  0  0  0
 38 77  2  0  0  0  0
 39 42  1  0  0  0  0
 40 49  1  0  0  0  0
 41 64  1  0  0  0  0
 42 44  1  0  0  0  0
 43 45  1  0  0  0  0
 43 46  1  0  0  0  0
 44 48  1  0  0  0  0
 45 50  1  0  0  0  0
 46 65  1  0  0  0  0
 47 50  1  0  0  0  0
 47 65  1  0  0  0  0
 48 69  1  0  0  0  0
 49 64  1  0  0  0  0
 50 63  1  0  0  0  0
 51 60  1  0  0  0  0
 52 61  1  0  0  0  0
 53 61  1  0  0  0  0
 54 61  1  0  0  0  0
 55 71  1  0  0  0  0
 56 72  1  0  0  0  0
 57 58  1  0  0  0  0
 57 71  1  0  0  0  0
 58 79  1  0  0  0  0
 59 61  1  0  0  0  0
 59 70  1  0  0  0  0
 60 72  1  0  0  0  0
 62 63  1  0  0  0  0
M  CHG  1  72   1
M  ISO  4  38 100  58 101  68 100  79 101
M  END
> <Batch ID>
0011

> <Smiles>
CNC(C)C(=O)NC(C(=O)N1Cc2cc([101O:1][101CH2:1]CN(C)c3ccc([100NH:0][100C:0](=O)N4CCCC(n5nc(-c6ccc(Oc7ccc(F)cc7F)cc6)c(C(N)=O)c5N)C4)c(F)c3)ccc2CC1C(=O)NC1CCCc2ccccc21)C(C)(C)C

> <Shape>
0.212

> <Color>
0.214

> <Negative vol penalty>
0.000

$$$$

  -OEChem-04052315443D

 81 89  0     1  0  0  0  0  0999 V2000
  -25.9048  -35.3833   23.5013 C   0  0  0  0  0  0  0  0  0  0  0  0
  -26.4772  -34.1446   23.2305 C   0  0  0  0  0  0  0  0  0  0  0  0
  -24.9139  -12.0741   21.6186 C   0  0  0  0  0  0  0  0  0  0  0  0
  -25.9344  -12.0588   19.4288 C   0  0  0  0  0  0  0  0  0  0  0  0
  -24.5960  -35.4563   23.9765 C   0  0  0  0  0  0  0  0  0  0  0  0
  -25.7414  -32.9780   23.4358 C   0  0  0  0  0  0  0  0  0  0  0  0
  -26.1888  -29.6993   19.6024 C   0  0  0  0  0  0  0  0  0  0  0  0
  -24.4264  -10.7855   21.4005 C   0  0  0  0  0  0  0  0  0  0  0  0
  -25.4469  -10.7702   19.2107 C   0  0  0  0  0  0  0  0  0  0  0  0
  -27.3585  -28.9429   19.5447 C   0  0  0  0  0  0  0  0  0  0  0  0
  -21.8703   -9.3401   19.7268 C   0  0  0  0  0  0  0  0  0  0  0  0
  -20.5441   -9.0824   20.0736 C   0  0  0  0  0  0  0  0  0  0  0  0
  -26.1898  -27.0722   20.5215 C   0  0  0  0  0  0  0  0  0  0  0  0
  -30.1953  -20.9574   18.7179 C   0  0  0  0  0  0  0  0  0  0  0  0
  -30.8826  -23.2383   18.3158 C   0  0  0  0  0  0  0  0  0  0  0  0
  -28.5336  -22.6924   18.4614 C   0  0  0  0  0  0  0  0  0  0  0  0
  -21.2800   -7.3816   21.6237 C   0  0  0  0  0  0  0  0  0  0  0  0
  -25.6679  -12.7107   20.6328 C   0  0  0  0  0  0  0  0  0  0  0  0
  -27.4067  -14.3983   21.4303 C   0  0  0  0  0  0  0  0  0  0  0  0
  -23.8406  -34.2905   24.1785 C   0  0  0  0  0  0  0  0  0  0  0  0
  -25.0116  -29.1505   20.1310 C   0  0  0  0  0  0  0  0  0  0  0  0
  -24.4218  -33.0354   23.9153 C   0  0  0  0  0  0  0  0  0  0  0  0
  -25.0058  -27.8230   20.5824 C   0  0  0  0  0  0  0  0  0  0  0  0
  -31.2074  -21.8996   18.5353 C   0  0  0  0  0  0  0  0  0  0  0  0
  -28.8584  -21.3537   18.6809 C   0  0  0  0  0  0  0  0  0  0  0  0
  -24.6929  -10.1336   20.1966 C   0  0  0  0  0  0  0  0  0  0  0  0
  -27.3599  -27.6301   20.0070 C   0  0  0  0  0  0  0  0  0  0  0  0
  -22.9014   -8.6185   20.3283 C   0  0  0  0  0  0  0  0  0  0  0  0
  -29.5457  -23.6347   18.2788 C   0  0  0  0  0  0  0  0  0  0  0  0
  -20.2490   -8.1031   21.0221 C   0  0  0  0  0  0  0  0  0  0  0  0
  -22.6063   -7.6393   21.2768 C   0  0  0  0  0  0  0  0  0  0  0  0
  -26.1712  -14.0420   20.8573 C   0  0  0  0  0  0  0  0  0  0  0  0
  -27.4068  -15.7718   21.4198 C   0  0  0  0  0  0  0  0  0  0  0  0
  -28.4602  -13.5625   21.9276 C   0  0  0  0  0  0  0  0  0  0  0  0
  -23.1309  -29.8323   22.6011 C   0  0  0  0  0  0  0  0  0  0  0  0
  -21.2677  -27.5033   21.3259 C   0  0  0  0  0  0  0  0  0  0  0  0
  -21.0486  -24.7116   19.3751 C   0  0  0  0  0  0  0  0  0  0  0  0
  -26.4540  -20.6232   18.8587 C   0  0  0  0  0  0  0  0  0  0  0  0
  -22.4459  -34.4171   24.7384 C   0  0  0  0  0  0  0  0  0  0  0  0
  -23.7513  -29.9709   20.1615 C   0  0  0  0  0  0  0  0  0  0  0  0
  -23.7631  -27.1805   21.1402 C   0  0  0  0  0  0  0  0  0  0  0  0
  -21.6061  -33.1531   24.5732 C   0  0  0  0  0  0  0  0  0  0  0  0
  -23.6808  -19.0585   20.4520 C   0  0  0  0  0  0  0  0  0  0  0  0
  -22.4069  -31.9224   24.9864 C   0  0  0  0  0  0  0  0  0  0  0  0
  -24.1832  -17.6432   20.7466 C   0  0  0  0  0  0  0  0  0  0  0  0
  -24.2123  -19.5830   19.1193 C   0  0  0  0  0  0  0  0  0  0  0  0
  -26.1729  -18.0976   19.2562 C   0  0  0  0  0  0  0  0  0  0  0  0
  -23.6473  -31.7487   24.1017 C   0  0  1  0  0  0  0  0  0  0  0  0
  -22.7421  -29.4777   21.1937 C   0  0  1  0  0  0  0  0  0  0  0  0
  -25.7164  -17.5515   20.6189 C   0  0  2  0  0  0  0  0  0  0  0  0
  -32.6367  -21.4761   18.5746 C   0  0  0  0  0  0  0  0  0  0  0  0
  -19.3999  -23.0084   18.5515 C   0  0  0  0  0  0  0  0  0  0  0  0
  -21.2978  -26.1543   24.0625 C   0  0  0  0  0  0  0  0  0  0  0  0
  -20.4791  -24.0600   22.9618 C   0  0  0  0  0  0  0  0  0  0  0  0
  -19.0791  -26.1239   22.9088 C   0  0  0  0  0  0  0  0  0  0  0  0
  -21.5214  -25.4505   16.5485 C   0  0  0  0  0  0  0  0  0  0  0  0
  -29.4166  -27.1848   18.8990 C   0  0  0  0  0  0  0  0  0  1  0  0
  -30.1613  -25.9190   18.5212 C   0  0  0  0  0  0  0  0  0  0  0  0
  -21.1672  -26.0058   21.4883 C   0  0  1  0  0  0  0  0  0  0  0  0
  -20.0880  -24.3333   18.2621 C   0  0  2  0  0  0  0  0  0  0  0  0
  -20.5299  -25.5984   22.8467 C   0  0  0  0  0  0  0  0  0  0  0  0
  -25.4395  -15.1035   20.5083 N   0  0  0  0  0  0  0  0  0  0  0  0
  -26.2175  -16.1403   20.8631 N   0  0  0  0  0  0  0  0  0  0  0  0
  -22.5576  -28.0255   21.1548 N   0  0  0  0  0  0  0  0  0  0  0  0
  -25.6716  -19.4685   19.0719 N   0  0  0  0  0  0  0  0  0  0  0  0
  -28.3081  -16.6881   21.8326 N   0  0  0  0  0  0  0  0  0  0  0  0
  -28.2972  -12.1720   21.8622 N   0  0  0  0  0  0  0  0  0  0  0  0
  -27.8300  -20.3967   18.8661 N   0  0  0  0  0  0  0  0  0  0  0  0
  -23.2789  -31.1888   22.8190 N   0  0  0  0  0  0  0  0  0  0  0  0
  -20.4455  -25.5159   20.3189 N   0  0  0  0  0  0  0  0  0  0  0  0
  -20.8169  -24.2116   16.9679 N   0  3  0  0  0  0  0  0  0  0  0  0
  -29.5078  -14.0348   22.4305 O   0  0  0  0  0  0  0  0  0  0  0  0
  -23.2838  -28.9414   23.4285 O   0  0  0  0  0  0  0  0  0  0  0  0
  -20.2390  -28.1838   21.3427 O   0  0  0  0  0  0  0  0  0  0  0  0
  -22.2160  -24.3286   19.4062 O   0  0  0  0  0  0  0  0  0  0  0  0
  -25.9420  -21.7356   18.7097 O   0  0  0  0  0  0  0  0  0  0  0  0
  -24.2176   -8.8761   19.9835 O   0  0  0  0  0  0  0  0  0  0  0  0
  -28.5004  -26.8897   19.9525 O   0  0  0  0  0  0  0  0  0  1  0  0
  -29.2268  -24.9495   18.0628 O   0  0  0  0  0  0  0  0  0  0  0  0
  -18.9754   -7.8568   21.3562 F   0  0  0  0  0  0  0  0  0  0  0  0
  -23.5927   -6.9437   21.8590 F   0  0  0  0  0  0  0  0  0  0  0  0
  1  2  1  0  0  0  0
  1  5  2  0  0  0  0
  2  6  2  0  0  0  0
  3  8  2  0  0  0  0
  3 18  1  0  0  0  0
  4  9  1  0  0  0  0
  4 18  2  0  0  0  0
  5 20  1  0  0  0  0
  6 22  1  0  0  0  0
  7 10  2  0  0  0  0
  7 21  1  0  0  0  0
  8 26  1  0  0  0  0
  9 26  2  0  0  0  0
 10 27  1  0  0  0  0
 11 12  2  0  0  0  0
 11 28  1  0  0  0  0
 12 30  1  0  0  0  0
 13 23  1  0  0  0  0
 13 27  2  0  0  0  0
 14 24  1  0  0  0  0
 14 25  2  0  0  0  0
 15 24  2  0  0  0  0
 15 29  1  0  0  0  0
 16 25  1  0  0  0  0
 16 29  2  0  0  0  0
 17 30  2  0  0  0  0
 17 31  1  0  0  0  0
 18 32  1  0  0  0  0
 19 32  1  0  0  0  0
 19 33  2  0  0  0  0
 19 34  1  0  0  0  0
 20 22  2  0  0  0  0
 20 39  1  0  0  0  0
 21 23  2  0  0  0  0
 21 40  1  0  0  0  0
 22 48  1  0  0  0  0
 23 41  1  0  0  0  0
 24 51  1  0  0  0  0
 25 68  1  0  0  0  0
 26 77  1  0  0  0  0
 27 78  1  0  0  0  0
 28 31  2  0  0  0  0
 28 77  1  0  0  0  0
 29 79  1  0  0  0  0
 30 80  1  0  0  0  0
 31 81  1  0  0  0  0
 32 62  2  0  0  0  0
 33 63  1  0  0  0  0
 33 66  1  0  0  0  0
 34 67  1  0  0  0  0
 34 72  2  0  0  0  0
 35 49  1  0  0  0  0
 35 69  1  0  0  0  0
 35 73  2  0  0  0  0
 36 59  1  0  0  0  0
 36 64  1  0  0  0  0
 36 74  2  0  0  0  0
 37 60  1  0  0  0  0
 37 70  1  0  0  0  0
 37 75  2  0  0  0  0
 38 65  1  0  0  0  0
 38 68  1  0  0  0  0
 38 76  2  0  0  0  0
 39 42  1  0  0  0  0
 40 49  1  0  0  0  0
 41 64  1  0  0  0  0
 42 44  1  0  0  0  0
 43 45  1  0  0  0  0
 43 46  1  0  0  0  0
 44 48  1  0  0  0  0
 45 50  1  0  0  0  0
 46 65  1  0  0  0  0
 47 50  1  0  0  0  0
 47 65  1  0  0  0  0
 48 69  1  0  0  0  0
 49 64  1  0  0  0  0
 50 63  1  0  0  0  0
 52 60  1  0  0  0  0
 53 61  1  0  0  0  0
 54 61  1  0  0  0  0
 55 61  1  0  0  0  0
 56 71  1  0  0  0  0
 57 58  1  0  0  0  0
 57 78  1  0  0  0  0
 58 79  1  0  0  0  0
 59 61  1  0  0  0  0
 59 70  1  0  0  0  0
 60 71  1  0  0  0  0
 62 63  1  0  0  0  0
M  CHG  1  71   1
M  ISO  4  38 100  57 101  68 100  78 101
M  END
> <Batch ID>
0011

> <Smiles>
CNC(C)C(=O)NC(C(=O)N1Cc2cc([101O:1][101CH2:1]COc3cc(C)cc([100NH:0][100C:0](=O)N4CCCC(n5nc(-c6ccc(Oc7ccc(F)cc7F)cc6)c(C(N)=O)c5N)C4)c3)ccc2CC1C(=O)NC1CCCc2ccccc21)C(C)(C)C

> <Shape>
0.278

> <Color>
0.082

> <Negative vol penalty>
0.000

$$$$

  -OEChem-04052315443D

 84 92  0     1  0  0  0  0  0999 V2000
  -40.2261  -26.3147   19.0114 C   0  0  0  0  0  0  0  0  0  0  0  0
  -39.5088  -25.6860   20.0242 C   0  0  0  0  0  0  0  0  0  0  0  0
  -23.0424   -9.9029   19.9038 C   0  0  0  0  0  0  0  0  0  0  0  0
  -23.8251   -9.8266   22.1882 C   0  0  0  0  0  0  0  0  0  0  0  0
  -39.6445  -27.3565   18.2902 C   0  0  0  0  0  0  0  0  0  0  0  0
  -38.2098  -26.0997   20.3170 C   0  0  0  0  0  0  0  0  0  0  0  0
  -35.0256  -22.2108   20.9361 C   0  0  0  0  0  0  0  0  0  0  0  0
  -32.1328  -16.4400   22.6215 C   0  0  0  0  0  0  0  0  0  0  0  0
  -32.7593  -17.2795   23.5425 C   0  0  0  0  0  0  0  0  0  0  0  0
  -22.2880   -8.7505   20.1237 C   0  0  0  0  0  0  0  0  0  0  0  0
  -23.0707   -8.6742   22.4082 C   0  0  0  0  0  0  0  0  0  0  0  0
  -35.0768  -21.5337   22.1537 C   0  0  0  0  0  0  0  0  0  0  0  0
  -19.3455   -7.9396   21.5787 C   0  0  0  0  0  0  0  0  0  0  0  0
  -18.0334   -7.9237   21.1057 C   0  0  0  0  0  0  0  0  0  0  0  0
  -33.1412  -22.7590   22.9096 C   0  0  0  0  0  0  0  0  0  0  0  0
  -18.5577   -6.0187   19.7152 C   0  0  0  0  0  0  0  0  0  0  0  0
  -23.8110  -10.4409   20.9360 C   0  0  0  0  0  0  0  0  0  0  0  0
  -24.1804  -12.9647   20.8947 C   0  0  0  0  0  0  0  0  0  0  0  0
  -38.3342  -27.7767   18.5679 C   0  0  0  0  0  0  0  0  0  0  0  0
  -34.0368  -23.1767   20.6998 C   0  0  0  0  0  0  0  0  0  0  0  0
  -37.6106  -27.1491   19.5997 C   0  0  0  0  0  0  0  0  0  0  0  0
  -33.0781  -23.4452   21.6872 C   0  0  0  0  0  0  0  0  0  0  0  0
  -29.9816  -17.3161   23.2863 C   0  0  0  0  0  0  0  0  0  0  0  0
  -30.7439  -16.4584   22.4933 C   0  0  0  0  0  0  0  0  0  0  0  0
  -31.9971  -18.1372   24.3355 C   0  0  0  0  0  0  0  0  0  0  0  0
  -22.3021   -8.1361   21.3759 C   0  0  0  0  0  0  0  0  0  0  0  0
  -34.1362  -21.8098   23.1417 C   0  0  0  0  0  0  0  0  0  0  0  0
  -20.2638   -6.9951   21.1199 C   0  0  0  0  0  0  0  0  0  0  0  0
  -30.6082  -18.1556   24.2074 C   0  0  0  0  0  0  0  0  0  0  0  0
  -17.6395   -6.9632   20.1740 C   0  0  0  0  0  0  0  0  0  0  0  0
  -19.8699   -6.0347   20.1882 C   0  0  0  0  0  0  0  0  0  0  0  0
  -24.5910  -11.6310   20.7092 C   0  0  0  0  0  0  0  0  0  0  0  0
  -25.2773  -13.7135   20.5447 C   0  0  0  0  0  0  0  0  0  0  0  0
  -22.9201  -13.4806   21.3433 C   0  0  0  0  0  0  0  0  0  0  0  0
  -34.0486  -26.2956   20.0866 C   0  0  0  0  0  0  0  0  0  0  0  0
  -30.8640  -25.8320   19.6800 C   0  0  0  0  0  0  0  0  0  0  0  0
  -28.0983  -23.9546   20.3681 C   0  0  0  0  0  0  0  0  0  0  0  0
  -30.7566  -14.6923   20.6969 C   0  0  0  0  0  0  0  0  0  0  0  0
  -37.7649  -28.9387   17.7930 C   0  0  0  0  0  0  0  0  0  0  0  0
  -33.9791  -23.8792   19.3710 C   0  0  0  0  0  0  0  0  0  0  0  0
  -31.9841  -24.4585   21.4755 C   0  0  0  0  0  0  0  0  0  0  0  0
  -36.2487  -29.0676   17.9147 C   0  0  0  0  0  0  0  0  0  0  0  0
  -29.5912  -12.3696   18.2630 C   0  0  0  0  0  0  0  0  0  0  0  0
  -35.8165  -28.9309   19.3712 C   0  0  0  0  0  0  0  0  0  0  0  0
  -28.1527  -12.0801   18.6977 C   0  0  0  0  0  0  0  0  0  0  0  0
  -30.5208  -12.5489   19.4619 C   0  0  0  0  0  0  0  0  0  0  0  0
  -28.6360  -13.2489   20.8856 C   0  0  0  0  0  0  0  0  0  0  0  0
  -36.1901  -27.5528   19.9305 C   0  0  1  0  0  0  0  0  0  0  0  0
  -33.2396  -25.2121   19.4315 C   0  0  1  0  0  0  0  0  0  0  0  0
  -27.6496  -13.1250   19.7129 C   0  0  2  0  0  0  0  0  0  0  0  0
  -28.4911  -17.3425   23.1552 C   0  0  0  0  0  0  0  0  0  0  0  0
  -25.6307  -23.8463   19.9248 C   0  0  0  0  0  0  0  0  0  0  0  0
  -34.3762  -19.5798   26.8015 C   0  0  0  0  0  0  0  0  0  0  0  0
  -30.4068  -28.0830   21.6885 C   0  0  0  0  0  0  0  0  0  0  0  0
  -28.0395  -27.3015   21.9200 C   0  0  0  0  0  0  0  0  0  0  0  0
  -28.8714  -28.1183   19.7147 C   0  0  0  0  0  0  0  0  0  0  0  0
  -28.3372  -21.3277   19.0261 C   0  0  0  0  0  0  0  0  0  0  0  0
  -29.4142  -18.4876   26.2372 C   0  0  0  0  0  0  0  0  0  0  0  0
  -34.7091  -19.8238   24.3180 C   0  0  0  0  0  0  0  0  0  1  0  0
  -29.6536  -25.8756   20.5811 C   0  0  1  0  0  0  0  0  0  0  0  0
  -27.0101  -23.3969   19.4686 C   0  0  2  0  0  0  0  0  0  0  0  0
  -34.0693  -18.9944   25.4294 C   0  0  2  0  0  0  0  0  0  0  0  0
  -29.2645  -27.3269   20.9811 C   0  0  0  0  0  0  0  0  0  0  0  0
  -25.8505  -11.5349   20.2750 N   0  0  0  0  0  0  0  0  0  0  0  0
  -26.2407  -12.8177   20.1846 N   0  0  0  0  0  0  0  0  0  0  0  0
  -31.9736  -25.1235   20.1621 N   0  0  0  0  0  0  0  0  0  0  0  0
  -29.9823  -13.5567   20.3781 N   0  0  0  0  0  0  0  0  0  0  0  0
  -25.5022  -15.0443   20.5129 N   0  0  0  0  0  0  0  0  0  0  0  0
  -21.9013  -12.5721   21.6612 N   0  0  0  0  0  0  0  0  0  0  0  0
  -30.1280  -15.5973   21.5516 N   0  0  0  0  0  0  0  0  0  0  0  0
  -32.6322  -18.9626   25.2450 N   0  0  0  0  0  0  0  0  0  0  0  0
  -35.2569  -26.5489   19.4659 N   0  0  0  0  0  0  0  0  0  0  0  0
  -28.6000  -25.1447   19.8853 N   0  0  0  0  0  0  0  0  0  0  0  0
  -27.0452  -21.9071   19.4756 N   0  3  0  0  0  0  0  0  0  0  0  0
  -22.6985  -14.7112   21.4431 O   0  0  0  0  0  0  0  0  0  0  0  0
  -33.6085  -26.8610   21.0808 O   0  0  0  0  0  0  0  0  0  0  0  0
  -30.8237  -26.3995   18.5854 O   0  0  0  0  0  0  0  0  0  0  0  0
  -28.4640  -23.3927   21.3982 O   0  0  0  0  0  0  0  0  0  0  0  0
  -31.8828  -14.8637   20.2234 O   0  0  0  0  0  0  0  0  0  0  0  0
  -21.5658   -7.0117   21.5910 O   0  0  0  0  0  0  0  0  0  0  0  0
  -29.8615  -18.9945   24.9826 O   0  0  0  0  0  0  0  0  0  0  0  0
  -34.1843  -21.1507   24.3314 O   0  0  0  0  0  0  0  0  0  1  0  0
  -16.3790   -6.9471   19.7211 F   0  0  0  0  0  0  0  0  0  0  0  0
  -20.7472   -5.1240   19.7446 F   0  0  0  0  0  0  0  0  0  0  0  0
  1  2  1  0  0  0  0
  1  5  2  0  0  0  0
  2  6  2  0  0  0  0
  3 10  2  0  0  0  0
  3 17  1  0  0  0  0
  4 11  1  0  0  0  0
  4 17  2  0  0  0  0
  5 19  1  0  0  0  0
  6 21  1  0  0  0  0
  7 12  2  0  0  0  0
  7 20  1  0  0  0  0
  8  9  2  0  0  0  0
  8 24  1  0  0  0  0
  9 25  1  0  0  0  0
 10 26  1  0  0  0  0
 11 26  2  0  0  0  0
 12 27  1  0  0  0  0
 13 14  2  0  0  0  0
 13 28  1  0  0  0  0
 14 30  1  0  0  0  0
 15 22  1  0  0  0  0
 15 27  2  0  0  0  0
 16 30  2  0  0  0  0
 16 31  1  0  0  0  0
 17 32  1  0  0  0  0
 18 32  1  0  0  0  0
 18 33  2  0  0  0  0
 18 34  1  0  0  0  0
 19 21  2  0  0  0  0
 19 39  1  0  0  0  0
 20 22  2  0  0  0  0
 20 40  1  0  0  0  0
 21 48  1  0  0  0  0
 22 41  1  0  0  0  0
 23 24  2  0  0  0  0
 23 29  1  0  0  0  0
 23 51  1  0  0  0  0
 24 70  1  0  0  0  0
 25 29  2  0  0  0  0
 25 71  1  0  0  0  0
 26 80  1  0  0  0  0
 27 82  1  0  0  0  0
 28 31  2  0  0  0  0
 28 80  1  0  0  0  0
 29 81  1  0  0  0  0
 30 83  1  0  0  0  0
 31 84  1  0  0  0  0
 32 64  2  0  0  0  0
 33 65  1  0  0  0  0
 33 68  1  0  0  0  0
 34 69  1  0  0  0  0
 34 75  2  0  0  0  0
 35 49  1  0  0  0  0
 35 72  1  0  0  0  0
 35 76  2  0  0  0  0
 36 60  1  0  0  0  0
 36 66  1  0  0  0  0
 36 77  2  0  0  0  0
 37 61  1  0  0  0  0
 37 73  1  0  0  0  0
 37 78  2  0  0  0  0
 38 67  1  0  0  0  0
 38 70  1  0  0  0  0
 38 79  2  0  0  0  0
 39 42  1  0  0  0  0
 40 49  1  0  0  0  0
 41 66  1  0  0  0  0
 42 44  1  0  0  0  0
 43 45  1  0  0  0  0
 43 46  1  0  0  0  0
 44 48  1  0  0  0  0
 45 50  1  0  0  0  0
 46 67  1  0  0  0  0
 47 50  1  0  0  0  0
 47 67  1  0  0  0  0
 48 72  1  0  0  0  0
 49 66  1  0  0  0  0
 50 65  1  0  0  0  0
 52 61  1  0  0  0  0
 53 62  1  0  0  0  0
 54 63  1  0  0  0  0
 55 63  1  0  0  0  0
 56 63  1  0  0  0  0
 57 74  1  0  0  0  0
 58 81  1  0  0  0  0
 59 62  1  0  0  0  0
 59 82  1  0  0  0  0
 60 63  1  0  0  0  0
 60 73  1  0  0  0  0
 61 74  1  0  0  0  0
 62 71  1  0  0  0  0
 64 65  1  0  0  0  0
M  CHG  1  74   1
M  ISO  4  38 100  59 101  70 100  82 101
M  END
> <Batch ID>
0011

> <Smiles>
CNC(C)C(=O)NC(C(=O)N1Cc2cc([101O:1][101CH2:1]C(C)Nc3ccc([100NH:0][100C:0](=O)N4CCCC(n5nc(-c6ccc(Oc7ccc(F)cc7F)cc6)c(C(N)=O)c5N)C4)c(C)c3OC)ccc2CC1C(=O)NC1CCCc2ccccc21)C(C)(C)C

> <Shape>
0.206

> <Color>
0.194

> <Negative vol penalty>
0.000

$$$$

  -OEChem-04052315443D

 87 95  0     1  0  0  0  0  0999 V2000
  -19.5615  -29.6062   26.5054 C   0  0  0  0  0  0  0  0  0  0  0  0
  -20.8509  -29.2104   26.1645 C   0  0  0  0  0  0  0  0  0  0  0  0
  -24.9196  -11.7101   20.7126 C   0  0  0  0  0  0  0  0  0  0  0  0
  -25.3072  -12.6984   22.8829 C   0  0  0  0  0  0  0  0  0  0  0  0
  -18.5186  -29.4388   25.5953 C   0  0  0  0  0  0  0  0  0  0  0  0
  -21.0980  -28.6461   24.9135 C   0  0  0  0  0  0  0  0  0  0  0  0
  -26.1518  -29.2938   21.5157 C   0  0  0  0  0  0  0  0  0  0  0  0
  -25.1442  -10.4426   21.2496 C   0  0  0  0  0  0  0  0  0  0  0  0
  -25.5318  -11.4308   23.4200 C   0  0  0  0  0  0  0  0  0  0  0  0
  -27.2720  -28.4834   21.3368 C   0  0  0  0  0  0  0  0  0  0  0  0
  -23.4338   -8.1763   23.0858 C   0  0  0  0  0  0  0  0  0  0  0  0
  -22.5464   -7.1581   22.7375 C   0  0  0  0  0  0  0  0  0  0  0  0
  -26.2735  -27.5527   19.3478 C   0  0  0  0  0  0  0  0  0  0  0  0
  -29.9284  -21.3363   21.8157 C   0  0  0  0  0  0  0  0  0  0  0  0
  -30.1006  -22.1976   24.0663 C   0  0  0  0  0  0  0  0  0  0  0  0
  -28.8369  -20.1837   23.6369 C   0  0  0  0  0  0  0  0  0  0  0  0
  -24.3703   -5.8966   21.7786 C   0  0  0  0  0  0  0  0  0  0  0  0
  -25.0011  -12.8381   21.5292 C   0  0  0  0  0  0  0  0  0  0  0  0
  -23.5404  -14.8278   20.8850 C   0  0  0  0  0  0  0  0  0  0  0  0
  -18.7548  -28.8811   24.3289 C   0  0  0  0  0  0  0  0  0  0  0  0
  -25.0775  -29.2318   20.6165 C   0  0  0  0  0  0  0  0  0  0  0  0
  -20.0570  -28.4699   23.9861 C   0  0  0  0  0  0  0  0  0  0  0  0
  -25.1419  -28.3653   19.5161 C   0  0  0  0  0  0  0  0  0  0  0  0
  -30.4070  -22.2947   22.7090 C   0  0  0  0  0  0  0  0  0  0  0  0
  -29.1433  -20.2808   22.2796 C   0  0  0  0  0  0  0  0  0  0  0  0
  -29.3155  -21.1421   24.5303 C   0  0  0  0  0  0  0  0  0  0  0  0
  -25.4503  -10.3029   22.6033 C   0  0  0  0  0  0  0  0  0  0  0  0
  -27.3318  -27.6105   20.2543 C   0  0  0  0  0  0  0  0  0  0  0  0
  -24.7895   -8.0548   22.7805 C   0  0  0  0  0  0  0  0  0  0  0  0
  -23.0146   -6.0183   22.0839 C   0  0  0  0  0  0  0  0  0  0  0  0
  -25.2577   -6.9149   22.1270 C   0  0  0  0  0  0  0  0  0  0  0  0
  -24.7698  -14.1478   20.9749 C   0  0  0  0  0  0  0  0  0  0  0  0
  -23.8525  -16.0236   20.2857 C   0  0  0  0  0  0  0  0  0  0  0  0
  -22.2333  -14.4154   21.3058 C   0  0  0  0  0  0  0  0  0  0  0  0
  -22.0029  -28.4582   20.8451 C   0  0  0  0  0  0  0  0  0  0  0  0
  -21.9241  -29.4551   17.7592 C   0  0  0  0  0  0  0  0  0  0  0  0
  -29.8055  -25.0760   21.0320 C   0  0  0  0  0  0  0  0  0  0  0  0
  -23.6199  -30.0130   14.8506 C   0  0  0  0  0  0  0  0  0  0  0  0
  -28.8689  -19.2571   19.9942 C   0  0  0  0  0  0  0  0  0  0  0  0
  -17.5871  -28.6766   23.3965 C   0  0  0  0  0  0  0  0  0  0  0  0
  -23.8878  -30.1320   20.8086 C   0  0  0  0  0  0  0  0  0  0  0  0
  -24.0239  -28.2755   18.5108 C   0  0  0  0  0  0  0  0  0  0  0  0
  -18.0007  -28.4152   21.9506 C   0  0  0  0  0  0  0  0  0  0  0  0
  -26.9944  -17.9826   17.2485 C   0  0  0  0  0  0  0  0  0  0  0  0
  -19.1189  -27.3792   21.8942 C   0  0  0  0  0  0  0  0  0  0  0  0
  -26.0950  -16.9207   17.8853 C   0  0  0  0  0  0  0  0  0  0  0  0
  -28.3770  -18.0179   17.8972 C   0  0  0  0  0  0  0  0  0  0  0  0
  -27.4741  -17.0960   19.9958 C   0  0  0  0  0  0  0  0  0  0  0  0
  -20.3693  -27.8766   22.6294 C   0  0  1  0  0  0  0  0  0  0  0  0
  -22.6295  -29.6146   20.1186 C   0  0  1  0  0  0  0  0  0  0  0  0
  -26.0493  -17.0669   19.4190 C   0  0  2  0  0  0  0  0  0  0  0  0
  -26.8172  -22.0084   26.3038 C   0  0  0  0  0  0  0  0  0  0  0  0
  -30.8318  -19.9448   27.0611 C   0  0  0  0  0  0  0  0  0  0  0  0
  -23.2789  -30.7940   12.4903 C   0  0  0  0  0  0  0  0  0  0  0  0
  -20.6672  -26.7658   17.0536 C   0  0  0  0  0  0  0  0  0  0  0  0
  -21.2242  -27.2138   14.6541 C   0  0  0  0  0  0  0  0  0  0  0  0
  -19.6621  -28.7287   15.8740 C   0  0  0  0  0  0  0  0  0  0  0  0
  -25.4691  -32.2947   15.2155 C   0  0  0  0  0  0  0  0  0  0  0  0
  -31.2520  -23.4309   22.2096 C   0  0  0  0  0  0  0  0  0  0  0  0
  -29.1283  -26.4121   21.2504 C   0  0  0  0  0  0  0  0  0  1  0  0
  -28.2809  -22.1071   26.5695 C   0  0  0  0  0  0  0  0  0  0  0  0
  -29.3973  -19.8725   26.6614 C   0  0  0  0  0  0  0  0  0  0  0  0
  -22.1305  -28.7955   16.4171 C   0  0  1  0  0  0  0  0  0  0  0  0
  -23.6408  -31.2039   13.9094 C   0  0  2  0  0  0  0  0  0  0  0  0
  -20.9414  -27.8760   16.0195 C   0  0  0  0  0  0  0  0  0  0  0  0
  -25.7870  -14.8528   20.4727 N   0  0  0  0  0  0  0  0  0  0  0  0
  -25.1973  -15.9883   20.0615 N   0  0  0  0  0  0  0  0  0  0  0  0
  -22.8794  -29.1714   18.7455 N   0  0  0  0  0  0  0  0  0  0  0  0
  -28.2551  -18.1624   19.3495 N   0  0  0  0  0  0  0  0  0  0  0  0
  -23.1050  -17.0912   19.9339 N   0  0  0  0  0  0  0  0  0  0  0  0
  -22.0902  -13.1561   21.9040 N   0  0  0  0  0  0  0  0  0  0  0  0
  -28.6572  -19.3077   21.3716 N   0  0  0  0  0  0  0  0  0  0  0  0
  -21.0898  -28.8301   21.8132 N   0  0  0  0  0  0  0  0  0  0  0  0
  -30.5123  -24.6705   22.1532 N   0  0  0  0  0  0  0  0  0  0  0  0
  -22.3957  -29.8726   15.4694 N   0  0  0  0  0  0  0  0  0  0  0  0
  -29.0061  -21.0440   25.9032 N   0  0  0  0  0  0  0  0  0  0  0  0
  -24.9959  -31.8238   13.8884 N   0  3  0  0  0  0  0  0  0  0  0  0
  -21.2194  -15.1355   21.1408 O   0  0  0  0  0  0  0  0  0  0  0  0
  -22.3230  -27.3132   20.5481 O   0  0  0  0  0  0  0  0  0  0  0  0
  -20.9551  -30.2003   17.9242 O   0  0  0  0  0  0  0  0  0  0  0  0
  -29.7208  -24.4528   19.9773 O   0  0  0  0  0  0  0  0  0  0  0  0
  -24.5911  -29.2785   15.0173 O   0  0  0  0  0  0  0  0  0  0  0  0
  -29.5106  -20.1034   19.3666 O   0  0  0  0  0  0  0  0  0  0  0  0
  -25.6694   -9.0661   23.1277 O   0  0  0  0  0  0  0  0  0  0  0  0
  -28.4237  -26.8179   20.0777 O   0  0  0  0  0  0  0  0  0  1  0  0
  -22.1626   -5.0399   21.7508 F   0  0  0  0  0  0  0  0  0  0  0  0
  -26.5591   -6.7919   21.8321 F   0  0  0  0  0  0  0  0  0  0  0  0
  1  2  1  0  0  0  0
  1  5  2  0  0  0  0
  2  6  2  0  0  0  0
  3  8  2  0  0  0  0
  3 18  1  0  0  0  0
  4  9  1  0  0  0  0
  4 18  2  0  0  0  0
  5 20  1  0  0  0  0
  6 22  1  0  0  0  0
  7 10  2  0  0  0  0
  7 21  1  0  0  0  0
  8 27  1  0  0  0  0
  9 27  2  0  0  0  0
 10 28  1  0  0  0  0
 11 12  2  0  0  0  0
 11 29  1  0  0  0  0
 12 30  1  0  0  0  0
 13 23  1  0  0  0  0
 13 28  2  0  0  0  0
 14 24  1  0  0  0  0
 14 25  2  0  0  0  0
 15 24  2  0  0  0  0
 15 26  1  0  0  0  0
 16 25  1  0  0  0  0
 16 26  2  0  0  0  0
 17 30  2  0  0  0  0
 17 31  1  0  0  0  0
 18 32  1  0  0  0  0
 19 32  1  0  0  0  0
 19 33  2  0  0  0  0
 19 34  1  0  0  0  0
 20 22  2  0  0  0  0
 20 40  1  0  0  0  0
 21 23  2  0  0  0  0
 21 41  1  0  0  0  0
 22 49  1  0  0  0  0
 23 42  1  0  0  0  0
 24 59  1  0  0  0  0
 25 72  1  0  0  0  0
 26 76  1  0  0  0  0
 27 84  1  0  0  0  0
 28 85  1  0  0  0  0
 29 31  2  0  0  0  0
 29 84  1  0  0  0  0
 30 86  1  0  0  0  0
 31 87  1  0  0  0  0
 32 66  2  0  0  0  0
 33 67  1  0  0  0  0
 33 70  1  0  0  0  0
 34 71  1  0  0  0  0
 34 78  2  0  0  0  0
 35 50  1  0  0  0  0
 35 73  1  0  0  0  0
 35 79  2  0  0  0  0
 36 63  1  0  0  0  0
 36 68  1  0  0  0  0
 36 80  2  0  0  0  0
 37 60  1  0  0  0  0
 37 74  1  0  0  0  0
 37 81  2  0  0  0  0
 38 64  1  0  0  0  0
 38 75  1  0  0  0  0
 38 82  2  0  0  0  0
 39 69  1  0  0  0  0
 39 72  1  0  0  0  0
 39 83  2  0  0  0  0
 40 43  1  0  0  0  0
 41 50  1  0  0  0  0
 42 68  1  0  0  0  0
 43 45  1  0  0  0  0
 44 46  1  0  0  0  0
 44 47  1  0  0  0  0
 45 49  1  0  0  0  0
 46 51  1  0  0  0  0
 47 69  1  0  0  0  0
 48 51  1  0  0  0  0
 48 69  1  0  0  0  0
 49 73  1  0  0  0  0
 50 68  1  0  0  0  0
 51 67  1  0  0  0  0
 52 61  1  0  0  0  0
 53 62  1  0  0  0  0
 54 64  1  0  0  0  0
 55 65  1  0  0  0  0
 56 65  1  0  0  0  0
 57 65  1  0  0  0  0
 58 77  1  0  0  0  0
 59 74  1  0  0  0  0
 60 85  1  0  0  0  0
 61 76  1  0  0  0  0
 62 76  1  0  0  0  0
 63 65  1  0  0  0  0
 63 75  1  0  0  0  0
 64 77  1  0  0  0  0
 66 67  1  0  0  0  0
M  CHG  1  77   1
M  ISO  4  39 100  60 101  72 100  85 101
M  END
> <Batch ID>
0011

> <Smiles>
CCN(CC)c1cc(CNC(=O)[101CH2:1][101O:1]c2ccc3c(c2)CN(C(=O)C(NC(=O)C(C)NC)C(C)(C)C)C(C(=O)NC2CCCc4ccccc42)C3)cc([100NH:0][100C:0](=O)N2CCCC(n3nc(-c4ccc(Oc5ccc(F)cc5F)cc4)c(C(N)=O)c3N)C2)c1

> <Shape>
0.229

> <Color>
0.110

> <Negative vol penalty>
0.000

$$$$

  -OEChem-04052315443D

 82 90  0     1  0  0  0  0  0999 V2000
  -30.8855  -31.8023   24.9060 C   0  0  0  0  0  0  0  0  0  0  0  0
  -30.3823  -30.6725   24.2690 C   0  0  0  0  0  0  0  0  0  0  0  0
  -24.6230   -8.9744   21.3597 C   0  0  0  0  0  0  0  0  0  0  0  0
  -23.3429  -10.8324   22.2236 C   0  0  0  0  0  0  0  0  0  0  0  0
  -30.0211  -32.6649   25.5788 C   0  0  0  0  0  0  0  0  0  0  0  0
  -29.0145  -30.4041   24.3054 C   0  0  0  0  0  0  0  0  0  0  0  0
  -27.1845  -29.0249   19.7894 C   0  0  0  0  0  0  0  0  0  0  0  0
  -28.1678  -19.0876   20.3270 C   0  0  0  0  0  0  0  0  0  0  0  0
  -27.7295  -20.3999   20.1500 C   0  0  0  0  0  0  0  0  0  0  0  0
  -24.0775   -8.1436   22.3383 C   0  0  0  0  0  0  0  0  0  0  0  0
  -22.7973  -10.0015   23.2022 C   0  0  0  0  0  0  0  0  0  0  0  0
  -27.4235  -27.7141   19.3789 C   0  0  0  0  0  0  0  0  0  0  0  0
  -21.1785   -6.4844   22.8639 C   0  0  0  0  0  0  0  0  0  0  0  0
  -20.7286   -5.2250   22.4677 C   0  0  0  0  0  0  0  0  0  0  0  0
  -25.1913  -27.1009   20.0575 C   0  0  0  0  0  0  0  0  0  0  0  0
  -26.1409  -18.5740   21.5373 C   0  0  0  0  0  0  0  0  0  0  0  0
  -22.2950   -4.1875   23.9866 C   0  0  0  0  0  0  0  0  0  0  0  0
  -24.2558  -10.3189   21.3024 C   0  0  0  0  0  0  0  0  0  0  0  0
  -24.3078  -11.4246   19.0041 C   0  0  0  0  0  0  0  0  0  0  0  0
  -28.6407  -32.4121   25.6153 C   0  0  0  0  0  0  0  0  0  0  0  0
  -25.9488  -29.3816   20.3481 C   0  0  0  0  0  0  0  0  0  0  0  0
  -28.1309  -31.2634   24.9805 C   0  0  0  0  0  0  0  0  0  0  0  0
  -24.9383  -28.4175   20.4720 C   0  0  0  0  0  0  0  0  0  0  0  0
  -27.3734  -18.1746   21.0206 C   0  0  0  0  0  0  0  0  0  0  0  0
  -26.4970  -20.7993   20.6666 C   0  0  0  0  0  0  0  0  0  0  0  0
  -23.1646   -8.6571   23.2595 C   0  0  0  0  0  0  0  0  0  0  0  0
  -26.4279  -26.7512   19.5156 C   0  0  0  0  0  0  0  0  0  0  0  0
  -22.1868   -6.5954   23.8214 C   0  0  0  0  0  0  0  0  0  0  0  0
  -21.2868   -4.0766   23.0291 C   0  0  0  0  0  0  0  0  0  0  0  0
  -22.7450   -5.4470   24.3828 C   0  0  0  0  0  0  0  0  0  0  0  0
  -25.7026  -19.8864   21.3603 C   0  0  0  0  0  0  0  0  0  0  0  0
  -24.8194  -11.1779   20.2922 C   0  0  0  0  0  0  0  0  0  0  0  0
  -25.2018  -12.3029   18.4420 C   0  0  0  0  0  0  0  0  0  0  0  0
  -23.1299  -10.9062   18.3721 C   0  0  0  0  0  0  0  0  0  0  0  0
  -25.0022  -30.5069   23.1662 C   0  0  0  0  0  0  0  0  0  0  0  0
  -22.1256  -30.7101   21.6809 C   0  0  0  0  0  0  0  0  0  0  0  0
  -26.7666  -23.1471   19.8010 C   0  0  0  0  0  0  0  0  0  0  0  0
  -20.0682  -29.6143   19.1882 C   0  0  0  0  0  0  0  0  0  0  0  0
  -29.0147  -16.2827   20.7501 C   0  0  0  0  0  0  0  0  0  0  0  0
  -27.7516  -33.3480   26.3951 C   0  0  0  0  0  0  0  0  0  0  0  0
  -25.6975  -30.8059   20.7614 C   0  0  0  0  0  0  0  0  0  0  0  0
  -23.5874  -28.7539   21.0468 C   0  0  0  0  0  0  0  0  0  0  0  0
  -26.2685  -33.1925   26.0689 C   0  0  0  0  0  0  0  0  0  0  0  0
  -29.8200  -13.5604   18.6012 C   0  0  0  0  0  0  0  0  0  0  0  0
  -25.8765  -31.7184   26.0558 C   0  0  0  0  0  0  0  0  0  0  0  0
  -28.5800  -12.6660   18.6690 C   0  0  0  0  0  0  0  0  0  0  0  0
  -30.1259  -14.2090   19.9501 C   0  0  0  0  0  0  0  0  0  0  0  0
  -27.7633  -14.0390   20.6273 C   0  0  0  0  0  0  0  0  0  0  0  0
  -26.6502  -30.9514   24.9766 C   0  0  1  0  0  0  0  0  0  0  0  0
  -24.5800  -30.9410   21.7910 C   0  0  1  0  0  0  0  0  0  0  0  0
  -27.3775  -13.4149   19.2762 C   0  0  2  0  0  0  0  0  0  0  0  0
  -17.7635  -29.9400   18.2503 C   0  0  0  0  0  0  0  0  0  0  0  0
  -20.9601  -29.0898   23.9887 C   0  0  0  0  0  0  0  0  0  0  0  0
  -18.9487  -28.6419   22.5667 C   0  0  0  0  0  0  0  0  0  0  0  0
  -19.5218  -30.9824   23.2119 C   0  0  0  0  0  0  0  0  0  0  0  0
  -21.1321  -30.5071   16.5747 C   0  0  0  0  0  0  0  0  0  0  0  0
  -25.9684  -24.4374   19.8174 C   0  0  0  0  0  0  0  0  0  1  0  0
  -20.9470  -29.7838   21.5019 C   0  0  1  0  0  0  0  0  0  0  0  0
  -19.2215  -30.3665   18.1774 C   0  0  2  0  0  0  0  0  0  0  0  0
  -20.1204  -29.6174   22.8082 C   0  0  0  0  0  0  0  0  0  0  0  0
  -25.9507  -11.8454   20.5342 N   0  0  0  0  0  0  0  0  0  0  0  0
  -26.1574  -12.5202   19.3905 N   0  0  0  0  0  0  0  0  0  0  0  0
  -23.3924  -30.1586   21.4422 N   0  0  0  0  0  0  0  0  0  0  0  0
  -28.9423  -14.9035   20.4618 N   0  0  0  0  0  0  0  0  0  0  0  0
  -25.2558  -12.9028   17.2339 N   0  0  0  0  0  0  0  0  0  0  0  0
  -22.3229  -10.0146   19.0919 N   0  0  0  0  0  0  0  0  0  0  0  0
  -26.0819  -22.1376   20.4690 N   0  0  0  0  0  0  0  0  0  0  0  0
  -27.8187  -16.8414   21.1995 N   0  0  0  0  0  0  0  0  0  0  0  0
  -26.0822  -31.2063   23.6701 N   0  0  0  0  0  0  0  0  0  0  0  0
  -20.1837  -30.3077   20.3744 N   0  0  0  0  0  0  0  0  0  0  0  0
  -19.7170  -30.1121   16.7951 N   0  3  0  0  0  0  0  0  0  0  0  0
  -22.8114  -11.2116   17.1979 O   0  0  0  0  0  0  0  0  0  0  0  0
  -24.3924  -29.6052   23.7290 O   0  0  0  0  0  0  0  0  0  0  0  0
  -21.9290  -31.8817   22.0130 O   0  0  0  0  0  0  0  0  0  0  0  0
  -27.8620  -23.0761   19.2535 O   0  0  0  0  0  0  0  0  0  0  0  0
  -20.5735  -28.5194   18.9506 O   0  0  0  0  0  0  0  0  0  0  0  0
  -30.0534  -16.9270   20.5828 O   0  0  0  0  0  0  0  0  0  0  0  0
  -22.6319   -7.8465   24.2143 O   0  0  0  0  0  0  0  0  0  0  0  0
  -26.6588  -25.4709   19.1163 O   0  0  0  0  0  0  0  0  0  1  0  0
  -20.8535   -2.8672   22.6496 F   0  0  0  0  0  0  0  0  0  0  0  0
  -23.7131   -5.5473   25.3040 F   0  0  0  0  0  0  0  0  0  0  0  0
  -24.1698  -20.3395   22.0160 Cl  0  0  0  0  0  0  0  0  0  0  0  0
  1  2  1  0  0  0  0
  1  5  2  0  0  0  0
  2  6  2  0  0  0  0
  3 10  2  0  0  0  0
  3 18  1  0  0  0  0
  4 11  1  0  0  0  0
  4 18  2  0  0  0  0
  5 20  1  0  0  0  0
  6 22  1  0  0  0  0
  7 12  2  0  0  0  0
  7 21  1  0  0  0  0
  8  9  2  0  0  0  0
  8 24  1  0  0  0  0
  9 25  1  0  0  0  0
 10 26  1  0  0  0  0
 11 26  2  0  0  0  0
 12 27  1  0  0  0  0
 13 14  2  0  0  0  0
 13 28  1  0  0  0  0
 14 29  1  0  0  0  0
 15 23  1  0  0  0  0
 15 27  2  0  0  0  0
 16 24  2  0  0  0  0
 16 31  1  0  0  0  0
 17 29  2  0  0  0  0
 17 30  1  0  0  0  0
 18 32  1  0  0  0  0
 19 32  1  0  0  0  0
 19 33  2  0  0  0  0
 19 34  1  0  0  0  0
 20 22  2  0  0  0  0
 20 40  1  0  0  0  0
 21 23  2  0  0  0  0
 21 41  1  0  0  0  0
 22 49  1  0  0  0  0
 23 42  1  0  0  0  0
 24 68  1  0  0  0  0
 25 31  2  0  0  0  0
 25 67  1  0  0  0  0
 26 78  1  0  0  0  0
 27 79  1  0  0  0  0
 28 30  2  0  0  0  0
 28 78  1  0  0  0  0
 29 80  1  0  0  0  0
 30 81  1  0  0  0  0
 31 82  1  0  0  0  0
 32 61  2  0  0  0  0
 33 62  1  0  0  0  0
 33 65  1  0  0  0  0
 34 66  1  0  0  0  0
 34 72  2  0  0  0  0
 35 50  1  0  0  0  0
 35 69  1  0  0  0  0
 35 73  2  0  0  0  0
 36 58  1  0  0  0  0
 36 63  1  0  0  0  0
 36 74  2  0  0  0  0
 37 57  1  0  0  0  0
 37 67  1  0  0  0  0
 37 75  2  0  0  0  0
 38 59  1  0  0  0  0
 38 70  1  0  0  0  0
 38 76  2  0  0  0  0
 39 64  1  0  0  0  0
 39 68  1  0  0  0  0
 39 77  2  0  0  0  0
 40 43  1  0  0  0  0
 41 50  1  0  0  0  0
 42 63  1  0  0  0  0
 43 45  1  0  0  0  0
 44 46  1  0  0  0  0
 44 47  1  0  0  0  0
 45 49  1  0  0  0  0
 46 51  1  0  0  0  0
 47 64  1  0  0  0  0
 48 51  1  0  0  0  0
 48 64  1  0  0  0  0
 49 69  1  0  0  0  0
 50 63  1  0  0  0  0
 51 62  1  0  0  0  0
 52 59  1  0  0  0  0
 53 60  1  0  0  0  0
 54 60  1  0  0  0  0
 55 60  1  0  0  0  0
 56 71  1  0  0  0  0
 57 79  1  0  0  0  0
 58 60  1  0  0  0  0
 58 70  1  0  0  0  0
 59 71  1  0  0  0  0
 61 62  1  0  0  0  0
M  CHG  1  71   1
M  ISO  4  39 100  57 101  68 100  79 101
M  END
> <Batch ID>
0011

> <Smiles>
CNC(C)C(=O)NC(C(=O)N1Cc2cc([101O:1][101CH2:1]C(=O)Nc3ccc([100NH:0][100C:0](=O)N4CCCC(n5nc(-c6ccc(Oc7ccc(F)cc7F)cc6)c(C(N)=O)c5N)C4)cc3Cl)ccc2CC1C(=O)NC1CCCc2ccccc21)C(C)(C)C

> <Shape>
0.303

> <Color>
0.101

> <Negative vol penalty>
0.000

$$$$
