
  -OEChem-04052315473D

 83 91  0     1  0  0  0  0  0999 V2000
  -16.6844  -30.1863   23.4643 C   0  0  0  0  0  0  0  0  0  0  0  0
  -17.8111  -30.9164   23.8291 C   0  0  0  0  0  0  0  0  0  0  0  0
  -27.6760  -18.5712   20.6484 C   0  0  0  0  0  0  0  0  0  0  0  0
  -25.6742  -19.8547   21.0757 C   0  0  0  0  0  0  0  0  0  0  0  0
  -16.8192  -28.8669   23.0344 C   0  0  0  0  0  0  0  0  0  0  0  0
  -19.0732  -30.3270   23.7653 C   0  0  0  0  0  0  0  0  0  0  0  0
  -25.9270  -31.9385   22.4442 C   0  0  0  0  0  0  0  0  0  0  0  0
  -26.9006  -17.5342   20.1299 C   0  0  0  0  0  0  0  0  0  0  0  0
  -24.8987  -18.8177   20.5571 C   0  0  0  0  0  0  0  0  0  0  0  0
  -27.1940  -31.8010   23.0095 C   0  0  0  0  0  0  0  0  0  0  0  0
  -24.9980  -15.0094   21.3256 C   0  0  0  0  0  0  0  0  0  0  0  0
  -25.3037  -13.7091   21.7274 C   0  0  0  0  0  0  0  0  0  0  0  0
  -27.3138  -29.5403   22.1762 C   0  0  0  0  0  0  0  0  0  0  0  0
  -25.7293  -13.0988   19.4289 C   0  0  0  0  0  0  0  0  0  0  0  0
  -27.6539  -28.9016   27.7237 C   0  0  0  0  0  0  0  0  0  0  0  0
  -27.0629  -19.7314   21.1214 C   0  0  0  0  0  0  0  0  0  0  0  0
  -28.4102  -21.8910   20.9516 C   0  0  0  0  0  0  0  0  0  0  0  0
  -18.0846  -28.2641   22.9561 C   0  0  0  0  0  0  0  0  0  0  0  0
  -25.3383  -30.8724   21.7489 C   0  0  0  0  0  0  0  0  0  0  0  0
  -19.2249  -28.9978   23.3352 C   0  0  0  0  0  0  0  0  0  0  0  0
  -26.0403  -29.6677   21.6009 C   0  0  0  0  0  0  0  0  0  0  0  0
  -28.7491  -27.2760   26.3114 C   0  0  0  0  0  0  0  0  0  0  0  0
  -28.7723  -29.6143   25.7043 C   0  0  0  0  0  0  0  0  0  0  0  0
  -25.5119  -17.6575   20.0842 C   0  0  0  0  0  0  0  0  0  0  0  0
  -27.8864  -30.6008   22.8780 C   0  0  0  0  0  0  0  0  0  0  0  0
  -25.0579  -15.3544   19.9753 C   0  0  0  0  0  0  0  0  0  0  0  0
  -25.6693  -12.7539   20.7791 C   0  0  0  0  0  0  0  0  0  0  0  0
  -28.0112  -27.5803   27.4553 C   0  0  0  0  0  0  0  0  0  0  0  0
  -28.0344  -29.9186   26.8482 C   0  0  0  0  0  0  0  0  0  0  0  0
  -25.4236  -14.3991   19.0270 C   0  0  0  0  0  0  0  0  0  0  0  0
  -29.1296  -28.2930   25.4358 C   0  0  0  0  0  0  0  0  0  0  0  0
  -27.8634  -20.8027   21.6577 C   0  0  0  0  0  0  0  0  0  0  0  0
  -29.0790  -22.6182   21.9057 C   0  0  0  0  0  0  0  0  0  0  0  0
  -28.3214  -22.2156   19.5578 C   0  0  0  0  0  0  0  0  0  0  0  0
  -22.7185  -29.1149   22.1376 C   0  0  0  0  0  0  0  0  0  0  0  0
  -23.5928  -27.8793   19.2686 C   0  0  0  0  0  0  0  0  0  0  0  0
  -26.0827  -27.2604   17.0182 C   0  0  0  0  0  0  0  0  0  0  0  0
  -29.3570  -24.9209   26.9676 C   0  0  0  0  0  0  0  0  0  0  0  0
  -18.1757  -26.8201   22.5305 C   0  0  0  0  0  0  0  0  0  0  0  0
  -23.9820  -31.0457   21.1221 C   0  0  0  0  0  0  0  0  0  0  0  0
  -25.4610  -28.4998   20.8466 C   0  0  0  0  0  0  0  0  0  0  0  0
  -19.5857  -26.3896   22.1344 C   0  0  0  0  0  0  0  0  0  0  0  0
  -30.2396  -21.4820   26.6998 C   0  0  0  0  0  0  0  0  0  0  0  0
  -20.6005  -26.8705   23.1667 C   0  0  0  0  0  0  0  0  0  0  0  0
  -29.7451  -21.0882   25.3061 C   0  0  0  0  0  0  0  0  0  0  0  0
  -29.2938  -22.4710   27.3787 C   0  0  0  0  0  0  0  0  0  0  0  0
  -28.4819  -23.2744   25.1959 C   0  0  0  0  0  0  0  0  0  0  0  0
  -20.6135  -28.4013   23.2559 C   0  0  1  0  0  0  0  0  0  0  0  0
  -23.2640  -29.7224   20.8762 C   0  0  1  0  0  0  0  0  0  0  0  0
  -29.4354  -22.3295   24.4465 C   0  0  2  0  0  0  0  0  0  0  0  0
  -31.4465  -31.3249   25.2585 C   0  0  0  0  0  0  0  0  0  0  0  0
  -26.4979  -26.2010   14.7815 C   0  0  0  0  0  0  0  0  0  0  0  0
  -23.4297  -25.1151   20.5502 C   0  0  0  0  0  0  0  0  0  0  0  0
  -24.7402  -24.2172   18.6152 C   0  0  0  0  0  0  0  0  0  0  0  0
  -22.5005  -25.2466   18.2321 C   0  0  0  0  0  0  0  0  0  0  0  0
  -27.0059  -29.8175   15.8487 C   0  0  0  0  0  0  0  0  0  0  0  0
  -29.9907  -31.7488   25.2515 C   0  0  0  0  0  0  0  0  0  0  0  0
  -24.4621  -26.7295   18.8199 C   0  0  1  0  0  0  0  0  0  0  0  0
  -26.1657  -27.4884   15.5197 C   0  0  2  0  0  0  0  0  0  0  0  0
  -23.7935  -25.3483   19.0703 C   0  0  0  0  0  0  0  0  0  0  0  0
  -28.1594  -20.8319   22.9598 N   0  0  0  0  0  0  0  0  0  0  0  0
  -28.8995  -21.9472   23.0795 N   0  0  0  0  0  0  0  0  0  0  0  0
  -24.1293  -28.7162   20.2572 N   0  0  0  0  0  0  0  0  0  0  0  0
  -29.0498  -23.6229   26.5078 N   0  0  0  0  0  0  0  0  0  0  0  0
  -29.7974  -23.7596   21.8467 N   0  0  0  0  0  0  0  0  0  0  0  0
  -27.5949  -21.3607   18.7177 N   0  0  0  0  0  0  0  0  0  0  0  0
  -29.1133  -25.9337   26.0405 N   0  0  0  0  0  0  0  0  0  0  0  0
  -21.3447  -28.9663   22.1421 N   0  0  0  0  0  0  0  0  0  0  0  0
  -24.7928  -26.9888   17.4229 N   0  0  0  0  0  0  0  0  0  0  0  0
  -29.1541  -30.6382   24.8222 N   0  0  1  0  0  0  0  0  0  1  0  0
  -27.2191  -28.4950   15.2065 N   0  3  0  0  0  0  0  0  0  0  0  0
  -28.8837  -23.2247   19.0690 O   0  0  0  0  0  0  0  0  0  0  0  0
  -23.4872  -28.8026   23.0393 O   0  0  0  0  0  0  0  0  0  0  0  0
  -22.4817  -28.0335   18.7554 O   0  0  0  0  0  0  0  0  0  0  0  0
  -27.0646  -27.3138   17.7555 O   0  0  0  0  0  0  0  0  0  0  0  0
  -29.8288  -25.1169   28.0905 O   0  0  0  0  0  0  0  0  0  0  0  0
  -24.7549  -16.6459   19.5781 O   0  0  0  0  0  0  0  0  0  0  0  0
  -29.1230  -30.4637   23.4293 O   0  0  0  0  0  0  0  0  0  1  0  0
  -25.9643  -11.5057   21.1653 F   0  0  0  0  0  0  0  0  0  0  0  0
  -27.6397  -26.6110   28.3037 F   0  0  0  0  0  0  0  0  0  0  0  0
  -27.6863  -31.1852   27.1162 F   0  0  0  0  0  0  0  0  0  0  0  0
  -25.4841  -14.7249   17.7285 F   0  0  0  0  0  0  0  0  0  0  0  0
  -29.8398  -28.0007   24.3355 F   0  0  0  0  0  0  0  0  0  0  0  0
  1  2  1  0  0  0  0
  1  5  2  0  0  0  0
  2  6  2  0  0  0  0
  3  8  2  0  0  0  0
  3 16  1  0  0  0  0
  4  9  1  0  0  0  0
  4 16  2  0  0  0  0
  5 18  1  0  0  0  0
  6 20  1  0  0  0  0
  7 10  2  0  0  0  0
  7 19  1  0  0  0  0
  8 24  1  0  0  0  0
  9 24  2  0  0  0  0
 10 25  1  0  0  0  0
 11 12  2  0  0  0  0
 11 26  1  0  0  0  0
 12 27  1  0  0  0  0
 13 21  1  0  0  0  0
 13 25  2  0  0  0  0
 14 27  2  0  0  0  0
 14 30  1  0  0  0  0
 15 28  1  0  0  0  0
 15 29  2  0  0  0  0
 16 32  1  0  0  0  0
 17 32  1  0  0  0  0
 17 33  2  0  0  0  0
 17 34  1  0  0  0  0
 18 20  2  0  0  0  0
 18 39  1  0  0  0  0
 19 21  2  0  0  0  0
 19 40  1  0  0  0  0
 20 48  1  0  0  0  0
 21 41  1  0  0  0  0
 22 28  2  0  0  0  0
 22 31  1  0  0  0  0
 22 67  1  0  0  0  0
 23 29  1  0  0  0  0
 23 31  2  0  0  0  0
 23 70  1  0  0  0  0
 24 77  1  0  0  0  0
 25 78  1  0  0  0  0
 26 30  2  0  0  0  0
 26 77  1  0  0  0  0
 27 79  1  0  0  0  0
 28 80  1  0  0  0  0
 29 81  1  0  0  0  0
 30 82  1  0  0  0  0
 31 83  1  0  0  0  0
 32 61  2  0  0  0  0
 33 62  1  0  0  0  0
 33 65  1  0  0  0  0
 34 66  1  0  0  0  0
 34 72  2  0  0  0  0
 35 49  1  0  0  0  0
 35 68  1  0  0  0  0
 35 73  2  0  0  0  0
 36 58  1  0  0  0  0
 36 63  1  0  0  0  0
 36 74  2  0  0  0  0
 37 59  1  0  0  0  0
 37 69  1  0  0  0  0
 37 75  2  0  0  0  0
 38 64  1  0  0  0  0
 38 67  1  0  0  0  0
 38 76  2  0  0  0  0
 39 42  1  0  0  0  0
 40 49  1  0  0  0  0
 41 63  1  0  0  0  0
 42 44  1  0  0  0  0
 43 45  1  0  0  0  0
 43 46  1  0  0  0  0
 44 48  1  0  0  0  0
 45 50  1  0  0  0  0
 46 64  1  0  0  0  0
 47 50  1  0  0  0  0
 47 64  1  0  0  0  0
 48 68  1  0  0  0  0
 49 63  1  0  0  0  0
 50 62  1  0  0  0  0
 51 57  1  0  0  0  0
 52 59  1  0  0  0  0
 53 60  1  0  0  0  0
 54 60  1  0  0  0  0
 55 60  1  0  0  0  0
 56 71  1  0  0  0  0
 57 70  1  0  0  0  0
 58 60  1  0  0  0  0
 58 69  1  0  0  0  0
 59 71  1  0  0  0  0
 61 62  1  0  0  0  0
 70 78  1  0  0  0  0
M  CHG  1  71   1
M  ISO  4  38 100  67 100  70 101  78 101
M  END
> <Batch ID>
0012

> <Smiles>
CC[101N:1](c1c(F)cc(F)c([100NH:0][100C:0](=O)N2CCCC(n3nc(-c4ccc(Oc5ccc(F)cc5F)cc4)c(C(N)=O)c3N)C2)c1F)[101O:1]c1ccc2c(c1)CN(C(=O)C(NC(=O)C(C)NC)C(C)(C)C)C(C(=O)NC1CCCc3ccccc31)C2

> <Shape>
0.226

> <Color>
0.117

> <Negative vol penalty>
0.000

$$$$

  -OEChem-04052315473D

 85 93  0     1  0  0  0  0  0999 V2000
  -23.6446  -19.3975   27.4980 C   0  0  0  0  0  0  0  0  0  0  0  0
  -24.9890  -19.6951   27.2992 C   0  0  0  0  0  0  0  0  0  0  0  0
  -23.0029   -9.8913   19.9813 C   0  0  0  0  0  0  0  0  0  0  0  0
  -23.7253   -9.9464   22.2861 C   0  0  0  0  0  0  0  0  0  0  0  0
  -22.6622  -20.2674   27.0270 C   0  0  0  0  0  0  0  0  0  0  0  0
  -25.3517  -20.8625   26.6283 C   0  0  0  0  0  0  0  0  0  0  0  0
  -29.1288  -23.3309   28.9271 C   0  0  0  0  0  0  0  0  0  0  0  0
  -22.2369   -8.7567   20.2485 C   0  0  0  0  0  0  0  0  0  0  0  0
  -22.9593   -8.8117   22.5533 C   0  0  0  0  0  0  0  0  0  0  0  0
  -30.4185  -22.8339   28.7444 C   0  0  0  0  0  0  0  0  0  0  0  0
  -23.2068   -5.4723   22.0868 C   0  0  0  0  0  0  0  0  0  0  0  0
  -23.7942   -4.4567   22.8412 C   0  0  0  0  0  0  0  0  0  0  0  0
  -30.8263  -24.5235   27.0717 C   0  0  0  0  0  0  0  0  0  0  0  0
  -32.4581  -17.0647   23.9265 C   0  0  0  0  0  0  0  0  0  0  0  0
  -30.7109  -18.6854   23.5301 C   0  0  0  0  0  0  0  0  0  0  0  0
  -22.0682   -4.7009   24.5140 C   0  0  0  0  0  0  0  0  0  0  0  0
  -23.7472  -10.4862   21.0001 C   0  0  0  0  0  0  0  0  0  0  0  0
  -24.1307  -13.0018   20.8206 C   0  0  0  0  0  0  0  0  0  0  0  0
  -23.0132  -21.4508   26.3584 C   0  0  0  0  0  0  0  0  0  0  0  0
  -28.6737  -24.4230   28.1744 C   0  0  0  0  0  0  0  0  0  0  0  0
  -24.3729  -21.7484   26.1467 C   0  0  0  0  0  0  0  0  0  0  0  0
  -29.5313  -25.0341   27.2485 C   0  0  0  0  0  0  0  0  0  0  0  0
  -31.8898  -18.3138   24.1763 C   0  0  0  0  0  0  0  0  0  0  0  0
  -30.6686  -16.5589   22.3842 C   0  0  0  0  0  0  0  0  0  0  0  0
  -22.2151   -8.2169   21.5345 C   0  0  0  0  0  0  0  0  0  0  0  0
  -31.2665  -23.4283   27.8146 C   0  0  0  0  0  0  0  0  0  0  0  0
  -22.0501   -6.1022   22.5461 C   0  0  0  0  0  0  0  0  0  0  0  0
  -23.2249   -4.0710   24.0548 C   0  0  0  0  0  0  0  0  0  0  0  0
  -31.8475  -16.1873   23.0304 C   0  0  0  0  0  0  0  0  0  0  0  0
  -21.4808   -5.7165   23.7596 C   0  0  0  0  0  0  0  0  0  0  0  0
  -30.1002  -17.8080   22.6341 C   0  0  0  0  0  0  0  0  0  0  0  0
  -24.5390  -11.6580   20.7246 C   0  0  0  0  0  0  0  0  0  0  0  0
  -25.2404  -13.7247   20.4564 C   0  0  0  0  0  0  0  0  0  0  0  0
  -22.8619  -13.5478   21.2048 C   0  0  0  0  0  0  0  0  0  0  0  0
  -26.3351  -24.8784   26.0702 C   0  0  0  0  0  0  0  0  0  0  0  0
  -27.2887  -27.9727   26.2666 C   0  0  0  0  0  0  0  0  0  0  0  0
  -32.9039  -20.4238   24.7885 C   0  0  0  0  0  0  0  0  0  0  0  0
  -29.7741  -30.1984   26.9848 C   0  0  0  0  0  0  0  0  0  0  0  0
  -30.7188  -14.6904   20.6954 C   0  0  0  0  0  0  0  0  0  0  0  0
  -21.9149  -22.3368   25.8258 C   0  0  0  0  0  0  0  0  0  0  0  0
  -27.2889  -24.9641   28.4024 C   0  0  0  0  0  0  0  0  0  0  0  0
  -29.0978  -26.2217   26.4299 C   0  0  0  0  0  0  0  0  0  0  0  0
  -22.3899  -23.7391   25.4543 C   0  0  0  0  0  0  0  0  0  0  0  0
  -29.6052  -12.2330   18.3719 C   0  0  0  0  0  0  0  0  0  0  0  0
  -23.6767  -23.6682   24.6382 C   0  0  0  0  0  0  0  0  0  0  0  0
  -28.1543  -11.9749   18.7847 C   0  0  0  0  0  0  0  0  0  0  0  0
  -30.5041  -12.4790   19.5824 C   0  0  0  0  0  0  0  0  0  0  0  0
  -28.5865  -13.2684   20.9124 C   0  0  0  0  0  0  0  0  0  0  0  0
  -24.8066  -23.0173   25.4452 C   0  0  1  0  0  0  0  0  0  0  0  0
  -26.7543  -25.7578   27.2142 C   0  0  1  0  0  0  0  0  0  0  0  0
  -27.6304  -13.0795   19.7234 C   0  0  2  0  0  0  0  0  0  0  0  0
  -32.6585  -20.8601   23.3859 C   0  0  0  0  0  0  0  0  0  0  0  0
  -30.2671  -32.6587   27.0146 C   0  0  0  0  0  0  0  0  0  0  0  0
  -27.5475  -27.9551   23.2264 C   0  0  0  0  0  0  0  0  0  0  0  0
  -28.9132  -30.0463   23.4002 C   0  0  0  0  0  0  0  0  0  0  0  0
  -26.5423  -30.0390   24.1758 C   0  0  0  0  0  0  0  0  0  0  0  0
  -30.2996  -30.1758   29.8973 C   0  0  0  0  0  0  0  0  0  0  0  0
  -33.8713  -21.0616   27.0016 C   0  0  0  0  0  0  0  0  0  0  0  0
  -32.7250  -21.5505   27.8634 C   0  0  0  0  0  0  0  0  0  1  0  0
  -28.2956  -28.8294   25.5377 C   0  0  1  0  0  0  0  0  0  0  0  0
  -29.7812  -31.4649   27.8217 C   0  0  2  0  0  0  0  0  0  0  0  0
  -27.8325  -29.1939   24.0989 C   0  0  0  0  0  0  0  0  0  0  0  0
  -25.8089  -11.5319   20.3301 N   0  0  0  0  0  0  0  0  0  0  0  0
  -26.2081  -12.8057   20.1750 N   0  0  0  0  0  0  0  0  0  0  0  0
  -27.7325  -26.7101   26.6846 N   0  0  0  0  0  0  0  0  0  0  0  0
  -29.9472  -13.5408   20.4234 N   0  0  0  0  0  0  0  0  0  0  0  0
  -25.4729  -15.0504   20.3526 N   0  0  0  0  0  0  0  0  0  0  0  0
  -21.8304  -12.6634   21.5485 N   0  0  0  0  0  0  0  0  0  0  0  0
  -32.4918  -19.1772   25.0551 N   0  0  0  0  0  0  0  0  0  0  0  0
  -30.0729  -15.6463   21.4787 N   0  0  0  0  0  0  0  0  0  0  0  0
  -25.3560  -23.9595   26.3964 N   0  0  0  0  0  0  0  0  0  0  0  0
  -28.5466  -29.9829   26.3948 N   0  0  0  0  0  0  0  0  0  0  0  0
  -33.5342  -21.2913   25.5945 N   0  3  0  0  0  0  0  0  0  0  0  0
  -30.6754  -31.3005   29.0025 N   0  3  0  0  0  0  0  0  0  0  0  0
  -22.6442  -14.7830   21.2264 O   0  0  0  0  0  0  0  0  0  0  0  0
  -26.8600  -25.0239   24.9725 O   0  0  0  0  0  0  0  0  0  0  0  0
  -26.1526  -28.4105   26.4642 O   0  0  0  0  0  0  0  0  0  0  0  0
  -30.7600  -29.4747   26.8634 O   0  0  0  0  0  0  0  0  0  0  0  0
  -31.8579  -14.8295   20.2425 O   0  0  0  0  0  0  0  0  0  0  0  0
  -21.4676   -7.1098   21.7956 O   0  0  0  0  0  0  0  0  0  0  0  0
  -32.5256  -22.9447   27.6338 O   0  0  0  0  0  0  0  0  0  1  0  0
  -23.7883   -3.0946   24.7783 F   0  0  0  0  0  0  0  0  0  0  0  0
  -32.4050  -14.9900   22.7980 F   0  0  0  0  0  0  0  0  0  0  0  0
  -20.3689   -6.3172   24.2054 F   0  0  0  0  0  0  0  0  0  0  0  0
  -28.6419  -18.3097   21.8548 Cl  0  0  0  0  0  0  0  0  0  0  0  0
  1  2  1  0  0  0  0
  1  5  2  0  0  0  0
  2  6  2  0  0  0  0
  3  8  2  0  0  0  0
  3 17  1  0  0  0  0
  4  9  1  0  0  0  0
  4 17  2  0  0  0  0
  5 19  1  0  0  0  0
  6 21  1  0  0  0  0
  7 10  2  0  0  0  0
  7 20  1  0  0  0  0
  8 25  1  0  0  0  0
  9 25  2  0  0  0  0
 10 26  1  0  0  0  0
 11 12  2  0  0  0  0
 11 27  1  0  0  0  0
 12 28  1  0  0  0  0
 13 22  1  0  0  0  0
 13 26  2  0  0  0  0
 14 23  1  0  0  0  0
 14 29  2  0  0  0  0
 15 23  2  0  0  0  0
 15 31  1  0  0  0  0
 16 28  2  0  0  0  0
 16 30  1  0  0  0  0
 17 32  1  0  0  0  0
 18 32  1  0  0  0  0
 18 33  2  0  0  0  0
 18 34  1  0  0  0  0
 19 21  2  0  0  0  0
 19 40  1  0  0  0  0
 20 22  2  0  0  0  0
 20 41  1  0  0  0  0
 21 49  1  0  0  0  0
 22 42  1  0  0  0  0
 23 69  1  0  0  0  0
 24 29  1  0  0  0  0
 24 31  2  0  0  0  0
 24 70  1  0  0  0  0
 25 80  1  0  0  0  0
 26 81  1  0  0  0  0
 27 30  2  0  0  0  0
 27 80  1  0  0  0  0
 28 82  1  0  0  0  0
 29 83  1  0  0  0  0
 30 84  1  0  0  0  0
 31 85  1  0  0  0  0
 32 63  2  0  0  0  0
 33 64  1  0  0  0  0
 33 67  1  0  0  0  0
 34 68  1  0  0  0  0
 34 75  2  0  0  0  0
 35 50  1  0  0  0  0
 35 71  1  0  0  0  0
 35 76  2  0  0  0  0
 36 60  1  0  0  0  0
 36 65  1  0  0  0  0
 36 77  2  0  0  0  0
 37 52  1  0  0  0  0
 37 69  1  0  0  0  0
 37 73  2  0  0  0  0
 38 61  1  0  0  0  0
 38 72  1  0  0  0  0
 38 78  2  0  0  0  0
 39 66  1  0  0  0  0
 39 70  1  0  0  0  0
 39 79  2  0  0  0  0
 40 43  1  0  0  0  0
 41 50  1  0  0  0  0
 42 65  1  0  0  0  0
 43 45  1  0  0  0  0
 44 46  1  0  0  0  0
 44 47  1  0  0  0  0
 45 49  1  0  0  0  0
 46 51  1  0  0  0  0
 47 66  1  0  0  0  0
 48 51  1  0  0  0  0
 48 66  1  0  0  0  0
 49 71  1  0  0  0  0
 50 65  1  0  0  0  0
 51 64  1  0  0  0  0
 53 61  1  0  0  0  0
 54 62  1  0  0  0  0
 55 62  1  0  0  0  0
 56 62  1  0  0  0  0
 57 74  1  0  0  0  0
 58 59  1  0  0  0  0
 58 73  1  0  0  0  0
 59 81  1  0  0  0  0
 60 62  1  0  0  0  0
 60 72  1  0  0  0  0
 61 74  1  0  0  0  0
 63 64  1  0  0  0  0
M  CHG  2  73   1  74   1
M  ISO  4  39 100  59 101  70 100  81 101
M  END
> <Batch ID>
0012

> <Smiles>
CNC(C)C(=O)NC(C(=O)N1Cc2cc([101O:1][101CH2:1]CN=C(C)Nc3cc(F)c([100NH:0][100C:0](=O)N4CCCC(n5nc(-c6ccc(Oc7ccc(F)cc7F)cc6)c(C(N)=O)c5N)C4)c(Cl)c3)ccc2CC1C(=O)NC1CCCc2ccccc21)C(C)(C)C

> <Shape>
0.198

> <Color>
0.193

> <Negative vol penalty>
0.000

$$$$

  -OEChem-04052315473D

 85 93  0     1  0  0  0  0  0999 V2000
  -23.5759   -7.8570   21.4632 C   0  0  0  0  0  0  0  0  0  0  0  0
  -24.3483   -8.9019   20.9660 C   0  0  0  0  0  0  0  0  0  0  0  0
  -25.1359  -31.5921   20.2192 C   0  0  0  0  0  0  0  0  0  0  0  0
  -23.9786  -30.2343   21.8483 C   0  0  0  0  0  0  0  0  0  0  0  0
  -22.2341   -8.0710   21.7756 C   0  0  0  0  0  0  0  0  0  0  0  0
  -23.7789  -10.1611   20.7800 C   0  0  0  0  0  0  0  0  0  0  0  0
  -26.7418  -13.9024   22.4736 C   0  0  0  0  0  0  0  0  0  0  0  0
  -24.4183  -32.7110   20.6419 C   0  0  0  0  0  0  0  0  0  0  0  0
  -23.2609  -31.3532   22.2711 C   0  0  0  0  0  0  0  0  0  0  0  0
  -27.8166  -14.2774   21.6687 C   0  0  0  0  0  0  0  0  0  0  0  0
  -23.1504  -35.9982   21.5375 C   0  0  0  0  0  0  0  0  0  0  0  0
  -23.8558  -37.1857   21.7317 C   0  0  0  0  0  0  0  0  0  0  0  0
  -26.5419  -16.1554   20.8518 C   0  0  0  0  0  0  0  0  0  0  0  0
  -27.8110  -20.9108   17.9253 C   0  0  0  0  0  0  0  0  0  0  0  0
  -25.2233  -36.1001   23.4017 C   0  0  0  0  0  0  0  0  0  0  0  0
  -24.9160  -30.3537   20.8224 C   0  0  0  0  0  0  0  0  0  0  0  0
  -26.8919  -28.7414   20.8836 C   0  0  0  0  0  0  0  0  0  0  0  0
  -21.6505   -9.3359   21.6023 C   0  0  0  0  0  0  0  0  0  0  0  0
  -25.5530  -14.6461   22.4655 C   0  0  0  0  0  0  0  0  0  0  0  0
  -22.4277  -10.3918   21.0891 C   0  0  0  0  0  0  0  0  0  0  0  0
  -25.4543  -15.7892   21.6595 C   0  0  0  0  0  0  0  0  0  0  0  0
  -28.8724  -20.0083   17.9930 C   0  0  0  0  0  0  0  0  0  0  0  0
  -29.1459  -20.5063   20.3413 C   0  0  0  0  0  0  0  0  0  0  0  0
  -27.4171  -21.6111   19.0655 C   0  0  0  0  0  0  0  0  0  0  0  0
  -29.5398  -19.8060   19.2010 C   0  0  0  0  0  0  0  0  0  0  0  0
  -23.4808  -32.5916   21.6679 C   0  0  0  0  0  0  0  0  0  0  0  0
  -27.7157  -15.4024   20.8555 C   0  0  0  0  0  0  0  0  0  0  0  0
  -23.4813  -34.8616   22.2754 C   0  0  0  0  0  0  0  0  0  0  0  0
  -24.8923  -37.2367   22.6638 C   0  0  0  0  0  0  0  0  0  0  0  0
  -24.5178  -34.9126   23.2074 C   0  0  0  0  0  0  0  0  0  0  0  0
  -28.0845  -21.4088   20.2735 C   0  0  0  0  0  0  0  0  0  0  0  0
  -25.6566  -29.1974   20.3858 C   0  0  0  0  0  0  0  0  0  0  0  0
  -27.1666  -27.6175   20.1433 C   0  0  0  0  0  0  0  0  0  0  0  0
  -27.7173  -29.2849   21.9223 C   0  0  0  0  0  0  0  0  0  0  0  0
  -22.5302  -14.0353   21.6953 C   0  0  0  0  0  0  0  0  0  0  0  0
  -22.0384  -17.0233   22.8581 C   0  0  0  0  0  0  0  0  0  0  0  0
  -30.3733  -17.5183   19.5821 C   0  0  0  0  0  0  0  0  0  0  0  0
  -23.3231  -20.1050   23.5646 C   0  0  0  0  0  0  0  0  0  0  0  0
  -25.5882  -22.8116   17.8164 C   0  0  0  0  0  0  0  0  0  0  0  0
  -20.1838   -9.5069   21.9094 C   0  0  0  0  0  0  0  0  0  0  0  0
  -24.4124  -14.2437   23.3596 C   0  0  0  0  0  0  0  0  0  0  0  0
  -24.2073  -16.6333   21.6296 C   0  0  0  0  0  0  0  0  0  0  0  0
  -19.7542  -10.9662   22.0363 C   0  0  0  0  0  0  0  0  0  0  0  0
  -24.9434  -25.7920   15.9783 C   0  0  0  0  0  0  0  0  0  0  0  0
  -20.3192  -11.7912   20.8844 C   0  0  0  0  0  0  0  0  0  0  0  0
  -25.1731  -26.9061   17.0021 C   0  0  0  0  0  0  0  0  0  0  0  0
  -24.2978  -24.5620   16.6140 C   0  0  0  0  0  0  0  0  0  0  0  0
  -25.2224  -25.1513   18.8201 C   0  0  0  0  0  0  0  0  0  0  0  0
  -21.8526  -11.7783   20.8967 C   0  0  1  0  0  0  0  0  0  0  0  0
  -23.0646  -14.7793   22.8863 C   0  0  1  0  0  0  0  0  0  0  0  0
  -25.9302  -26.3867   18.2400 C   0  0  2  0  0  0  0  0  0  0  0  0
  -29.2708  -19.2731   16.7543 C   0  0  0  0  0  0  0  0  0  0  0  0
  -29.8729  -20.2781   21.6319 C   0  0  0  0  0  0  0  0  0  0  0  0
  -22.6691  -22.3507   24.4738 C   0  0  0  0  0  0  0  0  0  0  0  0
  -20.6633  -17.6895   20.2170 C   0  0  0  0  0  0  0  0  0  0  0  0
  -20.8891  -20.1158   20.7916 C   0  0  0  0  0  0  0  0  0  0  0  0
  -19.5291  -18.6128   22.2456 C   0  0  0  0  0  0  0  0  0  0  0  0
  -32.0062  -19.3499   19.0033 C   0  0  0  0  0  0  0  0  0  0  0  0
  -25.2327  -19.8795   25.8144 C   0  0  0  0  0  0  0  0  0  0  0  0
  -28.9082  -17.1622   19.7890 C   0  0  0  0  0  0  0  0  0  1  0  0
  -22.0494  -18.4141   22.2712 C   0  0  1  0  0  0  0  0  0  0  0  0
  -23.2284  -20.9757   24.8045 C   0  0  2  0  0  0  0  0  0  0  0  0
  -20.8057  -18.6912   21.3802 C   0  0  0  0  0  0  0  0  0  0  0  0
  -25.1795  -28.4264   19.4050 N   0  0  0  0  0  0  0  0  0  0  0  0
  -26.1200  -27.4745   19.2804 N   0  0  0  0  0  0  0  0  0  0  0  0
  -23.1171  -16.1952   22.5169 N   0  0  0  0  0  0  0  0  0  0  0  0
  -25.0717  -24.1240   17.7776 N   0  0  0  0  0  0  0  0  0  0  0  0
  -28.1989  -26.7476   20.1526 N   0  0  0  0  0  0  0  0  0  0  0  0
  -27.2856  -30.4443   22.5808 N   0  0  0  0  0  0  0  0  0  0  0  0
  -26.3348  -22.5193   18.9573 N   0  0  0  0  0  0  0  0  0  0  0  0
  -22.3574  -12.6810   21.9089 N   0  0  0  0  0  0  0  0  0  0  0  0
  -22.1944  -19.3310   23.3967 N   0  0  0  0  0  0  0  0  0  0  0  0
  -30.6417  -18.8675   19.2669 N   0  0  0  0  0  0  0  0  0  0  0  0
  -24.5750  -21.1513   25.4182 N   0  3  0  0  0  0  0  0  0  0  0  0
  -28.8133  -28.7674   22.2454 O   0  0  0  0  0  0  0  0  0  0  0  0
  -22.2909  -14.6450   20.6596 O   0  0  0  0  0  0  0  0  0  0  0  0
  -21.1106  -16.6864   23.5979 O   0  0  0  0  0  0  0  0  0  0  0  0
  -31.2192  -16.6247   19.6690 O   0  0  0  0  0  0  0  0  0  0  0  0
  -24.2990  -20.1137   22.8176 O   0  0  0  0  0  0  0  0  0  0  0  0
  -25.4061  -22.0149   16.8921 O   0  0  0  0  0  0  0  0  0  0  0  0
  -22.7806  -33.6832   22.0808 O   0  0  0  0  0  0  0  0  0  0  0  0
  -28.7631  -15.7703   20.0684 O   0  0  0  0  0  0  0  0  0  1  0  0
  -25.5707  -38.3767   22.8491 F   0  0  0  0  0  0  0  0  0  0  0  0
  -24.8411  -33.8237   23.9184 F   0  0  0  0  0  0  0  0  0  0  0  0
  -27.5960  -22.2792   21.6920 Cl  0  0  0  0  0  0  0  0  0  0  0  0
  1  2  1  0  0  0  0
  1  5  2  0  0  0  0
  2  6  2  0  0  0  0
  3  8  2  0  0  0  0
  3 16  1  0  0  0  0
  4  9  1  0  0  0  0
  4 16  2  0  0  0  0
  5 18  1  0  0  0  0
  6 20  1  0  0  0  0
  7 10  2  0  0  0  0
  7 19  1  0  0  0  0
  8 26  1  0  0  0  0
  9 26  2  0  0  0  0
 10 27  1  0  0  0  0
 11 12  2  0  0  0  0
 11 28  1  0  0  0  0
 12 29  1  0  0  0  0
 13 21  1  0  0  0  0
 13 27  2  0  0  0  0
 14 22  2  0  0  0  0
 14 24  1  0  0  0  0
 15 29  2  0  0  0  0
 15 30  1  0  0  0  0
 16 32  1  0  0  0  0
 17 32  1  0  0  0  0
 17 33  2  0  0  0  0
 17 34  1  0  0  0  0
 18 20  2  0  0  0  0
 18 40  1  0  0  0  0
 19 21  2  0  0  0  0
 19 41  1  0  0  0  0
 20 49  1  0  0  0  0
 21 42  1  0  0  0  0
 22 25  1  0  0  0  0
 22 52  1  0  0  0  0
 23 25  2  0  0  0  0
 23 31  1  0  0  0  0
 23 53  1  0  0  0  0
 24 31  2  0  0  0  0
 24 70  1  0  0  0  0
 25 73  1  0  0  0  0
 26 81  1  0  0  0  0
 27 82  1  0  0  0  0
 28 30  2  0  0  0  0
 28 81  1  0  0  0  0
 29 83  1  0  0  0  0
 30 84  1  0  0  0  0
 31 85  1  0  0  0  0
 32 64  2  0  0  0  0
 33 65  1  0  0  0  0
 33 68  1  0  0  0  0
 34 69  1  0  0  0  0
 34 75  2  0  0  0  0
 35 50  1  0  0  0  0
 35 71  1  0  0  0  0
 35 76  2  0  0  0  0
 36 61  1  0  0  0  0
 36 66  1  0  0  0  0
 36 77  2  0  0  0  0
 37 60  1  0  0  0  0
 37 73  1  0  0  0  0
 37 78  2  0  0  0  0
 38 62  1  0  0  0  0
 38 72  1  0  0  0  0
 38 79  2  0  0  0  0
 39 67  1  0  0  0  0
 39 70  1  0  0  0  0
 39 80  2  0  0  0  0
 40 43  1  0  0  0  0
 41 50  1  0  0  0  0
 42 66  1  0  0  0  0
 43 45  1  0  0  0  0
 44 46  1  0  0  0  0
 44 47  1  0  0  0  0
 45 49  1  0  0  0  0
 46 51  1  0  0  0  0
 47 67  1  0  0  0  0
 48 51  1  0  0  0  0
 48 67  1  0  0  0  0
 49 71  1  0  0  0  0
 50 66  1  0  0  0  0
 51 65  1  0  0  0  0
 54 62  1  0  0  0  0
 55 63  1  0  0  0  0
 56 63  1  0  0  0  0
 57 63  1  0  0  0  0
 58 73  1  0  0  0  0
 59 74  1  0  0  0  0
 60 82  1  0  0  0  0
 61 63  1  0  0  0  0
 61 72  1  0  0  0  0
 62 74  1  0  0  0  0
 64 65  1  0  0  0  0
M  CHG  1  74   1
M  ISO  4  39 100  60 101  70 100  82 101
M  END
> <Batch ID>
0012

> <Smiles>
CNC(C)C(=O)NC(C(=O)N1Cc2cc([101O:1][101CH2:1]C(=O)N(C)c3c(C)cc([100NH:0][100C:0](=O)N4CCCC(n5nc(-c6ccc(Oc7ccc(F)cc7F)cc6)c(C(N)=O)c5N)C4)c(Cl)c3C)ccc2CC1C(=O)NC1CCCc2ccccc21)C(C)(C)C

> <Shape>
0.217

> <Color>
0.100

> <Negative vol penalty>
0.000

$$$$

  -OEChem-04052315473D

 83 91  0     1  0  0  0  0  0999 V2000
  -19.2585  -20.9447   23.9644 C   0  0  0  0  0  0  0  0  0  0  0  0
  -20.6437  -21.0386   23.8764 C   0  0  0  0  0  0  0  0  0  0  0  0
  -23.1166   -9.7565   20.0511 C   0  0  0  0  0  0  0  0  0  0  0  0
  -23.7786   -9.9772   22.3641 C   0  0  0  0  0  0  0  0  0  0  0  0
  -18.4593  -21.9893   23.5017 C   0  0  0  0  0  0  0  0  0  0  0  0
  -21.2306  -22.1768   23.3245 C   0  0  0  0  0  0  0  0  0  0  0  0
  -25.1563  -23.8537   26.0489 C   0  0  0  0  0  0  0  0  0  0  0  0
  -32.5352  -17.7085   23.2340 C   0  0  0  0  0  0  0  0  0  0  0  0
  -31.9680  -16.7499   22.3944 C   0  0  0  0  0  0  0  0  0  0  0  0
  -22.3661   -8.6259   20.3738 C   0  0  0  0  0  0  0  0  0  0  0  0
  -23.0281   -8.8466   22.6868 C   0  0  0  0  0  0  0  0  0  0  0  0
  -26.3647  -23.1723   25.9105 C   0  0  0  0  0  0  0  0  0  0  0  0
  -19.7797   -8.0851   23.2237 C   0  0  0  0  0  0  0  0  0  0  0  0
  -18.9739   -8.1467   24.3606 C   0  0  0  0  0  0  0  0  0  0  0  0
  -27.1518  -24.8862   24.4063 C   0  0  0  0  0  0  0  0  0  0  0  0
  -20.1887   -6.2927   25.3220 C   0  0  0  0  0  0  0  0  0  0  0  0
  -23.8228  -10.4322   21.0463 C   0  0  0  0  0  0  0  0  0  0  0  0
  -24.1621  -12.9382   20.7110 C   0  0  0  0  0  0  0  0  0  0  0  0
  -19.0370  -23.1450   22.9528 C   0  0  0  0  0  0  0  0  0  0  0  0
  -24.9320  -25.0528   25.3573 C   0  0  0  0  0  0  0  0  0  0  0  0
  -20.4383  -23.2373   22.8528 C   0  0  0  0  0  0  0  0  0  0  0  0
  -25.9406  -25.5821   24.5396 C   0  0  0  0  0  0  0  0  0  0  0  0
  -31.7220  -18.6437   23.8743 C   0  0  0  0  0  0  0  0  0  0  0  0
  -29.7744  -17.6616   22.8353 C   0  0  0  0  0  0  0  0  0  0  0  0
  -30.5876  -16.7264   22.1950 C   0  0  0  0  0  0  0  0  0  0  0  0
  -30.3417  -18.6203   23.6749 C   0  0  0  0  0  0  0  0  0  0  0  0
  -22.3219   -8.1709   21.6916 C   0  0  0  0  0  0  0  0  0  0  0  0
  -27.3616  -23.6870   25.0868 C   0  0  0  0  0  0  0  0  0  0  0  0
  -20.7899   -7.1272   23.1359 C   0  0  0  0  0  0  0  0  0  0  0  0
  -19.1784   -7.2506   25.4098 C   0  0  0  0  0  0  0  0  0  0  0  0
  -20.9944   -6.2311   24.1851 C   0  0  0  0  0  0  0  0  0  0  0  0
  -24.5987  -11.5998   20.7135 C   0  0  0  0  0  0  0  0  0  0  0  0
  -25.2665  -13.6589   20.3270 C   0  0  0  0  0  0  0  0  0  0  0  0
  -22.8735  -13.4814   21.0275 C   0  0  0  0  0  0  0  0  0  0  0  0
  -22.8567  -26.0150   23.1503 C   0  0  0  0  0  0  0  0  0  0  0  0
  -24.2552  -28.8986   23.6516 C   0  0  0  0  0  0  0  0  0  0  0  0
  -29.5681  -20.9546   24.2101 C   0  0  0  0  0  0  0  0  0  0  0  0
  -26.9906  -30.6486   24.7016 C   0  0  0  0  0  0  0  0  0  0  0  0
  -30.7173  -14.7530   20.6346 C   0  0  0  0  0  0  0  0  0  0  0  0
  -18.1308  -24.2278   22.4226 C   0  0  0  0  0  0  0  0  0  0  0  0
  -23.6331  -25.7895   25.5382 C   0  0  0  0  0  0  0  0  0  0  0  0
  -25.7573  -26.8763   23.7914 C   0  0  0  0  0  0  0  0  0  0  0  0
  -18.8417  -25.5594   22.1945 C   0  0  0  0  0  0  0  0  0  0  0  0
  -29.7112  -12.1262   18.4516 C   0  0  0  0  0  0  0  0  0  0  0  0
  -20.1605  -25.3414   21.4596 C   0  0  0  0  0  0  0  0  0  0  0  0
  -28.2555  -11.8652   18.8453 C   0  0  0  0  0  0  0  0  0  0  0  0
  -30.5739  -12.4696   19.6647 C   0  0  0  0  0  0  0  0  0  0  0  0
  -28.6081  -13.3038   20.8930 C   0  0  0  0  0  0  0  0  0  0  0  0
  -21.1130  -24.4663   22.2833 C   0  0  1  0  0  0  0  0  0  0  0  0
  -23.3179  -26.7369   24.3848 C   0  0  1  0  0  0  0  0  0  0  0  0
  -27.6865  -13.0175   19.6962 C   0  0  2  0  0  0  0  0  0  0  0  0
  -32.3597  -19.6579   24.7679 C   0  0  0  0  0  0  0  0  0  0  0  0
  -28.2924  -17.6352   22.6194 C   0  0  0  0  0  0  0  0  0  0  0  0
  -27.8508  -32.9921   24.9576 C   0  0  0  0  0  0  0  0  0  0  0  0
  -24.7376  -29.0476   20.6425 C   0  0  0  0  0  0  0  0  0  0  0  0
  -26.3902  -30.8794   21.0684 C   0  0  0  0  0  0  0  0  0  0  0  0
  -23.9944  -31.1948   21.6874 C   0  0  0  0  0  0  0  0  0  0  0  0
  -27.2846  -30.3446   27.6308 C   0  0  0  0  0  0  0  0  0  0  0  0
  -28.5075  -21.6031   25.0802 C   0  0  0  0  0  0  0  0  0  1  0  0
  -25.4336  -29.6328   23.0589 C   0  0  1  0  0  0  0  0  0  0  0  0
  -27.1282  -31.8380   25.6348 C   0  0  2  0  0  0  0  0  0  0  0  0
  -25.1420  -30.1633   21.6268 C   0  0  0  0  0  0  0  0  0  0  0  0
  -25.8804  -11.4749   20.3591 N   0  0  0  0  0  0  0  0  0  0  0  0
  -26.2586  -12.7440   20.1302 N   0  0  0  0  0  0  0  0  0  0  0  0
  -24.4675  -27.5562   23.9960 N   0  0  0  0  0  0  0  0  0  0  0  0
  -29.9753  -13.5722   20.4203 N   0  0  0  0  0  0  0  0  0  0  0  0
  -25.4759  -14.9796   20.1417 N   0  0  0  0  0  0  0  0  0  0  0  0
  -21.8509  -12.5998   21.4035 N   0  0  0  0  0  0  0  0  0  0  0  0
  -29.5188  -19.5696   24.3261 N   0  0  0  0  0  0  0  0  0  0  0  0
  -30.0331  -15.7442   21.3374 N   0  0  0  0  0  0  0  0  0  0  0  0
  -21.7266  -25.2426   23.3393 N   0  0  0  0  0  0  0  0  0  0  0  0
  -25.7928  -30.6709   24.0190 N   0  0  0  0  0  0  0  0  0  0  0  0
  -27.8947  -31.4540   26.8538 N   0  3  0  0  0  0  0  0  0  0  0  0
  -22.6314  -14.7105   20.9624 O   0  0  0  0  0  0  0  0  0  0  0  0
  -23.4792  -26.1501   22.1034 O   0  0  0  0  0  0  0  0  0  0  0  0
  -23.1879  -29.4963   23.8101 O   0  0  0  0  0  0  0  0  0  0  0  0
  -30.3324  -21.6237   23.5227 O   0  0  0  0  0  0  0  0  0  0  0  0
  -27.8604  -29.7879   24.5867 O   0  0  0  0  0  0  0  0  0  0  0  0
  -31.8647  -14.8861   20.2013 O   0  0  0  0  0  0  0  0  0  0  0  0
  -21.5895   -7.0678   22.0069 O   0  0  0  0  0  0  0  0  0  0  0  0
  -28.5418  -23.0237   24.9495 O   0  0  0  0  0  0  0  0  0  1  0  0
  -18.4056   -7.3109   26.5021 F   0  0  0  0  0  0  0  0  0  0  0  0
  -21.9641   -5.3095   24.1070 F   0  0  0  0  0  0  0  0  0  0  0  0
  1  2  1  0  0  0  0
  1  5  2  0  0  0  0
  2  6  2  0  0  0  0
  3 10  2  0  0  0  0
  3 17  1  0  0  0  0
  4 11  1  0  0  0  0
  4 17  2  0  0  0  0
  5 19  1  0  0  0  0
  6 21  1  0  0  0  0
  7 12  2  0  0  0  0
  7 20  1  0  0  0  0
  8  9  1  0  0  0  0
  8 23  2  0  0  0  0
  9 25  2  0  0  0  0
 10 27  1  0  0  0  0
 11 27  2  0  0  0  0
 12 28  1  0  0  0  0
 13 14  2  0  0  0  0
 13 29  1  0  0  0  0
 14 30  1  0  0  0  0
 15 22  1  0  0  0  0
 15 28  2  0  0  0  0
 16 30  2  0  0  0  0
 16 31  1  0  0  0  0
 17 32  1  0  0  0  0
 18 32  1  0  0  0  0
 18 33  2  0  0  0  0
 18 34  1  0  0  0  0
 19 21  2  0  0  0  0
 19 40  1  0  0  0  0
 20 22  2  0  0  0  0
 20 41  1  0  0  0  0
 21 49  1  0  0  0  0
 22 42  1  0  0  0  0
 23 26  1  0  0  0  0
 23 52  1  0  0  0  0
 24 25  1  0  0  0  0
 24 26  2  0  0  0  0
 24 53  1  0  0  0  0
 25 70  1  0  0  0  0
 26 69  1  0  0  0  0
 27 80  1  0  0  0  0
 28 81  1  0  0  0  0
 29 31  2  0  0  0  0
 29 80  1  0  0  0  0
 30 82  1  0  0  0  0
 31 83  1  0  0  0  0
 32 63  2  0  0  0  0
 33 64  1  0  0  0  0
 33 67  1  0  0  0  0
 34 68  1  0  0  0  0
 34 74  2  0  0  0  0
 35 50  1  0  0  0  0
 35 71  1  0  0  0  0
 35 75  2  0  0  0  0
 36 60  1  0  0  0  0
 36 65  1  0  0  0  0
 36 76  2  0  0  0  0
 37 59  1  0  0  0  0
 37 69  1  0  0  0  0
 37 77  2  0  0  0  0
 38 61  1  0  0  0  0
 38 72  1  0  0  0  0
 38 78  2  0  0  0  0
 39 66  1  0  0  0  0
 39 70  1  0  0  0  0
 39 79  2  0  0  0  0
 40 43  1  0  0  0  0
 41 50  1  0  0  0  0
 42 65  1  0  0  0  0
 43 45  1  0  0  0  0
 44 46  1  0  0  0  0
 44 47  1  0  0  0  0
 45 49  1  0  0  0  0
 46 51  1  0  0  0  0
 47 66  1  0  0  0  0
 48 51  1  0  0  0  0
 48 66  1  0  0  0  0
 49 71  1  0  0  0  0
 50 65  1  0  0  0  0
 51 64  1  0  0  0  0
 54 61  1  0  0  0  0
 55 62  1  0  0  0  0
 56 62  1  0  0  0  0
 57 62  1  0  0  0  0
 58 73  1  0  0  0  0
 59 81  1  0  0  0  0
 60 62  1  0  0  0  0
 60 72  1  0  0  0  0
 61 73  1  0  0  0  0
 63 64  1  0  0  0  0
M  CHG  1  73   1
M  ISO  4  39 100  59 101  70 100  81 101
M  END
> <Batch ID>
0012

> <Smiles>
CNC(C)C(=O)NC(C(=O)N1Cc2cc([101O:1][101CH2:1]C(=O)Nc3c(C)ccc([100NH:0][100C:0](=O)N4CCCC(n5nc(-c6ccc(Oc7ccc(F)cc7F)cc6)c(C(N)=O)c5N)C4)c3C)ccc2CC1C(=O)NC1CCCc2ccccc21)C(C)(C)C

> <Shape>
0.268

> <Color>
0.195

> <Negative vol penalty>
0.000

$$$$

  -OEChem-04052315473D

 83 91  0     1  0  0  0  0  0999 V2000
  -27.1347  -35.1212   19.6872 C   0  0  0  0  0  0  0  0  0  0  0  0
  -27.0508  -33.7423   19.5229 C   0  0  0  0  0  0  0  0  0  0  0  0
  -26.5562  -12.4456   21.7217 C   0  0  0  0  0  0  0  0  0  0  0  0
  -25.9101  -13.7714   19.8081 C   0  0  0  0  0  0  0  0  0  0  0  0
  -26.6041  -35.7195   20.8293 C   0  0  0  0  0  0  0  0  0  0  0  0
  -26.4373  -32.9607   20.5013 C   0  0  0  0  0  0  0  0  0  0  0  0
  -23.3020  -29.5010   18.5404 C   0  0  0  0  0  0  0  0  0  0  0  0
  -25.3022  -11.8349   21.7221 C   0  0  0  0  0  0  0  0  0  0  0  0
  -24.6560  -13.1607   19.8084 C   0  0  0  0  0  0  0  0  0  0  0  0
  -23.8791  -28.3543   17.9965 C   0  0  0  0  0  0  0  0  0  0  0  0
  -23.7202   -9.3933   19.9990 C   0  0  0  0  0  0  0  0  0  0  0  0
  -23.6738   -8.0081   20.1556 C   0  0  0  0  0  0  0  0  0  0  0  0
  -23.3588  -27.1419   20.0160 C   0  0  0  0  0  0  0  0  0  0  0  0
  -28.7662  -22.7155   21.0309 C   0  0  0  0  0  0  0  0  0  0  0  0
  -27.7114  -22.6888   18.4484 C   0  0  0  0  0  0  0  0  0  0  0  0
  -22.3512   -8.2789   22.1593 C   0  0  0  0  0  0  0  0  0  0  0  0
  -26.8601  -13.4139   20.7648 C   0  0  0  0  0  0  0  0  0  0  0  0
  -29.3087  -13.6192   20.0792 C   0  0  0  0  0  0  0  0  0  0  0  0
  -25.9752  -34.9460   21.8176 C   0  0  0  0  0  0  0  0  0  0  0  0
  -22.7578  -29.4796   19.8326 C   0  0  0  0  0  0  0  0  0  0  0  0
  -25.8991  -33.5491   21.6583 C   0  0  0  0  0  0  0  0  0  0  0  0
  -22.7731  -28.2890   20.5730 C   0  0  0  0  0  0  0  0  0  0  0  0
  -28.8178  -21.5486   20.2686 C   0  0  0  0  0  0  0  0  0  0  0  0
  -27.6598  -23.8558   19.2109 C   0  0  0  0  0  0  0  0  0  0  0  0
  -24.3521  -12.1924   20.7654 C   0  0  0  0  0  0  0  0  0  0  0  0
  -23.9102  -27.1753   18.7354 C   0  0  0  0  0  0  0  0  0  0  0  0
  -23.0821  -10.2214   20.9226 C   0  0  0  0  0  0  0  0  0  0  0  0
  -22.9894   -7.4509   21.2357 C   0  0  0  0  0  0  0  0  0  0  0  0
  -28.1872  -23.8691   20.5021 C   0  0  0  0  0  0  0  0  0  0  0  0
  -22.3976   -9.6642   22.0027 C   0  0  0  0  0  0  0  0  0  0  0  0
  -28.2905  -21.5353   18.9773 C   0  0  0  0  0  0  0  0  0  0  0  0
  -28.1552  -14.0456   20.7643 C   0  0  0  0  0  0  0  0  0  0  0  0
  -30.2640  -14.5519   20.4017 C   0  0  0  0  0  0  0  0  0  0  0  0
  -29.4996  -12.4819   19.2273 C   0  0  0  0  0  0  0  0  0  0  0  0
  -23.3837  -30.9955   22.5555 C   0  0  0  0  0  0  0  0  0  0  0  0
  -20.7068  -29.4683   23.5677 C   0  0  0  0  0  0  0  0  0  0  0  0
  -18.5577  -26.8420   23.2064 C   0  0  0  0  0  0  0  0  0  0  0  0
  -29.9736  -20.2714   22.1069 C   0  0  0  0  0  0  0  0  0  0  0  0
  -25.4586  -35.6324   23.0572 C   0  0  0  0  0  0  0  0  0  0  0  0
  -22.1150  -30.7179   20.3946 C   0  0  0  0  0  0  0  0  0  0  0  0
  -22.1842  -28.2081   21.9569 C   0  0  0  0  0  0  0  0  0  0  0  0
  -24.4922  -34.7749   23.8704 C   0  0  0  0  0  0  0  0  0  0  0  0
  -31.5016  -17.5935   23.8876 C   0  0  0  0  0  0  0  0  0  0  0  0
  -25.0457  -33.3639   24.0423 C   0  0  0  0  0  0  0  0  0  0  0  0
  -30.9265  -16.3410   23.2224 C   0  0  0  0  0  0  0  0  0  0  0  0
  -30.4665  -18.7133   23.9789 C   0  0  0  0  0  0  0  0  0  0  0  0
  -29.2383  -17.8075   22.0449 C   0  0  0  0  0  0  0  0  0  0  0  0
  -25.2192  -32.6703   22.6857 C   0  0  1  0  0  0  0  0  0  0  0  0
  -22.0511  -30.7188   21.9188 C   0  0  1  0  0  0  0  0  0  0  0  0
  -30.2630  -16.6744   21.8718 C   0  0  2  0  0  0  0  0  0  0  0  0
  -16.4842  -25.8417   24.2050 C   0  0  0  0  0  0  0  0  0  0  0  0
  -27.6438  -25.2208   16.3438 C   0  0  0  0  0  0  0  0  0  0  0  0
  -22.3504  -28.4029   25.9072 C   0  0  0  0  0  0  0  0  0  0  0  0
  -20.5529  -26.7067   26.3072 C   0  0  0  0  0  0  0  0  0  0  0  0
  -20.0369  -29.1391   26.5073 C   0  0  0  0  0  0  0  0  0  0  0  0
  -17.0523  -27.1473   20.6767 C   0  0  0  0  0  0  0  0  0  0  0  0
  -25.5395  -26.2404   17.2770 C   0  0  0  0  0  0  0  0  0  1  0  0
  -20.4166  -28.1369   24.2174 C   0  0  1  0  0  0  0  0  0  0  0  0
  -17.0420  -26.7815   23.1475 C   0  0  2  0  0  0  0  0  0  0  0  0
  -26.5149  -25.0678   17.3546 C   0  0  2  0  0  0  0  0  0  0  0  0
  -20.8521  -28.0981   25.7095 C   0  0  0  0  0  0  0  0  0  0  0  0
  -28.3571  -15.1621   21.4690 N   0  0  0  0  0  0  0  0  0  0  0  0
  -29.6487  -15.4452   21.2285 N   0  0  0  0  0  0  0  0  0  0  0  0
  -21.5727  -29.4472   22.4651 N   0  0  0  0  0  0  0  0  0  0  0  0
  -29.8836  -18.9772   22.6615 N   0  0  0  0  0  0  0  0  0  0  0  0
  -31.5620  -14.6867   20.0560 N   0  0  0  0  0  0  0  0  0  0  0  0
  -28.4129  -11.6259   19.0022 N   0  0  0  0  0  0  0  0  0  0  0  0
  -29.4124  -20.3945   20.8362 N   0  0  0  0  0  0  0  0  0  0  0  0
  -27.0846  -24.9981   18.6853 N   0  0  0  0  0  0  0  0  0  0  0  0
  -23.9419  -32.2052   22.1888 N   0  0  0  0  0  0  0  0  0  0  0  0
  -18.9969  -27.8787   24.0024 N   0  0  0  0  0  0  0  0  0  0  0  0
  -16.5944  -26.3021   21.8093 N   0  3  0  0  0  0  0  0  0  0  0  0
  -30.6056  -12.2230   18.6951 O   0  0  0  0  0  0  0  0  0  0  0  0
  -23.8687  -30.1732   23.3237 O   0  0  0  0  0  0  0  0  0  0  0  0
  -20.1789  -30.4885   24.0173 O   0  0  0  0  0  0  0  0  0  0  0  0
  -19.2798  -26.0468   22.6092 O   0  0  0  0  0  0  0  0  0  0  0  0
  -30.5330  -21.1954   22.7029 O   0  0  0  0  0  0  0  0  0  0  0  0
  -23.1284  -11.5965   20.7652 O   0  0  0  0  0  0  0  0  0  0  0  0
  -24.4734  -26.0548   18.2072 O   0  0  0  0  0  0  0  0  0  1  0  0
  -22.9436   -6.1205   21.3852 F   0  0  0  0  0  0  0  0  0  0  0  0
  -28.1419  -24.9848   21.2441 F   0  0  0  0  0  0  0  0  0  0  0  0
  -21.7817  -10.4545   22.8925 F   0  0  0  0  0  0  0  0  0  0  0  0
  -28.3330  -20.1117   17.9991 Cl  0  0  0  0  0  0  0  0  0  0  0  0
  1  2  1  0  0  0  0
  1  5  2  0  0  0  0
  2  6  2  0  0  0  0
  3  8  2  0  0  0  0
  3 17  1  0  0  0  0
  4  9  1  0  0  0  0
  4 17  2  0  0  0  0
  5 19  1  0  0  0  0
  6 21  1  0  0  0  0
  7 10  2  0  0  0  0
  7 20  1  0  0  0  0
  8 25  1  0  0  0  0
  9 25  2  0  0  0  0
 10 26  1  0  0  0  0
 11 12  2  0  0  0  0
 11 27  1  0  0  0  0
 12 28  1  0  0  0  0
 13 22  1  0  0  0  0
 13 26  2  0  0  0  0
 14 23  2  0  0  0  0
 14 29  1  0  0  0  0
 15 24  1  0  0  0  0
 15 31  2  0  0  0  0
 16 28  2  0  0  0  0
 16 30  1  0  0  0  0
 17 32  1  0  0  0  0
 18 32  1  0  0  0  0
 18 33  2  0  0  0  0
 18 34  1  0  0  0  0
 19 21  2  0  0  0  0
 19 39  1  0  0  0  0
 20 22  2  0  0  0  0
 20 40  1  0  0  0  0
 21 48  1  0  0  0  0
 22 41  1  0  0  0  0
 23 31  1  0  0  0  0
 23 68  1  0  0  0  0
 24 29  2  0  0  0  0
 24 69  1  0  0  0  0
 25 78  1  0  0  0  0
 26 79  1  0  0  0  0
 27 30  2  0  0  0  0
 27 78  1  0  0  0  0
 28 80  1  0  0  0  0
 29 81  1  0  0  0  0
 30 82  1  0  0  0  0
 31 83  1  0  0  0  0
 32 62  2  0  0  0  0
 33 63  1  0  0  0  0
 33 66  1  0  0  0  0
 34 67  1  0  0  0  0
 34 73  2  0  0  0  0
 35 49  1  0  0  0  0
 35 70  1  0  0  0  0
 35 74  2  0  0  0  0
 36 58  1  0  0  0  0
 36 64  1  0  0  0  0
 36 75  2  0  0  0  0
 37 59  1  0  0  0  0
 37 71  1  0  0  0  0
 37 76  2  0  0  0  0
 38 65  1  0  0  0  0
 38 68  1  0  0  0  0
 38 77  2  0  0  0  0
 39 42  1  0  0  0  0
 40 49  1  0  0  0  0
 41 64  1  0  0  0  0
 42 44  1  0  0  0  0
 43 45  1  0  0  0  0
 43 46  1  0  0  0  0
 44 48  1  0  0  0  0
 45 50  1  0  0  0  0
 46 65  1  0  0  0  0
 47 50  1  0  0  0  0
 47 65  1  0  0  0  0
 48 70  1  0  0  0  0
 49 64  1  0  0  0  0
 50 63  1  0  0  0  0
 51 59  1  0  0  0  0
 52 60  1  0  0  0  0
 53 61  1  0  0  0  0
 54 61  1  0  0  0  0
 55 61  1  0  0  0  0
 56 72  1  0  0  0  0
 57 60  1  0  0  0  0
 57 79  1  0  0  0  0
 58 61  1  0  0  0  0
 58 71  1  0  0  0  0
 59 72  1  0  0  0  0
 60 69  1  0  0  0  0
 62 63  1  0  0  0  0
M  CHG  1  72   1
M  ISO  4  38 100  57 101  68 100  79 101
M  END
> <Batch ID>
0012

> <Smiles>
CNC(C)C(=O)NC(C(=O)N1Cc2cc([101O:1][101CH2:1]C(C)Nc3cc(Cl)c([100NH:0][100C:0](=O)N4CCCC(n5nc(-c6ccc(Oc7ccc(F)cc7F)cc6)c(C(N)=O)c5N)C4)cc3F)ccc2CC1C(=O)NC1CCCc2ccccc21)C(C)(C)C

> <Shape>
0.309

> <Color>
0.053

> <Negative vol penalty>
0.000

$$$$

  -OEChem-04052315473D

 94101  0     1  0  0  0  0  0999 V2000
  -27.4650  -18.5666   24.7392 C   0  0  0  0  0  0  0  0  0  0  0  0
  -26.8852  -17.4975   25.4148 C   0  0  0  0  0  0  0  0  0  0  0  0
  -23.2866   -9.8001   19.9134 C   0  0  0  0  0  0  0  0  0  0  0  0
  -23.7343   -9.9422   22.2833 C   0  0  0  0  0  0  0  0  0  0  0  0
  -26.7356  -19.7364   24.5312 C   0  0  0  0  0  0  0  0  0  0  0  0
  -25.5759  -17.5981   25.8837 C   0  0  0  0  0  0  0  0  0  0  0  0
  -22.8368  -13.4535   24.9016 C   0  0  0  0  0  0  0  0  0  0  0  0
  -22.5592   -8.6282   20.1210 C   0  0  0  0  0  0  0  0  0  0  0  0
  -23.0068   -8.7703   22.4910 C   0  0  0  0  0  0  0  0  0  0  0  0
  -23.0390  -12.3468   25.7250 C   0  0  0  0  0  0  0  0  0  0  0  0
  -23.2098   -5.3538   20.6497 C   0  0  0  0  0  0  0  0  0  0  0  0
  -23.4387   -4.2872   19.7805 C   0  0  0  0  0  0  0  0  0  0  0  0
  -21.0513  -12.9158   26.9677 C   0  0  0  0  0  0  0  0  0  0  0  0
  -21.1175   -4.3341   19.1118 C   0  0  0  0  0  0  0  0  0  0  0  0
  -23.8742  -10.4571   20.9945 C   0  0  0  0  0  0  0  0  0  0  0  0
  -24.1355  -12.9868   20.7943 C   0  0  0  0  0  0  0  0  0  0  0  0
  -25.4133  -19.8479   24.9894 C   0  0  0  0  0  0  0  0  0  0  0  0
  -21.7445  -14.3073   25.1122 C   0  0  0  0  0  0  0  0  0  0  0  0
  -24.8285  -18.7710   25.6828 C   0  0  0  0  0  0  0  0  0  0  0  0
  -20.8360  -14.0312   26.1440 C   0  0  0  0  0  0  0  0  0  0  0  0
  -22.4192   -8.1133   21.4098 C   0  0  0  0  0  0  0  0  0  0  0  0
  -22.1478  -12.0794   26.7601 C   0  0  0  0  0  0  0  0  0  0  0  0
  -21.9347   -5.9106   20.7500 C   0  0  0  0  0  0  0  0  0  0  0  0
  -22.3926   -3.7774   19.0116 C   0  0  0  0  0  0  0  0  0  0  0  0
  -20.8886   -5.4007   19.9811 C   0  0  0  0  0  0  0  0  0  0  0  0
  -24.6262  -11.6674   20.7806 C   0  0  0  0  0  0  0  0  0  0  0  0
  -25.2378  -13.7657   20.5402 C   0  0  0  0  0  0  0  0  0  0  0  0
  -22.8025  -13.4654   21.0170 C   0  0  0  0  0  0  0  0  0  0  0  0
  -21.4096  -17.3801   25.8535 C   0  0  0  0  0  0  0  0  0  0  0  0
  -18.2645  -16.7533   25.3656 C   0  0  0  0  0  0  0  0  0  0  0  0
  -31.2589  -14.8389   30.3597 C   0  0  0  0  0  0  0  0  0  0  0  0
  -31.6227  -14.6091   24.1170 C   0  0  0  0  0  0  0  0  0  0  0  0
  -23.8407   -9.9142   29.1252 C   0  0  0  0  0  0  0  0  0  0  0  0
  -15.7500  -14.4478   25.2741 C   0  0  0  0  0  0  0  0  0  0  0  0
  -31.1072  -12.9195   21.3683 C   0  0  0  0  0  0  0  0  0  0  0  0
  -24.6806  -21.1498   24.7824 C   0  0  0  0  0  0  0  0  0  0  0  0
  -21.5255  -15.4818   24.1985 C   0  0  0  0  0  0  0  0  0  0  0  0
  -19.6363  -14.9054   26.3992 C   0  0  0  0  0  0  0  0  0  0  0  0
  -23.1714  -21.0378   24.9822 C   0  0  0  0  0  0  0  0  0  0  0  0
  -29.4629  -13.6576   18.2978 C   0  0  0  0  0  0  0  0  0  0  0  0
  -22.8579  -20.2645   26.2592 C   0  0  0  0  0  0  0  0  0  0  0  0
  -27.9926  -13.3503   18.5872 C   0  0  0  0  0  0  0  0  0  0  0  0
  -30.3946  -12.6782   19.0082 C   0  0  0  0  0  0  0  0  0  0  0  0
  -28.7053  -12.2512   20.7512 C   0  0  0  0  0  0  0  0  0  0  0  0
  -23.4022  -18.8328   26.1848 C   0  0  1  0  0  0  0  0  0  0  0  0
  -20.6658  -16.5748   24.8258 C   0  0  1  0  0  0  0  0  0  0  0  0
  -27.7289  -13.2466   20.1014 C   0  0  2  0  0  0  0  0  0  0  0  0
  -13.2796  -14.2417   24.8840 C   0  0  0  0  0  0  0  0  0  0  0  0
  -17.7326  -17.9085   28.1391 C   0  0  0  0  0  0  0  0  0  0  0  0
  -15.4748  -16.8283   28.0797 C   0  0  0  0  0  0  0  0  0  0  0  0
  -16.0663  -18.5712   26.3959 C   0  0  0  0  0  0  0  0  0  0  0  0
  -29.3889  -16.0361   31.5951 C   0  0  0  0  0  0  0  0  0  0  0  0
  -16.1485  -12.6531   22.9548 C   0  0  0  0  0  0  0  0  0  0  0  0
  -31.0208  -15.7803   29.1861 C   0  0  0  0  0  0  0  0  0  0  0  0
  -31.6660  -13.1346   23.7768 C   0  0  0  0  0  0  0  0  0  0  0  0
  -23.6912  -10.5812   27.7745 C   0  0  0  0  0  0  0  0  0  1  0  0
  -31.9619  -15.5057   28.0113 C   0  0  0  0  0  0  0  0  0  0  0  0
  -27.6889  -11.5783   32.2999 C   0  0  0  0  0  0  0  0  0  0  0  0
  -27.2401  -10.6297   31.1857 C   0  0  0  0  0  0  0  0  0  0  0  0
  -28.9094  -12.3984   31.8753 C   0  0  0  0  0  0  0  0  0  0  0  0
  -31.7196  -16.4904   26.8639 C   0  0  0  0  0  0  0  0  0  0  0  0
  -26.0370   -9.7895   31.6246 C   0  0  0  0  0  0  0  0  0  0  0  0
  -29.3373  -13.3677   32.9810 C   0  0  0  0  0  0  0  0  0  0  0  0
  -32.6517  -16.2525   25.6803 C   0  0  0  0  0  0  0  0  0  0  0  0
  -25.5523   -8.8108   30.5530 C   0  0  0  0  0  0  0  0  0  0  0  0
  -30.6003  -14.1623   32.6401 C   0  0  0  0  0  0  0  0  0  0  0  0
  -17.1219  -16.2798   26.2312 C   0  0  1  0  0  0  0  0  0  0  0  0
  -14.6607  -14.1854   24.2499 C   0  0  2  0  0  0  0  0  0  0  0  0
  -16.6225  -17.3814   27.2082 C   0  0  0  0  0  0  0  0  0  0  0  0
  -25.9381  -11.6077   20.5368 N   0  0  0  0  0  0  0  0  0  0  0  0
  -26.2811  -12.8993   20.3950 N   0  0  0  0  0  0  0  0  0  0  0  0
  -19.4690  -16.0453   25.4827 N   0  0  0  0  0  0  0  0  0  0  0  0
  -30.0933  -12.6280   20.4409 N   0  0  0  0  0  0  0  0  0  0  0  0
  -25.4068  -15.1005   20.4290 N   0  0  0  0  0  0  0  0  0  0  0  0
  -21.7890  -12.5294   21.2638 N   0  0  0  0  0  0  0  0  0  0  0  0
  -22.5409  -18.0065   25.3664 N   0  0  0  0  0  0  0  0  0  0  0  0
  -32.5175  -14.9305   25.1339 N   0  0  0  0  0  0  0  0  0  0  0  0
  -25.1397   -9.4817   29.3420 N   0  0  0  0  0  0  0  0  0  0  0  0
  -16.0983  -15.7812   25.3191 N   0  0  0  0  0  0  0  0  0  0  0  0
  -30.7357  -12.8552   22.7057 N   0  0  0  0  0  0  0  0  0  0  0  0
  -30.4369  -15.0252   31.4761 N   0  0  0  0  0  0  0  0  0  0  0  0
  -14.8411  -12.8399   23.6350 N   0  3  0  0  0  0  0  0  0  0  0  0
  -22.5155  -14.6860   20.9814 O   0  0  0  0  0  0  0  0  0  0  0  0
  -20.9875  -17.4306   27.0028 O   0  0  0  0  0  0  0  0  0  0  0  0
  -18.0925  -17.7116   24.6080 O   0  0  0  0  0  0  0  0  0  0  0  0
  -32.1344  -13.9717   30.2983 O   0  0  0  0  0  0  0  0  0  0  0  0
  -30.8566  -15.4031   23.5771 O   0  0  0  0  0  0  0  0  0  0  0  0
  -22.9051   -9.7861   29.9101 O   0  0  0  0  0  0  0  0  0  0  0  0
  -16.2400  -13.5594   25.9678 O   0  0  0  0  0  0  0  0  0  0  0  0
  -32.2568  -13.2202   21.0295 O   0  0  0  0  0  0  0  0  0  0  0  0
  -21.7093   -6.9700   21.6129 O   0  0  0  0  0  0  0  0  0  0  0  0
  -22.3432  -11.0002   27.5657 O   0  0  0  0  0  0  0  0  0  1  0  0
  -22.6129   -2.7541   18.1758 F   0  0  0  0  0  0  0  0  0  0  0  0
  -19.6618   -5.9322   20.0722 F   0  0  0  0  0  0  0  0  0  0  0  0
  1  2  1  0  0  0  0
  1  5  2  0  0  0  0
  2  6  2  0  0  0  0
  3  8  2  0  0  0  0
  3 15  1  0  0  0  0
  4  9  1  0  0  0  0
  4 15  2  0  0  0  0
  5 17  1  0  0  0  0
  6 19  1  0  0  0  0
  7 10  2  0  0  0  0
  7 18  1  0  0  0  0
  8 21  1  0  0  0  0
  9 21  2  0  0  0  0
 10 22  1  0  0  0  0
 11 12  2  0  0  0  0
 11 23  1  0  0  0  0
 12 24  1  0  0  0  0
 13 20  1  0  0  0  0
 13 22  2  0  0  0  0
 14 24  2  0  0  0  0
 14 25  1  0  0  0  0
 15 26  1  0  0  0  0
 16 26  1  0  0  0  0
 16 27  2  0  0  0  0
 16 28  1  0  0  0  0
 17 19  2  0  0  0  0
 17 36  1  0  0  0  0
 18 20  2  0  0  0  0
 18 37  1  0  0  0  0
 19 45  1  0  0  0  0
 20 38  1  0  0  0  0
 21 91  1  0  0  0  0
 22 92  1  0  0  0  0
 23 25  2  0  0  0  0
 23 91  1  0  0  0  0
 24 93  1  0  0  0  0
 25 94  1  0  0  0  0
 26 70  2  0  0  0  0
 27 71  1  0  0  0  0
 27 74  1  0  0  0  0
 28 75  1  0  0  0  0
 28 83  2  0  0  0  0
 29 46  1  0  0  0  0
 29 76  1  0  0  0  0
 29 84  2  0  0  0  0
 30 67  1  0  0  0  0
 30 72  1  0  0  0  0
 30 85  2  0  0  0  0
 31 54  1  0  0  0  0
 31 81  1  0  0  0  0
 31 86  2  0  0  0  0
 32 55  1  0  0  0  0
 32 77  1  0  0  0  0
 32 87  2  0  0  0  0
 33 56  1  0  0  0  0
 33 78  1  0  0  0  0
 33 88  2  0  0  0  0
 34 68  1  0  0  0  0
 34 79  1  0  0  0  0
 34 89  2  0  0  0  0
 35 73  1  0  0  0  0
 35 80  1  0  0  0  0
 35 90  2  0  0  0  0
 36 39  1  0  0  0  0
 37 46  1  0  0  0  0
 38 72  1  0  0  0  0
 39 41  1  0  0  0  0
 40 42  1  0  0  0  0
 40 43  1  0  0  0  0
 41 45  1  0  0  0  0
 42 47  1  0  0  0  0
 43 73  1  0  0  0  0
 44 47  1  0  0  0  0
 44 73  1  0  0  0  0
 45 76  1  0  0  0  0
 46 72  1  0  0  0  0
 47 71  1  0  0  0  0
 48 68  1  0  0  0  0
 49 69  1  0  0  0  0
 50 69  1  0  0  0  0
 51 69  1  0  0  0  0
 52 81  1  0  0  0  0
 53 82  1  0  0  0  0
 54 57  1  0  0  0  0
 55 80  1  0  0  0  0
 56 92  1  0  0  0  0
 57 61  1  0  0  0  0
 58 59  1  0  0  0  0
 58 60  1  0  0  0  0
 59 62  1  0  0  0  0
 60 63  1  0  0  0  0
 61 64  1  0  0  0  0
 62 65  1  0  0  0  0
 63 66  1  0  0  0  0
 64 77  1  0  0  0  0
 65 78  1  0  0  0  0
 66 81  1  0  0  0  0
 67 69  1  0  0  0  0
 67 79  1  0  0  0  0
 68 82  1  0  0  0  0
 70 71  1  0  0  0  0
M  CHG  1  82   1
M  ISO  4  35 100  56 101  80 100  92 101
M  END
> <Batch ID>
0012

> <Smiles>
CNC(C)C(=O)NC(C(=O)N1Cc2cc([101O:1][101CH2:1]C(=O)NCCCCCCCN(C)C(=O)CCCCNC(=O)C[100NH:0][100C:0](=O)N3CCCC(n4nc(-c5ccc(Oc6ccc(F)cc6F)cc5)c(C(N)=O)c4N)C3)ccc2CC1C(=O)NC1CCCc2ccccc21)C(C)(C)C

> <Shape>
0.119

> <Color>
0.164

> <Negative vol penalty>
0.000

$$$$

  -OEChem-04052315473D

 85 93  0     1  0  0  0  0  0999 V2000
  -27.0610  -33.5965   26.9431 C   0  0  0  0  0  0  0  0  0  0  0  0
  -27.4122  -32.4565   26.2272 C   0  0  0  0  0  0  0  0  0  0  0  0
  -25.4101  -12.4171   21.6751 C   0  0  0  0  0  0  0  0  0  0  0  0
  -25.8028  -12.7661   19.3169 C   0  0  0  0  0  0  0  0  0  0  0  0
  -25.7164  -33.9173   27.1251 C   0  0  0  0  0  0  0  0  0  0  0  0
  -26.4189  -31.6360   25.6939 C   0  0  0  0  0  0  0  0  0  0  0  0
  -27.4077  -30.2348   20.9290 C   0  0  0  0  0  0  0  0  0  0  0  0
  -25.1863  -11.0611   21.4372 C   0  0  0  0  0  0  0  0  0  0  0  0
  -25.5791  -11.4100   19.0790 C   0  0  0  0  0  0  0  0  0  0  0  0
  -28.3393  -29.2138   20.7458 C   0  0  0  0  0  0  0  0  0  0  0  0
  -24.1581   -7.5732   21.4005 C   0  0  0  0  0  0  0  0  0  0  0  0
  -23.0631   -6.9758   22.0246 C   0  0  0  0  0  0  0  0  0  0  0  0
  -26.5406  -27.6347   20.4454 C   0  0  0  0  0  0  0  0  0  0  0  0
  -27.2810  -24.2252   16.7354 C   0  0  0  0  0  0  0  0  0  0  0  0
  -21.5811   -8.5171   20.8996 C   0  0  0  0  0  0  0  0  0  0  0  0
  -25.7182  -13.2697   20.6149 C   0  0  0  0  0  0  0  0  0  0  0  0
  -27.1775  -15.2909   21.1562 C   0  0  0  0  0  0  0  0  0  0  0  0
  -24.7063  -33.1055   26.5855 C   0  0  0  0  0  0  0  0  0  0  0  0
  -26.0332  -29.9609   20.8825 C   0  0  0  0  0  0  0  0  0  0  0  0
  -25.0595  -31.9455   25.8700 C   0  0  0  0  0  0  0  0  0  0  0  0
  -25.5936  -28.6543   20.6258 C   0  0  0  0  0  0  0  0  0  0  0  0
  -28.0285  -23.6727   17.7754 C   0  0  0  0  0  0  0  0  0  0  0  0
  -26.1393  -22.3056   18.4071 C   0  0  0  0  0  0  0  0  0  0  0  0
  -25.2709  -10.5575   20.1392 C   0  0  0  0  0  0  0  0  0  0  0  0
  -27.9058  -27.9130   20.5069 C   0  0  0  0  0  0  0  0  0  0  0  0
  -23.9647   -8.6427   20.5261 C   0  0  0  0  0  0  0  0  0  0  0  0
  -21.7746   -7.4476   21.7741 C   0  0  0  0  0  0  0  0  0  0  0  0
  -25.9626  -23.8179   16.5313 C   0  0  0  0  0  0  0  0  0  0  0  0
  -22.6762   -9.1145   20.2756 C   0  0  0  0  0  0  0  0  0  0  0  0
  -27.4577  -22.7129   18.6112 C   0  0  0  0  0  0  0  0  0  0  0  0
  -25.3918  -22.8581   17.3672 C   0  0  0  0  0  0  0  0  0  0  0  0
  -25.9489  -14.6707   20.8600 C   0  0  0  0  0  0  0  0  0  0  0  0
  -26.8650  -16.6206   21.3000 C   0  0  0  0  0  0  0  0  0  0  0  0
  -28.4844  -14.7165   21.2893 C   0  0  0  0  0  0  0  0  0  0  0  0
  -23.6281  -30.1952   22.9476 C   0  0  0  0  0  0  0  0  0  0  0  0
  -21.8450  -29.3680   20.3671 C   0  0  0  0  0  0  0  0  0  0  0  0
  -29.6450  -25.2280   18.7961 C   0  0  0  0  0  0  0  0  0  0  0  0
  -21.6979  -27.8544   17.3120 C   0  0  0  0  0  0  0  0  0  0  0  0
  -24.2107  -21.2117   19.6029 C   0  0  0  0  0  0  0  0  0  0  0  0
  -23.2660  -33.4674   26.8488 C   0  0  0  0  0  0  0  0  0  0  0  0
  -25.0411  -31.0781   21.0555 C   0  0  0  0  0  0  0  0  0  0  0  0
  -24.1292  -28.3116   20.5460 C   0  0  0  0  0  0  0  0  0  0  0  0
  -22.2799  -32.7483   25.9318 C   0  0  0  0  0  0  0  0  0  0  0  0
  -22.3737  -18.9319   21.6291 C   0  0  0  0  0  0  0  0  0  0  0  0
  -22.6144  -31.2624   25.8485 C   0  0  0  0  0  0  0  0  0  0  0  0
  -23.2411  -17.6711   21.6340 C   0  0  0  0  0  0  0  0  0  0  0  0
  -22.4082  -19.6388   20.2752 C   0  0  0  0  0  0  0  0  0  0  0  0
  -24.6197  -18.6779   19.7704 C   0  0  0  0  0  0  0  0  0  0  0  0
  -24.0113  -31.0438   25.2549 C   0  0  1  0  0  0  0  0  0  0  0  0
  -23.6647  -30.5917   21.4988 C   0  0  1  0  0  0  0  0  0  0  0  0
  -24.6683  -17.9670   21.1328 C   0  0  2  0  0  0  0  0  0  0  0  0
  -20.0948  -27.3040   15.4614 C   0  0  0  0  0  0  0  0  0  0  0  0
  -20.6716  -27.1147   22.0570 C   0  0  0  0  0  0  0  0  0  0  0  0
  -19.8395  -26.0582   19.9452 C   0  0  0  0  0  0  0  0  0  0  0  0
  -19.0127  -28.3131   20.6196 C   0  0  0  0  0  0  0  0  0  0  0  0
  -30.4763  -23.4151   17.2539 C   0  0  0  0  0  0  0  0  0  0  0  0
  -23.2326  -29.4530   15.3503 C   0  0  0  0  0  0  0  0  0  0  0  0
  -28.4283  -25.8308   19.4834 C   0  0  0  0  0  0  0  0  0  1  0  0
  -21.3785  -28.0655   19.7631 C   0  0  1  0  0  0  0  0  0  0  0  0
  -21.1063  -28.3091   15.9900 C   0  0  2  0  0  0  0  0  0  0  0  0
  -20.2532  -27.3937   20.5996 C   0  0  0  0  0  0  0  0  0  0  0  0
  -24.9317  -15.5353   20.8180 N   0  0  0  0  0  0  0  0  0  0  0  0
  -25.5205  -16.7124   21.0898 N   0  0  0  0  0  0  0  0  0  0  0  0
  -23.1980  -29.4373   20.7282 N   0  0  0  0  0  0  0  0  0  0  0  0
  -23.7919  -19.8904   19.8667 N   0  0  0  0  0  0  0  0  0  0  0  0
  -27.6118  -17.7086   21.5847 N   0  0  0  0  0  0  0  0  0  0  0  0
  -28.6280  -13.3339   21.1094 N   0  0  0  0  0  0  0  0  0  0  0  0
  -25.5556  -21.3315   19.2546 N   0  0  0  0  0  0  0  0  0  0  0  0
  -23.9812  -31.2091   23.8175 N   0  0  0  0  0  0  0  0  0  0  0  0
  -21.0012  -28.3661   18.3862 N   0  0  0  0  0  0  0  0  0  0  0  0
  -29.3940  -24.1232   17.9546 N   0  0  0  0  0  0  0  0  0  0  0  0
  -22.1812  -28.4744   14.9710 N   0  3  0  0  0  0  0  0  0  0  0  0
  -29.4921  -15.4062   21.5759 O   0  0  0  0  0  0  0  0  0  0  0  0
  -23.3022  -29.0542   23.2536 O   0  0  0  0  0  0  0  0  0  0  0  0
  -21.0402  -30.2924   20.5068 O   0  0  0  0  0  0  0  0  0  0  0  0
  -30.7573  -25.7070   19.0307 O   0  0  0  0  0  0  0  0  0  0  0  0
  -22.6776  -27.1158   17.3844 O   0  0  0  0  0  0  0  0  0  0  0  0
  -23.4402  -22.1696   19.7068 O   0  0  0  0  0  0  0  0  0  0  0  0
  -25.0529   -9.2342   19.9067 O   0  0  0  0  0  0  0  0  0  0  0  0
  -28.8131  -26.9145   20.3284 O   0  0  0  0  0  0  0  0  0  1  0  0
  -20.7229   -6.8728   22.3723 F   0  0  0  0  0  0  0  0  0  0  0  0
  -25.2593  -24.3598   15.5264 F   0  0  0  0  0  0  0  0  0  0  0  0
  -22.4840  -10.1408   19.4356 F   0  0  0  0  0  0  0  0  0  0  0  0
  -28.3932  -22.0301   19.9056 Cl  0  0  0  0  0  0  0  0  0  0  0  0
  -23.7541  -22.3826   17.0787 Cl  0  0  0  0  0  0  0  0  0  0  0  0
  1  2  1  0  0  0  0
  1  5  2  0  0  0  0
  2  6  2  0  0  0  0
  3  8  2  0  0  0  0
  3 16  1  0  0  0  0
  4  9  1  0  0  0  0
  4 16  2  0  0  0  0
  5 18  1  0  0  0  0
  6 20  1  0  0  0  0
  7 10  2  0  0  0  0
  7 19  1  0  0  0  0
  8 24  1  0  0  0  0
  9 24  2  0  0  0  0
 10 25  1  0  0  0  0
 11 12  2  0  0  0  0
 11 26  1  0  0  0  0
 12 27  1  0  0  0  0
 13 21  1  0  0  0  0
 13 25  2  0  0  0  0
 14 22  1  0  0  0  0
 14 28  2  0  0  0  0
 15 27  2  0  0  0  0
 15 29  1  0  0  0  0
 16 32  1  0  0  0  0
 17 32  1  0  0  0  0
 17 33  2  0  0  0  0
 17 34  1  0  0  0  0
 18 20  2  0  0  0  0
 18 40  1  0  0  0  0
 19 21  2  0  0  0  0
 19 41  1  0  0  0  0
 20 49  1  0  0  0  0
 21 42  1  0  0  0  0
 22 30  2  0  0  0  0
 22 71  1  0  0  0  0
 23 30  1  0  0  0  0
 23 31  2  0  0  0  0
 23 68  1  0  0  0  0
 24 79  1  0  0  0  0
 25 80  1  0  0  0  0
 26 29  2  0  0  0  0
 26 79  1  0  0  0  0
 27 81  1  0  0  0  0
 28 31  1  0  0  0  0
 28 82  1  0  0  0  0
 29 83  1  0  0  0  0
 30 84  1  0  0  0  0
 31 85  1  0  0  0  0
 32 62  2  0  0  0  0
 33 63  1  0  0  0  0
 33 66  1  0  0  0  0
 34 67  1  0  0  0  0
 34 73  2  0  0  0  0
 35 50  1  0  0  0  0
 35 69  1  0  0  0  0
 35 74  2  0  0  0  0
 36 59  1  0  0  0  0
 36 64  1  0  0  0  0
 36 75  2  0  0  0  0
 37 58  1  0  0  0  0
 37 71  1  0  0  0  0
 37 76  2  0  0  0  0
 38 60  1  0  0  0  0
 38 70  1  0  0  0  0
 38 77  2  0  0  0  0
 39 65  1  0  0  0  0
 39 68  1  0  0  0  0
 39 78  2  0  0  0  0
 40 43  1  0  0  0  0
 41 50  1  0  0  0  0
 42 64  1  0  0  0  0
 43 45  1  0  0  0  0
 44 46  1  0  0  0  0
 44 47  1  0  0  0  0
 45 49  1  0  0  0  0
 46 51  1  0  0  0  0
 47 65  1  0  0  0  0
 48 51  1  0  0  0  0
 48 65  1  0  0  0  0
 49 69  1  0  0  0  0
 50 64  1  0  0  0  0
 51 63  1  0  0  0  0
 52 60  1  0  0  0  0
 53 61  1  0  0  0  0
 54 61  1  0  0  0  0
 55 61  1  0  0  0  0
 56 71  1  0  0  0  0
 57 72  1  0  0  0  0
 58 80  1  0  0  0  0
 59 61  1  0  0  0  0
 59 70  1  0  0  0  0
 60 72  1  0  0  0  0
 62 63  1  0  0  0  0
M  CHG  1  72   1
M  ISO  4  39 100  58 101  68 100  80 101
M  END
> <Batch ID>
0012

> <Smiles>
CNC(C)C(=O)NC(C(=O)N1Cc2cc([101O:1][101CH2:1]C(=O)N(C)c3cc(F)c(Cl)c([100NH:0][100C:0](=O)N4CCCC(n5nc(-c6ccc(Oc7ccc(F)cc7F)cc6)c(C(N)=O)c5N)C4)c3Cl)ccc2CC1C(=O)NC1CCCc2ccccc21)C(C)(C)C

> <Shape>
0.270

> <Color>
0.094

> <Negative vol penalty>
0.000

$$$$

  -OEChem-04052315473D

 84 92  0     1  0  0  0  0  0999 V2000
  -18.7460  -27.2472   21.8618 C   0  0  0  0  0  0  0  0  0  0  0  0
  -19.4142  -26.0562   22.1274 C   0  0  0  0  0  0  0  0  0  0  0  0
  -23.1441   -9.8118   19.9161 C   0  0  0  0  0  0  0  0  0  0  0  0
  -23.8736   -9.8461   22.2191 C   0  0  0  0  0  0  0  0  0  0  0  0
  -19.3558  -28.4669   22.1522 C   0  0  0  0  0  0  0  0  0  0  0  0
  -20.6931  -26.0843   22.6825 C   0  0  0  0  0  0  0  0  0  0  0  0
  -23.0713  -22.0752   26.6545 C   0  0  0  0  0  0  0  0  0  0  0  0
  -22.4425   -8.6303   20.1560 C   0  0  0  0  0  0  0  0  0  0  0  0
  -23.1720   -8.6646   22.4590 C   0  0  0  0  0  0  0  0  0  0  0  0
  -23.9166  -20.9791   26.4882 C   0  0  0  0  0  0  0  0  0  0  0  0
  -19.9698   -7.7413   23.0195 C   0  0  0  0  0  0  0  0  0  0  0  0
  -19.2000   -7.6709   24.1805 C   0  0  0  0  0  0  0  0  0  0  0  0
  -25.8132  -22.3668   27.0327 C   0  0  0  0  0  0  0  0  0  0  0  0
  -31.8283  -16.8928   22.6411 C   0  0  0  0  0  0  0  0  0  0  0  0
  -20.5063   -5.7824   24.9320 C   0  0  0  0  0  0  0  0  0  0  0  0
  -23.8597  -10.4196   20.9477 C   0  0  0  0  0  0  0  0  0  0  0  0
  -24.1046  -12.9563   20.8333 C   0  0  0  0  0  0  0  0  0  0  0  0
  -20.6389  -28.5098   22.7201 C   0  0  0  0  0  0  0  0  0  0  0  0
  -23.5926  -23.3300   27.0011 C   0  0  0  0  0  0  0  0  0  0  0  0
  -21.3211  -27.3058   22.9795 C   0  0  0  0  0  0  0  0  0  0  0  0
  -24.9720  -23.4767   27.2053 C   0  0  0  0  0  0  0  0  0  0  0  0
  -30.4461  -16.8235   22.4676 C   0  0  0  0  0  0  0  0  0  0  0  0
  -30.1517  -18.5628   24.1186 C   0  0  0  0  0  0  0  0  0  0  0  0
  -22.4564   -8.0568   21.4274 C   0  0  0  0  0  0  0  0  0  0  0  0
  -25.2881  -21.1255   26.6745 C   0  0  0  0  0  0  0  0  0  0  0  0
  -21.0078   -6.8323   22.8146 C   0  0  0  0  0  0  0  0  0  0  0  0
  -19.4683   -6.6915   25.1368 C   0  0  0  0  0  0  0  0  0  0  0  0
  -32.3723  -17.7970   23.5534 C   0  0  0  0  0  0  0  0  0  0  0  0
  -21.2761   -5.8529   23.7709 C   0  0  0  0  0  0  0  0  0  0  0  0
  -29.6077  -17.6585   23.2063 C   0  0  0  0  0  0  0  0  0  0  0  0
  -31.5340  -18.6320   24.2921 C   0  0  0  0  0  0  0  0  0  0  0  0
  -24.5852  -11.6398   20.7004 C   0  0  0  0  0  0  0  0  0  0  0  0
  -25.1713  -13.7480   20.4844 C   0  0  0  0  0  0  0  0  0  0  0  0
  -22.8097  -13.4219   21.2360 C   0  0  0  0  0  0  0  0  0  0  0  0
  -23.6525  -26.1930   25.6213 C   0  0  0  0  0  0  0  0  0  0  0  0
  -24.9705  -27.0950   28.4447 C   0  0  0  0  0  0  0  0  0  0  0  0
  -28.0004  -19.1512   25.2845 C   0  0  0  0  0  0  0  0  0  0  0  0
  -26.6987  -26.2070   31.2503 C   0  0  0  0  0  0  0  0  0  0  0  0
  -30.5900  -15.0052   20.7300 C   0  0  0  0  0  0  0  0  0  0  0  0
  -21.2763  -29.8531   22.9728 C   0  0  0  0  0  0  0  0  0  0  0  0
  -22.6644  -24.4963   27.2028 C   0  0  0  0  0  0  0  0  0  0  0  0
  -25.5796  -24.7978   27.5978 C   0  0  0  0  0  0  0  0  0  0  0  0
  -22.4819  -29.7892   23.9070 C   0  0  0  0  0  0  0  0  0  0  0  0
  -29.6009  -12.5522   18.3465 C   0  0  0  0  0  0  0  0  0  0  0  0
  -23.4111  -28.6492   23.5021 C   0  0  0  0  0  0  0  0  0  0  0  0
  -28.1683  -12.2044   18.7573 C   0  0  0  0  0  0  0  0  0  0  0  0
  -30.4909  -12.8152   19.5599 C   0  0  0  0  0  0  0  0  0  0  0  0
  -28.5396  -13.4637   20.9168 C   0  0  0  0  0  0  0  0  0  0  0  0
  -22.6994  -27.2947   23.6042 C   0  0  1  0  0  0  0  0  0  0  0  0
  -23.3597  -25.8460   27.0536 C   0  0  1  0  0  0  0  0  0  0  0  0
  -27.5895  -13.2538   19.7265 C   0  0  2  0  0  0  0  0  0  0  0  0
  -27.6607  -27.1697   33.3586 C   0  0  0  0  0  0  0  0  0  0  0  0
  -27.2736  -28.2951   26.8429 C   0  0  0  0  0  0  0  0  0  0  0  0
  -28.6106  -28.3759   28.9581 C   0  0  0  0  0  0  0  0  0  0  0  0
  -26.5011  -29.6934   28.7671 C   0  0  0  0  0  0  0  0  0  0  0  0
  -24.9915  -24.4891   32.9513 C   0  0  0  0  0  0  0  0  0  0  0  0
  -27.4440  -20.3268   26.0662 C   0  0  0  0  0  0  0  0  0  1  0  0
  -26.3755  -27.1782   28.9905 C   0  0  1  0  0  0  0  0  0  0  0  0
  -26.4538  -26.5007   32.7194 C   0  0  2  0  0  0  0  0  0  0  0  0
  -27.1793  -28.3611   28.3804 C   0  0  0  0  0  0  0  0  0  0  0  0
  -25.8581  -11.5936   20.2984 N   0  0  0  0  0  0  0  0  0  0  0  0
  -26.1864  -12.8910   20.1756 N   0  0  0  0  0  0  0  0  0  0  0  0
  -24.6314  -25.9097   27.7769 N   0  0  0  0  0  0  0  0  0  0  0  0
  -29.8810  -13.8227   20.4305 N   0  0  0  0  0  0  0  0  0  0  0  0
  -25.3307  -15.0867   20.4147 N   0  0  0  0  0  0  0  0  0  0  0  0
  -21.8297  -12.4737   21.5598 N   0  0  0  0  0  0  0  0  0  0  0  0
  -29.3016  -19.4104   24.8679 N   0  0  0  0  0  0  0  0  0  0  0  0
  -29.8967  -15.9036   21.5404 N   0  0  0  0  0  0  0  0  0  0  0  0
  -22.6267  -26.8647   24.9842 N   0  0  0  0  0  0  0  0  0  0  0  0
  -26.2469  -27.2293   30.4428 N   0  0  0  0  0  0  0  0  0  0  0  0
  -26.1690  -25.2389   33.4595 N   0  3  0  0  0  0  0  0  0  0  0  0
  -22.5251  -14.6423   21.2909 O   0  0  0  0  0  0  0  0  0  0  0  0
  -24.7299  -25.8760   25.1309 O   0  0  0  0  0  0  0  0  0  0  0  0
  -24.1999  -28.0438   28.6111 O   0  0  0  0  0  0  0  0  0  0  0  0
  -27.3354  -18.1400   25.0848 O   0  0  0  0  0  0  0  0  0  0  0  0
  -27.2402  -25.1756   30.8585 O   0  0  0  0  0  0  0  0  0  0  0  0
  -31.7176  -15.2182   20.2770 O   0  0  0  0  0  0  0  0  0  0  0  0
  -21.7717   -6.9041   21.6618 O   0  0  0  0  0  0  0  0  0  0  0  0
  -26.1156  -20.0573   26.5122 O   0  0  0  0  0  0  0  0  0  1  0  0
  -18.7299   -6.6249   26.2524 F   0  0  0  0  0  0  0  0  0  0  0  0
  -33.6996  -17.8641   23.7196 F   0  0  0  0  0  0  0  0  0  0  0  0
  -22.2727   -4.9776   23.5802 F   0  0  0  0  0  0  0  0  0  0  0  0
  -28.2780  -17.5925   23.0388 F   0  0  0  0  0  0  0  0  0  0  0  0
  -32.0680  -19.4964   25.1666 F   0  0  0  0  0  0  0  0  0  0  0  0
  1  2  1  0  0  0  0
  1  5  2  0  0  0  0
  2  6  2  0  0  0  0
  3  8  2  0  0  0  0
  3 16  1  0  0  0  0
  4  9  1  0  0  0  0
  4 16  2  0  0  0  0
  5 18  1  0  0  0  0
  6 20  1  0  0  0  0
  7 10  2  0  0  0  0
  7 19  1  0  0  0  0
  8 24  1  0  0  0  0
  9 24  2  0  0  0  0
 10 25  1  0  0  0  0
 11 12  2  0  0  0  0
 11 26  1  0  0  0  0
 12 27  1  0  0  0  0
 13 21  1  0  0  0  0
 13 25  2  0  0  0  0
 14 22  2  0  0  0  0
 14 28  1  0  0  0  0
 15 27  2  0  0  0  0
 15 29  1  0  0  0  0
 16 32  1  0  0  0  0
 17 32  1  0  0  0  0
 17 33  2  0  0  0  0
 17 34  1  0  0  0  0
 18 20  2  0  0  0  0
 18 40  1  0  0  0  0
 19 21  2  0  0  0  0
 19 41  1  0  0  0  0
 20 49  1  0  0  0  0
 21 42  1  0  0  0  0
 22 30  1  0  0  0  0
 22 68  1  0  0  0  0
 23 30  2  0  0  0  0
 23 31  1  0  0  0  0
 23 67  1  0  0  0  0
 24 78  1  0  0  0  0
 25 79  1  0  0  0  0
 26 29  2  0  0  0  0
 26 78  1  0  0  0  0
 27 80  1  0  0  0  0
 28 31  2  0  0  0  0
 28 81  1  0  0  0  0
 29 82  1  0  0  0  0
 30 83  1  0  0  0  0
 31 84  1  0  0  0  0
 32 61  2  0  0  0  0
 33 62  1  0  0  0  0
 33 65  1  0  0  0  0
 34 66  1  0  0  0  0
 34 72  2  0  0  0  0
 35 50  1  0  0  0  0
 35 69  1  0  0  0  0
 35 73  2  0  0  0  0
 36 58  1  0  0  0  0
 36 63  1  0  0  0  0
 36 74  2  0  0  0  0
 37 57  1  0  0  0  0
 37 67  1  0  0  0  0
 37 75  2  0  0  0  0
 38 59  1  0  0  0  0
 38 70  1  0  0  0  0
 38 76  2  0  0  0  0
 39 64  1  0  0  0  0
 39 68  1  0  0  0  0
 39 77  2  0  0  0  0
 40 43  1  0  0  0  0
 41 50  1  0  0  0  0
 42 63  1  0  0  0  0
 43 45  1  0  0  0  0
 44 46  1  0  0  0  0
 44 47  1  0  0  0  0
 45 49  1  0  0  0  0
 46 51  1  0  0  0  0
 47 64  1  0  0  0  0
 48 51  1  0  0  0  0
 48 64  1  0  0  0  0
 49 69  1  0  0  0  0
 50 63  1  0  0  0  0
 51 62  1  0  0  0  0
 52 59  1  0  0  0  0
 53 60  1  0  0  0  0
 54 60  1  0  0  0  0
 55 60  1  0  0  0  0
 56 71  1  0  0  0  0
 57 79  1  0  0  0  0
 58 60  1  0  0  0  0
 58 70  1  0  0  0  0
 59 71  1  0  0  0  0
 61 62  1  0  0  0  0
M  CHG  1  71   1
M  ISO  4  39 100  57 101  68 100  79 101
M  END
> <Batch ID>
0012

> <Smiles>
CNC(C)C(=O)NC(C(=O)N1Cc2cc([101O:1][101CH2:1]C(=O)Nc3c(F)c(F)cc([100NH:0][100C:0](=O)N4CCCC(n5nc(-c6ccc(Oc7ccc(F)cc7F)cc6)c(C(N)=O)c5N)C4)c3F)ccc2CC1C(=O)NC1CCCc2ccccc21)C(C)(C)C

> <Shape>
0.226

> <Color>
0.200

> <Negative vol penalty>
0.000

$$$$

  -OEChem-04052315473D

 86 94  0     1  0  0  0  0  0999 V2000
  -18.3095  -32.9348   20.6692 C   0  0  0  0  0  0  0  0  0  0  0  0
  -19.6650  -32.8287   20.3747 C   0  0  0  0  0  0  0  0  0  0  0  0
  -25.8186  -15.3545   21.5441 C   0  0  0  0  0  0  0  0  0  0  0  0
  -25.1815  -16.7945   19.7118 C   0  0  0  0  0  0  0  0  0  0  0  0
  -17.7744  -32.2310   21.7472 C   0  0  0  0  0  0  0  0  0  0  0  0
  -20.4865  -32.0195   21.1588 C   0  0  0  0  0  0  0  0  0  0  0  0
  -25.2914  -28.7244   19.2718 C   0  0  0  0  0  0  0  0  0  0  0  0
  -24.5183  -14.8530   21.6020 C   0  0  0  0  0  0  0  0  0  0  0  0
  -23.8813  -16.2929   19.7696 C   0  0  0  0  0  0  0  0  0  0  0  0
  -26.6643  -28.9649   19.3035 C   0  0  0  0  0  0  0  0  0  0  0  0
  -22.6342  -12.6145   19.9072 C   0  0  0  0  0  0  0  0  0  0  0  0
  -22.4767  -11.2337   20.0263 C   0  0  0  0  0  0  0  0  0  0  0  0
  -26.8324  -27.7007   21.3511 C   0  0  0  0  0  0  0  0  0  0  0  0
  -30.7291  -25.9140   17.1061 C   0  0  0  0  0  0  0  0  0  0  0  0
  -30.7863  -25.0716   19.3698 C   0  0  0  0  0  0  0  0  0  0  0  0
  -21.2996  -11.5479   22.1126 C   0  0  0  0  0  0  0  0  0  0  0  0
  -26.1502  -16.3254   20.5990 C   0  0  0  0  0  0  0  0  0  0  0  0
  -28.5640  -16.3449   19.7740 C   0  0  0  0  0  0  0  0  0  0  0  0
  -18.5878  -31.4052   22.5391 C   0  0  0  0  0  0  0  0  0  0  0  0
  -24.6759  -27.9782   20.2870 C   0  0  0  0  0  0  0  0  0  0  0  0
  -19.9619  -31.3050   22.2493 C   0  0  0  0  0  0  0  0  0  0  0  0
  -25.4519  -27.4500   21.3286 C   0  0  0  0  0  0  0  0  0  0  0  0
  -30.6271  -24.6094   16.6232 C   0  0  0  0  0  0  0  0  0  0  0  0
  -30.8088  -26.1451   18.4794 C   0  0  0  0  0  0  0  0  0  0  0  0
  -30.6843  -23.7669   18.8868 C   0  0  0  0  0  0  0  0  0  0  0  0
  -23.5497  -15.3221   20.7148 C   0  0  0  0  0  0  0  0  0  0  0  0
  -27.4346  -28.4555   20.3447 C   0  0  0  0  0  0  0  0  0  0  0  0
  -22.1244  -13.4620   20.8909 C   0  0  0  0  0  0  0  0  0  0  0  0
  -21.8094  -10.7004   21.1290 C   0  0  0  0  0  0  0  0  0  0  0  0
  -21.4571  -12.9287   21.9935 C   0  0  0  0  0  0  0  0  0  0  0  0
  -30.6047  -23.5359   17.5135 C   0  0  0  0  0  0  0  0  0  0  0  0
  -27.4930  -16.8443   20.5391 C   0  0  0  0  0  0  0  0  0  0  0  0
  -29.6136  -17.1815   20.0655 C   0  0  0  0  0  0  0  0  0  0  0  0
  -28.6063  -15.2250   18.8798 C   0  0  0  0  0  0  0  0  0  0  0  0
  -22.4397  -28.5725   22.4664 C   0  0  0  0  0  0  0  0  0  0  0  0
  -22.7314  -25.3978   23.0652 C   0  0  0  0  0  0  0  0  0  0  0  0
  -24.6606  -22.5867   22.9161 C   0  0  0  0  0  0  0  0  0  0  0  0
  -30.7318  -22.7363   21.1851 C   0  0  0  0  0  0  0  0  0  0  0  0
  -17.9732  -30.7010   23.7227 C   0  0  0  0  0  0  0  0  0  0  0  0
  -23.1981  -27.7050   20.2241 C   0  0  0  0  0  0  0  0  0  0  0  0
  -24.8426  -26.6255   22.4319 C   0  0  0  0  0  0  0  0  0  0  0  0
  -18.8386  -29.5717   24.2762 C   0  0  0  0  0  0  0  0  0  0  0  0
  -30.6694  -20.2879   23.7694 C   0  0  0  0  0  0  0  0  0  0  0  0
  -20.2862  -30.0303   24.4208 C   0  0  0  0  0  0  0  0  0  0  0  0
  -29.9490  -19.1006   23.1265 C   0  0  0  0  0  0  0  0  0  0  0  0
  -30.0847  -21.6224   23.3100 C   0  0  0  0  0  0  0  0  0  0  0  0
  -29.2850  -20.6099   21.2113 C   0  0  0  0  0  0  0  0  0  0  0  0
  -20.8805  -30.4180   23.0614 C   0  0  1  0  0  0  0  0  0  0  0  0
  -22.5946  -27.3665   21.5837 C   0  0  1  0  0  0  0  0  0  0  0  0
  -29.8811  -19.2453   21.5936 C   0  0  2  0  0  0  0  0  0  0  0  0
  -24.6419  -20.1505   23.5176 C   0  0  0  0  0  0  0  0  0  0  0  0
  -23.1912  -26.1199   25.9939 C   0  0  0  0  0  0  0  0  0  0  0  0
  -24.0902  -23.8105   26.3498 C   0  0  0  0  0  0  0  0  0  0  0  0
  -21.7235  -24.1282   25.6285 C   0  0  0  0  0  0  0  0  0  0  0  0
  -30.9343  -28.5832   18.0323 C   0  0  0  0  0  0  0  0  0  0  0  0
  -24.9838  -21.7675   20.0906 C   0  0  0  0  0  0  0  0  0  0  0  0
  -30.9816  -27.7302   20.3815 C   0  0  0  0  0  0  0  0  0  0  0  0
  -29.5921  -27.6956   20.9955 C   0  0  0  0  0  0  0  0  0  1  0  0
  -23.5903  -24.5566   23.9783 C   0  0  1  0  0  0  0  0  0  0  0  0
  -24.3550  -21.1796   22.4353 C   0  0  2  0  0  0  0  0  0  0  0  0
  -30.5412  -24.3658   15.1542 C   0  0  0  0  0  0  0  0  0  0  0  0
  -23.1603  -24.6709   25.4680 C   0  0  0  0  0  0  0  0  0  0  0  0
  -27.8312  -17.9151   21.2624 N   0  0  0  0  0  0  0  0  0  0  0  0
  -29.1266  -18.0953   20.9531 N   0  0  0  0  0  0  0  0  0  0  0  0
  -23.3927  -26.3913   22.3294 N   0  0  0  0  0  0  0  0  0  0  0  0
  -30.0558  -21.6898   21.8473 N   0  0  0  0  0  0  0  0  0  0  0  0
  -30.8965  -17.2171   19.6466 N   0  0  0  0  0  0  0  0  0  0  0  0
  -27.4383  -14.4726   18.6956 N   0  0  0  0  0  0  0  0  0  0  0  0
  -30.6618  -22.6783   19.7936 N   0  0  0  0  0  0  0  0  0  0  0  0
  -21.2367  -29.2340   22.3093 N   0  0  0  0  0  0  0  0  0  0  0  0
  -23.5445  -23.1992   23.4456 N   0  0  0  0  0  0  0  0  0  0  0  0
  -30.9110  -27.4557   18.9646 N   0  0  3  0  0  0  0  0  0  0  0  0
  -25.1829  -20.8490   21.2411 N   0  3  0  0  0  0  0  0  0  0  0  0
  -29.6534  -14.8911   18.2750 O   0  0  0  0  0  0  0  0  0  0  0  0
  -23.3440  -28.8793   23.2344 O   0  0  0  0  0  0  0  0  0  0  0  0
  -21.5195  -25.1768   23.0018 O   0  0  0  0  0  0  0  0  0  0  0  0
  -25.7786  -23.0906   22.8338 O   0  0  0  0  0  0  0  0  0  0  0  0
  -31.3516  -23.6037   21.8059 O   0  0  0  0  0  0  0  0  0  0  0  0
  -22.2808  -14.8327   20.7708 O   0  0  0  0  0  0  0  0  0  0  0  0
  -28.7747  -28.6893   20.3785 O   0  0  0  0  0  0  0  0  0  1  0  0
  -21.6569   -9.3745   21.2424 F   0  0  0  0  0  0  0  0  0  0  0  0
  -20.9641  -13.7380   22.9411 F   0  0  0  0  0  0  0  0  0  0  0  0
  -30.5062  -22.2817   17.0473 F   0  0  0  0  0  0  0  0  0  0  0  0
  -30.5738  -25.5088   14.4069 F   0  0  0  0  0  0  0  0  0  0  0  0
  -31.5573  -23.5934   14.6678 F   0  0  0  0  0  0  0  0  0  0  0  0
  -29.3905  -23.7261   14.7945 F   0  0  0  0  0  0  0  0  0  0  0  0
  1  2  1  0  0  0  0
  1  5  2  0  0  0  0
  2  6  2  0  0  0  0
  3  8  2  0  0  0  0
  3 17  1  0  0  0  0
  4  9  1  0  0  0  0
  4 17  2  0  0  0  0
  5 19  1  0  0  0  0
  6 21  1  0  0  0  0
  7 10  2  0  0  0  0
  7 20  1  0  0  0  0
  8 26  1  0  0  0  0
  9 26  2  0  0  0  0
 10 27  1  0  0  0  0
 11 12  2  0  0  0  0
 11 28  1  0  0  0  0
 12 29  1  0  0  0  0
 13 22  1  0  0  0  0
 13 27  2  0  0  0  0
 14 23  1  0  0  0  0
 14 24  2  0  0  0  0
 15 24  1  0  0  0  0
 15 25  2  0  0  0  0
 16 29  2  0  0  0  0
 16 30  1  0  0  0  0
 17 32  1  0  0  0  0
 18 32  1  0  0  0  0
 18 33  2  0  0  0  0
 18 34  1  0  0  0  0
 19 21  2  0  0  0  0
 19 39  1  0  0  0  0
 20 22  2  0  0  0  0
 20 40  1  0  0  0  0
 21 48  1  0  0  0  0
 22 41  1  0  0  0  0
 23 31  2  0  0  0  0
 23 61  1  0  0  0  0
 24 72  1  0  0  0  0
 25 31  1  0  0  0  0
 25 69  1  0  0  0  0
 26 79  1  0  0  0  0
 27 80  1  0  0  0  0
 28 30  2  0  0  0  0
 28 79  1  0  0  0  0
 29 81  1  0  0  0  0
 30 82  1  0  0  0  0
 31 83  1  0  0  0  0
 32 63  2  0  0  0  0
 33 64  1  0  0  0  0
 33 67  1  0  0  0  0
 34 68  1  0  0  0  0
 34 74  2  0  0  0  0
 35 49  1  0  0  0  0
 35 70  1  0  0  0  0
 35 75  2  0  0  0  0
 36 59  1  0  0  0  0
 36 65  1  0  0  0  0
 36 76  2  0  0  0  0
 37 60  1  0  0  0  0
 37 71  1  0  0  0  0
 37 77  2  0  0  0  0
 38 66  1  0  0  0  0
 38 69  1  0  0  0  0
 38 78  2  0  0  0  0
 39 42  1  0  0  0  0
 40 49  1  0  0  0  0
 41 65  1  0  0  0  0
 42 44  1  0  0  0  0
 43 45  1  0  0  0  0
 43 46  1  0  0  0  0
 44 48  1  0  0  0  0
 45 50  1  0  0  0  0
 46 66  1  0  0  0  0
 47 50  1  0  0  0  0
 47 66  1  0  0  0  0
 48 70  1  0  0  0  0
 49 65  1  0  0  0  0
 50 64  1  0  0  0  0
 51 60  1  0  0  0  0
 52 62  1  0  0  0  0
 53 62  1  0  0  0  0
 54 62  1  0  0  0  0
 55 72  1  0  0  0  0
 56 73  1  0  0  0  0
 57 58  1  0  0  0  0
 57 72  1  0  0  0  0
 58 80  1  0  0  0  0
 59 62  1  0  0  0  0
 59 71  1  0  0  0  0
 60 73  1  0  0  0  0
 61 84  1  0  0  0  0
 61 85  1  0  0  0  0
 61 86  1  0  0  0  0
 63 64  1  0  0  0  0
M  CHG  1  73   1
M  ISO  4  38 100  58 101  69 100  80 101
M  END
> <Batch ID>
0012

> <Smiles>
CNC(C)C(=O)NC(C(=O)N1Cc2cc([101O:1][101CH2:1]CN(C)c3cc([100NH:0][100C:0](=O)N4CCCC(n5nc(-c6ccc(Oc7ccc(F)cc7F)cc6)c(C(N)=O)c5N)C4)c(F)c(C(F)(F)F)c3)ccc2CC1C(=O)NC1CCCc2ccccc21)C(C)(C)C

> <Shape>
0.223

> <Color>
0.089

> <Negative vol penalty>
0.000

$$$$

  -OEChem-04052315473D

 86 94  0     1  0  0  0  0  0999 V2000
  -27.8863  -37.7565   20.8903 C   0  0  0  0  0  0  0  0  0  0  0  0
  -28.3527  -36.5018   20.5111 C   0  0  0  0  0  0  0  0  0  0  0  0
  -26.6449  -10.7555   19.4267 C   0  0  0  0  0  0  0  0  0  0  0  0
  -25.3326  -12.0086   17.8315 C   0  0  0  0  0  0  0  0  0  0  0  0
  -26.9880  -37.8739   21.9501 C   0  0  0  0  0  0  0  0  0  0  0  0
  -27.9218  -35.3639   21.1923 C   0  0  0  0  0  0  0  0  0  0  0  0
  -26.9413  -29.8037   18.8199 C   0  0  0  0  0  0  0  0  0  0  0  0
  -25.6640   -9.7643   19.4552 C   0  0  0  0  0  0  0  0  0  0  0  0
  -24.3516  -11.0173   17.8599 C   0  0  0  0  0  0  0  0  0  0  0  0
  -27.7195  -28.6474   18.7870 C   0  0  0  0  0  0  0  0  0  0  0  0
  -23.3373   -7.0764   20.2199 C   0  0  0  0  0  0  0  0  0  0  0  0
  -22.9547   -6.5759   21.4644 C   0  0  0  0  0  0  0  0  0  0  0  0
  -26.5626  -27.8205   20.7356 C   0  0  0  0  0  0  0  0  0  0  0  0
  -30.1516  -22.5812   15.4878 C   0  0  0  0  0  0  0  0  0  0  0  0
  -29.5215  -21.7743   17.6760 C   0  0  0  0  0  0  0  0  0  0  0  0
  -22.2584   -8.7886   22.1400 C   0  0  0  0  0  0  0  0  0  0  0  0
  -26.4792  -11.8777   18.6149 C   0  0  0  0  0  0  0  0  0  0  0  0
  -28.6045  -12.9734   17.7258 C   0  0  0  0  0  0  0  0  0  0  0  0
  -26.5385  -36.7360   22.6384 C   0  0  0  0  0  0  0  0  0  0  0  0
  -25.9737  -29.9822   19.8191 C   0  0  0  0  0  0  0  0  0  0  0  0
  -27.0177  -35.4664   22.2631 C   0  0  0  0  0  0  0  0  0  0  0  0
  -25.7717  -28.9788   20.7775 C   0  0  0  0  0  0  0  0  0  0  0  0
  -30.2710  -20.2199   15.9851 C   0  0  0  0  0  0  0  0  0  0  0  0
  -29.6917  -22.8303   16.7808 C   0  0  0  0  0  0  0  0  0  0  0  0
  -30.4412  -21.2760   15.0899 C   0  0  0  0  0  0  0  0  0  0  0  0
  -29.8111  -20.4690   17.2782 C   0  0  0  0  0  0  0  0  0  0  0  0
  -24.5173   -9.8952   18.6718 C   0  0  0  0  0  0  0  0  0  0  0  0
  -27.5323  -27.6568   19.7466 C   0  0  0  0  0  0  0  0  0  0  0  0
  -23.1805   -8.4329   19.9354 C   0  0  0  0  0  0  0  0  0  0  0  0
  -22.4153   -7.4320   22.4244 C   0  0  0  0  0  0  0  0  0  0  0  0
  -22.6410   -9.2890   20.8955 C   0  0  0  0  0  0  0  0  0  0  0  0
  -27.4919  -12.9022   18.5855 C   0  0  0  0  0  0  0  0  0  0  0  0
  -29.2522  -14.1262   18.0973 C   0  0  0  0  0  0  0  0  0  0  0  0
  -29.0156  -12.0776   16.6846 C   0  0  0  0  0  0  0  0  0  0  0  0
  -25.5274  -32.0869   22.1590 C   0  0  0  0  0  0  0  0  0  0  0  0
  -22.7288  -30.4902   22.5339 C   0  0  0  0  0  0  0  0  0  0  0  0
  -31.1243  -21.9888   12.7769 C   0  0  0  0  0  0  0  0  0  0  0  0
  -28.9348  -24.5793   18.4246 C   0  0  0  0  0  0  0  0  0  0  0  0
  -20.9560  -27.6078   22.0917 C   0  0  0  0  0  0  0  0  0  0  0  0
  -29.1845  -19.5087   19.5213 C   0  0  0  0  0  0  0  0  0  0  0  0
  -25.6037  -36.9173   23.8080 C   0  0  0  0  0  0  0  0  0  0  0  0
  -25.1240  -31.2233   19.8250 C   0  0  0  0  0  0  0  0  0  0  0  0
  -24.7321  -29.1130   21.8591 C   0  0  0  0  0  0  0  0  0  0  0  0
  -24.9068  -35.6283   24.2362 C   0  0  0  0  0  0  0  0  0  0  0  0
  -28.5747  -17.1392   22.1079 C   0  0  0  0  0  0  0  0  0  0  0  0
  -25.9104  -34.4831   24.3254 C   0  0  0  0  0  0  0  0  0  0  0  0
  -28.3302  -15.8315   21.3514 C   0  0  0  0  0  0  0  0  0  0  0  0
  -27.9951  -18.3413   21.3645 C   0  0  0  0  0  0  0  0  0  0  0  0
  -28.1769  -17.1629   19.2087 C   0  0  0  0  0  0  0  0  0  0  0  0
  -26.5544  -34.2063   22.9615 C   0  0  1  0  0  0  0  0  0  0  0  0
  -24.5213  -31.5284   21.1928 C   0  0  1  0  0  0  0  0  0  0  0  0
  -28.7996  -15.9315   19.8867 C   0  0  2  0  0  0  0  0  0  0  0  0
  -30.5833  -18.8186   15.5585 C   0  0  0  0  0  0  0  0  0  0  0  0
  -31.6234  -21.3370   11.5118 C   0  0  0  0  0  0  0  0  0  0  0  0
  -18.7044  -26.5923   22.5350 C   0  0  0  0  0  0  0  0  0  0  0  0
  -23.4721  -30.1304   25.4713 C   0  0  0  0  0  0  0  0  0  0  0  0
  -21.7192  -28.3494   25.6246 C   0  0  0  0  0  0  0  0  0  0  0  0
  -21.0692  -30.6917   25.0644 C   0  0  0  0  0  0  0  0  0  0  0  0
  -20.4397  -27.2067   19.2053 C   0  0  0  0  0  0  0  0  0  0  0  0
  -28.7477  -26.0851   18.4397 C   0  0  0  0  0  0  0  0  0  1  0  0
  -22.2794  -29.2950   23.3392 C   0  0  1  0  0  0  0  0  0  0  0  0
  -19.5644  -27.3557   21.5399 C   0  0  2  0  0  0  0  0  0  0  0  0
  -22.1560  -29.6146   24.8558 C   0  0  0  0  0  0  0  0  0  0  0  0
  -27.4332  -13.9281   19.4389 N   0  0  0  0  0  0  0  0  0  0  0  0
  -28.5170  -14.6547   19.1173 N   0  0  0  0  0  0  0  0  0  0  0  0
  -23.9308  -30.3476   21.8263 N   0  0  0  0  0  0  0  0  0  0  0  0
  -28.4870  -18.3734   19.9854 N   0  0  0  0  0  0  0  0  0  0  0  0
  -30.3731  -14.7293   17.6476 N   0  0  0  0  0  0  0  0  0  0  0  0
  -28.2352  -10.9406   16.4346 N   0  0  0  0  0  0  0  0  0  0  0  0
  -29.3978  -24.1545   17.1839 N   0  0  0  0  0  0  0  0  0  0  0  0
  -30.9008  -21.0487   13.7898 N   0  0  0  0  0  0  0  0  0  0  0  0
  -29.6324  -19.4116   18.2042 N   0  0  0  0  0  0  0  0  0  0  0  0
  -25.6458  -33.4630   22.1152 N   0  0  0  0  0  0  0  0  0  0  0  0
  -21.0410  -28.8303   22.7237 N   0  0  0  0  0  0  0  0  0  0  0  0
  -19.6424  -26.5625   20.2806 N   0  3  0  0  0  0  0  0  0  0  0  0
  -30.0535  -12.2709   16.0072 O   0  0  0  0  0  0  0  0  0  0  0  0
  -26.1491  -31.3259   22.8911 O   0  0  0  0  0  0  0  0  0  0  0  0
  -22.0351  -31.5102   22.5271 O   0  0  0  0  0  0  0  0  0  0  0  0
  -30.9617  -23.2033   12.8358 O   0  0  0  0  0  0  0  0  0  0  0  0
  -28.6906  -23.8916   19.4105 O   0  0  0  0  0  0  0  0  0  0  0  0
  -21.8745  -26.7993   21.9771 O   0  0  0  0  0  0  0  0  0  0  0  0
  -29.3944  -20.4834   20.2478 O   0  0  0  0  0  0  0  0  0  0  0  0
  -23.5600   -8.9280   18.6991 O   0  0  0  0  0  0  0  0  0  0  0  0
  -28.2910  -26.5275   19.7172 O   0  0  0  0  0  0  0  0  0  1  0  0
  -22.0465   -6.9511   23.6190 F   0  0  0  0  0  0  0  0  0  0  0  0
  -22.4868  -10.5930   20.6276 F   0  0  0  0  0  0  0  0  0  0  0  0
  1  2  1  0  0  0  0
  1  5  2  0  0  0  0
  2  6  2  0  0  0  0
  3  8  2  0  0  0  0
  3 17  1  0  0  0  0
  4  9  1  0  0  0  0
  4 17  2  0  0  0  0
  5 19  1  0  0  0  0
  6 21  1  0  0  0  0
  7 10  2  0  0  0  0
  7 20  1  0  0  0  0
  8 27  1  0  0  0  0
  9 27  2  0  0  0  0
 10 28  1  0  0  0  0
 11 12  2  0  0  0  0
 11 29  1  0  0  0  0
 12 30  1  0  0  0  0
 13 22  1  0  0  0  0
 13 28  2  0  0  0  0
 14 24  1  0  0  0  0
 14 25  2  0  0  0  0
 15 24  2  0  0  0  0
 15 26  1  0  0  0  0
 16 30  2  0  0  0  0
 16 31  1  0  0  0  0
 17 32  1  0  0  0  0
 18 32  1  0  0  0  0
 18 33  2  0  0  0  0
 18 34  1  0  0  0  0
 19 21  2  0  0  0  0
 19 41  1  0  0  0  0
 20 22  2  0  0  0  0
 20 42  1  0  0  0  0
 21 50  1  0  0  0  0
 22 43  1  0  0  0  0
 23 25  1  0  0  0  0
 23 26  2  0  0  0  0
 23 53  1  0  0  0  0
 24 70  1  0  0  0  0
 25 71  1  0  0  0  0
 26 72  1  0  0  0  0
 27 83  1  0  0  0  0
 28 84  1  0  0  0  0
 29 31  2  0  0  0  0
 29 83  1  0  0  0  0
 30 85  1  0  0  0  0
 31 86  1  0  0  0  0
 32 64  2  0  0  0  0
 33 65  1  0  0  0  0
 33 68  1  0  0  0  0
 34 69  1  0  0  0  0
 34 76  2  0  0  0  0
 35 51  1  0  0  0  0
 35 73  1  0  0  0  0
 35 77  2  0  0  0  0
 36 61  1  0  0  0  0
 36 66  1  0  0  0  0
 36 78  2  0  0  0  0
 37 54  1  0  0  0  0
 37 71  1  0  0  0  0
 37 79  2  0  0  0  0
 38 60  1  0  0  0  0
 38 70  1  0  0  0  0
 38 80  2  0  0  0  0
 39 62  1  0  0  0  0
 39 74  1  0  0  0  0
 39 81  2  0  0  0  0
 40 67  1  0  0  0  0
 40 72  1  0  0  0  0
 40 82  2  0  0  0  0
 41 44  1  0  0  0  0
 42 51  1  0  0  0  0
 43 66  1  0  0  0  0
 44 46  1  0  0  0  0
 45 47  1  0  0  0  0
 45 48  1  0  0  0  0
 46 50  1  0  0  0  0
 47 52  1  0  0  0  0
 48 67  1  0  0  0  0
 49 52  1  0  0  0  0
 49 67  1  0  0  0  0
 50 73  1  0  0  0  0
 51 66  1  0  0  0  0
 52 65  1  0  0  0  0
 55 62  1  0  0  0  0
 56 63  1  0  0  0  0
 57 63  1  0  0  0  0
 58 63  1  0  0  0  0
 59 75  1  0  0  0  0
 60 84  1  0  0  0  0
 61 63  1  0  0  0  0
 61 74  1  0  0  0  0
 62 75  1  0  0  0  0
 64 65  1  0  0  0  0
M  CHG  1  75   1
M  ISO  4  40 100  60 101  72 100  84 101
M  END
> <Batch ID>
0012

> <Smiles>
CNC(C)C(=O)NC(C(=O)N1Cc2cc([101O:1][101CH2:1]C(=O)Nc3cc(NC(C)=O)c(C)c([100NH:0][100C:0](=O)N4CCCC(n5nc(-c6ccc(Oc7ccc(F)cc7F)cc6)c(C(N)=O)c5N)C4)c3)ccc2CC1C(=O)NC1CCCc2ccccc21)C(C)(C)C

> <Shape>
0.296

> <Color>
0.079

> <Negative vol penalty>
0.000

$$$$

  -OEChem-04052315473D

 90 98  0     1  0  0  0  0  0999 V2000
  -19.5138  -34.1585   22.4802 C   0  0  0  0  0  0  0  0  0  0  0  0
  -20.8288  -33.8699   22.1299 C   0  0  0  0  0  0  0  0  0  0  0  0
  -23.1235  -14.9127   21.6866 C   0  0  0  0  0  0  0  0  0  0  0  0
  -24.6463  -13.5845   23.0111 C   0  0  0  0  0  0  0  0  0  0  0  0
  -18.7703  -33.2351   23.2139 C   0  0  0  0  0  0  0  0  0  0  0  0
  -21.4016  -32.6580   22.5141 C   0  0  0  0  0  0  0  0  0  0  0  0
  -25.4762  -29.3479   19.3602 C   0  0  0  0  0  0  0  0  0  0  0  0
  -22.3153  -13.7926   21.4925 C   0  0  0  0  0  0  0  0  0  0  0  0
  -23.8380  -12.4644   22.8171 C   0  0  0  0  0  0  0  0  0  0  0  0
  -26.8636  -29.2399   19.4446 C   0  0  0  0  0  0  0  0  0  0  0  0
  -23.2707  -10.1940   20.3769 C   0  0  0  0  0  0  0  0  0  0  0  0
  -23.8967   -8.9930   20.0436 C   0  0  0  0  0  0  0  0  0  0  0  0
  -26.6207  -27.2825   20.8334 C   0  0  0  0  0  0  0  0  0  0  0  0
  -31.0205  -21.9304   18.6416 C   0  0  0  0  0  0  0  0  0  0  0  0
  -29.9067  -24.4443   18.1701 C   0  0  0  0  0  0  0  0  0  0  0  0
  -22.9922   -7.9686   22.0360 C   0  0  0  0  0  0  0  0  0  0  0  0
  -24.2891  -14.8087   22.4458 C   0  0  0  0  0  0  0  0  0  0  0  0
  -25.0381  -16.9062   23.6896 C   0  0  0  0  0  0  0  0  0  0  0  0
  -19.3311  -32.0071   23.5990 C   0  0  0  0  0  0  0  0  0  0  0  0
  -24.6491  -28.4288   20.0218 C   0  0  0  0  0  0  0  0  0  0  0  0
  -20.6654  -31.7178   23.2548 C   0  0  0  0  0  0  0  0  0  0  0  0
  -25.2231  -27.3795   20.7537 C   0  0  0  0  0  0  0  0  0  0  0  0
  -30.0764  -22.0960   17.6282 C   0  0  0  0  0  0  0  0  0  0  0  0
  -30.8507  -24.2787   19.1836 C   0  0  0  0  0  0  0  0  0  0  0  0
  -22.6724  -12.5685   22.0578 C   0  0  0  0  0  0  0  0  0  0  0  0
  -27.4361  -28.2088   20.1837 C   0  0  0  0  0  0  0  0  0  0  0  0
  -22.5054  -10.2824   21.5398 C   0  0  0  0  0  0  0  0  0  0  0  0
  -23.7575   -7.8802   20.8731 C   0  0  0  0  0  0  0  0  0  0  0  0
  -31.4076  -23.0217   19.4193 C   0  0  0  0  0  0  0  0  0  0  0  0
  -29.5196  -23.3529   17.3924 C   0  0  0  0  0  0  0  0  0  0  0  0
  -22.3661   -9.1697   22.3693 C   0  0  0  0  0  0  0  0  0  0  0  0
  -25.1247  -15.9653   22.6461 C   0  0  0  0  0  0  0  0  0  0  0  0
  -26.0467  -17.8014   23.4293 C   0  0  0  0  0  0  0  0  0  0  0  0
  -24.1274  -16.9656   24.7954 C   0  0  0  0  0  0  0  0  0  0  0  0
  -22.4647  -28.6282   22.3223 C   0  0  0  0  0  0  0  0  0  0  0  0
  -22.0147  -25.4911   21.6303 C   0  0  0  0  0  0  0  0  0  0  0  0
  -23.2859  -22.5964   20.3453 C   0  0  0  0  0  0  0  0  0  0  0  0
  -30.5282  -18.6000   17.0847 C   0  0  0  0  0  0  0  0  0  0  0  0
  -28.7149  -19.4616   18.4972 C   0  0  0  0  0  0  0  0  0  0  0  0
  -18.5037  -31.0606   24.4321 C   0  0  0  0  0  0  0  0  0  0  0  0
  -23.1544  -28.5434   19.8989 C   0  0  0  0  0  0  0  0  0  0  0  0
  -24.3794  -26.3551   21.4659 C   0  0  0  0  0  0  0  0  0  0  0  0
  -19.0635  -29.6412   24.4781 C   0  0  0  0  0  0  0  0  0  0  0  0
  -30.3477  -18.1152   21.3759 C   0  0  0  0  0  0  0  0  0  0  0  0
  -20.5644  -29.6678   24.7492 C   0  0  0  0  0  0  0  0  0  0  0  0
  -29.1738  -17.4865   22.1255 C   0  0  0  0  0  0  0  0  0  0  0  0
  -30.2248  -17.9283   19.8637 C   0  0  0  0  0  0  0  0  0  0  0  0
  -27.7610  -17.7766   20.0516 C   0  0  0  0  0  0  0  0  0  0  0  0
  -21.3139  -30.4034   23.6318 C   0  0  1  0  0  0  0  0  0  0  0  0
  -22.4068  -27.8539   21.0360 C   0  0  1  0  0  0  0  0  0  0  0  0
  -27.8299  -17.9923   21.5718 C   0  0  1  0  0  0  0  0  0  0  0  0
  -22.6953  -20.1894   19.9517 C   0  0  0  0  0  0  0  0  0  0  0  0
  -31.6709  -27.7104   20.3841 C   0  0  0  0  0  0  0  0  0  0  0  0
  -22.4358  -24.9056   24.5951 C   0  0  0  0  0  0  0  0  0  0  0  0
  -22.7821  -22.4987   23.9991 C   0  0  0  0  0  0  0  0  0  0  0  0
  -20.5931  -23.5968   23.5247 C   0  0  0  0  0  0  0  0  0  0  0  0
  -23.5992  -22.8780   17.4159 C   0  0  0  0  0  0  0  0  0  0  0  0
  -29.6622  -20.9192   16.7927 C   0  0  0  0  0  0  0  0  0  0  0  0
  -29.3284  -26.7890   20.4270 C   0  0  0  0  0  0  0  0  0  1  0  0
  -22.6088  -24.1925   22.1197 C   0  0  1  0  0  0  0  0  0  0  0  0
  -22.7101  -21.5918   19.3636 C   0  0  2  0  0  0  0  0  0  0  0  0
  -30.7081  -26.6976   19.7786 C   0  0  2  0  0  0  0  0  0  0  0  0
  -31.9375  -18.9352   16.6700 C   0  0  0  0  0  0  0  0  0  0  0  0
  -22.1211  -23.8187   23.5479 C   0  0  0  0  0  0  0  0  0  0  0  0
  -26.1104  -16.2375   21.7868 N   0  0  0  0  0  0  0  0  0  0  0  0
  -26.6523  -17.3597   22.2899 N   0  0  0  0  0  0  0  0  0  0  0  0
  -22.9229  -26.5135   21.3208 N   0  0  0  0  0  0  0  0  0  0  0  0
  -28.9131  -18.3895   19.3864 N   0  0  0  0  0  0  0  0  0  0  0  0
  -26.4657  -18.9156   24.0662 N   0  0  0  0  0  0  0  0  0  0  0  0
  -23.1523  -15.9657   24.9124 N   0  0  0  0  0  0  0  0  0  0  0  0
  -31.2402  -25.3838   19.9687 N   0  0  0  0  0  0  0  0  0  0  0  0
  -21.4485  -29.5530   22.4686 N   0  0  0  0  0  0  0  0  0  0  0  0
  -22.3001  -23.1934   21.1023 N   0  0  0  0  0  0  0  0  0  0  0  0
  -29.7328  -19.6663   17.5401 N   0  0  0  0  0  0  0  0  0  0  0  0
  -23.5190  -21.5682   18.1123 N   0  3  0  0  0  0  0  0  0  0  0  0
  -24.1664  -17.8875   25.6452 O   0  0  0  0  0  0  0  0  0  0  0  0
  -23.3640  -28.4022   23.1236 O   0  0  0  0  0  0  0  0  0  0  0  0
  -20.7903  -25.5923   21.5198 O   0  0  0  0  0  0  0  0  0  0  0  0
  -24.4901  -22.8257   20.4344 O   0  0  0  0  0  0  0  0  0  0  0  0
  -30.1398  -17.4309   17.0138 O   0  0  0  0  0  0  0  0  0  0  0  0
  -27.6992  -20.1661   18.5169 O   0  0  0  0  0  0  0  0  0  0  0  0
  -21.8838  -11.4753   21.8689 O   0  0  0  0  0  0  0  0  0  0  0  0
  -28.7989  -28.1008   20.2688 O   0  0  0  0  0  0  0  0  0  1  0  0
  -24.3574   -6.7265   20.5522 F   0  0  0  0  0  0  0  0  0  0  0  0
  -32.3156  -22.8513   20.3907 F   0  0  0  0  0  0  0  0  0  0  0  0
  -28.6117  -23.5218   16.4209 F   0  0  0  0  0  0  0  0  0  0  0  0
  -21.6312   -9.2482   23.4872 F   0  0  0  0  0  0  0  0  0  0  0  0
  -32.1966  -20.2619   16.8168 F   0  0  0  0  0  0  0  0  0  0  0  0
  -32.1748  -18.6442   15.3660 F   0  0  0  0  0  0  0  0  0  0  0  0
  -32.8703  -18.2824   17.4074 F   0  0  0  0  0  0  0  0  0  0  0  0
  1  2  1  0  0  0  0
  1  5  2  0  0  0  0
  2  6  2  0  0  0  0
  3  8  2  0  0  0  0
  3 17  1  0  0  0  0
  4  9  1  0  0  0  0
  4 17  2  0  0  0  0
  5 19  1  0  0  0  0
  6 21  1  0  0  0  0
  7 10  2  0  0  0  0
  7 20  1  0  0  0  0
  8 25  1  0  0  0  0
  9 25  2  0  0  0  0
 10 26  1  0  0  0  0
 11 12  2  0  0  0  0
 11 27  1  0  0  0  0
 12 28  1  0  0  0  0
 13 22  1  0  0  0  0
 13 26  2  0  0  0  0
 14 23  2  0  0  0  0
 14 29  1  0  0  0  0
 15 24  1  0  0  0  0
 15 30  2  0  0  0  0
 16 28  2  0  0  0  0
 16 31  1  0  0  0  0
 17 32  1  0  0  0  0
 18 32  1  0  0  0  0
 18 33  2  0  0  0  0
 18 34  1  0  0  0  0
 19 21  2  0  0  0  0
 19 40  1  0  0  0  0
 20 22  2  0  0  0  0
 20 41  1  0  0  0  0
 21 49  1  0  0  0  0
 22 42  1  0  0  0  0
 23 30  1  0  0  0  0
 23 58  1  0  0  0  0
 24 29  2  0  0  0  0
 24 71  1  0  0  0  0
 25 82  1  0  0  0  0
 26 83  1  0  0  0  0
 27 31  2  0  0  0  0
 27 82  1  0  0  0  0
 28 84  1  0  0  0  0
 29 85  1  0  0  0  0
 30 86  1  0  0  0  0
 31 87  1  0  0  0  0
 32 65  2  0  0  0  0
 33 66  1  0  0  0  0
 33 69  1  0  0  0  0
 34 70  1  0  0  0  0
 34 76  2  0  0  0  0
 35 50  1  0  0  0  0
 35 72  1  0  0  0  0
 35 77  2  0  0  0  0
 36 60  1  0  0  0  0
 36 67  1  0  0  0  0
 36 78  2  0  0  0  0
 37 61  1  0  0  0  0
 37 73  1  0  0  0  0
 37 79  2  0  0  0  0
 38 63  1  0  0  0  0
 38 74  1  0  0  0  0
 38 80  2  0  0  0  0
 39 68  1  0  0  0  0
 39 74  1  0  0  0  0
 39 81  2  0  0  0  0
 40 43  1  0  0  0  0
 41 50  1  0  0  0  0
 42 67  1  0  0  0  0
 43 45  1  0  0  0  0
 44 46  1  0  0  0  0
 44 47  1  0  0  0  0
 45 49  1  0  0  0  0
 46 51  1  0  0  0  0
 47 68  1  0  0  0  0
 48 51  1  0  0  0  0
 48 68  1  0  0  0  0
 49 72  1  0  0  0  0
 50 67  1  0  0  0  0
 51 66  1  0  0  0  0
 52 61  1  0  0  0  0
 53 62  1  0  0  0  0
 54 64  1  0  0  0  0
 55 64  1  0  0  0  0
 56 64  1  0  0  0  0
 57 75  1  0  0  0  0
 58 74  1  0  0  0  0
 59 62  1  0  0  0  0
 59 83  1  0  0  0  0
 60 64  1  0  0  0  0
 60 73  1  0  0  0  0
 61 75  1  0  0  0  0
 62 71  1  0  0  0  0
 63 88  1  0  0  0  0
 63 89  1  0  0  0  0
 63 90  1  0  0  0  0
 65 66  1  0  0  0  0
M  CHG  1  75   1
M  ISO  4  39 100  59 101  74 100  83 101
M  END
> <Batch ID>
0012

> <Smiles>
CNC(C)C(=O)NC(C(=O)N1Cc2cc([101O:1][101CH2:1]C(C)Nc3cc(F)c(C[100N:0](C(=O)C(F)(F)F)[100C:0](=O)N4CCCC(n5nc(-c6ccc(Oc7ccc(F)cc7F)cc6)c(C(N)=O)c5N)C4)cc3F)ccc2CC1C(=O)NC1CCCc2ccccc21)C(C)(C)C

> <Shape>
0.217

> <Color>
0.076

> <Negative vol penalty>
0.000

$$$$

  -OEChem-04052315473D

 84 92  0     1  0  0  0  0  0999 V2000
  -30.3428  -33.7548   17.6521 C   0  0  0  0  0  0  0  0  0  0  0  0
  -30.7173  -32.7333   18.5191 C   0  0  0  0  0  0  0  0  0  0  0  0
  -22.9782   -9.9182   19.9828 C   0  0  0  0  0  0  0  0  0  0  0  0
  -23.7154   -9.9453   22.2834 C   0  0  0  0  0  0  0  0  0  0  0  0
  -29.0546  -33.7782   17.1194 C   0  0  0  0  0  0  0  0  0  0  0  0
  -29.8033  -31.7351   18.8548 C   0  0  0  0  0  0  0  0  0  0  0  0
  -31.0279  -25.8310   19.9262 C   0  0  0  0  0  0  0  0  0  0  0  0
  -22.2021   -8.7892   20.2448 C   0  0  0  0  0  0  0  0  0  0  0  0
  -22.9392   -8.8163   22.5454 C   0  0  0  0  0  0  0  0  0  0  0  0
  -31.2023  -25.1083   21.1056 C   0  0  0  0  0  0  0  0  0  0  0  0
  -23.1490   -5.4787   22.0480 C   0  0  0  0  0  0  0  0  0  0  0  0
  -23.7304   -4.4504   22.7897 C   0  0  0  0  0  0  0  0  0  0  0  0
  -28.8901  -24.4256   21.0221 C   0  0  0  0  0  0  0  0  0  0  0  0
  -32.0000  -18.2233   24.1684 C   0  0  0  0  0  0  0  0  0  0  0  0
  -32.1142  -16.4403   22.5421 C   0  0  0  0  0  0  0  0  0  0  0  0
  -22.0173   -4.6977   24.4754 C   0  0  0  0  0  0  0  0  0  0  0  0
  -23.7349  -10.4962   21.0021 C   0  0  0  0  0  0  0  0  0  0  0  0
  -24.1436  -13.0092   20.8425 C   0  0  0  0  0  0  0  0  0  0  0  0
  -28.1274  -32.7745   17.4412 C   0  0  0  0  0  0  0  0  0  0  0  0
  -29.7784  -25.8655   19.2907 C   0  0  0  0  0  0  0  0  0  0  0  0
  -28.5010  -31.7459   18.3270 C   0  0  0  0  0  0  0  0  0  0  0  0
  -28.7032  -25.1475   19.8333 C   0  0  0  0  0  0  0  0  0  0  0  0
  -32.7504  -17.3098   23.4281 C   0  0  0  0  0  0  0  0  0  0  0  0
  -30.6135  -18.2673   24.0228 C   0  0  0  0  0  0  0  0  0  0  0  0
  -30.7277  -16.4843   22.3965 C   0  0  0  0  0  0  0  0  0  0  0  0
  -22.1826   -8.2383   21.5261 C   0  0  0  0  0  0  0  0  0  0  0  0
  -30.1326  -24.4078   21.6553 C   0  0  0  0  0  0  0  0  0  0  0  0
  -22.0017   -6.1166   22.5200 C   0  0  0  0  0  0  0  0  0  0  0  0
  -23.1646   -4.0599   24.0034 C   0  0  0  0  0  0  0  0  0  0  0  0
  -21.4359   -5.7260   23.7337 C   0  0  0  0  0  0  0  0  0  0  0  0
  -29.9773  -17.3978   23.1368 C   0  0  0  0  0  0  0  0  0  0  0  0
  -24.5373  -11.6621   20.7320 C   0  0  0  0  0  0  0  0  0  0  0  0
  -25.2585  -13.7237   20.4777 C   0  0  0  0  0  0  0  0  0  0  0  0
  -22.8829  -13.5649   21.2394 C   0  0  0  0  0  0  0  0  0  0  0  0
  -27.6871  -28.1503   18.5768 C   0  0  0  0  0  0  0  0  0  0  0  0
  -26.1682  -25.7369   17.0306 C   0  0  0  0  0  0  0  0  0  0  0  0
  -30.1913  -21.5212   23.8490 C   0  0  0  0  0  0  0  0  0  0  0  0
  -25.6247  -22.3817   16.7234 C   0  0  0  0  0  0  0  0  0  0  0  0
  -30.7480  -14.6304   20.6909 C   0  0  0  0  0  0  0  0  0  0  0  0
  -26.7315  -32.8681   16.8778 C   0  0  0  0  0  0  0  0  0  0  0  0
  -29.6136  -26.6280   18.0047 C   0  0  0  0  0  0  0  0  0  0  0  0
  -27.3467  -25.1357   19.1790 C   0  0  0  0  0  0  0  0  0  0  0  0
  -25.9412  -31.5668   16.9891 C   0  0  0  0  0  0  0  0  0  0  0  0
  -29.5945  -12.2054   18.3529 C   0  0  0  0  0  0  0  0  0  0  0  0
  -26.0831  -30.9740   18.3874 C   0  0  0  0  0  0  0  0  0  0  0  0
  -28.1436  -11.9587   18.7725 C   0  0  0  0  0  0  0  0  0  0  0  0
  -30.5034  -12.4313   19.5598 C   0  0  0  0  0  0  0  0  0  0  0  0
  -28.6024  -13.2288   20.9088 C   0  0  0  0  0  0  0  0  0  0  0  0
  -27.5457  -30.6316   18.6956 C   0  0  1  0  0  0  0  0  0  0  0  0
  -28.1651  -27.0126   17.7196 C   0  0  1  0  0  0  0  0  0  0  0  0
  -27.6371  -13.0603   19.7241 C   0  0  2  0  0  0  0  0  0  0  0  0
  -34.2328  -17.2639   23.5835 C   0  0  0  0  0  0  0  0  0  0  0  0
  -24.3018  -20.7140   15.3945 C   0  0  0  0  0  0  0  0  0  0  0  0
  -23.6628  -26.4688   18.6109 C   0  0  0  0  0  0  0  0  0  0  0  0
  -22.6985  -24.2469   17.9770 C   0  0  0  0  0  0  0  0  0  0  0  0
  -23.2548  -25.9140   16.2067 C   0  0  0  0  0  0  0  0  0  0  0  0
  -28.0768  -21.0807   15.6967 C   0  0  0  0  0  0  0  0  0  0  0  0
  -29.8473  -19.2664   24.8406 C   0  0  0  0  0  0  0  0  0  0  0  0
  -29.4867  -22.5426   22.9818 C   0  0  0  0  0  0  0  0  0  1  0  0
  -25.1259  -24.7128   17.4101 C   0  0  1  0  0  0  0  0  0  0  0  0
  -25.6165  -21.4696   15.5100 C   0  0  2  0  0  0  0  0  0  0  0  0
  -23.7104  -25.3372   17.5648 C   0  0  0  0  0  0  0  0  0  0  0  0
  -25.8033  -11.5263   20.3285 N   0  0  0  0  0  0  0  0  0  0  0  0
  -26.2148  -12.7973   20.1821 N   0  0  0  0  0  0  0  0  0  0  0  0
  -27.2340  -25.9015   17.9266 N   0  0  0  0  0  0  0  0  0  0  0  0
  -29.9628  -13.4913   20.4136 N   0  0  0  0  0  0  0  0  0  0  0  0
  -25.5042  -15.0478   20.3841 N   0  0  0  0  0  0  0  0  0  0  0  0
  -21.8444  -12.6883   21.5817 N   0  0  0  0  0  0  0  0  0  0  0  0
  -30.1170  -15.5859   21.4867 N   0  0  0  0  0  0  0  0  0  0  0  0
  -27.9259  -29.4000   18.0376 N   0  0  0  0  0  0  0  0  0  0  0  0
  -29.4112  -20.3929   24.0482 N   0  0  0  0  0  0  0  0  0  0  0  0
  -25.2068  -23.6569   16.4066 N   0  0  0  0  0  0  0  0  0  0  0  0
  -26.7233  -20.4757   15.6015 N   0  3  0  0  0  0  0  0  0  0  0  0
  -22.6783  -14.8021   21.2732 O   0  0  0  0  0  0  0  0  0  0  0  0
  -27.1407  -27.9120   19.6475 O   0  0  0  0  0  0  0  0  0  0  0  0
  -26.0452  -26.3623   15.9746 O   0  0  0  0  0  0  0  0  0  0  0  0
  -31.3167  -21.7010   24.3061 O   0  0  0  0  0  0  0  0  0  0  0  0
  -25.9641  -22.0001   17.8413 O   0  0  0  0  0  0  0  0  0  0  0  0
  -31.8857  -14.7616   20.2321 O   0  0  0  0  0  0  0  0  0  0  0  0
  -21.4252   -7.1367   21.7821 O   0  0  0  0  0  0  0  0  0  0  0  0
  -30.2999  -23.7020   22.8067 O   0  0  0  0  0  0  0  0  0  1  0  0
  -23.7222   -3.0714   24.7148 F   0  0  0  0  0  0  0  0  0  0  0  0
  -20.3331   -6.3342   24.1917 F   0  0  0  0  0  0  0  0  0  0  0  0
  -28.2537  -17.4571   22.9608 Cl  0  0  0  0  0  0  0  0  0  0  0  0
  1  2  1  0  0  0  0
  1  5  2  0  0  0  0
  2  6  2  0  0  0  0
  3  8  2  0  0  0  0
  3 17  1  0  0  0  0
  4  9  1  0  0  0  0
  4 17  2  0  0  0  0
  5 19  1  0  0  0  0
  6 21  1  0  0  0  0
  7 10  2  0  0  0  0
  7 20  1  0  0  0  0
  8 26  1  0  0  0  0
  9 26  2  0  0  0  0
 10 27  1  0  0  0  0
 11 12  2  0  0  0  0
 11 28  1  0  0  0  0
 12 29  1  0  0  0  0
 13 22  1  0  0  0  0
 13 27  2  0  0  0  0
 14 23  2  0  0  0  0
 14 24  1  0  0  0  0
 15 23  1  0  0  0  0
 15 25  2  0  0  0  0
 16 29  2  0  0  0  0
 16 30  1  0  0  0  0
 17 32  1  0  0  0  0
 18 32  1  0  0  0  0
 18 33  2  0  0  0  0
 18 34  1  0  0  0  0
 19 21  2  0  0  0  0
 19 40  1  0  0  0  0
 20 22  2  0  0  0  0
 20 41  1  0  0  0  0
 21 49  1  0  0  0  0
 22 42  1  0  0  0  0
 23 52  1  0  0  0  0
 24 31  2  0  0  0  0
 24 58  1  0  0  0  0
 25 31  1  0  0  0  0
 25 69  1  0  0  0  0
 26 80  1  0  0  0  0
 27 81  1  0  0  0  0
 28 30  2  0  0  0  0
 28 80  1  0  0  0  0
 29 82  1  0  0  0  0
 30 83  1  0  0  0  0
 31 84  1  0  0  0  0
 32 63  2  0  0  0  0
 33 64  1  0  0  0  0
 33 67  1  0  0  0  0
 34 68  1  0  0  0  0
 34 74  2  0  0  0  0
 35 50  1  0  0  0  0
 35 70  1  0  0  0  0
 35 75  2  0  0  0  0
 36 60  1  0  0  0  0
 36 65  1  0  0  0  0
 36 76  2  0  0  0  0
 37 59  1  0  0  0  0
 37 71  1  0  0  0  0
 37 77  2  0  0  0  0
 38 61  1  0  0  0  0
 38 72  1  0  0  0  0
 38 78  2  0  0  0  0
 39 66  1  0  0  0  0
 39 69  1  0  0  0  0
 39 79  2  0  0  0  0
 40 43  1  0  0  0  0
 41 50  1  0  0  0  0
 42 65  1  0  0  0  0
 43 45  1  0  0  0  0
 44 46  1  0  0  0  0
 44 47  1  0  0  0  0
 45 49  1  0  0  0  0
 46 51  1  0  0  0  0
 47 66  1  0  0  0  0
 48 51  1  0  0  0  0
 48 66  1  0  0  0  0
 49 70  1  0  0  0  0
 50 65  1  0  0  0  0
 51 64  1  0  0  0  0
 53 61  1  0  0  0  0
 54 62  1  0  0  0  0
 55 62  1  0  0  0  0
 56 62  1  0  0  0  0
 57 73  1  0  0  0  0
 58 71  1  0  0  0  0
 59 81  1  0  0  0  0
 60 62  1  0  0  0  0
 60 72  1  0  0  0  0
 61 73  1  0  0  0  0
 63 64  1  0  0  0  0
M  CHG  1  73   1
M  ISO  4  39 100  59 101  69 100  81 101
M  END
> <Batch ID>
0012

> <Smiles>
CNC(C)C(=O)NC(C(=O)N1Cc2cc([101O:1][101CH2:1]C(=O)NCc3cc(C)cc([100NH:0][100C:0](=O)N4CCCC(n5nc(-c6ccc(Oc7ccc(F)cc7F)cc6)c(C(N)=O)c5N)C4)c3Cl)ccc2CC1C(=O)NC1CCCc2ccccc21)C(C)(C)C

> <Shape>
0.224

> <Color>
0.198

> <Negative vol penalty>
0.000

$$$$

  -OEChem-04052315473D

 82 90  0     1  0  0  0  0  0999 V2000
  -30.4483  -35.0251   24.6197 C   0  0  0  0  0  0  0  0  0  0  0  0
  -30.4933  -34.2438   23.4694 C   0  0  0  0  0  0  0  0  0  0  0  0
  -24.5995   -9.0577   21.1744 C   0  0  0  0  0  0  0  0  0  0  0  0
  -22.8385  -10.6812   20.8579 C   0  0  0  0  0  0  0  0  0  0  0  0
  -29.6947  -34.6071   25.7157 C   0  0  0  0  0  0  0  0  0  0  0  0
  -29.7856  -33.0436   23.4150 C   0  0  0  0  0  0  0  0  0  0  0  0
  -26.2491  -28.8518   18.8064 C   0  0  0  0  0  0  0  0  0  0  0  0
  -23.6447   -8.0548   21.3425 C   0  0  0  0  0  0  0  0  0  0  0  0
  -21.8837   -9.6783   21.0260 C   0  0  0  0  0  0  0  0  0  0  0  0
  -26.2042  -27.5283   18.3705 C   0  0  0  0  0  0  0  0  0  0  0  0
  -21.5850   -6.9623   23.7897 C   0  0  0  0  0  0  0  0  0  0  0  0
  -21.7667   -6.0656   24.8424 C   0  0  0  0  0  0  0  0  0  0  0  0
  -24.8725  -26.9458   20.2957 C   0  0  0  0  0  0  0  0  0  0  0  0
  -27.4671  -20.1894   21.8596 C   0  0  0  0  0  0  0  0  0  0  0  0
  -27.0422  -20.6376   19.1391 C   0  0  0  0  0  0  0  0  0  0  0  0
  -21.8475   -4.2343   23.2686 C   0  0  0  0  0  0  0  0  0  0  0  0
  -24.1964  -10.3709   20.9321 C   0  0  0  0  0  0  0  0  0  0  0  0
  -25.7791  -11.8199   19.5525 C   0  0  0  0  0  0  0  0  0  0  0  0
  -28.9696  -33.4059   25.6712 C   0  0  0  0  0  0  0  0  0  0  0  0
  -25.6142  -29.2307   19.9979 C   0  0  0  0  0  0  0  0  0  0  0  0
  -29.0227  -32.6085   24.5120 C   0  0  0  0  0  0  0  0  0  0  0  0
  -24.9087  -28.2753   20.7432 C   0  0  0  0  0  0  0  0  0  0  0  0
  -27.3160  -21.4914   21.3826 C   0  0  0  0  0  0  0  0  0  0  0  0
  -27.4058  -19.1115   20.9764 C   0  0  0  0  0  0  0  0  0  0  0  0
  -27.1036  -21.7155   20.0223 C   0  0  0  0  0  0  0  0  0  0  0  0
  -22.2869   -8.3651   21.2683 C   0  0  0  0  0  0  0  0  0  0  0  0
  -25.5183  -26.5745   19.1167 C   0  0  0  0  0  0  0  0  0  0  0  0
  -21.5345   -6.4951   22.4763 C   0  0  0  0  0  0  0  0  0  0  0  0
  -21.8979   -4.7015   24.5819 C   0  0  0  0  0  0  0  0  0  0  0  0
  -21.6658   -5.1311   22.2158 C   0  0  0  0  0  0  0  0  0  0  0  0
  -27.1934  -19.3356   19.6161 C   0  0  0  0  0  0  0  0  0  0  0  0
  -25.1822  -11.4074   20.7589 C   0  0  0  0  0  0  0  0  0  0  0  0
  -26.6389  -12.8256   19.9211 C   0  0  0  0  0  0  0  0  0  0  0  0
  -25.5745  -11.3372   18.2180 C   0  0  0  0  0  0  0  0  0  0  0  0
  -26.5866  -30.4441   22.7702 C   0  0  0  0  0  0  0  0  0  0  0  0
  -23.4027  -30.6156   23.3668 C   0  0  0  0  0  0  0  0  0  0  0  0
  -20.2635  -29.4550   22.6999 C   0  0  0  0  0  0  0  0  0  0  0  0
  -27.7802  -17.4388   22.8225 C   0  0  0  0  0  0  0  0  0  0  0  0
  -28.2073  -32.9723   26.8981 C   0  0  0  0  0  0  0  0  0  0  0  0
  -25.6494  -30.6678   20.4405 C   0  0  0  0  0  0  0  0  0  0  0  0
  -24.1932  -28.6348   22.0189 C   0  0  0  0  0  0  0  0  0  0  0  0
  -27.1852  -31.8723   26.6230 C   0  0  0  0  0  0  0  0  0  0  0  0
  -28.1826  -14.3254   24.5025 C   0  0  0  0  0  0  0  0  0  0  0  0
  -27.8041  -30.7700   25.7692 C   0  0  0  0  0  0  0  0  0  0  0  0
  -27.4870  -13.3226   23.5790 C   0  0  0  0  0  0  0  0  0  0  0  0
  -27.4534  -15.6674   24.5344 C   0  0  0  0  0  0  0  0  0  0  0  0
  -26.5075  -15.2667   22.2952 C   0  0  0  0  0  0  0  0  0  0  0  0
  -28.2487  -31.3125   24.4056 C   0  0  1  0  0  0  0  0  0  0  0  0
  -25.4009  -30.8387   21.9360 C   0  0  1  0  0  0  0  0  0  0  0  0
  -27.2419  -13.9210   22.1799 C   0  0  2  0  0  0  0  0  0  0  0  0
  -27.3861  -22.6274   22.3506 C   0  0  0  0  0  0  0  0  0  0  0  0
  -17.8654  -29.7627   23.3720 C   0  0  0  0  0  0  0  0  0  0  0  0
  -23.9295  -29.0705   25.9446 C   0  0  0  0  0  0  0  0  0  0  0  0
  -21.4760  -28.5892   26.0753 C   0  0  0  0  0  0  0  0  0  0  0  0
  -22.2898  -30.9454   26.1688 C   0  0  0  0  0  0  0  0  0  0  0  0
  -19.4793  -30.2643   19.9632 C   0  0  0  0  0  0  0  0  0  0  0  0
  -26.7288  -23.3060   18.1367 C   0  0  0  0  0  0  0  0  0  0  0  0
  -26.5876  -24.8060   17.9398 C   0  0  0  0  0  0  0  0  0  1  0  0
  -22.3778  -29.6898   23.9761 C   0  0  1  0  0  0  0  0  0  0  0  0
  -18.9628  -30.1803   22.4056 C   0  0  2  0  0  0  0  0  0  0  0  0
  -22.5333  -29.5662   25.5182 C   0  0  0  0  0  0  0  0  0  0  0  0
  -25.6255  -12.0947   21.8149 N   0  0  0  0  0  0  0  0  0  0  0  0
  -26.5100  -12.9492   21.2732 N   0  0  0  0  0  0  0  0  0  0  0  0
  -24.2621  -30.0516   22.4133 N   0  0  0  0  0  0  0  0  0  0  0  0
  -27.2604  -16.1751   23.1743 N   0  0  0  0  0  0  0  0  0  0  0  0
  -27.4850  -13.6072   19.2172 N   0  0  0  0  0  0  0  0  0  0  0  0
  -24.6546  -10.2991   18.0167 N   0  0  0  0  0  0  0  0  0  0  0  0
  -27.5635  -17.8018   21.4937 N   0  0  0  0  0  0  0  0  0  0  0  0
  -26.9514  -23.0017   19.5316 N   0  0  0  0  0  0  0  0  0  0  0  0
  -27.1081  -31.4741   23.5296 N   0  0  0  0  0  0  0  0  0  0  0  0
  -21.0744  -30.1830   23.5446 N   0  0  0  0  0  0  0  0  0  0  0  0
  -18.5060  -29.8825   21.0186 N   0  3  0  0  0  0  0  0  0  0  0  0
  -26.2013  -11.8012   17.2355 O   0  0  0  0  0  0  0  0  0  0  0  0
  -26.9971  -29.2902   22.7292 O   0  0  0  0  0  0  0  0  0  0  0  0
  -23.4349  -31.7975   23.7185 O   0  0  0  0  0  0  0  0  0  0  0  0
  -20.5316  -28.3512   22.2305 O   0  0  0  0  0  0  0  0  0  0  0  0
  -28.3975  -18.1349   23.6326 O   0  0  0  0  0  0  0  0  0  0  0  0
  -21.3549   -7.3868   21.4321 O   0  0  0  0  0  0  0  0  0  0  0  0
  -25.4734  -25.2818   18.6938 O   0  0  0  0  0  0  0  0  0  1  0  0
  -22.0739   -3.8406   25.5929 F   0  0  0  0  0  0  0  0  0  0  0  0
  -21.6193   -4.6764   20.9560 F   0  0  0  0  0  0  0  0  0  0  0  0
  -27.1107  -18.0296   18.4880 Cl  0  0  0  0  0  0  0  0  0  0  0  0
  1  2  1  0  0  0  0
  1  5  2  0  0  0  0
  2  6  2  0  0  0  0
  3  8  2  0  0  0  0
  3 17  1  0  0  0  0
  4  9  1  0  0  0  0
  4 17  2  0  0  0  0
  5 19  1  0  0  0  0
  6 21  1  0  0  0  0
  7 10  2  0  0  0  0
  7 20  1  0  0  0  0
  8 26  1  0  0  0  0
  9 26  2  0  0  0  0
 10 27  1  0  0  0  0
 11 12  2  0  0  0  0
 11 28  1  0  0  0  0
 12 29  1  0  0  0  0
 13 22  1  0  0  0  0
 13 27  2  0  0  0  0
 14 23  1  0  0  0  0
 14 24  2  0  0  0  0
 15 25  1  0  0  0  0
 15 31  2  0  0  0  0
 16 29  2  0  0  0  0
 16 30  1  0  0  0  0
 17 32  1  0  0  0  0
 18 32  1  0  0  0  0
 18 33  2  0  0  0  0
 18 34  1  0  0  0  0
 19 21  2  0  0  0  0
 19 39  1  0  0  0  0
 20 22  2  0  0  0  0
 20 40  1  0  0  0  0
 21 48  1  0  0  0  0
 22 41  1  0  0  0  0
 23 25  2  0  0  0  0
 23 51  1  0  0  0  0
 24 31  1  0  0  0  0
 24 68  1  0  0  0  0
 25 69  1  0  0  0  0
 26 78  1  0  0  0  0
 27 79  1  0  0  0  0
 28 30  2  0  0  0  0
 28 78  1  0  0  0  0
 29 80  1  0  0  0  0
 30 81  1  0  0  0  0
 31 82  1  0  0  0  0
 32 62  2  0  0  0  0
 33 63  1  0  0  0  0
 33 66  1  0  0  0  0
 34 67  1  0  0  0  0
 34 73  2  0  0  0  0
 35 49  1  0  0  0  0
 35 70  1  0  0  0  0
 35 74  2  0  0  0  0
 36 59  1  0  0  0  0
 36 64  1  0  0  0  0
 36 75  2  0  0  0  0
 37 60  1  0  0  0  0
 37 71  1  0  0  0  0
 37 76  2  0  0  0  0
 38 65  1  0  0  0  0
 38 68  1  0  0  0  0
 38 77  2  0  0  0  0
 39 42  1  0  0  0  0
 40 49  1  0  0  0  0
 41 64  1  0  0  0  0
 42 44  1  0  0  0  0
 43 45  1  0  0  0  0
 43 46  1  0  0  0  0
 44 48  1  0  0  0  0
 45 50  1  0  0  0  0
 46 65  1  0  0  0  0
 47 50  1  0  0  0  0
 47 65  1  0  0  0  0
 48 70  1  0  0  0  0
 49 64  1  0  0  0  0
 50 63  1  0  0  0  0
 52 60  1  0  0  0  0
 53 61  1  0  0  0  0
 54 61  1  0  0  0  0
 55 61  1  0  0  0  0
 56 72  1  0  0  0  0
 57 58  1  0  0  0  0
 57 69  1  0  0  0  0
 58 79  1  0  0  0  0
 59 61  1  0  0  0  0
 59 71  1  0  0  0  0
 60 72  1  0  0  0  0
 62 63  1  0  0  0  0
M  CHG  1  72   1
M  ISO  4  38 100  58 101  68 100  79 101
M  END
> <Batch ID>
0012

> <Smiles>
CNC(C)C(=O)NC(C(=O)N1Cc2cc([101O:1][101CH2:1]CNc3cc(Cl)c([100NH:0][100C:0](=O)N4CCCC(n5nc(-c6ccc(Oc7ccc(F)cc7F)cc6)c(C(N)=O)c5N)C4)cc3C)ccc2CC1C(=O)NC1CCCc2ccccc21)C(C)(C)C

> <Shape>
0.272

> <Color>
0.109

> <Negative vol penalty>
0.000

$$$$

  -OEChem-04052315473D

 81 89  0     1  0  0  0  0  0999 V2000
  -30.9658  -23.3869   14.7047 C   0  0  0  0  0  0  0  0  0  0  0  0
  -30.4032  -23.0098   15.9199 C   0  0  0  0  0  0  0  0  0  0  0  0
  -24.3324   -9.6345   20.8206 C   0  0  0  0  0  0  0  0  0  0  0  0
  -24.6190  -10.5084   23.0547 C   0  0  0  0  0  0  0  0  0  0  0  0
  -31.3338  -24.7145   14.4904 C   0  0  0  0  0  0  0  0  0  0  0  0
  -30.2093  -23.9599   16.9219 C   0  0  0  0  0  0  0  0  0  0  0  0
  -25.6547  -23.5814   19.1030 C   0  0  0  0  0  0  0  0  0  0  0  0
  -23.9859   -8.3919   21.3510 C   0  0  0  0  0  0  0  0  0  0  0  0
  -24.2724   -9.2657   23.5852 C   0  0  0  0  0  0  0  0  0  0  0  0
  -25.4809  -22.5658   20.0422 C   0  0  0  0  0  0  0  0  0  0  0  0
  -23.1130   -6.4238   25.5339 C   0  0  0  0  0  0  0  0  0  0  0  0
  -22.2169   -6.4012   26.6026 C   0  0  0  0  0  0  0  0  0  0  0  0
  -25.7899  -24.1661   21.8207 C   0  0  0  0  0  0  0  0  0  0  0  0
  -29.9307  -19.6340   21.9196 C   0  0  0  0  0  0  0  0  0  0  0  0
  -20.5488   -7.4789   25.2267 C   0  0  0  0  0  0  0  0  0  0  0  0
  -24.6490  -10.6928   21.6724 C   0  0  0  0  0  0  0  0  0  0  0  0
  -24.1406  -13.0426   20.8195 C   0  0  0  0  0  0  0  0  0  0  0  0
  -31.1355  -25.6833   15.4868 C   0  0  0  0  0  0  0  0  0  0  0  0
  -25.9086  -24.8972   19.5161 C   0  0  0  0  0  0  0  0  0  0  0  0
  -30.5763  -25.3014   16.7213 C   0  0  0  0  0  0  0  0  0  0  0  0
  -25.9640  -25.1970   20.8847 C   0  0  0  0  0  0  0  0  0  0  0  0
  -30.0546  -20.8695   22.5550 C   0  0  0  0  0  0  0  0  0  0  0  0
  -28.6662  -19.0928   21.6873 C   0  0  0  0  0  0  0  0  0  0  0  0
  -27.6495  -21.0226   22.7262 C   0  0  0  0  0  0  0  0  0  0  0  0
  -23.9559   -8.2075   22.7333 C   0  0  0  0  0  0  0  0  0  0  0  0
  -25.5514  -22.8575   21.4013 C   0  0  0  0  0  0  0  0  0  0  0  0
  -22.7270   -6.9741   24.3116 C   0  0  0  0  0  0  0  0  0  0  0  0
  -20.9348   -6.9287   26.4490 C   0  0  0  0  0  0  0  0  0  0  0  0
  -21.4449   -7.5016   24.1580 C   0  0  0  0  0  0  0  0  0  0  0  0
  -28.9141  -21.5638   22.9584 C   0  0  0  0  0  0  0  0  0  0  0  0
  -27.5257  -19.7871   22.0907 C   0  0  0  0  0  0  0  0  0  0  0  0
  -25.0077  -11.9764   21.1251 C   0  0  0  0  0  0  0  0  0  0  0  0
  -24.9649  -14.0261   20.3300 C   0  0  0  0  0  0  0  0  0  0  0  0
  -22.7173  -13.1355   20.9652 C   0  0  0  0  0  0  0  0  0  0  0  0
  -28.3089  -26.9452   19.1317 C   0  0  0  0  0  0  0  0  0  0  0  0
  -26.2794  -28.9988   20.6102 C   0  0  0  0  0  0  0  0  0  0  0  0
  -23.6074  -29.4391   22.6871 C   0  0  0  0  0  0  0  0  0  0  0  0
  -29.6378  -17.0425   20.5926 C   0  0  0  0  0  0  0  0  0  0  0  0
  -31.5928  -27.0967   15.2264 C   0  0  0  0  0  0  0  0  0  0  0  0
  -26.0672  -25.9861   18.4907 C   0  0  0  0  0  0  0  0  0  0  0  0
  -26.2140  -26.5971   21.3803 C   0  0  0  0  0  0  0  0  0  0  0  0
  -31.0088  -28.1153   16.2020 C   0  0  0  0  0  0  0  0  0  0  0  0
  -29.8435  -13.8700   18.9895 C   0  0  0  0  0  0  0  0  0  0  0  0
  -31.1208  -27.6065   17.6356 C   0  0  0  0  0  0  0  0  0  0  0  0
  -28.5324  -13.1822   19.3770 C   0  0  0  0  0  0  0  0  0  0  0  0
  -30.3962  -14.7215   20.1310 C   0  0  0  0  0  0  0  0  0  0  0  0
  -28.1408  -15.0084   21.0796 C   0  0  0  0  0  0  0  0  0  0  0  0
  -30.3273  -26.3078   17.8237 C   0  0  1  0  0  0  0  0  0  0  0  0
  -26.8319  -27.1964   19.0178 C   0  0  1  0  0  0  0  0  0  0  0  0
  -27.5117  -14.1909   19.9395 C   0  0  2  0  0  0  0  0  0  0  0  0
  -31.4303  -21.4096   22.7817 C   0  0  0  0  0  0  0  0  0  0  0  0
  -22.2041  -31.2346   23.7379 C   0  0  0  0  0  0  0  0  0  0  0  0
  -28.5156  -29.5763   22.6042 C   0  0  0  0  0  0  0  0  0  0  0  0
  -26.8044  -30.5937   24.1224 C   0  0  0  0  0  0  0  0  0  0  0  0
  -27.2236  -31.5892   21.8738 C   0  0  0  0  0  0  0  0  0  0  0  0
  -21.1537  -28.4663   21.3485 C   0  0  0  0  0  0  0  0  0  0  0  0
  -26.0027  -29.3818   22.0440 C   0  0  1  0  0  0  0  0  0  0  0  0
  -22.3585  -30.2918   22.5547 C   0  0  2  0  0  0  0  0  0  0  0  0
  -27.1338  -30.2584   22.6521 C   0  0  0  0  0  0  0  0  0  0  0  0
  -26.2849  -12.2562   20.8523 N   0  0  0  0  0  0  0  0  0  0  0  0
  -26.2265  -13.5093   20.3702 N   0  0  0  0  0  0  0  0  0  0  0  0
  -26.3688  -27.6261   20.3389 N   0  0  0  0  0  0  0  0  0  0  0  0
  -29.3755  -15.6562   20.6100 N   0  0  0  0  0  0  0  0  0  0  0  0
  -24.7264  -15.2739   19.8733 N   0  0  0  0  0  0  0  0  0  0  0  0
  -22.0253  -12.0328   21.4844 N   0  0  0  0  0  0  0  0  0  0  0  0
  -28.5814  -17.8347   21.0410 N   0  0  0  0  0  0  0  0  0  0  0  0
  -26.5043  -21.7206   23.1312 N   0  0  0  0  0  0  0  0  0  1  0  0
  -28.9130  -26.5921   17.9401 N   0  0  0  0  0  0  0  0  0  0  0  0
  -24.6877  -30.0135   22.0513 N   0  0  0  0  0  0  0  0  0  0  0  0
  -21.1466  -29.4275   22.4812 N   0  3  0  0  0  0  0  0  0  0  0  0
  -22.0760  -14.1599   20.6291 O   0  0  0  0  0  0  0  0  0  0  0  0
  -28.8600  -27.0644   20.2197 O   0  0  0  0  0  0  0  0  0  0  0  0
  -26.4042  -29.8846   19.7610 O   0  0  0  0  0  0  0  0  0  0  0  0
  -23.6240  -28.3722   23.2970 O   0  0  0  0  0  0  0  0  0  0  0  0
  -30.7097  -17.4950   20.1826 O   0  0  0  0  0  0  0  0  0  0  0  0
  -23.6175   -6.9952   23.2513 O   0  0  0  0  0  0  0  0  0  0  0  0
  -25.3828  -21.8681   22.3202 O   0  0  0  0  0  0  0  0  0  1  0  0
  -20.0739   -6.9055   27.4749 F   0  0  0  0  0  0  0  0  0  0  0  0
  -21.0680   -8.0305   22.9859 F   0  0  0  0  0  0  0  0  0  0  0  0
  -29.0801  -23.0999   23.7469 Cl  0  0  0  0  0  0  0  0  0  0  0  0
  -25.9542  -19.1082   21.7991 Cl  0  0  0  0  0  0  0  0  0  0  0  0
  1  2  1  0  0  0  0
  1  5  2  0  0  0  0
  2  6  2  0  0  0  0
  3  8  2  0  0  0  0
  3 16  1  0  0  0  0
  4  9  1  0  0  0  0
  4 16  2  0  0  0  0
  5 18  1  0  0  0  0
  6 20  1  0  0  0  0
  7 10  2  0  0  0  0
  7 19  1  0  0  0  0
  8 25  1  0  0  0  0
  9 25  2  0  0  0  0
 10 26  1  0  0  0  0
 11 12  2  0  0  0  0
 11 27  1  0  0  0  0
 12 28  1  0  0  0  0
 13 21  1  0  0  0  0
 13 26  2  0  0  0  0
 14 22  1  0  0  0  0
 14 23  2  0  0  0  0
 15 28  2  0  0  0  0
 15 29  1  0  0  0  0
 16 32  1  0  0  0  0
 17 32  1  0  0  0  0
 17 33  2  0  0  0  0
 17 34  1  0  0  0  0
 18 20  2  0  0  0  0
 18 39  1  0  0  0  0
 19 21  2  0  0  0  0
 19 40  1  0  0  0  0
 20 48  1  0  0  0  0
 21 41  1  0  0  0  0
 22 30  2  0  0  0  0
 22 51  1  0  0  0  0
 23 31  1  0  0  0  0
 23 66  1  0  0  0  0
 24 30  1  0  0  0  0
 24 31  2  0  0  0  0
 24 67  1  0  0  0  0
 25 76  1  0  0  0  0
 26 77  1  0  0  0  0
 27 29  2  0  0  0  0
 27 76  1  0  0  0  0
 28 78  1  0  0  0  0
 29 79  1  0  0  0  0
 30 80  1  0  0  0  0
 31 81  1  0  0  0  0
 32 60  2  0  0  0  0
 33 61  1  0  0  0  0
 33 64  1  0  0  0  0
 34 65  1  0  0  0  0
 34 71  2  0  0  0  0
 35 49  1  0  0  0  0
 35 68  1  0  0  0  0
 35 72  2  0  0  0  0
 36 57  1  0  0  0  0
 36 62  1  0  0  0  0
 36 73  2  0  0  0  0
 37 58  1  0  0  0  0
 37 69  1  0  0  0  0
 37 74  2  0  0  0  0
 38 63  1  0  0  0  0
 38 66  1  0  0  0  0
 38 75  2  0  0  0  0
 39 42  1  0  0  0  0
 40 49  1  0  0  0  0
 41 62  1  0  0  0  0
 42 44  1  0  0  0  0
 43 45  1  0  0  0  0
 43 46  1  0  0  0  0
 44 48  1  0  0  0  0
 45 50  1  0  0  0  0
 46 63  1  0  0  0  0
 47 50  1  0  0  0  0
 47 63  1  0  0  0  0
 48 68  1  0  0  0  0
 49 62  1  0  0  0  0
 50 61  1  0  0  0  0
 52 58  1  0  0  0  0
 53 59  1  0  0  0  0
 54 59  1  0  0  0  0
 55 59  1  0  0  0  0
 56 70  1  0  0  0  0
 57 59  1  0  0  0  0
 57 69  1  0  0  0  0
 58 70  1  0  0  0  0
 60 61  1  0  0  0  0
 67 77  1  0  0  0  0
M  CHG  1  70   1
M  ISO  4  38 100  66 100  67 101  77 101
M  END
> <Batch ID>
0012

> <Smiles>
CNC(C)C(=O)NC(C(=O)N1Cc2cc([101O:1][101NH:1]c3c(Cl)c(C)cc([100NH:0][100C:0](=O)N4CCCC(n5nc(-c6ccc(Oc7ccc(F)cc7F)cc6)c(C(N)=O)c5N)C4)c3Cl)ccc2CC1C(=O)NC1CCCc2ccccc21)C(C)(C)C

> <Shape>
0.266

> <Color>
0.148

> <Negative vol penalty>
0.000

$$$$

  -OEChem-04052315473D

 84 92  0     1  0  0  0  0  0999 V2000
  -17.0217  -31.5110   23.5243 C   0  0  0  0  0  0  0  0  0  0  0  0
  -18.2726  -31.9480   23.9481 C   0  0  0  0  0  0  0  0  0  0  0  0
  -24.5063  -13.9399   20.1406 C   0  0  0  0  0  0  0  0  0  0  0  0
  -26.5320  -13.9484   21.4572 C   0  0  0  0  0  0  0  0  0  0  0  0
  -16.8657  -30.2137   23.0378 C   0  0  0  0  0  0  0  0  0  0  0  0
  -19.3682  -31.0875   23.8866 C   0  0  0  0  0  0  0  0  0  0  0  0
  -26.4486  -31.1331   22.7998 C   0  0  0  0  0  0  0  0  0  0  0  0
  -30.0772  -23.9545   21.2204 C   0  0  0  0  0  0  0  0  0  0  0  0
  -30.8063  -24.8375   22.0169 C   0  0  0  0  0  0  0  0  0  0  0  0
  -24.5477  -12.5468   20.0858 C   0  0  0  0  0  0  0  0  0  0  0  0
  -26.5733  -12.5553   21.4026 C   0  0  0  0  0  0  0  0  0  0  0  0
  -27.6314  -30.6863   23.3873 C   0  0  0  0  0  0  0  0  0  0  0  0
  -23.7771   -9.9504   22.1102 C   0  0  0  0  0  0  0  0  0  0  0  0
  -22.5893   -9.2570   22.3424 C   0  0  0  0  0  0  0  0  0  0  0  0
  -27.2593  -28.4930   22.4545 C   0  0  0  0  0  0  0  0  0  0  0  0
  -22.7317   -8.2755   20.1393 C   0  0  0  0  0  0  0  0  0  0  0  0
  -25.4985  -14.6408   20.8262 C   0  0  0  0  0  0  0  0  0  0  0  0
  -24.8211  -16.8744   21.8556 C   0  0  0  0  0  0  0  0  0  0  0  0
  -17.9619  -29.3401   22.9612 C   0  0  0  0  0  0  0  0  0  0  0  0
  -25.6554  -30.2588   22.0429 C   0  0  0  0  0  0  0  0  0  0  0  0
  -19.2265  -29.7769   23.3998 C   0  0  0  0  0  0  0  0  0  0  0  0
  -26.0682  -28.9318   21.8563 C   0  0  0  0  0  0  0  0  0  0  0  0
  -29.0504  -23.1948   21.7810 C   0  0  0  0  0  0  0  0  0  0  0  0
  -30.5087  -24.9606   23.3740 C   0  0  0  0  0  0  0  0  0  0  0  0
  -25.5812  -11.8544   20.7168 C   0  0  0  0  0  0  0  0  0  0  0  0
  -28.0354  -29.3653   23.2172 C   0  0  0  0  0  0  0  0  0  0  0  0
  -24.4422   -9.8065   20.8925 C   0  0  0  0  0  0  0  0  0  0  0  0
  -22.0666   -8.4195   21.3569 C   0  0  0  0  0  0  0  0  0  0  0  0
  -23.9195   -8.9690   19.9071 C   0  0  0  0  0  0  0  0  0  0  0  0
  -28.7528  -23.3180   23.1381 C   0  0  0  0  0  0  0  0  0  0  0  0
  -29.4819  -24.2009   23.9347 C   0  0  0  0  0  0  0  0  0  0  0  0
  -25.4566  -16.0799   20.8826 C   0  0  0  0  0  0  0  0  0  0  0  0
  -25.0725  -18.1660   21.4620 C   0  0  0  0  0  0  0  0  0  0  0  0
  -24.0706  -16.4801   23.0119 C   0  0  0  0  0  0  0  0  0  0  0  0
  -22.6920  -29.1358   22.2900 C   0  0  0  0  0  0  0  0  0  0  0  0
  -23.3553  -27.8460   19.3885 C   0  0  0  0  0  0  0  0  0  0  0  0
  -30.8500  -27.2274   24.2790 C   0  0  0  0  0  0  0  0  0  0  0  0
  -25.7110  -26.7607   17.1705 C   0  0  0  0  0  0  0  0  0  0  0  0
  -28.5355  -22.0959   19.5734 C   0  0  0  0  0  0  0  0  0  0  0  0
  -17.7348  -27.9315   22.4723 C   0  0  0  0  0  0  0  0  0  0  0  0
  -24.3960  -30.7632   21.3935 C   0  0  0  0  0  0  0  0  0  0  0  0
  -25.2627  -27.9586   21.0361 C   0  0  0  0  0  0  0  0  0  0  0  0
  -19.0215  -27.2048   22.0896 C   0  0  0  0  0  0  0  0  0  0  0  0
  -27.0111  -19.9776   17.1513 C   0  0  0  0  0  0  0  0  0  0  0  0
  -20.0847  -27.3990   23.1660 C   0  0  0  0  0  0  0  0  0  0  0  0
  -26.4185  -18.8401   17.9862 C   0  0  0  0  0  0  0  0  0  0  0  0
  -28.3476  -20.4576   17.7144 C   0  0  0  0  0  0  0  0  0  0  0  0
  -27.7346  -19.6844   19.9717 C   0  0  0  0  0  0  0  0  0  0  0  0
  -20.4440  -28.8812   23.3255 C   0  0  1  0  0  0  0  0  0  0  0  0
  -23.4032  -29.6508   21.0707 C   0  0  1  0  0  0  0  0  0  0  0  0
  -26.3566  -19.2112   19.4809 C   0  0  2  0  0  0  0  0  0  0  0  0
  -25.9469  -25.7229   14.8979 C   0  0  0  0  0  0  0  0  0  0  0  0
  -22.5230  -25.1450   20.5383 C   0  0  0  0  0  0  0  0  0  0  0  0
  -23.6570  -24.0467   18.5950 C   0  0  0  0  0  0  0  0  0  0  0  0
  -21.7255  -25.5771   18.2077 C   0  0  0  0  0  0  0  0  0  0  0  0
  -32.5151  -25.4141   24.8228 C   0  0  0  0  0  0  0  0  0  0  0  0
  -27.2319  -29.0814   16.1409 C   0  0  0  0  0  0  0  0  0  0  0  0
  -29.5428  -27.5609   23.5747 C   0  0  0  0  0  0  0  0  0  1  0  0
  -23.9534  -26.5458   18.9080 C   0  0  1  0  0  0  0  0  0  0  0  0
  -25.8933  -27.0222   15.6863 C   0  0  2  0  0  0  0  0  0  0  0  0
  -22.9791  -25.3462   19.0793 C   0  0  0  0  0  0  0  0  0  0  0  0
  -26.0658  -16.8061   19.9416 N   0  0  0  0  0  0  0  0  0  0  0  0
  -25.8142  -18.0704   20.3214 N   0  0  0  0  0  0  0  0  0  0  0  0
  -24.0359  -28.4979   20.4266 N   0  0  0  0  0  0  0  0  0  0  0  0
  -28.2113  -20.7952   19.1329 N   0  0  0  0  0  0  0  0  0  0  0  0
  -24.7292  -19.3629   21.9836 N   0  0  0  0  0  0  0  0  0  0  0  0
  -23.9086  -15.1118   23.2686 N   0  0  0  0  0  0  0  0  0  0  0  0
  -28.3353  -22.3096   20.9368 N   0  0  0  0  0  0  0  0  0  0  0  0
  -21.3212  -29.3065   22.2559 N   0  0  0  0  0  0  0  0  0  0  0  0
  -24.3806  -26.7768   17.5323 N   0  0  0  0  0  0  0  0  0  0  0  0
  -31.2892  -25.8911   24.1644 N   0  0  0  0  0  0  0  0  0  0  0  0
  -27.1585  -27.7715   15.4439 N   0  3  0  0  0  0  0  0  0  0  0  0
  -23.5450  -17.3163   23.7852 O   0  0  0  0  0  0  0  0  0  0  0  0
  -23.3389  -28.6202   23.1941 O   0  0  0  0  0  0  0  0  0  0  0  0
  -22.3264  -28.2711   18.8574 O   0  0  0  0  0  0  0  0  0  0  0  0
  -31.4219  -28.1132   24.9194 O   0  0  0  0  0  0  0  0  0  0  0  0
  -26.6543  -26.5584   17.9320 O   0  0  0  0  0  0  0  0  0  0  0  0
  -28.9336  -22.9648   18.7933 O   0  0  0  0  0  0  0  0  0  0  0  0
  -25.6217  -10.4950   20.6639 O   0  0  0  0  0  0  0  0  0  0  0  0
  -29.1891  -28.9265   23.7901 O   0  0  0  0  0  0  0  0  0  1  0  0
  -20.9268   -7.7525   21.5806 F   0  0  0  0  0  0  0  0  0  0  0  0
  -24.5546   -8.8258   18.7358 F   0  0  0  0  0  0  0  0  0  0  0  0
  -27.4709  -22.3563   23.8111 Cl  0  0  0  0  0  0  0  0  0  0  0  0
  -29.1312  -24.3746   25.6283 Cl  0  0  0  0  0  0  0  0  0  0  0  0
  1  2  1  0  0  0  0
  1  5  2  0  0  0  0
  2  6  2  0  0  0  0
  3 10  2  0  0  0  0
  3 17  1  0  0  0  0
  4 11  1  0  0  0  0
  4 17  2  0  0  0  0
  5 19  1  0  0  0  0
  6 21  1  0  0  0  0
  7 12  2  0  0  0  0
  7 20  1  0  0  0  0
  8  9  2  0  0  0  0
  8 23  1  0  0  0  0
  9 24  1  0  0  0  0
 10 25  1  0  0  0  0
 11 25  2  0  0  0  0
 12 26  1  0  0  0  0
 13 14  2  0  0  0  0
 13 27  1  0  0  0  0
 14 28  1  0  0  0  0
 15 22  1  0  0  0  0
 15 26  2  0  0  0  0
 16 28  2  0  0  0  0
 16 29  1  0  0  0  0
 17 32  1  0  0  0  0
 18 32  1  0  0  0  0
 18 33  2  0  0  0  0
 18 34  1  0  0  0  0
 19 21  2  0  0  0  0
 19 40  1  0  0  0  0
 20 22  2  0  0  0  0
 20 41  1  0  0  0  0
 21 49  1  0  0  0  0
 22 42  1  0  0  0  0
 23 30  2  0  0  0  0
 23 68  1  0  0  0  0
 24 31  2  0  0  0  0
 24 71  1  0  0  0  0
 25 79  1  0  0  0  0
 26 80  1  0  0  0  0
 27 29  2  0  0  0  0
 27 79  1  0  0  0  0
 28 81  1  0  0  0  0
 29 82  1  0  0  0  0
 30 31  1  0  0  0  0
 30 83  1  0  0  0  0
 31 84  1  0  0  0  0
 32 62  2  0  0  0  0
 33 63  1  0  0  0  0
 33 66  1  0  0  0  0
 34 67  1  0  0  0  0
 34 73  2  0  0  0  0
 35 50  1  0  0  0  0
 35 69  1  0  0  0  0
 35 74  2  0  0  0  0
 36 59  1  0  0  0  0
 36 64  1  0  0  0  0
 36 75  2  0  0  0  0
 37 58  1  0  0  0  0
 37 71  1  0  0  0  0
 37 76  2  0  0  0  0
 38 60  1  0  0  0  0
 38 70  1  0  0  0  0
 38 77  2  0  0  0  0
 39 65  1  0  0  0  0
 39 68  1  0  0  0  0
 39 78  2  0  0  0  0
 40 43  1  0  0  0  0
 41 50  1  0  0  0  0
 42 64  1  0  0  0  0
 43 45  1  0  0  0  0
 44 46  1  0  0  0  0
 44 47  1  0  0  0  0
 45 49  1  0  0  0  0
 46 51  1  0  0  0  0
 47 65  1  0  0  0  0
 48 51  1  0  0  0  0
 48 65  1  0  0  0  0
 49 69  1  0  0  0  0
 50 64  1  0  0  0  0
 51 63  1  0  0  0  0
 52 60  1  0  0  0  0
 53 61  1  0  0  0  0
 54 61  1  0  0  0  0
 55 61  1  0  0  0  0
 56 71  1  0  0  0  0
 57 72  1  0  0  0  0
 58 80  1  0  0  0  0
 59 61  1  0  0  0  0
 59 70  1  0  0  0  0
 60 72  1  0  0  0  0
 62 63  1  0  0  0  0
M  CHG  1  72   1
M  ISO  4  39 100  58 101  68 100  80 101
M  END
> <Batch ID>
0012

> <Smiles>
CNC(C)C(=O)NC(C(=O)N1Cc2cc([101O:1][101CH2:1]C(=O)N(C)c3ccc([100NH:0][100C:0](=O)N4CCCC(n5nc(-c6ccc(Oc7ccc(F)cc7F)cc6)c(C(N)=O)c5N)C4)c(Cl)c3Cl)ccc2CC1C(=O)NC1CCCc2ccccc21)C(C)(C)C

> <Shape>
0.238

> <Color>
0.122

> <Negative vol penalty>
0.000

$$$$

  -OEChem-04052315473D

 78 85  0     1  0  0  0  0  0999 V2000
  -34.7310  -19.1256   25.6509 C   0  0  0  0  0  0  0  0  0  0  0  0
  -34.1842  -18.6911   24.4478 C   0  0  0  0  0  0  0  0  0  0  0  0
  -23.2330   -9.8265   19.9091 C   0  0  0  0  0  0  0  0  0  0  0  0
  -23.7760   -9.9277   22.2611 C   0  0  0  0  0  0  0  0  0  0  0  0
  -33.9697  -19.0801   26.8181 C   0  0  0  0  0  0  0  0  0  0  0  0
  -32.8760  -18.2097   24.4113 C   0  0  0  0  0  0  0  0  0  0  0  0
  -30.1847  -20.0958   20.4500 C   0  0  0  0  0  0  0  0  0  0  0  0
  -22.5056   -8.6566   20.1273 C   0  0  0  0  0  0  0  0  0  0  0  0
  -23.0485   -8.7578   22.4794 C   0  0  0  0  0  0  0  0  0  0  0  0
  -30.3982  -19.5506   19.1847 C   0  0  0  0  0  0  0  0  0  0  0  0
  -19.4616   -7.8033   21.3269 C   0  0  0  0  0  0  0  0  0  0  0  0
  -18.2076   -7.6981   20.7254 C   0  0  0  0  0  0  0  0  0  0  0  0
  -28.4433  -18.1645   19.4589 C   0  0  0  0  0  0  0  0  0  0  0  0
  -18.9481   -5.7368   19.5246 C   0  0  0  0  0  0  0  0  0  0  0  0
  -23.8683  -10.4621   20.9760 C   0  0  0  0  0  0  0  0  0  0  0  0
  -24.1407  -12.9927   20.8052 C   0  0  0  0  0  0  0  0  0  0  0  0
  -32.6483  -18.6070   26.7942 C   0  0  0  0  0  0  0  0  0  0  0  0
  -29.1031  -19.6714   21.2353 C   0  0  0  0  0  0  0  0  0  0  0  0
  -32.0967  -18.1566   25.5795 C   0  0  0  0  0  0  0  0  0  0  0  0
  -28.2157  -18.7093   20.7317 C   0  0  0  0  0  0  0  0  0  0  0  0
  -22.4133   -8.1222   21.4125 C   0  0  0  0  0  0  0  0  0  0  0  0
  -29.5287  -18.5832   18.6899 C   0  0  0  0  0  0  0  0  0  0  0  0
  -20.4590   -6.8754   21.0272 C   0  0  0  0  0  0  0  0  0  0  0  0
  -17.9508   -6.6648   19.8243 C   0  0  0  0  0  0  0  0  0  0  0  0
  -20.2022   -5.8421   20.1261 C   0  0  0  0  0  0  0  0  0  0  0  0
  -24.6204  -11.6703   20.7511 C   0  0  0  0  0  0  0  0  0  0  0  0
  -25.2380  -13.7679   20.5194 C   0  0  0  0  0  0  0  0  0  0  0  0
  -22.8213  -13.4771   21.0885 C   0  0  0  0  0  0  0  0  0  0  0  0
  -30.7845  -16.3202   16.1667 C   0  0  0  0  0  0  0  0  0  0  0  0
  -30.5305  -16.9105   17.3463 C   0  0  0  0  0  0  0  0  0  1  0  0
  -31.6486  -15.1050   16.1558 C   0  0  0  0  0  0  0  0  0  0  0  0
  -28.7167  -18.2799   24.0919 C   0  0  0  0  0  0  0  0  0  0  0  0
  -25.5253  -18.8578   23.3610 C   0  0  0  0  0  0  0  0  0  0  0  0
  -24.7545  -17.7150   26.1903 C   0  0  0  0  0  0  0  0  0  0  0  0
  -29.8088  -13.7349   17.1378 C   0  0  0  0  0  0  0  0  0  0  0  0
  -31.8803  -18.5325   28.0901 C   0  0  0  0  0  0  0  0  0  0  0  0
  -28.8732  -20.2944   22.5857 C   0  0  0  0  0  0  0  0  0  0  0  0
  -27.0384  -18.2235   21.5335 C   0  0  0  0  0  0  0  0  0  0  0  0
  -30.3760  -18.3589   27.8975 C   0  0  0  0  0  0  0  0  0  0  0  0
  -30.1199  -13.1208   20.6844 C   0  0  0  0  0  0  0  0  0  0  0  0
  -30.0918  -17.2743   26.8632 C   0  0  0  0  0  0  0  0  0  0  0  0
  -28.6833  -12.7700   21.0634 C   0  0  0  0  0  0  0  0  0  0  0  0
  -30.4964  -12.5855   19.3034 C   0  0  0  0  0  0  0  0  0  0  0  0
  -28.1169  -12.6695   18.6074 C   0  0  0  0  0  0  0  0  0  0  0  0
  -30.6729  -17.6510   25.4950 C   0  0  1  0  0  0  0  0  0  0  0  0
  -27.9871  -19.4537   23.5026 C   0  0  1  0  0  0  0  0  0  0  0  0
  -27.7053  -13.2384   19.9733 C   0  0  1  0  0  0  0  0  0  0  0  0
  -30.3608  -16.8570   14.8372 C   0  0  0  0  0  0  0  0  0  0  0  0
  -23.7797  -17.0196   28.3957 C   0  0  0  0  0  0  0  0  0  0  0  0
  -25.8870  -21.8762   23.6131 C   0  0  0  0  0  0  0  0  0  0  0  0
  -24.6945  -21.7645   25.8117 C   0  0  0  0  0  0  0  0  0  0  0  0
  -23.5128  -21.0974   23.7186 C   0  0  0  0  0  0  0  0  0  0  0  0
  -32.1643  -12.9857   17.2450 C   0  0  0  0  0  0  0  0  0  0  0  0
  -23.1785  -15.5439   24.9407 C   0  0  0  0  0  0  0  0  0  0  0  0
  -25.3090  -19.5891   24.6623 C   0  0  1  0  0  0  0  0  0  0  0  0
  -23.5791  -17.0551   26.8886 C   0  0  2  0  0  0  0  0  0  0  0  0
  -24.8742  -21.0662   24.4468 C   0  0  0  0  0  0  0  0  0  0  0  0
  -25.9210  -11.6053   20.4542 N   0  0  0  0  0  0  0  0  0  0  0  0
  -26.2679  -12.8966   20.3190 N   0  0  0  0  0  0  0  0  0  0  0  0
  -26.8095  -18.9212   22.8054 N   0  0  0  0  0  0  0  0  0  0  0  0
  -29.5115  -12.9936   18.2938 N   0  0  0  0  0  0  0  0  0  0  0  0
  -25.4125  -15.1030   20.4225 N   0  0  0  0  0  0  0  0  0  0  0  0
  -21.8114  -12.5443   21.3610 N   0  0  0  0  0  0  0  0  0  0  0  0
  -29.8278  -18.6247   24.8376 N   0  0  0  0  0  0  0  0  0  0  0  0
  -24.3558  -18.7909   25.4256 N   0  0  0  0  0  0  0  0  0  0  0  0
  -31.1769  -14.0098   16.9068 N   0  0  0  0  0  0  0  0  0  0  0  0
  -23.4077  -15.6563   26.4042 N   0  3  0  0  0  0  0  0  0  0  0  0
  -22.5424  -14.7001   21.0835 O   0  0  0  0  0  0  0  0  0  0  0  0
  -32.6920  -15.1216   15.5035 O   0  0  0  0  0  0  0  0  0  0  0  0
  -28.3015  -17.1453   23.8865 O   0  0  0  0  0  0  0  0  0  0  0  0
  -24.5813  -18.2527   22.8454 O   0  0  0  0  0  0  0  0  0  0  0  0
  -25.9111  -17.3182   26.3140 O   0  0  0  0  0  0  0  0  0  0  0  0
  -28.9437  -14.0555   16.3151 O   0  0  0  0  0  0  0  0  0  0  0  0
  -21.7033   -6.9808   21.6258 O   0  0  0  0  0  0  0  0  0  0  0  0
  -29.7366  -18.0441   17.4416 O   0  0  0  0  0  0  0  0  0  1  0  0
  -16.7460   -6.5629   19.2479 F   0  0  0  0  0  0  0  0  0  0  0  0
  -21.1561   -4.9469   19.8351 F   0  0  0  0  0  0  0  0  0  0  0  0
  -31.0671  -16.3657   18.4646 F   0  0  0  0  0  0  0  0  0  0  0  0
  1  2  1  0  0  0  0
  1  5  2  0  0  0  0
  2  6  2  0  0  0  0
  3  8  2  0  0  0  0
  3 15  1  0  0  0  0
  4  9  1  0  0  0  0
  4 15  2  0  0  0  0
  5 17  1  0  0  0  0
  6 19  1  0  0  0  0
  7 10  2  0  0  0  0
  7 18  1  0  0  0  0
  8 21  1  0  0  0  0
  9 21  2  0  0  0  0
 10 22  1  0  0  0  0
 11 12  2  0  0  0  0
 11 23  1  0  0  0  0
 12 24  1  0  0  0  0
 13 20  1  0  0  0  0
 13 22  2  0  0  0  0
 14 24  2  0  0  0  0
 14 25  1  0  0  0  0
 15 26  1  0  0  0  0
 16 26  1  0  0  0  0
 16 27  2  0  0  0  0
 16 28  1  0  0  0  0
 17 19  2  0  0  0  0
 17 36  1  0  0  0  0
 18 20  2  0  0  0  0
 18 37  1  0  0  0  0
 19 45  1  0  0  0  0
 20 38  1  0  0  0  0
 21 74  1  0  0  0  0
 22 75  1  0  0  0  0
 23 25  2  0  0  0  0
 23 74  1  0  0  0  0
 24 76  1  0  0  0  0
 25 77  1  0  0  0  0
 26 58  2  0  0  0  0
 27 59  1  0  0  0  0
 27 62  1  0  0  0  0
 28 63  1  0  0  0  0
 28 68  2  0  0  0  0
 29 30  2  0  0  0  0
 29 31  1  0  0  0  0
 29 48  1  0  0  0  0
 30 75  1  0  0  0  0
 30 78  1  0  0  0  0
 31 66  1  0  0  0  0
 31 69  2  0  0  0  0
 32 46  1  0  0  0  0
 32 64  1  0  0  0  0
 32 70  2  0  0  0  0
 33 55  1  0  0  0  0
 33 60  1  0  0  0  0
 33 71  2  0  0  0  0
 34 56  1  0  0  0  0
 34 65  1  0  0  0  0
 34 72  2  0  0  0  0
 35 61  1  0  0  0  0
 35 66  1  0  0  0  0
 35 73  2  0  0  0  0
 36 39  1  0  0  0  0
 37 46  1  0  0  0  0
 38 60  1  0  0  0  0
 39 41  1  0  0  0  0
 40 42  1  0  0  0  0
 40 43  1  0  0  0  0
 41 45  1  0  0  0  0
 42 47  1  0  0  0  0
 43 61  1  0  0  0  0
 44 47  1  0  0  0  0
 44 61  1  0  0  0  0
 45 64  1  0  0  0  0
 46 60  1  0  0  0  0
 47 59  1  0  0  0  0
 49 56  1  0  0  0  0
 50 57  1  0  0  0  0
 51 57  1  0  0  0  0
 52 57  1  0  0  0  0
 53 66  1  0  0  0  0
 54 67  1  0  0  0  0
 55 57  1  0  0  0  0
 55 65  1  0  0  0  0
 56 67  1  0  0  0  0
 58 59  1  0  0  0  0
M  CHG  1  67   1
M  ISO  4  30 101  35 100  66 100  75 101
M  END
> <Batch ID>
0012

> <Smiles>
CNC(C)C(=O)NC(C(=O)N1Cc2cc([101O:1][101C:1](F)=C(C)C(=O)[100N:0](C)[100C:0](=O)N3CCCC(n4nc(-c5ccc(Oc6ccc(F)cc6F)cc5)c(C(N)=O)c4N)C3)ccc2CC1C(=O)NC1CCCc2ccccc21)C(C)(C)C

> <Shape>
0.164

> <Color>
0.181

> <Negative vol penalty>
0.000

$$$$

  -OEChem-04052315473D

 84 92  0     1  0  0  0  0  0999 V2000
  -16.6905  -25.9235   23.6870 C   0  0  0  0  0  0  0  0  0  0  0  0
  -17.7215  -25.7836   22.7636 C   0  0  0  0  0  0  0  0  0  0  0  0
  -24.5173  -13.1271   18.8886 C   0  0  0  0  0  0  0  0  0  0  0  0
  -23.2806  -14.6449   20.3043 C   0  0  0  0  0  0  0  0  0  0  0  0
  -16.3889  -27.1810   24.2082 C   0  0  0  0  0  0  0  0  0  0  0  0
  -18.4508  -26.9014   22.3598 C   0  0  0  0  0  0  0  0  0  0  0  0
  -23.4392  -26.0346   22.2610 C   0  0  0  0  0  0  0  0  0  0  0  0
  -23.6947  -12.0769   19.2960 C   0  0  0  0  0  0  0  0  0  0  0  0
  -22.4579  -13.5947   20.7116 C   0  0  0  0  0  0  0  0  0  0  0  0
  -23.9404  -25.3232   21.1718 C   0  0  0  0  0  0  0  0  0  0  0  0
  -23.3973  -10.0429   21.9790 C   0  0  0  0  0  0  0  0  0  0  0  0
  -24.0085   -8.8357   22.3175 C   0  0  0  0  0  0  0  0  0  0  0  0
  -24.6538  -27.3919   20.1565 C   0  0  0  0  0  0  0  0  0  0  0  0
  -29.2675  -23.3814   21.0844 C   0  0  0  0  0  0  0  0  0  0  0  0
  -22.7600   -7.7159   20.5784 C   0  0  0  0  0  0  0  0  0  0  0  0
  -24.3103  -14.4111   19.3928 C   0  0  0  0  0  0  0  0  0  0  0  0
  -24.9609  -16.3568   17.8767 C   0  0  0  0  0  0  0  0  0  0  0  0
  -17.1211  -28.3133   23.8179 C   0  0  0  0  0  0  0  0  0  0  0  0
  -23.5319  -27.4333   22.3012 C   0  0  0  0  0  0  0  0  0  0  0  0
  -18.1578  -28.1755   22.8752 C   0  0  0  0  0  0  0  0  0  0  0  0
  -24.1553  -28.1185   21.2486 C   0  0  0  0  0  0  0  0  0  0  0  0
  -28.4728  -22.7049   20.1591 C   0  0  0  0  0  0  0  0  0  0  0  0
  -29.1126  -24.7561   21.2637 C   0  0  0  0  0  0  0  0  0  0  0  0
  -27.3683  -24.7775   19.5922 C   0  0  0  0  0  0  0  0  0  0  0  0
  -22.6650  -12.3106   20.2074 C   0  0  0  0  0  0  0  0  0  0  0  0
  -24.5452  -26.0020   20.1180 C   0  0  0  0  0  0  0  0  0  0  0  0
  -22.4673  -10.0867   20.9403 C   0  0  0  0  0  0  0  0  0  0  0  0
  -23.6899   -7.6722   21.6172 C   0  0  0  0  0  0  0  0  0  0  0  0
  -22.1487   -8.9232   20.2400 C   0  0  0  0  0  0  0  0  0  0  0  0
  -27.5232  -23.4029   19.4129 C   0  0  0  0  0  0  0  0  0  0  0  0
  -28.1630  -25.4541   20.5176 C   0  0  0  0  0  0  0  0  0  0  0  0
  -25.1601  -15.4963   18.9729 C   0  0  0  0  0  0  0  0  0  0  0  0
  -26.0388  -17.2075   17.9076 C   0  0  0  0  0  0  0  0  0  0  0  0
  -23.8967  -16.3847   16.9163 C   0  0  0  0  0  0  0  0  0  0  0  0
  -21.4333  -29.8185   22.4015 C   0  0  0  0  0  0  0  0  0  0  0  0
  -24.0992  -31.6316   22.7598 C   0  0  0  0  0  0  0  0  0  0  0  0
  -27.4619  -31.9649   22.2828 C   0  0  0  0  0  0  0  0  0  0  0  0
  -29.5684  -20.4983   20.6853 C   0  0  0  0  0  0  0  0  0  0  0  0
  -16.7274  -29.6592   24.3729 C   0  0  0  0  0  0  0  0  0  0  0  0
  -23.0103  -28.1839   23.4957 C   0  0  0  0  0  0  0  0  0  0  0  0
  -24.2981  -29.6179   21.2529 C   0  0  0  0  0  0  0  0  0  0  0  0
  -17.7928  -30.7346   24.1760 C   0  0  0  0  0  0  0  0  0  0  0  0
  -30.3091  -17.0163   20.6187 C   0  0  0  0  0  0  0  0  0  0  0  0
  -18.3226  -30.7057   22.7459 C   0  0  0  0  0  0  0  0  0  0  0  0
  -29.0191  -16.3812   20.0944 C   0  0  0  0  0  0  0  0  0  0  0  0
  -30.0243  -18.2071   21.5324 C   0  0  0  0  0  0  0  0  0  0  0  0
  -27.8536  -18.5977   20.4348 C   0  0  0  0  0  0  0  0  0  0  0  0
  -18.9879  -29.3603   22.4312 C   0  0  1  0  0  0  0  0  0  0  0  0
  -22.6988  -29.6464   23.1930 C   0  0  1  0  0  0  0  0  0  0  0  0
  -28.0907  -17.4342   19.4582 C   0  0  2  0  0  0  0  0  0  0  0  0
  -29.3532  -33.5737   22.6463 C   0  0  0  0  0  0  0  0  0  0  0  0
  -23.1289  -33.3020   20.3980 C   0  0  0  0  0  0  0  0  0  0  0  0
  -25.4387  -34.2491   20.2086 C   0  0  0  0  0  0  0  0  0  0  0  0
  -24.1039  -34.6265   22.2819 C   0  0  0  0  0  0  0  0  0  0  0  0
  -31.2134  -25.9580   21.8132 C   0  0  0  0  0  0  0  0  0  0  0  0
  -29.4986  -25.5462   23.5847 C   0  0  0  0  0  0  0  0  0  0  0  0
  -26.7339  -26.0740   17.5521 C   0  0  0  0  0  0  0  0  0  0  0  0
  -28.8952  -30.0633   24.0403 C   0  0  0  0  0  0  0  0  0  0  0  0
  -25.0522  -32.3290   21.8194 C   0  0  1  0  0  0  0  0  0  0  0  0
  -28.5739  -32.4005   23.2199 C   0  0  2  0  0  0  0  0  0  0  0  0
  -24.4267  -33.5986   21.1757 C   0  0  0  0  0  0  0  0  0  0  0  0
  -26.2768  -15.7748   19.6507 N   0  0  0  0  0  0  0  0  0  0  0  0
  -26.7890  -16.8197   18.9786 N   0  0  0  0  0  0  0  0  0  0  0  0
  -23.7666  -30.3076   22.4401 N   0  0  0  0  0  0  0  0  0  0  0  0
  -29.1425  -19.1648   20.8616 N   0  0  0  0  0  0  0  0  0  0  0  0
  -26.4086  -18.2418   17.1229 N   0  0  0  0  0  0  0  0  0  0  0  0
  -22.8685  -15.4391   17.0307 N   0  0  0  0  0  0  0  0  0  0  0  0
  -28.6598  -21.3087   20.0055 N   0  0  0  0  0  0  0  0  0  0  0  0
  -20.3098  -29.3009   23.0173 N   0  0  0  0  0  0  0  0  0  0  0  0
  -26.2676  -32.5841   22.5849 N   0  0  0  0  0  0  0  0  0  0  0  0
  -29.9344  -25.4087   22.2108 N   0  0  0  0  0  0  0  0  0  0  0  0
  -26.4121  -25.4802   18.8411 N   0  0  1  0  0  0  0  0  0  1  0  0
  -29.5231  -31.2760   23.4554 N   0  3  0  0  0  0  0  0  0  0  0  0
  -23.8671  -17.2129   15.9746 O   0  0  0  0  0  0  0  0  0  0  0  0
  -21.4730  -30.3807   21.3134 O   0  0  0  0  0  0  0  0  0  0  0  0
  -23.6713  -32.2368   23.7458 O   0  0  0  0  0  0  0  0  0  0  0  0
  -27.6363  -31.1589   21.3715 O   0  0  0  0  0  0  0  0  0  0  0  0
  -30.6705  -20.8854   21.0823 O   0  0  0  0  0  0  0  0  0  0  0  0
  -21.8619  -11.2861   20.6049 O   0  0  0  0  0  0  0  0  0  0  0  0
  -25.0347  -25.3101   19.0533 O   0  0  0  0  0  0  0  0  0  1  0  0
  -24.2781   -6.5133   21.9414 F   0  0  0  0  0  0  0  0  0  0  0  0
  -21.2570   -8.9592   19.2403 F   0  0  0  0  0  0  0  0  0  0  0  0
  -26.5368  -22.5553   18.2622 Cl  0  0  0  0  0  0  0  0  0  0  0  0
  -27.9741  -27.1648   20.7462 Cl  0  0  0  0  0  0  0  0  0  0  0  0
  1  2  1  0  0  0  0
  1  5  2  0  0  0  0
  2  6  2  0  0  0  0
  3  8  2  0  0  0  0
  3 16  1  0  0  0  0
  4  9  1  0  0  0  0
  4 16  2  0  0  0  0
  5 18  1  0  0  0  0
  6 20  1  0  0  0  0
  7 10  2  0  0  0  0
  7 19  1  0  0  0  0
  8 25  1  0  0  0  0
  9 25  2  0  0  0  0
 10 26  1  0  0  0  0
 11 12  2  0  0  0  0
 11 27  1  0  0  0  0
 12 28  1  0  0  0  0
 13 21  1  0  0  0  0
 13 26  2  0  0  0  0
 14 22  1  0  0  0  0
 14 23  2  0  0  0  0
 15 28  2  0  0  0  0
 15 29  1  0  0  0  0
 16 32  1  0  0  0  0
 17 32  1  0  0  0  0
 17 33  2  0  0  0  0
 17 34  1  0  0  0  0
 18 20  2  0  0  0  0
 18 39  1  0  0  0  0
 19 21  2  0  0  0  0
 19 40  1  0  0  0  0
 20 48  1  0  0  0  0
 21 41  1  0  0  0  0
 22 30  2  0  0  0  0
 22 68  1  0  0  0  0
 23 31  1  0  0  0  0
 23 71  1  0  0  0  0
 24 30  1  0  0  0  0
 24 31  2  0  0  0  0
 24 72  1  0  0  0  0
 25 79  1  0  0  0  0
 26 80  1  0  0  0  0
 27 29  2  0  0  0  0
 27 79  1  0  0  0  0
 28 81  1  0  0  0  0
 29 82  1  0  0  0  0
 30 83  1  0  0  0  0
 31 84  1  0  0  0  0
 32 62  2  0  0  0  0
 33 63  1  0  0  0  0
 33 66  1  0  0  0  0
 34 67  1  0  0  0  0
 34 74  2  0  0  0  0
 35 49  1  0  0  0  0
 35 69  1  0  0  0  0
 35 75  2  0  0  0  0
 36 59  1  0  0  0  0
 36 64  1  0  0  0  0
 36 76  2  0  0  0  0
 37 60  1  0  0  0  0
 37 70  1  0  0  0  0
 37 77  2  0  0  0  0
 38 65  1  0  0  0  0
 38 68  1  0  0  0  0
 38 78  2  0  0  0  0
 39 42  1  0  0  0  0
 40 49  1  0  0  0  0
 41 64  1  0  0  0  0
 42 44  1  0  0  0  0
 43 45  1  0  0  0  0
 43 46  1  0  0  0  0
 44 48  1  0  0  0  0
 45 50  1  0  0  0  0
 46 65  1  0  0  0  0
 47 50  1  0  0  0  0
 47 65  1  0  0  0  0
 48 69  1  0  0  0  0
 49 64  1  0  0  0  0
 50 63  1  0  0  0  0
 51 60  1  0  0  0  0
 52 61  1  0  0  0  0
 53 61  1  0  0  0  0
 54 61  1  0  0  0  0
 55 71  1  0  0  0  0
 56 71  1  0  0  0  0
 57 72  1  0  0  0  0
 58 73  1  0  0  0  0
 59 61  1  0  0  0  0
 59 70  1  0  0  0  0
 60 73  1  0  0  0  0
 62 63  1  0  0  0  0
 72 80  1  0  0  0  0
M  CHG  1  73   1
M  ISO  4  38 100  68 100  72 101  80 101
M  END
> <Batch ID>
0012

> <Smiles>
CNC(C)C(=O)NC(C(=O)N1Cc2cc([101O:1][101N:1](C)c3c(Cl)c([100NH:0][100C:0](=O)N4CCCC(n5nc(-c6ccc(Oc7ccc(F)cc7F)cc6)c(C(N)=O)c5N)C4)cc(N(C)C)c3Cl)ccc2CC1C(=O)NC1CCCc2ccccc21)C(C)(C)C

> <Shape>
0.273

> <Color>
0.066

> <Negative vol penalty>
0.000

$$$$

  -OEChem-04052315473D

 85 93  0     1  0  0  0  0  0999 V2000
  -18.4367  -27.9736   23.0516 C   0  0  0  0  0  0  0  0  0  0  0  0
  -19.6848  -27.8763   23.6584 C   0  0  0  0  0  0  0  0  0  0  0  0
  -24.2892  -13.7791   20.6195 C   0  0  0  0  0  0  0  0  0  0  0  0
  -26.6795  -13.4979   20.8303 C   0  0  0  0  0  0  0  0  0  0  0  0
  -18.2821  -27.6073   21.7153 C   0  0  0  0  0  0  0  0  0  0  0  0
  -20.7789  -27.4117   22.9294 C   0  0  0  0  0  0  0  0  0  0  0  0
  -26.6022  -29.2294   23.4685 C   0  0  0  0  0  0  0  0  0  0  0  0
  -24.1522  -12.4165   20.3546 C   0  0  0  0  0  0  0  0  0  0  0  0
  -26.5426  -12.1352   20.5654 C   0  0  0  0  0  0  0  0  0  0  0  0
  -27.6958  -28.6866   24.1416 C   0  0  0  0  0  0  0  0  0  0  0  0
  -24.1103   -9.5288   22.1131 C   0  0  0  0  0  0  0  0  0  0  0  0
  -23.0902   -8.8402   22.7695 C   0  0  0  0  0  0  0  0  0  0  0  0
  -28.4102  -27.6130   22.1029 C   0  0  0  0  0  0  0  0  0  0  0  0
  -32.2609  -23.8466   22.2362 C   0  0  0  0  0  0  0  0  0  0  0  0
  -22.1131   -8.2565   20.6383 C   0  0  0  0  0  0  0  0  0  0  0  0
  -25.5529  -14.3198   20.8574 C   0  0  0  0  0  0  0  0  0  0  0  0
  -25.6583  -16.3570   22.3891 C   0  0  0  0  0  0  0  0  0  0  0  0
  -19.3769  -27.1471   20.9668 C   0  0  0  0  0  0  0  0  0  0  0  0
  -26.3981  -28.9588   22.1078 C   0  0  0  0  0  0  0  0  0  0  0  0
  -20.6385  -27.0376   21.5821 C   0  0  0  0  0  0  0  0  0  0  0  0
  -27.3146  -28.1557   21.4142 C   0  0  0  0  0  0  0  0  0  0  0  0
  -31.1852  -23.5674   23.0791 C   0  0  0  0  0  0  0  0  0  0  0  0
  -30.0427  -22.4673   21.2566 C   0  0  0  0  0  0  0  0  0  0  0  0
  -25.2789  -11.5946   20.3275 C   0  0  0  0  0  0  0  0  0  0  0  0
  -28.5984  -27.8759   23.4596 C   0  0  0  0  0  0  0  0  0  0  0  0
  -24.1318   -9.5814   20.7194 C   0  0  0  0  0  0  0  0  0  0  0  0
  -22.0916   -8.2040   22.0321 C   0  0  0  0  0  0  0  0  0  0  0  0
  -32.2275  -23.4362   20.9034 C   0  0  0  0  0  0  0  0  0  0  0  0
  -23.1332   -8.9452   19.9820 C   0  0  0  0  0  0  0  0  0  0  0  0
  -31.1184  -22.7465   20.4137 C   0  0  0  0  0  0  0  0  0  0  0  0
  -30.0761  -22.8778   22.5893 C   0  0  0  0  0  0  0  0  0  0  0  0
  -25.6951  -15.7273   21.1306 C   0  0  0  0  0  0  0  0  0  0  0  0
  -25.8405  -17.6898   22.1117 C   0  0  0  0  0  0  0  0  0  0  0  0
  -25.4760  -15.7880   23.6925 C   0  0  0  0  0  0  0  0  0  0  0  0
  -24.1123  -27.5301   20.4232 C   0  0  0  0  0  0  0  0  0  0  0  0
  -25.8659  -28.5655   17.8983 C   0  0  0  0  0  0  0  0  0  0  0  0
  -30.7661  -25.2905   24.7905 C   0  0  0  0  0  0  0  0  0  0  0  0
  -28.9003  -29.5536   16.6888 C   0  0  0  0  0  0  0  0  0  0  0  0
  -28.4692  -21.7879   19.4102 C   0  0  0  0  0  0  0  0  0  0  0  0
  -19.1509  -26.7180   19.5387 C   0  0  0  0  0  0  0  0  0  0  0  0
  -25.2282  -29.5738   21.3897 C   0  0  0  0  0  0  0  0  0  0  0  0
  -27.1517  -27.8513   19.9482 C   0  0  0  0  0  0  0  0  0  0  0  0
  -20.4393  -26.5902   18.7300 C   0  0  0  0  0  0  0  0  0  0  0  0
  -25.7964  -20.1722   17.7007 C   0  0  0  0  0  0  0  0  0  0  0  0
  -21.4933  -25.8237   19.5226 C   0  0  0  0  0  0  0  0  0  0  0  0
  -25.5287  -18.9236   18.5441 C   0  0  0  0  0  0  0  0  0  0  0  0
  -27.2856  -20.5071   17.6400 C   0  0  0  0  0  0  0  0  0  0  0  0
  -27.6833  -19.3681   19.7879 C   0  0  0  0  0  0  0  0  0  0  0  0
  -21.8546  -26.5616   20.8174 C   0  0  1  0  0  0  0  0  0  0  0  0
  -24.8355  -28.8134   20.1268 C   0  0  1  0  0  0  0  0  0  0  0  0
  -26.1908  -19.0285   19.9320 C   0  0  2  0  0  0  0  0  0  0  0  0
  -30.0302  -30.3026   14.5770 C   0  0  0  0  0  0  0  0  0  0  0  0
  -25.8799  -25.6866   16.8876 C   0  0  0  0  0  0  0  0  0  0  0  0
  -27.7613  -26.3068   15.3565 C   0  0  0  0  0  0  0  0  0  0  0  0
  -25.5394  -27.4141   15.1115 C   0  0  0  0  0  0  0  0  0  0  0  0
  -31.8419  -23.1123   25.4648 C   0  0  0  0  0  0  0  0  0  0  0  0
  -29.6197  -32.1723   17.8651 C   0  0  0  0  0  0  0  0  0  0  0  0
  -30.1547  -26.0874   23.6472 C   0  0  0  0  0  0  0  0  0  1  0  0
  -27.0061  -28.0015   17.0854 C   0  0  1  0  0  0  0  0  0  0  0  0
  -29.3070  -30.7444   15.8397 C   0  0  2  0  0  0  0  0  0  0  0  0
  -26.5490  -26.8562   16.1383 C   0  0  0  0  0  0  0  0  0  0  0  0
  -25.8854  -16.5893   20.1281 N   0  0  0  0  0  0  0  0  0  0  0  0
  -25.9698  -17.7742   20.7566 N   0  0  0  0  0  0  0  0  0  0  0  0
  -25.9885  -28.4707   19.2918 N   0  0  0  0  0  0  0  0  0  0  0  0
  -27.8439  -20.5945   18.9911 N   0  0  0  0  0  0  0  0  0  0  0  0
  -25.9009  -18.7861   22.8972 N   0  0  0  0  0  0  0  0  0  0  0  0
  -25.3028  -14.4012   23.7978 N   0  0  0  0  0  0  0  0  0  0  0  0
  -28.9327  -21.7649   20.7252 N   0  0  0  0  0  0  0  0  0  0  0  0
  -22.7423  -27.6696   20.5368 N   0  0  0  0  0  0  0  0  0  0  0  0
  -27.6187  -29.1346   16.4004 N   0  0  0  0  0  0  0  0  0  0  0  0
  -31.2578  -24.0105   24.4567 N   0  0  0  0  0  0  0  0  0  0  0  0
  -30.2121  -31.6443   16.6092 N   0  3  0  0  0  0  0  0  0  0  0  0
  -25.4505  -16.4905   24.7314 O   0  0  0  0  0  0  0  0  0  0  0  0
  -24.7500  -26.4900   20.5387 O   0  0  0  0  0  0  0  0  0  0  0  0
  -24.9053  -29.0780   17.3184 O   0  0  0  0  0  0  0  0  0  0  0  0
  -30.7700  -25.7828   25.9216 O   0  0  0  0  0  0  0  0  0  0  0  0
  -29.6464  -29.0435   17.5217 O   0  0  0  0  0  0  0  0  0  0  0  0
  -28.5609  -22.7682   18.6668 O   0  0  0  0  0  0  0  0  0  0  0  0
  -25.1456  -10.2649   20.0693 O   0  0  0  0  0  0  0  0  0  0  0  0
  -29.6663  -27.3442   24.1144 O   0  0  0  0  0  0  0  0  0  1  0  0
  -21.1130   -7.5414   22.6624 F   0  0  0  0  0  0  0  0  0  0  0  0
  -33.2605  -23.7044   20.0940 F   0  0  0  0  0  0  0  0  0  0  0  0
  -23.1492   -8.9912   18.6428 F   0  0  0  0  0  0  0  0  0  0  0  0
  -31.0991  -22.3577   19.1306 F   0  0  0  0  0  0  0  0  0  0  0  0
  -28.7378  -22.5305   23.6386 Cl  0  0  0  0  0  0  0  0  0  0  0  0
  1  2  1  0  0  0  0
  1  5  2  0  0  0  0
  2  6  2  0  0  0  0
  3  8  2  0  0  0  0
  3 16  1  0  0  0  0
  4  9  1  0  0  0  0
  4 16  2  0  0  0  0
  5 18  1  0  0  0  0
  6 20  1  0  0  0  0
  7 10  2  0  0  0  0
  7 19  1  0  0  0  0
  8 24  1  0  0  0  0
  9 24  2  0  0  0  0
 10 25  1  0  0  0  0
 11 12  2  0  0  0  0
 11 26  1  0  0  0  0
 12 27  1  0  0  0  0
 13 21  1  0  0  0  0
 13 25  2  0  0  0  0
 14 22  1  0  0  0  0
 14 28  2  0  0  0  0
 15 27  2  0  0  0  0
 15 29  1  0  0  0  0
 16 32  1  0  0  0  0
 17 32  1  0  0  0  0
 17 33  2  0  0  0  0
 17 34  1  0  0  0  0
 18 20  2  0  0  0  0
 18 40  1  0  0  0  0
 19 21  2  0  0  0  0
 19 41  1  0  0  0  0
 20 49  1  0  0  0  0
 21 42  1  0  0  0  0
 22 31  2  0  0  0  0
 22 71  1  0  0  0  0
 23 30  2  0  0  0  0
 23 31  1  0  0  0  0
 23 68  1  0  0  0  0
 24 79  1  0  0  0  0
 25 80  1  0  0  0  0
 26 29  2  0  0  0  0
 26 79  1  0  0  0  0
 27 81  1  0  0  0  0
 28 30  1  0  0  0  0
 28 82  1  0  0  0  0
 29 83  1  0  0  0  0
 30 84  1  0  0  0  0
 31 85  1  0  0  0  0
 32 62  2  0  0  0  0
 33 63  1  0  0  0  0
 33 66  1  0  0  0  0
 34 67  1  0  0  0  0
 34 73  2  0  0  0  0
 35 50  1  0  0  0  0
 35 69  1  0  0  0  0
 35 74  2  0  0  0  0
 36 59  1  0  0  0  0
 36 64  1  0  0  0  0
 36 75  2  0  0  0  0
 37 58  1  0  0  0  0
 37 71  1  0  0  0  0
 37 76  2  0  0  0  0
 38 60  1  0  0  0  0
 38 70  1  0  0  0  0
 38 77  2  0  0  0  0
 39 65  1  0  0  0  0
 39 68  1  0  0  0  0
 39 78  2  0  0  0  0
 40 43  1  0  0  0  0
 41 50  1  0  0  0  0
 42 64  1  0  0  0  0
 43 45  1  0  0  0  0
 44 46  1  0  0  0  0
 44 47  1  0  0  0  0
 45 49  1  0  0  0  0
 46 51  1  0  0  0  0
 47 65  1  0  0  0  0
 48 51  1  0  0  0  0
 48 65  1  0  0  0  0
 49 69  1  0  0  0  0
 50 64  1  0  0  0  0
 51 63  1  0  0  0  0
 52 60  1  0  0  0  0
 53 61  1  0  0  0  0
 54 61  1  0  0  0  0
 55 61  1  0  0  0  0
 56 71  1  0  0  0  0
 57 72  1  0  0  0  0
 58 80  1  0  0  0  0
 59 61  1  0  0  0  0
 59 70  1  0  0  0  0
 60 72  1  0  0  0  0
 62 63  1  0  0  0  0
M  CHG  1  72   1
M  ISO  4  39 100  58 101  68 100  80 101
M  END
> <Batch ID>
0012

> <Smiles>
CNC(C)C(=O)NC(C(=O)N1Cc2cc([101O:1][101CH2:1]C(=O)N(C)c3cc(F)c(F)c([100NH:0][100C:0](=O)N4CCCC(n5nc(-c6ccc(Oc7ccc(F)cc7F)cc6)c(C(N)=O)c5N)C4)c3Cl)ccc2CC1C(=O)NC1CCCc2ccccc21)C(C)(C)C

> <Shape>
0.202

> <Color>
0.082

> <Negative vol penalty>
0.000

$$$$

  -OEChem-04052315473D

 82 90  0     1  0  0  0  0  0999 V2000
  -29.4609  -33.9616   26.0651 C   0  0  0  0  0  0  0  0  0  0  0  0
  -29.6130  -32.8665   25.2207 C   0  0  0  0  0  0  0  0  0  0  0  0
  -24.6254   -9.0141   21.3663 C   0  0  0  0  0  0  0  0  0  0  0  0
  -23.3749  -10.8876   22.2399 C   0  0  0  0  0  0  0  0  0  0  0  0
  -28.2344  -34.1977   26.6847 C   0  0  0  0  0  0  0  0  0  0  0  0
  -28.5389  -32.0061   24.9963 C   0  0  0  0  0  0  0  0  0  0  0  0
  -27.2088  -29.0561   19.7969 C   0  0  0  0  0  0  0  0  0  0  0  0
  -28.2583  -19.0882   20.2571 C   0  0  0  0  0  0  0  0  0  0  0  0
  -27.8311  -20.4045   20.0827 C   0  0  0  0  0  0  0  0  0  0  0  0
  -24.0837   -8.1918   22.3542 C   0  0  0  0  0  0  0  0  0  0  0  0
  -22.8332  -10.0653   23.2279 C   0  0  0  0  0  0  0  0  0  0  0  0
  -27.4513  -27.7511   19.3704 C   0  0  0  0  0  0  0  0  0  0  0  0
  -21.1749   -6.5638   22.9211 C   0  0  0  0  0  0  0  0  0  0  0  0
  -20.7074   -5.3078   22.5345 C   0  0  0  0  0  0  0  0  0  0  0  0
  -25.2378  -27.1124   20.0857 C   0  0  0  0  0  0  0  0  0  0  0  0
  -26.2425  -18.5979   21.4954 C   0  0  0  0  0  0  0  0  0  0  0  0
  -22.2821   -4.2592   24.0373 C   0  0  0  0  0  0  0  0  0  0  0  0
  -24.2711  -10.3620   21.3092 C   0  0  0  0  0  0  0  0  0  0  0  0
  -24.3057  -11.4600   19.0068 C   0  0  0  0  0  0  0  0  0  0  0  0
  -27.1420  -33.3453   26.4602 C   0  0  0  0  0  0  0  0  0  0  0  0
  -25.9808  -29.3971   20.3819 C   0  0  0  0  0  0  0  0  0  0  0  0
  -27.2970  -32.2302   25.6146 C   0  0  0  0  0  0  0  0  0  0  0  0
  -24.9812  -28.4230   20.5164 C   0  0  0  0  0  0  0  0  0  0  0  0
  -27.4640  -18.1849   20.9633 C   0  0  0  0  0  0  0  0  0  0  0  0
  -26.6097  -20.8176   20.6148 C   0  0  0  0  0  0  0  0  0  0  0  0
  -23.1876   -8.7174   23.2850 C   0  0  0  0  0  0  0  0  0  0  0  0
  -26.4669  -26.7783   19.5174 C   0  0  0  0  0  0  0  0  0  0  0  0
  -22.1961   -6.6675   23.8657 C   0  0  0  0  0  0  0  0  0  0  0  0
  -21.2610   -4.1555   23.0926 C   0  0  0  0  0  0  0  0  0  0  0  0
  -25.8153  -19.9143   21.3211 C   0  0  0  0  0  0  0  0  0  0  0  0
  -22.7496   -5.5153   24.4238 C   0  0  0  0  0  0  0  0  0  0  0  0
  -24.8308  -11.2121   20.2892 C   0  0  0  0  0  0  0  0  0  0  0  0
  -25.2014  -12.3274   18.4309 C   0  0  0  0  0  0  0  0  0  0  0  0
  -23.1148  -10.9516   18.3912 C   0  0  0  0  0  0  0  0  0  0  0  0
  -25.0781  -30.4896   23.2271 C   0  0  0  0  0  0  0  0  0  0  0  0
  -22.1722  -30.6800   21.7983 C   0  0  0  0  0  0  0  0  0  0  0  0
  -26.8424  -23.1750   19.7648 C   0  0  0  0  0  0  0  0  0  0  0  0
  -20.0775  -29.5876   19.3354 C   0  0  0  0  0  0  0  0  0  0  0  0
  -29.0827  -16.2756   20.6787 C   0  0  0  0  0  0  0  0  0  0  0  0
  -25.8494  -33.6143   27.1893 C   0  0  0  0  0  0  0  0  0  0  0  0
  -25.7250  -30.8155   20.8123 C   0  0  0  0  0  0  0  0  0  0  0  0
  -23.6386  -28.7425   21.1196 C   0  0  0  0  0  0  0  0  0  0  0  0
  -24.6534  -32.8673   26.6047 C   0  0  0  0  0  0  0  0  0  0  0  0
  -29.8337  -13.5387   18.5288 C   0  0  0  0  0  0  0  0  0  0  0  0
  -25.0100  -31.4067   26.3474 C   0  0  0  0  0  0  0  0  0  0  0  0
  -28.5857  -12.6570   18.6148 C   0  0  0  0  0  0  0  0  0  0  0  0
  -30.1628  -14.1883   19.8717 C   0  0  0  0  0  0  0  0  0  0  0  0
  -27.8072  -14.0443   20.5786 C   0  0  0  0  0  0  0  0  0  0  0  0
  -26.1482  -31.2882   25.3267 C   0  0  1  0  0  0  0  0  0  0  0  0
  -24.6261  -30.9318   21.8641 C   0  0  1  0  0  0  0  0  0  0  0  0
  -27.3984  -13.4199   19.2345 C   0  0  2  0  0  0  0  0  0  0  0  0
  -17.7527  -29.9008   18.4441 C   0  0  0  0  0  0  0  0  0  0  0  0
  -21.0648  -29.0297   24.1135 C   0  0  0  0  0  0  0  0  0  0  0  0
  -19.0308  -28.5762   22.7259 C   0  0  0  0  0  0  0  0  0  0  0  0
  -19.5956  -30.9161   23.3806 C   0  0  0  0  0  0  0  0  0  0  0  0
  -21.0837  -30.5122   16.7103 C   0  0  0  0  0  0  0  0  0  0  0  0
  -26.0333  -24.4580   19.8076 C   0  0  0  0  0  0  0  0  0  1  0  0
  -20.9985  -29.7450   21.6336 C   0  0  1  0  0  0  0  0  0  0  0  0
  -19.2052  -30.3408   18.3474 C   0  0  2  0  0  0  0  0  0  0  0  0
  -20.1983  -29.5600   22.9538 C   0  0  0  0  0  0  0  0  0  0  0  0
  -25.9716  -11.8689   20.5151 N   0  0  0  0  0  0  0  0  0  0  0  0
  -26.1709  -12.5380   19.3668 N   0  0  0  0  0  0  0  0  0  0  0  0
  -23.4389  -30.1419   21.5309 N   0  0  0  0  0  0  0  0  0  0  0  0
  -28.9928  -14.8963   20.3958 N   0  0  0  0  0  0  0  0  0  0  0  0
  -25.2465  -12.9230   17.2202 N   0  0  0  0  0  0  0  0  0  0  0  0
  -22.3079  -10.0704   19.1238 N   0  0  0  0  0  0  0  0  0  0  0  0
  -26.1792  -22.1538   20.4367 N   0  0  0  0  0  0  0  0  0  0  0  0
  -27.8980  -16.8478   21.1411 N   0  0  0  0  0  0  0  0  0  0  0  0
  -25.6472  -31.4953   23.9848 N   0  0  0  0  0  0  0  0  0  0  0  0
  -20.2094  -30.2717   20.5253 N   0  0  0  0  0  0  0  0  0  0  0  0
  -19.6766  -30.1028   16.9539 N   0  3  0  0  0  0  0  0  0  0  0  0
  -22.7849  -11.2565   17.2200 O   0  0  0  0  0  0  0  0  0  0  0  0
  -24.9208  -29.3228   23.5668 O   0  0  0  0  0  0  0  0  0  0  0  0
  -21.9717  -31.8470   22.1444 O   0  0  0  0  0  0  0  0  0  0  0  0
  -27.9277  -23.1185   19.1961 O   0  0  0  0  0  0  0  0  0  0  0  0
  -20.5876  -28.4993   19.0788 O   0  0  0  0  0  0  0  0  0  0  0  0
  -30.1257  -16.9089   20.4965 O   0  0  0  0  0  0  0  0  0  0  0  0
  -22.6586   -7.9153   24.2490 O   0  0  0  0  0  0  0  0  0  0  0  0
  -26.7013  -25.5036   19.1026 O   0  0  0  0  0  0  0  0  0  1  0  0
  -20.8108   -2.9494   22.7225 F   0  0  0  0  0  0  0  0  0  0  0  0
  -24.6401  -20.3006   21.8382 F   0  0  0  0  0  0  0  0  0  0  0  0
  -23.7300   -5.6086   25.3326 F   0  0  0  0  0  0  0  0  0  0  0  0
  1  2  1  0  0  0  0
  1  5  2  0  0  0  0
  2  6  2  0  0  0  0
  3 10  2  0  0  0  0
  3 18  1  0  0  0  0
  4 11  1  0  0  0  0
  4 18  2  0  0  0  0
  5 20  1  0  0  0  0
  6 22  1  0  0  0  0
  7 12  2  0  0  0  0
  7 21  1  0  0  0  0
  8  9  2  0  0  0  0
  8 24  1  0  0  0  0
  9 25  1  0  0  0  0
 10 26  1  0  0  0  0
 11 26  2  0  0  0  0
 12 27  1  0  0  0  0
 13 14  2  0  0  0  0
 13 28  1  0  0  0  0
 14 29  1  0  0  0  0
 15 23  1  0  0  0  0
 15 27  2  0  0  0  0
 16 24  2  0  0  0  0
 16 30  1  0  0  0  0
 17 29  2  0  0  0  0
 17 31  1  0  0  0  0
 18 32  1  0  0  0  0
 19 32  1  0  0  0  0
 19 33  2  0  0  0  0
 19 34  1  0  0  0  0
 20 22  2  0  0  0  0
 20 40  1  0  0  0  0
 21 23  2  0  0  0  0
 21 41  1  0  0  0  0
 22 49  1  0  0  0  0
 23 42  1  0  0  0  0
 24 68  1  0  0  0  0
 25 30  2  0  0  0  0
 25 67  1  0  0  0  0
 26 78  1  0  0  0  0
 27 79  1  0  0  0  0
 28 31  2  0  0  0  0
 28 78  1  0  0  0  0
 29 80  1  0  0  0  0
 30 81  1  0  0  0  0
 31 82  1  0  0  0  0
 32 61  2  0  0  0  0
 33 62  1  0  0  0  0
 33 65  1  0  0  0  0
 34 66  1  0  0  0  0
 34 72  2  0  0  0  0
 35 50  1  0  0  0  0
 35 69  1  0  0  0  0
 35 73  2  0  0  0  0
 36 58  1  0  0  0  0
 36 63  1  0  0  0  0
 36 74  2  0  0  0  0
 37 57  1  0  0  0  0
 37 67  1  0  0  0  0
 37 75  2  0  0  0  0
 38 59  1  0  0  0  0
 38 70  1  0  0  0  0
 38 76  2  0  0  0  0
 39 64  1  0  0  0  0
 39 68  1  0  0  0  0
 39 77  2  0  0  0  0
 40 43  1  0  0  0  0
 41 50  1  0  0  0  0
 42 63  1  0  0  0  0
 43 45  1  0  0  0  0
 44 46  1  0  0  0  0
 44 47  1  0  0  0  0
 45 49  1  0  0  0  0
 46 51  1  0  0  0  0
 47 64  1  0  0  0  0
 48 51  1  0  0  0  0
 48 64  1  0  0  0  0
 49 69  1  0  0  0  0
 50 63  1  0  0  0  0
 51 62  1  0  0  0  0
 52 59  1  0  0  0  0
 53 60  1  0  0  0  0
 54 60  1  0  0  0  0
 55 60  1  0  0  0  0
 56 71  1  0  0  0  0
 57 79  1  0  0  0  0
 58 60  1  0  0  0  0
 58 70  1  0  0  0  0
 59 71  1  0  0  0  0
 61 62  1  0  0  0  0
M  CHG  1  71   1
M  ISO  4  39 100  57 101  68 100  79 101
M  END
> <Batch ID>
0012

> <Smiles>
CNC(C)C(=O)NC(C(=O)N1Cc2cc([101O:1][101CH2:1]C(=O)Nc3ccc([100NH:0][100C:0](=O)N4CCCC(n5nc(-c6ccc(Oc7ccc(F)cc7F)cc6)c(C(N)=O)c5N)C4)cc3F)ccc2CC1C(=O)NC1CCCc2ccccc21)C(C)(C)C

> <Shape>
0.309

> <Color>
0.101

> <Negative vol penalty>
0.000

$$$$

  -OEChem-04052315473D

 85 93  0     1  0  0  0  0  0999 V2000
  -16.8846  -31.2179   23.1644 C   0  0  0  0  0  0  0  0  0  0  0  0
  -18.1095  -31.7535   23.5494 C   0  0  0  0  0  0  0  0  0  0  0  0
  -25.0938  -14.9838   20.4340 C   0  0  0  0  0  0  0  0  0  0  0  0
  -27.3866  -14.6850   21.1344 C   0  0  0  0  0  0  0  0  0  0  0  0
  -16.7883  -29.8662   22.8367 C   0  0  0  0  0  0  0  0  0  0  0  0
  -19.2386  -30.9373   23.6080 C   0  0  0  0  0  0  0  0  0  0  0  0
  -26.3311  -31.1400   22.6219 C   0  0  0  0  0  0  0  0  0  0  0  0
  -24.9516  -13.6018   20.3098 C   0  0  0  0  0  0  0  0  0  0  0  0
  -27.2445  -13.3030   21.0103 C   0  0  0  0  0  0  0  0  0  0  0  0
  -27.5191  -30.8160   23.2757 C   0  0  0  0  0  0  0  0  0  0  0  0
  -24.4542  -10.9552   22.3545 C   0  0  0  0  0  0  0  0  0  0  0  0
  -23.2998  -10.3726   22.8776 C   0  0  0  0  0  0  0  0  0  0  0  0
  -27.2498  -28.5129   22.6107 C   0  0  0  0  0  0  0  0  0  0  0  0
  -30.9495  -25.0506   20.4468 C   0  0  0  0  0  0  0  0  0  0  0  0
  -31.2319  -25.0168   23.2220 C   0  0  0  0  0  0  0  0  0  0  0  0
  -22.7204   -9.5487   20.6816 C   0  0  0  0  0  0  0  0  0  0  0  0
  -26.3113  -15.5255   20.8462 C   0  0  0  0  0  0  0  0  0  0  0  0
  -26.2112  -17.7341   22.1189 C   0  0  0  0  0  0  0  0  0  0  0  0
  -17.9187  -29.0351   22.8819 C   0  0  0  0  0  0  0  0  0  0  0  0
  -25.5866  -30.1492   21.9658 C   0  0  0  0  0  0  0  0  0  0  0  0
  -19.1570  -29.5728   23.2818 C   0  0  0  0  0  0  0  0  0  0  0  0
  -26.0540  -28.8274   21.9472 C   0  0  0  0  0  0  0  0  0  0  0  0
  -31.5072  -26.1469   21.1045 C   0  0  0  0  0  0  0  0  0  0  0  0
  -30.5329  -23.9373   21.1768 C   0  0  0  0  0  0  0  0  0  0  0  0
  -31.6484  -26.1301   22.4921 C   0  0  0  0  0  0  0  0  0  0  0  0
  -26.0269  -12.7614   20.5980 C   0  0  0  0  0  0  0  0  0  0  0  0
  -27.9771  -29.5018   23.2726 C   0  0  0  0  0  0  0  0  0  0  0  0
  -24.7417  -10.8345   20.9948 C   0  0  0  0  0  0  0  0  0  0  0  0
  -30.6741  -23.9204   22.5644 C   0  0  0  0  0  0  0  0  0  0  0  0
  -22.4329   -9.6694   22.0412 C   0  0  0  0  0  0  0  0  0  0  0  0
  -23.8748  -10.1313   20.1584 C   0  0  0  0  0  0  0  0  0  0  0  0
  -26.4590  -16.9530   20.9742 C   0  0  0  0  0  0  0  0  0  0  0  0
  -26.4992  -19.0186   21.7270 C   0  0  0  0  0  0  0  0  0  0  0  0
  -25.7611  -17.3342   23.4201 C   0  0  0  0  0  0  0  0  0  0  0  0
  -22.6650  -28.9443   22.3061 C   0  0  0  0  0  0  0  0  0  0  0  0
  -23.4320  -27.3420   19.5920 C   0  0  0  0  0  0  0  0  0  0  0  0
  -31.3763  -28.2906   23.6461 C   0  0  0  0  0  0  0  0  0  0  0  0
  -25.8691  -26.0941   17.5549 C   0  0  0  0  0  0  0  0  0  0  0  0
  -29.7645  -22.6999   19.1214 C   0  0  0  0  0  0  0  0  0  0  0  0
  -17.7556  -27.5698   22.5643 C   0  0  0  0  0  0  0  0  0  0  0  0
  -24.3210  -30.5199   21.2425 C   0  0  0  0  0  0  0  0  0  0  0  0
  -25.3024  -27.7303   21.2400 C   0  0  0  0  0  0  0  0  0  0  0  0
  -19.0765  -26.8552   22.2905 C   0  0  0  0  0  0  0  0  0  0  0  0
  -27.3977  -20.9367   17.1297 C   0  0  0  0  0  0  0  0  0  0  0  0
  -20.1110  -27.2211   23.3501 C   0  0  0  0  0  0  0  0  0  0  0  0
  -26.9221  -19.8074   18.0465 C   0  0  0  0  0  0  0  0  0  0  0  0
  -28.8844  -21.2329   17.3190 C   0  0  0  0  0  0  0  0  0  0  0  0
  -28.8189  -20.3610   19.6222 C   0  0  0  0  0  0  0  0  0  0  0  0
  -20.4095  -28.7251   23.3336 C   0  0  1  0  0  0  0  0  0  0  0  0
  -23.3783  -29.3371   21.0434 C   0  0  1  0  0  0  0  0  0  0  0  0
  -27.3130  -20.0704   19.5140 C   0  0  2  0  0  0  0  0  0  0  0  0
  -31.9434  -27.3266   20.2976 C   0  0  0  0  0  0  0  0  0  0  0  0
  -26.1876  -24.8001   15.4284 C   0  0  0  0  0  0  0  0  0  0  0  0
  -22.6837  -24.7678   21.0492 C   0  0  0  0  0  0  0  0  0  0  0  0
  -23.8956  -23.4903   19.2694 C   0  0  0  0  0  0  0  0  0  0  0  0
  -21.9138  -24.8828   18.6725 C   0  0  0  0  0  0  0  0  0  0  0  0
  -33.6802  -27.2935   23.4132 C   0  0  0  0  0  0  0  0  0  0  0  0
  -27.3177  -28.3337   16.2726 C   0  0  0  0  0  0  0  0  0  0  0  0
  -28.9264  -22.8466   23.7678 C   0  0  0  0  0  0  0  0  0  0  0  0
  -29.8908  -28.0939   23.3803 C   0  0  0  0  0  0  0  0  0  1  0  0
  -24.0889  -26.0189   19.2810 C   0  0  1  0  0  0  0  0  0  0  0  0
  -26.0689  -26.1818   16.0526 C   0  0  2  0  0  0  0  0  0  0  0  0
  -23.1589  -24.8100   19.5831 C   0  0  0  0  0  0  0  0  0  0  0  0
  -26.8724  -17.6805   19.9331 N   0  0  0  0  0  0  0  0  0  0  0  0
  -26.8865  -18.9322   20.4221 N   0  0  0  0  0  0  0  0  0  0  0  0
  -24.0672  -28.1417   20.5527 N   0  0  0  0  0  0  0  0  0  0  0  0
  -29.1796  -21.4761   18.7327 N   0  0  0  0  0  0  0  0  0  0  0  0
  -26.4563  -20.2022   22.3747 N   0  0  0  0  0  0  0  0  0  0  0  0
  -25.5122  -15.9747   23.6524 N   0  0  0  0  0  0  0  0  0  0  0  0
  -29.9689  -22.8309   20.4946 N   0  0  0  0  0  0  0  0  0  0  0  0
  -21.2894  -29.0537   22.2326 N   0  0  0  0  0  0  0  0  0  0  0  0
  -24.5325  -26.0995   17.8935 N   0  0  0  0  0  0  0  0  0  0  0  0
  -32.2260  -27.2585   23.1938 N   0  0  0  0  0  0  0  0  0  0  0  0
  -27.3083  -26.9474   15.7387 N   0  3  0  0  0  0  0  0  0  0  0  0
  -25.5692  -18.1602   24.3445 O   0  0  0  0  0  0  0  0  0  0  0  0
  -23.3144  -28.5684   23.2750 O   0  0  0  0  0  0  0  0  0  0  0  0
  -22.3974  -27.6577   18.9990 O   0  0  0  0  0  0  0  0  0  0  0  0
  -31.7420  -29.3003   24.2531 O   0  0  0  0  0  0  0  0  0  0  0  0
  -26.8051  -26.0237   18.3483 O   0  0  0  0  0  0  0  0  0  0  0  0
  -30.0370  -23.5788   18.2996 O   0  0  0  0  0  0  0  0  0  0  0  0
  -25.8885  -11.4128   20.4771 O   0  0  0  0  0  0  0  0  0  0  0  0
  -30.2721  -22.8431   23.2964 O   0  0  0  0  0  0  0  0  0  0  0  0
  -29.1361  -29.1827   23.9106 O   0  0  0  0  0  0  0  0  0  1  0  0
  -21.3252   -9.1087   22.5440 F   0  0  0  0  0  0  0  0  0  0  0  0
  -24.1462  -10.0110   18.8517 F   0  0  0  0  0  0  0  0  0  0  0  0
  1  2  1  0  0  0  0
  1  5  2  0  0  0  0
  2  6  2  0  0  0  0
  3  8  2  0  0  0  0
  3 17  1  0  0  0  0
  4  9  1  0  0  0  0
  4 17  2  0  0  0  0
  5 19  1  0  0  0  0
  6 21  1  0  0  0  0
  7 10  2  0  0  0  0
  7 20  1  0  0  0  0
  8 26  1  0  0  0  0
  9 26  2  0  0  0  0
 10 27  1  0  0  0  0
 11 12  2  0  0  0  0
 11 28  1  0  0  0  0
 12 30  1  0  0  0  0
 13 22  1  0  0  0  0
 13 27  2  0  0  0  0
 14 23  1  0  0  0  0
 14 24  2  0  0  0  0
 15 25  1  0  0  0  0
 15 29  2  0  0  0  0
 16 30  2  0  0  0  0
 16 31  1  0  0  0  0
 17 32  1  0  0  0  0
 18 32  1  0  0  0  0
 18 33  2  0  0  0  0
 18 34  1  0  0  0  0
 19 21  2  0  0  0  0
 19 40  1  0  0  0  0
 20 22  2  0  0  0  0
 20 41  1  0  0  0  0
 21 49  1  0  0  0  0
 22 42  1  0  0  0  0
 23 25  2  0  0  0  0
 23 52  1  0  0  0  0
 24 29  1  0  0  0  0
 24 70  1  0  0  0  0
 25 73  1  0  0  0  0
 26 81  1  0  0  0  0
 27 83  1  0  0  0  0
 28 31  2  0  0  0  0
 28 81  1  0  0  0  0
 29 82  1  0  0  0  0
 30 84  1  0  0  0  0
 31 85  1  0  0  0  0
 32 64  2  0  0  0  0
 33 65  1  0  0  0  0
 33 68  1  0  0  0  0
 34 69  1  0  0  0  0
 34 75  2  0  0  0  0
 35 50  1  0  0  0  0
 35 71  1  0  0  0  0
 35 76  2  0  0  0  0
 36 61  1  0  0  0  0
 36 66  1  0  0  0  0
 36 77  2  0  0  0  0
 37 60  1  0  0  0  0
 37 73  1  0  0  0  0
 37 78  2  0  0  0  0
 38 62  1  0  0  0  0
 38 72  1  0  0  0  0
 38 79  2  0  0  0  0
 39 67  1  0  0  0  0
 39 70  1  0  0  0  0
 39 80  2  0  0  0  0
 40 43  1  0  0  0  0
 41 50  1  0  0  0  0
 42 66  1  0  0  0  0
 43 45  1  0  0  0  0
 44 46  1  0  0  0  0
 44 47  1  0  0  0  0
 45 49  1  0  0  0  0
 46 51  1  0  0  0  0
 47 67  1  0  0  0  0
 48 51  1  0  0  0  0
 48 67  1  0  0  0  0
 49 71  1  0  0  0  0
 50 66  1  0  0  0  0
 51 65  1  0  0  0  0
 53 62  1  0  0  0  0
 54 63  1  0  0  0  0
 55 63  1  0  0  0  0
 56 63  1  0  0  0  0
 57 73  1  0  0  0  0
 58 74  1  0  0  0  0
 59 82  1  0  0  0  0
 60 83  1  0  0  0  0
 61 63  1  0  0  0  0
 61 72  1  0  0  0  0
 62 74  1  0  0  0  0
 64 65  1  0  0  0  0
M  CHG  1  74   1
M  ISO  4  39 100  60 101  70 100  83 101
M  END
> <Batch ID>
0012

> <Smiles>
CNC(C)C(=O)NC(C(=O)N1Cc2cc([101O:1][101CH2:1]C(=O)N(C)c3cc(OC)c([100NH:0][100C:0](=O)N4CCCC(n5nc(-c6ccc(Oc7ccc(F)cc7F)cc6)c(C(N)=O)c5N)C4)cc3C)ccc2CC1C(=O)NC1CCCc2ccccc21)C(C)(C)C

> <Shape>
0.250

> <Color>
0.089

> <Negative vol penalty>
0.000

$$$$

  -OEChem-04052315473D

 83 91  0     1  0  0  0  0  0999 V2000
  -28.8000  -29.9101   27.5057 C   0  0  0  0  0  0  0  0  0  0  0  0
  -28.5258  -29.0582   26.4406 C   0  0  0  0  0  0  0  0  0  0  0  0
  -24.2803   -9.5089   21.9509 C   0  0  0  0  0  0  0  0  0  0  0  0
  -24.7220  -11.0865   23.7267 C   0  0  0  0  0  0  0  0  0  0  0  0
  -27.8095  -30.7666   27.9846 C   0  0  0  0  0  0  0  0  0  0  0  0
  -27.2606  -29.0617   25.8544 C   0  0  0  0  0  0  0  0  0  0  0  0
  -27.4639  -29.0362   20.7944 C   0  0  0  0  0  0  0  0  0  0  0  0
  -27.4487  -19.3987   19.4475 C   0  0  0  0  0  0  0  0  0  0  0  0
  -27.5682  -20.7782   19.6150 C   0  0  0  0  0  0  0  0  0  0  0  0
  -23.9839   -8.5274   22.8966 C   0  0  0  0  0  0  0  0  0  0  0  0
  -24.4255  -10.1050   24.6724 C   0  0  0  0  0  0  0  0  0  0  0  0
  -27.7399  -27.8184   20.1744 C   0  0  0  0  0  0  0  0  0  0  0  0
  -21.3842   -7.6952   24.8921 C   0  0  0  0  0  0  0  0  0  0  0  0
  -20.2473   -6.9149   24.6820 C   0  0  0  0  0  0  0  0  0  0  0  0
  -25.3902  -27.5277   19.7127 C   0  0  0  0  0  0  0  0  0  0  0  0
  -29.8432  -19.2241   19.1768 C   0  0  0  0  0  0  0  0  0  0  0  0
  -21.6208   -4.9279   24.6298 C   0  0  0  0  0  0  0  0  0  0  0  0
  -24.6494  -10.7885   22.3659 C   0  0  0  0  0  0  0  0  0  0  0  0
  -24.0602  -12.7155   20.8016 C   0  0  0  0  0  0  0  0  0  0  0  0
  -26.5345  -30.7875   27.3977 C   0  0  0  0  0  0  0  0  0  0  0  0
  -26.1454  -29.5045   20.8880 C   0  0  0  0  0  0  0  0  0  0  0  0
  -26.2518  -29.9183   26.3267 C   0  0  0  0  0  0  0  0  0  0  0  0
  -25.1003  -28.7530   20.3321 C   0  0  0  0  0  0  0  0  0  0  0  0
  -28.5862  -18.6216   19.2285 C   0  0  0  0  0  0  0  0  0  0  0  0
  -28.8252  -21.3808   19.5634 C   0  0  0  0  0  0  0  0  0  0  0  0
  -24.0565   -8.8254   24.2573 C   0  0  0  0  0  0  0  0  0  0  0  0
  -26.7027  -27.0625   19.6360 C   0  0  0  0  0  0  0  0  0  0  0  0
  -22.6394   -7.0919   24.9710 C   0  0  0  0  0  0  0  0  0  0  0  0
  -20.3656   -5.5312   24.5509 C   0  0  0  0  0  0  0  0  0  0  0  0
  -29.9627  -20.6037   19.3443 C   0  0  0  0  0  0  0  0  0  0  0  0
  -22.7577   -5.7083   24.8399 C   0  0  0  0  0  0  0  0  0  0  0  0
  -24.9563  -11.8026   21.3895 C   0  0  0  0  0  0  0  0  0  0  0  0
  -24.8383  -13.4593   19.9485 C   0  0  0  0  0  0  0  0  0  0  0  0
  -22.6506  -12.8768   21.0083 C   0  0  0  0  0  0  0  0  0  0  0  0
  -24.1710  -30.1835   23.2848 C   0  0  0  0  0  0  0  0  0  0  0  0
  -22.2584  -31.2507   20.8920 C   0  0  0  0  0  0  0  0  0  0  0  0
  -27.8805  -23.6450   19.3297 C   0  0  0  0  0  0  0  0  0  0  0  0
  -21.4026  -31.1216   17.5909 C   0  0  0  0  0  0  0  0  0  0  0  0
  -29.4923  -16.3046   18.8319 C   0  0  0  0  0  0  0  0  0  0  0  0
  -25.4819  -31.6969   27.9805 C   0  0  0  0  0  0  0  0  0  0  0  0
  -25.8672  -30.8330   21.5364 C   0  0  0  0  0  0  0  0  0  0  0  0
  -23.6698  -29.2210   20.3885 C   0  0  0  0  0  0  0  0  0  0  0  0
  -24.2813  -31.9064   27.0612 C   0  0  0  0  0  0  0  0  0  0  0  0
  -29.6070  -12.7728   18.3962 C   0  0  0  0  0  0  0  0  0  0  0  0
  -23.8045  -30.5733   26.4935 C   0  0  0  0  0  0  0  0  0  0  0  0
  -28.3336  -12.2806   19.0877 C   0  0  0  0  0  0  0  0  0  0  0  0
  -30.2345  -13.9527   19.1362 C   0  0  0  0  0  0  0  0  0  0  0  0
  -28.0521  -14.5839   20.0890 C   0  0  0  0  0  0  0  0  0  0  0  0
  -24.8990  -29.9105   25.6483 C   0  0  1  0  0  0  0  0  0  0  0  0
  -24.4299  -30.9678   22.0296 C   0  0  1  0  0  0  0  0  0  0  0  0
  -27.3483  -13.4378   19.3441 C   0  0  2  0  0  0  0  0  0  0  0  0
  -19.7750  -32.0803   15.9388 C   0  0  0  0  0  0  0  0  0  0  0  0
  -20.0655  -29.4474   22.0096 C   0  0  0  0  0  0  0  0  0  0  0  0
  -18.8425  -29.7078   19.8405 C   0  0  0  0  0  0  0  0  0  0  0  0
  -19.2835  -31.7046   21.2692 C   0  0  0  0  0  0  0  0  0  0  0  0
  -30.1756  -23.3591   20.3330 C   0  0  0  0  0  0  0  0  0  0  0  0
  -23.5727  -32.3110   15.9676 C   0  0  0  0  0  0  0  0  0  0  0  0
  -28.0978  -25.1408   19.5068 C   0  0  0  0  0  0  0  0  0  1  0  0
  -21.1979  -30.6313   20.0141 C   0  0  1  0  0  0  0  0  0  0  0  0
  -21.1509  -32.2183   16.5719 C   0  0  2  0  0  0  0  0  0  0  0  0
  -19.8740  -30.3628   20.7839 C   0  0  0  0  0  0  0  0  0  0  0  0
  -26.2078  -11.9510   20.9471 N   0  0  0  0  0  0  0  0  0  0  0  0
  -26.1037  -12.9657   20.0721 N   0  0  0  0  0  0  0  0  0  0  0  0
  -23.4481  -30.5234   21.0383 N   0  0  0  0  0  0  0  0  0  0  0  0
  -29.2438  -15.0119   19.3397 N   0  0  0  0  0  0  0  0  0  0  0  0
  -24.5566  -14.4807   19.1120 N   0  0  0  0  0  0  0  0  0  0  0  0
  -22.0078  -12.0288   21.9205 N   0  0  0  0  0  0  0  0  0  0  0  0
  -28.4650  -17.2202   19.0576 N   0  0  0  0  0  0  0  0  0  0  0  0
  -24.9815  -30.5374   24.3466 N   0  0  0  0  0  0  0  0  0  0  0  0
  -21.0514  -31.5172   18.8642 N   0  0  0  0  0  0  0  0  0  0  0  0
  -28.9460  -22.8142   19.7372 N   0  0  0  0  0  0  0  0  0  0  0  0
  -22.1738  -32.1643   15.4895 N   0  3  0  0  0  0  0  0  0  0  0  0
  -21.9780  -13.7362   20.3899 O   0  0  0  0  0  0  0  0  0  0  0  0
  -23.2994  -29.3222   23.2901 O   0  0  0  0  0  0  0  0  0  0  0  0
  -22.0421  -32.3431   21.4226 O   0  0  0  0  0  0  0  0  0  0  0  0
  -26.8250  -23.2543   18.8246 O   0  0  0  0  0  0  0  0  0  0  0  0
  -21.8611  -30.0225   17.2870 O   0  0  0  0  0  0  0  0  0  0  0  0
  -30.5276  -16.5722   18.2166 O   0  0  0  0  0  0  0  0  0  0  0  0
  -23.7671   -7.8680   25.1804 O   0  0  0  0  0  0  0  0  0  0  0  0
  -26.9693  -25.8732   19.0308 O   0  0  0  0  0  0  0  0  0  1  0  0
  -19.2736   -4.7818   24.3507 F   0  0  0  0  0  0  0  0  0  0  0  0
  -31.1758  -21.1722   19.2912 F   0  0  0  0  0  0  0  0  0  0  0  0
  -23.9608   -5.1229   24.9160 F   0  0  0  0  0  0  0  0  0  0  0  0
  1  2  1  0  0  0  0
  1  5  2  0  0  0  0
  2  6  2  0  0  0  0
  3 10  2  0  0  0  0
  3 18  1  0  0  0  0
  4 11  1  0  0  0  0
  4 18  2  0  0  0  0
  5 20  1  0  0  0  0
  6 22  1  0  0  0  0
  7 12  2  0  0  0  0
  7 21  1  0  0  0  0
  8  9  2  0  0  0  0
  8 24  1  0  0  0  0
  9 25  1  0  0  0  0
 10 26  1  0  0  0  0
 11 26  2  0  0  0  0
 12 27  1  0  0  0  0
 13 14  2  0  0  0  0
 13 28  1  0  0  0  0
 14 29  1  0  0  0  0
 15 23  1  0  0  0  0
 15 27  2  0  0  0  0
 16 24  2  0  0  0  0
 16 30  1  0  0  0  0
 17 29  2  0  0  0  0
 17 31  1  0  0  0  0
 18 32  1  0  0  0  0
 19 32  1  0  0  0  0
 19 33  2  0  0  0  0
 19 34  1  0  0  0  0
 20 22  2  0  0  0  0
 20 40  1  0  0  0  0
 21 23  2  0  0  0  0
 21 41  1  0  0  0  0
 22 49  1  0  0  0  0
 23 42  1  0  0  0  0
 24 68  1  0  0  0  0
 25 30  2  0  0  0  0
 25 71  1  0  0  0  0
 26 79  1  0  0  0  0
 27 80  1  0  0  0  0
 28 31  2  0  0  0  0
 28 79  1  0  0  0  0
 29 81  1  0  0  0  0
 30 82  1  0  0  0  0
 31 83  1  0  0  0  0
 32 62  2  0  0  0  0
 33 63  1  0  0  0  0
 33 66  1  0  0  0  0
 34 67  1  0  0  0  0
 34 73  2  0  0  0  0
 35 50  1  0  0  0  0
 35 69  1  0  0  0  0
 35 74  2  0  0  0  0
 36 59  1  0  0  0  0
 36 64  1  0  0  0  0
 36 75  2  0  0  0  0
 37 58  1  0  0  0  0
 37 71  1  0  0  0  0
 37 76  2  0  0  0  0
 38 60  1  0  0  0  0
 38 70  1  0  0  0  0
 38 77  2  0  0  0  0
 39 65  1  0  0  0  0
 39 68  1  0  0  0  0
 39 78  2  0  0  0  0
 40 43  1  0  0  0  0
 41 50  1  0  0  0  0
 42 64  1  0  0  0  0
 43 45  1  0  0  0  0
 44 46  1  0  0  0  0
 44 47  1  0  0  0  0
 45 49  1  0  0  0  0
 46 51  1  0  0  0  0
 47 65  1  0  0  0  0
 48 51  1  0  0  0  0
 48 65  1  0  0  0  0
 49 69  1  0  0  0  0
 50 64  1  0  0  0  0
 51 63  1  0  0  0  0
 52 60  1  0  0  0  0
 53 61  1  0  0  0  0
 54 61  1  0  0  0  0
 55 61  1  0  0  0  0
 56 71  1  0  0  0  0
 57 72  1  0  0  0  0
 58 80  1  0  0  0  0
 59 61  1  0  0  0  0
 59 70  1  0  0  0  0
 60 72  1  0  0  0  0
 62 63  1  0  0  0  0
M  CHG  1  72   1
M  ISO  4  39 100  58 101  68 100  80 101
M  END
> <Batch ID>
0012

> <Smiles>
CNC(C)C(=O)NC(C(=O)N1Cc2cc([101O:1][101CH2:1]C(=O)N(C)c3ccc([100NH:0][100C:0](=O)N4CCCC(n5nc(-c6ccc(Oc7ccc(F)cc7F)cc6)c(C(N)=O)c5N)C4)cc3F)ccc2CC1C(=O)NC1CCCc2ccccc21)C(C)(C)C

> <Shape>
0.297

> <Color>
0.120

> <Negative vol penalty>
0.000

$$$$

  -OEChem-04052315473D

 88 96  0     1  0  0  0  0  0999 V2000
  -30.3422  -23.4852   24.0279 C   0  0  0  0  0  0  0  0  0  0  0  0
  -29.0116  -23.4040   23.6300 C   0  0  0  0  0  0  0  0  0  0  0  0
  -28.4571  -27.1792   18.5409 C   0  0  0  0  0  0  0  0  0  0  0  0
  -28.4154  -26.3721   20.8178 C   0  0  0  0  0  0  0  0  0  0  0  0
  -31.2853  -22.6132   23.4855 C   0  0  0  0  0  0  0  0  0  0  0  0
  -28.6235  -22.4514   22.6884 C   0  0  0  0  0  0  0  0  0  0  0  0
  -24.3548  -20.0587   23.9914 C   0  0  0  0  0  0  0  0  0  0  0  0
  -29.7900  -26.7849   18.4255 C   0  0  0  0  0  0  0  0  0  0  0  0
  -29.7484  -25.9777   20.7023 C   0  0  0  0  0  0  0  0  0  0  0  0
  -23.1554  -20.7394   23.7865 C   0  0  0  0  0  0  0  0  0  0  0  0
  -33.0964  -25.6631   17.4132 C   0  0  0  0  0  0  0  0  0  0  0  0
  -33.4747  -24.9877   16.2529 C   0  0  0  0  0  0  0  0  0  0  0  0
  -22.7995  -19.4883   21.7550 C   0  0  0  0  0  0  0  0  0  0  0  0
  -18.7345  -30.7188   22.9975 C   0  0  0  0  0  0  0  0  0  0  0  0
  -16.8880  -29.1670   23.1346 C   0  0  0  0  0  0  0  0  0  0  0  0
  -31.8830  -23.2398   16.7514 C   0  0  0  0  0  0  0  0  0  0  0  0
  -27.7698  -26.9729   19.7371 C   0  0  0  0  0  0  0  0  0  0  0  0
  -25.2503  -26.6123   19.5641 C   0  0  0  0  0  0  0  0  0  0  0  0
  -30.9068  -21.6431   22.5440 C   0  0  0  0  0  0  0  0  0  0  0  0
  -24.7916  -19.0939   23.0723 C   0  0  0  0  0  0  0  0  0  0  0  0
  -29.5627  -21.5666   22.1319 C   0  0  0  0  0  0  0  0  0  0  0  0
  -24.0035  -18.7950   21.9518 C   0  0  0  0  0  0  0  0  0  0  0  0
  -17.3638  -30.4650   22.9491 C   0  0  0  0  0  0  0  0  0  0  0  0
  -19.6294  -29.6747   23.2313 C   0  0  0  0  0  0  0  0  0  0  0  0
  -17.7828  -28.1228   23.3684 C   0  0  0  0  0  0  0  0  0  0  0  0
  -30.4357  -26.1841   19.5062 C   0  0  0  0  0  0  0  0  0  0  0  0
  -22.3790  -20.4563   22.6667 C   0  0  0  0  0  0  0  0  0  0  0  0
  -32.1114  -25.1268   18.2427 C   0  0  0  0  0  0  0  0  0  0  0  0
  -32.8680  -23.7761   15.9220 C   0  0  0  0  0  0  0  0  0  0  0  0
  -31.5047  -23.9152   17.9117 C   0  0  0  0  0  0  0  0  0  0  0  0
  -19.1535  -28.3767   23.4168 C   0  0  0  0  0  0  0  0  0  0  0  0
  -26.3930  -27.3805   19.8571 C   0  0  0  0  0  0  0  0  0  0  0  0
  -24.1952  -27.4467   19.8415 C   0  0  0  0  0  0  0  0  0  0  0  0
  -25.1515  -25.2648   19.0842 C   0  0  0  0  0  0  0  0  0  0  0  0
  -27.3241  -18.7866   21.1761 C   0  0  0  0  0  0  0  0  0  0  0  0
  -26.0491  -15.8604   20.5983 C   0  0  0  0  0  0  0  0  0  0  0  0
  -18.0942  -25.6850   23.1687 C   0  0  0  0  0  0  0  0  0  0  0  0
  -19.5010  -22.7157   23.0901 C   0  0  0  0  0  0  0  0  0  0  0  0
  -23.2824  -13.8629   20.5545 C   0  0  0  0  0  0  0  0  0  0  0  0
  -21.6567  -31.1657   23.1169 C   0  0  0  0  0  0  0  0  0  0  0  0
  -31.9704  -20.7537   21.9505 C   0  0  0  0  0  0  0  0  0  0  0  0
  -26.0746  -18.3495   23.3217 C   0  0  0  0  0  0  0  0  0  0  0  0
  -24.4179  -17.7535   20.9458 C   0  0  0  0  0  0  0  0  0  0  0  0
  -31.4096  -19.5262   21.2371 C   0  0  0  0  0  0  0  0  0  0  0  0
  -24.0930  -32.4085   20.8372 C   0  0  0  0  0  0  0  0  0  0  0  0
  -30.2519  -19.9209   20.3256 C   0  0  0  0  0  0  0  0  0  0  0  0
  -24.8146  -31.1480   20.3549 C   0  0  0  0  0  0  0  0  0  0  0  0
  -23.7092  -32.3128   22.3128 C   0  0  0  0  0  0  0  0  0  0  0  0
  -23.6677  -29.8523   22.1969 C   0  0  0  0  0  0  0  0  0  0  0  0
  -29.0984  -20.5304   21.1314 C   0  0  1  0  0  0  0  0  0  0  0  0
  -26.6756  -17.7529   22.0527 C   0  0  1  0  0  0  0  0  0  0  0  0
  -24.0168  -29.8752   20.6998 C   0  0  2  0  0  0  0  0  0  0  0  0
  -16.4068  -31.5815   22.6993 C   0  0  0  0  0  0  0  0  0  0  0  0
  -22.5465  -11.5287   20.0002 C   0  0  0  0  0  0  0  0  0  0  0  0
  -26.1864  -16.5261   17.6237 C   0  0  0  0  0  0  0  0  0  0  0  0
  -24.6079  -14.6301   17.1977 C   0  0  0  0  0  0  0  0  0  0  0  0
  -26.8482  -14.1843   18.2003 C   0  0  0  0  0  0  0  0  0  0  0  0
  -15.9545  -26.5858   24.1585 C   0  0  0  0  0  0  0  0  0  0  0  0
  -22.3916  -13.3599   23.3317 C   0  0  0  0  0  0  0  0  0  0  0  0
  -17.8731  -24.3924   23.9413 C   0  0  0  0  0  0  0  0  0  0  0  0
  -20.8360  -22.0930   23.4388 C   0  0  0  0  0  0  0  0  0  1  0  0
  -25.0639  -15.3016   19.6002 C   0  0  1  0  0  0  0  0  0  0  0  0
  -23.0413  -12.4640   21.0925 C   0  0  2  0  0  0  0  0  0  0  0  0
  -25.6695  -15.1816   18.1732 C   0  0  0  0  0  0  0  0  0  0  0  0
  -26.0922  -28.6087   20.2875 N   0  0  0  0  0  0  0  0  0  0  0  0
  -24.7485  -28.6185   20.2669 N   0  0  0  0  0  0  0  0  0  0  0  0
  -25.6835  -17.0573   21.2304 N   0  0  0  0  0  0  0  0  0  0  0  0
  -22.9522  -31.0844   22.5638 N   0  0  0  0  0  0  0  0  0  0  0  0
  -22.8574  -27.2851   19.7605 N   0  0  0  0  0  0  0  0  0  0  0  0
  -26.3344  -24.5500   18.8516 N   0  0  0  0  0  0  0  0  0  0  0  0
  -21.0213  -29.9352   23.2802 N   0  0  0  0  0  0  0  0  0  0  0  0
  -28.3399  -19.4909   21.7938 N   0  0  0  0  0  0  0  0  0  0  0  0
  -19.1101  -23.6520   24.0345 N   0  0  0  0  0  0  0  0  0  0  0  0
  -24.5908  -14.0387   20.1568 N   0  0  0  0  0  0  0  0  0  0  0  0
  -17.2855  -26.7753   23.5609 N   0  0  0  0  0  0  0  0  0  0  0  0
  -22.0236  -12.4957   22.1807 N   0  3  0  0  0  0  0  0  0  0  0  0
  -24.0472  -24.7167   18.8523 O   0  0  0  0  0  0  0  0  0  0  0  0
  -26.9329  -18.9333   20.0241 O   0  0  0  0  0  0  0  0  0  0  0  0
  -27.1010  -15.2534   20.8145 O   0  0  0  0  0  0  0  0  0  0  0  0
  -18.9107  -25.7095   22.2441 O   0  0  0  0  0  0  0  0  0  0  0  0
  -18.8656  -22.4063   22.0859 O   0  0  0  0  0  0  0  0  0  0  0  0
  -22.3974  -14.7133   20.4899 O   0  0  0  0  0  0  0  0  0  0  0  0
  -21.1378  -32.2491   23.3978 O   0  0  0  0  0  0  0  0  0  0  0  0
  -31.7363  -25.7990   19.3938 O   0  0  0  0  0  0  0  0  0  0  0  0
  -21.2082  -21.1196   22.4640 O   0  0  0  0  0  0  0  0  0  1  0  0
  -33.2303  -23.1284   14.8069 F   0  0  0  0  0  0  0  0  0  0  0  0
  -30.5569  -23.3957   18.7040 F   0  0  0  0  0  0  0  0  0  0  0  0
  -20.0144  -27.3721   23.6410 F   0  0  0  0  0  0  0  0  0  0  0  0
  1  2  1  0  0  0  0
  1  5  2  0  0  0  0
  2  6  2  0  0  0  0
  3  8  2  0  0  0  0
  3 17  1  0  0  0  0
  4  9  1  0  0  0  0
  4 17  2  0  0  0  0
  5 19  1  0  0  0  0
  6 21  1  0  0  0  0
  7 10  2  0  0  0  0
  7 20  1  0  0  0  0
  8 26  1  0  0  0  0
  9 26  2  0  0  0  0
 10 27  1  0  0  0  0
 11 12  2  0  0  0  0
 11 28  1  0  0  0  0
 12 29  1  0  0  0  0
 13 22  1  0  0  0  0
 13 27  2  0  0  0  0
 14 23  1  0  0  0  0
 14 24  2  0  0  0  0
 15 23  2  0  0  0  0
 15 25  1  0  0  0  0
 16 29  2  0  0  0  0
 16 30  1  0  0  0  0
 17 32  1  0  0  0  0
 18 32  1  0  0  0  0
 18 33  2  0  0  0  0
 18 34  1  0  0  0  0
 19 21  2  0  0  0  0
 19 41  1  0  0  0  0
 20 22  2  0  0  0  0
 20 42  1  0  0  0  0
 21 50  1  0  0  0  0
 22 43  1  0  0  0  0
 23 53  1  0  0  0  0
 24 31  1  0  0  0  0
 24 71  1  0  0  0  0
 25 31  2  0  0  0  0
 25 75  1  0  0  0  0
 26 84  1  0  0  0  0
 27 85  1  0  0  0  0
 28 30  2  0  0  0  0
 28 84  1  0  0  0  0
 29 86  1  0  0  0  0
 30 87  1  0  0  0  0
 31 88  1  0  0  0  0
 32 65  2  0  0  0  0
 33 66  1  0  0  0  0
 33 69  1  0  0  0  0
 34 70  1  0  0  0  0
 34 77  2  0  0  0  0
 35 51  1  0  0  0  0
 35 72  1  0  0  0  0
 35 78  2  0  0  0  0
 36 62  1  0  0  0  0
 36 67  1  0  0  0  0
 36 79  2  0  0  0  0
 37 60  1  0  0  0  0
 37 75  1  0  0  0  0
 37 80  2  0  0  0  0
 38 61  1  0  0  0  0
 38 73  1  0  0  0  0
 38 81  2  0  0  0  0
 39 63  1  0  0  0  0
 39 74  1  0  0  0  0
 39 82  2  0  0  0  0
 40 68  1  0  0  0  0
 40 71  1  0  0  0  0
 40 83  2  0  0  0  0
 41 44  1  0  0  0  0
 42 51  1  0  0  0  0
 43 67  1  0  0  0  0
 44 46  1  0  0  0  0
 45 47  1  0  0  0  0
 45 48  1  0  0  0  0
 46 50  1  0  0  0  0
 47 52  1  0  0  0  0
 48 68  1  0  0  0  0
 49 52  1  0  0  0  0
 49 68  1  0  0  0  0
 50 72  1  0  0  0  0
 51 67  1  0  0  0  0
 52 66  1  0  0  0  0
 54 63  1  0  0  0  0
 55 64  1  0  0  0  0
 56 64  1  0  0  0  0
 57 64  1  0  0  0  0
 58 75  1  0  0  0  0
 59 76  1  0  0  0  0
 60 73  1  0  0  0  0
 61 85  1  0  0  0  0
 62 64  1  0  0  0  0
 62 74  1  0  0  0  0
 63 76  1  0  0  0  0
 65 66  1  0  0  0  0
M  CHG  1  76   1
M  ISO  4  40 100  61 101  71 100  85 101
M  END
> <Batch ID>
0012

> <Smiles>
CNC(C)C(=O)NC(C(=O)N1Cc2cc([101O:1][101CH2:1]C(=O)NCC(=O)N(C)c3cc(C)cc([100NH:0][100C:0](=O)N4CCCC(n5nc(-c6ccc(Oc7ccc(F)cc7F)cc6)c(C(N)=O)c5N)C4)c3F)ccc2CC1C(=O)NC1CCCc2ccccc21)C(C)(C)C

> <Shape>
0.233

> <Color>
0.075

> <Negative vol penalty>
0.000

$$$$

  -OEChem-04052315473D

 85 93  0     1  0  0  0  0  0999 V2000
  -19.8515  -12.6441   18.5370 C   0  0  0  0  0  0  0  0  0  0  0  0
  -20.3161  -13.9194   18.2319 C   0  0  0  0  0  0  0  0  0  0  0  0
  -20.0623  -28.5438   23.0153 C   0  0  0  0  0  0  0  0  0  0  0  0
  -21.0037  -26.3188   23.0100 C   0  0  0  0  0  0  0  0  0  0  0  0
  -20.4873  -11.8890   19.5216 C   0  0  0  0  0  0  0  0  0  0  0  0
  -21.4161  -14.4408   18.9119 C   0  0  0  0  0  0  0  0  0  0  0  0
  -27.0520  -18.7538   17.9364 C   0  0  0  0  0  0  0  0  0  0  0  0
  -18.8680  -28.0398   22.5004 C   0  0  0  0  0  0  0  0  0  0  0  0
  -19.8093  -25.8147   22.4951 C   0  0  0  0  0  0  0  0  0  0  0  0
  -27.6665  -19.8684   18.5054 C   0  0  0  0  0  0  0  0  0  0  0  0
  -16.1492  -26.4003   23.6636 C   0  0  0  0  0  0  0  0  0  0  0  0
  -14.9577  -26.8414   24.2392 C   0  0  0  0  0  0  0  0  0  0  0  0
  -28.7342  -18.4421   20.1316 C   0  0  0  0  0  0  0  0  0  0  0  0
  -30.3647  -24.2395   19.4788 C   0  0  0  0  0  0  0  0  0  0  0  0
  -14.2540  -27.7265   22.1042 C   0  0  0  0  0  0  0  0  0  0  0  0
  -21.1302  -27.6833   23.2701 C   0  0  0  0  0  0  0  0  0  0  0  0
  -22.7121  -28.3472   25.1580 C   0  0  0  0  0  0  0  0  0  0  0  0
  -21.6016  -12.3975   20.2074 C   0  0  0  0  0  0  0  0  0  0  0  0
  -27.2657  -17.4741   18.4684 C   0  0  0  0  0  0  0  0  0  0  0  0
  -22.0666  -13.6923   19.9076 C   0  0  0  0  0  0  0  0  0  0  0  0
  -28.1232  -17.3125   19.5660 C   0  0  0  0  0  0  0  0  0  0  0  0
  -30.0223  -24.1255   20.8261 C   0  0  0  0  0  0  0  0  0  0  0  0
  -29.0074  -26.3168   20.7537 C   0  0  0  0  0  0  0  0  0  0  0  0
  -18.7415  -26.6752   22.2403 C   0  0  0  0  0  0  0  0  0  0  0  0
  -28.5054  -19.7130   19.6049 C   0  0  0  0  0  0  0  0  0  0  0  0
  -16.3931  -26.6223   22.3082 C   0  0  0  0  0  0  0  0  0  0  0  0
  -14.0101  -27.5045   23.4595 C   0  0  0  0  0  0  0  0  0  0  0  0
  -30.0286  -25.3922   18.7689 C   0  0  0  0  0  0  0  0  0  0  0  0
  -15.4455  -27.2854   21.5286 C   0  0  0  0  0  0  0  0  0  0  0  0
  -29.3436  -25.1641   21.4636 C   0  0  0  0  0  0  0  0  0  0  0  0
  -29.3499  -26.4309   19.4063 C   0  0  0  0  0  0  0  0  0  0  0  0
  -22.3643  -28.2035   23.8015 C   0  0  0  0  0  0  0  0  0  0  0  0
  -23.9772  -28.8816   25.1334 C   0  0  0  0  0  0  0  0  0  0  0  0
  -21.9591  -28.0263   26.3352 C   0  0  0  0  0  0  0  0  0  0  0  0
  -25.4121  -15.2565   19.7914 C   0  0  0  0  0  0  0  0  0  0  0  0
  -28.1318  -13.4905   19.7089 C   0  0  0  0  0  0  0  0  0  0  0  0
  -31.5425  -13.4260   19.6100 C   0  0  0  0  0  0  0  0  0  0  0  0
  -28.3933  -28.7338   21.1108 C   0  0  0  0  0  0  0  0  0  0  0  0
  -22.2267  -11.5626   21.2968 C   0  0  0  0  0  0  0  0  0  0  0  0
  -26.6165  -16.2787   17.8265 C   0  0  0  0  0  0  0  0  0  0  0  0
  -28.4016  -15.9577   20.1622 C   0  0  0  0  0  0  0  0  0  0  0  0
  -23.6165  -12.0409   21.7091 C   0  0  0  0  0  0  0  0  0  0  0  0
  -26.8261  -31.6383   22.4467 C   0  0  0  0  0  0  0  0  0  0  0  0
  -23.6234  -13.5532   21.9083 C   0  0  0  0  0  0  0  0  0  0  0  0
  -25.5387  -31.0993   23.0745 C   0  0  0  0  0  0  0  0  0  0  0  0
  -27.1793  -30.9015   21.1559 C   0  0  0  0  0  0  0  0  0  0  0  0
  -25.9510  -28.8999   21.9000 C   0  0  0  0  0  0  0  0  0  0  0  0
  -23.2722  -14.2828   20.6060 C   0  0  1  0  0  0  0  0  0  0  0  0
  -26.4994  -15.0845   18.7687 C   0  0  1  0  0  0  0  0  0  0  0  0
  -25.5893  -29.5675   23.2369 C   0  0  2  0  0  0  0  0  0  0  0  0
  -33.4829  -11.8349   19.5898 C   0  0  0  0  0  0  0  0  0  0  0  0
  -29.5982  -22.1113   23.6634 C   0  0  0  0  0  0  0  0  0  0  0  0
  -27.7456  -12.9855   22.6932 C   0  0  0  0  0  0  0  0  0  0  0  0
  -30.1310  -12.2331   22.8035 C   0  0  0  0  0  0  0  0  0  0  0  0
  -28.4974  -10.9902   21.3862 C   0  0  0  0  0  0  0  0  0  0  0  0
  -31.7599  -22.5681   21.6720 C   0  0  0  0  0  0  0  0  0  0  0  0
  -32.4660  -14.4035   16.9736 C   0  0  0  0  0  0  0  0  0  0  0  0
  -29.3816  -20.7424   21.5616 C   0  0  0  0  0  0  0  0  0  1  0  0
  -29.2941  -13.2730   20.6473 C   0  0  1  0  0  0  0  0  0  0  0  0
  -32.5104  -12.6412   18.7431 C   0  0  2  0  0  0  0  0  0  0  0  0
  -29.3453  -22.1462   22.1619 C   0  0  2  0  0  0  0  0  0  0  0  0
  -28.9105  -12.3963   21.8727 C   0  0  0  0  0  0  0  0  0  0  0  0
  -23.3303  -28.6136   22.9753 N   0  0  0  0  0  0  0  0  0  0  0  0
  -24.2976  -29.0204   23.8149 N   0  0  0  0  0  0  0  0  0  0  0  0
  -27.7384  -14.8204   19.5031 N   0  0  0  0  0  0  0  0  0  0  0  0
  -27.2130  -29.4558   21.3872 N   0  0  0  0  0  0  0  0  0  0  0  0
  -24.8356  -29.2417   26.1111 N   0  0  0  0  0  0  0  0  0  0  0  0
  -20.6758  -27.4845   26.1803 N   0  0  0  0  0  0  0  0  0  0  0  0
  -28.3173  -27.3718   21.4005 N   0  0  0  0  0  0  0  0  0  0  0  0
  -24.4130  -14.3049   19.7157 N   0  0  0  0  0  0  0  0  0  0  0  0
  -30.3765  -12.7257   19.8365 N   0  0  0  0  0  0  0  0  0  0  0  0
  -30.3612  -22.9681   21.5354 N   0  0  3  0  0  0  0  0  0  0  0  0
  -33.2958  -13.5650   17.8766 N   0  3  0  0  0  0  0  0  0  0  0  0
  -22.4044  -28.2296   27.4901 O   0  0  0  0  0  0  0  0  0  0  0  0
  -25.4757  -16.1830   20.5909 O   0  0  0  0  0  0  0  0  0  0  0  0
  -27.5973  -12.5167   19.1725 O   0  0  0  0  0  0  0  0  0  0  0  0
  -31.7969  -14.5466   20.0460 O   0  0  0  0  0  0  0  0  0  0  0  0
  -29.4064  -29.2880   20.6766 O   0  0  0  0  0  0  0  0  0  0  0  0
  -17.5761  -26.1830   21.7381 O   0  0  0  0  0  0  0  0  0  0  0  0
  -29.1060  -20.7994   20.1626 O   0  0  0  0  0  0  0  0  0  1  0  0
  -12.8653  -27.9268   24.0121 F   0  0  0  0  0  0  0  0  0  0  0  0
  -30.3571  -25.5020   17.4750 F   0  0  0  0  0  0  0  0  0  0  0  0
  -15.6737  -27.5006   20.2257 F   0  0  0  0  0  0  0  0  0  0  0  0
  -29.0135  -25.0540   22.7595 F   0  0  0  0  0  0  0  0  0  0  0  0
  -29.0308  -27.5336   18.7136 F   0  0  0  0  0  0  0  0  0  0  0  0
  1  2  1  0  0  0  0
  1  5  2  0  0  0  0
  2  6  2  0  0  0  0
  3  8  2  0  0  0  0
  3 16  1  0  0  0  0
  4  9  1  0  0  0  0
  4 16  2  0  0  0  0
  5 18  1  0  0  0  0
  6 20  1  0  0  0  0
  7 10  2  0  0  0  0
  7 19  1  0  0  0  0
  8 24  1  0  0  0  0
  9 24  2  0  0  0  0
 10 25  1  0  0  0  0
 11 12  2  0  0  0  0
 11 26  1  0  0  0  0
 12 27  1  0  0  0  0
 13 21  1  0  0  0  0
 13 25  2  0  0  0  0
 14 22  1  0  0  0  0
 14 28  2  0  0  0  0
 15 27  2  0  0  0  0
 15 29  1  0  0  0  0
 16 32  1  0  0  0  0
 17 32  1  0  0  0  0
 17 33  2  0  0  0  0
 17 34  1  0  0  0  0
 18 20  2  0  0  0  0
 18 39  1  0  0  0  0
 19 21  2  0  0  0  0
 19 40  1  0  0  0  0
 20 48  1  0  0  0  0
 21 41  1  0  0  0  0
 22 30  2  0  0  0  0
 22 72  1  0  0  0  0
 23 30  1  0  0  0  0
 23 31  2  0  0  0  0
 23 69  1  0  0  0  0
 24 79  1  0  0  0  0
 25 80  1  0  0  0  0
 26 29  2  0  0  0  0
 26 79  1  0  0  0  0
 27 81  1  0  0  0  0
 28 31  1  0  0  0  0
 28 82  1  0  0  0  0
 29 83  1  0  0  0  0
 30 84  1  0  0  0  0
 31 85  1  0  0  0  0
 32 63  2  0  0  0  0
 33 64  1  0  0  0  0
 33 67  1  0  0  0  0
 34 68  1  0  0  0  0
 34 74  2  0  0  0  0
 35 49  1  0  0  0  0
 35 70  1  0  0  0  0
 35 75  2  0  0  0  0
 36 59  1  0  0  0  0
 36 65  1  0  0  0  0
 36 76  2  0  0  0  0
 37 60  1  0  0  0  0
 37 71  1  0  0  0  0
 37 77  2  0  0  0  0
 38 66  1  0  0  0  0
 38 69  1  0  0  0  0
 38 78  2  0  0  0  0
 39 42  1  0  0  0  0
 40 49  1  0  0  0  0
 41 65  1  0  0  0  0
 42 44  1  0  0  0  0
 43 45  1  0  0  0  0
 43 46  1  0  0  0  0
 44 48  1  0  0  0  0
 45 50  1  0  0  0  0
 46 66  1  0  0  0  0
 47 50  1  0  0  0  0
 47 66  1  0  0  0  0
 48 70  1  0  0  0  0
 49 65  1  0  0  0  0
 50 64  1  0  0  0  0
 51 60  1  0  0  0  0
 52 61  1  0  0  0  0
 53 62  1  0  0  0  0
 54 62  1  0  0  0  0
 55 62  1  0  0  0  0
 56 72  1  0  0  0  0
 57 73  1  0  0  0  0
 58 61  1  0  0  0  0
 58 80  1  0  0  0  0
 59 62  1  0  0  0  0
 59 71  1  0  0  0  0
 60 73  1  0  0  0  0
 61 72  1  0  0  0  0
 63 64  1  0  0  0  0
M  CHG  1  73   1
M  ISO  4  38 100  58 101  69 100  80 101
M  END
> <Batch ID>
0012

> <Smiles>
CNC(C)C(=O)NC(C(=O)N1Cc2cc([101O:1][101CH2:1]C(C)N(C)c3cc(F)c(F)c([100NH:0][100C:0](=O)N4CCCC(n5nc(-c6ccc(Oc7ccc(F)cc7F)cc6)c(C(N)=O)c5N)C4)c3F)ccc2CC1C(=O)NC1CCCc2ccccc21)C(C)(C)C

> <Shape>
0.282

> <Color>
0.073

> <Negative vol penalty>
0.000

$$$$

  -OEChem-04052315473D

 87 95  0     1  0  0  0  0  0999 V2000
  -18.3439  -25.5239   20.9873 C   0  0  0  0  0  0  0  0  0  0  0  0
  -19.6738  -25.5793   20.5826 C   0  0  0  0  0  0  0  0  0  0  0  0
  -24.4204  -12.5093   19.5100 C   0  0  0  0  0  0  0  0  0  0  0  0
  -25.6935  -13.1140   21.4723 C   0  0  0  0  0  0  0  0  0  0  0  0
  -17.6743  -26.6949   21.3398 C   0  0  0  0  0  0  0  0  0  0  0  0
  -20.3345  -26.8061   20.5291 C   0  0  0  0  0  0  0  0  0  0  0  0
  -24.9803  -26.5995   22.5337 C   0  0  0  0  0  0  0  0  0  0  0  0
  -30.0648  -22.2766   22.6690 C   0  0  0  0  0  0  0  0  0  0  0  0
  -25.0924  -11.2885   19.4501 C   0  0  0  0  0  0  0  0  0  0  0  0
  -26.3655  -11.8931   21.4124 C   0  0  0  0  0  0  0  0  0  0  0  0
  -25.9861  -26.0319   21.7527 C   0  0  0  0  0  0  0  0  0  0  0  0
  -26.2175   -7.8622   18.9926 C   0  0  0  0  0  0  0  0  0  0  0  0
  -29.3212  -21.3113   23.3476 C   0  0  0  0  0  0  0  0  0  0  0  0
  -25.4587   -6.7148   18.7620 C   0  0  0  0  0  0  0  0  0  0  0  0
  -26.7490  -28.2376   21.1427 C   0  0  0  0  0  0  0  0  0  0  0  0
  -28.5525  -22.1216   20.7912 C   0  0  0  0  0  0  0  0  0  0  0  0
  -24.1987   -7.1428   20.7785 C   0  0  0  0  0  0  0  0  0  0  0  0
  -24.7209  -13.4221   20.5210 C   0  0  0  0  0  0  0  0  0  0  0  0
  -22.8323  -14.9637   21.2723 C   0  0  0  0  0  0  0  0  0  0  0  0
  -18.3300  -27.9355   21.2998 C   0  0  0  0  0  0  0  0  0  0  0  0
  -24.8443  -27.9927   22.6165 C   0  0  0  0  0  0  0  0  0  0  0  0
  -19.6726  -27.9950   20.8801 C   0  0  0  0  0  0  0  0  0  0  0  0
  -25.7422  -28.8204   21.9275 C   0  0  0  0  0  0  0  0  0  0  0  0
  -29.6804  -22.6819   21.3908 C   0  0  0  0  0  0  0  0  0  0  0  0
  -27.8089  -21.1562   21.4699 C   0  0  0  0  0  0  0  0  0  0  0  0
  -26.0650  -10.9804   20.4013 C   0  0  0  0  0  0  0  0  0  0  0  0
  -26.8689  -26.8509   21.0547 C   0  0  0  0  0  0  0  0  0  0  0  0
  -25.9670   -8.6499   20.1162 C   0  0  0  0  0  0  0  0  0  0  0  0
  -24.4493   -6.3551   19.6549 C   0  0  0  0  0  0  0  0  0  0  0  0
  -28.1932  -20.7510   22.7481 C   0  0  0  0  0  0  0  0  0  0  0  0
  -24.9576   -8.2902   21.0091 C   0  0  0  0  0  0  0  0  0  0  0  0
  -24.0274  -14.6836   20.5831 C   0  0  0  0  0  0  0  0  0  0  0  0
  -22.5932  -16.2923   21.0191 C   0  0  0  0  0  0  0  0  0  0  0  0
  -22.0118  -14.1001   22.0702 C   0  0  0  0  0  0  0  0  0  0  0  0
  -22.5727  -30.0750   21.8372 C   0  0  0  0  0  0  0  0  0  0  0  0
  -24.5549  -32.1898   23.2935 C   0  0  0  0  0  0  0  0  0  0  0  0
  -29.8234  -24.8873   20.3001 C   0  0  0  0  0  0  0  0  0  0  0  0
  -27.7244  -32.9854   24.2774 C   0  0  0  0  0  0  0  0  0  0  0  0
  -26.1468  -20.8808   19.5969 C   0  0  0  0  0  0  0  0  0  0  0  0
  -17.5508  -29.1799   21.6448 C   0  0  0  0  0  0  0  0  0  0  0  0
  -23.7707  -28.5896   23.4846 C   0  0  0  0  0  0  0  0  0  0  0  0
  -25.6515  -30.3221   21.9994 C   0  0  0  0  0  0  0  0  0  0  0  0
  -18.4335  -30.3945   21.9201 C   0  0  0  0  0  0  0  0  0  0  0  0
  -23.3720  -19.6749   17.7197 C   0  0  0  0  0  0  0  0  0  0  0  0
  -19.5079  -30.5282   20.8455 C   0  0  0  0  0  0  0  0  0  0  0  0
  -23.1126  -18.2860   18.3078 C   0  0  0  0  0  0  0  0  0  0  0  0
  -24.8644  -19.9962   17.6610 C   0  0  0  0  0  0  0  0  0  0  0  0
  -25.3255  -18.4447   19.5182 C   0  0  0  0  0  0  0  0  0  0  0  0
  -20.4309  -29.3038   20.8328 C   0  0  1  0  0  0  0  0  0  0  0  0
  -23.4050  -30.0162   23.0868 C   0  0  1  0  0  0  0  0  0  0  0  0
  -23.8332  -18.1020   19.6578 C   0  0  2  0  0  0  0  0  0  0  0  0
  -29.0385  -34.7978   25.4113 C   0  0  0  0  0  0  0  0  0  0  0  0
  -33.6206  -22.4629   18.8263 C   0  0  0  0  0  0  0  0  0  0  0  0
  -31.3568  -21.3856   18.9585 C   0  0  0  0  0  0  0  0  0  0  0  0
  -31.6110  -23.6435   17.9177 C   0  0  0  0  0  0  0  0  0  0  0  0
  -24.4233  -33.8724   20.7515 C   0  0  0  0  0  0  0  0  0  0  0  0
  -26.4388  -35.1205   21.5566 C   0  0  0  0  0  0  0  0  0  0  0  0
  -24.3239  -35.1852   22.8778 C   0  0  0  0  0  0  0  0  0  0  0  0
  -28.5564  -31.1736   26.4646 C   0  0  0  0  0  0  0  0  0  0  0  0
  -28.3645  -25.0348   20.7074 C   0  0  0  0  0  0  0  0  0  1  0  0
  -31.8702  -23.4183   20.3945 C   0  0  0  0  0  0  0  0  0  0  0  0
  -25.7005  -33.0648   22.8450 C   0  0  1  0  0  0  0  0  0  0  0  0
  -28.2704  -33.4985   25.5976 C   0  0  2  0  0  0  0  0  0  0  0  0
  -32.1192  -22.7190   19.0396 C   0  0  0  0  0  0  0  0  0  0  0  0
  -25.2224  -34.2824   22.0046 C   0  0  0  0  0  0  0  0  0  0  0  0
  -24.5136  -15.7486   19.9401 N   0  0  0  0  0  0  0  0  0  0  0  0
  -23.6195  -16.7108   20.2242 N   0  0  0  0  0  0  0  0  0  0  0  0
  -24.5810  -30.8578   22.8565 N   0  0  0  0  0  0  0  0  0  0  0  0
  -25.4794  -19.8038   18.9761 N   0  0  0  0  0  0  0  0  0  0  0  0
  -21.6073  -17.1316   21.4010 N   0  0  0  0  0  0  0  0  0  0  0  0
  -22.4034  -12.7636   22.2271 N   0  0  0  0  0  0  0  0  0  0  0  0
  -26.6632  -20.5887   20.8589 N   0  0  0  0  0  0  0  0  0  0  0  0
  -21.3829  -29.3772   21.9204 N   0  0  0  0  0  0  0  0  0  0  0  0
  -26.4367  -33.4240   24.0522 N   0  0  0  0  0  0  0  0  0  0  0  0
  -30.4532  -23.6847   20.6860 N   0  0  0  0  0  0  0  0  0  0  0  0
  -29.1877  -32.4931   26.2046 N   0  3  0  0  0  0  0  0  0  0  0  0
  -20.9536  -14.4977   22.6141 O   0  0  0  0  0  0  0  0  0  0  0  0
  -22.9791  -30.7079   20.8697 O   0  0  0  0  0  0  0  0  0  0  0  0
  -23.6733  -32.6686   24.0112 O   0  0  0  0  0  0  0  0  0  0  0  0
  -30.3682  -25.8158   19.6978 O   0  0  0  0  0  0  0  0  0  0  0  0
  -28.3765  -32.2704   23.5197 O   0  0  0  0  0  0  0  0  0  0  0  0
  -26.2288  -21.9890   19.0610 O   0  0  0  0  0  0  0  0  0  0  0  0
  -26.7208   -9.7892   20.3433 O   0  0  0  0  0  0  0  0  0  0  0  0
  -27.8511  -26.2995   20.2912 O   0  0  0  0  0  0  0  0  0  1  0  0
  -23.7196   -5.2541   19.4325 F   0  0  0  0  0  0  0  0  0  0  0  0
  -27.4865  -19.8238   23.4098 F   0  0  0  0  0  0  0  0  0  0  0  0
  -24.7115   -9.0436   22.0897 F   0  0  0  0  0  0  0  0  0  0  0  0
  1  2  1  0  0  0  0
  1  5  2  0  0  0  0
  2  6  2  0  0  0  0
  3  9  2  0  0  0  0
  3 18  1  0  0  0  0
  4 10  1  0  0  0  0
  4 18  2  0  0  0  0
  5 20  1  0  0  0  0
  6 22  1  0  0  0  0
  7 11  2  0  0  0  0
  7 21  1  0  0  0  0
  8 13  2  0  0  0  0
  8 24  1  0  0  0  0
  9 26  1  0  0  0  0
 10 26  2  0  0  0  0
 11 27  1  0  0  0  0
 12 14  2  0  0  0  0
 12 28  1  0  0  0  0
 13 30  1  0  0  0  0
 14 29  1  0  0  0  0
 15 23  1  0  0  0  0
 15 27  2  0  0  0  0
 16 24  2  0  0  0  0
 16 25  1  0  0  0  0
 17 29  2  0  0  0  0
 17 31  1  0  0  0  0
 18 32  1  0  0  0  0
 19 32  1  0  0  0  0
 19 33  2  0  0  0  0
 19 34  1  0  0  0  0
 20 22  2  0  0  0  0
 20 40  1  0  0  0  0
 21 23  2  0  0  0  0
 21 41  1  0  0  0  0
 22 49  1  0  0  0  0
 23 42  1  0  0  0  0
 24 75  1  0  0  0  0
 25 30  2  0  0  0  0
 25 72  1  0  0  0  0
 26 83  1  0  0  0  0
 27 84  1  0  0  0  0
 28 31  2  0  0  0  0
 28 83  1  0  0  0  0
 29 85  1  0  0  0  0
 30 86  1  0  0  0  0
 31 87  1  0  0  0  0
 32 66  2  0  0  0  0
 33 67  1  0  0  0  0
 33 70  1  0  0  0  0
 34 71  1  0  0  0  0
 34 77  2  0  0  0  0
 35 50  1  0  0  0  0
 35 73  1  0  0  0  0
 35 78  2  0  0  0  0
 36 62  1  0  0  0  0
 36 68  1  0  0  0  0
 36 79  2  0  0  0  0
 37 60  1  0  0  0  0
 37 75  1  0  0  0  0
 37 80  2  0  0  0  0
 38 63  1  0  0  0  0
 38 74  1  0  0  0  0
 38 81  2  0  0  0  0
 39 69  1  0  0  0  0
 39 72  1  0  0  0  0
 39 82  2  0  0  0  0
 40 43  1  0  0  0  0
 41 50  1  0  0  0  0
 42 68  1  0  0  0  0
 43 45  1  0  0  0  0
 44 46  1  0  0  0  0
 44 47  1  0  0  0  0
 45 49  1  0  0  0  0
 46 51  1  0  0  0  0
 47 69  1  0  0  0  0
 48 51  1  0  0  0  0
 48 69  1  0  0  0  0
 49 73  1  0  0  0  0
 50 68  1  0  0  0  0
 51 67  1  0  0  0  0
 52 63  1  0  0  0  0
 53 64  1  0  0  0  0
 54 64  1  0  0  0  0
 55 64  1  0  0  0  0
 56 65  1  0  0  0  0
 57 65  1  0  0  0  0
 58 65  1  0  0  0  0
 59 76  1  0  0  0  0
 60 84  1  0  0  0  0
 61 64  1  0  0  0  0
 61 75  1  0  0  0  0
 62 65  1  0  0  0  0
 62 74  1  0  0  0  0
 63 76  1  0  0  0  0
 66 67  1  0  0  0  0
M  CHG  1  76   1
M  ISO  4  39 100  60 101  72 100  84 101
M  END
> <Batch ID>
0012

> <Smiles>
CNC(C)C(=O)NC(C(=O)N1Cc2cc([101O:1][101CH2:1]C(=O)N(CC(C)(C)C)c3ccc(F)c([100NH:0][100C:0](=O)N4CCCC(n5nc(-c6ccc(Oc7ccc(F)cc7F)cc6)c(C(N)=O)c5N)C4)c3)ccc2CC1C(=O)NC1CCCc2ccccc21)C(C)(C)C

> <Shape>
0.236

> <Color>
0.100

> <Negative vol penalty>
0.000

$$$$

  -OEChem-04052315473D

 84 92  0     1  0  0  0  0  0999 V2000
  -28.7636  -36.9972   23.5044 C   0  0  0  0  0  0  0  0  0  0  0  0
  -29.1618  -35.7388   23.0649 C   0  0  0  0  0  0  0  0  0  0  0  0
  -24.0358   -9.2236   21.0694 C   0  0  0  0  0  0  0  0  0  0  0  0
  -25.8189   -9.5728   22.6617 C   0  0  0  0  0  0  0  0  0  0  0  0
  -27.5341  -37.1546   24.1427 C   0  0  0  0  0  0  0  0  0  0  0  0
  -28.3311  -34.6367   23.2644 C   0  0  0  0  0  0  0  0  0  0  0  0
  -27.6415  -29.8241   19.5403 C   0  0  0  0  0  0  0  0  0  0  0  0
  -23.9153   -7.9005   21.4944 C   0  0  0  0  0  0  0  0  0  0  0  0
  -25.6984   -8.2497   23.0868 C   0  0  0  0  0  0  0  0  0  0  0  0
  -28.1909  -28.5428   19.5518 C   0  0  0  0  0  0  0  0  0  0  0  0
  -22.5303   -6.2345   24.0903 C   0  0  0  0  0  0  0  0  0  0  0  0
  -21.2454   -5.7402   24.3148 C   0  0  0  0  0  0  0  0  0  0  0  0
  -26.2273  -27.7175   20.6842 C   0  0  0  0  0  0  0  0  0  0  0  0
  -28.7369  -20.7954   19.4966 C   0  0  0  0  0  0  0  0  0  0  0  0
  -29.9388  -20.1054   21.4757 C   0  0  0  0  0  0  0  0  0  0  0  0
  -21.6068   -4.0393   22.6374 C   0  0  0  0  0  0  0  0  0  0  0  0
  -24.9876  -10.0597   21.6530 C   0  0  0  0  0  0  0  0  0  0  0  0
  -24.4359  -12.5492   21.7262 C   0  0  0  0  0  0  0  0  0  0  0  0
  -26.6837  -36.0556   24.3416 C   0  0  0  0  0  0  0  0  0  0  0  0
  -26.3834  -30.0642   20.1113 C   0  0  0  0  0  0  0  0  0  0  0  0
  -27.0897  -34.7793   23.9072 C   0  0  0  0  0  0  0  0  0  0  0  0
  -25.6630  -29.0022   20.6763 C   0  0  0  0  0  0  0  0  0  0  0  0
  -28.4772  -19.4600   19.1888 C   0  0  0  0  0  0  0  0  0  0  0  0
  -29.6790  -18.7700   21.1678 C   0  0  0  0  0  0  0  0  0  0  0  0
  -29.4678  -21.1181   20.6401 C   0  0  0  0  0  0  0  0  0  0  0  0
  -28.9482  -18.4473   20.0243 C   0  0  0  0  0  0  0  0  0  0  0  0
  -24.7465   -7.4136   22.5031 C   0  0  0  0  0  0  0  0  0  0  0  0
  -27.4851  -27.4898   20.1264 C   0  0  0  0  0  0  0  0  0  0  0  0
  -23.3534   -5.6313   23.1394 C   0  0  0  0  0  0  0  0  0  0  0  0
  -20.7837   -4.6426   23.5883 C   0  0  0  0  0  0  0  0  0  0  0  0
  -22.8917   -4.5337   22.4129 C   0  0  0  0  0  0  0  0  0  0  0  0
  -25.1130  -11.4263   21.2140 C   0  0  0  0  0  0  0  0  0  0  0  0
  -24.9005  -13.6019   20.9763 C   0  0  0  0  0  0  0  0  0  0  0  0
  -23.4730  -12.6333   22.7852 C   0  0  0  0  0  0  0  0  0  0  0  0
  -25.3130  -31.8574   22.5076 C   0  0  0  0  0  0  0  0  0  0  0  0
  -22.4144  -30.8733   21.4343 C   0  0  0  0  0  0  0  0  0  0  0  0
  -29.3417  -23.6008   20.2349 C   0  0  0  0  0  0  0  0  0  0  0  0
  -20.5939  -28.5414   19.7328 C   0  0  0  0  0  0  0  0  0  0  0  0
  -29.0665  -16.3988   18.5627 C   0  0  0  0  0  0  0  0  0  0  0  0
  -25.3850  -36.2667   25.0788 C   0  0  0  0  0  0  0  0  0  0  0  0
  -25.7929  -31.4469   20.0669 C   0  0  0  0  0  0  0  0  0  0  0  0
  -24.2998  -29.2035   21.2843 C   0  0  0  0  0  0  0  0  0  0  0  0
  -24.3983  -35.1132   24.9170 C   0  0  0  0  0  0  0  0  0  0  0  0
  -27.6893  -13.6597   16.7524 C   0  0  0  0  0  0  0  0  0  0  0  0
  -25.1015  -33.7758   25.1262 C   0  0  0  0  0  0  0  0  0  0  0  0
  -26.8406  -12.9268   17.7939 C   0  0  0  0  0  0  0  0  0  0  0  0
  -28.9708  -14.2256   17.3616 C   0  0  0  0  0  0  0  0  0  0  0  0
  -27.9261  -14.3349   19.5899 C   0  0  0  0  0  0  0  0  0  0  0  0
  -26.2054  -33.5639   24.0832 C   0  0  1  0  0  0  0  0  0  0  0  0
  -24.7284  -31.6766   21.1353 C   0  0  1  0  0  0  0  0  0  0  0  0
  -26.5935  -13.8033   19.0374 C   0  0  2  0  0  0  0  0  0  0  0  0
  -27.6925  -19.1455   17.9562 C   0  0  0  0  0  0  0  0  0  0  0  0
  -30.1963  -17.7069   22.0824 C   0  0  0  0  0  0  0  0  0  0  0  0
  -18.2415  -27.9891   19.0556 C   0  0  0  0  0  0  0  0  0  0  0  0
  -21.8171  -29.9420   24.2779 C   0  0  0  0  0  0  0  0  0  0  0  0
  -19.9245  -28.5836   23.3609 C   0  0  0  0  0  0  0  0  0  0  0  0
  -19.9039  -31.0668   23.1249 C   0  0  0  0  0  0  0  0  0  0  0  0
  -21.2664  -28.6813   16.8540 C   0  0  0  0  0  0  0  0  0  0  0  0
  -29.8364  -24.8681   20.9229 C   0  0  0  0  0  0  0  0  0  0  0  0
  -29.4422  -26.1400   20.1876 C   0  0  0  0  0  0  0  0  0  1  0  0
  -21.5077  -29.7020   21.7259 C   0  0  1  0  0  0  0  0  0  0  0  0
  -19.5349  -28.6811   18.6542 C   0  0  2  0  0  0  0  0  0  0  0  0
  -20.8148  -29.8199   23.1128 C   0  0  0  0  0  0  0  0  0  0  0  0
  -25.9444  -11.7365   20.2157 N   0  0  0  0  0  0  0  0  0  0  0  0
  -25.7927  -13.0664   20.0946 N   0  0  0  0  0  0  0  0  0  0  0  0
  -23.7678  -30.5748   21.2221 N   0  0  0  0  0  0  0  0  0  0  0  0
  -28.6586  -15.0485   18.5321 N   0  0  0  0  0  0  0  0  0  0  0  0
  -24.6289  -14.9242   20.9916 N   0  0  0  0  0  0  0  0  0  0  0  0
  -23.1079  -11.4554   23.4513 N   0  0  0  0  0  0  0  0  0  0  0  0
  -29.7320  -22.4730   20.9520 N   0  0  0  0  0  0  0  0  0  0  0  0
  -28.6850  -17.0905   19.7120 N   0  0  0  0  0  0  0  0  0  0  0  0
  -25.6328  -33.1661   22.8150 N   0  0  0  0  0  0  0  0  0  0  0  0
  -20.5825  -29.6122   20.6014 N   0  0  0  0  0  0  0  0  0  0  0  0
  -20.0133  -28.0792   17.3775 N   0  3  0  0  0  0  0  0  0  0  0  0
  -22.9397  -13.7182   23.1197 O   0  0  0  0  0  0  0  0  0  0  0  0
  -25.4614  -30.8820   23.2344 O   0  0  0  0  0  0  0  0  0  0  0  0
  -21.9381  -32.0102   21.3891 O   0  0  0  0  0  0  0  0  0  0  0  0
  -28.6939  -23.6336   19.1939 O   0  0  0  0  0  0  0  0  0  0  0  0
  -21.3527  -27.5770   19.8003 O   0  0  0  0  0  0  0  0  0  0  0  0
  -29.6834  -16.9118   17.6255 O   0  0  0  0  0  0  0  0  0  0  0  0
  -24.6291   -6.1227   22.9183 O   0  0  0  0  0  0  0  0  0  0  0  0
  -28.0194  -26.2383   20.1396 O   0  0  0  0  0  0  0  0  0  1  0  0
  -19.5504   -4.1671   23.8050 F   0  0  0  0  0  0  0  0  0  0  0  0
  -23.6783   -3.9493   21.4989 F   0  0  0  0  0  0  0  0  0  0  0  0
  1  2  1  0  0  0  0
  1  5  2  0  0  0  0
  2  6  2  0  0  0  0
  3  8  2  0  0  0  0
  3 17  1  0  0  0  0
  4  9  1  0  0  0  0
  4 17  2  0  0  0  0
  5 19  1  0  0  0  0
  6 21  1  0  0  0  0
  7 10  2  0  0  0  0
  7 20  1  0  0  0  0
  8 27  1  0  0  0  0
  9 27  2  0  0  0  0
 10 28  1  0  0  0  0
 11 12  2  0  0  0  0
 11 29  1  0  0  0  0
 12 30  1  0  0  0  0
 13 22  1  0  0  0  0
 13 28  2  0  0  0  0
 14 23  2  0  0  0  0
 14 25  1  0  0  0  0
 15 24  1  0  0  0  0
 15 25  2  0  0  0  0
 16 30  2  0  0  0  0
 16 31  1  0  0  0  0
 17 32  1  0  0  0  0
 18 32  1  0  0  0  0
 18 33  2  0  0  0  0
 18 34  1  0  0  0  0
 19 21  2  0  0  0  0
 19 40  1  0  0  0  0
 20 22  2  0  0  0  0
 20 41  1  0  0  0  0
 21 49  1  0  0  0  0
 22 42  1  0  0  0  0
 23 26  1  0  0  0  0
 23 52  1  0  0  0  0
 24 26  2  0  0  0  0
 24 53  1  0  0  0  0
 25 70  1  0  0  0  0
 26 71  1  0  0  0  0
 27 81  1  0  0  0  0
 28 82  1  0  0  0  0
 29 31  2  0  0  0  0
 29 81  1  0  0  0  0
 30 83  1  0  0  0  0
 31 84  1  0  0  0  0
 32 64  2  0  0  0  0
 33 65  1  0  0  0  0
 33 68  1  0  0  0  0
 34 69  1  0  0  0  0
 34 75  2  0  0  0  0
 35 50  1  0  0  0  0
 35 72  1  0  0  0  0
 35 76  2  0  0  0  0
 36 61  1  0  0  0  0
 36 66  1  0  0  0  0
 36 77  2  0  0  0  0
 37 59  1  0  0  0  0
 37 70  1  0  0  0  0
 37 78  2  0  0  0  0
 38 62  1  0  0  0  0
 38 73  1  0  0  0  0
 38 79  2  0  0  0  0
 39 67  1  0  0  0  0
 39 71  1  0  0  0  0
 39 80  2  0  0  0  0
 40 43  1  0  0  0  0
 41 50  1  0  0  0  0
 42 66  1  0  0  0  0
 43 45  1  0  0  0  0
 44 46  1  0  0  0  0
 44 47  1  0  0  0  0
 45 49  1  0  0  0  0
 46 51  1  0  0  0  0
 47 67  1  0  0  0  0
 48 51  1  0  0  0  0
 48 67  1  0  0  0  0
 49 72  1  0  0  0  0
 50 66  1  0  0  0  0
 51 65  1  0  0  0  0
 54 62  1  0  0  0  0
 55 63  1  0  0  0  0
 56 63  1  0  0  0  0
 57 63  1  0  0  0  0
 58 74  1  0  0  0  0
 59 60  1  0  0  0  0
 60 82  1  0  0  0  0
 61 63  1  0  0  0  0
 61 73  1  0  0  0  0
 62 74  1  0  0  0  0
 64 65  1  0  0  0  0
M  CHG  1  74   1
M  ISO  4  39 100  60 101  71 100  82 101
M  END
> <Batch ID>
0012

> <Smiles>
CNC(C)C(=O)NC(C(=O)N1Cc2cc([101O:1][101CH2:1]CC(=O)Nc3cc(C)c([100NH:0][100C:0](=O)N4CCCC(n5nc(-c6ccc(Oc7ccc(F)cc7F)cc6)c(C(N)=O)c5N)C4)c(C)c3)ccc2CC1C(=O)NC1CCCc2ccccc21)C(C)(C)C

> <Shape>
0.354

> <Color>
0.115

> <Negative vol penalty>
0.000

$$$$

  -OEChem-04052315472D

  0  0  0     0  0  0  0  0  0999 V2000
M  END
$$$$

  -OEChem-04052315473D

 85 93  0     1  0  0  0  0  0999 V2000
  -18.5641  -26.6535   21.2384 C   0  0  0  0  0  0  0  0  0  0  0  0
  -19.3069  -25.5051   20.9841 C   0  0  0  0  0  0  0  0  0  0  0  0
  -30.0047  -23.6227   20.5132 C   0  0  0  0  0  0  0  0  0  0  0  0
  -27.6354  -23.1907   20.3214 C   0  0  0  0  0  0  0  0  0  0  0  0
  -18.9259  -27.4986   22.2866 C   0  0  0  0  0  0  0  0  0  0  0  0
  -20.4129  -25.2016   21.7774 C   0  0  0  0  0  0  0  0  0  0  0  0
  -20.5493  -20.3254   23.1371 C   0  0  0  0  0  0  0  0  0  0  0  0
  -29.7960  -24.9435   20.1164 C   0  0  0  0  0  0  0  0  0  0  0  0
  -27.4267  -24.5116   19.9247 C   0  0  0  0  0  0  0  0  0  0  0  0
  -20.9918  -19.4104   22.1828 C   0  0  0  0  0  0  0  0  0  0  0  0
  -27.2089  -27.5471   21.3939 C   0  0  0  0  0  0  0  0  0  0  0  0
  -26.1455  -28.2369   21.9763 C   0  0  0  0  0  0  0  0  0  0  0  0
  -23.1654  -19.3802   23.2286 C   0  0  0  0  0  0  0  0  0  0  0  0
  -24.5367  -13.1593   21.1260 C   0  0  0  0  0  0  0  0  0  0  0  0
  -26.6929  -12.1047   21.4007 C   0  0  0  0  0  0  0  0  0  0  0  0
  -25.1584  -28.5572   19.7945 C   0  0  0  0  0  0  0  0  0  0  0  0
  -28.9244  -22.7462   20.6157 C   0  0  0  0  0  0  0  0  0  0  0  0
  -29.1250  -20.8757   22.3386 C   0  0  0  0  0  0  0  0  0  0  0  0
  -20.0311  -27.2003   23.0991 C   0  0  0  0  0  0  0  0  0  0  0  0
  -21.4162  -20.7838   24.1396 C   0  0  0  0  0  0  0  0  0  0  0  0
  -20.7907  -26.0443   22.8366 C   0  0  0  0  0  0  0  0  0  0  0  0
  -22.7307  -20.2991   24.1959 C   0  0  0  0  0  0  0  0  0  0  0  0
  -25.1328  -14.1881   20.3966 C   0  0  0  0  0  0  0  0  0  0  0  0
  -26.5089  -14.1751   20.1693 C   0  0  0  0  0  0  0  0  0  0  0  0
  -28.5070  -25.3880   19.8222 C   0  0  0  0  0  0  0  0  0  0  0  0
  -22.3009  -18.9399   22.2267 C   0  0  0  0  0  0  0  0  0  0  0  0
  -27.2470  -27.3625   20.0118 C   0  0  0  0  0  0  0  0  0  0  0  0
  -27.2890  -13.1335   20.6713 C   0  0  0  0  0  0  0  0  0  0  0  0
  -25.1203  -28.7419   21.1766 C   0  0  0  0  0  0  0  0  0  0  0  0
  -25.3168  -12.1176   21.6281 C   0  0  0  0  0  0  0  0  0  0  0  0
  -26.2218  -27.8675   19.2121 C   0  0  0  0  0  0  0  0  0  0  0  0
  -29.1393  -21.3816   21.0249 C   0  0  0  0  0  0  0  0  0  0  0  0
  -29.3806  -19.5341   22.1927 C   0  0  0  0  0  0  0  0  0  0  0  0
  -28.9008  -21.5576   23.5797 C   0  0  0  0  0  0  0  0  0  0  0  0
  -22.5943  -23.6191   24.9623 C   0  0  0  0  0  0  0  0  0  0  0  0
  -23.7955  -21.9556   27.4747 C   0  0  0  0  0  0  0  0  0  0  0  0
  -22.9423  -15.3809   20.0462 C   0  0  0  0  0  0  0  0  0  0  0  0
  -24.7824  -18.9491   28.7529 C   0  0  0  0  0  0  0  0  0  0  0  0
  -28.2627  -15.1266   18.6313 C   0  0  0  0  0  0  0  0  0  0  0  0
  -20.4119  -28.1687   24.1909 C   0  0  0  0  0  0  0  0  0  0  0  0
  -20.9156  -21.7505   25.1775 C   0  0  0  0  0  0  0  0  0  0  0  0
  -23.6950  -20.7444   25.2638 C   0  0  0  0  0  0  0  0  0  0  0  0
  -21.3740  -27.5797   25.2193 C   0  0  0  0  0  0  0  0  0  0  0  0
  -31.4357  -16.7416   18.6626 C   0  0  0  0  0  0  0  0  0  0  0  0
  -22.5129  -26.8413   24.5232 C   0  0  0  0  0  0  0  0  0  0  0  0
  -31.1673  -18.0537   19.4032 C   0  0  0  0  0  0  0  0  0  0  0  0
  -30.2572  -16.3385   17.7780 C   0  0  0  0  0  0  0  0  0  0  0  0
  -28.6897  -17.5981   19.2011 C   0  0  0  0  0  0  0  0  0  0  0  0
  -21.9822  -25.6681   23.6904 C   0  0  1  0  0  0  0  0  0  0  0  0
  -22.0354  -22.5410   25.8472 C   0  0  1  0  0  0  0  0  0  0  0  0
  -29.8224  -18.0117   20.1549 C   0  0  2  0  0  0  0  0  0  0  0  0
  -25.7555  -17.9114   30.8202 C   0  0  0  0  0  0  0  0  0  0  0  0
  -26.5395  -23.0689   26.7390 C   0  0  0  0  0  0  0  0  0  0  0  0
  -27.5668  -21.3026   28.1857 C   0  0  0  0  0  0  0  0  0  0  0  0
  -26.0589  -23.0158   29.1927 C   0  0  0  0  0  0  0  0  0  0  0  0
  -22.4103  -17.2230   29.1434 C   0  0  0  0  0  0  0  0  0  0  0  0
  -29.4588  -13.7386   21.4340 C   0  0  0  0  0  0  0  0  0  0  0  0
  -22.4649  -16.6523   19.3535 C   0  0  0  0  0  0  0  0  0  0  0  0
  -21.7972  -17.6354   20.3030 C   0  0  0  0  0  0  0  0  0  1  0  0
  -25.0724  -21.1957   27.7414 C   0  0  1  0  0  0  0  0  0  0  0  0
  -24.4786  -18.2682   30.0752 C   0  0  2  0  0  0  0  0  0  0  0  0
  -26.2920  -22.1386   27.9433 C   0  0  0  0  0  0  0  0  0  0  0  0
  -29.3847  -20.4382   20.1118 N   0  0  0  0  0  0  0  0  0  0  0  0
  -29.5270  -19.3261   20.8528 N   0  0  0  0  0  0  0  0  0  0  0  0
  -23.1601  -21.6953   26.2523 N   0  0  0  0  0  0  0  0  0  0  0  0
  -29.0182  -16.3159   18.5585 N   0  0  0  0  0  0  0  0  0  0  0  0
  -29.4921  -18.5239   23.0812 N   0  0  0  0  0  0  0  0  0  0  0  0
  -28.6526  -22.9367   23.5491 N   0  0  0  0  0  0  0  0  0  0  0  0
  -24.3190  -15.2336   19.8993 N   0  0  0  0  0  0  0  0  0  0  0  0
  -27.1221  -15.2159   19.4286 N   0  0  0  0  0  0  0  0  0  0  0  0
  -21.6585  -24.5466   24.5460 N   0  0  0  0  0  0  0  0  0  0  0  0
  -24.7979  -20.3223   28.8773 N   0  0  0  0  0  0  0  0  0  0  0  0
  -23.7023  -17.0167   29.8471 N   0  3  0  0  0  0  0  0  0  0  0  0
  -28.9361  -20.9646   24.6846 O   0  0  0  0  0  0  0  0  0  0  0  0
  -23.7866  -23.6108   24.6794 O   0  0  0  0  0  0  0  0  0  0  0  0
  -23.3735  -22.7456   28.3230 O   0  0  0  0  0  0  0  0  0  0  0  0
  -22.1721  -14.6300   20.6354 O   0  0  0  0  0  0  0  0  0  0  0  0
  -24.9892  -18.3252   27.7144 O   0  0  0  0  0  0  0  0  0  0  0  0
  -28.6169  -14.0963   18.0525 O   0  0  0  0  0  0  0  0  0  0  0  0
  -28.3030  -26.6768   19.4352 O   0  0  0  0  0  0  0  0  0  0  0  0
  -28.6356  -13.0997   20.4609 O   0  0  0  0  0  0  0  0  0  0  0  0
  -22.7356  -18.0472   21.2961 O   0  0  0  0  0  0  0  0  0  1  0  0
  -24.0984  -29.4028   21.7362 F   0  0  0  0  0  0  0  0  0  0  0  0
  -24.7443  -11.1301   22.3289 F   0  0  0  0  0  0  0  0  0  0  0  0
  -26.2524  -27.6922   17.8839 F   0  0  0  0  0  0  0  0  0  0  0  0
  1  2  1  0  0  0  0
  1  5  2  0  0  0  0
  2  6  2  0  0  0  0
  3  8  2  0  0  0  0
  3 17  1  0  0  0  0
  4  9  1  0  0  0  0
  4 17  2  0  0  0  0
  5 19  1  0  0  0  0
  6 21  1  0  0  0  0
  7 10  2  0  0  0  0
  7 20  1  0  0  0  0
  8 25  1  0  0  0  0
  9 25  2  0  0  0  0
 10 26  1  0  0  0  0
 11 12  2  0  0  0  0
 11 27  1  0  0  0  0
 12 29  1  0  0  0  0
 13 22  1  0  0  0  0
 13 26  2  0  0  0  0
 14 23  1  0  0  0  0
 14 30  2  0  0  0  0
 15 28  2  0  0  0  0
 15 30  1  0  0  0  0
 16 29  2  0  0  0  0
 16 31  1  0  0  0  0
 17 32  1  0  0  0  0
 18 32  1  0  0  0  0
 18 33  2  0  0  0  0
 18 34  1  0  0  0  0
 19 21  2  0  0  0  0
 19 40  1  0  0  0  0
 20 22  2  0  0  0  0
 20 41  1  0  0  0  0
 21 49  1  0  0  0  0
 22 42  1  0  0  0  0
 23 24  2  0  0  0  0
 23 69  1  0  0  0  0
 24 28  1  0  0  0  0
 24 70  1  0  0  0  0
 25 80  1  0  0  0  0
 26 82  1  0  0  0  0
 27 31  2  0  0  0  0
 27 80  1  0  0  0  0
 28 81  1  0  0  0  0
 29 83  1  0  0  0  0
 30 84  1  0  0  0  0
 31 85  1  0  0  0  0
 32 63  2  0  0  0  0
 33 64  1  0  0  0  0
 33 67  1  0  0  0  0
 34 68  1  0  0  0  0
 34 74  2  0  0  0  0
 35 50  1  0  0  0  0
 35 71  1  0  0  0  0
 35 75  2  0  0  0  0
 36 60  1  0  0  0  0
 36 65  1  0  0  0  0
 36 76  2  0  0  0  0
 37 58  1  0  0  0  0
 37 69  1  0  0  0  0
 37 77  2  0  0  0  0
 38 61  1  0  0  0  0
 38 72  1  0  0  0  0
 38 78  2  0  0  0  0
 39 66  1  0  0  0  0
 39 70  1  0  0  0  0
 39 79  2  0  0  0  0
 40 43  1  0  0  0  0
 41 50  1  0  0  0  0
 42 65  1  0  0  0  0
 43 45  1  0  0  0  0
 44 46  1  0  0  0  0
 44 47  1  0  0  0  0
 45 49  1  0  0  0  0
 46 51  1  0  0  0  0
 47 66  1  0  0  0  0
 48 51  1  0  0  0  0
 48 66  1  0  0  0  0
 49 71  1  0  0  0  0
 50 65  1  0  0  0  0
 51 64  1  0  0  0  0
 52 61  1  0  0  0  0
 53 62  1  0  0  0  0
 54 62  1  0  0  0  0
 55 62  1  0  0  0  0
 56 73  1  0  0  0  0
 57 81  1  0  0  0  0
 58 59  1  0  0  0  0
 59 82  1  0  0  0  0
 60 62  1  0  0  0  0
 60 72  1  0  0  0  0
 61 73  1  0  0  0  0
 63 64  1  0  0  0  0
M  CHG  1  73   1
M  ISO  4  39 100  59 101  70 100  82 101
M  END
> <Batch ID>
0012

> <Smiles>
CNC(C)C(=O)NC(C(=O)N1Cc2cc([101O:1][101CH2:1]CC(=O)Nc3cc(F)cc(OC)c3[100NH:0][100C:0](=O)N3CCCC(n4nc(-c5ccc(Oc6ccc(F)cc6F)cc5)c(C(N)=O)c4N)C3)ccc2CC1C(=O)NC1CCCc2ccccc21)C(C)(C)C

> <Shape>
0.204

> <Color>
0.081

> <Negative vol penalty>
0.000

$$$$

  -OEChem-04052315473D

 84 92  0     1  0  0  0  0  0999 V2000
  -30.2201  -31.5850   26.0195 C   0  0  0  0  0  0  0  0  0  0  0  0
  -29.7498  -30.5270   25.2482 C   0  0  0  0  0  0  0  0  0  0  0  0
  -24.3766   -9.4568   21.5462 C   0  0  0  0  0  0  0  0  0  0  0  0
  -24.7493  -10.6465   23.6157 C   0  0  0  0  0  0  0  0  0  0  0  0
  -29.3196  -32.4769   26.6003 C   0  0  0  0  0  0  0  0  0  0  0  0
  -28.3786  -30.3597   25.0581 C   0  0  0  0  0  0  0  0  0  0  0  0
  -27.1955  -29.3346   20.2421 C   0  0  0  0  0  0  0  0  0  0  0  0
  -30.0120  -20.8990   19.6728 C   0  0  0  0  0  0  0  0  0  0  0  0
  -29.9889  -19.5097   19.7952 C   0  0  0  0  0  0  0  0  0  0  0  0
  -24.0115   -8.3192   22.2659 C   0  0  0  0  0  0  0  0  0  0  0  0
  -24.3841   -9.5088   24.3354 C   0  0  0  0  0  0  0  0  0  0  0  0
  -27.4088  -28.0305   19.7978 C   0  0  0  0  0  0  0  0  0  0  0  0
  -22.6341   -5.2126   23.5570 C   0  0  0  0  0  0  0  0  0  0  0  0
  -21.4986   -4.5181   23.1400 C   0  0  0  0  0  0  0  0  0  0  0  0
  -25.0619  -27.5540   20.0883 C   0  0  0  0  0  0  0  0  0  0  0  0
  -27.7764  -21.0162   20.5813 C   0  0  0  0  0  0  0  0  0  0  0  0
  -20.1556   -6.4922   23.5091 C   0  0  0  0  0  0  0  0  0  0  0  0
  -24.7455  -10.6205   22.2211 C   0  0  0  0  0  0  0  0  0  0  0  0
  -24.2772  -12.8305   21.0361 C   0  0  0  0  0  0  0  0  0  0  0  0
  -27.9370  -32.3262   26.4093 C   0  0  0  0  0  0  0  0  0  0  0  0
  -25.9136  -29.7558   20.6238 C   0  0  0  0  0  0  0  0  0  0  0  0
  -27.4586  -31.2497   25.6381 C   0  0  0  0  0  0  0  0  0  0  0  0
  -24.8345  -28.8648   20.5347 C   0  0  0  0  0  0  0  0  0  0  0  0
  -28.9057  -21.6522   20.0659 C   0  0  0  0  0  0  0  0  0  0  0  0
  -28.8596  -18.8736   20.3105 C   0  0  0  0  0  0  0  0  0  0  0  0
  -24.0152   -8.3451   23.6605 C   0  0  0  0  0  0  0  0  0  0  0  0
  -26.3425  -27.1391   19.7236 C   0  0  0  0  0  0  0  0  0  0  0  0
  -22.5304   -6.5469   23.9501 C   0  0  0  0  0  0  0  0  0  0  0  0
  -27.7533  -19.6269   20.7036 C   0  0  0  0  0  0  0  0  0  0  0  0
  -20.2594   -5.1579   23.1160 C   0  0  0  0  0  0  0  0  0  0  0  0
  -21.2912   -7.1867   23.9261 C   0  0  0  0  0  0  0  0  0  0  0  0
  -25.1233  -11.7959   21.4782 C   0  0  0  0  0  0  0  0  0  0  0  0
  -25.1139  -13.7034   20.3845 C   0  0  0  0  0  0  0  0  0  0  0  0
  -22.8616  -12.9884   21.1997 C   0  0  0  0  0  0  0  0  0  0  0  0
  -24.6116  -30.8146   23.3234 C   0  0  0  0  0  0  0  0  0  0  0  0
  -22.0247  -31.3011   21.4277 C   0  0  0  0  0  0  0  0  0  0  0  0
  -27.7180  -23.7822   19.7106 C   0  0  0  0  0  0  0  0  0  0  0  0
  -20.3176  -30.4801   18.5889 C   0  0  0  0  0  0  0  0  0  0  0  0
  -29.8723  -16.5786   20.0790 C   0  0  0  0  0  0  0  0  0  0  0  0
  -27.0002  -33.2880   27.0962 C   0  0  0  0  0  0  0  0  0  0  0  0
  -25.6952  -31.1738   21.0756 C   0  0  0  0  0  0  0  0  0  0  0  0
  -23.4353  -29.2735   20.9135 C   0  0  0  0  0  0  0  0  0  0  0  0
  -25.5799  -33.2589   26.5373 C   0  0  0  0  0  0  0  0  0  0  0  0
  -29.9469  -13.1968   18.9678 C   0  0  0  0  0  0  0  0  0  0  0  0
  -25.0981  -31.8203   26.3785 C   0  0  0  0  0  0  0  0  0  0  0  0
  -28.6290  -12.6160   19.4855 C   0  0  0  0  0  0  0  0  0  0  0  0
  -30.5543  -14.1923   19.9545 C   0  0  0  0  0  0  0  0  0  0  0  0
  -28.3350  -14.6880   20.9022 C   0  0  0  0  0  0  0  0  0  0  0  0
  -25.9796  -31.0494   25.3884 C   0  0  1  0  0  0  0  0  0  0  0  0
  -24.4409  -31.3431   21.9272 C   0  0  1  0  0  0  0  0  0  0  0  0
  -27.6523  -13.7288   19.9136 C   0  0  2  0  0  0  0  0  0  0  0  0
  -18.2161  -31.0203   17.3283 C   0  0  0  0  0  0  0  0  0  0  0  0
  -20.4055  -29.6653   23.4309 C   0  0  0  0  0  0  0  0  0  0  0  0
  -18.6180  -29.4359   21.6929 C   0  0  0  0  0  0  0  0  0  0  0  0
  -19.2360  -31.6943   22.5534 C   0  0  0  0  0  0  0  0  0  0  0  0
  -30.2163  -23.7998   20.0489 C   0  0  0  0  0  0  0  0  0  0  0  0
  -21.8365  -31.4131   16.2265 C   0  0  0  0  0  0  0  0  0  0  0  0
  -25.6297  -18.6457   20.2752 C   0  0  0  0  0  0  0  0  0  0  0  0
  -27.8291  -25.2912   19.5470 C   0  0  0  0  0  0  0  0  0  1  0  0
  -20.8302  -30.4746   21.0162 C   0  0  1  0  0  0  0  0  0  0  0  0
  -19.6923  -31.3399   17.5054 C   0  0  2  0  0  0  0  0  0  0  0  0
  -19.7990  -30.3090   22.1680 C   0  0  0  0  0  0  0  0  0  0  0  0
  -26.3995  -11.9918   21.1363 N   0  0  0  0  0  0  0  0  0  0  0  0
  -26.3616  -13.1596   20.4723 N   0  0  0  0  0  0  0  0  0  0  0  0
  -23.2739  -30.6686   21.3551 N   0  0  0  0  0  0  0  0  0  0  0  0
  -29.5732  -15.2195   20.3113 N   0  0  0  0  0  0  0  0  0  0  0  0
  -24.8966  -14.8754   19.7508 N   0  0  0  0  0  0  0  0  0  0  0  0
  -22.1549  -11.9980   21.8954 N   0  0  0  0  0  0  0  0  0  0  0  0
  -28.8509  -17.4616   20.4278 N   0  0  0  0  0  0  0  0  0  0  0  0
  -25.6426  -31.4071   24.0272 N   0  0  0  0  0  0  0  0  0  0  0  0
  -20.2904  -31.1064   19.8171 N   0  0  0  0  0  0  0  0  0  0  0  0
  -28.9297  -23.0953   19.9379 N   0  0  0  0  0  0  0  0  0  0  0  0
  -20.3814  -31.1147   16.2033 N   0  3  0  0  0  0  0  0  0  0  0  0
  -22.2392  -13.9702   20.7284 O   0  0  0  0  0  0  0  0  0  0  0  0
  -23.8623  -29.9353   23.7324 O   0  0  0  0  0  0  0  0  0  0  0  0
  -21.8563  -32.4671   21.7932 O   0  0  0  0  0  0  0  0  0  0  0  0
  -26.6079  -23.2542   19.6076 O   0  0  0  0  0  0  0  0  0  0  0  0
  -20.7803  -29.3630   18.3687 O   0  0  0  0  0  0  0  0  0  0  0  0
  -30.9442  -16.9312   19.5802 O   0  0  0  0  0  0  0  0  0  0  0  0
  -23.6588   -7.2352   24.3631 O   0  0  0  0  0  0  0  0  0  0  0  0
  -26.6391  -19.0251   21.2081 O   0  0  0  0  0  0  0  0  0  0  0  0
  -26.5481  -25.8654   19.2908 O   0  0  0  0  0  0  0  0  0  1  0  0
  -19.1693   -4.4913   22.7141 F   0  0  0  0  0  0  0  0  0  0  0  0
  -21.1855   -8.4688   24.3015 F   0  0  0  0  0  0  0  0  0  0  0  0
  1  2  1  0  0  0  0
  1  5  2  0  0  0  0
  2  6  2  0  0  0  0
  3 10  2  0  0  0  0
  3 18  1  0  0  0  0
  4 11  1  0  0  0  0
  4 18  2  0  0  0  0
  5 20  1  0  0  0  0
  6 22  1  0  0  0  0
  7 12  2  0  0  0  0
  7 21  1  0  0  0  0
  8  9  2  0  0  0  0
  8 24  1  0  0  0  0
  9 25  1  0  0  0  0
 10 26  1  0  0  0  0
 11 26  2  0  0  0  0
 12 27  1  0  0  0  0
 13 14  2  0  0  0  0
 13 28  1  0  0  0  0
 14 30  1  0  0  0  0
 15 23  1  0  0  0  0
 15 27  2  0  0  0  0
 16 24  2  0  0  0  0
 16 29  1  0  0  0  0
 17 30  2  0  0  0  0
 17 31  1  0  0  0  0
 18 32  1  0  0  0  0
 19 32  1  0  0  0  0
 19 33  2  0  0  0  0
 19 34  1  0  0  0  0
 20 22  2  0  0  0  0
 20 40  1  0  0  0  0
 21 23  2  0  0  0  0
 21 41  1  0  0  0  0
 22 49  1  0  0  0  0
 23 42  1  0  0  0  0
 24 72  1  0  0  0  0
 25 29  2  0  0  0  0
 25 69  1  0  0  0  0
 26 80  1  0  0  0  0
 27 82  1  0  0  0  0
 28 31  2  0  0  0  0
 28 80  1  0  0  0  0
 29 81  1  0  0  0  0
 30 83  1  0  0  0  0
 31 84  1  0  0  0  0
 32 63  2  0  0  0  0
 33 64  1  0  0  0  0
 33 67  1  0  0  0  0
 34 68  1  0  0  0  0
 34 74  2  0  0  0  0
 35 50  1  0  0  0  0
 35 70  1  0  0  0  0
 35 75  2  0  0  0  0
 36 60  1  0  0  0  0
 36 65  1  0  0  0  0
 36 76  2  0  0  0  0
 37 59  1  0  0  0  0
 37 72  1  0  0  0  0
 37 77  2  0  0  0  0
 38 61  1  0  0  0  0
 38 71  1  0  0  0  0
 38 78  2  0  0  0  0
 39 66  1  0  0  0  0
 39 69  1  0  0  0  0
 39 79  2  0  0  0  0
 40 43  1  0  0  0  0
 41 50  1  0  0  0  0
 42 65  1  0  0  0  0
 43 45  1  0  0  0  0
 44 46  1  0  0  0  0
 44 47  1  0  0  0  0
 45 49  1  0  0  0  0
 46 51  1  0  0  0  0
 47 66  1  0  0  0  0
 48 51  1  0  0  0  0
 48 66  1  0  0  0  0
 49 70  1  0  0  0  0
 50 65  1  0  0  0  0
 51 64  1  0  0  0  0
 52 61  1  0  0  0  0
 53 62  1  0  0  0  0
 54 62  1  0  0  0  0
 55 62  1  0  0  0  0
 56 72  1  0  0  0  0
 57 73  1  0  0  0  0
 58 81  1  0  0  0  0
 59 82  1  0  0  0  0
 60 62  1  0  0  0  0
 60 71  1  0  0  0  0
 61 73  1  0  0  0  0
 63 64  1  0  0  0  0
M  CHG  1  73   1
M  ISO  4  39 100  59 101  69 100  82 101
M  END
> <Batch ID>
0012

> <Smiles>
CNC(C)C(=O)NC(C(=O)N1Cc2cc([101O:1][101CH2:1]C(=O)N(C)c3ccc([100NH:0][100C:0](=O)N4CCCC(n5nc(-c6ccc(Oc7ccc(F)cc7F)cc6)c(C(N)=O)c5N)C4)c(OC)c3)ccc2CC1C(=O)NC1CCCc2ccccc21)C(C)(C)C

> <Shape>
0.355

> <Color>
0.140

> <Negative vol penalty>
0.000

$$$$

  -OEChem-04052315473D

 82 90  0     1  0  0  0  0  0999 V2000
  -30.8855  -31.8023   24.9060 C   0  0  0  0  0  0  0  0  0  0  0  0
  -30.3823  -30.6725   24.2690 C   0  0  0  0  0  0  0  0  0  0  0  0
  -24.6230   -8.9744   21.3597 C   0  0  0  0  0  0  0  0  0  0  0  0
  -23.3429  -10.8324   22.2236 C   0  0  0  0  0  0  0  0  0  0  0  0
  -30.0211  -32.6649   25.5788 C   0  0  0  0  0  0  0  0  0  0  0  0
  -29.0145  -30.4041   24.3054 C   0  0  0  0  0  0  0  0  0  0  0  0
  -27.1845  -29.0249   19.7894 C   0  0  0  0  0  0  0  0  0  0  0  0
  -28.1678  -19.0876   20.3270 C   0  0  0  0  0  0  0  0  0  0  0  0
  -27.7295  -20.3999   20.1500 C   0  0  0  0  0  0  0  0  0  0  0  0
  -24.0775   -8.1436   22.3383 C   0  0  0  0  0  0  0  0  0  0  0  0
  -22.7973  -10.0015   23.2022 C   0  0  0  0  0  0  0  0  0  0  0  0
  -27.4235  -27.7141   19.3789 C   0  0  0  0  0  0  0  0  0  0  0  0
  -21.1785   -6.4844   22.8639 C   0  0  0  0  0  0  0  0  0  0  0  0
  -20.7286   -5.2250   22.4677 C   0  0  0  0  0  0  0  0  0  0  0  0
  -25.1913  -27.1009   20.0575 C   0  0  0  0  0  0  0  0  0  0  0  0
  -26.1409  -18.5740   21.5373 C   0  0  0  0  0  0  0  0  0  0  0  0
  -22.2950   -4.1875   23.9866 C   0  0  0  0  0  0  0  0  0  0  0  0
  -24.2558  -10.3189   21.3024 C   0  0  0  0  0  0  0  0  0  0  0  0
  -24.3078  -11.4246   19.0041 C   0  0  0  0  0  0  0  0  0  0  0  0
  -28.6407  -32.4121   25.6153 C   0  0  0  0  0  0  0  0  0  0  0  0
  -25.9488  -29.3816   20.3481 C   0  0  0  0  0  0  0  0  0  0  0  0
  -28.1309  -31.2634   24.9805 C   0  0  0  0  0  0  0  0  0  0  0  0
  -24.9383  -28.4175   20.4720 C   0  0  0  0  0  0  0  0  0  0  0  0
  -27.3734  -18.1746   21.0206 C   0  0  0  0  0  0  0  0  0  0  0  0
  -26.4970  -20.7993   20.6666 C   0  0  0  0  0  0  0  0  0  0  0  0
  -23.1646   -8.6571   23.2595 C   0  0  0  0  0  0  0  0  0  0  0  0
  -26.4279  -26.7512   19.5156 C   0  0  0  0  0  0  0  0  0  0  0  0
  -22.1868   -6.5954   23.8214 C   0  0  0  0  0  0  0  0  0  0  0  0
  -21.2868   -4.0766   23.0291 C   0  0  0  0  0  0  0  0  0  0  0  0
  -22.7450   -5.4470   24.3828 C   0  0  0  0  0  0  0  0  0  0  0  0
  -25.7026  -19.8864   21.3603 C   0  0  0  0  0  0  0  0  0  0  0  0
  -24.8194  -11.1779   20.2922 C   0  0  0  0  0  0  0  0  0  0  0  0
  -25.2018  -12.3029   18.4420 C   0  0  0  0  0  0  0  0  0  0  0  0
  -23.1299  -10.9062   18.3721 C   0  0  0  0  0  0  0  0  0  0  0  0
  -25.0022  -30.5069   23.1662 C   0  0  0  0  0  0  0  0  0  0  0  0
  -22.1256  -30.7101   21.6809 C   0  0  0  0  0  0  0  0  0  0  0  0
  -26.7666  -23.1471   19.8010 C   0  0  0  0  0  0  0  0  0  0  0  0
  -20.0682  -29.6143   19.1882 C   0  0  0  0  0  0  0  0  0  0  0  0
  -29.0147  -16.2827   20.7501 C   0  0  0  0  0  0  0  0  0  0  0  0
  -27.7516  -33.3480   26.3951 C   0  0  0  0  0  0  0  0  0  0  0  0
  -25.6975  -30.8059   20.7614 C   0  0  0  0  0  0  0  0  0  0  0  0
  -23.5874  -28.7539   21.0468 C   0  0  0  0  0  0  0  0  0  0  0  0
  -26.2685  -33.1925   26.0689 C   0  0  0  0  0  0  0  0  0  0  0  0
  -29.8200  -13.5604   18.6012 C   0  0  0  0  0  0  0  0  0  0  0  0
  -25.8765  -31.7184   26.0558 C   0  0  0  0  0  0  0  0  0  0  0  0
  -28.5800  -12.6660   18.6690 C   0  0  0  0  0  0  0  0  0  0  0  0
  -30.1259  -14.2090   19.9501 C   0  0  0  0  0  0  0  0  0  0  0  0
  -27.7633  -14.0390   20.6273 C   0  0  0  0  0  0  0  0  0  0  0  0
  -26.6502  -30.9514   24.9766 C   0  0  1  0  0  0  0  0  0  0  0  0
  -24.5800  -30.9410   21.7910 C   0  0  1  0  0  0  0  0  0  0  0  0
  -27.3775  -13.4149   19.2762 C   0  0  2  0  0  0  0  0  0  0  0  0
  -17.7635  -29.9400   18.2503 C   0  0  0  0  0  0  0  0  0  0  0  0
  -20.9601  -29.0898   23.9887 C   0  0  0  0  0  0  0  0  0  0  0  0
  -18.9487  -28.6419   22.5667 C   0  0  0  0  0  0  0  0  0  0  0  0
  -19.5218  -30.9824   23.2119 C   0  0  0  0  0  0  0  0  0  0  0  0
  -21.1321  -30.5071   16.5747 C   0  0  0  0  0  0  0  0  0  0  0  0
  -25.9684  -24.4374   19.8174 C   0  0  0  0  0  0  0  0  0  1  0  0
  -20.9470  -29.7838   21.5019 C   0  0  1  0  0  0  0  0  0  0  0  0
  -19.2215  -30.3665   18.1774 C   0  0  2  0  0  0  0  0  0  0  0  0
  -20.1204  -29.6174   22.8082 C   0  0  0  0  0  0  0  0  0  0  0  0
  -25.9507  -11.8454   20.5342 N   0  0  0  0  0  0  0  0  0  0  0  0
  -26.1574  -12.5202   19.3905 N   0  0  0  0  0  0  0  0  0  0  0  0
  -23.3924  -30.1586   21.4422 N   0  0  0  0  0  0  0  0  0  0  0  0
  -28.9423  -14.9035   20.4618 N   0  0  0  0  0  0  0  0  0  0  0  0
  -25.2558  -12.9028   17.2339 N   0  0  0  0  0  0  0  0  0  0  0  0
  -22.3229  -10.0146   19.0919 N   0  0  0  0  0  0  0  0  0  0  0  0
  -26.0819  -22.1376   20.4690 N   0  0  0  0  0  0  0  0  0  0  0  0
  -27.8187  -16.8414   21.1995 N   0  0  0  0  0  0  0  0  0  0  0  0
  -26.0822  -31.2063   23.6701 N   0  0  0  0  0  0  0  0  0  0  0  0
  -20.1837  -30.3077   20.3744 N   0  0  0  0  0  0  0  0  0  0  0  0
  -19.7170  -30.1121   16.7951 N   0  3  0  0  0  0  0  0  0  0  0  0
  -22.8114  -11.2116   17.1979 O   0  0  0  0  0  0  0  0  0  0  0  0
  -24.3924  -29.6052   23.7290 O   0  0  0  0  0  0  0  0  0  0  0  0
  -21.9290  -31.8817   22.0130 O   0  0  0  0  0  0  0  0  0  0  0  0
  -27.8620  -23.0761   19.2535 O   0  0  0  0  0  0  0  0  0  0  0  0
  -20.5735  -28.5194   18.9506 O   0  0  0  0  0  0  0  0  0  0  0  0
  -30.0534  -16.9270   20.5828 O   0  0  0  0  0  0  0  0  0  0  0  0
  -22.6319   -7.8465   24.2143 O   0  0  0  0  0  0  0  0  0  0  0  0
  -26.6588  -25.4709   19.1163 O   0  0  0  0  0  0  0  0  0  1  0  0
  -20.8535   -2.8672   22.6496 F   0  0  0  0  0  0  0  0  0  0  0  0
  -23.7131   -5.5473   25.3040 F   0  0  0  0  0  0  0  0  0  0  0  0
  -24.1698  -20.3395   22.0160 Cl  0  0  0  0  0  0  0  0  0  0  0  0
  1  2  1  0  0  0  0
  1  5  2  0  0  0  0
  2  6  2  0  0  0  0
  3 10  2  0  0  0  0
  3 18  1  0  0  0  0
  4 11  1  0  0  0  0
  4 18  2  0  0  0  0
  5 20  1  0  0  0  0
  6 22  1  0  0  0  0
  7 12  2  0  0  0  0
  7 21  1  0  0  0  0
  8  9  2  0  0  0  0
  8 24  1  0  0  0  0
  9 25  1  0  0  0  0
 10 26  1  0  0  0  0
 11 26  2  0  0  0  0
 12 27  1  0  0  0  0
 13 14  2  0  0  0  0
 13 28  1  0  0  0  0
 14 29  1  0  0  0  0
 15 23  1  0  0  0  0
 15 27  2  0  0  0  0
 16 24  2  0  0  0  0
 16 31  1  0  0  0  0
 17 29  2  0  0  0  0
 17 30  1  0  0  0  0
 18 32  1  0  0  0  0
 19 32  1  0  0  0  0
 19 33  2  0  0  0  0
 19 34  1  0  0  0  0
 20 22  2  0  0  0  0
 20 40  1  0  0  0  0
 21 23  2  0  0  0  0
 21 41  1  0  0  0  0
 22 49  1  0  0  0  0
 23 42  1  0  0  0  0
 24 68  1  0  0  0  0
 25 31  2  0  0  0  0
 25 67  1  0  0  0  0
 26 78  1  0  0  0  0
 27 79  1  0  0  0  0
 28 30  2  0  0  0  0
 28 78  1  0  0  0  0
 29 80  1  0  0  0  0
 30 81  1  0  0  0  0
 31 82  1  0  0  0  0
 32 61  2  0  0  0  0
 33 62  1  0  0  0  0
 33 65  1  0  0  0  0
 34 66  1  0  0  0  0
 34 72  2  0  0  0  0
 35 50  1  0  0  0  0
 35 69  1  0  0  0  0
 35 73  2  0  0  0  0
 36 58  1  0  0  0  0
 36 63  1  0  0  0  0
 36 74  2  0  0  0  0
 37 57  1  0  0  0  0
 37 67  1  0  0  0  0
 37 75  2  0  0  0  0
 38 59  1  0  0  0  0
 38 70  1  0  0  0  0
 38 76  2  0  0  0  0
 39 64  1  0  0  0  0
 39 68  1  0  0  0  0
 39 77  2  0  0  0  0
 40 43  1  0  0  0  0
 41 50  1  0  0  0  0
 42 63  1  0  0  0  0
 43 45  1  0  0  0  0
 44 46  1  0  0  0  0
 44 47  1  0  0  0  0
 45 49  1  0  0  0  0
 46 51  1  0  0  0  0
 47 64  1  0  0  0  0
 48 51  1  0  0  0  0
 48 64  1  0  0  0  0
 49 69  1  0  0  0  0
 50 63  1  0  0  0  0
 51 62  1  0  0  0  0
 52 59  1  0  0  0  0
 53 60  1  0  0  0  0
 54 60  1  0  0  0  0
 55 60  1  0  0  0  0
 56 71  1  0  0  0  0
 57 79  1  0  0  0  0
 58 60  1  0  0  0  0
 58 70  1  0  0  0  0
 59 71  1  0  0  0  0
 61 62  1  0  0  0  0
M  CHG  1  71   1
M  ISO  4  39 100  57 101  68 100  79 101
M  END
> <Batch ID>
0012

> <Smiles>
CNC(C)C(=O)NC(C(=O)N1Cc2cc([101O:1][101CH2:1]C(=O)Nc3ccc([100NH:0][100C:0](=O)N4CCCC(n5nc(-c6ccc(Oc7ccc(F)cc7F)cc6)c(C(N)=O)c5N)C4)cc3Cl)ccc2CC1C(=O)NC1CCCc2ccccc21)C(C)(C)C

> <Shape>
0.303

> <Color>
0.101

> <Negative vol penalty>
0.000

$$$$

  -OEChem-04052315473D

 84 91  0     1  0  0  0  0  0999 V2000
  -29.9611  -25.4933   16.1830 C   0  0  0  0  0  0  0  0  0  0  0  0
  -28.7316  -25.3895   16.8255 C   0  0  0  0  0  0  0  0  0  0  0  0
  -32.8175  -18.6950   17.9328 C   0  0  0  0  0  0  0  0  0  0  0  0
  -30.7934  -19.9161   17.4336 C   0  0  0  0  0  0  0  0  0  0  0  0
  -31.0110  -26.1766   16.7953 C   0  0  0  0  0  0  0  0  0  0  0  0
  -28.5515  -25.9681   18.0814 C   0  0  0  0  0  0  0  0  0  0  0  0
  -24.1752  -28.4895   18.4493 C   0  0  0  0  0  0  0  0  0  0  0  0
  -33.3005  -18.9729   16.6541 C   0  0  0  0  0  0  0  0  0  0  0  0
  -31.2765  -20.1940   16.1549 C   0  0  0  0  0  0  0  0  0  0  0  0
  -23.0191  -27.7339   18.6396 C   0  0  0  0  0  0  0  0  0  0  0  0
  -33.4582  -22.3468   14.7316 C   0  0  0  0  0  0  0  0  0  0  0  0
  -33.3198  -23.6513   14.2575 C   0  0  0  0  0  0  0  0  0  0  0  0
  -23.0831  -28.2410   20.9972 C   0  0  0  0  0  0  0  0  0  0  0  0
  -31.9914  -22.8388   12.4102 C   0  0  0  0  0  0  0  0  0  0  0  0
  -31.5639  -19.1666   18.3225 C   0  0  0  0  0  0  0  0  0  0  0  0
  -31.2431  -19.6519   20.8063 C   0  0  0  0  0  0  0  0  0  0  0  0
  -30.8407  -26.7721   18.0550 C   0  0  0  0  0  0  0  0  0  0  0  0
  -24.8011  -29.1186   19.5351 C   0  0  0  0  0  0  0  0  0  0  0  0
  -29.6005  -26.6589   18.7118 C   0  0  0  0  0  0  0  0  0  0  0  0
  -24.2456  -29.0061   20.8176 C   0  0  0  0  0  0  0  0  0  0  0  0
  -32.5300  -19.7224   15.7651 C   0  0  0  0  0  0  0  0  0  0  0  0
  -22.4745  -27.6072   19.9142 C   0  0  0  0  0  0  0  0  0  0  0  0
  -32.8634  -21.2883   14.0450 C   0  0  0  0  0  0  0  0  0  0  0  0
  -32.5863  -23.8973   13.0968 C   0  0  0  0  0  0  0  0  0  0  0  0
  -32.1299  -21.5343   12.8843 C   0  0  0  0  0  0  0  0  0  0  0  0
  -31.0642  -18.8794   19.6431 C   0  0  0  0  0  0  0  0  0  0  0  0
  -30.5799  -18.9550   21.7866 C   0  0  0  0  0  0  0  0  0  0  0  0
  -31.9458  -20.8888   20.9847 C   0  0  0  0  0  0  0  0  0  0  0  0
  -27.6520  -28.8885   20.9220 C   0  0  0  0  0  0  0  0  0  0  0  0
  -26.5821  -31.4162   22.6507 C   0  0  0  0  0  0  0  0  0  0  0  0
  -20.3172  -24.6890   19.9116 C   0  0  0  0  0  0  0  0  0  0  0  0
  -23.9239  -33.1833   23.8582 C   0  0  0  0  0  0  0  0  0  0  0  0
  -26.0685  -14.8552   21.3169 C   0  0  0  0  0  0  0  0  0  0  0  0
  -23.9376  -15.9551   20.4204 C   0  0  0  0  0  0  0  0  0  0  0  0
  -32.0190  -27.4599   18.6980 C   0  0  0  0  0  0  0  0  0  0  0  0
  -26.0326  -29.9521   19.3089 C   0  0  0  0  0  0  0  0  0  0  0  0
  -24.8678  -29.6784   22.0131 C   0  0  0  0  0  0  0  0  0  0  0  0
  -31.6332  -28.3659   19.8645 C   0  0  0  0  0  0  0  0  0  0  0  0
  -29.2709  -14.5546   23.0407 C   0  0  0  0  0  0  0  0  0  0  0  0
  -30.6581  -27.6520   20.7952 C   0  0  0  0  0  0  0  0  0  0  0  0
  -30.1285  -15.6453   22.4087 C   0  0  0  0  0  0  0  0  0  0  0  0
  -28.2676  -13.9961   22.0402 C   0  0  0  0  0  0  0  0  0  0  0  0
  -28.2029  -16.1687   20.8327 C   0  0  0  0  0  0  0  0  0  0  0  0
  -29.3587  -27.2943   20.0638 C   0  0  1  0  0  0  0  0  0  0  0  0
  -26.8763  -30.1257   20.5680 C   0  0  1  0  0  0  0  0  0  0  0  0
  -29.2403  -16.7470   21.8140 C   0  0  2  0  0  0  0  0  0  0  0  0
  -23.3642  -35.1800   25.2715 C   0  0  0  0  0  0  0  0  0  0  0  0
  -27.2597  -29.8242   25.1639 C   0  0  0  0  0  0  0  0  0  0  0  0
  -25.8375  -31.4165   26.4717 C   0  0  0  0  0  0  0  0  0  0  0  0
  -27.8597  -32.2497   25.2720 C   0  0  0  0  0  0  0  0  0  0  0  0
  -22.5396  -34.5284   21.6147 C   0  0  0  0  0  0  0  0  0  0  0  0
  -21.1217  -25.7749   19.2296 C   0  0  0  0  0  0  0  0  0  1  0  0
  -21.3092  -20.8931   19.0932 C   0  0  0  0  0  0  0  0  0  0  0  0
  -22.1770  -19.7996   19.7204 C   0  0  0  0  0  0  0  0  0  0  0  0
  -20.2247  -21.3669   20.0654 C   0  0  0  0  0  0  0  0  0  0  0  0
  -23.2351  -19.2972   18.7346 C   0  0  0  0  0  0  0  0  0  0  0  0
  -19.3327  -22.4489   19.4659 C   0  0  0  0  0  0  0  0  0  0  0  0
  -24.1240  -18.2178   19.3422 C   0  0  0  0  0  0  0  0  0  0  0  0
  -25.8165  -31.5815   23.9412 C   0  0  1  0  0  0  0  0  0  0  0  0
  -23.6211  -34.6708   23.8617 C   0  0  2  0  0  0  0  0  0  0  0  0
  -26.6825  -31.2536   25.1902 C   0  0  0  0  0  0  0  0  0  0  0  0
  -30.3439  -17.7762   19.8625 N   0  0  0  0  0  0  0  0  0  0  0  0
  -30.0644  -17.8503   21.1749 N   0  0  0  0  0  0  0  0  0  0  0  0
  -26.0743  -30.4772   21.7417 N   0  0  0  0  0  0  0  0  0  0  0  0
  -27.4553  -15.0474   21.4212 N   0  0  0  0  0  0  0  0  0  0  0  0
  -30.3933  -19.1855   23.1036 N   0  0  0  0  0  0  0  0  0  0  0  0
  -32.5709  -21.4686   19.8723 N   0  0  0  0  0  0  0  0  0  0  0  0
  -23.1116  -14.9005   20.8036 N   0  0  0  0  0  0  0  0  0  0  0  0
  -28.5155  -28.4630   19.9307 N   0  0  0  0  0  0  0  0  0  0  0  0
  -20.0755  -23.6120   19.0661 N   0  0  0  0  0  0  0  0  0  0  0  0
  -25.2790  -32.9377   23.9261 N   0  0  0  0  0  0  0  0  0  0  0  0
  -25.3226  -15.9160   20.6696 N   0  0  0  0  0  0  0  0  0  0  0  0
  -23.3519  -17.0562   19.7835 N   0  3  0  0  0  0  0  0  0  0  0  0
  -22.4164  -34.9562   23.0321 N   0  3  0  0  0  0  0  0  0  0  0  0
  -32.0313  -21.4545   22.1011 O   0  0  0  0  0  0  0  0  0  0  0  0
  -27.4808  -28.3599   22.0143 O   0  0  0  0  0  0  0  0  0  0  0  0
  -27.5894  -32.1003   22.4533 O   0  0  0  0  0  0  0  0  0  0  0  0
  -19.9351  -24.7768   21.0754 O   0  0  0  0  0  0  0  0  0  0  0  0
  -23.0459  -32.3249   23.8047 O   0  0  0  0  0  0  0  0  0  0  0  0
  -25.4945  -13.8452   21.7200 O   0  0  0  0  0  0  0  0  0  0  0  0
  -33.0011  -19.9939   14.5174 O   0  0  0  0  0  0  0  0  0  0  0  0
  -21.3347  -26.8620   20.1048 O   0  0  0  0  0  0  0  0  0  1  0  0
  -32.4521  -25.1502   12.6425 F   0  0  0  0  0  0  0  0  0  0  0  0
  -31.5552  -20.5216   12.2210 F   0  0  0  0  0  0  0  0  0  0  0  0
  1  2  1  0  0  0  0
  1  5  2  0  0  0  0
  2  6  2  0  0  0  0
  3  8  2  0  0  0  0
  3 15  1  0  0  0  0
  4  9  1  0  0  0  0
  4 15  2  0  0  0  0
  5 17  1  0  0  0  0
  6 19  1  0  0  0  0
  7 10  2  0  0  0  0
  7 18  1  0  0  0  0
  8 21  1  0  0  0  0
  9 21  2  0  0  0  0
 10 22  1  0  0  0  0
 11 12  2  0  0  0  0
 11 23  1  0  0  0  0
 12 24  1  0  0  0  0
 13 20  1  0  0  0  0
 13 22  2  0  0  0  0
 14 24  2  0  0  0  0
 14 25  1  0  0  0  0
 15 26  1  0  0  0  0
 16 26  1  0  0  0  0
 16 27  2  0  0  0  0
 16 28  1  0  0  0  0
 17 19  2  0  0  0  0
 17 35  1  0  0  0  0
 18 20  2  0  0  0  0
 18 36  1  0  0  0  0
 19 44  1  0  0  0  0
 20 37  1  0  0  0  0
 21 81  1  0  0  0  0
 22 82  1  0  0  0  0
 23 25  2  0  0  0  0
 23 81  1  0  0  0  0
 24 83  1  0  0  0  0
 25 84  1  0  0  0  0
 26 62  2  0  0  0  0
 27 63  1  0  0  0  0
 27 66  1  0  0  0  0
 28 67  1  0  0  0  0
 28 75  2  0  0  0  0
 29 45  1  0  0  0  0
 29 69  1  0  0  0  0
 29 76  2  0  0  0  0
 30 59  1  0  0  0  0
 30 64  1  0  0  0  0
 30 77  2  0  0  0  0
 31 52  1  0  0  0  0
 31 70  1  0  0  0  0
 31 78  2  0  0  0  0
 32 60  1  0  0  0  0
 32 71  1  0  0  0  0
 32 79  2  0  0  0  0
 33 65  1  0  0  0  0
 33 72  1  0  0  0  0
 33 80  2  0  0  0  0
 34 68  1  0  0  0  0
 34 72  1  0  0  0  0
 34 73  2  0  0  0  0
 35 38  1  0  0  0  0
 36 45  1  0  0  0  0
 37 64  1  0  0  0  0
 38 40  1  0  0  0  0
 39 41  1  0  0  0  0
 39 42  1  0  0  0  0
 40 44  1  0  0  0  0
 41 46  1  0  0  0  0
 42 65  1  0  0  0  0
 43 46  1  0  0  0  0
 43 65  1  0  0  0  0
 44 69  1  0  0  0  0
 45 64  1  0  0  0  0
 46 63  1  0  0  0  0
 47 60  1  0  0  0  0
 48 61  1  0  0  0  0
 49 61  1  0  0  0  0
 50 61  1  0  0  0  0
 51 74  1  0  0  0  0
 52 82  1  0  0  0  0
 53 54  1  0  0  0  0
 53 55  1  0  0  0  0
 54 56  1  0  0  0  0
 55 57  1  0  0  0  0
 56 58  1  0  0  0  0
 57 70  1  0  0  0  0
 58 73  1  0  0  0  0
 59 61  1  0  0  0  0
 59 71  1  0  0  0  0
 60 74  1  0  0  0  0
 62 63  1  0  0  0  0
M  CHG  2  73   1  74   1
M  ISO  4  33 100  52 101  72 100  82 101
M  END
> <Batch ID>
0012

> <Smiles>
CNC(C)C(=O)NC(C(=O)N1Cc2cc([101O:1][101CH2:1]C(=O)NCCCCCCNC(=N)[100NH:0][100C:0](=O)N3CCCC(n4nc(-c5ccc(Oc6ccc(F)cc6F)cc5)c(C(N)=O)c4N)C3)ccc2CC1C(=O)NC1CCCc2ccccc21)C(C)(C)C

> <Shape>
0.211

> <Color>
0.074

> <Negative vol penalty>
0.000

$$$$

  -OEChem-04052315473D

 78 85  0     1  0  0  0  0  0999 V2000
  -25.4807  -33.6002   25.4361 C   0  0  0  0  0  0  0  0  0  0  0  0
  -26.5139  -32.8454   24.8899 C   0  0  0  0  0  0  0  0  0  0  0  0
  -26.9001  -13.1341   20.9436 C   0  0  0  0  0  0  0  0  0  0  0  0
  -27.0731  -13.0818   18.5343 C   0  0  0  0  0  0  0  0  0  0  0  0
  -24.2165  -33.0350   25.5985 C   0  0  0  0  0  0  0  0  0  0  0  0
  -26.2837  -31.5245   24.5069 C   0  0  0  0  0  0  0  0  0  0  0  0
  -28.8034  -28.5729   19.7693 C   0  0  0  0  0  0  0  0  0  0  0  0
  -26.2991  -11.8754   20.9278 C   0  0  0  0  0  0  0  0  0  0  0  0
  -26.4722  -11.8231   18.5185 C   0  0  0  0  0  0  0  0  0  0  0  0
  -29.8761  -27.6868   19.6794 C   0  0  0  0  0  0  0  0  0  0  0  0
  -24.3923   -8.8313   21.4938 C   0  0  0  0  0  0  0  0  0  0  0  0
  -23.2654   -8.6389   22.2930 C   0  0  0  0  0  0  0  0  0  0  0  0
  -28.3421  -25.8282   19.7873 C   0  0  0  0  0  0  0  0  0  0  0  0
  -22.1132  -10.3886   21.0895 C   0  0  0  0  0  0  0  0  0  0  0  0
  -27.2870  -13.7373   19.7468 C   0  0  0  0  0  0  0  0  0  0  0  0
  -29.2829  -15.3224   19.8549 C   0  0  0  0  0  0  0  0  0  0  0  0
  -23.9683  -31.7096   25.2084 C   0  0  0  0  0  0  0  0  0  0  0  0
  -27.4907  -28.0924   19.8801 C   0  0  0  0  0  0  0  0  0  0  0  0
  -25.0154  -30.9407   24.6655 C   0  0  0  0  0  0  0  0  0  0  0  0
  -27.2543  -26.7103   19.8760 C   0  0  0  0  0  0  0  0  0  0  0  0
  -26.0852  -11.2199   19.7153 C   0  0  0  0  0  0  0  0  0  0  0  0
  -29.6458  -26.3143   19.6912 C   0  0  0  0  0  0  0  0  0  0  0  0
  -24.3797   -9.8024   20.4925 C   0  0  0  0  0  0  0  0  0  0  0  0
  -22.1258   -9.4175   22.0908 C   0  0  0  0  0  0  0  0  0  0  0  0
  -23.2402  -10.5810   20.2904 C   0  0  0  0  0  0  0  0  0  0  0  0
  -27.9073  -15.0377   19.7625 C   0  0  0  0  0  0  0  0  0  0  0  0
  -29.3522  -16.6939   19.8292 C   0  0  0  0  0  0  0  0  0  0  0  0
  -30.3983  -14.4271   19.9549 C   0  0  0  0  0  0  0  0  0  0  0  0
  -25.1965  -28.3184   22.0686 C   0  0  0  0  0  0  0  0  0  0  0  0
  -23.4312  -26.7989   19.8110 C   0  0  0  0  0  0  0  0  0  0  0  0
  -30.7610  -22.9720   17.7172 C   0  0  0  0  0  0  0  0  0  0  0  0
  -23.3625  -24.7737   17.0649 C   0  0  0  0  0  0  0  0  0  0  0  0
  -27.7827  -21.6071   17.6980 C   0  0  0  0  0  0  0  0  0  0  0  0
  -22.5977  -31.1271   25.4472 C   0  0  0  0  0  0  0  0  0  0  0  0
  -26.3424  -29.0614   19.9494 C   0  0  0  0  0  0  0  0  0  0  0  0
  -25.8622  -26.1436   19.9726 C   0  0  0  0  0  0  0  0  0  0  0  0
  -22.3393  -29.8392   24.6696 C   0  0  0  0  0  0  0  0  0  0  0  0
  -25.7098  -20.1822   20.2178 C   0  0  0  0  0  0  0  0  0  0  0  0
  -23.5256  -28.8893   24.8007 C   0  0  0  0  0  0  0  0  0  0  0  0
  -26.2060  -18.7393   20.3269 C   0  0  0  0  0  0  0  0  0  0  0  0
  -25.7519  -20.6861   18.7768 C   0  0  0  0  0  0  0  0  0  0  0  0
  -27.5557  -19.1023   18.2185 C   0  0  0  0  0  0  0  0  0  0  0  0
  -24.7985  -29.5123   24.2150 C   0  0  1  0  0  0  0  0  0  0  0  0
  -25.0890  -28.4587   20.5765 C   0  0  1  0  0  0  0  0  0  0  0  0
  -27.5846  -18.5686   19.6610 C   0  0  2  0  0  0  0  0  0  0  0  0
  -21.7700  -23.6771   15.4653 C   0  0  0  0  0  0  0  0  0  0  0  0
  -22.7314  -24.7227   21.9347 C   0  0  0  0  0  0  0  0  0  0  0  0
  -21.9658  -23.2037   20.0977 C   0  0  0  0  0  0  0  0  0  0  0  0
  -20.8244  -25.3917   20.4615 C   0  0  0  0  0  0  0  0  0  0  0  0
  -31.6237  -24.5045   15.9148 C   0  0  0  0  0  0  0  0  0  0  0  0
  -24.5091  -26.2195   14.7510 C   0  0  0  0  0  0  0  0  0  0  0  0
  -29.8839  -22.3810   16.6277 C   0  0  0  0  0  0  0  0  0  0  0  0
  -32.4987  -24.6906   18.2113 C   0  0  0  0  0  0  0  0  0  0  0  0
  -31.8388  -25.8845   18.8778 C   0  0  0  0  0  0  0  0  0  1  0  0
  -23.1485  -25.3564   19.4668 C   0  0  1  0  0  0  0  0  0  0  0  0
  -22.6336  -24.8986   15.7392 C   0  0  2  0  0  0  0  0  0  0  0  0
  -22.1940  -24.6790   20.4903 C   0  0  0  0  0  0  0  0  0  0  0  0
  -27.1568  -16.1398   19.6842 N   0  0  0  0  0  0  0  0  0  0  0  0
  -28.0641  -17.1303   19.7274 N   0  0  0  0  0  0  0  0  0  0  0  0
  -24.7730  -27.1315   20.0445 N   0  0  0  0  0  0  0  0  0  0  0  0
  -27.0869  -20.4969   18.2041 N   0  0  0  0  0  0  0  0  0  0  0  0
  -30.3887  -17.5570   19.8842 N   0  0  0  0  0  0  0  0  0  0  0  0
  -30.1490  -13.0479   19.9676 N   0  0  0  0  0  0  0  0  0  0  0  0
  -24.7808  -29.4341   22.7700 N   0  0  0  0  0  0  0  0  0  0  0  0
  -22.6525  -25.3538   18.0948 N   0  0  0  0  0  0  0  0  0  0  0  0
  -29.0440  -21.3411   17.1791 N   0  0  0  0  0  0  0  0  0  0  0  0
  -31.6053  -24.0247   17.3011 N   0  0  0  0  0  0  0  0  0  0  0  0
  -23.6101  -25.0438   14.6228 N   0  3  0  0  0  0  0  0  0  0  0  0
  -31.5798  -14.8383   20.0471 O   0  0  0  0  0  0  0  0  0  0  0  0
  -25.6236  -27.2747   22.5481 O   0  0  0  0  0  0  0  0  0  0  0  0
  -22.4967  -27.6023   19.8636 O   0  0  0  0  0  0  0  0  0  0  0  0
  -30.7133  -22.5375   18.8711 O   0  0  0  0  0  0  0  0  0  0  0  0
  -24.4511  -24.2141   17.1764 O   0  0  0  0  0  0  0  0  0  0  0  0
  -27.3169  -22.7516   17.7127 O   0  0  0  0  0  0  0  0  0  0  0  0
  -25.4991   -9.9916   19.6995 O   0  0  0  0  0  0  0  0  0  0  0  0
  -30.6910  -25.4472   19.6042 O   0  0  0  0  0  0  0  0  0  1  0  0
  -21.0432   -9.2316   22.8573 F   0  0  0  0  0  0  0  0  0  0  0  0
  -23.2218  -11.5146   19.3293 F   0  0  0  0  0  0  0  0  0  0  0  0
  1  2  1  0  0  0  0
  1  5  2  0  0  0  0
  2  6  2  0  0  0  0
  3  8  2  0  0  0  0
  3 15  1  0  0  0  0
  4  9  1  0  0  0  0
  4 15  2  0  0  0  0
  5 17  1  0  0  0  0
  6 19  1  0  0  0  0
  7 10  2  0  0  0  0
  7 18  1  0  0  0  0
  8 21  1  0  0  0  0
  9 21  2  0  0  0  0
 10 22  1  0  0  0  0
 11 12  2  0  0  0  0
 11 23  1  0  0  0  0
 12 24  1  0  0  0  0
 13 20  1  0  0  0  0
 13 22  2  0  0  0  0
 14 24  2  0  0  0  0
 14 25  1  0  0  0  0
 15 26  1  0  0  0  0
 16 26  1  0  0  0  0
 16 27  2  0  0  0  0
 16 28  1  0  0  0  0
 17 19  2  0  0  0  0
 17 34  1  0  0  0  0
 18 20  2  0  0  0  0
 18 35  1  0  0  0  0
 19 43  1  0  0  0  0
 20 36  1  0  0  0  0
 21 75  1  0  0  0  0
 22 76  1  0  0  0  0
 23 25  2  0  0  0  0
 23 75  1  0  0  0  0
 24 77  1  0  0  0  0
 25 78  1  0  0  0  0
 26 58  2  0  0  0  0
 27 59  1  0  0  0  0
 27 62  1  0  0  0  0
 28 63  1  0  0  0  0
 28 69  2  0  0  0  0
 29 44  1  0  0  0  0
 29 64  1  0  0  0  0
 29 70  2  0  0  0  0
 30 55  1  0  0  0  0
 30 60  1  0  0  0  0
 30 71  2  0  0  0  0
 31 52  1  0  0  0  0
 31 67  1  0  0  0  0
 31 72  2  0  0  0  0
 32 56  1  0  0  0  0
 32 65  1  0  0  0  0
 32 73  2  0  0  0  0
 33 61  1  0  0  0  0
 33 66  1  0  0  0  0
 33 74  2  0  0  0  0
 34 37  1  0  0  0  0
 35 44  1  0  0  0  0
 36 60  1  0  0  0  0
 37 39  1  0  0  0  0
 38 40  1  0  0  0  0
 38 41  1  0  0  0  0
 39 43  1  0  0  0  0
 40 45  1  0  0  0  0
 41 61  1  0  0  0  0
 42 45  1  0  0  0  0
 42 61  1  0  0  0  0
 43 64  1  0  0  0  0
 44 60  1  0  0  0  0
 45 59  1  0  0  0  0
 46 56  1  0  0  0  0
 47 57  1  0  0  0  0
 48 57  1  0  0  0  0
 49 57  1  0  0  0  0
 50 67  1  0  0  0  0
 51 68  1  0  0  0  0
 52 66  1  0  0  0  0
 53 54  1  0  0  0  0
 53 67  1  0  0  0  0
 54 76  1  0  0  0  0
 55 57  1  0  0  0  0
 55 65  1  0  0  0  0
 56 68  1  0  0  0  0
 58 59  1  0  0  0  0
M  CHG  1  68   1
M  ISO  4  33 100  54 101  66 100  76 101
M  END
> <Batch ID>
0012

> <Smiles>
CNC(C)C(=O)NC(C(=O)N1Cc2cc([101O:1][101CH2:1]CN(C)C(=O)C[100NH:0][100C:0](=O)N3CCCC(n4nc(-c5ccc(Oc6ccc(F)cc6F)cc5)c(C(N)=O)c4N)C3)ccc2CC1C(=O)NC1CCCc2ccccc21)C(C)(C)C

> <Shape>
0.242

> <Color>
0.091

> <Negative vol penalty>
0.000

$$$$

  -OEChem-04052315473D

 84 92  0     1  0  0  0  0  0999 V2000
  -32.7140  -25.8102   15.1139 C   0  0  0  0  0  0  0  0  0  0  0  0
  -31.3294  -25.9380   15.0694 C   0  0  0  0  0  0  0  0  0  0  0  0
  -27.0356  -18.3111   20.9652 C   0  0  0  0  0  0  0  0  0  0  0  0
  -25.1925  -19.1874   19.6721 C   0  0  0  0  0  0  0  0  0  0  0  0
  -33.3618  -25.6803   16.3417 C   0  0  0  0  0  0  0  0  0  0  0  0
  -30.5917  -25.9349   16.2527 C   0  0  0  0  0  0  0  0  0  0  0  0
  -25.4899  -29.1158   17.4186 C   0  0  0  0  0  0  0  0  0  0  0  0
  -26.8057  -17.0424   20.4332 C   0  0  0  0  0  0  0  0  0  0  0  0
  -24.9626  -17.9186   19.1400 C   0  0  0  0  0  0  0  0  0  0  0  0
  -24.1400  -28.7687   17.3857 C   0  0  0  0  0  0  0  0  0  0  0  0
  -26.4759  -13.4984   19.6882 C   0  0  0  0  0  0  0  0  0  0  0  0
  -26.4899  -12.4135   20.5649 C   0  0  0  0  0  0  0  0  0  0  0  0
  -24.1983  -28.3411   19.7591 C   0  0  0  0  0  0  0  0  0  0  0  0
  -21.4445  -26.8110   24.4334 C   0  0  0  0  0  0  0  0  0  0  0  0
  -20.0976  -27.9576   22.7878 C   0  0  0  0  0  0  0  0  0  0  0  0
  -24.6680  -13.3965   21.8105 C   0  0  0  0  0  0  0  0  0  0  0  0
  -26.2290  -19.3836   20.5847 C   0  0  0  0  0  0  0  0  0  0  0  0
  -27.3070  -21.6955   20.6132 C   0  0  0  0  0  0  0  0  0  0  0  0
  -32.6325  -25.6854   17.5412 C   0  0  0  0  0  0  0  0  0  0  0  0
  -26.2081  -29.0676   18.6221 C   0  0  0  0  0  0  0  0  0  0  0  0
  -31.2302  -25.8037   17.4976 C   0  0  0  0  0  0  0  0  0  0  0  0
  -25.5566  -28.6905   19.8051 C   0  0  0  0  0  0  0  0  0  0  0  0
  -20.7606  -27.9524   24.0150 C   0  0  0  0  0  0  0  0  0  0  0  0
  -21.4655  -25.6748   23.6246 C   0  0  0  0  0  0  0  0  0  0  0  0
  -20.1185  -26.8213   21.9790 C   0  0  0  0  0  0  0  0  0  0  0  0
  -25.7692  -16.8461   19.5206 C   0  0  0  0  0  0  0  0  0  0  0  0
  -23.4947  -28.3785   18.5555 C   0  0  0  0  0  0  0  0  0  0  0  0
  -25.5579  -14.5323   19.8727 C   0  0  0  0  0  0  0  0  0  0  0  0
  -25.5860  -12.3626   21.6260 C   0  0  0  0  0  0  0  0  0  0  0  0
  -24.6540  -14.4814   20.9338 C   0  0  0  0  0  0  0  0  0  0  0  0
  -20.8025  -25.6799   22.3974 C   0  0  0  0  0  0  0  0  0  0  0  0
  -26.4656  -20.6943   21.1343 C   0  0  0  0  0  0  0  0  0  0  0  0
  -27.1840  -22.7409   21.4955 C   0  0  0  0  0  0  0  0  0  0  0  0
  -28.1265  -21.6817   19.4368 C   0  0  0  0  0  0  0  0  0  0  0  0
  -28.7214  -27.4280   19.6702 C   0  0  0  0  0  0  0  0  0  0  0  0
  -28.4155  -29.3640   22.2549 C   0  0  0  0  0  0  0  0  0  0  0  0
  -20.1120  -27.2987   19.5612 C   0  0  0  0  0  0  0  0  0  0  0  0
  -26.4011  -31.3471   24.1671 C   0  0  0  0  0  0  0  0  0  0  0  0
  -22.8702  -24.4004   25.2826 C   0  0  0  0  0  0  0  0  0  0  0  0
  -33.3726  -25.4948   18.8414 C   0  0  0  0  0  0  0  0  0  0  0  0
  -27.6570  -29.4708   18.6457 C   0  0  0  0  0  0  0  0  0  0  0  0
  -26.2776  -28.6418   21.1265 C   0  0  0  0  0  0  0  0  0  0  0  0
  -32.5524  -25.8772   20.0708 C   0  0  0  0  0  0  0  0  0  0  0  0
  -26.2559  -23.6640   26.1021 C   0  0  0  0  0  0  0  0  0  0  0  0
  -31.1493  -25.2854   19.9817 C   0  0  0  0  0  0  0  0  0  0  0  0
  -26.7723  -22.9153   24.8712 C   0  0  0  0  0  0  0  0  0  0  0  0
  -24.8008  -23.3148   26.4092 C   0  0  0  0  0  0  0  0  0  0  0  0
  -24.3887  -22.7283   24.0522 C   0  0  0  0  0  0  0  0  0  0  0  0
  -30.3975  -25.8296   18.7610 C   0  0  1  0  0  0  0  0  0  0  0  0
  -28.4193  -28.8908   19.8330 C   0  0  1  0  0  0  0  0  0  0  0  0
  -25.8302  -23.0968   23.6649 C   0  0  2  0  0  0  0  0  0  0  0  0
  -20.7383  -29.1676   24.8794 C   0  0  0  0  0  0  0  0  0  0  0  0
  -26.4251  -32.7652   26.2373 C   0  0  0  0  0  0  0  0  0  0  0  0
  -28.3558  -26.8461   23.9774 C   0  0  0  0  0  0  0  0  0  0  0  0
  -27.4422  -28.2334   25.8506 C   0  0  0  0  0  0  0  0  0  0  0  0
  -29.7054  -28.7264   24.9247 C   0  0  0  0  0  0  0  0  0  0  0  0
  -18.0053  -26.4590   20.6625 C   0  0  0  0  0  0  0  0  0  0  0  0
  -25.6950  -33.7853   22.6453 C   0  0  0  0  0  0  0  0  0  0  0  0
  -21.5795  -27.6484   19.7617 C   0  0  0  0  0  0  0  0  0  1  0  0
  -27.6561  -29.2957   23.5579 C   0  0  1  0  0  0  0  0  0  0  0  0
  -26.6012  -32.7439   24.7269 C   0  0  2  0  0  0  0  0  0  0  0  0
  -28.2765  -28.2744   24.5526 C   0  0  0  0  0  0  0  0  0  0  0  0
  -25.8535  -21.0700   22.2605 N   0  0  0  0  0  0  0  0  0  0  0  0
  -26.3107  -22.3187   22.4542 N   0  0  0  0  0  0  0  0  0  0  0  0
  -27.6949  -29.0392   21.0969 N   0  0  0  0  0  0  0  0  0  0  0  0
  -23.9670  -23.5149   25.2219 N   0  0  0  0  0  0  0  0  0  0  0  0
  -27.7388  -23.9709   21.5369 N   0  0  0  0  0  0  0  0  0  0  0  0
  -28.1357  -20.5270   18.6425 N   0  0  0  0  0  0  0  0  0  0  0  0
  -22.1707  -24.5348   24.0837 N   0  0  0  0  0  0  0  0  0  0  0  0
  -29.9133  -27.1684   19.0211 N   0  0  0  0  0  0  0  0  0  0  0  0
  -27.5934  -30.6619   24.0658 N   0  0  0  0  0  0  0  0  0  0  0  0
  -19.4181  -26.8660   20.7113 N   0  0  0  0  0  0  0  0  0  0  0  0
  -25.6178  -33.6887   24.1257 N   0  3  0  0  0  0  0  0  0  0  0  0
  -28.8423  -22.6582   19.1088 O   0  0  0  0  0  0  0  0  0  0  0  0
  -27.9322  -26.5963   20.1029 O   0  0  0  0  0  0  0  0  0  0  0  0
  -29.6023  -29.7002   22.2635 O   0  0  0  0  0  0  0  0  0  0  0  0
  -19.6316  -27.3817   18.4280 O   0  0  0  0  0  0  0  0  0  0  0  0
  -25.2972  -30.9066   23.8546 O   0  0  0  0  0  0  0  0  0  0  0  0
  -22.5896  -25.0163   26.3141 O   0  0  0  0  0  0  0  0  0  0  0  0
  -25.5447  -15.6083   19.0010 O   0  0  0  0  0  0  0  0  0  0  0  0
  -22.1774  -28.0386   18.5261 O   0  0  0  0  0  0  0  0  0  1  0  0
  -25.5986  -11.3200   22.4669 F   0  0  0  0  0  0  0  0  0  0  0  0
  -23.7690  -15.4711   21.1154 F   0  0  0  0  0  0  0  0  0  0  0  0
  -20.8286  -24.2662   21.3910 Cl  0  0  0  0  0  0  0  0  0  0  0  0
  1  2  1  0  0  0  0
  1  5  2  0  0  0  0
  2  6  2  0  0  0  0
  3  8  2  0  0  0  0
  3 17  1  0  0  0  0
  4  9  1  0  0  0  0
  4 17  2  0  0  0  0
  5 19  1  0  0  0  0
  6 21  1  0  0  0  0
  7 10  2  0  0  0  0
  7 20  1  0  0  0  0
  8 26  1  0  0  0  0
  9 26  2  0  0  0  0
 10 27  1  0  0  0  0
 11 12  2  0  0  0  0
 11 28  1  0  0  0  0
 12 29  1  0  0  0  0
 13 22  1  0  0  0  0
 13 27  2  0  0  0  0
 14 23  1  0  0  0  0
 14 24  2  0  0  0  0
 15 23  2  0  0  0  0
 15 25  1  0  0  0  0
 16 29  2  0  0  0  0
 16 30  1  0  0  0  0
 17 32  1  0  0  0  0
 18 32  1  0  0  0  0
 18 33  2  0  0  0  0
 18 34  1  0  0  0  0
 19 21  2  0  0  0  0
 19 40  1  0  0  0  0
 20 22  2  0  0  0  0
 20 41  1  0  0  0  0
 21 49  1  0  0  0  0
 22 42  1  0  0  0  0
 23 52  1  0  0  0  0
 24 31  1  0  0  0  0
 24 69  1  0  0  0  0
 25 31  2  0  0  0  0
 25 72  1  0  0  0  0
 26 80  1  0  0  0  0
 27 81  1  0  0  0  0
 28 30  2  0  0  0  0
 28 80  1  0  0  0  0
 29 82  1  0  0  0  0
 30 83  1  0  0  0  0
 31 84  1  0  0  0  0
 32 63  2  0  0  0  0
 33 64  1  0  0  0  0
 33 67  1  0  0  0  0
 34 68  1  0  0  0  0
 34 74  2  0  0  0  0
 35 50  1  0  0  0  0
 35 70  1  0  0  0  0
 35 75  2  0  0  0  0
 36 60  1  0  0  0  0
 36 65  1  0  0  0  0
 36 76  2  0  0  0  0
 37 59  1  0  0  0  0
 37 72  1  0  0  0  0
 37 77  2  0  0  0  0
 38 61  1  0  0  0  0
 38 71  1  0  0  0  0
 38 78  2  0  0  0  0
 39 66  1  0  0  0  0
 39 69  1  0  0  0  0
 39 79  2  0  0  0  0
 40 43  1  0  0  0  0
 41 50  1  0  0  0  0
 42 65  1  0  0  0  0
 43 45  1  0  0  0  0
 44 46  1  0  0  0  0
 44 47  1  0  0  0  0
 45 49  1  0  0  0  0
 46 51  1  0  0  0  0
 47 66  1  0  0  0  0
 48 51  1  0  0  0  0
 48 66  1  0  0  0  0
 49 70  1  0  0  0  0
 50 65  1  0  0  0  0
 51 64  1  0  0  0  0
 53 61  1  0  0  0  0
 54 62  1  0  0  0  0
 55 62  1  0  0  0  0
 56 62  1  0  0  0  0
 57 72  1  0  0  0  0
 58 73  1  0  0  0  0
 59 81  1  0  0  0  0
 60 62  1  0  0  0  0
 60 71  1  0  0  0  0
 61 73  1  0  0  0  0
 63 64  1  0  0  0  0
M  CHG  1  73   1
M  ISO  4  39 100  59 101  69 100  81 101
M  END
> <Batch ID>
0012

> <Smiles>
CNC(C)C(=O)NC(C(=O)N1Cc2cc([101O:1][101CH2:1]C(=O)N(C)c3cc(C)cc([100NH:0][100C:0](=O)N4CCCC(n5nc(-c6ccc(Oc7ccc(F)cc7F)cc6)c(C(N)=O)c5N)C4)c3Cl)ccc2CC1C(=O)NC1CCCc2ccccc21)C(C)(C)C

> <Shape>
0.226

> <Color>
0.067

> <Negative vol penalty>
0.000

$$$$

  -OEChem-04052315473D

 82 89  0     1  0  0  0  0  0999 V2000
  -34.3521  -28.0753   11.5115 C   0  0  0  0  0  0  0  0  0  0  0  0
  -34.3735  -26.7237   11.8403 C   0  0  0  0  0  0  0  0  0  0  0  0
  -23.1829   -9.7518   20.3211 C   0  0  0  0  0  0  0  0  0  0  0  0
  -23.7529  -10.1607   22.6331 C   0  0  0  0  0  0  0  0  0  0  0  0
  -34.2899  -29.0360   12.5200 C   0  0  0  0  0  0  0  0  0  0  0  0
  -34.3339  -26.3321   13.1781 C   0  0  0  0  0  0  0  0  0  0  0  0
  -31.1054  -22.5161   13.9904 C   0  0  0  0  0  0  0  0  0  0  0  0
  -22.4345   -8.6382   20.7025 C   0  0  0  0  0  0  0  0  0  0  0  0
  -23.0045   -9.0471   23.0145 C   0  0  0  0  0  0  0  0  0  0  0  0
  -31.5301  -21.2364   13.6358 C   0  0  0  0  0  0  0  0  0  0  0  0
  -19.7474   -8.2800   23.4874 C   0  0  0  0  0  0  0  0  0  0  0  0
  -18.8979   -8.4171   24.5852 C   0  0  0  0  0  0  0  0  0  0  0  0
  -32.0690  -20.7825   15.9429 C   0  0  0  0  0  0  0  0  0  0  0  0
  -20.0975   -6.6616   25.7326 C   0  0  0  0  0  0  0  0  0  0  0  0
  -23.8421  -10.5130   21.2864 C   0  0  0  0  0  0  0  0  0  0  0  0
  -24.1632  -12.9905   20.7700 C   0  0  0  0  0  0  0  0  0  0  0  0
  -34.2398  -28.6558   13.8703 C   0  0  0  0  0  0  0  0  0  0  0  0
  -31.1697  -22.9432   15.3245 C   0  0  0  0  0  0  0  0  0  0  0  0
  -34.2724  -27.2887   14.2056 C   0  0  0  0  0  0  0  0  0  0  0  0
  -31.6422  -22.0673   16.3122 C   0  0  0  0  0  0  0  0  0  0  0  0
  -22.3453   -8.2858   22.0492 C   0  0  0  0  0  0  0  0  0  0  0  0
  -32.0147  -20.3704   14.6117 C   0  0  0  0  0  0  0  0  0  0  0  0
  -20.7719   -7.3337   23.5122 C   0  0  0  0  0  0  0  0  0  0  0  0
  -19.0729   -7.6079   25.7078 C   0  0  0  0  0  0  0  0  0  0  0  0
  -20.9470   -6.5246   24.6348 C   0  0  0  0  0  0  0  0  0  0  0  0
  -24.6157  -11.6631   20.8930 C   0  0  0  0  0  0  0  0  0  0  0  0
  -25.2725  -13.6961   20.3726 C   0  0  0  0  0  0  0  0  0  0  0  0
  -22.8568  -13.5368   20.9950 C   0  0  0  0  0  0  0  0  0  0  0  0
  -29.0892  -16.1014   15.8837 C   0  0  0  0  0  0  0  0  0  0  0  0
  -28.6406  -17.0701   16.7129 C   0  0  0  0  0  0  0  0  0  0  0  0
  -29.6404  -16.4296   14.5322 C   0  0  0  0  0  0  0  0  0  0  0  0
  -32.7064  -25.2592   16.8668 C   0  0  0  0  0  0  0  0  0  0  0  0
  -30.9207  -24.2403   19.3758 C   0  0  0  0  0  0  0  0  0  0  0  0
  -29.1566  -21.7117   20.8391 C   0  0  0  0  0  0  0  0  0  0  0  0
  -29.8068  -14.3181   17.3334 C   0  0  0  0  0  0  0  0  0  0  0  0
  -34.2209  -29.7315   14.9272 C   0  0  0  0  0  0  0  0  0  0  0  0
  -30.6827  -24.3173   15.6947 C   0  0  0  0  0  0  0  0  0  0  0  0
  -31.7126  -22.4703   17.7617 C   0  0  0  0  0  0  0  0  0  0  0  0
  -33.8037  -29.2243   16.3053 C   0  0  0  0  0  0  0  0  0  0  0  0
  -30.1391  -12.3675   20.1795 C   0  0  0  0  0  0  0  0  0  0  0  0
  -34.5436  -27.9346   16.6459 C   0  0  0  0  0  0  0  0  0  0  0  0
  -28.6985  -12.1075   20.6173 C   0  0  0  0  0  0  0  0  0  0  0  0
  -30.2704  -12.2825   18.6637 C   0  0  0  0  0  0  0  0  0  0  0  0
  -27.9140  -12.9716   18.3551 C   0  0  0  0  0  0  0  0  0  0  0  0
  -34.2058  -26.8237   15.6442 C   0  0  1  0  0  0  0  0  0  0  0  0
  -31.2738  -24.8277   17.0052 C   0  0  1  0  0  0  0  0  0  0  0  0
  -27.7232  -13.0449   19.8842 C   0  0  1  0  0  0  0  0  0  0  0  0
  -28.0722  -16.8126   18.0890 C   0  0  0  0  0  0  0  0  0  0  0  0
  -27.3842  -18.9858   15.6461 C   0  0  0  0  0  0  0  0  0  0  0  0
  -27.8425  -21.1660   22.9062 C   0  0  0  0  0  0  0  0  0  0  0  0
  -33.5188  -23.9642   20.9517 C   0  0  0  0  0  0  0  0  0  0  0  0
  -32.2816  -22.5549   22.6103 C   0  0  0  0  0  0  0  0  0  0  0  0
  -31.6103  -24.9298   22.2476 C   0  0  0  0  0  0  0  0  0  0  0  0
  -28.4402  -13.8664   15.2419 C   0  0  0  0  0  0  0  0  0  0  0  0
  -26.6932  -21.2038   19.2794 C   0  0  0  0  0  0  0  0  0  0  0  0
  -28.6632  -18.5442   16.3434 C   0  0  0  0  0  0  0  0  0  0  0  0
  -31.7380  -17.0068   13.3565 C   0  0  0  0  0  0  0  0  0  0  0  0
  -31.7930  -18.5095   13.1474 C   0  0  0  0  0  0  0  0  0  1  0  0
  -31.0976  -23.2110   20.4659 C   0  0  1  0  0  0  0  0  0  0  0  0
  -27.7794  -21.6822   21.4771 C   0  0  2  0  0  0  0  0  0  0  0  0
  -32.1277  -23.6578   21.5414 C   0  0  0  0  0  0  0  0  0  0  0  0
  -25.9115  -11.5307   20.5974 N   0  0  0  0  0  0  0  0  0  0  0  0
  -26.2827  -12.7839   20.2847 N   0  0  0  0  0  0  0  0  0  0  0  0
  -31.2307  -23.8263   18.0726 N   0  0  0  0  0  0  0  0  0  0  0  0
  -29.3253  -13.1789   17.9973 N   0  0  0  0  0  0  0  0  0  0  0  0
  -25.4727  -15.0015   20.0931 N   0  0  0  0  0  0  0  0  0  0  0  0
  -21.8314  -12.6715   21.4000 N   0  0  0  0  0  0  0  0  0  0  0  0
  -31.0080  -16.6586   14.5465 N   0  0  0  0  0  0  0  0  0  0  0  0
  -32.9051  -26.2597   15.9346 N   0  0  0  0  0  0  0  0  0  0  0  0
  -29.7640  -22.9401   20.9919 N   0  0  0  0  0  0  0  0  0  0  0  0
  -29.0831  -14.7615   16.2110 N   0  0  0  0  0  0  0  0  0  0  0  0
  -26.8665  -20.7987   20.6981 N   0  3  0  0  0  0  0  0  0  0  0  0
  -22.6024  -14.7534   20.8255 O   0  0  0  0  0  0  0  0  0  0  0  0
  -28.9217  -16.4952   13.5391 O   0  0  0  0  0  0  0  0  0  0  0  0
  -33.5676  -24.7249   17.5557 O   0  0  0  0  0  0  0  0  0  0  0  0
  -30.5153  -25.3679   19.6688 O   0  0  0  0  0  0  0  0  0  0  0  0
  -29.6461  -20.7409   20.2661 O   0  0  0  0  0  0  0  0  0  0  0  0
  -30.8363  -14.8920   17.7138 O   0  0  0  0  0  0  0  0  0  0  0  0
  -21.6150   -7.1994   22.4218 O   0  0  0  0  0  0  0  0  0  0  0  0
  -32.4304  -19.1210   14.2682 O   0  0  0  0  0  0  0  0  0  1  0  0
  -18.2580   -7.7407   26.7625 F   0  0  0  0  0  0  0  0  0  0  0  0
  -21.9302   -5.6145   24.6649 F   0  0  0  0  0  0  0  0  0  0  0  0
  1  2  1  0  0  0  0
  1  5  2  0  0  0  0
  2  6  2  0  0  0  0
  3  8  2  0  0  0  0
  3 15  1  0  0  0  0
  4  9  1  0  0  0  0
  4 15  2  0  0  0  0
  5 17  1  0  0  0  0
  6 19  1  0  0  0  0
  7 10  2  0  0  0  0
  7 18  1  0  0  0  0
  8 21  1  0  0  0  0
  9 21  2  0  0  0  0
 10 22  1  0  0  0  0
 11 12  2  0  0  0  0
 11 23  1  0  0  0  0
 12 24  1  0  0  0  0
 13 20  1  0  0  0  0
 13 22  2  0  0  0  0
 14 24  2  0  0  0  0
 14 25  1  0  0  0  0
 15 26  1  0  0  0  0
 16 26  1  0  0  0  0
 16 27  2  0  0  0  0
 16 28  1  0  0  0  0
 17 19  2  0  0  0  0
 17 36  1  0  0  0  0
 18 20  2  0  0  0  0
 18 37  1  0  0  0  0
 19 45  1  0  0  0  0
 20 38  1  0  0  0  0
 21 79  1  0  0  0  0
 22 80  1  0  0  0  0
 23 25  2  0  0  0  0
 23 79  1  0  0  0  0
 24 81  1  0  0  0  0
 25 82  1  0  0  0  0
 26 62  2  0  0  0  0
 27 63  1  0  0  0  0
 27 66  1  0  0  0  0
 28 67  1  0  0  0  0
 28 73  2  0  0  0  0
 29 30  2  0  0  0  0
 29 31  1  0  0  0  0
 29 71  1  0  0  0  0
 30 48  1  0  0  0  0
 30 56  1  0  0  0  0
 31 68  1  0  0  0  0
 31 74  2  0  0  0  0
 32 46  1  0  0  0  0
 32 69  1  0  0  0  0
 32 75  2  0  0  0  0
 33 59  1  0  0  0  0
 33 64  1  0  0  0  0
 33 76  2  0  0  0  0
 34 60  1  0  0  0  0
 34 70  1  0  0  0  0
 34 77  2  0  0  0  0
 35 65  1  0  0  0  0
 35 71  1  0  0  0  0
 35 78  2  0  0  0  0
 36 39  1  0  0  0  0
 37 46  1  0  0  0  0
 38 64  1  0  0  0  0
 39 41  1  0  0  0  0
 40 42  1  0  0  0  0
 40 43  1  0  0  0  0
 41 45  1  0  0  0  0
 42 47  1  0  0  0  0
 43 65  1  0  0  0  0
 44 47  1  0  0  0  0
 44 65  1  0  0  0  0
 45 69  1  0  0  0  0
 46 64  1  0  0  0  0
 47 63  1  0  0  0  0
 49 56  1  0  0  0  0
 50 60  1  0  0  0  0
 51 61  1  0  0  0  0
 52 61  1  0  0  0  0
 53 61  1  0  0  0  0
 54 71  1  0  0  0  0
 55 72  1  0  0  0  0
 57 58  1  0  0  0  0
 57 68  1  0  0  0  0
 58 80  1  0  0  0  0
 59 61  1  0  0  0  0
 59 70  1  0  0  0  0
 60 72  1  0  0  0  0
 62 63  1  0  0  0  0
M  CHG  1  72   1
M  ISO  4  35 100  58 101  71 100  80 101
M  END
> <Batch ID>
0012

> <Smiles>
CCC(C)=C(C(=O)NC[101CH2:1][101O:1]c1ccc2c(c1)CN(C(=O)C(NC(=O)C(C)NC)C(C)(C)C)C(C(=O)NC1CCCc3ccccc31)C2)[100N:0](C)[100C:0](=O)N1CCCC(n2nc(-c3ccc(Oc4ccc(F)cc4F)cc3)c(C(N)=O)c2N)C1

> <Shape>
0.192

> <Color>
0.189

> <Negative vol penalty>
0.000

$$$$

  -OEChem-04052315473D

 86 94  0     1  0  0  0  0  0999 V2000
  -29.1333  -33.7743   17.3088 C   0  0  0  0  0  0  0  0  0  0  0  0
  -29.2632  -33.6014   18.6830 C   0  0  0  0  0  0  0  0  0  0  0  0
  -22.9861   -9.9805   19.9535 C   0  0  0  0  0  0  0  0  0  0  0  0
  -23.7614   -9.9275   22.2411 C   0  0  0  0  0  0  0  0  0  0  0  0
  -28.3905  -32.8626   16.5597 C   0  0  0  0  0  0  0  0  0  0  0  0
  -28.6494  -32.5172   19.3093 C   0  0  0  0  0  0  0  0  0  0  0  0
  -32.5129  -27.7115   23.0335 C   0  0  0  0  0  0  0  0  0  0  0  0
  -22.2135   -8.8434   20.1889 C   0  0  0  0  0  0  0  0  0  0  0  0
  -22.9887   -8.7904   22.4766 C   0  0  0  0  0  0  0  0  0  0  0  0
  -33.1557  -26.8673   23.9392 C   0  0  0  0  0  0  0  0  0  0  0  0
  -23.1872   -5.4720   21.8602 C   0  0  0  0  0  0  0  0  0  0  0  0
  -23.7799   -4.4184   22.5559 C   0  0  0  0  0  0  0  0  0  0  0  0
  -31.0937  -25.6528   24.2870 C   0  0  0  0  0  0  0  0  0  0  0  0
  -30.5268  -18.8472   23.2990 C   0  0  0  0  0  0  0  0  0  0  0  0
  -31.9860  -17.1648   21.6188 C   0  0  0  0  0  0  0  0  0  0  0  0
  -22.0953   -4.6074   24.2774 C   0  0  0  0  0  0  0  0  0  0  0  0
  -23.7601  -10.5226   20.9795 C   0  0  0  0  0  0  0  0  0  0  0  0
  -24.1683  -13.0395   20.9005 C   0  0  0  0  0  0  0  0  0  0  0  0
  -27.7753  -31.7614   17.1757 C   0  0  0  0  0  0  0  0  0  0  0  0
  -31.1602  -27.5197   22.7391 C   0  0  0  0  0  0  0  0  0  0  0  0
  -27.8965  -31.5907   18.5680 C   0  0  0  0  0  0  0  0  0  0  0  0
  -30.4476  -26.4875   23.3713 C   0  0  0  0  0  0  0  0  0  0  0  0
  -31.8184  -19.2008   22.9086 C   0  0  0  0  0  0  0  0  0  0  0  0
  -30.6944  -16.8112   22.0092 C   0  0  0  0  0  0  0  0  0  0  0  0
  -22.2147   -8.2483   21.4505 C   0  0  0  0  0  0  0  0  0  0  0  0
  -32.4478  -25.8407   24.5645 C   0  0  0  0  0  0  0  0  0  0  0  0
  -22.0485   -6.0934   22.3730 C   0  0  0  0  0  0  0  0  0  0  0  0
  -23.2340   -3.9861   23.7645 C   0  0  0  0  0  0  0  0  0  0  0  0
  -32.5480  -18.3596   22.0685 C   0  0  0  0  0  0  0  0  0  0  0  0
  -21.5025   -5.6611   23.5816 C   0  0  0  0  0  0  0  0  0  0  0  0
  -29.9648  -17.6523   22.8493 C   0  0  0  0  0  0  0  0  0  0  0  0
  -24.5589  -11.6969   20.7368 C   0  0  0  0  0  0  0  0  0  0  0  0
  -25.2776  -13.7659   20.5423 C   0  0  0  0  0  0  0  0  0  0  0  0
  -22.9149  -13.5815   21.3373 C   0  0  0  0  0  0  0  0  0  0  0  0
  -28.1641  -28.6433   20.7803 C   0  0  0  0  0  0  0  0  0  0  0  0
  -28.1280  -25.5759   20.7827 C   0  0  0  0  0  0  0  0  0  0  0  0
  -34.1179  -21.0987   25.1082 C   0  0  0  0  0  0  0  0  0  0  0  0
  -28.6829  -22.2120   20.6658 C   0  0  0  0  0  0  0  0  0  0  0  0
  -30.7708  -14.6629   20.6956 C   0  0  0  0  0  0  0  0  0  0  0  0
  -26.9432  -30.8287   16.3316 C   0  0  0  0  0  0  0  0  0  0  0  0
  -30.4120  -28.4432   21.8166 C   0  0  0  0  0  0  0  0  0  0  0  0
  -28.9853  -26.3402   23.0501 C   0  0  0  0  0  0  0  0  0  0  0  0
  -26.6359  -29.4990   17.0154 C   0  0  0  0  0  0  0  0  0  0  0  0
  -29.5765  -12.3210   18.2943 C   0  0  0  0  0  0  0  0  0  0  0  0
  -26.1721  -29.7311   18.4500 C   0  0  0  0  0  0  0  0  0  0  0  0
  -28.1325  -12.0603   18.7291 C   0  0  0  0  0  0  0  0  0  0  0  0
  -30.5055  -12.5045   19.4931 C   0  0  0  0  0  0  0  0  0  0  0  0
  -28.6278  -13.2553   20.9003 C   0  0  0  0  0  0  0  0  0  0  0  0
  -27.2661  -30.4134   19.2799 C   0  0  1  0  0  0  0  0  0  0  0  0
  -29.3317  -27.7242   20.9888 C   0  0  1  0  0  0  0  0  0  0  0  0
  -27.6428  -13.1283   19.7267 C   0  0  2  0  0  0  0  0  0  0  0  0
  -35.0833  -20.6369   26.1335 C   0  0  0  0  0  0  0  0  0  0  0  0
  -27.7003  -20.0834   19.7708 C   0  0  0  0  0  0  0  0  0  0  0  0
  -26.0232  -25.6238   22.9899 C   0  0  0  0  0  0  0  0  0  0  0  0
  -25.7314  -23.1582   22.6675 C   0  0  0  0  0  0  0  0  0  0  0  0
  -25.2171  -24.7282   20.7984 C   0  0  0  0  0  0  0  0  0  0  0  0
  -31.0743  -21.6683   19.0092 C   0  0  0  0  0  0  0  0  0  0  0  0
  -32.4196  -20.4858   23.3936 C   0  0  0  0  0  0  0  0  0  0  0  0
  -34.8246  -23.3859   25.6943 C   0  0  0  0  0  0  0  0  0  0  0  0
  -34.4734  -24.7839   25.2262 C   0  0  0  0  0  0  0  0  0  1  0  0
  -27.6266  -24.3173   21.4445 C   0  0  1  0  0  0  0  0  0  0  0  0
  -28.6673  -21.2278   19.5101 C   0  0  2  0  0  0  0  0  0  0  0  0
  -26.1751  -24.4677   21.9812 C   0  0  0  0  0  0  0  0  0  0  0  0
  -25.8179  -11.5749   20.3078 N   0  0  0  0  0  0  0  0  0  0  0  0
  -26.2281  -12.8500   20.1989 N   0  0  0  0  0  0  0  0  0  0  0  0
  -28.7687  -26.5107   21.6049 N   0  0  0  0  0  0  0  0  0  0  0  0
  -29.9801  -13.5344   20.3920 N   0  0  0  0  0  0  0  0  0  0  0  0
  -25.5230  -15.0924   20.4906 N   0  0  0  0  0  0  0  0  0  0  0  0
  -21.8814  -12.6938   21.6662 N   0  0  0  0  0  0  0  0  0  0  0  0
  -30.1538  -15.5905   21.5344 N   0  0  0  0  0  0  0  0  0  0  0  0
  -28.2785  -29.4546   19.6676 N   0  0  0  0  0  0  0  0  0  0  0  0
  -34.0312  -22.4219   24.9354 N   0  0  0  0  0  0  0  0  0  0  0  0
  -27.7943  -23.2474   20.4669 N   0  0  0  0  0  0  0  0  0  0  0  0
  -33.4095  -20.1886   24.4339 N   0  3  0  0  0  0  0  0  0  0  0  0
  -30.0269  -20.6554   19.2988 N   0  3  0  0  0  0  0  0  0  0  0  0
  -22.7119  -14.8168   21.4175 O   0  0  0  0  0  0  0  0  0  0  0  0
  -27.2269  -28.6181   21.5694 O   0  0  0  0  0  0  0  0  0  0  0  0
  -27.9525  -25.7311   19.5709 O   0  0  0  0  0  0  0  0  0  0  0  0
  -29.4080  -22.0739   21.6485 O   0  0  0  0  0  0  0  0  0  0  0  0
  -31.9008  -14.8097   20.2228 O   0  0  0  0  0  0  0  0  0  0  0  0
  -21.4607   -7.1388   21.6806 O   0  0  0  0  0  0  0  0  0  0  0  0
  -33.0826  -25.0174   25.4443 O   0  0  0  0  0  0  0  0  0  1  0  0
  -23.8024   -2.9733   24.4318 F   0  0  0  0  0  0  0  0  0  0  0  0
  -33.7899  -18.6910   21.6883 F   0  0  0  0  0  0  0  0  0  0  0  0
  -20.4080   -6.2534   24.0787 F   0  0  0  0  0  0  0  0  0  0  0  0
  -28.3626  -17.2526   23.3573 Cl  0  0  0  0  0  0  0  0  0  0  0  0
  1  2  1  0  0  0  0
  1  5  2  0  0  0  0
  2  6  2  0  0  0  0
  3  8  2  0  0  0  0
  3 17  1  0  0  0  0
  4  9  1  0  0  0  0
  4 17  2  0  0  0  0
  5 19  1  0  0  0  0
  6 21  1  0  0  0  0
  7 10  2  0  0  0  0
  7 20  1  0  0  0  0
  8 25  1  0  0  0  0
  9 25  2  0  0  0  0
 10 26  1  0  0  0  0
 11 12  2  0  0  0  0
 11 27  1  0  0  0  0
 12 28  1  0  0  0  0
 13 22  1  0  0  0  0
 13 26  2  0  0  0  0
 14 23  1  0  0  0  0
 14 31  2  0  0  0  0
 15 24  2  0  0  0  0
 15 29  1  0  0  0  0
 16 28  2  0  0  0  0
 16 30  1  0  0  0  0
 17 32  1  0  0  0  0
 18 32  1  0  0  0  0
 18 33  2  0  0  0  0
 18 34  1  0  0  0  0
 19 21  2  0  0  0  0
 19 40  1  0  0  0  0
 20 22  2  0  0  0  0
 20 41  1  0  0  0  0
 21 49  1  0  0  0  0
 22 42  1  0  0  0  0
 23 29  2  0  0  0  0
 23 58  1  0  0  0  0
 24 31  1  0  0  0  0
 24 70  1  0  0  0  0
 25 81  1  0  0  0  0
 26 82  1  0  0  0  0
 27 30  2  0  0  0  0
 27 81  1  0  0  0  0
 28 83  1  0  0  0  0
 29 84  1  0  0  0  0
 30 85  1  0  0  0  0
 31 86  1  0  0  0  0
 32 64  2  0  0  0  0
 33 65  1  0  0  0  0
 33 68  1  0  0  0  0
 34 69  1  0  0  0  0
 34 76  2  0  0  0  0
 35 50  1  0  0  0  0
 35 71  1  0  0  0  0
 35 77  2  0  0  0  0
 36 61  1  0  0  0  0
 36 66  1  0  0  0  0
 36 78  2  0  0  0  0
 37 52  1  0  0  0  0
 37 72  1  0  0  0  0
 37 74  2  0  0  0  0
 38 62  1  0  0  0  0
 38 73  1  0  0  0  0
 38 79  2  0  0  0  0
 39 67  1  0  0  0  0
 39 70  1  0  0  0  0
 39 80  2  0  0  0  0
 40 43  1  0  0  0  0
 41 50  1  0  0  0  0
 42 66  1  0  0  0  0
 43 45  1  0  0  0  0
 44 46  1  0  0  0  0
 44 47  1  0  0  0  0
 45 49  1  0  0  0  0
 46 51  1  0  0  0  0
 47 67  1  0  0  0  0
 48 51  1  0  0  0  0
 48 67  1  0  0  0  0
 49 71  1  0  0  0  0
 50 66  1  0  0  0  0
 51 65  1  0  0  0  0
 53 62  1  0  0  0  0
 54 63  1  0  0  0  0
 55 63  1  0  0  0  0
 56 63  1  0  0  0  0
 57 75  1  0  0  0  0
 58 74  1  0  0  0  0
 59 60  1  0  0  0  0
 59 72  1  0  0  0  0
 60 82  1  0  0  0  0
 61 63  1  0  0  0  0
 61 73  1  0  0  0  0
 62 75  1  0  0  0  0
 64 65  1  0  0  0  0
M  CHG  2  74   1  75   1
M  ISO  4  39 100  60 101  70 100  82 101
M  END
> <Batch ID>
0012

> <Smiles>
CNC(C)C(=O)NC(C(=O)N1Cc2cc([101O:1][101CH2:1]CN=C(C)NCc3cc(Cl)c([100NH:0][100C:0](=O)N4CCCC(n5nc(-c6ccc(Oc7ccc(F)cc7F)cc6)c(C(N)=O)c5N)C4)cc3F)ccc2CC1C(=O)NC1CCCc2ccccc21)C(C)(C)C

> <Shape>
0.252

> <Color>
0.198

> <Negative vol penalty>
0.000

$$$$

  -OEChem-04052315473D

 85 93  0     1  0  0  0  0  0999 V2000
  -26.9796  -33.7300   26.1375 C   0  0  0  0  0  0  0  0  0  0  0  0
  -27.3476  -32.5755   25.4540 C   0  0  0  0  0  0  0  0  0  0  0  0
  -23.6475  -14.5372   21.8560 C   0  0  0  0  0  0  0  0  0  0  0  0
  -25.8239  -15.4529   21.3443 C   0  0  0  0  0  0  0  0  0  0  0  0
  -25.6483  -33.9292   26.5007 C   0  0  0  0  0  0  0  0  0  0  0  0
  -26.3847  -31.6190   25.1343 C   0  0  0  0  0  0  0  0  0  0  0  0
  -26.8231  -29.9354   20.3784 C   0  0  0  0  0  0  0  0  0  0  0  0
  -24.0865  -13.2734   21.4617 C   0  0  0  0  0  0  0  0  0  0  0  0
  -26.2629  -14.1890   20.9500 C   0  0  0  0  0  0  0  0  0  0  0  0
  -27.8257  -29.0007   20.1237 C   0  0  0  0  0  0  0  0  0  0  0  0
  -25.9447  -10.7646   22.7602 C   0  0  0  0  0  0  0  0  0  0  0  0
  -25.6250   -9.6824   23.5800 C   0  0  0  0  0  0  0  0  0  0  0  0
  -26.1887  -27.2309   20.2070 C   0  0  0  0  0  0  0  0  0  0  0  0
  -27.0650  -24.1503   16.0508 C   0  0  0  0  0  0  0  0  0  0  0  0
  -24.8081  -23.6824   16.7748 C   0  0  0  0  0  0  0  0  0  0  0  0
  -24.4243   -8.6533   21.7533 C   0  0  0  0  0  0  0  0  0  0  0  0
  -24.5162  -15.6271   21.7973 C   0  0  0  0  0  0  0  0  0  0  0  0
  -24.1311  -17.4928   23.4938 C   0  0  0  0  0  0  0  0  0  0  0  0
  -24.6669  -32.9791   26.1767 C   0  0  0  0  0  0  0  0  0  0  0  0
  -25.4952  -29.5231   20.5604 C   0  0  0  0  0  0  0  0  0  0  0  0
  -25.0393  -31.8050   25.4946 C   0  0  0  0  0  0  0  0  0  0  0  0
  -25.1706  -28.1626   20.4613 C   0  0  0  0  0  0  0  0  0  0  0  0
  -25.6878  -24.2594   15.8589 C   0  0  0  0  0  0  0  0  0  0  0  0
  -27.5627  -23.4641   17.1586 C   0  0  0  0  0  0  0  0  0  0  0  0
  -25.3057  -22.9962   17.8826 C   0  0  0  0  0  0  0  0  0  0  0  0
  -25.3942  -13.0993   21.0087 C   0  0  0  0  0  0  0  0  0  0  0  0
  -27.5091  -27.6480   20.0409 C   0  0  0  0  0  0  0  0  0  0  0  0
  -25.5041  -10.7913   21.4369 C   0  0  0  0  0  0  0  0  0  0  0  0
  -24.8648   -8.6267   23.0766 C   0  0  0  0  0  0  0  0  0  0  0  0
  -24.7440   -9.7356   20.9335 C   0  0  0  0  0  0  0  0  0  0  0  0
  -26.6830  -22.8871   18.0745 C   0  0  0  0  0  0  0  0  0  0  0  0
  -24.0631  -16.9330   22.2039 C   0  0  0  0  0  0  0  0  0  0  0  0
  -23.5745  -18.7409   23.3561 C   0  0  0  0  0  0  0  0  0  0  0  0
  -24.6509  -16.9346   24.7078 C   0  0  0  0  0  0  0  0  0  0  0  0
  -23.4031  -29.6861   22.9479 C   0  0  0  0  0  0  0  0  0  0  0  0
  -21.3683  -28.4756   20.7305 C   0  0  0  0  0  0  0  0  0  0  0  0
  -30.4264  -25.2995   18.1017 C   0  0  0  0  0  0  0  0  0  0  0  0
  -20.9495  -26.7083   17.8412 C   0  0  0  0  0  0  0  0  0  0  0  0
  -22.9896  -22.4606   18.7164 C   0  0  0  0  0  0  0  0  0  0  0  0
  -23.2487  -33.2162   26.6319 C   0  0  0  0  0  0  0  0  0  0  0  0
  -24.4210  -30.5464   20.8079 C   0  0  0  0  0  0  0  0  0  0  0  0
  -23.7571  -27.6703   20.6289 C   0  0  0  0  0  0  0  0  0  0  0  0
  -22.2261  -32.3294   25.9260 C   0  0  0  0  0  0  0  0  0  0  0  0
  -20.3677  -21.1425   20.7326 C   0  0  0  0  0  0  0  0  0  0  0  0
  -22.7076  -30.8824   25.8919 C   0  0  0  0  0  0  0  0  0  0  0  0
  -21.0256  -19.9681   21.4607 C   0  0  0  0  0  0  0  0  0  0  0  0
  -20.8816  -21.2818   19.3007 C   0  0  0  0  0  0  0  0  0  0  0  0
  -23.0005  -20.1758   19.8975 C   0  0  0  0  0  0  0  0  0  0  0  0
  -24.0195  -30.7558   25.1081 C   0  0  1  0  0  0  0  0  0  0  0  0
  -23.1857  -29.9636   21.4873 C   0  0  1  0  0  0  0  0  0  0  0  0
  -22.5624  -20.0351   21.3644 C   0  0  2  0  0  0  0  0  0  0  0  0
  -25.1564  -24.9940   14.6750 C   0  0  0  0  0  0  0  0  0  0  0  0
  -19.1666  -25.8505   16.2976 C   0  0  0  0  0  0  0  0  0  0  0  0
  -20.7085  -26.2636   22.7259 C   0  0  0  0  0  0  0  0  0  0  0  0
  -19.7019  -24.9592   20.8408 C   0  0  0  0  0  0  0  0  0  0  0  0
  -18.7367  -27.1683   21.4817 C   0  0  0  0  0  0  0  0  0  0  0  0
  -21.9978  -28.2847   15.5664 C   0  0  0  0  0  0  0  0  0  0  0  0
  -29.0521  -23.3719   17.3236 C   0  0  0  0  0  0  0  0  0  0  0  0
  -30.7593  -26.0667   19.3718 C   0  0  0  0  0  0  0  0  0  0  0  0
  -29.8136  -27.2299   19.6283 C   0  0  0  0  0  0  0  0  0  1  0  0
  -20.9666  -27.0878   20.2928 C   0  0  1  0  0  0  0  0  0  0  0  0
  -20.1263  -26.9914   16.5976 C   0  0  2  0  0  0  0  0  0  0  0  0
  -20.0555  -26.3785   21.3340 C   0  0  0  0  0  0  0  0  0  0  0  0
  -23.5071  -17.7577   21.3125 N   0  0  0  0  0  0  0  0  0  0  0  0
  -23.2205  -18.8485   22.0434 N   0  0  0  0  0  0  0  0  0  0  0  0
  -22.7432  -28.7089   20.8755 N   0  0  0  0  0  0  0  0  0  0  0  0
  -22.3447  -21.3434   19.2881 N   0  0  0  0  0  0  0  0  0  0  0  0
  -23.3582  -19.7459   24.2312 N   0  0  0  0  0  0  0  0  0  0  0  0
  -25.1864  -15.6399   24.6723 N   0  0  0  0  0  0  0  0  0  0  0  0
  -24.3816  -22.4237   18.7915 N   0  0  0  0  0  0  0  0  0  0  0  0
  -23.7637  -30.7983   23.6843 N   0  0  0  0  0  0  0  0  0  0  0  0
  -29.5385  -24.2631   18.3521 N   0  0  0  0  0  0  0  0  0  0  0  0
  -20.3631  -27.2349   18.9727 N   0  0  0  0  0  0  0  0  0  0  0  0
  -21.0175  -27.1784   15.4179 N   0  3  0  0  0  0  0  0  0  0  0  0
  -24.6258  -17.5590   25.7955 O   0  0  0  0  0  0  0  0  0  0  0  0
  -23.2532  -28.5474   23.3754 O   0  0  0  0  0  0  0  0  0  0  0  0
  -20.4948  -29.3236   20.9294 O   0  0  0  0  0  0  0  0  0  0  0  0
  -30.8964  -25.5801   17.0025 O   0  0  0  0  0  0  0  0  0  0  0  0
  -22.0051  -26.0795   17.8124 O   0  0  0  0  0  0  0  0  0  0  0  0
  -22.3531  -23.3950   18.2227 O   0  0  0  0  0  0  0  0  0  0  0  0
  -25.8230  -11.8661   20.6240 O   0  0  0  0  0  0  0  0  0  0  0  0
  -28.4859  -26.7335   19.7930 O   0  0  0  0  0  0  0  0  0  1  0  0
  -24.5592   -7.5868   23.8635 F   0  0  0  0  0  0  0  0  0  0  0  0
  -24.3189   -9.7550   19.6628 F   0  0  0  0  0  0  0  0  0  0  0  0
  -27.3079  -22.0351   19.4489 Cl  0  0  0  0  0  0  0  0  0  0  0  0
  1  2  1  0  0  0  0
  1  5  2  0  0  0  0
  2  6  2  0  0  0  0
  3  8  2  0  0  0  0
  3 17  1  0  0  0  0
  4  9  1  0  0  0  0
  4 17  2  0  0  0  0
  5 19  1  0  0  0  0
  6 21  1  0  0  0  0
  7 10  2  0  0  0  0
  7 20  1  0  0  0  0
  8 26  1  0  0  0  0
  9 26  2  0  0  0  0
 10 27  1  0  0  0  0
 11 12  2  0  0  0  0
 11 28  1  0  0  0  0
 12 29  1  0  0  0  0
 13 22  1  0  0  0  0
 13 27  2  0  0  0  0
 14 23  2  0  0  0  0
 14 24  1  0  0  0  0
 15 23  1  0  0  0  0
 15 25  2  0  0  0  0
 16 29  2  0  0  0  0
 16 30  1  0  0  0  0
 17 32  1  0  0  0  0
 18 32  1  0  0  0  0
 18 33  2  0  0  0  0
 18 34  1  0  0  0  0
 19 21  2  0  0  0  0
 19 40  1  0  0  0  0
 20 22  2  0  0  0  0
 20 41  1  0  0  0  0
 21 49  1  0  0  0  0
 22 42  1  0  0  0  0
 23 52  1  0  0  0  0
 24 31  2  0  0  0  0
 24 58  1  0  0  0  0
 25 31  1  0  0  0  0
 25 70  1  0  0  0  0
 26 81  1  0  0  0  0
 27 82  1  0  0  0  0
 28 30  2  0  0  0  0
 28 81  1  0  0  0  0
 29 83  1  0  0  0  0
 30 84  1  0  0  0  0
 31 85  1  0  0  0  0
 32 64  2  0  0  0  0
 33 65  1  0  0  0  0
 33 68  1  0  0  0  0
 34 69  1  0  0  0  0
 34 75  2  0  0  0  0
 35 50  1  0  0  0  0
 35 71  1  0  0  0  0
 35 76  2  0  0  0  0
 36 61  1  0  0  0  0
 36 66  1  0  0  0  0
 36 77  2  0  0  0  0
 37 59  1  0  0  0  0
 37 72  1  0  0  0  0
 37 78  2  0  0  0  0
 38 62  1  0  0  0  0
 38 73  1  0  0  0  0
 38 79  2  0  0  0  0
 39 67  1  0  0  0  0
 39 70  1  0  0  0  0
 39 80  2  0  0  0  0
 40 43  1  0  0  0  0
 41 50  1  0  0  0  0
 42 66  1  0  0  0  0
 43 45  1  0  0  0  0
 44 46  1  0  0  0  0
 44 47  1  0  0  0  0
 45 49  1  0  0  0  0
 46 51  1  0  0  0  0
 47 67  1  0  0  0  0
 48 51  1  0  0  0  0
 48 67  1  0  0  0  0
 49 71  1  0  0  0  0
 50 66  1  0  0  0  0
 51 65  1  0  0  0  0
 53 62  1  0  0  0  0
 54 63  1  0  0  0  0
 55 63  1  0  0  0  0
 56 63  1  0  0  0  0
 57 74  1  0  0  0  0
 58 72  1  0  0  0  0
 59 60  1  0  0  0  0
 60 82  1  0  0  0  0
 61 63  1  0  0  0  0
 61 73  1  0  0  0  0
 62 74  1  0  0  0  0
 64 65  1  0  0  0  0
M  CHG  1  74   1
M  ISO  4  39 100  60 101  70 100  82 101
M  END
> <Batch ID>
0012

> <Smiles>
CNC(C)C(=O)NC(C(=O)N1Cc2cc([101O:1][101CH2:1]CC(=O)NCc3cc(C)cc([100NH:0][100C:0](=O)N4CCCC(n5nc(-c6ccc(Oc7ccc(F)cc7F)cc6)c(C(N)=O)c5N)C4)c3Cl)ccc2CC1C(=O)NC1CCCc2ccccc21)C(C)(C)C

> <Shape>
0.225

> <Color>
0.072

> <Negative vol penalty>
0.000

$$$$

  -OEChem-04052315473D

 83 91  0     1  0  0  0  0  0999 V2000
  -30.4654  -30.5346   14.6262 C   0  0  0  0  0  0  0  0  0  0  0  0
  -31.0948  -29.7150   15.5577 C   0  0  0  0  0  0  0  0  0  0  0  0
  -22.9155  -10.0708   19.9733 C   0  0  0  0  0  0  0  0  0  0  0  0
  -23.7212   -9.9463   22.2476 C   0  0  0  0  0  0  0  0  0  0  0  0
  -29.1004  -30.7952   14.7384 C   0  0  0  0  0  0  0  0  0  0  0  0
  -30.3596  -29.1565   16.6027 C   0  0  0  0  0  0  0  0  0  0  0  0
  -31.1951  -23.6564   19.1633 C   0  0  0  0  0  0  0  0  0  0  0  0
  -32.7705  -18.0980   22.1265 C   0  0  0  0  0  0  0  0  0  0  0  0
  -32.1772  -16.9281   21.6523 C   0  0  0  0  0  0  0  0  0  0  0  0
  -22.1080   -8.9560   20.1983 C   0  0  0  0  0  0  0  0  0  0  0  0
  -22.9137   -8.8314   22.4726 C   0  0  0  0  0  0  0  0  0  0  0  0
  -31.8508  -23.2527   20.3256 C   0  0  0  0  0  0  0  0  0  0  0  0
  -21.3360   -5.7359   23.5395 C   0  0  0  0  0  0  0  0  0  0  0  0
  -21.9011   -4.6506   24.2090 C   0  0  0  0  0  0  0  0  0  0  0  0
  -29.7517  -23.2854   21.5139 C   0  0  0  0  0  0  0  0  0  0  0  0
  -30.7710  -18.6016   23.3856 C   0  0  0  0  0  0  0  0  0  0  0  0
  -23.5558   -4.4343   22.4620 C   0  0  0  0  0  0  0  0  0  0  0  0
  -23.7222  -10.5660   20.9979 C   0  0  0  0  0  0  0  0  0  0  0  0
  -24.2147  -13.0687   20.9614 C   0  0  0  0  0  0  0  0  0  0  0  0
  -28.3461  -30.2318   15.7798 C   0  0  0  0  0  0  0  0  0  0  0  0
  -29.8122  -23.8886   19.1703 C   0  0  0  0  0  0  0  0  0  0  0  0
  -28.9834  -29.4109   16.7297 C   0  0  0  0  0  0  0  0  0  0  0  0
  -29.0804  -23.6895   20.3497 C   0  0  0  0  0  0  0  0  0  0  0  0
  -32.0674  -18.9348   22.9932 C   0  0  0  0  0  0  0  0  0  0  0  0
  -30.8808  -16.5949   22.0447 C   0  0  0  0  0  0  0  0  0  0  0  0
  -22.1070   -8.3363   21.4480 C   0  0  0  0  0  0  0  0  0  0  0  0
  -31.1296  -23.0699   21.5018 C   0  0  0  0  0  0  0  0  0  0  0  0
  -21.8807   -6.1704   22.3311 C   0  0  0  0  0  0  0  0  0  0  0  0
  -30.1776  -17.4317   22.9114 C   0  0  0  0  0  0  0  0  0  0  0  0
  -23.0110   -3.9998   23.6703 C   0  0  0  0  0  0  0  0  0  0  0  0
  -22.9906   -5.5196   21.7924 C   0  0  0  0  0  0  0  0  0  0  0  0
  -24.5569  -11.7172   20.7659 C   0  0  0  0  0  0  0  0  0  0  0  0
  -25.3429  -13.7642   20.6007 C   0  0  0  0  0  0  0  0  0  0  0  0
  -22.9869  -13.6440   21.4274 C   0  0  0  0  0  0  0  0  0  0  0  0
  -27.9590  -26.4149   18.6342 C   0  0  0  0  0  0  0  0  0  0  0  0
  -25.5722  -24.2380   18.9285 C   0  0  0  0  0  0  0  0  0  0  0  0
  -24.5258  -21.2359   20.1692 C   0  0  0  0  0  0  0  0  0  0  0  0
  -30.8650  -14.4718   20.6888 C   0  0  0  0  0  0  0  0  0  0  0  0
  -26.8827  -30.5805   15.8871 C   0  0  0  0  0  0  0  0  0  0  0  0
  -29.1155  -24.2979   17.9016 C   0  0  0  0  0  0  0  0  0  0  0  0
  -27.5909  -23.9058   20.4049 C   0  0  0  0  0  0  0  0  0  0  0  0
  -26.1003  -29.6479   16.8081 C   0  0  0  0  0  0  0  0  0  0  0  0
  -29.5573  -12.2196   18.2609 C   0  0  0  0  0  0  0  0  0  0  0  0
  -26.8561  -29.4309   18.1152 C   0  0  0  0  0  0  0  0  0  0  0  0
  -28.1117  -11.9993   18.7123 C   0  0  0  0  0  0  0  0  0  0  0  0
  -30.5091  -12.3479   19.4489 C   0  0  0  0  0  0  0  0  0  0  0  0
  -28.6785  -13.1336   20.8984 C   0  0  0  0  0  0  0  0  0  0  0  0
  -28.2150  -28.7666   17.8630 C   0  0  1  0  0  0  0  0  0  0  0  0
  -27.7857  -25.0028   18.1508 C   0  0  1  0  0  0  0  0  0  0  0  0
  -27.6730  -13.0633   19.7375 C   0  0  2  0  0  0  0  0  0  0  0  0
  -22.5112  -19.7435   20.2774 C   0  0  0  0  0  0  0  0  0  0  0  0
  -24.3340  -26.0660   21.0345 C   0  0  0  0  0  0  0  0  0  0  0  0
  -22.9075  -24.1426   21.7649 C   0  0  0  0  0  0  0  0  0  0  0  0
  -22.6943  -25.0420   19.4479 C   0  0  0  0  0  0  0  0  0  0  0  0
  -34.0236  -20.4608   23.0603 C   0  0  0  0  0  0  0  0  0  0  0  0
  -25.9272  -19.0472   18.7534 C   0  0  0  0  0  0  0  0  0  0  0  0
  -27.8425  -17.6175   22.5013 C   0  0  0  0  0  0  0  0  0  0  0  0
  -31.9577  -21.0049   24.3581 C   0  0  0  0  0  0  0  0  0  0  0  0
  -31.0157  -21.8977   23.5679 C   0  0  0  0  0  0  0  0  0  1  0  0
  -24.7466  -23.7050   20.0746 C   0  0  1  0  0  0  0  0  0  0  0  0
  -23.7861  -20.0802   19.5197 C   0  0  2  0  0  0  0  0  0  0  0  0
  -23.6990  -24.7366   20.5802 C   0  0  0  0  0  0  0  0  0  0  0  0
  -25.8048  -11.5612   20.3159 N   0  0  0  0  0  0  0  0  0  0  0  0
  -26.2565  -12.8237   20.2254 N   0  0  0  0  0  0  0  0  0  0  0  0
  -26.9563  -24.3116   19.1400 N   0  0  0  0  0  0  0  0  0  0  0  0
  -30.0321  -13.3769   20.3754 N   0  0  0  0  0  0  0  0  0  0  0  0
  -25.6325  -15.0824   20.5710 N   0  0  0  0  0  0  0  0  0  0  0  0
  -21.9286  -12.7854   21.7545 N   0  0  0  0  0  0  0  0  0  0  0  0
  -30.2922  -15.4028   21.5546 N   0  0  0  0  0  0  0  0  0  0  0  0
  -28.0477  -27.3497   17.6204 N   0  0  0  0  0  0  0  0  0  0  0  0
  -24.1712  -22.4465   19.6125 N   0  0  0  0  0  0  0  0  0  0  0  0
  -32.6636  -20.1097   23.4702 N   0  0  3  0  0  0  0  0  0  0  0  0
  -24.6488  -18.8655   19.4880 N   0  3  0  0  0  0  0  0  0  0  0  0
  -22.8273  -14.8836   21.5345 O   0  0  0  0  0  0  0  0  0  0  0  0
  -28.0072  -26.6398   19.8379 O   0  0  0  0  0  0  0  0  0  0  0  0
  -25.0105  -24.5698   17.8816 O   0  0  0  0  0  0  0  0  0  0  0  0
  -25.3342  -21.0806   21.0818 O   0  0  0  0  0  0  0  0  0  0  0  0
  -31.9925  -14.5896   20.2021 O   0  0  0  0  0  0  0  0  0  0  0  0
  -21.3190   -7.2486   21.6680 O   0  0  0  0  0  0  0  0  0  0  0  0
  -28.9100  -17.1246   23.3077 O   0  0  0  0  0  0  0  0  0  0  0  0
  -31.7672  -22.6765   22.6378 O   0  0  0  0  0  0  0  0  0  1  0  0
  -23.5545   -2.9585   24.3142 F   0  0  0  0  0  0  0  0  0  0  0  0
  -23.5191   -5.9333   20.6324 F   0  0  0  0  0  0  0  0  0  0  0  0
  1  2  1  0  0  0  0
  1  5  2  0  0  0  0
  2  6  2  0  0  0  0
  3 10  2  0  0  0  0
  3 18  1  0  0  0  0
  4 11  1  0  0  0  0
  4 18  2  0  0  0  0
  5 20  1  0  0  0  0
  6 22  1  0  0  0  0
  7 12  2  0  0  0  0
  7 21  1  0  0  0  0
  8  9  2  0  0  0  0
  8 24  1  0  0  0  0
  9 25  1  0  0  0  0
 10 26  1  0  0  0  0
 11 26  2  0  0  0  0
 12 27  1  0  0  0  0
 13 14  2  0  0  0  0
 13 28  1  0  0  0  0
 14 30  1  0  0  0  0
 15 23  1  0  0  0  0
 15 27  2  0  0  0  0
 16 24  2  0  0  0  0
 16 29  1  0  0  0  0
 17 30  2  0  0  0  0
 17 31  1  0  0  0  0
 18 32  1  0  0  0  0
 19 32  1  0  0  0  0
 19 33  2  0  0  0  0
 19 34  1  0  0  0  0
 20 22  2  0  0  0  0
 20 39  1  0  0  0  0
 21 23  2  0  0  0  0
 21 40  1  0  0  0  0
 22 48  1  0  0  0  0
 23 41  1  0  0  0  0
 24 72  1  0  0  0  0
 25 29  2  0  0  0  0
 25 69  1  0  0  0  0
 26 79  1  0  0  0  0
 27 81  1  0  0  0  0
 28 31  2  0  0  0  0
 28 79  1  0  0  0  0
 29 80  1  0  0  0  0
 30 82  1  0  0  0  0
 31 83  1  0  0  0  0
 32 63  2  0  0  0  0
 33 64  1  0  0  0  0
 33 67  1  0  0  0  0
 34 68  1  0  0  0  0
 34 74  2  0  0  0  0
 35 49  1  0  0  0  0
 35 70  1  0  0  0  0
 35 75  2  0  0  0  0
 36 60  1  0  0  0  0
 36 65  1  0  0  0  0
 36 76  2  0  0  0  0
 37 61  1  0  0  0  0
 37 71  1  0  0  0  0
 37 77  2  0  0  0  0
 38 66  1  0  0  0  0
 38 69  1  0  0  0  0
 38 78  2  0  0  0  0
 39 42  1  0  0  0  0
 40 49  1  0  0  0  0
 41 65  1  0  0  0  0
 42 44  1  0  0  0  0
 43 45  1  0  0  0  0
 43 46  1  0  0  0  0
 44 48  1  0  0  0  0
 45 50  1  0  0  0  0
 46 66  1  0  0  0  0
 47 50  1  0  0  0  0
 47 66  1  0  0  0  0
 48 70  1  0  0  0  0
 49 65  1  0  0  0  0
 50 64  1  0  0  0  0
 51 61  1  0  0  0  0
 52 62  1  0  0  0  0
 53 62  1  0  0  0  0
 54 62  1  0  0  0  0
 55 72  1  0  0  0  0
 56 73  1  0  0  0  0
 57 80  1  0  0  0  0
 58 59  1  0  0  0  0
 58 72  1  0  0  0  0
 59 81  1  0  0  0  0
 60 62  1  0  0  0  0
 60 71  1  0  0  0  0
 61 73  1  0  0  0  0
 63 64  1  0  0  0  0
M  CHG  1  73   1
M  ISO  4  38 100  59 101  69 100  81 101
M  END
> <Batch ID>
0012

> <Smiles>
CNC(C)C(=O)NC(C(=O)N1Cc2cc([101O:1][101CH2:1]CN(C)c3ccc([100NH:0][100C:0](=O)N4CCCC(n5nc(-c6ccc(Oc7ccc(F)cc7F)cc6)c(C(N)=O)c5N)C4)c(OC)c3)ccc2CC1C(=O)NC1CCCc2ccccc21)C(C)(C)C

> <Shape>
0.230

> <Color>
0.215

> <Negative vol penalty>
0.000

$$$$

  -OEChem-04052315473D

 84 92  0     1  0  0  0  0  0999 V2000
  -16.9021  -28.4485   24.1151 C   0  0  0  0  0  0  0  0  0  0  0  0
  -17.6578  -27.5780   23.3362 C   0  0  0  0  0  0  0  0  0  0  0  0
  -23.8390   -8.6325   19.9022 C   0  0  0  0  0  0  0  0  0  0  0  0
  -23.1310  -10.2952   21.5058 C   0  0  0  0  0  0  0  0  0  0  0  0
  -17.2010  -29.8103   24.1262 C   0  0  0  0  0  0  0  0  0  0  0  0
  -18.7122  -28.0691   22.5671 C   0  0  0  0  0  0  0  0  0  0  0  0
  -22.8759  -25.2092   22.9269 C   0  0  0  0  0  0  0  0  0  0  0  0
  -23.1313   -7.6557   20.6025 C   0  0  0  0  0  0  0  0  0  0  0  0
  -22.4232   -9.3183   22.2061 C   0  0  0  0  0  0  0  0  0  0  0  0
  -22.9005  -24.0250   22.1915 C   0  0  0  0  0  0  0  0  0  0  0  0
  -23.1065   -6.8408   24.4029 C   0  0  0  0  0  0  0  0  0  0  0  0
  -23.2309   -6.8213   25.7920 C   0  0  0  0  0  0  0  0  0  0  0  0
  -24.2389  -25.1088   20.5023 C   0  0  0  0  0  0  0  0  0  0  0  0
  -29.4203  -18.7017   19.9072 C   0  0  0  0  0  0  0  0  0  0  0  0
  -20.8508   -7.1746   26.0100 C   0  0  0  0  0  0  0  0  0  0  0  0
  -23.8389   -9.9523   20.3538 C   0  0  0  0  0  0  0  0  0  0  0  0
  -24.0927  -11.7703   18.5823 C   0  0  0  0  0  0  0  0  0  0  0  0
  -18.2656  -30.3169   23.3643 C   0  0  0  0  0  0  0  0  0  0  0  0
  -23.5246  -26.3571   22.4494 C   0  0  0  0  0  0  0  0  0  0  0  0
  -19.0247  -29.4391   22.5669 C   0  0  0  0  0  0  0  0  0  0  0  0
  -24.2233  -26.3056   21.2348 C   0  0  0  0  0  0  0  0  0  0  0  0
  -29.3775  -20.0906   20.0291 C   0  0  0  0  0  0  0  0  0  0  0  0
  -28.3638  -18.0218   19.3012 C   0  0  0  0  0  0  0  0  0  0  0  0
  -27.2215  -20.1197   18.9391 C   0  0  0  0  0  0  0  0  0  0  0  0
  -22.4234   -7.9986   21.7544 C   0  0  0  0  0  0  0  0  0  0  0  0
  -23.5796  -23.9755   20.9776 C   0  0  0  0  0  0  0  0  0  0  0  0
  -21.8543   -7.0273   23.8172 C   0  0  0  0  0  0  0  0  0  0  0  0
  -22.1030   -6.9881   26.5956 C   0  0  0  0  0  0  0  0  0  0  0  0
  -20.7265   -7.1941   24.6208 C   0  0  0  0  0  0  0  0  0  0  0  0
  -28.2781  -20.7996   19.5451 C   0  0  0  0  0  0  0  0  0  0  0  0
  -27.2644  -18.7308   18.8172 C   0  0  0  0  0  0  0  0  0  0  0  0
  -24.5702  -10.9617   19.6312 C   0  0  0  0  0  0  0  0  0  0  0  0
  -25.1648  -12.5578   18.2404 C   0  0  0  0  0  0  0  0  0  0  0  0
  -22.7960  -11.8063   17.9717 C   0  0  0  0  0  0  0  0  0  0  0  0
  -22.5886  -29.2753   21.6055 C   0  0  0  0  0  0  0  0  0  0  0  0
  -25.7788  -29.7982   21.3380 C   0  0  0  0  0  0  0  0  0  0  0  0
  -28.8978  -28.4980   20.8600 C   0  0  0  0  0  0  0  0  0  0  0  0
  -29.4784  -15.7883   19.6403 C   0  0  0  0  0  0  0  0  0  0  0  0
  -18.5208  -31.8033   23.3718 C   0  0  0  0  0  0  0  0  0  0  0  0
  -23.5112  -27.6192   23.2676 C   0  0  0  0  0  0  0  0  0  0  0  0
  -24.9528  -27.5045   20.6882 C   0  0  0  0  0  0  0  0  0  0  0  0
  -19.8906  -32.1889   22.8192 C   0  0  0  0  0  0  0  0  0  0  0  0
  -30.0307  -12.2710   19.6053 C   0  0  0  0  0  0  0  0  0  0  0  0
  -20.1685  -31.4472   21.5156 C   0  0  0  0  0  0  0  0  0  0  0  0
  -28.6200  -11.6834   19.5226 C   0  0  0  0  0  0  0  0  0  0  0  0
  -30.0725  -13.5250   20.4768 C   0  0  0  0  0  0  0  0  0  0  0  0
  -27.6926  -13.9788   20.0304 C   0  0  0  0  0  0  0  0  0  0  0  0
  -20.1919  -29.9301   21.7383 C   0  0  1  0  0  0  0  0  0  0  0  0
  -23.7731  -28.8722   22.4375 C   0  0  1  0  0  0  0  0  0  0  0  0
  -27.5879  -12.7513   19.1106 C   0  0  2  0  0  0  0  0  0  0  0  0
  -30.5333  -20.7755   20.6852 C   0  0  0  0  0  0  0  0  0  0  0  0
  -31.3046  -29.1773   20.6524 C   0  0  0  0  0  0  0  0  0  0  0  0
  -25.2515  -30.7907   18.5013 C   0  0  0  0  0  0  0  0  0  0  0  0
  -27.6995  -30.5478   18.0358 C   0  0  0  0  0  0  0  0  0  0  0  0
  -26.9168  -32.1428   19.7869 C   0  0  0  0  0  0  0  0  0  0  0  0
  -26.1099  -21.3216   17.0736 C   0  0  0  0  0  0  0  0  0  0  0  0
  -29.6718  -26.9078   23.2330 C   0  0  0  0  0  0  0  0  0  0  0  0
  -24.9633  -21.0907   19.2828 C   0  0  0  0  0  0  0  0  0  0  0  0
  -24.7543  -22.5870   19.4453 C   0  0  0  0  0  0  0  0  0  1  0  0
  -26.7962  -29.6569   20.2317 C   0  0  1  0  0  0  0  0  0  0  0  0
  -30.2054  -28.7195   21.5985 C   0  0  2  0  0  0  0  0  0  0  0  0
  -26.6507  -30.7623   19.1480 C   0  0  0  0  0  0  0  0  0  0  0  0
  -25.8464  -11.2124   19.9355 N   0  0  0  0  0  0  0  0  0  0  0  0
  -26.1799  -12.1873   19.0726 N   0  0  0  0  0  0  0  0  0  0  0  0
  -24.9052  -28.7171   21.5218 N   0  0  0  0  0  0  0  0  0  0  0  0
  -29.0710  -14.4933   20.0250 N   0  0  0  0  0  0  0  0  0  0  0  0
  -25.3289  -13.5240   17.3121 N   0  0  0  0  0  0  0  0  0  0  0  0
  -21.8102  -10.9293   18.4446 N   0  0  0  0  0  0  0  0  0  0  0  0
  -28.4430  -16.6109   19.1979 N   0  0  0  0  0  0  0  0  0  0  0  0
  -21.4451  -29.5268   22.3393 N   0  0  0  0  0  0  0  0  0  0  0  0
  -28.1026  -29.6243   20.8803 N   0  0  0  0  0  0  0  0  0  0  0  0
  -26.1176  -20.8325   18.4526 N   0  0  3  0  0  0  0  0  0  0  0  0
  -30.6480  -27.4584   22.2579 N   0  3  0  0  0  0  0  0  0  0  0  0
  -22.5244  -12.5814   17.0236 O   0  0  0  0  0  0  0  0  0  0  0  0
  -22.7041  -29.3538   20.3881 O   0  0  0  0  0  0  0  0  0  0  0  0
  -25.7645  -30.8268   22.0187 O   0  0  0  0  0  0  0  0  0  0  0  0
  -28.6119  -27.4335   20.3162 O   0  0  0  0  0  0  0  0  0  0  0  0
  -30.6627  -16.1325   19.6732 O   0  0  0  0  0  0  0  0  0  0  0  0
  -21.7325   -7.0456   22.4379 O   0  0  0  0  0  0  0  0  0  0  0  0
  -23.6046  -22.8211   20.2575 O   0  0  0  0  0  0  0  0  0  1  0  0
  -22.2223   -6.9678   27.9296 F   0  0  0  0  0  0  0  0  0  0  0  0
  -19.5207   -7.3725   24.0639 F   0  0  0  0  0  0  0  0  0  0  0  0
  -28.2360  -22.5266   19.7012 Cl  0  0  0  0  0  0  0  0  0  0  0  0
  -25.9519  -17.8789   18.0640 Cl  0  0  0  0  0  0  0  0  0  0  0  0
  1  2  1  0  0  0  0
  1  5  2  0  0  0  0
  2  6  2  0  0  0  0
  3  8  2  0  0  0  0
  3 16  1  0  0  0  0
  4  9  1  0  0  0  0
  4 16  2  0  0  0  0
  5 18  1  0  0  0  0
  6 20  1  0  0  0  0
  7 10  2  0  0  0  0
  7 19  1  0  0  0  0
  8 25  1  0  0  0  0
  9 25  2  0  0  0  0
 10 26  1  0  0  0  0
 11 12  2  0  0  0  0
 11 27  1  0  0  0  0
 12 28  1  0  0  0  0
 13 21  1  0  0  0  0
 13 26  2  0  0  0  0
 14 22  1  0  0  0  0
 14 23  2  0  0  0  0
 15 28  2  0  0  0  0
 15 29  1  0  0  0  0
 16 32  1  0  0  0  0
 17 32  1  0  0  0  0
 17 33  2  0  0  0  0
 17 34  1  0  0  0  0
 18 20  2  0  0  0  0
 18 39  1  0  0  0  0
 19 21  2  0  0  0  0
 19 40  1  0  0  0  0
 20 48  1  0  0  0  0
 21 41  1  0  0  0  0
 22 30  2  0  0  0  0
 22 51  1  0  0  0  0
 23 31  1  0  0  0  0
 23 69  1  0  0  0  0
 24 30  1  0  0  0  0
 24 31  2  0  0  0  0
 24 72  1  0  0  0  0
 25 79  1  0  0  0  0
 26 80  1  0  0  0  0
 27 29  2  0  0  0  0
 27 79  1  0  0  0  0
 28 81  1  0  0  0  0
 29 82  1  0  0  0  0
 30 83  1  0  0  0  0
 31 84  1  0  0  0  0
 32 63  2  0  0  0  0
 33 64  1  0  0  0  0
 33 67  1  0  0  0  0
 34 68  1  0  0  0  0
 34 74  2  0  0  0  0
 35 49  1  0  0  0  0
 35 70  1  0  0  0  0
 35 75  2  0  0  0  0
 36 60  1  0  0  0  0
 36 65  1  0  0  0  0
 36 76  2  0  0  0  0
 37 61  1  0  0  0  0
 37 71  1  0  0  0  0
 37 77  2  0  0  0  0
 38 66  1  0  0  0  0
 38 69  1  0  0  0  0
 38 78  2  0  0  0  0
 39 42  1  0  0  0  0
 40 49  1  0  0  0  0
 41 65  1  0  0  0  0
 42 44  1  0  0  0  0
 43 45  1  0  0  0  0
 43 46  1  0  0  0  0
 44 48  1  0  0  0  0
 45 50  1  0  0  0  0
 46 66  1  0  0  0  0
 47 50  1  0  0  0  0
 47 66  1  0  0  0  0
 48 70  1  0  0  0  0
 49 65  1  0  0  0  0
 50 64  1  0  0  0  0
 52 61  1  0  0  0  0
 53 62  1  0  0  0  0
 54 62  1  0  0  0  0
 55 62  1  0  0  0  0
 56 72  1  0  0  0  0
 57 73  1  0  0  0  0
 58 59  1  0  0  0  0
 58 72  1  0  0  0  0
 59 80  1  0  0  0  0
 60 62  1  0  0  0  0
 60 71  1  0  0  0  0
 61 73  1  0  0  0  0
 63 64  1  0  0  0  0
M  CHG  1  73   1
M  ISO  4  38 100  59 101  69 100  80 101
M  END
> <Batch ID>
0012

> <Smiles>
CNC(C)C(=O)NC(C(=O)N1Cc2cc([101O:1][101CH2:1]CN(C)c3c(Cl)c(C)cc([100NH:0][100C:0](=O)N4CCCC(n5nc(-c6ccc(Oc7ccc(F)cc7F)cc6)c(C(N)=O)c5N)C4)c3Cl)ccc2CC1C(=O)NC1CCCc2ccccc21)C(C)(C)C

> <Shape>
0.263

> <Color>
0.104

> <Negative vol penalty>
0.000

$$$$

  -OEChem-04052315473D

 84 91  0     1  0  0  0  0  0999 V2000
  -18.2879  -24.5015   23.8936 C   0  0  0  0  0  0  0  0  0  0  0  0
  -19.6744  -24.3917   23.8612 C   0  0  0  0  0  0  0  0  0  0  0  0
  -24.3894   -9.2783   22.1875 C   0  0  0  0  0  0  0  0  0  0  0  0
  -23.5119   -9.5241   19.9499 C   0  0  0  0  0  0  0  0  0  0  0  0
  -17.6698  -25.6561   23.4154 C   0  0  0  0  0  0  0  0  0  0  0  0
  -20.4436  -25.4362   23.3494 C   0  0  0  0  0  0  0  0  0  0  0  0
  -24.4580  -26.4945   26.2494 C   0  0  0  0  0  0  0  0  0  0  0  0
  -23.3490   -8.4031   22.4993 C   0  0  0  0  0  0  0  0  0  0  0  0
  -22.4715   -8.6489   20.2618 C   0  0  0  0  0  0  0  0  0  0  0  0
  -25.5583  -25.6443   26.1484 C   0  0  0  0  0  0  0  0  0  0  0  0
  -21.1279   -5.8229   23.7739 C   0  0  0  0  0  0  0  0  0  0  0  0
  -21.4487   -4.6538   24.4637 C   0  0  0  0  0  0  0  0  0  0  0  0
  -26.6485  -27.2370   24.7014 C   0  0  0  0  0  0  0  0  0  0  0  0
  -22.9015   -3.9842   22.6531 C   0  0  0  0  0  0  0  0  0  0  0  0
  -24.4708   -9.8388   20.9128 C   0  0  0  0  0  0  0  0  0  0  0  0
  -26.8056  -10.4111   20.0591 C   0  0  0  0  0  0  0  0  0  0  0  0
  -18.4323  -26.7192   22.9064 C   0  0  0  0  0  0  0  0  0  0  0  0
  -24.4400  -27.7196   25.5672 C   0  0  0  0  0  0  0  0  0  0  0  0
  -19.8350  -26.6056   22.8627 C   0  0  0  0  0  0  0  0  0  0  0  0
  -25.5478  -28.1021   24.7974 C   0  0  0  0  0  0  0  0  0  0  0  0
  -22.3901   -8.0883   21.5365 C   0  0  0  0  0  0  0  0  0  0  0  0
  -26.6526  -26.0142   25.3720 C   0  0  0  0  0  0  0  0  0  0  0  0
  -21.6938   -6.0726   22.5236 C   0  0  0  0  0  0  0  0  0  0  0  0
  -22.3355   -3.7344   23.9033 C   0  0  0  0  0  0  0  0  0  0  0  0
  -22.5806   -5.1533   21.9633 C   0  0  0  0  0  0  0  0  0  0  0  0
  -25.5449  -10.7434   20.5902 C   0  0  0  0  0  0  0  0  0  0  0  0
  -27.4546  -11.6154   19.9360 C   0  0  0  0  0  0  0  0  0  0  0  0
  -27.3420   -9.1286   19.7083 C   0  0  0  0  0  0  0  0  0  0  0  0
  -22.6198  -28.9954   23.2951 C   0  0  0  0  0  0  0  0  0  0  0  0
  -24.4037  -31.6378   23.8928 C   0  0  0  0  0  0  0  0  0  0  0  0
  -28.5265  -23.0054   24.5940 C   0  0  0  0  0  0  0  0  0  0  0  0
  -24.2755  -19.5440   19.1667 C   0  0  0  0  0  0  0  0  0  0  0  0
  -27.3206  -32.9579   25.0744 C   0  0  0  0  0  0  0  0  0  0  0  0
  -24.9790  -17.1363   19.4737 C   0  0  0  0  0  0  0  0  0  0  0  0
  -17.7169  -27.9280   22.3572 C   0  0  0  0  0  0  0  0  0  0  0  0
  -23.2567  -28.6374   25.7080 C   0  0  0  0  0  0  0  0  0  0  0  0
  -25.5866  -29.4157   24.0616 C   0  0  0  0  0  0  0  0  0  0  0  0
  -18.6237  -29.1426   22.1765 C   0  0  0  0  0  0  0  0  0  0  0  0
  -27.6756  -15.9820   21.8260 C   0  0  0  0  0  0  0  0  0  0  0  0
  -19.9252  -28.7398   21.4906 C   0  0  0  0  0  0  0  0  0  0  0  0
  -27.4567  -14.4725   21.7857 C   0  0  0  0  0  0  0  0  0  0  0  0
  -26.3846  -16.7470   21.5532 C   0  0  0  0  0  0  0  0  0  0  0  0
  -25.5002  -14.8409   20.2264 C   0  0  0  0  0  0  0  0  0  0  0  0
  -20.7050  -27.7272   22.3380 C   0  0  1  0  0  0  0  0  0  0  0  0
  -23.1309  -29.6308   24.5571 C   0  0  1  0  0  0  0  0  0  0  0  0
  -26.8013  -14.0581   20.4598 C   0  0  2  0  0  0  0  0  0  0  0  0
  -28.5035  -35.1473   25.3981 C   0  0  0  0  0  0  0  0  0  0  0  0
  -25.0251  -31.7407   20.9073 C   0  0  0  0  0  0  0  0  0  0  0  0
  -26.9093  -33.3061   21.4243 C   0  0  0  0  0  0  0  0  0  0  0  0
  -24.5622  -33.9645   21.9538 C   0  0  0  0  0  0  0  0  0  0  0  0
  -27.4471  -32.5883   28.0081 C   0  0  0  0  0  0  0  0  0  0  0  0
  -27.4962  -23.7906   25.3772 C   0  0  0  0  0  0  0  0  0  1  0  0
  -24.1589  -19.3849   17.6643 C   0  0  0  0  0  0  0  0  0  0  0  0
  -27.2695  -19.6909   22.6588 C   0  0  0  0  0  0  0  0  0  0  0  0
  -28.6726  -20.3058   22.6501 C   0  0  0  0  0  0  0  0  0  0  0  0
  -26.8029  -19.3565   21.2385 C   0  0  0  0  0  0  0  0  0  0  0  0
  -29.1624  -20.6634   24.0498 C   0  0  0  0  0  0  0  0  0  0  0  0
  -25.3844  -18.7963   21.2060 C   0  0  0  0  0  0  0  0  0  0  0  0
  -25.7001  -32.1961   23.3574 C   0  0  1  0  0  0  0  0  0  0  0  0
  -27.5926  -34.1060   26.0296 C   0  0  2  0  0  0  0  0  0  0  0  0
  -25.5479  -32.7762   21.9229 C   0  0  0  0  0  0  0  0  0  0  0  0
  -25.3996  -12.0559   20.7908 N   0  0  0  0  0  0  0  0  0  0  0  0
  -26.5774  -12.5590   20.3837 N   0  0  0  0  0  0  0  0  0  0  0  0
  -24.4030  -30.2758   24.2255 N   0  0  0  0  0  0  0  0  0  0  0  0
  -25.7089  -16.2877   20.3311 N   0  0  0  0  0  0  0  0  0  0  0  0
  -28.6842  -11.9486   19.4896 N   0  0  0  0  0  0  0  0  0  0  0  0
  -26.5409   -7.9945   19.8987 N   0  0  0  0  0  0  0  0  0  0  0  0
  -21.3820  -28.3957   23.4285 N   0  0  0  0  0  0  0  0  0  0  0  0
  -28.3231  -21.6341   24.6970 N   0  0  0  0  0  0  0  0  0  0  0  0
  -26.1678  -33.1618   24.3459 N   0  0  0  0  0  0  0  0  0  0  0  0
  -24.9324  -18.4962   19.8549 N   0  0  0  0  0  0  0  0  0  0  0  0
  -28.2444  -33.6029   27.2719 N   0  3  0  0  0  0  0  0  0  0  0  0
  -28.5036   -8.9907   19.2552 O   0  0  0  0  0  0  0  0  0  0  0  0
  -23.2975  -29.0467   22.2754 O   0  0  0  0  0  0  0  0  0  0  0  0
  -23.4298  -32.3844   24.0182 O   0  0  0  0  0  0  0  0  0  0  0  0
  -29.4256  -23.5432   23.9535 O   0  0  0  0  0  0  0  0  0  0  0  0
  -23.8048  -20.5329   19.7357 O   0  0  0  0  0  0  0  0  0  0  0  0
  -28.0590  -31.9798   24.9811 O   0  0  0  0  0  0  0  0  0  0  0  0
  -24.4141  -16.7409   18.4482 O   0  0  0  0  0  0  0  0  0  0  0  0
  -21.3749   -7.2342   21.8404 O   0  0  0  0  0  0  0  0  0  0  0  0
  -27.7387  -25.1773   25.2701 O   0  0  0  0  0  0  0  0  0  1  0  0
  -22.6447   -2.6125   24.5665 F   0  0  0  0  0  0  0  0  0  0  0  0
  -23.1284   -5.3883   20.7630 F   0  0  0  0  0  0  0  0  0  0  0  0
  -24.2092  -20.9953   16.9147 Cl  0  0  0  0  0  0  0  0  0  0  0  0
  1  2  1  0  0  0  0
  1  5  2  0  0  0  0
  2  6  2  0  0  0  0
  3  8  2  0  0  0  0
  3 15  1  0  0  0  0
  4  9  1  0  0  0  0
  4 15  2  0  0  0  0
  5 17  1  0  0  0  0
  6 19  1  0  0  0  0
  7 10  2  0  0  0  0
  7 18  1  0  0  0  0
  8 21  1  0  0  0  0
  9 21  2  0  0  0  0
 10 22  1  0  0  0  0
 11 12  2  0  0  0  0
 11 23  1  0  0  0  0
 12 24  1  0  0  0  0
 13 20  1  0  0  0  0
 13 22  2  0  0  0  0
 14 24  2  0  0  0  0
 14 25  1  0  0  0  0
 15 26  1  0  0  0  0
 16 26  1  0  0  0  0
 16 27  2  0  0  0  0
 16 28  1  0  0  0  0
 17 19  2  0  0  0  0
 17 35  1  0  0  0  0
 18 20  2  0  0  0  0
 18 36  1  0  0  0  0
 19 44  1  0  0  0  0
 20 37  1  0  0  0  0
 21 80  1  0  0  0  0
 22 81  1  0  0  0  0
 23 25  2  0  0  0  0
 23 80  1  0  0  0  0
 24 82  1  0  0  0  0
 25 83  1  0  0  0  0
 26 62  2  0  0  0  0
 27 63  1  0  0  0  0
 27 66  1  0  0  0  0
 28 67  1  0  0  0  0
 28 73  2  0  0  0  0
 29 45  1  0  0  0  0
 29 68  1  0  0  0  0
 29 74  2  0  0  0  0
 30 59  1  0  0  0  0
 30 64  1  0  0  0  0
 30 75  2  0  0  0  0
 31 52  1  0  0  0  0
 31 69  1  0  0  0  0
 31 76  2  0  0  0  0
 32 53  1  0  0  0  0
 32 71  1  0  0  0  0
 32 77  2  0  0  0  0
 33 60  1  0  0  0  0
 33 70  1  0  0  0  0
 33 78  2  0  0  0  0
 34 65  1  0  0  0  0
 34 71  1  0  0  0  0
 34 79  2  0  0  0  0
 35 38  1  0  0  0  0
 36 45  1  0  0  0  0
 37 64  1  0  0  0  0
 38 40  1  0  0  0  0
 39 41  1  0  0  0  0
 39 42  1  0  0  0  0
 40 44  1  0  0  0  0
 41 46  1  0  0  0  0
 42 65  1  0  0  0  0
 43 46  1  0  0  0  0
 43 65  1  0  0  0  0
 44 68  1  0  0  0  0
 45 64  1  0  0  0  0
 46 63  1  0  0  0  0
 47 60  1  0  0  0  0
 48 61  1  0  0  0  0
 49 61  1  0  0  0  0
 50 61  1  0  0  0  0
 51 72  1  0  0  0  0
 52 81  1  0  0  0  0
 53 84  1  0  0  0  0
 54 55  1  0  0  0  0
 54 56  1  0  0  0  0
 55 57  1  0  0  0  0
 56 58  1  0  0  0  0
 57 69  1  0  0  0  0
 58 71  1  0  0  0  0
 59 61  1  0  0  0  0
 59 70  1  0  0  0  0
 60 72  1  0  0  0  0
 62 63  1  0  0  0  0
M  CHG  1  72   1
M  ISO  4  34 100  52 101  71 100  81 101
M  END
> <Batch ID>
0012

> <Smiles>
CNC(C)C(=O)NC(C(=O)N1Cc2cc([101O:1][101CH2:1]C(=O)NCCCCC[100N:0](C(=O)CCl)[100C:0](=O)N3CCCC(n4nc(-c5ccc(Oc6ccc(F)cc6F)cc5)c(C(N)=O)c4N)C3)ccc2CC1C(=O)NC1CCCc2ccccc21)C(C)(C)C

> <Shape>
0.245

> <Color>
0.114

> <Negative vol penalty>
0.000

$$$$

  -OEChem-04052315473D

 86 94  0     1  0  0  0  0  0999 V2000
  -19.6039  -34.1657   22.5341 C   0  0  0  0  0  0  0  0  0  0  0  0
  -20.9069  -33.8507   22.1619 C   0  0  0  0  0  0  0  0  0  0  0  0
  -26.3573  -12.7411   20.3099 C   0  0  0  0  0  0  0  0  0  0  0  0
  -24.6640  -14.4636   20.3625 C   0  0  0  0  0  0  0  0  0  0  0  0
  -18.8550  -33.2579   23.2818 C   0  0  0  0  0  0  0  0  0  0  0  0
  -21.4621  -32.6281   22.5381 C   0  0  0  0  0  0  0  0  0  0  0  0
  -25.4162  -29.2347   19.3201 C   0  0  0  0  0  0  0  0  0  0  0  0
  -28.5926  -24.6580   15.7644 C   0  0  0  0  0  0  0  0  0  0  0  0
  -28.1619  -23.4511   15.2136 C   0  0  0  0  0  0  0  0  0  0  0  0
  -25.5138  -11.8901   21.0239 C   0  0  0  0  0  0  0  0  0  0  0  0
  -23.8205  -13.6125   21.0765 C   0  0  0  0  0  0  0  0  0  0  0  0
  -26.8025  -29.0994   19.3811 C   0  0  0  0  0  0  0  0  0  0  0  0
  -22.8454   -9.9148   20.3831 C   0  0  0  0  0  0  0  0  0  0  0  0
  -22.7336   -8.5954   19.9446 C   0  0  0  0  0  0  0  0  0  0  0  0
  -26.5447  -27.1487   20.7767 C   0  0  0  0  0  0  0  0  0  0  0  0
  -29.6031  -23.4587   17.6022 C   0  0  0  0  0  0  0  0  0  0  0  0
  -23.5551   -7.8164   22.0789 C   0  0  0  0  0  0  0  0  0  0  0  0
  -25.9325  -14.0280   19.9793 C   0  0  0  0  0  0  0  0  0  0  0  0
  -26.8935  -15.0392   17.8435 C   0  0  0  0  0  0  0  0  0  0  0  0
  -19.3979  -32.0195   23.6590 C   0  0  0  0  0  0  0  0  0  0  0  0
  -24.5826  -28.3329   19.9971 C   0  0  0  0  0  0  0  0  0  0  0  0
  -20.7202  -31.7035   23.2926 C   0  0  0  0  0  0  0  0  0  0  0  0
  -25.1481  -27.2733   20.7206 C   0  0  0  0  0  0  0  0  0  0  0  0
  -29.3133  -24.6618   16.9587 C   0  0  0  0  0  0  0  0  0  0  0  0
  -28.4517  -22.2479   15.8571 C   0  0  0  0  0  0  0  0  0  0  0  0
  -29.1723  -22.2517   17.0514 C   0  0  0  0  0  0  0  0  0  0  0  0
  -24.2454  -12.3257   21.4071 C   0  0  0  0  0  0  0  0  0  0  0  0
  -27.3670  -28.0580   20.1118 C   0  0  0  0  0  0  0  0  0  0  0  0
  -23.3122  -10.1850   21.6695 C   0  0  0  0  0  0  0  0  0  0  0  0
  -23.0884   -7.5462   20.7925 C   0  0  0  0  0  0  0  0  0  0  0  0
  -23.6670   -9.1358   22.5174 C   0  0  0  0  0  0  0  0  0  0  0  0
  -26.8036  -14.9078   19.2423 C   0  0  0  0  0  0  0  0  0  0  0  0
  -27.8596  -15.9961   17.6500 C   0  0  0  0  0  0  0  0  0  0  0  0
  -26.1685  -14.3574   16.8115 C   0  0  0  0  0  0  0  0  0  0  0  0
  -22.4420  -28.5779   22.3341 C   0  0  0  0  0  0  0  0  0  0  0  0
  -21.9184  -25.4496   21.6544 C   0  0  0  0  0  0  0  0  0  0  0  0
  -30.4770  -26.0732   18.6900 C   0  0  0  0  0  0  0  0  0  0  0  0
  -23.1102  -22.5289   20.3521 C   0  0  0  0  0  0  0  0  0  0  0  0
  -30.1869  -20.8937   18.9149 C   0  0  0  0  0  0  0  0  0  0  0  0
  -18.5662  -31.0904   24.5074 C   0  0  0  0  0  0  0  0  0  0  0  0
  -23.0886  -28.4768   19.8994 C   0  0  0  0  0  0  0  0  0  0  0  0
  -24.2966  -26.2665   21.4485 C   0  0  0  0  0  0  0  0  0  0  0  0
  -19.0987  -29.6603   24.5460 C   0  0  0  0  0  0  0  0  0  0  0  0
  -31.1178  -18.0933   20.9070 C   0  0  0  0  0  0  0  0  0  0  0  0
  -20.6042  -29.6576   24.7915 C   0  0  0  0  0  0  0  0  0  0  0  0
  -30.0857  -17.0257   20.5364 C   0  0  0  0  0  0  0  0  0  0  0  0
  -30.5010  -19.4905   20.9416 C   0  0  0  0  0  0  0  0  0  0  0  0
  -28.7429  -18.8113   19.3552 C   0  0  0  0  0  0  0  0  0  0  0  0
  -21.3489  -30.3770   23.6604 C   0  0  1  0  0  0  0  0  0  0  0  0
  -22.3469  -27.8035   21.0500 C   0  0  1  0  0  0  0  0  0  0  0  0
  -29.3317  -17.3954   19.2441 C   0  0  2  0  0  0  0  0  0  0  0  0
  -22.4657  -20.1336   19.9721 C   0  0  0  0  0  0  0  0  0  0  0  0
  -25.8109  -21.3434   14.3446 C   0  0  0  0  0  0  0  0  0  0  0  0
  -27.3953  -19.5952   13.4617 C   0  0  0  0  0  0  0  0  0  0  0  0
  -22.3784  -24.8591   24.6124 C   0  0  0  0  0  0  0  0  0  0  0  0
  -22.6669  -22.4452   24.0141 C   0  0  0  0  0  0  0  0  0  0  0  0
  -20.4922  -23.5858   23.5754 C   0  0  0  0  0  0  0  0  0  0  0  0
  -23.3791  -22.8010   17.4174 C   0  0  0  0  0  0  0  0  0  0  0  0
  -30.7428  -27.5562   18.9225 C   0  0  0  0  0  0  0  0  0  0  0  0
  -29.4696  -28.3791   19.0478 C   0  0  0  0  0  0  0  0  0  1  0  0
  -22.4951  -24.1400   22.1355 C   0  0  1  0  0  0  0  0  0  0  0  0
  -22.4980  -21.5347   19.3819 C   0  0  2  0  0  0  0  0  0  0  0  0
  -27.2632  -20.9874   14.0615 C   0  0  0  0  0  0  0  0  0  0  0  0
  -22.0245  -23.7775   23.5723 C   0  0  0  0  0  0  0  0  0  0  0  0
  -27.6455  -15.7164   19.8913 N   0  0  0  0  0  0  0  0  0  0  0  0
  -28.2738  -16.3650   18.8960 N   0  0  0  0  0  0  0  0  0  0  0  0
  -22.8413  -26.4534   21.3280 N   0  0  0  0  0  0  0  0  0  0  0  0
  -29.8073  -19.7727   19.6831 N   0  0  0  0  0  0  0  0  0  0  0  0
  -28.3869  -16.5494   16.5373 N   0  0  0  0  0  0  0  0  0  0  0  0
  -25.2115  -13.4041   17.1853 N   0  0  0  0  0  0  0  0  0  0  0  0
  -29.7529  -25.8863   17.5156 N   0  0  0  0  0  0  0  0  0  0  0  0
  -29.4791  -21.0421   17.7226 N   0  0  0  0  0  0  0  0  0  0  0  0
  -28.0037  -21.0373   15.2824 N   0  0  0  0  0  0  0  0  0  0  0  0
  -21.4468  -29.5227   22.4963 N   0  0  0  0  0  0  0  0  0  0  0  0
  -22.1495  -23.1461   21.1249 N   0  0  0  0  0  0  0  0  0  0  0  0
  -23.2849  -21.4938   18.1169 N   0  3  0  0  0  0  0  0  0  0  0  0
  -26.3752  -14.5749   15.5935 O   0  0  0  0  0  0  0  0  0  0  0  0
  -23.3502  -28.3351   23.1202 O   0  0  0  0  0  0  0  0  0  0  0  0
  -20.6946  -25.5748   21.5645 O   0  0  0  0  0  0  0  0  0  0  0  0
  -30.8716  -25.2097   19.4665 O   0  0  0  0  0  0  0  0  0  0  0  0
  -24.3200  -22.7345   20.4204 O   0  0  0  0  0  0  0  0  0  0  0  0
  -31.0931  -21.6498   19.2743 O   0  0  0  0  0  0  0  0  0  0  0  0
  -23.4219  -11.4954   22.1036 O   0  0  0  0  0  0  0  0  0  0  0  0
  -28.7198  -27.9241   20.1735 O   0  0  0  0  0  0  0  0  0  1  0  0
  -22.9795   -6.2792   20.3718 F   0  0  0  0  0  0  0  0  0  0  0  0
  -24.1150   -9.3892   23.7547 F   0  0  0  0  0  0  0  0  0  0  0  0
  1  2  1  0  0  0  0
  1  5  2  0  0  0  0
  2  6  2  0  0  0  0
  3 10  2  0  0  0  0
  3 18  1  0  0  0  0
  4 11  1  0  0  0  0
  4 18  2  0  0  0  0
  5 20  1  0  0  0  0
  6 22  1  0  0  0  0
  7 12  2  0  0  0  0
  7 21  1  0  0  0  0
  8  9  2  0  0  0  0
  8 24  1  0  0  0  0
  9 25  1  0  0  0  0
 10 27  1  0  0  0  0
 11 27  2  0  0  0  0
 12 28  1  0  0  0  0
 13 14  2  0  0  0  0
 13 29  1  0  0  0  0
 14 30  1  0  0  0  0
 15 23  1  0  0  0  0
 15 28  2  0  0  0  0
 16 24  2  0  0  0  0
 16 26  1  0  0  0  0
 17 30  2  0  0  0  0
 17 31  1  0  0  0  0
 18 32  1  0  0  0  0
 19 32  1  0  0  0  0
 19 33  2  0  0  0  0
 19 34  1  0  0  0  0
 20 22  2  0  0  0  0
 20 40  1  0  0  0  0
 21 23  2  0  0  0  0
 21 41  1  0  0  0  0
 22 49  1  0  0  0  0
 23 42  1  0  0  0  0
 24 71  1  0  0  0  0
 25 26  2  0  0  0  0
 25 73  1  0  0  0  0
 26 72  1  0  0  0  0
 27 83  1  0  0  0  0
 28 84  1  0  0  0  0
 29 31  2  0  0  0  0
 29 83  1  0  0  0  0
 30 85  1  0  0  0  0
 31 86  1  0  0  0  0
 32 65  2  0  0  0  0
 33 66  1  0  0  0  0
 33 69  1  0  0  0  0
 34 70  1  0  0  0  0
 34 77  2  0  0  0  0
 35 50  1  0  0  0  0
 35 74  1  0  0  0  0
 35 78  2  0  0  0  0
 36 61  1  0  0  0  0
 36 67  1  0  0  0  0
 36 79  2  0  0  0  0
 37 59  1  0  0  0  0
 37 71  1  0  0  0  0
 37 80  2  0  0  0  0
 38 62  1  0  0  0  0
 38 75  1  0  0  0  0
 38 81  2  0  0  0  0
 39 68  1  0  0  0  0
 39 72  1  0  0  0  0
 39 82  2  0  0  0  0
 40 43  1  0  0  0  0
 41 50  1  0  0  0  0
 42 67  1  0  0  0  0
 43 45  1  0  0  0  0
 44 46  1  0  0  0  0
 44 47  1  0  0  0  0
 45 49  1  0  0  0  0
 46 51  1  0  0  0  0
 47 68  1  0  0  0  0
 48 51  1  0  0  0  0
 48 68  1  0  0  0  0
 49 74  1  0  0  0  0
 50 67  1  0  0  0  0
 51 66  1  0  0  0  0
 52 62  1  0  0  0  0
 53 63  1  0  0  0  0
 54 63  1  0  0  0  0
 55 64  1  0  0  0  0
 56 64  1  0  0  0  0
 57 64  1  0  0  0  0
 58 76  1  0  0  0  0
 59 60  1  0  0  0  0
 60 84  1  0  0  0  0
 61 64  1  0  0  0  0
 61 75  1  0  0  0  0
 62 76  1  0  0  0  0
 63 73  1  0  0  0  0
 65 66  1  0  0  0  0
M  CHG  1  76   1
M  ISO  4  39 100  60 101  72 100  84 101
M  END
> <Batch ID>
0012

> <Smiles>
CNC(C)C(=O)NC(C(=O)N1Cc2cc([101O:1][101CH2:1]CC(=O)Nc3ccc(NC(C)C)c([100NH:0][100C:0](=O)N4CCCC(n5nc(-c6ccc(Oc7ccc(F)cc7F)cc6)c(C(N)=O)c5N)C4)c3)ccc2CC1C(=O)NC1CCCc2ccccc21)C(C)(C)C

> <Shape>
0.229

> <Color>
0.105

> <Negative vol penalty>
0.000

$$$$

  -OEChem-04052315473D

 82 90  0     1  0  0  0  0  0999 V2000
  -29.5042  -31.0794   25.6052 C   0  0  0  0  0  0  0  0  0  0  0  0
  -29.6440  -29.7886   26.1048 C   0  0  0  0  0  0  0  0  0  0  0  0
  -22.9870  -10.1314   21.1540 C   0  0  0  0  0  0  0  0  0  0  0  0
  -24.5663  -10.1337   22.9823 C   0  0  0  0  0  0  0  0  0  0  0  0
  -28.8369  -31.2905   24.3993 C   0  0  0  0  0  0  0  0  0  0  0  0
  -29.1155  -28.7081   25.3993 C   0  0  0  0  0  0  0  0  0  0  0  0
  -33.2799  -23.2628   23.2978 C   0  0  0  0  0  0  0  0  0  0  0  0
  -22.3473   -9.0226   21.7080 C   0  0  0  0  0  0  0  0  0  0  0  0
  -23.9266   -9.0249   23.5364 C   0  0  0  0  0  0  0  0  0  0  0  0
  -33.9551  -22.0604   23.0865 C   0  0  0  0  0  0  0  0  0  0  0  0
  -21.1441   -8.4061   25.3517 C   0  0  0  0  0  0  0  0  0  0  0  0
  -20.8919   -8.4236   26.7234 C   0  0  0  0  0  0  0  0  0  0  0  0
  -31.9924  -21.1339   22.0205 C   0  0  0  0  0  0  0  0  0  0  0  0
  -22.2373   -6.4355   26.9962 C   0  0  0  0  0  0  0  0  0  0  0  0
  -24.0966  -10.6869   21.7911 C   0  0  0  0  0  0  0  0  0  0  0  0
  -24.1971  -13.0970   20.9610 C   0  0  0  0  0  0  0  0  0  0  0  0
  -28.3085  -30.2112   23.6739 C   0  0  0  0  0  0  0  0  0  0  0  0
  -31.9616  -23.4111   22.8572 C   0  0  0  0  0  0  0  0  0  0  0  0
  -28.4394  -28.9051   24.1832 C   0  0  0  0  0  0  0  0  0  0  0  0
  -31.3156  -22.3404   22.2179 C   0  0  0  0  0  0  0  0  0  0  0  0
  -22.8170   -8.4694   22.8992 C   0  0  0  0  0  0  0  0  0  0  0  0
  -33.3128  -20.9984   22.4497 C   0  0  0  0  0  0  0  0  0  0  0  0
  -21.9428   -7.4032   24.8021 C   0  0  0  0  0  0  0  0  0  0  0  0
  -21.4386   -7.4383   27.5457 C   0  0  0  0  0  0  0  0  0  0  0  0
  -22.4895   -6.4179   25.6244 C   0  0  0  0  0  0  0  0  0  0  0  0
  -24.7582  -11.8319   21.2191 C   0  0  0  0  0  0  0  0  0  0  0  0
  -25.2280  -13.8261   20.4205 C   0  0  0  0  0  0  0  0  0  0  0  0
  -22.8633  -13.5707   21.1896 C   0  0  0  0  0  0  0  0  0  0  0  0
  -28.9319  -25.5842   22.6400 C   0  0  0  0  0  0  0  0  0  0  0  0
  -34.0790  -17.5135   22.7194 C   0  0  0  0  0  0  0  0  0  0  0  0
  -29.1930  -23.9714   19.9044 C   0  0  0  0  0  0  0  0  0  0  0  0
  -27.0023  -26.4359   18.4398 C   0  0  0  0  0  0  0  0  0  0  0  0
  -31.0981  -13.5577   20.8040 C   0  0  0  0  0  0  0  0  0  0  0  0
  -27.5541  -30.4934   22.3988 C   0  0  0  0  0  0  0  0  0  0  0  0
  -31.1774  -24.6681   23.1230 C   0  0  0  0  0  0  0  0  0  0  0  0
  -29.8876  -22.5325   21.7905 C   0  0  0  0  0  0  0  0  0  0  0  0
  -27.3503  -29.2581   21.5254 C   0  0  0  0  0  0  0  0  0  0  0  0
  -29.2436  -13.3383   17.8818 C   0  0  0  0  0  0  0  0  0  0  0  0
  -26.8663  -28.0824   22.3682 C   0  0  0  0  0  0  0  0  0  0  0  0
  -27.8247  -13.0465   18.3680 C   0  0  0  0  0  0  0  0  0  0  0  0
  -33.3043  -13.9142   22.8556 C   0  0  0  0  0  0  0  0  0  0  0  0
  -30.2692  -12.5590   18.6963 C   0  0  0  0  0  0  0  0  0  0  0  0
  -34.1992  -15.0855   23.2368 C   0  0  0  0  0  0  0  0  0  0  0  0
  -28.7788  -12.5335   20.6709 C   0  0  0  0  0  0  0  0  0  0  0  0
  -32.1162  -15.9344   22.3805 C   0  0  0  0  0  0  0  0  0  0  0  0
  -27.9015  -27.7049   23.4346 C   0  0  1  0  0  0  0  0  0  0  0  0
  -30.1675  -25.0115   22.0098 C   0  0  1  0  0  0  0  0  0  0  0  0
  -27.6976  -13.2989   19.8806 C   0  0  2  0  0  0  0  0  0  0  0  0
  -31.9065  -14.5257   22.9222 C   0  0  1  0  0  0  0  0  0  0  0  0
  -27.5547  -13.0415   23.8911 C   0  0  0  0  0  0  0  0  0  0  0  0
  -26.1283  -26.6556   16.0977 C   0  0  0  0  0  0  0  0  0  0  0  0
  -31.5876  -25.8172   19.4931 C   0  0  0  0  0  0  0  0  0  0  0  0
  -30.1305  -27.2767   18.0736 C   0  0  0  0  0  0  0  0  0  0  0  0
  -30.5853  -24.9230   17.3836 C   0  0  0  0  0  0  0  0  0  0  0  0
  -24.1926  -26.4790   19.3685 C   0  0  0  0  0  0  0  0  0  0  0  0
  -33.1998  -18.6334   22.2234 C   0  0  0  0  0  0  0  0  0  1  0  0
  -28.5771  -13.7653   23.0259 C   0  0  0  0  0  0  0  0  0  0  0  0
  -29.9257  -13.0564   22.9902 C   0  0  0  0  0  0  0  0  0  0  0  0
  -29.0500  -25.3655   19.3429 C   0  0  1  0  0  0  0  0  0  0  0  0
  -25.8321  -26.1731   17.5092 C   0  0  2  0  0  0  0  0  0  0  0  0
  -30.3310  -25.8396   18.6001 C   0  0  0  0  0  0  0  0  0  0  0  0
  -26.0456  -11.7582   20.8709 N   0  0  0  0  0  0  0  0  0  0  0  0
  -26.3020  -12.9860   20.3885 N   0  0  0  0  0  0  0  0  0  0  0  0
  -29.7166  -23.8643   21.1988 N   0  0  0  0  0  0  0  0  0  0  0  0
  -33.4837  -16.2661   22.7728 N   0  0  0  0  0  0  0  0  0  0  0  0
  -30.1161  -12.8183   20.1282 N   0  0  0  0  0  0  0  0  0  0  0  0
  -25.3115  -15.0973   19.9740 N   0  0  0  0  0  0  0  0  0  0  0  0
  -21.9290  -12.6907   21.7525 N   0  0  0  0  0  0  0  0  0  0  0  0
  -28.9850  -26.9501   22.8424 N   0  0  0  0  0  0  0  0  0  0  0  0
  -27.8496  -25.3506   18.5140 N   0  0  0  0  0  0  0  0  0  0  0  0
  -30.9084  -13.7711   22.1777 N   0  0  0  0  0  0  0  0  0  0  0  0
  -24.6125  -26.8751   17.9996 N   0  3  0  0  0  0  0  0  0  0  0  0
  -22.5061  -14.7347   20.8880 O   0  0  0  0  0  0  0  0  0  0  0  0
  -27.9977  -24.8426   22.9209 O   0  0  0  0  0  0  0  0  0  0  0  0
  -35.2443  -17.7360   23.0523 O   0  0  0  0  0  0  0  0  0  0  0  0
  -28.8579  -23.0078   19.2105 O   0  0  0  0  0  0  0  0  0  0  0  0
  -27.1520  -27.4991   19.0379 O   0  0  0  0  0  0  0  0  0  0  0  0
  -32.0942  -13.9971   20.2151 O   0  0  0  0  0  0  0  0  0  0  0  0
  -22.1929   -7.3876   23.4402 O   0  0  0  0  0  0  0  0  0  0  0  0
  -33.9789  -19.8288   22.2427 O   0  0  0  0  0  0  0  0  0  1  0  0
  -21.1976   -7.4562   28.8632 F   0  0  0  0  0  0  0  0  0  0  0  0
  -23.2585   -5.4526   25.1024 F   0  0  0  0  0  0  0  0  0  0  0  0
  1  2  1  0  0  0  0
  1  5  2  0  0  0  0
  2  6  2  0  0  0  0
  3  8  2  0  0  0  0
  3 15  1  0  0  0  0
  4  9  1  0  0  0  0
  4 15  2  0  0  0  0
  5 17  1  0  0  0  0
  6 19  1  0  0  0  0
  7 10  2  0  0  0  0
  7 18  1  0  0  0  0
  8 21  1  0  0  0  0
  9 21  2  0  0  0  0
 10 22  1  0  0  0  0
 11 12  2  0  0  0  0
 11 23  1  0  0  0  0
 12 24  1  0  0  0  0
 13 20  1  0  0  0  0
 13 22  2  0  0  0  0
 14 24  2  0  0  0  0
 14 25  1  0  0  0  0
 15 26  1  0  0  0  0
 16 26  1  0  0  0  0
 16 27  2  0  0  0  0
 16 28  1  0  0  0  0
 17 19  2  0  0  0  0
 17 34  1  0  0  0  0
 18 20  2  0  0  0  0
 18 35  1  0  0  0  0
 19 46  1  0  0  0  0
 20 36  1  0  0  0  0
 21 79  1  0  0  0  0
 22 80  1  0  0  0  0
 23 25  2  0  0  0  0
 23 79  1  0  0  0  0
 24 81  1  0  0  0  0
 25 82  1  0  0  0  0
 26 62  2  0  0  0  0
 27 63  1  0  0  0  0
 27 67  1  0  0  0  0
 28 68  1  0  0  0  0
 28 73  2  0  0  0  0
 29 47  1  0  0  0  0
 29 69  1  0  0  0  0
 29 74  2  0  0  0  0
 30 56  1  0  0  0  0
 30 65  1  0  0  0  0
 30 75  2  0  0  0  0
 31 59  1  0  0  0  0
 31 64  1  0  0  0  0
 31 76  2  0  0  0  0
 32 60  1  0  0  0  0
 32 70  1  0  0  0  0
 32 77  2  0  0  0  0
 33 66  1  0  0  0  0
 33 71  1  0  0  0  0
 33 78  2  0  0  0  0
 34 37  1  0  0  0  0
 35 47  1  0  0  0  0
 36 64  1  0  0  0  0
 37 39  1  0  0  0  0
 38 40  1  0  0  0  0
 38 42  1  0  0  0  0
 39 46  1  0  0  0  0
 40 48  1  0  0  0  0
 41 43  1  0  0  0  0
 41 49  1  0  0  0  0
 42 66  1  0  0  0  0
 43 65  1  0  0  0  0
 44 48  1  0  0  0  0
 44 66  1  0  0  0  0
 45 49  1  0  0  0  0
 45 65  1  0  0  0  0
 46 69  1  0  0  0  0
 47 64  1  0  0  0  0
 48 63  1  0  0  0  0
 49 71  1  0  0  0  0
 50 57  1  0  0  0  0
 51 60  1  0  0  0  0
 52 61  1  0  0  0  0
 53 61  1  0  0  0  0
 54 61  1  0  0  0  0
 55 72  1  0  0  0  0
 56 80  1  0  0  0  0
 57 58  1  0  0  0  0
 58 71  1  0  0  0  0
 59 61  1  0  0  0  0
 59 70  1  0  0  0  0
 60 72  1  0  0  0  0
 62 63  1  0  0  0  0
M  CHG  1  72   1
M  ISO  4  33 100  56 101  71 100  80 101
M  END
> <Batch ID>
0012

> <Smiles>
CCC[100N:0](C1CCN(C(=O)[101CH2:1][101O:1]c2ccc3c(c2)CN(C(=O)C(NC(=O)C(C)NC)C(C)(C)C)C(C(=O)NC2CCCc4ccccc42)C3)C1)[100C:0](=O)N1CCCC(n2nc(-c3ccc(Oc4ccc(F)cc4F)cc3)c(C(N)=O)c2N)C1

> <Shape>
0.229

> <Color>
0.168

> <Negative vol penalty>
0.000

$$$$

  -OEChem-04052315473D

 84 92  0     1  0  0  0  0  0999 V2000
  -28.7927  -29.9011   27.5108 C   0  0  0  0  0  0  0  0  0  0  0  0
  -28.5180  -29.0501   26.4450 C   0  0  0  0  0  0  0  0  0  0  0  0
  -24.2827   -9.4910   21.9367 C   0  0  0  0  0  0  0  0  0  0  0  0
  -24.7181  -11.0682   23.7144 C   0  0  0  0  0  0  0  0  0  0  0  0
  -27.8034  -30.7593   27.9890 C   0  0  0  0  0  0  0  0  0  0  0  0
  -27.2533  -29.0561   25.8576 C   0  0  0  0  0  0  0  0  0  0  0  0
  -27.4614  -29.0322   20.7978 C   0  0  0  0  0  0  0  0  0  0  0  0
  -29.9477  -20.5979   19.3475 C   0  0  0  0  0  0  0  0  0  0  0  0
  -29.8287  -19.2184   19.1790 C   0  0  0  0  0  0  0  0  0  0  0  0
  -23.9871   -8.5081   22.8812 C   0  0  0  0  0  0  0  0  0  0  0  0
  -24.4225  -10.0852   24.6589 C   0  0  0  0  0  0  0  0  0  0  0  0
  -27.7358  -27.8141   20.1776 C   0  0  0  0  0  0  0  0  0  0  0  0
  -22.7679   -5.6849   24.8199 C   0  0  0  0  0  0  0  0  0  0  0  0
  -21.6353   -4.8996   24.6058 C   0  0  0  0  0  0  0  0  0  0  0  0
  -25.3859  -27.5279   19.7136 C   0  0  0  0  0  0  0  0  0  0  0  0
  -27.5528  -20.7720   19.6142 C   0  0  0  0  0  0  0  0  0  0  0  0
  -20.2524   -6.8801   24.6566 C   0  0  0  0  0  0  0  0  0  0  0  0
  -24.6482  -10.7711   22.3533 C   0  0  0  0  0  0  0  0  0  0  0  0
  -24.0570  -12.6980   20.7897 C   0  0  0  0  0  0  0  0  0  0  0  0
  -26.5289  -30.7827   27.4009 C   0  0  0  0  0  0  0  0  0  0  0  0
  -26.1437  -29.5029   20.8904 C   0  0  0  0  0  0  0  0  0  0  0  0
  -26.2456  -29.9145   26.3293 C   0  0  0  0  0  0  0  0  0  0  0  0
  -25.0977  -28.7535   20.3332 C   0  0  0  0  0  0  0  0  0  0  0  0
  -28.8097  -21.3747   19.5652 C   0  0  0  0  0  0  0  0  0  0  0  0
  -28.5717  -18.6157   19.2280 C   0  0  0  0  0  0  0  0  0  0  0  0
  -24.0570   -8.8052   24.2423 C   0  0  0  0  0  0  0  0  0  0  0  0
  -26.6977  -27.0604   19.6379 C   0  0  0  0  0  0  0  0  0  0  0  0
  -22.6429   -7.0679   24.9524 C   0  0  0  0  0  0  0  0  0  0  0  0
  -20.3775   -5.4971   24.5242 C   0  0  0  0  0  0  0  0  0  0  0  0
  -27.4338  -19.3925   19.4456 C   0  0  0  0  0  0  0  0  0  0  0  0
  -21.3851   -7.6654   24.8708 C   0  0  0  0  0  0  0  0  0  0  0  0
  -24.9542  -11.7867   21.3782 C   0  0  0  0  0  0  0  0  0  0  0  0
  -24.8346  -13.4442   19.9383 C   0  0  0  0  0  0  0  0  0  0  0  0
  -22.6467  -12.8559   20.9944 C   0  0  0  0  0  0  0  0  0  0  0  0
  -24.1683  -30.1847   23.2855 C   0  0  0  0  0  0  0  0  0  0  0  0
  -22.2599  -31.2563   20.8913 C   0  0  0  0  0  0  0  0  0  0  0  0
  -27.8694  -23.6407   19.3314 C   0  0  0  0  0  0  0  0  0  0  0  0
  -21.4070  -31.1299   17.5893 C   0  0  0  0  0  0  0  0  0  0  0  0
  -29.4838  -16.3012   18.8309 C   0  0  0  0  0  0  0  0  0  0  0  0
  -25.4774  -31.6938   27.9830 C   0  0  0  0  0  0  0  0  0  0  0  0
  -25.8674  -30.8316   21.5389 C   0  0  0  0  0  0  0  0  0  0  0  0
  -23.6681  -29.2241   20.3884 C   0  0  0  0  0  0  0  0  0  0  0  0
  -24.2781  -31.9059   27.0627 C   0  0  0  0  0  0  0  0  0  0  0  0
  -29.6072  -12.7700   18.3925 C   0  0  0  0  0  0  0  0  0  0  0  0
  -23.7994  -30.5739   26.4940 C   0  0  0  0  0  0  0  0  0  0  0  0
  -28.3339  -12.2743   19.0818 C   0  0  0  0  0  0  0  0  0  0  0  0
  -30.2309  -13.9507   19.1345 C   0  0  0  0  0  0  0  0  0  0  0  0
  -28.0456  -14.5762   20.0845 C   0  0  0  0  0  0  0  0  0  0  0  0
  -24.8935  -29.9094   25.6497 C   0  0  1  0  0  0  0  0  0  0  0  0
  -24.4298  -30.9689   22.0309 C   0  0  1  0  0  0  0  0  0  0  0  0
  -27.3456  -13.4291   19.3376 C   0  0  2  0  0  0  0  0  0  0  0  0
  -30.0451  -23.4435   21.8201 C   0  0  0  0  0  0  0  0  0  0  0  0
  -19.7828  -32.0923   15.9361 C   0  0  0  0  0  0  0  0  0  0  0  0
  -20.0626  -29.4566   22.0061 C   0  0  0  0  0  0  0  0  0  0  0  0
  -18.8422  -29.7201   19.8360 C   0  0  0  0  0  0  0  0  0  0  0  0
  -19.2855  -31.7155   21.2659 C   0  0  0  0  0  0  0  0  0  0  0  0
  -23.5808  -32.3160   15.9686 C   0  0  0  0  0  0  0  0  0  0  0  0
  -28.0893  -25.1361   19.5094 C   0  0  0  0  0  0  0  0  0  1  0  0
  -30.1631  -23.3503   20.3369 C   0  0  0  0  0  0  0  0  0  0  0  0
  -21.1991  -30.6392   20.0122 C   0  0  1  0  0  0  0  0  0  0  0  0
  -21.1583  -32.2275   16.5705 C   0  0  2  0  0  0  0  0  0  0  0  0
  -19.8740  -30.3728   20.7806 C   0  0  0  0  0  0  0  0  0  0  0  0
  -26.2061  -11.9383   20.9378 N   0  0  0  0  0  0  0  0  0  0  0  0
  -26.1010  -12.9535   20.0634 N   0  0  0  0  0  0  0  0  0  0  0  0
  -23.4481  -30.5266   21.0384 N   0  0  0  0  0  0  0  0  0  0  0  0
  -29.2374  -15.0075   19.3373 N   0  0  0  0  0  0  0  0  0  0  0  0
  -24.5519  -14.4657   19.1022 N   0  0  0  0  0  0  0  0  0  0  0  0
  -22.0045  -12.0058   21.9049 N   0  0  0  0  0  0  0  0  0  0  0  0
  -28.4540  -17.2142   19.0559 N   0  0  0  0  0  0  0  0  0  0  0  0
  -24.9784  -30.5367   24.3482 N   0  0  0  0  0  0  0  0  0  0  0  0
  -21.0553  -31.5257   18.8625 N   0  0  0  0  0  0  0  0  0  0  0  0
  -28.9331  -22.8078   19.7397 N   0  0  0  0  0  0  0  0  0  0  0  0
  -22.1821  -32.1720   15.4890 N   0  3  0  0  0  0  0  0  0  0  0  0
  -21.9730  -13.7143   20.3756 O   0  0  0  0  0  0  0  0  0  0  0  0
  -23.2951  -29.3249   23.2896 O   0  0  0  0  0  0  0  0  0  0  0  0
  -22.0451  -32.3489   21.4221 O   0  0  0  0  0  0  0  0  0  0  0  0
  -26.8137  -23.2522   18.8253 O   0  0  0  0  0  0  0  0  0  0  0  0
  -21.8638  -30.0301   17.2855 O   0  0  0  0  0  0  0  0  0  0  0  0
  -30.5194  -16.5716   18.2174 O   0  0  0  0  0  0  0  0  0  0  0  0
  -23.7684   -7.8463   25.1642 O   0  0  0  0  0  0  0  0  0  0  0  0
  -26.9627  -25.8707   19.0326 O   0  0  0  0  0  0  0  0  0  1  0  0
  -19.2901   -4.7430   24.3170 F   0  0  0  0  0  0  0  0  0  0  0  0
  -26.2203  -18.8241   19.4931 F   0  0  0  0  0  0  0  0  0  0  0  0
  -21.2588   -8.9936   24.9961 F   0  0  0  0  0  0  0  0  0  0  0  0
  1  2  1  0  0  0  0
  1  5  2  0  0  0  0
  2  6  2  0  0  0  0
  3 10  2  0  0  0  0
  3 18  1  0  0  0  0
  4 11  1  0  0  0  0
  4 18  2  0  0  0  0
  5 20  1  0  0  0  0
  6 22  1  0  0  0  0
  7 12  2  0  0  0  0
  7 21  1  0  0  0  0
  8  9  2  0  0  0  0
  8 24  1  0  0  0  0
  9 25  1  0  0  0  0
 10 26  1  0  0  0  0
 11 26  2  0  0  0  0
 12 27  1  0  0  0  0
 13 14  2  0  0  0  0
 13 28  1  0  0  0  0
 14 29  1  0  0  0  0
 15 23  1  0  0  0  0
 15 27  2  0  0  0  0
 16 24  2  0  0  0  0
 16 30  1  0  0  0  0
 17 29  2  0  0  0  0
 17 31  1  0  0  0  0
 18 32  1  0  0  0  0
 19 32  1  0  0  0  0
 19 33  2  0  0  0  0
 19 34  1  0  0  0  0
 20 22  2  0  0  0  0
 20 40  1  0  0  0  0
 21 23  2  0  0  0  0
 21 41  1  0  0  0  0
 22 49  1  0  0  0  0
 23 42  1  0  0  0  0
 24 72  1  0  0  0  0
 25 30  2  0  0  0  0
 25 69  1  0  0  0  0
 26 80  1  0  0  0  0
 27 81  1  0  0  0  0
 28 31  2  0  0  0  0
 28 80  1  0  0  0  0
 29 82  1  0  0  0  0
 30 83  1  0  0  0  0
 31 84  1  0  0  0  0
 32 63  2  0  0  0  0
 33 64  1  0  0  0  0
 33 67  1  0  0  0  0
 34 68  1  0  0  0  0
 34 74  2  0  0  0  0
 35 50  1  0  0  0  0
 35 70  1  0  0  0  0
 35 75  2  0  0  0  0
 36 60  1  0  0  0  0
 36 65  1  0  0  0  0
 36 76  2  0  0  0  0
 37 58  1  0  0  0  0
 37 72  1  0  0  0  0
 37 77  2  0  0  0  0
 38 61  1  0  0  0  0
 38 71  1  0  0  0  0
 38 78  2  0  0  0  0
 39 66  1  0  0  0  0
 39 69  1  0  0  0  0
 39 79  2  0  0  0  0
 40 43  1  0  0  0  0
 41 50  1  0  0  0  0
 42 65  1  0  0  0  0
 43 45  1  0  0  0  0
 44 46  1  0  0  0  0
 44 47  1  0  0  0  0
 45 49  1  0  0  0  0
 46 51  1  0  0  0  0
 47 66  1  0  0  0  0
 48 51  1  0  0  0  0
 48 66  1  0  0  0  0
 49 70  1  0  0  0  0
 50 65  1  0  0  0  0
 51 64  1  0  0  0  0
 52 59  1  0  0  0  0
 53 61  1  0  0  0  0
 54 62  1  0  0  0  0
 55 62  1  0  0  0  0
 56 62  1  0  0  0  0
 57 73  1  0  0  0  0
 58 81  1  0  0  0  0
 59 72  1  0  0  0  0
 60 62  1  0  0  0  0
 60 71  1  0  0  0  0
 61 73  1  0  0  0  0
 63 64  1  0  0  0  0
M  CHG  1  73   1
M  ISO  4  39 100  58 101  69 100  81 101
M  END
> <Batch ID>
0012

> <Smiles>
CCN(C(=O)[101CH2:1][101O:1]c1ccc2c(c1)CN(C(=O)C(NC(=O)C(C)NC)C(C)(C)C)C(C(=O)NC1CCCc3ccccc31)C2)c1ccc([100NH:0][100C:0](=O)N2CCCC(n3nc(-c4ccc(Oc5ccc(F)cc5F)cc4)c(C(N)=O)c3N)C2)c(F)c1

> <Shape>
0.299

> <Color>
0.119

> <Negative vol penalty>
0.000

$$$$

  -OEChem-04052315473D

 83 91  0     1  0  0  0  0  0999 V2000
  -17.9933  -25.2503   21.8439 C   0  0  0  0  0  0  0  0  0  0  0  0
  -19.2625  -24.7817   22.1678 C   0  0  0  0  0  0  0  0  0  0  0  0
  -23.8215   -9.8878   21.6507 C   0  0  0  0  0  0  0  0  0  0  0  0
  -24.3997  -11.0310   23.6991 C   0  0  0  0  0  0  0  0  0  0  0  0
  -17.8437  -26.5069   21.2585 C   0  0  0  0  0  0  0  0  0  0  0  0
  -20.3831  -25.5690   21.9055 C   0  0  0  0  0  0  0  0  0  0  0  0
  -25.5029  -25.9157   25.2481 C   0  0  0  0  0  0  0  0  0  0  0  0
  -31.4184  -20.1023   21.3150 C   0  0  0  0  0  0  0  0  0  0  0  0
  -31.0814  -18.8158   20.8944 C   0  0  0  0  0  0  0  0  0  0  0  0
  -23.3059   -8.8235   22.3902 C   0  0  0  0  0  0  0  0  0  0  0  0
  -23.8840   -9.9666   24.4386 C   0  0  0  0  0  0  0  0  0  0  0  0
  -26.7520  -25.3106   25.1161 C   0  0  0  0  0  0  0  0  0  0  0  0
  -20.4791   -8.1221   24.1079 C   0  0  0  0  0  0  0  0  0  0  0  0
  -19.2454   -7.6002   23.7192 C   0  0  0  0  0  0  0  0  0  0  0  0
  -27.5764  -27.2735   23.9818 C   0  0  0  0  0  0  0  0  0  0  0  0
  -29.0742  -20.6462   21.5296 C   0  0  0  0  0  0  0  0  0  0  0  0
  -20.2728   -5.4444   23.3529 C   0  0  0  0  0  0  0  0  0  0  0  0
  -24.3686  -10.9916   22.3052 C   0  0  0  0  0  0  0  0  0  0  0  0
  -24.2093  -13.2341   21.0997 C   0  0  0  0  0  0  0  0  0  0  0  0
  -18.9623  -27.3140   20.9977 C   0  0  0  0  0  0  0  0  0  0  0  0
  -25.2777  -27.2021   24.7373 C   0  0  0  0  0  0  0  0  0  0  0  0
  -20.2485  -26.8370   21.3148 C   0  0  0  0  0  0  0  0  0  0  0  0
  -26.3242  -27.8937   24.1108 C   0  0  0  0  0  0  0  0  0  0  0  0
  -30.4148  -21.0175   21.6327 C   0  0  0  0  0  0  0  0  0  0  0  0
  -29.7408  -18.4445   20.7913 C   0  0  0  0  0  0  0  0  0  0  0  0
  -23.3371   -8.8629   23.7842 C   0  0  0  0  0  0  0  0  0  0  0  0
  -27.7882  -25.9884   24.4803 C   0  0  0  0  0  0  0  0  0  0  0  0
  -21.6097   -7.3052   24.1191 C   0  0  0  0  0  0  0  0  0  0  0  0
  -19.1422   -6.2614   23.3417 C   0  0  0  0  0  0  0  0  0  0  0  0
  -28.7372  -19.3597   21.1089 C   0  0  0  0  0  0  0  0  0  0  0  0
  -21.5065   -5.9664   23.7416 C   0  0  0  0  0  0  0  0  0  0  0  0
  -24.9019  -12.0911   21.5418 C   0  0  0  0  0  0  0  0  0  0  0  0
  -25.1537  -13.9681   20.4245 C   0  0  0  0  0  0  0  0  0  0  0  0
  -22.8351  -13.5998   21.2829 C   0  0  0  0  0  0  0  0  0  0  0  0
  -23.3525  -28.4330   22.5278 C   0  0  0  0  0  0  0  0  0  0  0  0
  -24.5538  -31.2463   23.6068 C   0  0  0  0  0  0  0  0  0  0  0  0
  -29.8906  -23.3543   22.4128 C   0  0  0  0  0  0  0  0  0  0  0  0
  -27.0962  -32.9018   25.1695 C   0  0  0  0  0  0  0  0  0  0  0  0
  -30.2765  -16.1102   20.0100 C   0  0  0  0  0  0  0  0  0  0  0  0
  -18.7547  -28.6454   20.3203 C   0  0  0  0  0  0  0  0  0  0  0  0
  -23.9322  -27.8515   24.9114 C   0  0  0  0  0  0  0  0  0  0  0  0
  -26.1397  -29.2846   23.5632 C   0  0  0  0  0  0  0  0  0  0  0  0
  -19.9625  -29.5737   20.4186 C   0  0  0  0  0  0  0  0  0  0  0  0
  -29.8355  -12.7429   18.9405 C   0  0  0  0  0  0  0  0  0  0  0  0
  -21.2445  -28.8194   20.0805 C   0  0  0  0  0  0  0  0  0  0  0  0
  -28.4556  -12.3671   19.4856 C   0  0  0  0  0  0  0  0  0  0  0  0
  -30.5990  -13.6485   19.9052 C   0  0  0  0  0  0  0  0  0  0  0  0
  -28.4927  -14.4743   20.8804 C   0  0  0  0  0  0  0  0  0  0  0  0
  -21.4864  -27.6719   21.0685 C   0  0  1  0  0  0  0  0  0  0  0  0
  -23.6688  -28.9613   23.8983 C   0  0  1  0  0  0  0  0  0  0  0  0
  -27.6601  -13.6156   19.9145 C   0  0  2  0  0  0  0  0  0  0  0  0
  -27.8105  -35.2026   25.8719 C   0  0  0  0  0  0  0  0  0  0  0  0
  -25.2836  -31.8992   20.7170 C   0  0  0  0  0  0  0  0  0  0  0  0
  -26.7980  -33.6970   21.5789 C   0  0  0  0  0  0  0  0  0  0  0  0
  -24.3450  -33.8196   22.0153 C   0  0  0  0  0  0  0  0  0  0  0  0
  -27.1536  -32.1375   28.0281 C   0  0  0  0  0  0  0  0  0  0  0  0
  -30.6769  -24.5979   22.8118 C   0  0  0  0  0  0  0  0  0  0  0  0
  -29.7869  -25.7651   23.2110 C   0  0  0  0  0  0  0  0  0  1  0  0
  -25.7395  -32.1097   23.2495 C   0  0  1  0  0  0  0  0  0  0  0  0
  -27.0925  -33.9282   26.2879 C   0  0  2  0  0  0  0  0  0  0  0  0
  -25.5448  -32.8544   21.8987 C   0  0  0  0  0  0  0  0  0  0  0  0
  -26.1871  -12.0940   21.1780 N   0  0  0  0  0  0  0  0  0  0  0  0
  -26.3095  -13.2479   20.5000 N   0  0  0  0  0  0  0  0  0  0  0  0
  -24.8042  -29.8745   23.7524 N   0  0  0  0  0  0  0  0  0  0  0  0
  -29.7853  -14.8121   20.2640 N   0  0  0  0  0  0  0  0  0  0  0  0
  -25.1000  -15.1527   19.7794 N   0  0  0  0  0  0  0  0  0  0  0  0
  -22.0027  -12.7311   22.0018 N   0  0  0  0  0  0  0  0  0  0  0  0
  -30.7565  -22.3230   22.0589 N   0  0  0  0  0  0  0  0  0  0  0  0
  -29.4016  -17.1371   20.3631 N   0  0  0  0  0  0  0  0  0  0  0  0
  -22.0099  -28.1823   22.3175 N   0  0  0  0  0  0  0  0  0  0  0  0
  -25.9617  -32.9907   24.3910 N   0  0  0  0  0  0  0  0  0  0  0  0
  -27.7706  -33.3799   27.4964 N   0  3  0  0  0  0  0  0  0  0  0  0
  -22.3555  -14.6575   20.8088 O   0  0  0  0  0  0  0  0  0  0  0  0
  -24.2591  -28.2665   21.7203 O   0  0  0  0  0  0  0  0  0  0  0  0
  -23.4476  -31.7708   23.7583 O   0  0  0  0  0  0  0  0  0  0  0  0
  -28.6644  -23.3265   22.4216 O   0  0  0  0  0  0  0  0  0  0  0  0
  -28.0155  -32.1037   25.0009 O   0  0  0  0  0  0  0  0  0  0  0  0
  -31.3799  -16.2964   19.4905 O   0  0  0  0  0  0  0  0  0  0  0  0
  -22.8337   -7.8246   24.5061 O   0  0  0  0  0  0  0  0  0  0  0  0
  -29.0082  -25.3998   24.3496 O   0  0  0  0  0  0  0  0  0  1  0  0
  -17.9571   -5.7600   22.9698 F   0  0  0  0  0  0  0  0  0  0  0  0
  -27.4453  -19.0144   21.0120 F   0  0  0  0  0  0  0  0  0  0  0  0
  -22.5890   -5.1764   23.7515 F   0  0  0  0  0  0  0  0  0  0  0  0
  1  2  1  0  0  0  0
  1  5  2  0  0  0  0
  2  6  2  0  0  0  0
  3 10  2  0  0  0  0
  3 18  1  0  0  0  0
  4 11  1  0  0  0  0
  4 18  2  0  0  0  0
  5 20  1  0  0  0  0
  6 22  1  0  0  0  0
  7 12  2  0  0  0  0
  7 21  1  0  0  0  0
  8  9  2  0  0  0  0
  8 24  1  0  0  0  0
  9 25  1  0  0  0  0
 10 26  1  0  0  0  0
 11 26  2  0  0  0  0
 12 27  1  0  0  0  0
 13 14  2  0  0  0  0
 13 28  1  0  0  0  0
 14 29  1  0  0  0  0
 15 23  1  0  0  0  0
 15 27  2  0  0  0  0
 16 24  2  0  0  0  0
 16 30  1  0  0  0  0
 17 29  2  0  0  0  0
 17 31  1  0  0  0  0
 18 32  1  0  0  0  0
 19 32  1  0  0  0  0
 19 33  2  0  0  0  0
 19 34  1  0  0  0  0
 20 22  2  0  0  0  0
 20 40  1  0  0  0  0
 21 23  2  0  0  0  0
 21 41  1  0  0  0  0
 22 49  1  0  0  0  0
 23 42  1  0  0  0  0
 24 68  1  0  0  0  0
 25 30  2  0  0  0  0
 25 69  1  0  0  0  0
 26 79  1  0  0  0  0
 27 80  1  0  0  0  0
 28 31  2  0  0  0  0
 28 79  1  0  0  0  0
 29 81  1  0  0  0  0
 30 82  1  0  0  0  0
 31 83  1  0  0  0  0
 32 62  2  0  0  0  0
 33 63  1  0  0  0  0
 33 66  1  0  0  0  0
 34 67  1  0  0  0  0
 34 73  2  0  0  0  0
 35 50  1  0  0  0  0
 35 70  1  0  0  0  0
 35 74  2  0  0  0  0
 36 59  1  0  0  0  0
 36 64  1  0  0  0  0
 36 75  2  0  0  0  0
 37 57  1  0  0  0  0
 37 68  1  0  0  0  0
 37 76  2  0  0  0  0
 38 60  1  0  0  0  0
 38 71  1  0  0  0  0
 38 77  2  0  0  0  0
 39 65  1  0  0  0  0
 39 69  1  0  0  0  0
 39 78  2  0  0  0  0
 40 43  1  0  0  0  0
 41 50  1  0  0  0  0
 42 64  1  0  0  0  0
 43 45  1  0  0  0  0
 44 46  1  0  0  0  0
 44 47  1  0  0  0  0
 45 49  1  0  0  0  0
 46 51  1  0  0  0  0
 47 65  1  0  0  0  0
 48 51  1  0  0  0  0
 48 65  1  0  0  0  0
 49 70  1  0  0  0  0
 50 64  1  0  0  0  0
 51 63  1  0  0  0  0
 52 60  1  0  0  0  0
 53 61  1  0  0  0  0
 54 61  1  0  0  0  0
 55 61  1  0  0  0  0
 56 72  1  0  0  0  0
 57 58  1  0  0  0  0
 58 80  1  0  0  0  0
 59 61  1  0  0  0  0
 59 71  1  0  0  0  0
 60 72  1  0  0  0  0
 62 63  1  0  0  0  0
M  CHG  1  72   1
M  ISO  4  39 100  58 101  69 100  80 101
M  END
> <Batch ID>
0012

> <Smiles>
CNC(C)C(=O)NC(C(=O)N1Cc2cc([101O:1][101CH2:1]CC(=O)Nc3ccc([100NH:0][100C:0](=O)N4CCCC(n5nc(-c6ccc(Oc7ccc(F)cc7F)cc6)c(C(N)=O)c5N)C4)c(F)c3)ccc2CC1C(=O)NC1CCCc2ccccc21)C(C)(C)C

> <Shape>
0.285

> <Color>
0.134

> <Negative vol penalty>
0.000

$$$$

  -OEChem-04052315473D

 89 97  0     1  0  0  0  0  0999 V2000
  -26.8297  -32.7110   25.5935 C   0  0  0  0  0  0  0  0  0  0  0  0
  -27.5106  -31.5687   26.0021 C   0  0  0  0  0  0  0  0  0  0  0  0
  -23.0768   -9.8653   19.9481 C   0  0  0  0  0  0  0  0  0  0  0  0
  -23.8313   -9.8829   22.2432 C   0  0  0  0  0  0  0  0  0  0  0  0
  -25.5029  -32.6182   25.1754 C   0  0  0  0  0  0  0  0  0  0  0  0
  -26.8646  -30.3330   25.9938 C   0  0  0  0  0  0  0  0  0  0  0  0
  -29.7355  -26.6531   24.0288 C   0  0  0  0  0  0  0  0  0  0  0  0
  -22.3317   -8.7138   20.2018 C   0  0  0  0  0  0  0  0  0  0  0  0
  -23.0861   -8.7313   22.4969 C   0  0  0  0  0  0  0  0  0  0  0  0
  -30.7319  -26.1187   24.8445 C   0  0  0  0  0  0  0  0  0  0  0  0
  -19.8561   -7.9382   23.0956 C   0  0  0  0  0  0  0  0  0  0  0  0
  -19.0963   -7.9043   24.2648 C   0  0  0  0  0  0  0  0  0  0  0  0
  -29.3077  -24.2358   25.3402 C   0  0  0  0  0  0  0  0  0  0  0  0
  -30.6843  -18.7016   23.5696 C   0  0  0  0  0  0  0  0  0  0  0  0
  -31.5010  -17.6295   21.1270 C   0  0  0  0  0  0  0  0  0  0  0  0
  -20.3349   -5.9697   25.0135 C   0  0  0  0  0  0  0  0  0  0  0  0
  -23.8266  -10.4498   20.9688 C   0  0  0  0  0  0  0  0  0  0  0  0
  -24.1702  -12.9742   20.8375 C   0  0  0  0  0  0  0  0  0  0  0  0
  -24.8433  -31.3792   25.1529 C   0  0  0  0  0  0  0  0  0  0  0  0
  -28.5116  -25.9872   23.8711 C   0  0  0  0  0  0  0  0  0  0  0  0
  -25.5272  -30.2237   25.5763 C   0  0  0  0  0  0  0  0  0  0  0  0
  -28.2984  -24.7626   24.5199 C   0  0  0  0  0  0  0  0  0  0  0  0
  -30.1770  -17.4747   23.1420 C   0  0  0  0  0  0  0  0  0  0  0  0
  -31.6000  -19.3925   22.7759 C   0  0  0  0  0  0  0  0  0  0  0  0
  -30.5853  -16.9386   21.9207 C   0  0  0  0  0  0  0  0  0  0  0  0
  -22.3363   -8.1468   21.4762 C   0  0  0  0  0  0  0  0  0  0  0  0
  -30.5170  -24.9113   25.5027 C   0  0  0  0  0  0  0  0  0  0  0  0
  -20.8552   -6.9878   22.8852 C   0  0  0  0  0  0  0  0  0  0  0  0
  -19.3357   -6.9201   25.2238 C   0  0  0  0  0  0  0  0  0  0  0  0
  -32.0083  -18.8564   21.5546 C   0  0  0  0  0  0  0  0  0  0  0  0
  -21.0946   -6.0036   23.8442 C   0  0  0  0  0  0  0  0  0  0  0  0
  -24.5970  -11.6390   20.7072 C   0  0  0  0  0  0  0  0  0  0  0  0
  -25.2636  -13.7213   20.4732 C   0  0  0  0  0  0  0  0  0  0  0  0
  -22.8990  -13.4927   21.2509 C   0  0  0  0  0  0  0  0  0  0  0  0
  -33.1921  -20.6625   23.9230 C   0  0  0  0  0  0  0  0  0  0  0  0
  -33.7980  -21.9447   24.4220 C   0  0  0  0  0  0  0  0  0  0  0  0
  -25.4796  -26.6815   24.5257 C   0  0  0  0  0  0  0  0  0  0  0  0
  -24.9119  -23.8924   22.9698 C   0  0  0  0  0  0  0  0  0  0  0  0
  -26.0783  -20.8475   21.9625 C   0  0  0  0  0  0  0  0  0  0  0  0
  -30.7299  -14.7647   20.6559 C   0  0  0  0  0  0  0  0  0  0  0  0
  -23.3940  -31.3359   24.7378 C   0  0  0  0  0  0  0  0  0  0  0  0
  -27.4571  -26.5636   22.9665 C   0  0  0  0  0  0  0  0  0  0  0  0
  -27.0097  -23.9982   24.3676 C   0  0  0  0  0  0  0  0  0  0  0  0
  -22.8980  -29.9315   24.4030 C   0  0  0  0  0  0  0  0  0  0  0  0
  -29.6198  -12.3402   18.2966 C   0  0  0  0  0  0  0  0  0  0  0  0
  -23.3392  -28.9399   25.4749 C   0  0  0  0  0  0  0  0  0  0  0  0
  -28.1790  -12.0515   18.7241 C   0  0  0  0  0  0  0  0  0  0  0  0
  -30.5322  -12.5743   19.4993 C   0  0  0  0  0  0  0  0  0  0  0  0
  -28.6224  -13.3064   20.8725 C   0  0  0  0  0  0  0  0  0  0  0  0
  -24.8684  -28.8614   25.5579 C   0  0  1  0  0  0  0  0  0  0  0  0
  -26.0540  -26.0570   23.2857 C   0  0  1  0  0  0  0  0  0  0  0  0
  -27.6523  -13.1280   19.6932 C   0  0  2  0  0  0  0  0  0  0  0  0
  -29.1972  -16.7561   24.0121 C   0  0  0  0  0  0  0  0  0  0  0  0
  -35.3301  -19.3967   23.7348 C   0  0  0  0  0  0  0  0  0  0  0  0
  -33.9410  -19.2360   25.8302 C   0  0  0  0  0  0  0  0  0  0  0  0
  -25.3708  -18.7728   20.7408 C   0  0  0  0  0  0  0  0  0  0  0  0
  -23.3273  -22.9943   25.4177 C   0  0  0  0  0  0  0  0  0  0  0  0
  -23.4641  -20.6467   24.5585 C   0  0  0  0  0  0  0  0  0  0  0  0
  -22.2869  -22.3948   23.2239 C   0  0  0  0  0  0  0  0  0  0  0  0
  -28.1459  -21.2291   19.8796 C   0  0  0  0  0  0  0  0  0  0  0  0
  -33.7278  -23.5101   26.3404 C   0  0  0  0  0  0  0  0  0  0  0  0
  -32.8406  -24.6818   25.9546 C   0  0  0  0  0  0  0  0  0  1  0  0
  -33.9190  -19.3885   24.3129 C   0  0  0  0  0  0  0  0  0  0  0  0
  -24.8100  -22.4424   23.3774 C   0  0  1  0  0  0  0  0  0  0  0  0
  -26.0227  -20.1414   20.6198 C   0  0  2  0  0  0  0  0  0  0  0  0
  -23.4957  -22.1347   24.1490 C   0  0  0  0  0  0  0  0  0  0  0  0
  -25.8628  -11.5405   20.2923 N   0  0  0  0  0  0  0  0  0  0  0  0
  -32.1093  -20.6279   23.2077 N   0  0  0  0  0  0  0  0  0  0  0  0
  -26.2407  -12.8232   20.1588 N   0  0  0  0  0  0  0  0  0  0  0  0
  -26.0069  -24.6060   23.4773 N   0  0  0  0  0  0  0  0  0  0  0  0
  -29.9717  -13.6096   20.3704 N   0  0  0  0  0  0  0  0  0  0  0  0
  -25.4749  -15.0523   20.3943 N   0  0  0  0  0  0  0  0  0  0  0  0
  -21.8858  -12.5857   21.5901 N   0  0  0  0  0  0  0  0  0  0  0  0
  -30.0812  -15.6940   21.4683 N   0  0  0  0  0  0  0  0  0  0  0  0
  -33.3047  -22.3123   25.6518 N   0  0  0  0  0  0  0  0  0  0  0  0
  -25.3930  -28.0597   24.4733 N   0  0  0  0  0  0  0  0  0  0  0  0
  -24.9830  -21.6622   22.1569 N   0  0  0  0  0  0  0  0  0  0  0  0
  -27.3970  -19.9606   20.0723 N   0  3  0  0  0  0  0  0  0  0  0  0
  -22.6633  -14.7237   21.3018 O   0  0  0  0  0  0  0  0  0  0  0  0
  -34.6229  -22.5040   23.7181 O   0  0  0  0  0  0  0  0  0  0  0  0
  -25.1387  -25.9660   25.4603 O   0  0  0  0  0  0  0  0  0  0  0  0
  -24.0556  -24.3722   22.2228 O   0  0  0  0  0  0  0  0  0  0  0  0
  -26.9993  -20.6890   22.7608 O   0  0  0  0  0  0  0  0  0  0  0  0
  -31.8602  -14.9306   20.1902 O   0  0  0  0  0  0  0  0  0  0  0  0
  -21.6092   -7.0233   21.7242 O   0  0  0  0  0  0  0  0  0  0  0  0
  -31.4876  -24.3877   26.3000 O   0  0  0  0  0  0  0  0  0  1  0  0
  -18.6071   -6.8885   26.3473 F   0  0  0  0  0  0  0  0  0  0  0  0
  -32.8884  -19.5132   20.7860 F   0  0  0  0  0  0  0  0  0  0  0  0
  -22.0539   -5.0886   23.6482 F   0  0  0  0  0  0  0  0  0  0  0  0
  1  2  1  0  0  0  0
  1  5  2  0  0  0  0
  2  6  2  0  0  0  0
  3  8  2  0  0  0  0
  3 17  1  0  0  0  0
  4  9  1  0  0  0  0
  4 17  2  0  0  0  0
  5 19  1  0  0  0  0
  6 21  1  0  0  0  0
  7 10  2  0  0  0  0
  7 20  1  0  0  0  0
  8 26  1  0  0  0  0
  9 26  2  0  0  0  0
 10 27  1  0  0  0  0
 11 12  2  0  0  0  0
 11 28  1  0  0  0  0
 12 29  1  0  0  0  0
 13 22  1  0  0  0  0
 13 27  2  0  0  0  0
 14 23  2  0  0  0  0
 14 24  1  0  0  0  0
 15 25  2  0  0  0  0
 15 30  1  0  0  0  0
 16 29  2  0  0  0  0
 16 31  1  0  0  0  0
 17 32  1  0  0  0  0
 18 32  1  0  0  0  0
 18 33  2  0  0  0  0
 18 34  1  0  0  0  0
 19 21  2  0  0  0  0
 19 41  1  0  0  0  0
 20 22  2  0  0  0  0
 20 42  1  0  0  0  0
 21 50  1  0  0  0  0
 22 43  1  0  0  0  0
 23 25  1  0  0  0  0
 23 53  1  0  0  0  0
 24 30  2  0  0  0  0
 24 68  1  0  0  0  0
 25 74  1  0  0  0  0
 26 85  1  0  0  0  0
 27 86  1  0  0  0  0
 28 31  2  0  0  0  0
 28 85  1  0  0  0  0
 29 87  1  0  0  0  0
 30 88  1  0  0  0  0
 31 89  1  0  0  0  0
 32 67  2  0  0  0  0
 33 69  1  0  0  0  0
 33 72  1  0  0  0  0
 34 73  1  0  0  0  0
 34 79  2  0  0  0  0
 35 36  1  0  0  0  0
 35 63  1  0  0  0  0
 35 68  2  0  0  0  0
 36 75  1  0  0  0  0
 36 80  2  0  0  0  0
 37 51  1  0  0  0  0
 37 76  1  0  0  0  0
 37 81  2  0  0  0  0
 38 64  1  0  0  0  0
 38 70  1  0  0  0  0
 38 82  2  0  0  0  0
 39 65  1  0  0  0  0
 39 77  1  0  0  0  0
 39 83  2  0  0  0  0
 40 71  1  0  0  0  0
 40 74  1  0  0  0  0
 40 84  2  0  0  0  0
 41 44  1  0  0  0  0
 42 51  1  0  0  0  0
 43 70  1  0  0  0  0
 44 46  1  0  0  0  0
 45 47  1  0  0  0  0
 45 48  1  0  0  0  0
 46 50  1  0  0  0  0
 47 52  1  0  0  0  0
 48 71  1  0  0  0  0
 49 52  1  0  0  0  0
 49 71  1  0  0  0  0
 50 76  1  0  0  0  0
 51 70  1  0  0  0  0
 52 69  1  0  0  0  0
 54 63  1  0  0  0  0
 55 63  1  0  0  0  0
 56 65  1  0  0  0  0
 57 66  1  0  0  0  0
 58 66  1  0  0  0  0
 59 66  1  0  0  0  0
 60 78  1  0  0  0  0
 61 62  1  0  0  0  0
 61 75  1  0  0  0  0
 62 86  1  0  0  0  0
 64 66  1  0  0  0  0
 64 77  1  0  0  0  0
 65 78  1  0  0  0  0
 67 69  1  0  0  0  0
M  CHG  1  78   1
M  ISO  4  40 100  62 101  74 100  86 101
M  END
> <Batch ID>
0012

> <Smiles>
CNC(C)C(=O)NC(C(=O)N1Cc2cc([101O:1][101CH2:1]CNC(=O)C(Nc3cc(C)c([100NH:0][100C:0](=O)N4CCCC(n5nc(-c6ccc(Oc7ccc(F)cc7F)cc6)c(C(N)=O)c5N)C4)cc3F)=C(C)C)ccc2CC1C(=O)NC1CCCc2ccccc21)C(C)(C)C

> <Shape>
0.230

> <Color>
0.184

> <Negative vol penalty>
0.000

$$$$

  -OEChem-04052315473D

 83 91  0     1  0  0  0  0  0999 V2000
  -28.4214  -33.7523   28.9724 C   0  0  0  0  0  0  0  0  0  0  0  0
  -28.9523  -32.4667   28.9448 C   0  0  0  0  0  0  0  0  0  0  0  0
  -22.9976   -9.8957   19.9880 C   0  0  0  0  0  0  0  0  0  0  0  0
  -23.7152   -9.9608   22.2940 C   0  0  0  0  0  0  0  0  0  0  0  0
  -27.2151  -34.0211   28.3271 C   0  0  0  0  0  0  0  0  0  0  0  0
  -28.2766  -31.4488   28.2726 C   0  0  0  0  0  0  0  0  0  0  0  0
  -30.7737  -26.7756   25.2015 C   0  0  0  0  0  0  0  0  0  0  0  0
  -31.9009  -18.3112   24.1628 C   0  0  0  0  0  0  0  0  0  0  0  0
  -22.2284   -8.7642   20.2592 C   0  0  0  0  0  0  0  0  0  0  0  0
  -22.9460   -8.8293   22.5653 C   0  0  0  0  0  0  0  0  0  0  0  0
  -31.0132  -25.4466   25.5481 C   0  0  0  0  0  0  0  0  0  0  0  0
  -23.1866   -5.4869   22.1162 C   0  0  0  0  0  0  0  0  0  0  0  0
  -32.4639  -17.0590   23.9166 C   0  0  0  0  0  0  0  0  0  0  0  0
  -23.7701   -4.4738   22.8770 C   0  0  0  0  0  0  0  0  0  0  0  0
  -28.9457  -24.8031   24.4850 C   0  0  0  0  0  0  0  0  0  0  0  0
  -22.0410   -4.7304   24.5448 C   0  0  0  0  0  0  0  0  0  0  0  0
  -23.7410  -10.4940   21.0053 C   0  0  0  0  0  0  0  0  0  0  0  0
  -24.1309  -13.0078   20.8140 C   0  0  0  0  0  0  0  0  0  0  0  0
  -26.5292  -33.0082   27.6385 C   0  0  0  0  0  0  0  0  0  0  0  0
  -29.6111  -27.1305   24.5024 C   0  0  0  0  0  0  0  0  0  0  0  0
  -27.0593  -31.7041   27.6186 C   0  0  0  0  0  0  0  0  0  0  0  0
  -28.6950  -26.1370   24.1285 C   0  0  0  0  0  0  0  0  0  0  0  0
  -30.7242  -18.6865   23.5145 C   0  0  0  0  0  0  0  0  0  0  0  0
  -30.6736  -16.5575   22.3736 C   0  0  0  0  0  0  0  0  0  0  0  0
  -22.2025   -8.2310   21.5479 C   0  0  0  0  0  0  0  0  0  0  0  0
  -30.0977  -24.4605   25.1924 C   0  0  0  0  0  0  0  0  0  0  0  0
  -22.0304   -6.1219   22.5698 C   0  0  0  0  0  0  0  0  0  0  0  0
  -23.1973   -4.0955   24.0912 C   0  0  0  0  0  0  0  0  0  0  0  0
  -31.8503  -16.1822   23.0220 C   0  0  0  0  0  0  0  0  0  0  0  0
  -21.4576   -5.7436   23.7841 C   0  0  0  0  0  0  0  0  0  0  0  0
  -30.1106  -17.8097   22.6199 C   0  0  0  0  0  0  0  0  0  0  0  0
  -24.5362  -11.6625   20.7256 C   0  0  0  0  0  0  0  0  0  0  0  0
  -25.2430  -13.7262   20.4486 C   0  0  0  0  0  0  0  0  0  0  0  0
  -22.8625  -13.5587   21.1927 C   0  0  0  0  0  0  0  0  0  0  0  0
  -27.1056  -28.9887   25.1130 C   0  0  0  0  0  0  0  0  0  0  0  0
  -26.3426  -28.3074   22.0347 C   0  0  0  0  0  0  0  0  0  0  0  0
  -30.6891  -20.9300   24.6545 C   0  0  0  0  0  0  0  0  0  0  0  0
  -26.6411  -26.1874   19.3770 C   0  0  0  0  0  0  0  0  0  0  0  0
  -30.7231  -14.6803   20.6943 C   0  0  0  0  0  0  0  0  0  0  0  0
  -25.2047  -33.3360   26.9959 C   0  0  0  0  0  0  0  0  0  0  0  0
  -29.3806  -28.5648   24.1126 C   0  0  0  0  0  0  0  0  0  0  0  0
  -27.4415  -26.4629   23.3598 C   0  0  0  0  0  0  0  0  0  0  0  0
  -24.7400  -32.2870   25.9890 C   0  0  0  0  0  0  0  0  0  0  0  0
  -29.6087  -12.2139   18.3809 C   0  0  0  0  0  0  0  0  0  0  0  0
  -24.8983  -30.8846   26.5677 C   0  0  0  0  0  0  0  0  0  0  0  0
  -28.1563  -11.9612   18.7920 C   0  0  0  0  0  0  0  0  0  0  0  0
  -30.5056  -12.4639   19.5921 C   0  0  0  0  0  0  0  0  0  0  0  0
  -28.5871  -13.2645   20.9140 C   0  0  0  0  0  0  0  0  0  0  0  0
  -26.3685  -30.5790   26.8790 C   0  0  1  0  0  0  0  0  0  0  0  0
  -27.9121  -28.8839   23.8496 C   0  0  1  0  0  0  0  0  0  0  0  0
  -27.6331  -13.0718   19.7239 C   0  0  2  0  0  0  0  0  0  0  0  0
  -25.8717  -25.8771   17.0086 C   0  0  0  0  0  0  0  0  0  0  0  0
  -23.6090  -27.4025   23.0438 C   0  0  0  0  0  0  0  0  0  0  0  0
  -23.2588  -26.2480   20.8500 C   0  0  0  0  0  0  0  0  0  0  0  0
  -23.5524  -28.7242   20.9215 C   0  0  0  0  0  0  0  0  0  0  0  0
  -29.4109  -26.2980   18.3402 C   0  0  0  0  0  0  0  0  0  0  0  0
  -29.8027  -22.1616   24.6596 C   0  0  0  0  0  0  0  0  0  1  0  0
  -25.5452  -27.2270   21.3449 C   0  0  1  0  0  0  0  0  0  0  0  0
  -26.9541  -26.4442   17.9139 C   0  0  2  0  0  0  0  0  0  0  0  0
  -24.0139  -27.3942   21.5562 C   0  0  0  0  0  0  0  0  0  0  0  0
  -25.8066  -11.5315   20.3345 N   0  0  0  0  0  0  0  0  0  0  0  0
  -26.2091  -12.8036   20.1738 N   0  0  0  0  0  0  0  0  0  0  0  0
  -27.2578  -27.8805   23.0074 N   0  0  0  0  0  0  0  0  0  0  0  0
  -29.9494  -13.5312   20.4265 N   0  0  0  0  0  0  0  0  0  0  0  0
  -25.4789  -15.0508   20.3385 N   0  0  0  0  0  0  0  0  0  0  0  0
  -21.8282  -12.6784   21.5387 N   0  0  0  0  0  0  0  0  0  0  0  0
  -30.1830  -19.9645   23.7909 N   0  0  0  0  0  0  0  0  0  0  0  0
  -30.0778  -15.6417   21.4715 N   0  0  0  0  0  0  0  0  0  0  0  0
  -27.0857  -30.2557   25.6642 N   0  0  0  0  0  0  0  0  0  0  0  0
  -25.9606  -27.2428   19.9465 N   0  0  0  0  0  0  0  0  0  0  0  0
  -28.2534  -25.8149   17.5440 N   0  3  0  0  0  0  0  0  0  0  0  0
  -22.6477  -14.7945   21.2076 O   0  0  0  0  0  0  0  0  0  0  0  0
  -26.5418  -27.9942   25.5542 O   0  0  0  0  0  0  0  0  0  0  0  0
  -26.1653  -29.4861   21.7170 O   0  0  0  0  0  0  0  0  0  0  0  0
  -31.7009  -20.8638   25.3447 O   0  0  0  0  0  0  0  0  0  0  0  0
  -26.9643  -25.1525   19.9557 O   0  0  0  0  0  0  0  0  0  0  0  0
  -31.8635  -14.8145   20.2432 O   0  0  0  0  0  0  0  0  0  0  0  0
  -21.4519   -7.1270   21.8130 O   0  0  0  0  0  0  0  0  0  0  0  0
  -30.3287  -23.1626   25.5300 O   0  0  0  0  0  0  0  0  0  1  0  0
  -23.7568   -3.1215   24.8209 F   0  0  0  0  0  0  0  0  0  0  0  0
  -32.4023  -14.9817   22.7941 F   0  0  0  0  0  0  0  0  0  0  0  0
  -20.3462   -6.3491   24.2244 F   0  0  0  0  0  0  0  0  0  0  0  0
  -28.6462  -18.2779   21.8146 Cl  0  0  0  0  0  0  0  0  0  0  0  0
  1  2  1  0  0  0  0
  1  5  2  0  0  0  0
  2  6  2  0  0  0  0
  3  9  2  0  0  0  0
  3 17  1  0  0  0  0
  4 10  1  0  0  0  0
  4 17  2  0  0  0  0
  5 19  1  0  0  0  0
  6 21  1  0  0  0  0
  7 11  2  0  0  0  0
  7 20  1  0  0  0  0
  8 13  2  0  0  0  0
  8 23  1  0  0  0  0
  9 25  1  0  0  0  0
 10 25  2  0  0  0  0
 11 26  1  0  0  0  0
 12 14  2  0  0  0  0
 12 27  1  0  0  0  0
 13 29  1  0  0  0  0
 14 28  1  0  0  0  0
 15 22  1  0  0  0  0
 15 26  2  0  0  0  0
 16 28  2  0  0  0  0
 16 30  1  0  0  0  0
 17 32  1  0  0  0  0
 18 32  1  0  0  0  0
 18 33  2  0  0  0  0
 18 34  1  0  0  0  0
 19 21  2  0  0  0  0
 19 40  1  0  0  0  0
 20 22  2  0  0  0  0
 20 41  1  0  0  0  0
 21 49  1  0  0  0  0
 22 42  1  0  0  0  0
 23 31  2  0  0  0  0
 23 67  1  0  0  0  0
 24 29  2  0  0  0  0
 24 31  1  0  0  0  0
 24 68  1  0  0  0  0
 25 78  1  0  0  0  0
 26 79  1  0  0  0  0
 27 30  2  0  0  0  0
 27 78  1  0  0  0  0
 28 80  1  0  0  0  0
 29 81  1  0  0  0  0
 30 82  1  0  0  0  0
 31 83  1  0  0  0  0
 32 61  2  0  0  0  0
 33 62  1  0  0  0  0
 33 65  1  0  0  0  0
 34 66  1  0  0  0  0
 34 72  2  0  0  0  0
 35 50  1  0  0  0  0
 35 69  1  0  0  0  0
 35 73  2  0  0  0  0
 36 58  1  0  0  0  0
 36 63  1  0  0  0  0
 36 74  2  0  0  0  0
 37 57  1  0  0  0  0
 37 67  1  0  0  0  0
 37 75  2  0  0  0  0
 38 59  1  0  0  0  0
 38 70  1  0  0  0  0
 38 76  2  0  0  0  0
 39 64  1  0  0  0  0
 39 68  1  0  0  0  0
 39 77  2  0  0  0  0
 40 43  1  0  0  0  0
 41 50  1  0  0  0  0
 42 63  1  0  0  0  0
 43 45  1  0  0  0  0
 44 46  1  0  0  0  0
 44 47  1  0  0  0  0
 45 49  1  0  0  0  0
 46 51  1  0  0  0  0
 47 64  1  0  0  0  0
 48 51  1  0  0  0  0
 48 64  1  0  0  0  0
 49 69  1  0  0  0  0
 50 63  1  0  0  0  0
 51 62  1  0  0  0  0
 52 59  1  0  0  0  0
 53 60  1  0  0  0  0
 54 60  1  0  0  0  0
 55 60  1  0  0  0  0
 56 71  1  0  0  0  0
 57 79  1  0  0  0  0
 58 60  1  0  0  0  0
 58 70  1  0  0  0  0
 59 71  1  0  0  0  0
 61 62  1  0  0  0  0
M  CHG  1  71   1
M  ISO  4  39 100  57 101  68 100  79 101
M  END
> <Batch ID>
0012

> <Smiles>
CNC(C)C(=O)NC(C(=O)N1Cc2cc([101O:1][101CH2:1]C(=O)Nc3ccc(F)c([100NH:0][100C:0](=O)N4CCCC(n5nc(-c6ccc(Oc7ccc(F)cc7F)cc6)c(C(N)=O)c5N)C4)c3Cl)ccc2CC1C(=O)NC1CCCc2ccccc21)C(C)(C)C

> <Shape>
0.271

> <Color>
0.198

> <Negative vol penalty>
0.000

$$$$

  -OEChem-04052315473D

 85 93  0     1  0  0  0  0  0999 V2000
  -27.6067  -33.1869   24.7555 C   0  0  0  0  0  0  0  0  0  0  0  0
  -27.9162  -31.8593   24.4780 C   0  0  0  0  0  0  0  0  0  0  0  0
  -22.9988   -9.8916   19.9856 C   0  0  0  0  0  0  0  0  0  0  0  0
  -23.7150   -9.9571   22.2921 C   0  0  0  0  0  0  0  0  0  0  0  0
  -26.4064  -33.5037   25.3903 C   0  0  0  0  0  0  0  0  0  0  0  0
  -27.0260  -30.8475   24.8363 C   0  0  0  0  0  0  0  0  0  0  0  0
  -25.9473  -25.6446   21.7913 C   0  0  0  0  0  0  0  0  0  0  0  0
  -22.2304   -8.7594   20.2563 C   0  0  0  0  0  0  0  0  0  0  0  0
  -22.9466   -8.8248   22.5628 C   0  0  0  0  0  0  0  0  0  0  0  0
  -26.4184  -24.3434   21.9612 C   0  0  0  0  0  0  0  0  0  0  0  0
  -23.1905   -5.4827   22.1136 C   0  0  0  0  0  0  0  0  0  0  0  0
  -23.7744   -4.4701   22.8746 C   0  0  0  0  0  0  0  0  0  0  0  0
  -24.4395  -23.7988   23.2286 C   0  0  0  0  0  0  0  0  0  0  0  0
  -31.8789  -18.3485   24.1418 C   0  0  0  0  0  0  0  0  0  0  0  0
  -32.0521  -16.5429   22.5459 C   0  0  0  0  0  0  0  0  0  0  0  0
  -22.0441   -4.7250   24.5414 C   0  0  0  0  0  0  0  0  0  0  0  0
  -23.7411  -10.4904   21.0035 C   0  0  0  0  0  0  0  0  0  0  0  0
  -24.1289  -13.0046   20.8126 C   0  0  0  0  0  0  0  0  0  0  0  0
  -25.4967  -32.4961   25.7478 C   0  0  0  0  0  0  0  0  0  0  0  0
  -24.7218  -26.0363   22.3491 C   0  0  0  0  0  0  0  0  0  0  0  0
  -25.8131  -31.1510   25.4777 C   0  0  0  0  0  0  0  0  0  0  0  0
  -23.9538  -25.1048   23.0622 C   0  0  0  0  0  0  0  0  0  0  0  0
  -32.6577  -17.4372   23.4286 C   0  0  0  0  0  0  0  0  0  0  0  0
  -30.4944  -18.3655   23.9723 C   0  0  0  0  0  0  0  0  0  0  0  0
  -29.8888  -17.4712   23.0896 C   0  0  0  0  0  0  0  0  0  0  0  0
  -30.6676  -16.5599   22.3764 C   0  0  0  0  0  0  0  0  0  0  0  0
  -22.2043   -8.2260   21.5449 C   0  0  0  0  0  0  0  0  0  0  0  0
  -25.6659  -23.4211   22.6823 C   0  0  0  0  0  0  0  0  0  0  0  0
  -22.0334   -6.1167   22.5665 C   0  0  0  0  0  0  0  0  0  0  0  0
  -23.2012   -4.0912   24.0885 C   0  0  0  0  0  0  0  0  0  0  0  0
  -21.4603   -5.7378   23.7804 C   0  0  0  0  0  0  0  0  0  0  0  0
  -24.5355  -11.6597   20.7243 C   0  0  0  0  0  0  0  0  0  0  0  0
  -25.2406  -13.7240   20.4479 C   0  0  0  0  0  0  0  0  0  0  0  0
  -22.8598  -13.5543   21.1907 C   0  0  0  0  0  0  0  0  0  0  0  0
  -23.8262  -28.1904   24.5081 C   0  0  0  0  0  0  0  0  0  0  0  0
  -20.8458  -27.2608   23.6276 C   0  0  0  0  0  0  0  0  0  0  0  0
  -27.8787  -20.7851   23.7644 C   0  0  0  0  0  0  0  0  0  0  0  0
  -18.8428  -24.8475   22.2819 C   0  0  0  0  0  0  0  0  0  0  0  0
  -30.7197  -14.6829   20.6970 C   0  0  0  0  0  0  0  0  0  0  0  0
  -24.2334  -32.8834   26.4749 C   0  0  0  0  0  0  0  0  0  0  0  0
  -24.2150  -27.4361   22.1341 C   0  0  0  0  0  0  0  0  0  0  0  0
  -22.6221  -25.4695   23.6637 C   0  0  0  0  0  0  0  0  0  0  0  0
  -23.1748  -31.7836   26.4847 C   0  0  0  0  0  0  0  0  0  0  0  0
  -29.6088  -12.2157   18.3827 C   0  0  0  0  0  0  0  0  0  0  0  0
  -23.8012  -30.4429   26.8549 C   0  0  0  0  0  0  0  0  0  0  0  0
  -28.1565  -11.9618   18.7928 C   0  0  0  0  0  0  0  0  0  0  0  0
  -30.5048  -12.4664   19.5943 C   0  0  0  0  0  0  0  0  0  0  0  0
  -28.5848  -13.2652   20.9152 C   0  0  0  0  0  0  0  0  0  0  0  0
  -24.8620  -30.0274   25.8285 C   0  0  1  0  0  0  0  0  0  0  0  0
  -23.1953  -27.8700   23.1826 C   0  0  1  0  0  0  0  0  0  0  0  0
  -27.6317  -13.0717   19.7245 C   0  0  2  0  0  0  0  0  0  0  0  0
  -34.1378  -17.4179   23.6110 C   0  0  0  0  0  0  0  0  0  0  0  0
  -28.4029  -17.4931   22.9121 C   0  0  0  0  0  0  0  0  0  0  0  0
  -16.4440  -24.3621   21.7272 C   0  0  0  0  0  0  0  0  0  0  0  0
  -20.2695  -26.7475   26.5797 C   0  0  0  0  0  0  0  0  0  0  0  0
  -18.2744  -25.4040   25.8848 C   0  0  0  0  0  0  0  0  0  0  0  0
  -18.3977  -27.8317   25.3245 C   0  0  0  0  0  0  0  0  0  0  0  0
  -30.2902  -21.2254   23.2710 C   0  0  0  0  0  0  0  0  0  0  0  0
  -19.4453  -24.5685   19.3978 C   0  0  0  0  0  0  0  0  0  0  0  0
  -29.6794  -19.3552   24.7535 C   0  0  0  0  0  0  0  0  0  0  0  0
  -27.5387  -21.9693   22.8842 C   0  0  0  0  0  0  0  0  0  1  0  0
  -19.8780  -26.1974   24.0876 C   0  0  1  0  0  0  0  0  0  0  0  0
  -17.7656  -24.9125   21.2142 C   0  0  2  0  0  0  0  0  0  0  0  0
  -19.2309  -26.5385   25.4596 C   0  0  0  0  0  0  0  0  0  0  0  0
  -25.8062  -11.5298   20.3339 N   0  0  0  0  0  0  0  0  0  0  0  0
  -26.2077  -12.8022   20.1736 N   0  0  0  0  0  0  0  0  0  0  0  0
  -22.1725  -26.8521   23.4315 N   0  0  0  0  0  0  0  0  0  0  0  0
  -29.9472  -13.5332   20.4286 N   0  0  0  0  0  0  0  0  0  0  0  0
  -25.4754  -15.0489   20.3381 N   0  0  0  0  0  0  0  0  0  0  0  0
  -21.8261  -12.6731   21.5359 N   0  0  0  0  0  0  0  0  0  0  0  0
  -30.0731  -15.6436   21.4738 N   0  0  0  0  0  0  0  0  0  0  0  0
  -24.2327  -29.5051   24.6345 N   0  0  0  0  0  0  0  0  0  0  0  0
  -18.9193  -26.0208   23.0022 N   0  0  0  0  0  0  0  0  0  0  0  0
  -29.2283  -20.4687   23.9227 N   0  0  0  0  0  0  0  0  0  0  0  0
  -18.1725  -24.1204   20.0192 N   0  3  0  0  0  0  0  0  0  0  0  0
  -22.6439  -14.7899   21.2055 O   0  0  0  0  0  0  0  0  0  0  0  0
  -23.9347  -27.3105   25.3540 O   0  0  0  0  0  0  0  0  0  0  0  0
  -20.4380  -28.4101   23.4421 O   0  0  0  0  0  0  0  0  0  0  0  0
  -26.9582  -20.1629   24.3033 O   0  0  0  0  0  0  0  0  0  0  0  0
  -19.5434  -23.8539   22.4617 O   0  0  0  0  0  0  0  0  0  0  0  0
  -31.8603  -14.8181   20.2465 O   0  0  0  0  0  0  0  0  0  0  0  0
  -21.4545   -7.1213   21.8095 O   0  0  0  0  0  0  0  0  0  0  0  0
  -26.1237  -22.1506   22.8502 O   0  0  0  0  0  0  0  0  0  1  0  0
  -23.7612   -3.1176   24.8184 F   0  0  0  0  0  0  0  0  0  0  0  0
  -20.3481   -6.3423   24.2202 F   0  0  0  0  0  0  0  0  0  0  0  0
  1  2  1  0  0  0  0
  1  5  2  0  0  0  0
  2  6  2  0  0  0  0
  3  8  2  0  0  0  0
  3 17  1  0  0  0  0
  4  9  1  0  0  0  0
  4 17  2  0  0  0  0
  5 19  1  0  0  0  0
  6 21  1  0  0  0  0
  7 10  2  0  0  0  0
  7 20  1  0  0  0  0
  8 27  1  0  0  0  0
  9 27  2  0  0  0  0
 10 28  1  0  0  0  0
 11 12  2  0  0  0  0
 11 29  1  0  0  0  0
 12 30  1  0  0  0  0
 13 22  1  0  0  0  0
 13 28  2  0  0  0  0
 14 23  2  0  0  0  0
 14 24  1  0  0  0  0
 15 23  1  0  0  0  0
 15 26  2  0  0  0  0
 16 30  2  0  0  0  0
 16 31  1  0  0  0  0
 17 32  1  0  0  0  0
 18 32  1  0  0  0  0
 18 33  2  0  0  0  0
 18 34  1  0  0  0  0
 19 21  2  0  0  0  0
 19 40  1  0  0  0  0
 20 22  2  0  0  0  0
 20 41  1  0  0  0  0
 21 49  1  0  0  0  0
 22 42  1  0  0  0  0
 23 52  1  0  0  0  0
 24 25  2  0  0  0  0
 24 60  1  0  0  0  0
 25 26  1  0  0  0  0
 25 53  1  0  0  0  0
 26 71  1  0  0  0  0
 27 82  1  0  0  0  0
 28 83  1  0  0  0  0
 29 31  2  0  0  0  0
 29 82  1  0  0  0  0
 30 84  1  0  0  0  0
 31 85  1  0  0  0  0
 32 65  2  0  0  0  0
 33 66  1  0  0  0  0
 33 69  1  0  0  0  0
 34 70  1  0  0  0  0
 34 76  2  0  0  0  0
 35 50  1  0  0  0  0
 35 72  1  0  0  0  0
 35 77  2  0  0  0  0
 36 62  1  0  0  0  0
 36 67  1  0  0  0  0
 36 78  2  0  0  0  0
 37 61  1  0  0  0  0
 37 74  1  0  0  0  0
 37 79  2  0  0  0  0
 38 63  1  0  0  0  0
 38 73  1  0  0  0  0
 38 80  2  0  0  0  0
 39 68  1  0  0  0  0
 39 71  1  0  0  0  0
 39 81  2  0  0  0  0
 40 43  1  0  0  0  0
 41 50  1  0  0  0  0
 42 67  1  0  0  0  0
 43 45  1  0  0  0  0
 44 46  1  0  0  0  0
 44 47  1  0  0  0  0
 45 49  1  0  0  0  0
 46 51  1  0  0  0  0
 47 68  1  0  0  0  0
 48 51  1  0  0  0  0
 48 68  1  0  0  0  0
 49 72  1  0  0  0  0
 50 67  1  0  0  0  0
 51 66  1  0  0  0  0
 54 63  1  0  0  0  0
 55 64  1  0  0  0  0
 56 64  1  0  0  0  0
 57 64  1  0  0  0  0
 58 74  1  0  0  0  0
 59 75  1  0  0  0  0
 60 74  1  0  0  0  0
 61 83  1  0  0  0  0
 62 64  1  0  0  0  0
 62 73  1  0  0  0  0
 63 75  1  0  0  0  0
 65 66  1  0  0  0  0
M  CHG  1  75   1
M  ISO  4  39 100  61 101  71 100  83 101
M  END
> <Batch ID>
0012

> <Smiles>
CNC(C)C(=O)NC(C(=O)N1Cc2cc([101O:1][101CH2:1]C(=O)N(C)Cc3cc(C)cc([100NH:0][100C:0](=O)N4CCCC(n5nc(-c6ccc(Oc7ccc(F)cc7F)cc6)c(C(N)=O)c5N)C4)c3C)ccc2CC1C(=O)NC1CCCc2ccccc21)C(C)(C)C

> <Shape>
0.277

> <Color>
0.202

> <Negative vol penalty>
0.000

$$$$

  -OEChem-04052315473D

 84 92  0     1  0  0  0  0  0999 V2000
  -28.6922  -23.8730   14.8076 C   0  0  0  0  0  0  0  0  0  0  0  0
  -27.4918  -24.1802   15.4401 C   0  0  0  0  0  0  0  0  0  0  0  0
  -26.1983  -13.5072   19.5787 C   0  0  0  0  0  0  0  0  0  0  0  0
  -24.0857  -13.7633   20.7226 C   0  0  0  0  0  0  0  0  0  0  0  0
  -29.8784  -23.8485   15.5400 C   0  0  0  0  0  0  0  0  0  0  0  0
  -27.4767  -24.4619   16.8057 C   0  0  0  0  0  0  0  0  0  0  0  0
  -24.6389  -28.5042   17.9241 C   0  0  0  0  0  0  0  0  0  0  0  0
  -26.3230  -12.2185   20.0975 C   0  0  0  0  0  0  0  0  0  0  0  0
  -24.2104  -12.4745   21.2414 C   0  0  0  0  0  0  0  0  0  0  0  0
  -23.2567  -28.3235   17.9535 C   0  0  0  0  0  0  0  0  0  0  0  0
  -23.7535   -9.3035   20.1661 C   0  0  0  0  0  0  0  0  0  0  0  0
  -22.6307   -8.4772   20.1218 C   0  0  0  0  0  0  0  0  0  0  0  0
  -23.3335  -28.1731   20.3599 C   0  0  0  0  0  0  0  0  0  0  0  0
  -22.6726   -8.2909   22.5302 C   0  0  0  0  0  0  0  0  0  0  0  0
  -25.0796  -14.2797   19.8913 C   0  0  0  0  0  0  0  0  0  0  0  0
  -24.3393  -15.9848   18.1443 C   0  0  0  0  0  0  0  0  0  0  0  0
  -29.8792  -24.1395   16.9133 C   0  0  0  0  0  0  0  0  0  0  0  0
  -25.3813  -28.5099   19.1137 C   0  0  0  0  0  0  0  0  0  0  0  0
  -28.6638  -24.4399   17.5574 C   0  0  0  0  0  0  0  0  0  0  0  0
  -24.7246  -28.3567   20.3431 C   0  0  0  0  0  0  0  0  0  0  0  0
  -25.3291  -11.7021   20.9288 C   0  0  0  0  0  0  0  0  0  0  0  0
  -22.6042  -28.1550   19.1712 C   0  0  0  0  0  0  0  0  0  0  0  0
  -24.3360   -9.6234   21.3926 C   0  0  0  0  0  0  0  0  0  0  0  0
  -22.0902   -7.9709   21.3038 C   0  0  0  0  0  0  0  0  0  0  0  0
  -23.7956   -9.1171   22.5746 C   0  0  0  0  0  0  0  0  0  0  0  0
  -22.2754  -23.0077   22.2604 C   0  0  0  0  0  0  0  0  0  0  0  0
  -24.9505  -15.6113   19.3562 C   0  0  0  0  0  0  0  0  0  0  0  0
  -21.0225  -23.2691   22.8466 C   0  0  0  0  0  0  0  0  0  0  0  0
  -24.4780  -17.3505   18.0964 C   0  0  0  0  0  0  0  0  0  0  0  0
  -22.6893  -21.8349   22.8433 C   0  0  0  0  0  0  0  0  0  0  0  0
  -23.7031  -15.1702   17.1506 C   0  0  0  0  0  0  0  0  0  0  0  0
  -20.1113  -24.4140   22.5896 C   0  0  0  0  0  0  0  0  0  0  0  0
  -27.7101  -26.7093   20.3130 C   0  0  0  0  0  0  0  0  0  0  0  0
  -27.7147  -28.9578   22.6511 C   0  0  0  0  0  0  0  0  0  0  0  0
  -26.0096  -31.3830   24.3417 C   0  0  0  0  0  0  0  0  0  0  0  0
  -25.1331  -21.5371   22.3093 C   0  0  0  0  0  0  0  0  0  0  0  0
  -31.1795  -24.0542   17.6727 C   0  0  0  0  0  0  0  0  0  0  0  0
  -26.8681  -28.7328   19.0669 C   0  0  0  0  0  0  0  0  0  0  0  0
  -25.4733  -28.3754   21.6498 C   0  0  0  0  0  0  0  0  0  0  0  0
  -31.1320  -24.7314   19.0399 C   0  0  0  0  0  0  0  0  0  0  0  0
  -27.3468  -20.8781   19.5996 C   0  0  0  0  0  0  0  0  0  0  0  0
  -29.8663  -24.3302   19.7907 C   0  0  0  0  0  0  0  0  0  0  0  0
  -26.9239  -19.4893   19.1155 C   0  0  0  0  0  0  0  0  0  0  0  0
  -27.2481  -21.0035   21.1189 C   0  0  0  0  0  0  0  0  0  0  0  0
  -25.5227  -19.2471   21.2048 C   0  0  0  0  0  0  0  0  0  0  0  0
  -28.6102  -24.7754   19.0321 C   0  0  1  0  0  0  0  0  0  0  0  0
  -27.5903  -28.2071   20.3036 C   0  0  1  0  0  0  0  0  0  0  0  0
  -25.5434  -19.0936   19.6752 C   0  0  2  0  0  0  0  0  0  0  0  0
  -26.2642  -33.0204   26.2262 C   0  0  0  0  0  0  0  0  0  0  0  0
  -27.4049  -26.6856   24.6638 C   0  0  0  0  0  0  0  0  0  0  0  0
  -26.7197  -28.3843   26.3707 C   0  0  0  0  0  0  0  0  0  0  0  0
  -28.9973  -28.4846   25.3583 C   0  0  0  0  0  0  0  0  0  0  0  0
  -21.6638  -20.3138   24.5634 C   0  0  0  0  0  0  0  0  0  0  0  0
  -25.5557  -33.6938   22.5492 C   0  0  0  0  0  0  0  0  0  0  0  0
  -19.4459  -26.5189   19.7996 C   0  0  0  0  0  0  0  0  0  0  0  0
  -18.8109  -25.6394   20.8681 C   0  0  0  0  0  0  0  0  0  0  0  0
  -20.7281  -27.1936   20.2720 C   0  0  0  0  0  0  0  0  0  1  0  0
  -26.9914  -29.1362   23.9641 C   0  0  1  0  0  0  0  0  0  0  0  0
  -26.3919  -32.8007   24.7268 C   0  0  2  0  0  0  0  0  0  0  0  0
  -27.5142  -28.1704   25.0647 C   0  0  0  0  0  0  0  0  0  0  0  0
  -25.4411  -16.6553   20.0295 N   0  0  0  0  0  0  0  0  0  0  0  0
  -20.6638  -22.3372   23.7336 N   0  0  0  0  0  0  0  0  0  0  0  0
  -25.1384  -17.6983   19.2379 N   0  0  0  0  0  0  0  0  0  0  0  0
  -21.6975  -21.4788   23.7091 N   0  0  0  0  0  0  0  0  0  0  0  0
  -26.9265  -28.5901   21.5513 N   0  0  0  0  0  0  0  0  0  0  0  0
  -25.9119  -20.6165   21.5766 N   0  0  0  0  0  0  0  0  0  0  0  0
  -24.0983  -18.2757   17.1897 N   0  0  0  0  0  0  0  0  0  0  0  0
  -23.6480  -13.7851   17.3574 N   0  0  0  0  0  0  0  0  0  0  0  0
  -23.8678  -21.0693   22.6624 N   0  0  0  0  0  0  0  0  0  0  0  0
  -19.6750  -24.5673   21.2784 N   0  0  0  0  0  0  0  0  0  0  0  0
  -28.3809  -26.1917   19.2214 N   0  0  0  0  0  0  0  0  0  0  0  0
  -27.1077  -30.5499   24.3054 N   0  0  0  0  0  0  0  0  0  0  0  0
  -25.5113  -33.7816   24.0315 N   0  3  0  0  0  0  0  0  0  0  0  0
  -23.2129  -15.6545   16.1024 O   0  0  0  0  0  0  0  0  0  0  0  0
  -19.8112  -25.1618   23.5165 O   0  0  0  0  0  0  0  0  0  0  0  0
  -27.2309  -26.0706   21.2425 O   0  0  0  0  0  0  0  0  0  0  0  0
  -28.9329  -29.1450   22.6014 O   0  0  0  0  0  0  0  0  0  0  0  0
  -24.8521  -31.0472   24.1010 O   0  0  0  0  0  0  0  0  0  0  0  0
  -25.5471  -22.6676   22.5785 O   0  0  0  0  0  0  0  0  0  0  0  0
  -25.4503  -10.4445   21.4350 O   0  0  0  0  0  0  0  0  0  0  0  0
  -21.2554  -27.9777   19.2027 O   0  0  0  0  0  0  0  0  0  1  0  0
  -21.0109   -7.1787   21.2612 F   0  0  0  0  0  0  0  0  0  0  0  0
  -24.3501   -9.4220   23.7559 F   0  0  0  0  0  0  0  0  0  0  0  0
  -23.0709  -23.9490   21.0985 Cl  0  0  0  0  0  0  0  0  0  0  0  0
  1  2  1  0  0  0  0
  1  5  2  0  0  0  0
  2  6  2  0  0  0  0
  3  8  2  0  0  0  0
  3 15  1  0  0  0  0
  4  9  1  0  0  0  0
  4 15  2  0  0  0  0
  5 17  1  0  0  0  0
  6 19  1  0  0  0  0
  7 10  2  0  0  0  0
  7 18  1  0  0  0  0
  8 21  1  0  0  0  0
  9 21  2  0  0  0  0
 10 22  1  0  0  0  0
 11 12  2  0  0  0  0
 11 23  1  0  0  0  0
 12 24  1  0  0  0  0
 13 20  1  0  0  0  0
 13 22  2  0  0  0  0
 14 24  2  0  0  0  0
 14 25  1  0  0  0  0
 15 27  1  0  0  0  0
 16 27  1  0  0  0  0
 16 29  2  0  0  0  0
 16 31  1  0  0  0  0
 17 19  2  0  0  0  0
 17 37  1  0  0  0  0
 18 20  2  0  0  0  0
 18 38  1  0  0  0  0
 19 46  1  0  0  0  0
 20 39  1  0  0  0  0
 21 80  1  0  0  0  0
 22 81  1  0  0  0  0
 23 25  2  0  0  0  0
 23 80  1  0  0  0  0
 24 82  1  0  0  0  0
 25 83  1  0  0  0  0
 26 28  1  0  0  0  0
 26 30  2  0  0  0  0
 26 84  1  0  0  0  0
 27 61  2  0  0  0  0
 28 32  1  0  0  0  0
 28 62  2  0  0  0  0
 29 63  1  0  0  0  0
 29 67  1  0  0  0  0
 30 64  1  0  0  0  0
 30 69  1  0  0  0  0
 31 68  1  0  0  0  0
 31 74  2  0  0  0  0
 32 70  1  0  0  0  0
 32 75  2  0  0  0  0
 33 47  1  0  0  0  0
 33 71  1  0  0  0  0
 33 76  2  0  0  0  0
 34 58  1  0  0  0  0
 34 65  1  0  0  0  0
 34 77  2  0  0  0  0
 35 59  1  0  0  0  0
 35 72  1  0  0  0  0
 35 78  2  0  0  0  0
 36 66  1  0  0  0  0
 36 69  1  0  0  0  0
 36 79  2  0  0  0  0
 37 40  1  0  0  0  0
 38 47  1  0  0  0  0
 39 65  1  0  0  0  0
 40 42  1  0  0  0  0
 41 43  1  0  0  0  0
 41 44  1  0  0  0  0
 42 46  1  0  0  0  0
 43 48  1  0  0  0  0
 44 66  1  0  0  0  0
 45 48  1  0  0  0  0
 45 66  1  0  0  0  0
 46 71  1  0  0  0  0
 47 65  1  0  0  0  0
 48 63  1  0  0  0  0
 49 59  1  0  0  0  0
 50 60  1  0  0  0  0
 51 60  1  0  0  0  0
 52 60  1  0  0  0  0
 53 64  1  0  0  0  0
 54 73  1  0  0  0  0
 55 56  1  0  0  0  0
 55 57  1  0  0  0  0
 56 70  1  0  0  0  0
 57 81  1  0  0  0  0
 58 60  1  0  0  0  0
 58 72  1  0  0  0  0
 59 73  1  0  0  0  0
 61 63  1  0  0  0  0
 62 64  1  0  0  0  0
M  CHG  1  73   1
M  ISO  4  36 100  57 101  69 100  81 101
M  END
> <Batch ID>
0012

> <Smiles>
CNC(C)C(=O)NC(C(=O)N1Cc2cc([101O:1][101CH2:1]CCNC(=O)c3nn(C)c([100NH:0][100C:0](=O)N4CCCC(n5nc(-c6ccc(Oc7ccc(F)cc7F)cc6)c(C(N)=O)c5N)C4)c3Cl)ccc2CC1C(=O)NC1CCCc2ccccc21)C(C)(C)C

> <Shape>
0.226

> <Color>
0.071

> <Negative vol penalty>
0.000

$$$$

  -OEChem-04052315473D

 84 92  0     1  0  0  0  0  0999 V2000
  -28.6372   -8.6728   23.6000 C   0  0  0  0  0  0  0  0  0  0  0  0
  -29.1045   -9.7813   22.9011 C   0  0  0  0  0  0  0  0  0  0  0  0
  -24.8475  -30.8249   21.0327 C   0  0  0  0  0  0  0  0  0  0  0  0
  -24.7569  -29.1483   22.7699 C   0  0  0  0  0  0  0  0  0  0  0  0
  -27.3303   -8.2277   23.4056 C   0  0  0  0  0  0  0  0  0  0  0  0
  -28.2653  -10.4447   22.0067 C   0  0  0  0  0  0  0  0  0  0  0  0
  -28.5035  -15.4801   22.4894 C   0  0  0  0  0  0  0  0  0  0  0  0
  -27.7717  -21.0948   16.2090 C   0  0  0  0  0  0  0  0  0  0  0  0
  -24.2367  -31.7430   21.8869 C   0  0  0  0  0  0  0  0  0  0  0  0
  -24.1462  -30.0664   23.6241 C   0  0  0  0  0  0  0  0  0  0  0  0
  -29.6034  -16.1227   21.9229 C   0  0  0  0  0  0  0  0  0  0  0  0
  -25.1433  -33.7261   24.4712 C   0  0  0  0  0  0  0  0  0  0  0  0
  -25.6780  -35.0131   24.5287 C   0  0  0  0  0  0  0  0  0  0  0  0
  -28.8719  -20.4218   15.6779 C   0  0  0  0  0  0  0  0  0  0  0  0
  -28.2553  -16.7395   20.0198 C   0  0  0  0  0  0  0  0  0  0  0  0
  -23.5659  -35.9236   23.7888 C   0  0  0  0  0  0  0  0  0  0  0  0
  -25.1075  -29.5275   21.4741 C   0  0  0  0  0  0  0  0  0  0  0  0
  -27.1179  -28.3460   20.4398 C   0  0  0  0  0  0  0  0  0  0  0  0
  -26.4716   -8.8918   22.5155 C   0  0  0  0  0  0  0  0  0  0  0  0
  -27.2720  -15.4529   21.8192 C   0  0  0  0  0  0  0  0  0  0  0  0
  -26.9461  -10.0073   21.7992 C   0  0  0  0  0  0  0  0  0  0  0  0
  -27.1406  -16.0980   20.5812 C   0  0  0  0  0  0  0  0  0  0  0  0
  -27.8307  -21.6171   17.5011 C   0  0  0  0  0  0  0  0  0  0  0  0
  -30.0902  -20.7933   17.7309 C   0  0  0  0  0  0  0  0  0  0  0  0
  -23.8861  -31.3638   23.1826 C   0  0  0  0  0  0  0  0  0  0  0  0
  -29.4802  -16.7500   20.6866 C   0  0  0  0  0  0  0  0  0  0  0  0
  -23.8199  -33.5378   24.0724 C   0  0  0  0  0  0  0  0  0  0  0  0
  -24.8893  -36.1118   24.1875 C   0  0  0  0  0  0  0  0  0  0  0  0
  -23.0313  -34.6365   23.7312 C   0  0  0  0  0  0  0  0  0  0  0  0
  -30.0312  -20.2710   16.4388 C   0  0  0  0  0  0  0  0  0  0  0  0
  -28.9899  -21.4664   18.2620 C   0  0  0  0  0  0  0  0  0  0  0  0
  -25.7379  -28.5785   20.5920 C   0  0  0  0  0  0  0  0  0  0  0  0
  -27.1967  -27.3567   19.4903 C   0  0  0  0  0  0  0  0  0  0  0  0
  -28.2292  -28.9685   21.0979 C   0  0  0  0  0  0  0  0  0  0  0  0
  -25.4073  -13.1621   20.6450 C   0  0  0  0  0  0  0  0  0  0  0  0
  -23.3742  -15.6317   20.1065 C   0  0  0  0  0  0  0  0  0  0  0  0
  -31.4326  -19.4945   19.3386 C   0  0  0  0  0  0  0  0  0  0  0  0
  -22.6181  -19.0157   19.1093 C   0  0  0  0  0  0  0  0  0  0  0  0
  -25.4803  -22.5113   17.3503 C   0  0  0  0  0  0  0  0  0  0  0  0
  -25.0821   -8.3452   22.3033 C   0  0  0  0  0  0  0  0  0  0  0  0
  -26.0880  -14.7784   22.4561 C   0  0  0  0  0  0  0  0  0  0  0  0
  -25.8351  -16.1150   19.8304 C   0  0  0  0  0  0  0  0  0  0  0  0
  -24.1385   -9.3298   21.6174 C   0  0  0  0  0  0  0  0  0  0  0  0
  -23.6462  -25.4251   16.4432 C   0  0  0  0  0  0  0  0  0  0  0  0
  -24.8197   -9.9710   20.4126 C   0  0  0  0  0  0  0  0  0  0  0  0
  -24.1404  -26.4862   17.4292 C   0  0  0  0  0  0  0  0  0  0  0  0
  -23.5440  -24.0479   17.0962 C   0  0  0  0  0  0  0  0  0  0  0  0
  -25.2578  -24.6511   18.7600 C   0  0  0  0  0  0  0  0  0  0  0  0
  -26.0582  -10.7684   20.8388 C   0  0  1  0  0  0  0  0  0  0  0  0
  -25.0182  -14.3714   21.4475 C   0  0  1  0  0  0  0  0  0  0  0  0
  -25.4389  -26.0422   18.1309 C   0  0  2  0  0  0  0  0  0  0  0  0
  -20.4380  -20.2580   19.0754 C   0  0  0  0  0  0  0  0  0  0  0  0
  -23.2292  -14.7148   17.1999 C   0  0  0  0  0  0  0  0  0  0  0  0
  -22.2534  -16.9457   16.6177 C   0  0  0  0  0  0  0  0  0  0  0  0
  -21.0409  -15.4253   18.1801 C   0  0  0  0  0  0  0  0  0  0  0  0
  -32.3428  -21.6651   18.4351 C   0  0  0  0  0  0  0  0  0  0  0  0
  -23.7039  -21.2004   20.7848 C   0  0  0  0  0  0  0  0  0  0  0  0
  -30.2847  -18.4966   19.2872 C   0  0  0  0  0  0  0  0  0  1  0  0
  -23.1397  -16.5945   18.9676 C   0  0  1  0  0  0  0  0  0  0  0  0
  -21.7259  -20.0012   19.8423 C   0  0  2  0  0  0  0  0  0  0  0  0
  -22.4410  -15.9182   17.7543 C   0  0  0  0  0  0  0  0  0  0  0  0
  -24.9936  -27.7998   19.8023 N   0  0  0  0  0  0  0  0  0  0  0  0
  -25.9093  -27.0683   19.1447 N   0  0  0  0  0  0  0  0  0  0  0  0
  -24.7082  -15.4364   20.4916 N   0  0  0  0  0  0  0  0  0  0  0  0
  -24.8120  -23.6922   17.7370 N   0  0  0  0  0  0  0  0  0  0  0  0
  -28.2410  -26.7141   18.9256 N   0  0  0  0  0  0  0  0  0  0  0  0
  -27.9700  -29.9668   22.0469 N   0  0  0  0  0  0  0  0  0  0  0  0
  -26.6924  -22.2941   18.0048 N   0  0  0  0  0  0  0  0  0  0  0  0
  -25.6689  -12.0405   21.4086 N   0  0  0  0  0  0  0  0  0  0  0  0
  -22.4023  -17.7205   19.5303 N   0  0  0  0  0  0  0  0  0  0  0  0
  -31.2967  -20.6340   18.5173 N   0  0  0  0  0  0  0  0  0  0  0  0
  -22.4310  -21.3013   20.0254 N   0  3  0  0  0  0  0  0  0  0  0  0
  -29.4175  -28.6604   20.8399 O   0  0  0  0  0  0  0  0  0  0  0  0
  -25.4644  -13.2404   19.4234 O   0  0  0  0  0  0  0  0  0  0  0  0
  -22.4089  -15.0789   20.6396 O   0  0  0  0  0  0  0  0  0  0  0  0
  -32.4060  -19.2430   20.0533 O   0  0  0  0  0  0  0  0  0  0  0  0
  -23.4231  -19.3599   18.2468 O   0  0  0  0  0  0  0  0  0  0  0  0
  -25.0253  -21.7629   16.4815 O   0  0  0  0  0  0  0  0  0  0  0  0
  -23.2903  -32.2595   24.0165 O   0  0  0  0  0  0  0  0  0  0  0  0
  -30.5524  -17.3775   20.1311 O   0  0  0  0  0  0  0  0  0  1  0  0
  -25.4024  -37.3478   24.2443 F   0  0  0  0  0  0  0  0  0  0  0  0
  -21.7589  -34.4620   23.3485 F   0  0  0  0  0  0  0  0  0  0  0  0
  -31.3670  -19.4291   15.7354 Cl  0  0  0  0  0  0  0  0  0  0  0  0
  -29.0574  -22.1188   19.8700 Cl  0  0  0  0  0  0  0  0  0  0  0  0
  1  2  1  0  0  0  0
  1  5  2  0  0  0  0
  2  6  2  0  0  0  0
  3  9  2  0  0  0  0
  3 17  1  0  0  0  0
  4 10  1  0  0  0  0
  4 17  2  0  0  0  0
  5 19  1  0  0  0  0
  6 21  1  0  0  0  0
  7 11  2  0  0  0  0
  7 20  1  0  0  0  0
  8 14  1  0  0  0  0
  8 23  2  0  0  0  0
  9 25  1  0  0  0  0
 10 25  2  0  0  0  0
 11 26  1  0  0  0  0
 12 13  2  0  0  0  0
 12 27  1  0  0  0  0
 13 28  1  0  0  0  0
 14 30  2  0  0  0  0
 15 22  1  0  0  0  0
 15 26  2  0  0  0  0
 16 28  2  0  0  0  0
 16 29  1  0  0  0  0
 17 32  1  0  0  0  0
 18 32  1  0  0  0  0
 18 33  2  0  0  0  0
 18 34  1  0  0  0  0
 19 21  2  0  0  0  0
 19 40  1  0  0  0  0
 20 22  2  0  0  0  0
 20 41  1  0  0  0  0
 21 49  1  0  0  0  0
 22 42  1  0  0  0  0
 23 31  1  0  0  0  0
 23 68  1  0  0  0  0
 24 30  1  0  0  0  0
 24 31  2  0  0  0  0
 24 71  1  0  0  0  0
 25 79  1  0  0  0  0
 26 80  1  0  0  0  0
 27 29  2  0  0  0  0
 27 79  1  0  0  0  0
 28 81  1  0  0  0  0
 29 82  1  0  0  0  0
 30 83  1  0  0  0  0
 31 84  1  0  0  0  0
 32 62  2  0  0  0  0
 33 63  1  0  0  0  0
 33 66  1  0  0  0  0
 34 67  1  0  0  0  0
 34 73  2  0  0  0  0
 35 50  1  0  0  0  0
 35 69  1  0  0  0  0
 35 74  2  0  0  0  0
 36 59  1  0  0  0  0
 36 64  1  0  0  0  0
 36 75  2  0  0  0  0
 37 58  1  0  0  0  0
 37 71  1  0  0  0  0
 37 76  2  0  0  0  0
 38 60  1  0  0  0  0
 38 70  1  0  0  0  0
 38 77  2  0  0  0  0
 39 65  1  0  0  0  0
 39 68  1  0  0  0  0
 39 78  2  0  0  0  0
 40 43  1  0  0  0  0
 41 50  1  0  0  0  0
 42 64  1  0  0  0  0
 43 45  1  0  0  0  0
 44 46  1  0  0  0  0
 44 47  1  0  0  0  0
 45 49  1  0  0  0  0
 46 51  1  0  0  0  0
 47 65  1  0  0  0  0
 48 51  1  0  0  0  0
 48 65  1  0  0  0  0
 49 69  1  0  0  0  0
 50 64  1  0  0  0  0
 51 63  1  0  0  0  0
 52 60  1  0  0  0  0
 53 61  1  0  0  0  0
 54 61  1  0  0  0  0
 55 61  1  0  0  0  0
 56 71  1  0  0  0  0
 57 72  1  0  0  0  0
 58 80  1  0  0  0  0
 59 61  1  0  0  0  0
 59 70  1  0  0  0  0
 60 72  1  0  0  0  0
 62 63  1  0  0  0  0
M  CHG  1  72   1
M  ISO  4  39 100  58 101  68 100  80 101
M  END
> <Batch ID>
0012

> <Smiles>
CNC(C)C(=O)NC(C(=O)N1Cc2cc([101O:1][101CH2:1]C(=O)N(C)c3c(Cl)ccc([100NH:0][100C:0](=O)N4CCCC(n5nc(-c6ccc(Oc7ccc(F)cc7F)cc6)c(C(N)=O)c5N)C4)c3Cl)ccc2CC1C(=O)NC1CCCc2ccccc21)C(C)(C)C

> <Shape>
0.205

> <Color>
0.073

> <Negative vol penalty>
0.000

$$$$

  -OEChem-04052315473D

 85 93  0     1  0  0  0  0  0999 V2000
  -30.3472  -33.7266   17.5883 C   0  0  0  0  0  0  0  0  0  0  0  0
  -30.7215  -32.7089   18.4597 C   0  0  0  0  0  0  0  0  0  0  0  0
  -22.9777   -9.9195   19.9825 C   0  0  0  0  0  0  0  0  0  0  0  0
  -23.7159   -9.9445   22.2828 C   0  0  0  0  0  0  0  0  0  0  0  0
  -29.0592  -33.7475   17.0549 C   0  0  0  0  0  0  0  0  0  0  0  0
  -29.8076  -31.7119   18.7992 C   0  0  0  0  0  0  0  0  0  0  0  0
  -31.0333  -25.8126   19.8956 C   0  0  0  0  0  0  0  0  0  0  0  0
  -22.2014   -8.7906   20.2439 C   0  0  0  0  0  0  0  0  0  0  0  0
  -22.9395   -8.8155   22.5442 C   0  0  0  0  0  0  0  0  0  0  0  0
  -31.2073  -25.0948   21.0781 C   0  0  0  0  0  0  0  0  0  0  0  0
  -23.1481   -5.4783   22.0438 C   0  0  0  0  0  0  0  0  0  0  0  0
  -23.7296   -4.4492   22.7844 C   0  0  0  0  0  0  0  0  0  0  0  0
  -28.8954  -24.4112   20.9963 C   0  0  0  0  0  0  0  0  0  0  0  0
  -32.1167  -16.4362   22.5427 C   0  0  0  0  0  0  0  0  0  0  0  0
  -22.0174   -4.6954   24.4710 C   0  0  0  0  0  0  0  0  0  0  0  0
  -23.7350  -10.4965   21.0020 C   0  0  0  0  0  0  0  0  0  0  0  0
  -24.1443  -13.0095   20.8443 C   0  0  0  0  0  0  0  0  0  0  0  0
  -28.1321  -32.7449   17.3804 C   0  0  0  0  0  0  0  0  0  0  0  0
  -29.7841  -25.8440   19.2594 C   0  0  0  0  0  0  0  0  0  0  0  0
  -28.5056  -31.7201   18.2707 C   0  0  0  0  0  0  0  0  0  0  0  0
  -28.7087  -25.1280   19.8045 C   0  0  0  0  0  0  0  0  0  0  0  0
  -30.6189  -18.2658   24.0233 C   0  0  0  0  0  0  0  0  0  0  0  0
  -30.7301  -16.4814   22.3982 C   0  0  0  0  0  0  0  0  0  0  0  0
  -22.1823   -8.2385   21.5247 C   0  0  0  0  0  0  0  0  0  0  0  0
  -30.1376  -24.3963   21.6301 C   0  0  0  0  0  0  0  0  0  0  0  0
  -22.0012   -6.1160   22.5169 C   0  0  0  0  0  0  0  0  0  0  0  0
  -23.1642   -4.0578   23.9980 C   0  0  0  0  0  0  0  0  0  0  0  0
  -32.7544  -17.3058   23.4275 C   0  0  0  0  0  0  0  0  0  0  0  0
  -21.4359   -5.7246   23.7305 C   0  0  0  0  0  0  0  0  0  0  0  0
  -32.0055  -18.2206   24.1677 C   0  0  0  0  0  0  0  0  0  0  0  0
  -29.9812  -17.3962   23.1385 C   0  0  0  0  0  0  0  0  0  0  0  0
  -24.5376  -11.6624   20.7325 C   0  0  0  0  0  0  0  0  0  0  0  0
  -25.2592  -13.7240   20.4797 C   0  0  0  0  0  0  0  0  0  0  0  0
  -22.8840  -13.5653   21.2423 C   0  0  0  0  0  0  0  0  0  0  0  0
  -27.6925  -28.1254   18.5350 C   0  0  0  0  0  0  0  0  0  0  0  0
  -26.1749  -25.7051   16.9982 C   0  0  0  0  0  0  0  0  0  0  0  0
  -30.1960  -21.5188   23.8358 C   0  0  0  0  0  0  0  0  0  0  0  0
  -25.6325  -22.3486   16.7046 C   0  0  0  0  0  0  0  0  0  0  0  0
  -30.7492  -14.6289   20.6911 C   0  0  0  0  0  0  0  0  0  0  0  0
  -26.7364  -32.8358   16.8160 C   0  0  0  0  0  0  0  0  0  0  0  0
  -29.6196  -26.6012   17.9701 C   0  0  0  0  0  0  0  0  0  0  0  0
  -27.3525  -25.1132   19.1495 C   0  0  0  0  0  0  0  0  0  0  0  0
  -25.9464  -31.5348   16.9324 C   0  0  0  0  0  0  0  0  0  0  0  0
  -29.5939  -12.2063   18.3515 C   0  0  0  0  0  0  0  0  0  0  0  0
  -26.0878  -30.9479   18.3332 C   0  0  0  0  0  0  0  0  0  0  0  0
  -28.1431  -11.9597   18.7716 C   0  0  0  0  0  0  0  0  0  0  0  0
  -30.5033  -12.4309   19.5583 C   0  0  0  0  0  0  0  0  0  0  0  0
  -28.6032  -13.2277   20.9087 C   0  0  0  0  0  0  0  0  0  0  0  0
  -27.5504  -30.6071   18.6435 C   0  0  1  0  0  0  0  0  0  0  0  0
  -28.1711  -26.9842   17.6827 C   0  0  1  0  0  0  0  0  0  0  0  0
  -27.6373  -13.0606   19.7244 C   0  0  2  0  0  0  0  0  0  0  0  0
  -24.3106  -20.6750   15.3821 C   0  0  0  0  0  0  0  0  0  0  0  0
  -23.6686  -26.4429   18.5742 C   0  0  0  0  0  0  0  0  0  0  0  0
  -22.7051  -24.2183   17.9492 C   0  0  0  0  0  0  0  0  0  0  0  0
  -23.2619  -25.8781   16.1722 C   0  0  0  0  0  0  0  0  0  0  0  0
  -28.0853  -21.0440   15.6845 C   0  0  0  0  0  0  0  0  0  0  0  0
  -29.8521  -19.2681   24.8366 C   0  0  0  0  0  0  0  0  0  0  0  0
  -29.4916  -22.5364   22.9641 C   0  0  0  0  0  0  0  0  0  1  0  0
  -25.1327  -24.6824   17.3814 C   0  0  1  0  0  0  0  0  0  0  0  0
  -25.6250  -21.4314   15.4950 C   0  0  2  0  0  0  0  0  0  0  0  0
  -23.7170  -25.3071   17.5329 C   0  0  0  0  0  0  0  0  0  0  0  0
  -25.8033  -11.5266   20.3283 N   0  0  0  0  0  0  0  0  0  0  0  0
  -26.2151  -12.7976   20.1828 N   0  0  0  0  0  0  0  0  0  0  0  0
  -27.2403  -25.8738   17.8940 N   0  0  0  0  0  0  0  0  0  0  0  0
  -29.9635  -13.4904   20.4132 N   0  0  0  0  0  0  0  0  0  0  0  0
  -25.5053  -15.0482   20.3871 N   0  0  0  0  0  0  0  0  0  0  0  0
  -21.8453  -12.6886   21.5843 N   0  0  0  0  0  0  0  0  0  0  0  0
  -30.1187  -15.5840   21.4880 N   0  0  0  0  0  0  0  0  0  0  0  0
  -27.9312  -29.3728   17.9907 N   0  0  0  0  0  0  0  0  0  0  0  0
  -29.4161  -20.3912   24.0394 N   0  0  0  0  0  0  0  0  0  0  0  0
  -25.2144  -23.6224   16.3823 N   0  0  0  0  0  0  0  0  0  0  0  0
  -26.7320  -20.4383   15.5912 N   0  3  0  0  0  0  0  0  0  0  0  0
  -22.6797  -14.8024   21.2773 O   0  0  0  0  0  0  0  0  0  0  0  0
  -27.1457  -27.8913   19.6064 O   0  0  0  0  0  0  0  0  0  0  0  0
  -26.0522  -26.3262   15.9395 O   0  0  0  0  0  0  0  0  0  0  0  0
  -31.3212  -21.7008   24.2927 O   0  0  0  0  0  0  0  0  0  0  0  0
  -25.9714  -21.9717   17.8243 O   0  0  0  0  0  0  0  0  0  0  0  0
  -31.8866  -14.7603   20.2319 O   0  0  0  0  0  0  0  0  0  0  0  0
  -21.4247   -7.1370   21.7801 O   0  0  0  0  0  0  0  0  0  0  0  0
  -30.3045  -23.6954   22.7846 O   0  0  0  0  0  0  0  0  0  1  0  0
  -23.7218   -3.0685   24.7083 F   0  0  0  0  0  0  0  0  0  0  0  0
  -34.0861  -17.2640   23.5650 F   0  0  0  0  0  0  0  0  0  0  0  0
  -20.3335   -6.3327   24.1895 F   0  0  0  0  0  0  0  0  0  0  0  0
  -32.6290  -19.0523   25.0142 F   0  0  0  0  0  0  0  0  0  0  0  0
  -28.2576  -17.4573   22.9613 Cl  0  0  0  0  0  0  0  0  0  0  0  0
  1  2  1  0  0  0  0
  1  5  2  0  0  0  0
  2  6  2  0  0  0  0
  3  8  2  0  0  0  0
  3 16  1  0  0  0  0
  4  9  1  0  0  0  0
  4 16  2  0  0  0  0
  5 18  1  0  0  0  0
  6 20  1  0  0  0  0
  7 10  2  0  0  0  0
  7 19  1  0  0  0  0
  8 24  1  0  0  0  0
  9 24  2  0  0  0  0
 10 25  1  0  0  0  0
 11 12  2  0  0  0  0
 11 26  1  0  0  0  0
 12 27  1  0  0  0  0
 13 21  1  0  0  0  0
 13 25  2  0  0  0  0
 14 23  2  0  0  0  0
 14 28  1  0  0  0  0
 15 27  2  0  0  0  0
 15 29  1  0  0  0  0
 16 32  1  0  0  0  0
 17 32  1  0  0  0  0
 17 33  2  0  0  0  0
 17 34  1  0  0  0  0
 18 20  2  0  0  0  0
 18 40  1  0  0  0  0
 19 21  2  0  0  0  0
 19 41  1  0  0  0  0
 20 49  1  0  0  0  0
 21 42  1  0  0  0  0
 22 30  1  0  0  0  0
 22 31  2  0  0  0  0
 22 57  1  0  0  0  0
 23 31  1  0  0  0  0
 23 68  1  0  0  0  0
 24 79  1  0  0  0  0
 25 80  1  0  0  0  0
 26 29  2  0  0  0  0
 26 79  1  0  0  0  0
 27 81  1  0  0  0  0
 28 30  2  0  0  0  0
 28 82  1  0  0  0  0
 29 83  1  0  0  0  0
 30 84  1  0  0  0  0
 31 85  1  0  0  0  0
 32 62  2  0  0  0  0
 33 63  1  0  0  0  0
 33 66  1  0  0  0  0
 34 67  1  0  0  0  0
 34 73  2  0  0  0  0
 35 50  1  0  0  0  0
 35 69  1  0  0  0  0
 35 74  2  0  0  0  0
 36 59  1  0  0  0  0
 36 64  1  0  0  0  0
 36 75  2  0  0  0  0
 37 58  1  0  0  0  0
 37 70  1  0  0  0  0
 37 76  2  0  0  0  0
 38 60  1  0  0  0  0
 38 71  1  0  0  0  0
 38 77  2  0  0  0  0
 39 65  1  0  0  0  0
 39 68  1  0  0  0  0
 39 78  2  0  0  0  0
 40 43  1  0  0  0  0
 41 50  1  0  0  0  0
 42 64  1  0  0  0  0
 43 45  1  0  0  0  0
 44 46  1  0  0  0  0
 44 47  1  0  0  0  0
 45 49  1  0  0  0  0
 46 51  1  0  0  0  0
 47 65  1  0  0  0  0
 48 51  1  0  0  0  0
 48 65  1  0  0  0  0
 49 69  1  0  0  0  0
 50 64  1  0  0  0  0
 51 63  1  0  0  0  0
 52 60  1  0  0  0  0
 53 61  1  0  0  0  0
 54 61  1  0  0  0  0
 55 61  1  0  0  0  0
 56 72  1  0  0  0  0
 57 70  1  0  0  0  0
 58 80  1  0  0  0  0
 59 61  1  0  0  0  0
 59 71  1  0  0  0  0
 60 72  1  0  0  0  0
 62 63  1  0  0  0  0
M  CHG  1  72   1
M  ISO  4  39 100  58 101  68 100  80 101
M  END
> <Batch ID>
0012

> <Smiles>
CNC(C)C(=O)NC(C(=O)N1Cc2cc([101O:1][101CH2:1]C(=O)NCc3c(F)c(F)cc([100NH:0][100C:0](=O)N4CCCC(n5nc(-c6ccc(Oc7ccc(F)cc7F)cc6)c(C(N)=O)c5N)C4)c3Cl)ccc2CC1C(=O)NC1CCCc2ccccc21)C(C)(C)C

> <Shape>
0.222

> <Color>
0.198

> <Negative vol penalty>
0.000

$$$$

  -OEChem-04052315473D

 83 90  0     1  0  0  0  0  0999 V2000
  -28.7583   -9.9380   16.9973 C   0  0  0  0  0  0  0  0  0  0  0  0
  -27.4935  -10.5087   16.8974 C   0  0  0  0  0  0  0  0  0  0  0  0
  -27.1919  -31.1468   21.9462 C   0  0  0  0  0  0  0  0  0  0  0  0
  -26.2791  -29.5354   23.4978 C   0  0  0  0  0  0  0  0  0  0  0  0
  -29.6409  -10.3706   17.9861 C   0  0  0  0  0  0  0  0  0  0  0  0
  -27.1102  -11.5117   17.7870 C   0  0  0  0  0  0  0  0  0  0  0  0
  -23.1044  -17.4409   18.1268 C   0  0  0  0  0  0  0  0  0  0  0  0
  -27.6238  -31.9316   23.0154 C   0  0  0  0  0  0  0  0  0  0  0  0
  -26.7111  -30.3202   24.5670 C   0  0  0  0  0  0  0  0  0  0  0  0
  -22.0895  -18.0126   18.8929 C   0  0  0  0  0  0  0  0  0  0  0  0
  -26.2707  -34.1297   25.1976 C   0  0  0  0  0  0  0  0  0  0  0  0
  -26.0380  -35.5032   25.1279 C   0  0  0  0  0  0  0  0  0  0  0  0
  -23.7263  -18.7355   20.5108 C   0  0  0  0  0  0  0  0  0  0  0  0
  -28.4151  -35.9128   25.2649 C   0  0  0  0  0  0  0  0  0  0  0  0
  -26.5195  -29.9487   22.1874 C   0  0  0  0  0  0  0  0  0  0  0  0
  -26.7879  -28.1113   20.4383 C   0  0  0  0  0  0  0  0  0  0  0  0
  -29.2717  -11.3862   18.8822 C   0  0  0  0  0  0  0  0  0  0  0  0
  -24.4389  -17.5028   18.5531 C   0  0  0  0  0  0  0  0  0  0  0  0
  -27.9882  -11.9574   18.7896 C   0  0  0  0  0  0  0  0  0  0  0  0
  -24.7566  -18.1660   19.7470 C   0  0  0  0  0  0  0  0  0  0  0  0
  -27.3835  -31.5183   24.3257 C   0  0  0  0  0  0  0  0  0  0  0  0
  -22.4001  -18.6575   20.0865 C   0  0  0  0  0  0  0  0  0  0  0  0
  -27.5756  -33.6477   25.3010 C   0  0  0  0  0  0  0  0  0  0  0  0
  -27.1102  -36.3948   25.1615 C   0  0  0  0  0  0  0  0  0  0  0  0
  -28.6478  -34.5393   25.3346 C   0  0  0  0  0  0  0  0  0  0  0  0
  -26.0725  -29.1379   21.0834 C   0  0  0  0  0  0  0  0  0  0  0  0
  -25.9328  -27.6566   19.4643 C   0  0  0  0  0  0  0  0  0  0  0  0
  -28.1073  -27.6131   20.6965 C   0  0  0  0  0  0  0  0  0  0  0  0
  -26.6425  -15.3534   19.3456 C   0  0  0  0  0  0  0  0  0  0  0  0
  -28.5678  -17.9593   19.5023 C   0  0  0  0  0  0  0  0  0  0  0  0
  -20.8806  -22.4652   19.5975 C   0  0  0  0  0  0  0  0  0  0  0  0
  -28.8463  -21.3349   19.9206 C   0  0  0  0  0  0  0  0  0  0  0  0
  -20.8417  -26.0843   17.8049 C   0  0  0  0  0  0  0  0  0  0  0  0
  -30.2425  -11.7877   19.9644 C   0  0  0  0  0  0  0  0  0  0  0  0
  -25.5250  -16.9043   17.7019 C   0  0  0  0  0  0  0  0  0  0  0  0
  -26.1758  -18.2777   20.2386 C   0  0  0  0  0  0  0  0  0  0  0  0
  -29.8963  -13.1167   20.6308 C   0  0  0  0  0  0  0  0  0  0  0  0
  -21.5719  -29.5687   17.7576 C   0  0  0  0  0  0  0  0  0  0  0  0
  -28.4124  -13.1679   20.9806 C   0  0  0  0  0  0  0  0  0  0  0  0
  -22.8628  -29.6830   18.5703 C   0  0  0  0  0  0  0  0  0  0  0  0
  -20.6415  -28.4983   18.3237 C   0  0  0  0  0  0  0  0  0  0  0  0
  -22.5480  -27.2829   19.3044 C   0  0  0  0  0  0  0  0  0  0  0  0
  -27.5447  -13.0651   19.7205 C   0  0  1  0  0  0  0  0  0  0  0  0
  -26.7905  -16.5792   18.4894 C   0  0  1  0  0  0  0  0  0  0  0  0
  -23.5427  -28.3109   18.7387 C   0  0  2  0  0  0  0  0  0  0  0  0
  -30.5526  -23.1713   20.0368 C   0  0  0  0  0  0  0  0  0  0  0  0
  -20.8804  -22.4885   22.6319 C   0  0  0  0  0  0  0  0  0  0  0  0
  -29.3189  -17.0795   22.3257 C   0  0  0  0  0  0  0  0  0  0  0  0
  -30.2329  -19.3762   22.7233 C   0  0  0  0  0  0  0  0  0  0  0  0
  -31.2304  -17.9277   20.9542 C   0  0  0  0  0  0  0  0  0  0  0  0
  -27.6930  -22.7132   17.5692 C   0  0  0  0  0  0  0  0  0  0  0  0
  -20.2558  -22.8538   18.2612 C   0  0  0  0  0  0  0  0  0  0  0  0
  -17.7047  -22.3790   20.5863 C   0  0  0  0  0  0  0  0  0  0  0  0
  -21.1847  -23.6660   17.3653 C   0  0  0  0  0  0  0  0  0  0  0  0
  -18.7061  -21.3208   20.1308 C   0  0  0  0  0  0  0  0  0  0  0  0
  -16.2686  -21.9994   20.2475 C   0  0  0  0  0  0  0  0  0  0  0  0
  -21.7563  -20.3578   21.6197 C   0  0  0  0  0  0  0  0  0  1  0  0
  -28.9464  -18.9456   20.5807 C   0  0  1  0  0  0  0  0  0  0  0  0
  -29.6098  -22.3874   19.1372 C   0  0  2  0  0  0  0  0  0  0  0  0
  -20.5470  -21.2792   21.7681 C   0  0  2  0  0  0  0  0  0  0  0  0
  -29.9051  -18.3286   21.6380 C   0  0  0  0  0  0  0  0  0  0  0  0
  -24.8567  -29.3248   20.5630 N   0  0  0  0  0  0  0  0  0  0  0  0
  -24.8015  -28.4095   19.5805 N   0  0  0  0  0  0  0  0  0  0  0  0
  -27.2017  -17.6711   19.3743 N   0  0  0  0  0  0  0  0  0  0  0  0
  -21.3468  -27.2213   18.4569 N   0  0  0  0  0  0  0  0  0  0  0  0
  -26.0458  -26.6904   18.5284 N   0  0  0  0  0  0  0  0  0  0  0  0
  -28.8493  -28.1933   21.7343 N   0  0  0  0  0  0  0  0  0  0  0  0
  -27.5155  -14.3323   19.0221 N   0  0  0  0  0  0  0  0  0  0  0  0
  -29.4865  -20.1139   19.8940 N   0  0  0  0  0  0  0  0  0  0  0  0
  -21.5742  -24.9163   17.9782 N   0  0  0  0  0  0  0  0  0  0  0  0
  -20.0769  -21.7143   20.4725 N   0  0  0  0  0  0  0  0  0  0  0  0
  -15.3645  -23.0944   20.6771 N   0  3  0  0  0  0  0  0  0  0  0  0
  -28.6637  -23.3458   18.4991 N   0  3  0  0  0  0  0  0  0  0  0  0
  -28.6195  -26.6922   20.0160 O   0  0  0  0  0  0  0  0  0  0  0  0
  -25.7996  -15.3359   20.2350 O   0  0  0  0  0  0  0  0  0  0  0  0
  -29.4510  -17.4684   18.7947 O   0  0  0  0  0  0  0  0  0  0  0  0
  -22.0351  -22.8029   19.8723 O   0  0  0  0  0  0  0  0  0  0  0  0
  -27.7897  -21.5730   20.5015 O   0  0  0  0  0  0  0  0  0  0  0  0
  -19.8169  -26.1094   17.1148 O   0  0  0  0  0  0  0  0  0  0  0  0
  -27.8050  -32.2837   25.3693 O   0  0  0  0  0  0  0  0  0  0  0  0
  -21.4113  -19.2159   20.8365 O   0  0  0  0  0  0  0  0  0  1  0  0
  -26.8867  -37.7137   25.0931 F   0  0  0  0  0  0  0  0  0  0  0  0
  -29.9037  -34.0822   25.4326 F   0  0  0  0  0  0  0  0  0  0  0  0
  1  2  1  0  0  0  0
  1  5  2  0  0  0  0
  2  6  2  0  0  0  0
  3  8  2  0  0  0  0
  3 15  1  0  0  0  0
  4  9  1  0  0  0  0
  4 15  2  0  0  0  0
  5 17  1  0  0  0  0
  6 19  1  0  0  0  0
  7 10  2  0  0  0  0
  7 18  1  0  0  0  0
  8 21  1  0  0  0  0
  9 21  2  0  0  0  0
 10 22  1  0  0  0  0
 11 12  2  0  0  0  0
 11 23  1  0  0  0  0
 12 24  1  0  0  0  0
 13 20  1  0  0  0  0
 13 22  2  0  0  0  0
 14 24  2  0  0  0  0
 14 25  1  0  0  0  0
 15 26  1  0  0  0  0
 16 26  1  0  0  0  0
 16 27  2  0  0  0  0
 16 28  1  0  0  0  0
 17 19  2  0  0  0  0
 17 34  1  0  0  0  0
 18 20  2  0  0  0  0
 18 35  1  0  0  0  0
 19 43  1  0  0  0  0
 20 36  1  0  0  0  0
 21 80  1  0  0  0  0
 22 81  1  0  0  0  0
 23 25  2  0  0  0  0
 23 80  1  0  0  0  0
 24 82  1  0  0  0  0
 25 83  1  0  0  0  0
 26 62  2  0  0  0  0
 27 63  1  0  0  0  0
 27 66  1  0  0  0  0
 28 67  1  0  0  0  0
 28 74  2  0  0  0  0
 29 44  1  0  0  0  0
 29 68  1  0  0  0  0
 29 75  2  0  0  0  0
 30 58  1  0  0  0  0
 30 64  1  0  0  0  0
 30 76  2  0  0  0  0
 31 52  1  0  0  0  0
 31 71  1  0  0  0  0
 31 77  2  0  0  0  0
 32 59  1  0  0  0  0
 32 69  1  0  0  0  0
 32 78  2  0  0  0  0
 33 65  1  0  0  0  0
 33 70  1  0  0  0  0
 33 79  2  0  0  0  0
 34 37  1  0  0  0  0
 35 44  1  0  0  0  0
 36 64  1  0  0  0  0
 37 39  1  0  0  0  0
 38 40  1  0  0  0  0
 38 41  1  0  0  0  0
 39 43  1  0  0  0  0
 40 45  1  0  0  0  0
 41 65  1  0  0  0  0
 42 45  1  0  0  0  0
 42 65  1  0  0  0  0
 43 68  1  0  0  0  0
 44 64  1  0  0  0  0
 45 63  1  0  0  0  0
 46 59  1  0  0  0  0
 47 60  1  0  0  0  0
 48 61  1  0  0  0  0
 49 61  1  0  0  0  0
 50 61  1  0  0  0  0
 51 73  1  0  0  0  0
 52 54  1  0  0  0  0
 53 55  1  0  0  0  0
 53 56  1  0  0  0  0
 54 70  1  0  0  0  0
 55 71  1  0  0  0  0
 56 72  1  0  0  0  0
 57 60  1  0  0  0  0
 57 81  1  0  0  0  0
 58 61  1  0  0  0  0
 58 69  1  0  0  0  0
 59 73  1  0  0  0  0
 60 71  1  0  0  0  0
 62 63  1  0  0  0  0
M  CHG  2  72   1  73   1
M  ISO  4  33 100  57 101  70 100  81 101
M  END
> <Batch ID>
0012

> <Smiles>
CNC(C)C(=O)NC(C(=O)N1Cc2cc([101O:1][101CH2:1]C(C)N(CCCN)C(=O)CC[100NH:0][100C:0](=O)N3CCCC(n4nc(-c5ccc(Oc6ccc(F)cc6F)cc5)c(C(N)=O)c4N)C3)ccc2CC1C(=O)NC1CCCc2ccccc21)C(C)(C)C

> <Shape>
0.256

> <Color>
0.067

> <Negative vol penalty>
0.000

$$$$

  -OEChem-04052315473D

 83 91  0     1  0  0  0  0  0999 V2000
  -21.7528  -27.9706   21.1726 C   0  0  0  0  0  0  0  0  0  0  0  0
  -22.3163  -26.8649   21.8013 C   0  0  0  0  0  0  0  0  0  0  0  0
  -23.0416   -9.8768   20.0597 C   0  0  0  0  0  0  0  0  0  0  0  0
  -23.7518  -10.0259   22.3641 C   0  0  0  0  0  0  0  0  0  0  0  0
  -22.5731  -28.9100   20.5494 C   0  0  0  0  0  0  0  0  0  0  0  0
  -23.7006  -26.6974   21.8062 C   0  0  0  0  0  0  0  0  0  0  0  0
  -27.0990  -24.2657   26.2832 C   0  0  0  0  0  0  0  0  0  0  0  0
  -22.2612   -8.7637   20.3722 C   0  0  0  0  0  0  0  0  0  0  0  0
  -22.9714   -8.9129   22.6766 C   0  0  0  0  0  0  0  0  0  0  0  0
  -27.6363  -22.9924   26.4669 C   0  0  0  0  0  0  0  0  0  0  0  0
  -19.7104   -8.2430   23.2577 C   0  0  0  0  0  0  0  0  0  0  0  0
  -18.9276   -8.3053   24.4105 C   0  0  0  0  0  0  0  0  0  0  0  0
  -29.7296  -23.7480   25.5361 C   0  0  0  0  0  0  0  0  0  0  0  0
  -32.1542  -16.5205   22.3747 C   0  0  0  0  0  0  0  0  0  0  0  0
  -20.0993   -6.3933   25.3095 C   0  0  0  0  0  0  0  0  0  0  0  0
  -23.7869  -10.5079   21.0556 C   0  0  0  0  0  0  0  0  0  0  0  0
  -24.2002  -13.0086   20.7673 C   0  0  0  0  0  0  0  0  0  0  0  0
  -23.9688  -28.7589   20.5549 C   0  0  0  0  0  0  0  0  0  0  0  0
  -27.8708  -25.2886   25.7136 C   0  0  0  0  0  0  0  0  0  0  0  0
  -24.5404  -27.6349   21.1813 C   0  0  0  0  0  0  0  0  0  0  0  0
  -29.2005  -25.0341   25.3487 C   0  0  0  0  0  0  0  0  0  0  0  0
  -32.7818  -17.4335   23.2222 C   0  0  0  0  0  0  0  0  0  0  0  0
  -30.7694  -16.5584   22.2114 C   0  0  0  0  0  0  0  0  0  0  0  0
  -30.6397  -18.4221   23.7433 C   0  0  0  0  0  0  0  0  0  0  0  0
  -22.2261   -8.2817   21.6806 C   0  0  0  0  0  0  0  0  0  0  0  0
  -28.9508  -22.7326   26.0906 C   0  0  0  0  0  0  0  0  0  0  0  0
  -20.6876   -7.2558   23.1308 C   0  0  0  0  0  0  0  0  0  0  0  0
  -19.1220   -7.3805   25.4364 C   0  0  0  0  0  0  0  0  0  0  0  0
  -20.8821   -6.3310   24.1567 C   0  0  0  0  0  0  0  0  0  0  0  0
  -32.0245  -18.3842   23.9066 C   0  0  0  0  0  0  0  0  0  0  0  0
  -30.0122  -17.5091   22.8958 C   0  0  0  0  0  0  0  0  0  0  0  0
  -24.5937  -11.6574   20.7333 C   0  0  0  0  0  0  0  0  0  0  0  0
  -25.3200  -13.7022   20.3782 C   0  0  0  0  0  0  0  0  0  0  0  0
  -22.9356  -13.5853   21.1192 C   0  0  0  0  0  0  0  0  0  0  0  0
  -27.6550  -27.0630   23.0852 C   0  0  0  0  0  0  0  0  0  0  0  0
  -30.2039  -28.5955   24.3800 C   0  0  0  0  0  0  0  0  0  0  0  0
  -32.8868  -28.4859   26.4865 C   0  0  0  0  0  0  0  0  0  0  0  0
  -30.8077  -14.6163   20.6073 C   0  0  0  0  0  0  0  0  0  0  0  0
  -24.8119  -29.7759   19.8272 C   0  0  0  0  0  0  0  0  0  0  0  0
  -27.2849  -26.6638   25.5469 C   0  0  0  0  0  0  0  0  0  0  0  0
  -30.0775  -26.1033   24.7516 C   0  0  0  0  0  0  0  0  0  0  0  0
  -26.2909  -29.7204   20.2009 C   0  0  0  0  0  0  0  0  0  0  0  0
  -29.6790  -12.0709   18.3882 C   0  0  0  0  0  0  0  0  0  0  0  0
  -26.7894  -28.2788   20.1948 C   0  0  0  0  0  0  0  0  0  0  0  0
  -28.2230  -11.8476   18.8033 C   0  0  0  0  0  0  0  0  0  0  0  0
  -30.5739  -12.3603   19.5920 C   0  0  0  0  0  0  0  0  0  0  0  0
  -28.6582  -13.2293   20.8742 C   0  0  0  0  0  0  0  0  0  0  0  0
  -26.0392  -27.4312   21.2293 C   0  0  1  0  0  0  0  0  0  0  0  0
  -27.9989  -27.4925   24.4834 C   0  0  1  0  0  0  0  0  0  0  0  0
  -27.7066  -12.9985   19.6889 C   0  0  2  0  0  0  0  0  0  0  0  0
  -34.2681  -17.3547   23.3649 C   0  0  0  0  0  0  0  0  0  0  0  0
  -34.8062  -29.8794   27.3058 C   0  0  0  0  0  0  0  0  0  0  0  0
  -31.6663  -28.1272   21.7433 C   0  0  0  0  0  0  0  0  0  0  0  0
  -33.8116  -28.6600   22.9188 C   0  0  0  0  0  0  0  0  0  0  0  0
  -32.0229  -30.3902   22.7464 C   0  0  0  0  0  0  0  0  0  0  0  0
  -31.9322  -28.3635   29.2852 C   0  0  0  0  0  0  0  0  0  0  0  0
  -29.3246  -19.1489   25.7353 C   0  0  0  0  0  0  0  0  0  0  0  0
  -28.5756  -20.3867   26.1999 C   0  0  0  0  0  0  0  0  0  1  0  0
  -31.7024  -28.4274   24.3074 C   0  0  1  0  0  0  0  0  0  0  0  0
  -33.3686  -29.4506   27.5550 C   0  0  2  0  0  0  0  0  0  0  0  0
  -32.2839  -28.8803   22.9384 C   0  0  0  0  0  0  0  0  0  0  0  0
  -25.8641  -11.4997   20.3525 N   0  0  0  0  0  0  0  0  0  0  0  0
  -26.2787  -12.7609   20.1435 N   0  0  0  0  0  0  0  0  0  0  0  0
  -29.4570  -27.4300   24.6028 N   0  0  0  0  0  0  0  0  0  0  0  0
  -30.0246  -13.4645   20.3818 N   0  0  0  0  0  0  0  0  0  0  0  0
  -25.5683  -15.0194   20.2172 N   0  0  0  0  0  0  0  0  0  0  0  0
  -21.8921  -12.7286   21.4955 N   0  0  0  0  0  0  0  0  0  0  0  0
  -30.1684  -15.6131   21.3436 N   0  0  0  0  0  0  0  0  0  0  0  0
  -29.8884  -19.3667   24.4228 N   0  0  0  0  0  0  0  0  0  0  0  0
  -26.5437  -27.6944   22.5600 N   0  0  0  0  0  0  0  0  0  0  0  0
  -32.2495  -29.1428   25.4552 N   0  0  0  0  0  0  0  0  0  0  0  0
  -33.2947  -28.8130   28.8999 N   0  3  0  0  0  0  0  0  0  0  0  0
  -22.7319  -14.8226   21.0848 O   0  0  0  0  0  0  0  0  0  0  0  0
  -28.3475  -26.2221   22.5239 O   0  0  0  0  0  0  0  0  0  0  0  0
  -29.7146  -29.7205   24.2512 O   0  0  0  0  0  0  0  0  0  0  0  0
  -33.0618  -27.2715   26.5577 O   0  0  0  0  0  0  0  0  0  0  0  0
  -31.9508  -14.7224   20.1556 O   0  0  0  0  0  0  0  0  0  0  0  0
  -21.4645   -7.1958   21.9860 O   0  0  0  0  0  0  0  0  0  0  0  0
  -29.4775  -21.4904   26.2682 O   0  0  0  0  0  0  0  0  0  1  0  0
  -18.3713   -7.4414   26.5440 F   0  0  0  0  0  0  0  0  0  0  0  0
  -21.8202   -5.3810   24.0410 F   0  0  0  0  0  0  0  0  0  0  0  0
  -32.8157  -19.5152   24.9571 Cl  0  0  0  0  0  0  0  0  0  0  0  0
  -28.2886  -17.5512   22.6887 Cl  0  0  0  0  0  0  0  0  0  0  0  0
  1  2  1  0  0  0  0
  1  5  2  0  0  0  0
  2  6  2  0  0  0  0
  3  8  2  0  0  0  0
  3 16  1  0  0  0  0
  4  9  1  0  0  0  0
  4 16  2  0  0  0  0
  5 18  1  0  0  0  0
  6 20  1  0  0  0  0
  7 10  2  0  0  0  0
  7 19  1  0  0  0  0
  8 25  1  0  0  0  0
  9 25  2  0  0  0  0
 10 26  1  0  0  0  0
 11 12  2  0  0  0  0
 11 27  1  0  0  0  0
 12 28  1  0  0  0  0
 13 21  1  0  0  0  0
 13 26  2  0  0  0  0
 14 22  1  0  0  0  0
 14 23  2  0  0  0  0
 15 28  2  0  0  0  0
 15 29  1  0  0  0  0
 16 32  1  0  0  0  0
 17 32  1  0  0  0  0
 17 33  2  0  0  0  0
 17 34  1  0  0  0  0
 18 20  2  0  0  0  0
 18 39  1  0  0  0  0
 19 21  2  0  0  0  0
 19 40  1  0  0  0  0
 20 48  1  0  0  0  0
 21 41  1  0  0  0  0
 22 30  2  0  0  0  0
 22 51  1  0  0  0  0
 23 31  1  0  0  0  0
 23 68  1  0  0  0  0
 24 30  1  0  0  0  0
 24 31  2  0  0  0  0
 24 69  1  0  0  0  0
 25 78  1  0  0  0  0
 26 79  1  0  0  0  0
 27 29  2  0  0  0  0
 27 78  1  0  0  0  0
 28 80  1  0  0  0  0
 29 81  1  0  0  0  0
 30 82  1  0  0  0  0
 31 83  1  0  0  0  0
 32 62  2  0  0  0  0
 33 63  1  0  0  0  0
 33 66  1  0  0  0  0
 34 67  1  0  0  0  0
 34 73  2  0  0  0  0
 35 49  1  0  0  0  0
 35 70  1  0  0  0  0
 35 74  2  0  0  0  0
 36 59  1  0  0  0  0
 36 64  1  0  0  0  0
 36 75  2  0  0  0  0
 37 60  1  0  0  0  0
 37 71  1  0  0  0  0
 37 76  2  0  0  0  0
 38 65  1  0  0  0  0
 38 68  1  0  0  0  0
 38 77  2  0  0  0  0
 39 42  1  0  0  0  0
 40 49  1  0  0  0  0
 41 64  1  0  0  0  0
 42 44  1  0  0  0  0
 43 45  1  0  0  0  0
 43 46  1  0  0  0  0
 44 48  1  0  0  0  0
 45 50  1  0  0  0  0
 46 65  1  0  0  0  0
 47 50  1  0  0  0  0
 47 65  1  0  0  0  0
 48 70  1  0  0  0  0
 49 64  1  0  0  0  0
 50 63  1  0  0  0  0
 52 60  1  0  0  0  0
 53 61  1  0  0  0  0
 54 61  1  0  0  0  0
 55 61  1  0  0  0  0
 56 72  1  0  0  0  0
 57 58  1  0  0  0  0
 57 69  1  0  0  0  0
 58 79  1  0  0  0  0
 59 61  1  0  0  0  0
 59 71  1  0  0  0  0
 60 72  1  0  0  0  0
 62 63  1  0  0  0  0
M  CHG  1  72   1
M  ISO  4  38 100  58 101  68 100  79 101
M  END
> <Batch ID>
0012

> <Smiles>
CNC(C)C(=O)NC(C(=O)N1Cc2cc([101O:1][101CH2:1]CNc3c(Cl)c(C)cc([100NH:0][100C:0](=O)N4CCCC(n5nc(-c6ccc(Oc7ccc(F)cc7F)cc6)c(C(N)=O)c5N)C4)c3Cl)ccc2CC1C(=O)NC1CCCc2ccccc21)C(C)(C)C

> <Shape>
0.215

> <Color>
0.201

> <Negative vol penalty>
0.000

$$$$

  -OEChem-04052315473D

 74 81  0     1  0  0  0  0  0999 V2000
  -34.3904  -30.4306   17.6442 C   0  0  0  0  0  0  0  0  0  0  0  0
  -33.6835  -29.2386   17.7653 C   0  0  0  0  0  0  0  0  0  0  0  0
  -24.0517  -12.6076   20.6788 C   0  0  0  0  0  0  0  0  0  0  0  0
  -26.4114  -12.4344   21.1674 C   0  0  0  0  0  0  0  0  0  0  0  0
  -34.2750  -31.4112   18.6286 C   0  0  0  0  0  0  0  0  0  0  0  0
  -32.8615  -29.0260   18.8715 C   0  0  0  0  0  0  0  0  0  0  0  0
  -27.5635  -25.9561   18.9857 C   0  0  0  0  0  0  0  0  0  0  0  0
  -24.0327  -11.2668   20.2950 C   0  0  0  0  0  0  0  0  0  0  0  0
  -26.3925  -11.0935   20.7837 C   0  0  0  0  0  0  0  0  0  0  0  0
  -27.2426  -24.6528   19.3628 C   0  0  0  0  0  0  0  0  0  0  0  0
  -23.2848   -7.7927   19.5293 C   0  0  0  0  0  0  0  0  0  0  0  0
  -22.2353   -7.0000   19.9937 C   0  0  0  0  0  0  0  0  0  0  0  0
  -26.6206  -25.4465   21.5543 C   0  0  0  0  0  0  0  0  0  0  0  0
  -22.9035   -7.4498   22.2715 C   0  0  0  0  0  0  0  0  0  0  0  0
  -25.2411  -13.1915   21.1149 C   0  0  0  0  0  0  0  0  0  0  0  0
  -25.0330  -15.0960   22.7994 C   0  0  0  0  0  0  0  0  0  0  0  0
  -33.4437  -31.2145   19.7426 C   0  0  0  0  0  0  0  0  0  0  0  0
  -27.4255  -27.0146   19.8951 C   0  0  0  0  0  0  0  0  0  0  0  0
  -32.7360  -30.0043   19.8724 C   0  0  0  0  0  0  0  0  0  0  0  0
  -26.9380  -26.7626   21.1855 C   0  0  0  0  0  0  0  0  0  0  0  0
  -25.2031  -10.5097   20.3475 C   0  0  0  0  0  0  0  0  0  0  0  0
  -26.7738  -24.3974   20.6481 C   0  0  0  0  0  0  0  0  0  0  0  0
  -24.1438   -8.4139   20.4359 C   0  0  0  0  0  0  0  0  0  0  0  0
  -22.0446   -6.8286   21.3648 C   0  0  0  0  0  0  0  0  0  0  0  0
  -23.9531   -8.2425   21.8070 C   0  0  0  0  0  0  0  0  0  0  0  0
  -25.2615  -14.5767   21.5110 C   0  0  0  0  0  0  0  0  0  0  0  0
  -25.1645  -16.4550   22.6501 C   0  0  0  0  0  0  0  0  0  0  0  0
  -24.7291  -14.4111   24.0218 C   0  0  0  0  0  0  0  0  0  0  0  0
  -29.4187  -29.1020   21.2269 C   0  0  0  0  0  0  0  0  0  0  0  0
  -26.6776  -30.3802   22.3993 C   0  0  0  0  0  0  0  0  0  0  0  0
  -23.4081  -29.9263   23.2661 C   0  0  0  0  0  0  0  0  0  0  0  0
  -28.3315  -20.6421   20.4694 C   0  0  0  0  0  0  0  0  0  0  0  0
  -33.3878  -32.2841   20.8045 C   0  0  0  0  0  0  0  0  0  0  0  0
  -27.7507  -28.4186   19.4644 C   0  0  0  0  0  0  0  0  0  0  0  0
  -26.7527  -27.8668   22.1928 C   0  0  0  0  0  0  0  0  0  0  0  0
  -32.2050  -32.1345   21.7579 C   0  0  0  0  0  0  0  0  0  0  0  0
  -25.4928  -19.3129   18.5005 C   0  0  0  0  0  0  0  0  0  0  0  0
  -32.0767  -30.6887   22.2267 C   0  0  0  0  0  0  0  0  0  0  0  0
  -25.2159  -17.9722   19.1786 C   0  0  0  0  0  0  0  0  0  0  0  0
  -26.9551  -19.7262   18.6369 C   0  0  0  0  0  0  0  0  0  0  0  0
  -27.1683  -18.4111   20.7200 C   0  0  0  0  0  0  0  0  0  0  0  0
  -31.8150  -29.7468   21.0453 C   0  0  1  0  0  0  0  0  0  0  0  0
  -28.0593  -29.3465   20.6353 C   0  0  1  0  0  0  0  0  0  0  0  0
  -25.6938  -17.9881   20.6411 C   0  0  2  0  0  0  0  0  0  0  0  0
  -21.4386  -31.1453   24.2316 C   0  0  0  0  0  0  0  0  0  0  0  0
  -27.9239  -30.1883   25.1778 C   0  0  0  0  0  0  0  0  0  0  0  0
  -25.6378  -30.5027   26.1488 C   0  0  0  0  0  0  0  0  0  0  0  0
  -26.6538  -32.2992   24.7477 C   0  0  0  0  0  0  0  0  0  0  0  0
  -29.4769  -21.4603   22.4938 C   0  0  0  0  0  0  0  0  0  0  0  0
  -21.7960  -29.4956   20.8218 C   0  0  0  0  0  0  0  0  0  0  0  0
  -27.0136  -21.3291   22.5173 C   0  0  0  0  0  0  0  0  0  0  0  0
  -26.6257  -22.7919   22.3964 C   0  0  0  0  0  0  0  0  0  1  0  0
  -25.8477  -30.1727   23.6432 C   0  0  1  0  0  0  0  0  0  0  0  0
  -22.1624  -30.7372   22.9579 C   0  0  2  0  0  0  0  0  0  0  0  0
  -26.5210  -30.7694   24.9112 C   0  0  0  0  0  0  0  0  0  0  0  0
  -25.5185  -15.5283   20.6096 N   0  0  0  0  0  0  0  0  0  0  0  0
  -25.4522  -16.6592   21.3327 N   0  0  0  0  0  0  0  0  0  0  0  0
  -27.0903  -29.2217   21.7260 N   0  0  0  0  0  0  0  0  0  0  0  0
  -27.3952  -19.6909   20.0320 N   0  0  0  0  0  0  0  0  0  0  0  0
  -25.0609  -17.4833   23.5186 N   0  0  0  0  0  0  0  0  0  0  0  0
  -24.6307  -13.0132   23.9978 N   0  0  0  0  0  0  0  0  0  0  0  0
  -30.4310  -29.8291   20.6302 N   0  0  0  0  0  0  0  0  0  0  0  0
  -24.5292  -30.7246   23.3509 N   0  0  0  0  0  0  0  0  0  0  0  0
  -28.2608  -21.0379   21.8137 N   0  0  0  0  0  0  0  0  0  0  0  0
  -21.2224  -29.9433   22.1169 N   0  3  0  0  0  0  0  0  0  0  0  0
  -24.5340  -15.0218   25.0999 O   0  0  0  0  0  0  0  0  0  0  0  0
  -29.5400  -28.3132   22.1569 O   0  0  0  0  0  0  0  0  0  0  0  0
  -26.9436  -31.5281   22.0344 O   0  0  0  0  0  0  0  0  0  0  0  0
  -23.3881  -28.7071   23.4200 O   0  0  0  0  0  0  0  0  0  0  0  0
  -29.1760  -21.1179   19.6998 O   0  0  0  0  0  0  0  0  0  0  0  0
  -25.1849   -9.2011   19.9733 O   0  0  0  0  0  0  0  0  0  0  0  0
  -26.4604  -23.1261   21.0189 O   0  0  0  0  0  0  0  0  0  1  0  0
  -21.0357   -6.0686   21.8107 F   0  0  0  0  0  0  0  0  0  0  0  0
  -24.7743   -8.8377   22.6829 F   0  0  0  0  0  0  0  0  0  0  0  0
  1  2  1  0  0  0  0
  1  5  2  0  0  0  0
  2  6  2  0  0  0  0
  3  8  2  0  0  0  0
  3 15  1  0  0  0  0
  4  9  1  0  0  0  0
  4 15  2  0  0  0  0
  5 17  1  0  0  0  0
  6 19  1  0  0  0  0
  7 10  2  0  0  0  0
  7 18  1  0  0  0  0
  8 21  1  0  0  0  0
  9 21  2  0  0  0  0
 10 22  1  0  0  0  0
 11 12  2  0  0  0  0
 11 23  1  0  0  0  0
 12 24  1  0  0  0  0
 13 20  1  0  0  0  0
 13 22  2  0  0  0  0
 14 24  2  0  0  0  0
 14 25  1  0  0  0  0
 15 26  1  0  0  0  0
 16 26  1  0  0  0  0
 16 27  2  0  0  0  0
 16 28  1  0  0  0  0
 17 19  2  0  0  0  0
 17 33  1  0  0  0  0
 18 20  2  0  0  0  0
 18 34  1  0  0  0  0
 19 42  1  0  0  0  0
 20 35  1  0  0  0  0
 21 71  1  0  0  0  0
 22 72  1  0  0  0  0
 23 25  2  0  0  0  0
 23 71  1  0  0  0  0
 24 73  1  0  0  0  0
 25 74  1  0  0  0  0
 26 56  2  0  0  0  0
 27 57  1  0  0  0  0
 27 60  1  0  0  0  0
 28 61  1  0  0  0  0
 28 66  2  0  0  0  0
 29 43  1  0  0  0  0
 29 62  1  0  0  0  0
 29 67  2  0  0  0  0
 30 53  1  0  0  0  0
 30 58  1  0  0  0  0
 30 68  2  0  0  0  0
 31 54  1  0  0  0  0
 31 63  1  0  0  0  0
 31 69  2  0  0  0  0
 32 59  1  0  0  0  0
 32 64  1  0  0  0  0
 32 70  2  0  0  0  0
 33 36  1  0  0  0  0
 34 43  1  0  0  0  0
 35 58  1  0  0  0  0
 36 38  1  0  0  0  0
 37 39  1  0  0  0  0
 37 40  1  0  0  0  0
 38 42  1  0  0  0  0
 39 44  1  0  0  0  0
 40 59  1  0  0  0  0
 41 44  1  0  0  0  0
 41 59  1  0  0  0  0
 42 62  1  0  0  0  0
 43 58  1  0  0  0  0
 44 57  1  0  0  0  0
 45 54  1  0  0  0  0
 46 55  1  0  0  0  0
 47 55  1  0  0  0  0
 48 55  1  0  0  0  0
 49 64  1  0  0  0  0
 50 65  1  0  0  0  0
 51 52  1  0  0  0  0
 51 64  1  0  0  0  0
 52 72  1  0  0  0  0
 53 55  1  0  0  0  0
 53 63  1  0  0  0  0
 54 65  1  0  0  0  0
 56 57  1  0  0  0  0
M  CHG  1  65   1
M  ISO  4  32 100  52 101  64 100  72 101
M  END
> <Batch ID>
0012

> <Smiles>
CNC(C)C(=O)NC(C(=O)N1Cc2cc([101O:1][101CH2:1]C[100N:0](C)[100C:0](=O)N3CCCC(n4nc(-c5ccc(Oc6ccc(F)cc6F)cc5)c(C(N)=O)c4N)C3)ccc2CC1C(=O)NC1CCCc2ccccc21)C(C)(C)C

> <Shape>
0.208

> <Color>
0.095

> <Negative vol penalty>
0.000

$$$$

  -OEChem-04052315473D

 88 96  0     1  0  0  0  0  0999 V2000
  -25.8456  -33.1388   25.9532 C   0  0  0  0  0  0  0  0  0  0  0  0
  -25.8161  -31.7891   25.6173 C   0  0  0  0  0  0  0  0  0  0  0  0
  -23.0155   -9.8982   19.9404 C   0  0  0  0  0  0  0  0  0  0  0  0
  -23.7609   -9.8878   22.2385 C   0  0  0  0  0  0  0  0  0  0  0  0
  -26.1289  -34.0929   24.9768 C   0  0  0  0  0  0  0  0  0  0  0  0
  -26.0688  -31.3928   24.3045 C   0  0  0  0  0  0  0  0  0  0  0  0
  -29.2002  -27.4215   24.0427 C   0  0  0  0  0  0  0  0  0  0  0  0
  -22.2585   -8.7516   20.1807 C   0  0  0  0  0  0  0  0  0  0  0  0
  -23.0038   -8.7412   22.4788 C   0  0  0  0  0  0  0  0  0  0  0  0
  -28.6586  -26.1649   24.3101 C   0  0  0  0  0  0  0  0  0  0  0  0
  -23.2646   -5.4188   21.9090 C   0  0  0  0  0  0  0  0  0  0  0  0
  -23.8651   -4.3843   22.6265 C   0  0  0  0  0  0  0  0  0  0  0  0
  -28.5079  -25.7324   21.9417 C   0  0  0  0  0  0  0  0  0  0  0  0
  -30.6455  -19.8125   21.5618 C   0  0  0  0  0  0  0  0  0  0  0  0
  -31.1689  -17.6270   20.6750 C   0  0  0  0  0  0  0  0  0  0  0  0
  -22.1547   -4.5679   24.3229 C   0  0  0  0  0  0  0  0  0  0  0  0
  -23.7668  -10.4663   20.9693 C   0  0  0  0  0  0  0  0  0  0  0  0
  -24.1349  -12.9883   20.8623 C   0  0  0  0  0  0  0  0  0  0  0  0
  -26.3947  -33.7074   23.6534 C   0  0  0  0  0  0  0  0  0  0  0  0
  -29.3898  -27.8480   22.7204 C   0  0  0  0  0  0  0  0  0  0  0  0
  -26.3546  -32.3427   23.3092 C   0  0  0  0  0  0  0  0  0  0  0  0
  -29.0544  -26.9939   21.6602 C   0  0  0  0  0  0  0  0  0  0  0  0
  -31.3648  -19.0080   20.6780 C   0  0  0  0  0  0  0  0  0  0  0  0
  -29.7304  -19.2359   22.4426 C   0  0  0  0  0  0  0  0  0  0  0  0
  -30.2538  -17.0504   21.5558 C   0  0  0  0  0  0  0  0  0  0  0  0
  -22.2526   -8.1731   21.4499 C   0  0  0  0  0  0  0  0  0  0  0  0
  -28.3097  -25.3213   23.2596 C   0  0  0  0  0  0  0  0  0  0  0  0
  -22.1092   -6.0280   22.3986 C   0  0  0  0  0  0  0  0  0  0  0  0
  -29.5345  -17.8549   22.4396 C   0  0  0  0  0  0  0  0  0  0  0  0
  -23.3102   -3.9588   23.8334 C   0  0  0  0  0  0  0  0  0  0  0  0
  -21.5542   -5.6025   23.6055 C   0  0  0  0  0  0  0  0  0  0  0  0
  -24.5495  -11.6504   20.7215 C   0  0  0  0  0  0  0  0  0  0  0  0
  -25.2369  -13.7282   20.5091 C   0  0  0  0  0  0  0  0  0  0  0  0
  -22.8671  -13.5152   21.2754 C   0  0  0  0  0  0  0  0  0  0  0  0
  -28.2593  -30.2326   20.9486 C   0  0  0  0  0  0  0  0  0  0  0  0
  -30.4027  -29.1216   18.7821 C   0  0  0  0  0  0  0  0  0  0  0  0
  -29.0921  -21.4507   23.4581 C   0  0  0  0  0  0  0  0  0  0  0  0
  -32.2696  -26.5063   17.6324 C   0  0  0  0  0  0  0  0  0  0  0  0
  -30.7122  -14.7175   20.7228 C   0  0  0  0  0  0  0  0  0  0  0  0
  -26.6495  -34.7784   22.6226 C   0  0  0  0  0  0  0  0  0  0  0  0
  -30.0000  -29.1958   22.4489 C   0  0  0  0  0  0  0  0  0  0  0  0
  -29.2570  -27.3963   20.2230 C   0  0  0  0  0  0  0  0  0  0  0  0
  -27.2749  -34.2480   21.3350 C   0  0  0  0  0  0  0  0  0  0  0  0
  -29.5885  -12.3252   18.3372 C   0  0  0  0  0  0  0  0  0  0  0  0
  -26.5438  -32.9952   20.8630 C   0  0  0  0  0  0  0  0  0  0  0  0
  -28.1432  -12.0464   18.7564 C   0  0  0  0  0  0  0  0  0  0  0  0
  -30.4982  -12.5396   19.5456 C   0  0  0  0  0  0  0  0  0  0  0  0
  -28.5899  -13.2775   20.9179 C   0  0  0  0  0  0  0  0  0  0  0  0
  -26.6478  -31.8716   21.9013 C   0  0  1  0  0  0  0  0  0  0  0  0
  -29.6715  -29.7313   21.0587 C   0  0  1  0  0  0  0  0  0  0  0  0
  -27.6229  -13.1191   19.7332 C   0  0  2  0  0  0  0  0  0  0  0  0
  -33.8952  -25.8920   15.8221 C   0  0  0  0  0  0  0  0  0  0  0  0
  -33.4684  -20.3835   20.5090 C   0  0  0  0  0  0  0  0  0  0  0  0
  -31.6500  -20.6503   18.7890 C   0  0  0  0  0  0  0  0  0  0  0  0
  -33.0903  -18.6238   18.7938 C   0  0  0  0  0  0  0  0  0  0  0  0
  -28.1081  -28.9692   16.7767 C   0  0  0  0  0  0  0  0  0  0  0  0
  -29.5452  -27.4970   15.3499 C   0  0  0  0  0  0  0  0  0  0  0  0
  -30.2577  -29.8371   15.8384 C   0  0  0  0  0  0  0  0  0  0  0  0
  -34.3963  -25.8822   19.5936 C   0  0  0  0  0  0  0  0  0  0  0  0
  -27.2973  -17.1557   22.8419 C   0  0  0  0  0  0  0  0  0  0  0  0
  -28.1409  -21.9464   24.5415 C   0  0  0  0  0  0  0  0  0  0  0  0
  -28.1826  -23.4554   24.7286 C   0  0  0  0  0  0  0  0  0  1  0  0
  -30.3684  -28.0995   17.6716 C   0  0  1  0  0  0  0  0  0  0  0  0
  -33.7337  -26.4079   17.2435 C   0  0  2  0  0  0  0  0  0  0  0  0
  -32.3445  -19.6245   19.7376 C   0  0  0  0  0  0  0  0  0  0  0  0
  -29.5641  -28.5936   16.4361 C   0  0  0  0  0  0  0  0  0  0  0  0
  -25.8160  -11.5435   20.3108 N   0  0  0  0  0  0  0  0  0  0  0  0
  -26.2067  -12.8237   20.1904 N   0  0  0  0  0  0  0  0  0  0  0  0
  -29.8509  -28.7264   20.0089 N   0  0  0  0  0  0  0  0  0  0  0  0
  -29.9441  -13.5723   20.4238 N   0  0  0  0  0  0  0  0  0  0  0  0
  -25.4612  -15.0578   20.4432 N   0  0  0  0  0  0  0  0  0  0  0  0
  -21.8439  -12.6149   21.6024 N   0  0  0  0  0  0  0  0  0  0  0  0
  -29.0096  -20.0665   23.3334 N   0  0  0  0  0  0  0  0  0  0  0  0
  -30.0690  -15.6456   21.5411 N   0  0  0  0  0  0  0  0  0  0  0  0
  -27.9503  -31.2440   21.8381 N   0  0  0  0  0  0  0  0  0  0  0  0
  -31.7584  -27.7626   17.3839 N   0  0  0  0  0  0  0  0  0  0  0  0
  -34.4531  -25.4827   18.1639 N   0  3  0  0  0  0  0  0  0  0  0  0
  -22.6430  -14.7479   21.3365 O   0  0  0  0  0  0  0  0  0  0  0  0
  -27.5062  -29.7395   20.1171 O   0  0  0  0  0  0  0  0  0  0  0  0
  -30.9072  -30.2273   18.5710 O   0  0  0  0  0  0  0  0  0  0  0  0
  -29.8075  -22.2143   22.8183 O   0  0  0  0  0  0  0  0  0  0  0  0
  -31.6412  -25.5620   18.1056 O   0  0  0  0  0  0  0  0  0  0  0  0
  -31.8459  -14.8768   20.2630 O   0  0  0  0  0  0  0  0  0  0  0  0
  -21.5137   -7.0544   21.6848 O   0  0  0  0  0  0  0  0  0  0  0  0
  -28.6391  -17.2903   23.3019 O   0  0  0  0  0  0  0  0  0  0  0  0
  -27.7804  -24.0946   23.5178 O   0  0  0  0  0  0  0  0  0  1  0  0
  -23.8861   -2.9642   24.5214 F   0  0  0  0  0  0  0  0  0  0  0  0
  -20.4437   -6.1831   24.0803 F   0  0  0  0  0  0  0  0  0  0  0  0
  1  2  1  0  0  0  0
  1  5  2  0  0  0  0
  2  6  2  0  0  0  0
  3  8  2  0  0  0  0
  3 17  1  0  0  0  0
  4  9  1  0  0  0  0
  4 17  2  0  0  0  0
  5 19  1  0  0  0  0
  6 21  1  0  0  0  0
  7 10  2  0  0  0  0
  7 20  1  0  0  0  0
  8 26  1  0  0  0  0
  9 26  2  0  0  0  0
 10 27  1  0  0  0  0
 11 12  2  0  0  0  0
 11 28  1  0  0  0  0
 12 30  1  0  0  0  0
 13 22  1  0  0  0  0
 13 27  2  0  0  0  0
 14 23  2  0  0  0  0
 14 24  1  0  0  0  0
 15 23  1  0  0  0  0
 15 25  2  0  0  0  0
 16 30  2  0  0  0  0
 16 31  1  0  0  0  0
 17 32  1  0  0  0  0
 18 32  1  0  0  0  0
 18 33  2  0  0  0  0
 18 34  1  0  0  0  0
 19 21  2  0  0  0  0
 19 40  1  0  0  0  0
 20 22  2  0  0  0  0
 20 41  1  0  0  0  0
 21 49  1  0  0  0  0
 22 42  1  0  0  0  0
 23 65  1  0  0  0  0
 24 29  2  0  0  0  0
 24 73  1  0  0  0  0
 25 29  1  0  0  0  0
 25 74  1  0  0  0  0
 26 84  1  0  0  0  0
 27 86  1  0  0  0  0
 28 31  2  0  0  0  0
 28 84  1  0  0  0  0
 29 85  1  0  0  0  0
 30 87  1  0  0  0  0
 31 88  1  0  0  0  0
 32 67  2  0  0  0  0
 33 68  1  0  0  0  0
 33 71  1  0  0  0  0
 34 72  1  0  0  0  0
 34 78  2  0  0  0  0
 35 50  1  0  0  0  0
 35 75  1  0  0  0  0
 35 79  2  0  0  0  0
 36 63  1  0  0  0  0
 36 69  1  0  0  0  0
 36 80  2  0  0  0  0
 37 61  1  0  0  0  0
 37 73  1  0  0  0  0
 37 81  2  0  0  0  0
 38 64  1  0  0  0  0
 38 76  1  0  0  0  0
 38 82  2  0  0  0  0
 39 70  1  0  0  0  0
 39 74  1  0  0  0  0
 39 83  2  0  0  0  0
 40 43  1  0  0  0  0
 41 50  1  0  0  0  0
 42 69  1  0  0  0  0
 43 45  1  0  0  0  0
 44 46  1  0  0  0  0
 44 47  1  0  0  0  0
 45 49  1  0  0  0  0
 46 51  1  0  0  0  0
 47 70  1  0  0  0  0
 48 51  1  0  0  0  0
 48 70  1  0  0  0  0
 49 75  1  0  0  0  0
 50 69  1  0  0  0  0
 51 68  1  0  0  0  0
 52 64  1  0  0  0  0
 53 65  1  0  0  0  0
 54 65  1  0  0  0  0
 55 65  1  0  0  0  0
 56 66  1  0  0  0  0
 57 66  1  0  0  0  0
 58 66  1  0  0  0  0
 59 77  1  0  0  0  0
 60 85  1  0  0  0  0
 61 62  1  0  0  0  0
 62 86  1  0  0  0  0
 63 66  1  0  0  0  0
 63 76  1  0  0  0  0
 64 77  1  0  0  0  0
 67 68  1  0  0  0  0
M  CHG  1  77   1
M  ISO  4  39 100  62 101  74 100  86 101
M  END
> <Batch ID>
0012

> <Smiles>
CNC(C)C(=O)NC(C(=O)N1Cc2cc([101O:1][101CH2:1]CC(=O)Nc3cc(C(C)(C)C)cc([100NH:0][100C:0](=O)N4CCCC(n5nc(-c6ccc(Oc7ccc(F)cc7F)cc6)c(C(N)=O)c5N)C4)c3OC)ccc2CC1C(=O)NC1CCCc2ccccc21)C(C)(C)C

> <Shape>
0.286

> <Color>
0.190

> <Negative vol penalty>
0.000

$$$$

  -OEChem-04052315473D

 85 93  0     1  0  0  0  0  0999 V2000
  -22.2510   -7.2114   24.1101 C   0  0  0  0  0  0  0  0  0  0  0  0
  -23.5278   -7.7086   24.3508 C   0  0  0  0  0  0  0  0  0  0  0  0
  -23.3857  -29.6098   25.0330 C   0  0  0  0  0  0  0  0  0  0  0  0
  -24.6253  -30.0622   23.0092 C   0  0  0  0  0  0  0  0  0  0  0  0
  -21.6050   -7.5043   22.9098 C   0  0  0  0  0  0  0  0  0  0  0  0
  -24.1598   -8.4981   23.3908 C   0  0  0  0  0  0  0  0  0  0  0  0
  -28.7254  -13.9867   22.8013 C   0  0  0  0  0  0  0  0  0  0  0  0
  -23.6484  -30.9036   25.4831 C   0  0  0  0  0  0  0  0  0  0  0  0
  -24.8879  -31.3561   23.4593 C   0  0  0  0  0  0  0  0  0  0  0  0
  -29.9114  -14.3367   22.1574 C   0  0  0  0  0  0  0  0  0  0  0  0
  -26.1896  -34.6599   24.2339 C   0  0  0  0  0  0  0  0  0  0  0  0
  -27.4906  -35.1433   24.0946 C   0  0  0  0  0  0  0  0  0  0  0  0
  -28.6671  -14.8430   20.1538 C   0  0  0  0  0  0  0  0  0  0  0  0
  -28.3079  -33.3437   25.4841 C   0  0  0  0  0  0  0  0  0  0  0  0
  -23.8743  -29.1890   23.7960 C   0  0  0  0  0  0  0  0  0  0  0  0
  -22.5043  -27.4262   22.5619 C   0  0  0  0  0  0  0  0  0  0  0  0
  -22.2255   -8.3058   21.9386 C   0  0  0  0  0  0  0  0  0  0  0  0
  -27.5005  -14.0519   22.1218 C   0  0  0  0  0  0  0  0  0  0  0  0
  -23.5220   -8.8009   22.1758 C   0  0  0  0  0  0  0  0  0  0  0  0
  -27.4667  -14.4957   20.7921 C   0  0  0  0  0  0  0  0  0  0  0  0
  -24.3994  -31.7768   24.6962 C   0  0  0  0  0  0  0  0  0  0  0  0
  -29.8828  -14.7622   20.8326 C   0  0  0  0  0  0  0  0  0  0  0  0
  -25.9477  -33.5185   24.9983 C   0  0  0  0  0  0  0  0  0  0  0  0
  -28.5497  -34.4852   24.7197 C   0  0  0  0  0  0  0  0  0  0  0  0
  -27.0069  -32.8604   25.6234 C   0  0  0  0  0  0  0  0  0  0  0  0
  -23.6038  -27.8524   23.3308 C   0  0  0  0  0  0  0  0  0  0  0  0
  -22.7099  -26.0796   22.3858 C   0  0  0  0  0  0  0  0  0  0  0  0
  -30.0164  -20.1430   21.8678 C   0  0  0  0  0  0  0  0  0  0  0  0
  -28.9627  -20.9486   21.6777 C   0  0  0  0  0  0  0  0  0  0  0  0
  -30.5040  -19.3796   20.6688 C   0  0  0  0  0  0  0  0  0  0  0  0
  -28.3252  -21.0636   20.3383 C   0  0  0  0  0  0  0  0  0  0  0  0
  -21.3963  -28.1800   22.0523 C   0  0  0  0  0  0  0  0  0  0  0  0
  -25.2723  -11.9368   21.3064 C   0  0  0  0  0  0  0  0  0  0  0  0
  -23.6710  -14.5835   20.3301 C   0  0  0  0  0  0  0  0  0  0  0  0
  -23.8045  -17.8293   19.2843 C   0  0  0  0  0  0  0  0  0  0  0  0
  -27.7704  -22.9270   22.4330 C   0  0  0  0  0  0  0  0  0  0  0  0
  -21.5066   -8.5562   20.6366 C   0  0  0  0  0  0  0  0  0  0  0  0
  -26.2270  -13.6964   22.8388 C   0  0  0  0  0  0  0  0  0  0  0  0
  -26.1753  -14.6027   20.0244 C   0  0  0  0  0  0  0  0  0  0  0  0
  -22.0946   -9.7099   19.8282 C   0  0  0  0  0  0  0  0  0  0  0  0
  -24.7371  -22.2902   24.4461 C   0  0  0  0  0  0  0  0  0  0  0  0
  -23.6147   -9.5988   19.7674 C   0  0  0  0  0  0  0  0  0  0  0  0
  -24.0349  -23.6415   24.3533 C   0  0  0  0  0  0  0  0  0  0  0  0
  -26.2585  -22.4335   24.4527 C   0  0  0  0  0  0  0  0  0  0  0  0
  -26.0835  -24.5675   23.2044 C   0  0  0  0  0  0  0  0  0  0  0  0
  -24.2305   -9.6814   21.1694 C   0  0  1  0  0  0  0  0  0  0  0  0
  -25.0957  -13.3096   21.8911 C   0  0  1  0  0  0  0  0  0  0  0  0
  -24.5534  -24.4396   23.1475 C   0  0  2  0  0  0  0  0  0  0  0  0
  -30.7468  -19.9378   23.1646 C   0  0  0  0  0  0  0  0  0  0  0  0
  -22.3349  -19.7157   18.5233 C   0  0  0  0  0  0  0  0  0  0  0  0
  -32.8980  -18.7237   18.7824 C   0  0  0  0  0  0  0  0  0  0  0  0
  -23.3506  -13.2343   17.6122 C   0  0  0  0  0  0  0  0  0  0  0  0
  -22.7520  -15.4677   16.6520 C   0  0  0  0  0  0  0  0  0  0  0  0
  -21.3187  -14.4477   18.4206 C   0  0  0  0  0  0  0  0  0  0  0  0
  -28.2791  -20.3863   18.0022 C   0  0  0  0  0  0  0  0  0  0  0  0
  -24.6516  -19.5517   21.5370 C   0  0  0  0  0  0  0  0  0  0  0  0
  -32.8972  -16.6235   20.1732 C   0  0  0  0  0  0  0  0  0  0  0  0
  -32.0865  -15.6386   21.0097 C   0  0  0  0  0  0  0  0  0  1  0  0
  -23.5888  -15.3696   19.0439 C   0  0  1  0  0  0  0  0  0  0  0  0
  -23.0212  -19.0579   19.7103 C   0  0  2  0  0  0  0  0  0  0  0  0
  -32.0610  -17.8013   19.6630 C   0  0  1  0  0  0  0  0  0  0  0  0
  -22.7772  -14.6261   17.9458 C   0  0  0  0  0  0  0  0  0  0  0  0
  -24.4454  -26.8573   23.6232 N   0  0  0  0  0  0  0  0  0  0  0  0
  -29.9430  -19.4807   19.4937 N   0  0  0  0  0  0  0  0  0  0  0  0
  -23.8745  -25.7923   23.0350 N   0  0  0  0  0  0  0  0  0  0  0  0
  -28.8766  -20.3021   19.3253 N   0  0  0  0  0  0  0  0  0  0  0  0
  -24.9576  -14.2379   20.7671 N   0  0  0  0  0  0  0  0  0  0  0  0
  -26.7304  -23.2548   23.3260 N   0  0  0  0  0  0  0  0  0  0  0  0
  -22.0063  -25.1251   21.7406 N   0  0  0  0  0  0  0  0  0  0  0  0
  -21.3403  -29.5534   22.3259 N   0  0  0  0  0  0  0  0  0  0  0  0
  -28.4026  -21.7086   22.6658 N   0  0  0  0  0  0  0  0  0  0  0  0
  -31.5447  -18.5633   20.7809 N   0  0  0  0  0  0  0  0  0  0  0  0
  -24.2596  -11.0535   21.6285 N   0  0  0  0  0  0  0  0  0  0  0  0
  -23.0528  -16.6791   19.3994 N   0  0  0  0  0  0  0  0  0  0  0  0
  -23.9285  -20.0573   20.3419 N   0  3  0  0  0  0  0  0  0  0  0  0
  -27.3579  -21.8121   20.1892 O   0  0  0  0  0  0  0  0  0  0  0  0
  -20.4745  -27.6482   21.3882 O   0  0  0  0  0  0  0  0  0  0  0  0
  -26.2538  -11.6970   20.6130 O   0  0  0  0  0  0  0  0  0  0  0  0
  -22.6323  -14.2931   20.9288 O   0  0  0  0  0  0  0  0  0  0  0  0
  -24.9657  -17.8849   18.8855 O   0  0  0  0  0  0  0  0  0  0  0  0
  -28.1085  -23.6741   21.5077 O   0  0  0  0  0  0  0  0  0  0  0  0
  -24.6556  -33.0395   25.1350 O   0  0  0  0  0  0  0  0  0  0  0  0
  -31.0390  -15.1038   20.2015 O   0  0  0  0  0  0  0  0  0  1  0  0
  -29.7992  -34.9486   24.5846 F   0  0  0  0  0  0  0  0  0  0  0  0
  -26.7809  -31.7627   26.3582 F   0  0  0  0  0  0  0  0  0  0  0  0
  1  2  1  0  0  0  0
  1  5  2  0  0  0  0
  2  6  2  0  0  0  0
  3  8  2  0  0  0  0
  3 15  1  0  0  0  0
  4  9  1  0  0  0  0
  4 15  2  0  0  0  0
  5 17  1  0  0  0  0
  6 19  1  0  0  0  0
  7 10  2  0  0  0  0
  7 18  1  0  0  0  0
  8 21  1  0  0  0  0
  9 21  2  0  0  0  0
 10 22  1  0  0  0  0
 11 12  2  0  0  0  0
 11 23  1  0  0  0  0
 12 24  1  0  0  0  0
 13 20  1  0  0  0  0
 13 22  2  0  0  0  0
 14 24  2  0  0  0  0
 14 25  1  0  0  0  0
 15 26  1  0  0  0  0
 16 26  1  0  0  0  0
 16 27  2  0  0  0  0
 16 32  1  0  0  0  0
 17 19  2  0  0  0  0
 17 37  1  0  0  0  0
 18 20  2  0  0  0  0
 18 38  1  0  0  0  0
 19 46  1  0  0  0  0
 20 39  1  0  0  0  0
 21 82  1  0  0  0  0
 22 83  1  0  0  0  0
 23 25  2  0  0  0  0
 23 82  1  0  0  0  0
 24 84  1  0  0  0  0
 25 85  1  0  0  0  0
 26 63  2  0  0  0  0
 27 65  1  0  0  0  0
 27 69  1  0  0  0  0
 28 29  2  0  0  0  0
 28 30  1  0  0  0  0
 28 49  1  0  0  0  0
 29 31  1  0  0  0  0
 29 71  1  0  0  0  0
 30 64  2  0  0  0  0
 30 72  1  0  0  0  0
 31 66  1  0  0  0  0
 31 76  2  0  0  0  0
 32 70  1  0  0  0  0
 32 77  2  0  0  0  0
 33 47  1  0  0  0  0
 33 73  1  0  0  0  0
 33 78  2  0  0  0  0
 34 59  1  0  0  0  0
 34 67  1  0  0  0  0
 34 79  2  0  0  0  0
 35 60  1  0  0  0  0
 35 74  1  0  0  0  0
 35 80  2  0  0  0  0
 36 68  1  0  0  0  0
 36 71  1  0  0  0  0
 36 81  2  0  0  0  0
 37 40  1  0  0  0  0
 38 47  1  0  0  0  0
 39 67  1  0  0  0  0
 40 42  1  0  0  0  0
 41 43  1  0  0  0  0
 41 44  1  0  0  0  0
 42 46  1  0  0  0  0
 43 48  1  0  0  0  0
 44 68  1  0  0  0  0
 45 48  1  0  0  0  0
 45 68  1  0  0  0  0
 46 73  1  0  0  0  0
 47 67  1  0  0  0  0
 48 65  1  0  0  0  0
 50 60  1  0  0  0  0
 51 61  1  0  0  0  0
 52 62  1  0  0  0  0
 53 62  1  0  0  0  0
 54 62  1  0  0  0  0
 55 66  1  0  0  0  0
 56 75  1  0  0  0  0
 57 58  1  0  0  0  0
 57 61  1  0  0  0  0
 58 83  1  0  0  0  0
 59 62  1  0  0  0  0
 59 74  1  0  0  0  0
 60 75  1  0  0  0  0
 61 72  1  0  0  0  0
 63 65  1  0  0  0  0
 64 66  1  0  0  0  0
M  CHG  1  75   1
M  ISO  4  36 100  58 101  71 100  83 101
M  END
> <Batch ID>
0012

> <Smiles>
CNC(C)C(=O)NC(C(=O)N1Cc2cc([101O:1][101CH2:1]CC(C)Nc3nn(C)c(=O)c([100NH:0][100C:0](=O)N4CCCC(n5nc(-c6ccc(Oc7ccc(F)cc7F)cc6)c(C(N)=O)c5N)C4)c3C)ccc2CC1C(=O)NC1CCCc2ccccc21)C(C)(C)C

> <Shape>
0.242

> <Color>
0.081

> <Negative vol penalty>
0.000

$$$$

  -OEChem-04052315473D

 82 90  0     1  0  0  0  0  0999 V2000
  -27.3772  -37.7657   24.3878 C   0  0  0  0  0  0  0  0  0  0  0  0
  -26.8589  -36.9303   25.3723 C   0  0  0  0  0  0  0  0  0  0  0  0
  -23.7465   -9.9088   22.3653 C   0  0  0  0  0  0  0  0  0  0  0  0
  -23.5919   -9.6980   19.9635 C   0  0  0  0  0  0  0  0  0  0  0  0
  -27.0193  -37.5748   23.0539 C   0  0  0  0  0  0  0  0  0  0  0  0
  -25.9816  -35.9042   25.0234 C   0  0  0  0  0  0  0  0  0  0  0  0
  -27.5147  -29.0340   26.5534 C   0  0  0  0  0  0  0  0  0  0  0  0
  -22.7897   -8.9049   22.5150 C   0  0  0  0  0  0  0  0  0  0  0  0
  -22.6351   -8.6941   20.1132 C   0  0  0  0  0  0  0  0  0  0  0  0
  -27.6375  -27.7175   26.9984 C   0  0  0  0  0  0  0  0  0  0  0  0
  -20.6523   -6.1469   23.5347 C   0  0  0  0  0  0  0  0  0  0  0  0
  -20.8956   -5.1558   24.4855 C   0  0  0  0  0  0  0  0  0  0  0  0
  -25.5939  -27.1268   25.8483 C   0  0  0  0  0  0  0  0  0  0  0  0
  -22.9205   -4.5366   23.3221 C   0  0  0  0  0  0  0  0  0  0  0  0
  -24.1476  -10.3054   21.0895 C   0  0  0  0  0  0  0  0  0  0  0  0
  -26.5320  -11.1821   20.8582 C   0  0  0  0  0  0  0  0  0  0  0  0
  -26.1446  -36.5397   22.6873 C   0  0  0  0  0  0  0  0  0  0  0  0
  -26.4380  -29.3987   25.7404 C   0  0  0  0  0  0  0  0  0  0  0  0
  -25.6106  -35.7001   23.6834 C   0  0  0  0  0  0  0  0  0  0  0  0
  -25.4723  -28.4411   25.3893 C   0  0  0  0  0  0  0  0  0  0  0  0
  -22.2341   -8.2976   21.3890 C   0  0  0  0  0  0  0  0  0  0  0  0
  -26.6793  -26.7664   26.6469 C   0  0  0  0  0  0  0  0  0  0  0  0
  -21.5431   -6.3329   22.4775 C   0  0  0  0  0  0  0  0  0  0  0  0
  -22.0296   -4.3506   24.3792 C   0  0  0  0  0  0  0  0  0  0  0  0
  -22.6772   -5.5277   22.3712 C   0  0  0  0  0  0  0  0  0  0  0  0
  -25.1355  -11.3427   20.9342 C   0  0  0  0  0  0  0  0  0  0  0  0
  -27.0170  -12.4590   20.7140 C   0  0  0  0  0  0  0  0  0  0  0  0
  -27.3203   -9.9858   20.9129 C   0  0  0  0  0  0  0  0  0  0  0  0
  -24.7148  -32.1177   23.8133 C   0  0  0  0  0  0  0  0  0  0  0  0
  -24.5508  -29.5743   22.1061 C   0  0  0  0  0  0  0  0  0  0  0  0
  -27.7911  -23.1032   25.6206 C   0  0  0  0  0  0  0  0  0  0  0  0
  -24.9542  -26.6731   20.3575 C   0  0  0  0  0  0  0  0  0  0  0  0
  -27.2081  -17.6698   21.9878 C   0  0  0  0  0  0  0  0  0  0  0  0
  -25.7498  -36.4020   21.2383 C   0  0  0  0  0  0  0  0  0  0  0  0
  -26.2325  -30.8192   25.2888 C   0  0  0  0  0  0  0  0  0  0  0  0
  -24.3123  -28.8868   24.5415 C   0  0  0  0  0  0  0  0  0  0  0  0
  -25.1082  -35.0571   20.9069 C   0  0  0  0  0  0  0  0  0  0  0  0
  -24.6365  -16.8106   19.7554 C   0  0  0  0  0  0  0  0  0  0  0  0
  -24.0520  -34.6987   21.9475 C   0  0  0  0  0  0  0  0  0  0  0  0
  -24.6451  -15.2855   19.8548 C   0  0  0  0  0  0  0  0  0  0  0  0
  -26.2300  -20.3264   24.0760 C   0  0  0  0  0  0  0  0  0  0  0  0
  -28.6500  -20.4948   23.3783 C   0  0  0  0  0  0  0  0  0  0  0  0
  -24.8353  -17.4747   21.1191 C   0  0  0  0  0  0  0  0  0  0  0  0
  -25.8979  -19.7156   22.7117 C   0  0  0  0  0  0  0  0  0  0  0  0
  -28.2649  -19.9087   22.0231 C   0  0  0  0  0  0  0  0  0  0  0  0
  -26.0475  -15.4821   21.9434 C   0  0  0  0  0  0  0  0  0  0  0  0
  -24.6755  -34.5604   23.3416 C   0  0  1  0  0  0  0  0  0  0  0  0
  -25.6186  -30.9219   23.8810 C   0  0  1  0  0  0  0  0  0  0  0  0
  -25.9073  -14.7864   20.5806 C   0  0  1  0  0  0  0  0  0  0  0  0
  -27.4630  -21.2312   24.0063 C   0  0  0  0  0  0  0  0  0  0  0  0
  -24.3978  -25.6072   18.1548 C   0  0  0  0  0  0  0  0  0  0  0  0
  -21.6756  -29.1607   23.0368 C   0  0  0  0  0  0  0  0  0  0  0  0
  -21.4581  -27.3454   21.3264 C   0  0  0  0  0  0  0  0  0  0  0  0
  -21.9195  -29.6881   20.6044 C   0  0  0  0  0  0  0  0  0  0  0  0
  -28.1615  -20.7123   26.3105 C   0  0  0  0  0  0  0  0  0  0  0  0
  -27.8122  -26.3306   19.6695 C   0  0  0  0  0  0  0  0  0  0  0  0
  -28.1709  -23.4908   27.0460 C   0  0  0  0  0  0  0  0  0  0  0  0
  -28.1319  -24.9945   27.2879 C   0  0  0  0  0  0  0  0  0  1  0  0
  -23.7498  -28.3541   21.7279 C   0  0  1  0  0  0  0  0  0  0  0  0
  -25.4251  -26.4091   18.9387 C   0  0  2  0  0  0  0  0  0  0  0  0
  -22.2212  -28.6359   21.6937 C   0  0  0  0  0  0  0  0  0  0  0  0
  -24.7578  -12.6208   20.8458 N   0  0  0  0  0  0  0  0  0  0  0  0
  -25.9242  -13.2750   20.7129 N   0  0  0  0  0  0  0  0  0  0  0  0
  -24.7857  -29.7786   23.4713 N   0  0  0  0  0  0  0  0  0  0  0  0
  -26.0274  -16.9383   21.7904 N   0  0  0  0  0  0  0  0  0  0  0  0
  -27.0791  -19.0591   22.1341 N   0  0  0  0  0  0  0  0  0  0  0  0
  -28.2675  -12.9522   20.5895 N   0  0  0  0  0  0  0  0  0  0  0  0
  -26.6615   -8.7579   21.0638 N   0  0  0  0  0  0  0  0  0  0  0  0
  -25.3581  -33.2903   23.4662 N   0  0  0  0  0  0  0  0  0  0  0  0
  -24.2989  -27.8818   20.4615 N   0  0  0  0  0  0  0  0  0  0  0  0
  -27.8028  -21.7300   25.3161 N   0  0  0  0  0  0  0  0  0  0  0  0
  -26.7058  -25.6472   18.9513 N   0  3  0  0  0  0  0  0  0  0  0  0
  -28.5728  -10.0065   20.8469 O   0  0  0  0  0  0  0  0  0  0  0  0
  -23.5208  -31.9871   24.0564 O   0  0  0  0  0  0  0  0  0  0  0  0
  -24.9537  -30.3305   21.2178 O   0  0  0  0  0  0  0  0  0  0  0  0
  -27.4915  -23.9687   24.7939 O   0  0  0  0  0  0  0  0  0  0  0  0
  -25.1451  -25.8842   21.2804 O   0  0  0  0  0  0  0  0  0  0  0  0
  -28.3130  -17.1144   22.0313 O   0  0  0  0  0  0  0  0  0  0  0  0
  -21.3006   -7.3178   21.5347 O   0  0  0  0  0  0  0  0  0  0  0  0
  -26.8086  -25.4729   27.0841 O   0  0  0  0  0  0  0  0  0  1  0  0
  -22.2639   -3.3999   25.2933 F   0  0  0  0  0  0  0  0  0  0  0  0
  -23.5372   -5.7024   21.3584 F   0  0  0  0  0  0  0  0  0  0  0  0
  1  2  1  0  0  0  0
  1  5  2  0  0  0  0
  2  6  2  0  0  0  0
  3  8  2  0  0  0  0
  3 15  1  0  0  0  0
  4  9  1  0  0  0  0
  4 15  2  0  0  0  0
  5 17  1  0  0  0  0
  6 19  1  0  0  0  0
  7 10  2  0  0  0  0
  7 18  1  0  0  0  0
  8 21  1  0  0  0  0
  9 21  2  0  0  0  0
 10 22  1  0  0  0  0
 11 12  2  0  0  0  0
 11 23  1  0  0  0  0
 12 24  1  0  0  0  0
 13 20  1  0  0  0  0
 13 22  2  0  0  0  0
 14 24  2  0  0  0  0
 14 25  1  0  0  0  0
 15 26  1  0  0  0  0
 16 26  1  0  0  0  0
 16 27  2  0  0  0  0
 16 28  1  0  0  0  0
 17 19  2  0  0  0  0
 17 34  1  0  0  0  0
 18 20  2  0  0  0  0
 18 35  1  0  0  0  0
 19 47  1  0  0  0  0
 20 36  1  0  0  0  0
 21 79  1  0  0  0  0
 22 80  1  0  0  0  0
 23 25  2  0  0  0  0
 23 79  1  0  0  0  0
 24 81  1  0  0  0  0
 25 82  1  0  0  0  0
 26 62  2  0  0  0  0
 27 63  1  0  0  0  0
 27 67  1  0  0  0  0
 28 68  1  0  0  0  0
 28 73  2  0  0  0  0
 29 48  1  0  0  0  0
 29 69  1  0  0  0  0
 29 74  2  0  0  0  0
 30 59  1  0  0  0  0
 30 64  1  0  0  0  0
 30 75  2  0  0  0  0
 31 57  1  0  0  0  0
 31 71  1  0  0  0  0
 31 76  2  0  0  0  0
 32 60  1  0  0  0  0
 32 70  1  0  0  0  0
 32 77  2  0  0  0  0
 33 65  1  0  0  0  0
 33 66  1  0  0  0  0
 33 78  2  0  0  0  0
 34 37  1  0  0  0  0
 35 48  1  0  0  0  0
 36 64  1  0  0  0  0
 37 39  1  0  0  0  0
 38 40  1  0  0  0  0
 38 43  1  0  0  0  0
 39 47  1  0  0  0  0
 40 49  1  0  0  0  0
 41 44  1  0  0  0  0
 41 50  1  0  0  0  0
 42 45  1  0  0  0  0
 42 50  1  0  0  0  0
 43 65  1  0  0  0  0
 44 66  1  0  0  0  0
 45 66  1  0  0  0  0
 46 49  1  0  0  0  0
 46 65  1  0  0  0  0
 47 69  1  0  0  0  0
 48 64  1  0  0  0  0
 49 63  1  0  0  0  0
 50 71  1  0  0  0  0
 51 60  1  0  0  0  0
 52 61  1  0  0  0  0
 53 61  1  0  0  0  0
 54 61  1  0  0  0  0
 55 71  1  0  0  0  0
 56 72  1  0  0  0  0
 57 58  1  0  0  0  0
 58 80  1  0  0  0  0
 59 61  1  0  0  0  0
 59 70  1  0  0  0  0
 60 72  1  0  0  0  0
 62 63  1  0  0  0  0
M  CHG  1  72   1
M  ISO  4  33 100  58 101  66 100  80 101
M  END
> <Batch ID>
0012

> <Smiles>
CNC(C)C(=O)NC(C(=O)N1Cc2cc([101O:1][101CH2:1]CC(=O)N(C)C3CC[100N:0]([100C:0](=O)N4CCCC(n5nc(-c6ccc(Oc7ccc(F)cc7F)cc6)c(C(N)=O)c5N)C4)CC3)ccc2CC1C(=O)NC1CCCc2ccccc21)C(C)(C)C

> <Shape>
0.267

> <Color>
0.092

> <Negative vol penalty>
0.000

$$$$

  -OEChem-04052315473D

 83 91  0     1  0  0  0  0  0999 V2000
  -23.5996  -35.4610   20.6203 C   0  0  0  0  0  0  0  0  0  0  0  0
  -24.4415  -34.7505   19.7707 C   0  0  0  0  0  0  0  0  0  0  0  0
  -24.7345  -10.4973   22.7816 C   0  0  0  0  0  0  0  0  0  0  0  0
  -24.2306  -11.9577   24.6391 C   0  0  0  0  0  0  0  0  0  0  0  0
  -23.5159  -35.1130   21.9679 C   0  0  0  0  0  0  0  0  0  0  0  0
  -25.2010  -33.6923   20.2684 C   0  0  0  0  0  0  0  0  0  0  0  0
  -27.8693  -27.3356   18.3218 C   0  0  0  0  0  0  0  0  0  0  0  0
  -24.2852   -9.4027   23.5203 C   0  0  0  0  0  0  0  0  0  0  0  0
  -23.7812  -10.8632   25.3778 C   0  0  0  0  0  0  0  0  0  0  0  0
  -29.0747  -26.6354   18.2970 C   0  0  0  0  0  0  0  0  0  0  0  0
  -21.3189   -8.0265   24.3803 C   0  0  0  0  0  0  0  0  0  0  0  0
  -20.4841   -7.1108   23.7398 C   0  0  0  0  0  0  0  0  0  0  0  0
  -28.7892  -26.0733   20.6254 C   0  0  0  0  0  0  0  0  0  0  0  0
  -29.1561  -20.5223   20.2300 C   0  0  0  0  0  0  0  0  0  0  0  0
  -26.6850  -21.8133   20.1307 C   0  0  0  0  0  0  0  0  0  0  0  0
  -22.0963   -5.3576   24.1449 C   0  0  0  0  0  0  0  0  0  0  0  0
  -24.7073  -11.7748   23.3410 C   0  0  0  0  0  0  0  0  0  0  0  0
  -24.4098  -13.7272   21.7263 C   0  0  0  0  0  0  0  0  0  0  0  0
  -24.2674  -34.0438   22.4803 C   0  0  0  0  0  0  0  0  0  0  0  0
  -27.1190  -27.4192   19.5035 C   0  0  0  0  0  0  0  0  0  0  0  0
  -25.1282  -33.3305   21.6243 C   0  0  0  0  0  0  0  0  0  0  0  0
  -27.5734  -26.7730   20.6620 C   0  0  0  0  0  0  0  0  0  0  0  0
  -28.1030  -20.0750   21.0278 C   0  0  0  0  0  0  0  0  0  0  0  0
  -27.7381  -22.2607   19.3329 C   0  0  0  0  0  0  0  0  0  0  0  0
  -23.8086   -9.5856   24.8184 C   0  0  0  0  0  0  0  0  0  0  0  0
  -29.5362  -26.0065   19.4496 C   0  0  0  0  0  0  0  0  0  0  0  0
  -22.5425   -7.6077   24.9031 C   0  0  0  0  0  0  0  0  0  0  0  0
  -28.9737  -21.6152   19.3826 C   0  0  0  0  0  0  0  0  0  0  0  0
  -20.8728   -5.7764   23.6221 C   0  0  0  0  0  0  0  0  0  0  0  0
  -22.9312   -6.2733   24.7854 C   0  0  0  0  0  0  0  0  0  0  0  0
  -26.8675  -20.7205   20.9782 C   0  0  0  0  0  0  0  0  0  0  0  0
  -25.1718  -12.9058   22.5787 C   0  0  0  0  0  0  0  0  0  0  0  0
  -25.3072  -14.6494   21.2458 C   0  0  0  0  0  0  0  0  0  0  0  0
  -23.0156  -13.6625   21.3983 C   0  0  0  0  0  0  0  0  0  0  0  0
  -26.1649  -29.7916   21.3917 C   0  0  0  0  0  0  0  0  0  0  0  0
  -24.5339  -27.4221   22.8911 C   0  0  0  0  0  0  0  0  0  0  0  0
  -24.2472  -24.0933   23.5867 C   0  0  0  0  0  0  0  0  0  0  0  0
  -29.4996  -18.2300   22.0238 C   0  0  0  0  0  0  0  0  0  0  0  0
  -24.1793  -33.7350   23.9539 C   0  0  0  0  0  0  0  0  0  0  0  0
  -25.8076  -28.1558   19.5069 C   0  0  0  0  0  0  0  0  0  0  0  0
  -26.7952  -26.8156   21.9508 C   0  0  0  0  0  0  0  0  0  0  0  0
  -24.7346  -32.3617   24.3227 C   0  0  0  0  0  0  0  0  0  0  0  0
  -30.3568  -14.8055   21.5599 C   0  0  0  0  0  0  0  0  0  0  0  0
  -26.0838  -32.1328   23.6487 C   0  0  0  0  0  0  0  0  0  0  0  0
  -29.0216  -14.0736   21.7135 C   0  0  0  0  0  0  0  0  0  0  0  0
  -30.4653  -15.9935   22.5142 C   0  0  0  0  0  0  0  0  0  0  0  0
  -28.0132  -16.2128   22.6044 C   0  0  0  0  0  0  0  0  0  0  0  0
  -25.9493  -32.1605   22.1214 C   0  0  1  0  0  0  0  0  0  0  0  0
  -25.3801  -28.6085   20.8996 C   0  0  1  0  0  0  0  0  0  0  0  0
  -27.8308  -15.0475   21.6183 C   0  0  2  0  0  0  0  0  0  0  0  0
  -23.2341  -21.9817   24.4879 C   0  0  0  0  0  0  0  0  0  0  0  0
  -25.8570  -28.3253   25.4879 C   0  0  0  0  0  0  0  0  0  0  0  0
  -25.1821  -26.1416   26.5097 C   0  0  0  0  0  0  0  0  0  0  0  0
  -23.4373  -27.7308   25.7018 C   0  0  0  0  0  0  0  0  0  0  0  0
  -22.6802  -23.6528   21.1149 C   0  0  0  0  0  0  0  0  0  0  0  0
  -31.9396  -23.4873   18.4552 C   0  0  0  0  0  0  0  0  0  0  0  0
  -31.0924  -24.7221   18.1909 C   0  0  0  0  0  0  0  0  0  1  0  0
  -31.1965  -22.4555   19.2893 C   0  0  0  0  0  0  0  0  0  0  0  0
  -24.8353  -26.4644   24.0184 C   0  0  1  0  0  0  0  0  0  0  0  0
  -23.0576  -23.1518   23.5326 C   0  0  2  0  0  0  0  0  0  0  0  0
  -24.8438  -27.1661   25.4059 C   0  0  0  0  0  0  0  0  0  0  0  0
  -26.4544  -13.2736   22.6381 N   0  0  0  0  0  0  0  0  0  0  0  0
  -26.5054  -14.3362   21.8170 N   0  0  0  0  0  0  0  0  0  0  0  0
  -25.5222  -27.5536   21.9052 N   0  0  0  0  0  0  0  0  0  0  0  0
  -29.3052  -16.8748   22.3649 N   0  0  0  0  0  0  0  0  0  0  0  0
  -27.5402  -23.3684   18.4801 N   0  0  0  0  0  0  0  0  0  0  0  0
  -25.1802  -15.6894   20.3945 N   0  0  0  0  0  0  0  0  0  0  0  0
  -22.2384  -12.6521   21.9809 N   0  0  0  0  0  0  0  0  0  0  0  0
  -28.3220  -18.9624   21.8775 N   0  0  0  0  0  0  0  0  0  0  0  0
  -25.3963  -30.9127   21.6401 N   0  0  0  0  0  0  0  0  0  0  0  0
  -23.8661  -25.3801   23.9031 N   0  0  0  0  0  0  0  0  0  0  0  0
  -22.8867  -22.6116   22.1542 N   0  3  0  0  0  0  0  0  0  0  0  0
  -22.4785  -14.4665   20.5992 O   0  0  0  0  0  0  0  0  0  0  0  0
  -27.3778  -29.6939   21.5369 O   0  0  0  0  0  0  0  0  0  0  0  0
  -23.4582  -28.0257   22.8816 O   0  0  0  0  0  0  0  0  0  0  0  0
  -25.3997  -23.7234   23.3734 O   0  0  0  0  0  0  0  0  0  0  0  0
  -30.6266  -18.6992   21.8459 O   0  0  0  0  0  0  0  0  0  0  0  0
  -23.3698   -8.5178   25.5394 O   0  0  0  0  0  0  0  0  0  0  0  0
  -30.7127  -25.3230   19.4283 O   0  0  0  0  0  0  0  0  0  1  0  0
  -30.0211  -22.0397   18.6071 O   0  0  0  0  0  0  0  0  0  0  0  0
  -20.0703   -4.8969   23.0084 F   0  0  0  0  0  0  0  0  0  0  0  0
  -24.1049   -5.8649   25.2866 F   0  0  0  0  0  0  0  0  0  0  0  0
  -25.5369  -20.1994   21.9494 Cl  0  0  0  0  0  0  0  0  0  0  0  0
  1  2  1  0  0  0  0
  1  5  2  0  0  0  0
  2  6  2  0  0  0  0
  3  8  2  0  0  0  0
  3 17  1  0  0  0  0
  4  9  1  0  0  0  0
  4 17  2  0  0  0  0
  5 19  1  0  0  0  0
  6 21  1  0  0  0  0
  7 10  2  0  0  0  0
  7 20  1  0  0  0  0
  8 25  1  0  0  0  0
  9 25  2  0  0  0  0
 10 26  1  0  0  0  0
 11 12  2  0  0  0  0
 11 27  1  0  0  0  0
 12 29  1  0  0  0  0
 13 22  1  0  0  0  0
 13 26  2  0  0  0  0
 14 23  2  0  0  0  0
 14 28  1  0  0  0  0
 15 24  1  0  0  0  0
 15 31  2  0  0  0  0
 16 29  2  0  0  0  0
 16 30  1  0  0  0  0
 17 32  1  0  0  0  0
 18 32  1  0  0  0  0
 18 33  2  0  0  0  0
 18 34  1  0  0  0  0
 19 21  2  0  0  0  0
 19 39  1  0  0  0  0
 20 22  2  0  0  0  0
 20 40  1  0  0  0  0
 21 48  1  0  0  0  0
 22 41  1  0  0  0  0
 23 31  1  0  0  0  0
 23 69  1  0  0  0  0
 24 28  2  0  0  0  0
 24 66  1  0  0  0  0
 25 78  1  0  0  0  0
 26 79  1  0  0  0  0
 27 30  2  0  0  0  0
 27 78  1  0  0  0  0
 28 80  1  0  0  0  0
 29 81  1  0  0  0  0
 30 82  1  0  0  0  0
 31 83  1  0  0  0  0
 32 62  2  0  0  0  0
 33 63  1  0  0  0  0
 33 67  1  0  0  0  0
 34 68  1  0  0  0  0
 34 73  2  0  0  0  0
 35 49  1  0  0  0  0
 35 70  1  0  0  0  0
 35 74  2  0  0  0  0
 36 59  1  0  0  0  0
 36 64  1  0  0  0  0
 36 75  2  0  0  0  0
 37 60  1  0  0  0  0
 37 71  1  0  0  0  0
 37 76  2  0  0  0  0
 38 65  1  0  0  0  0
 38 69  1  0  0  0  0
 38 77  2  0  0  0  0
 39 42  1  0  0  0  0
 40 49  1  0  0  0  0
 41 64  1  0  0  0  0
 42 44  1  0  0  0  0
 43 45  1  0  0  0  0
 43 46  1  0  0  0  0
 44 48  1  0  0  0  0
 45 50  1  0  0  0  0
 46 65  1  0  0  0  0
 47 50  1  0  0  0  0
 47 65  1  0  0  0  0
 48 70  1  0  0  0  0
 49 64  1  0  0  0  0
 50 63  1  0  0  0  0
 51 60  1  0  0  0  0
 52 61  1  0  0  0  0
 53 61  1  0  0  0  0
 54 61  1  0  0  0  0
 55 72  1  0  0  0  0
 56 57  1  0  0  0  0
 56 58  1  0  0  0  0
 57 79  1  0  0  0  0
 58 80  1  0  0  0  0
 59 61  1  0  0  0  0
 59 71  1  0  0  0  0
 60 72  1  0  0  0  0
 62 63  1  0  0  0  0
M  CHG  1  72   1
M  ISO  4  38 100  57 101  69 100  79 101
M  END
> <Batch ID>
0012

> <Smiles>
CNC(C)C(=O)NC(C(=O)N1Cc2cc([101O:1][101CH2:1]CCOc3cc([100NH:0][100C:0](=O)N4CCCC(n5nc(-c6ccc(Oc7ccc(F)cc7F)cc6)c(C(N)=O)c5N)C4)c(Cl)cc3N)ccc2CC1C(=O)NC1CCCc2ccccc21)C(C)(C)C

> <Shape>
0.232

> <Color>
0.109

> <Negative vol penalty>
0.000

$$$$

  -OEChem-04052315473D

 87 95  0     1  0  0  0  0  0999 V2000
  -26.7171  -34.3874   20.9270 C   0  0  0  0  0  0  0  0  0  0  0  0
  -26.7949  -33.0363   20.6048 C   0  0  0  0  0  0  0  0  0  0  0  0
  -26.4362  -12.5920   21.4591 C   0  0  0  0  0  0  0  0  0  0  0  0
  -26.0003  -14.3883   19.9034 C   0  0  0  0  0  0  0  0  0  0  0  0
  -25.9327  -34.8023   22.0025 C   0  0  0  0  0  0  0  0  0  0  0  0
  -26.0892  -32.0991   21.3585 C   0  0  0  0  0  0  0  0  0  0  0  0
  -23.7051  -28.6855   18.4761 C   0  0  0  0  0  0  0  0  0  0  0  0
  -25.0929  -12.2199   21.4059 C   0  0  0  0  0  0  0  0  0  0  0  0
  -24.6570  -14.0161   19.8501 C   0  0  0  0  0  0  0  0  0  0  0  0
  -24.4772  -27.6584   17.9352 C   0  0  0  0  0  0  0  0  0  0  0  0
  -22.1655  -13.2620   22.7357 C   0  0  0  0  0  0  0  0  0  0  0  0
  -21.5246  -12.9765   23.9413 C   0  0  0  0  0  0  0  0  0  0  0  0
  -23.7130  -26.1748   19.6771 C   0  0  0  0  0  0  0  0  0  0  0  0
  -30.4313  -22.2601   22.7648 C   0  0  0  0  0  0  0  0  0  0  0  0
  -29.5033  -23.8934   21.2456 C   0  0  0  0  0  0  0  0  0  0  0  0
  -29.7251  -21.5891   20.5539 C   0  0  0  0  0  0  0  0  0  0  0  0
  -21.0634  -10.7354   23.1653 C   0  0  0  0  0  0  0  0  0  0  0  0
  -26.8898  -13.6762   20.7079 C   0  0  0  0  0  0  0  0  0  0  0  0
  -29.3208  -13.6006   19.9382 C   0  0  0  0  0  0  0  0  0  0  0  0
  -25.2094  -33.8707   22.7638 C   0  0  0  0  0  0  0  0  0  0  0  0
  -22.9383  -28.4677   19.6298 C   0  0  0  0  0  0  0  0  0  0  0  0
  -25.2955  -32.5018   22.4460 C   0  0  0  0  0  0  0  0  0  0  0  0
  -22.9300  -27.2001   20.2291 C   0  0  0  0  0  0  0  0  0  0  0  0
  -30.0480  -23.5726   22.4889 C   0  0  0  0  0  0  0  0  0  0  0  0
  -30.2699  -21.2684   21.7972 C   0  0  0  0  0  0  0  0  0  0  0  0
  -29.3418  -22.9016   20.2780 C   0  0  0  0  0  0  0  0  0  0  0  0
  -24.2034  -12.9319   20.6013 C   0  0  0  0  0  0  0  0  0  0  0  0
  -24.4835  -26.4036   18.5373 C   0  0  0  0  0  0  0  0  0  0  0  0
  -22.2553  -12.2842   21.7449 C   0  0  0  0  0  0  0  0  0  0  0  0
  -20.9736  -11.7132   24.1561 C   0  0  0  0  0  0  0  0  0  0  0  0
  -21.7043  -11.0209   21.9598 C   0  0  0  0  0  0  0  0  0  0  0  0
  -28.2772  -14.0615   20.7630 C   0  0  0  0  0  0  0  0  0  0  0  0
  -30.4348  -14.2642   20.3909 C   0  0  0  0  0  0  0  0  0  0  0  0
  -29.2862  -12.6571   18.8592 C   0  0  0  0  0  0  0  0  0  0  0  0
  -22.9103  -29.6824   22.5670 C   0  0  0  0  0  0  0  0  0  0  0  0
  -20.2494  -27.8534   22.8779 C   0  0  0  0  0  0  0  0  0  0  0  0
  -30.7320  -24.4336   24.7506 C   0  0  0  0  0  0  0  0  0  0  0  0
  -27.8408  -24.2846   18.8460 C   0  0  0  0  0  0  0  0  0  0  0  0
  -18.4595  -25.1417   21.8340 C   0  0  0  0  0  0  0  0  0  0  0  0
  -31.2141  -19.4475   23.2599 C   0  0  0  0  0  0  0  0  0  0  0  0
  -24.4126  -34.3619   23.9464 C   0  0  0  0  0  0  0  0  0  0  0  0
  -22.0899  -29.5785   20.1854 C   0  0  0  0  0  0  0  0  0  0  0  0
  -22.1083  -26.9090   21.4574 C   0  0  0  0  0  0  0  0  0  0  0  0
  -23.3990  -33.3441   24.4630 C   0  0  0  0  0  0  0  0  0  0  0  0
  -32.2711  -16.2283   24.3538 C   0  0  0  0  0  0  0  0  0  0  0  0
  -24.0420  -31.9665   24.5879 C   0  0  0  0  0  0  0  0  0  0  0  0
  -31.4663  -15.2654   23.4778 C   0  0  0  0  0  0  0  0  0  0  0  0
  -31.4567  -17.4631   24.7357 C   0  0  0  0  0  0  0  0  0  0  0  0
  -30.0461  -17.2179   22.7309 C   0  0  0  0  0  0  0  0  0  0  0  0
  -24.5251  -31.4575   23.2245 C   0  0  1  0  0  0  0  0  0  0  0  0
  -21.7486  -29.3893   21.6602 C   0  0  1  0  0  0  0  0  0  0  0  0
  -30.8461  -15.9897   22.2669 C   0  0  2  0  0  0  0  0  0  0  0  0
  -30.7359  -25.7494   25.4875 C   0  0  0  0  0  0  0  0  0  0  0  0
  -16.3419  -23.8796   22.3034 C   0  0  0  0  0  0  0  0  0  0  0  0
  -21.5305  -26.6332   25.3639 C   0  0  0  0  0  0  0  0  0  0  0  0
  -19.8579  -24.7752   25.2287 C   0  0  0  0  0  0  0  0  0  0  0  0
  -19.0874  -27.1213   25.5820 C   0  0  0  0  0  0  0  0  0  0  0  0
  -29.3055  -22.4965   17.8286 C   0  0  0  0  0  0  0  0  0  0  0  0
  -17.4199  -25.6425   19.1086 C   0  0  0  0  0  0  0  0  0  0  0  0
  -27.4428  -24.6352   17.4120 C   0  0  0  0  0  0  0  0  0  0  0  0
  -26.4327  -25.7737   17.3291 C   0  0  0  0  0  0  0  0  0  1  0  0
  -19.9719  -26.4353   23.3150 C   0  0  1  0  0  0  0  0  0  0  0  0
  -16.9927  -24.9791   21.4785 C   0  0  2  0  0  0  0  0  0  0  0  0
  -20.1290  -26.2470   24.8504 C   0  0  0  0  0  0  0  0  0  0  0  0
  -28.6913  -14.9491   21.6710 N   0  0  0  0  0  0  0  0  0  0  0  0
  -30.0075  -15.0513   21.4195 N   0  0  0  0  0  0  0  0  0  0  0  0
  -21.3003  -28.0294   21.9666 N   0  0  0  0  0  0  0  0  0  0  0  0
  -30.9039  -18.0995   23.5381 N   0  0  0  0  0  0  0  0  0  0  0  0
  -31.7285  -14.2453   20.0056 N   0  0  0  0  0  0  0  0  0  0  0  0
  -28.0587  -12.0688   18.5250 N   0  0  0  0  0  0  0  0  0  0  0  0
  -30.2091  -24.5642   23.4572 N   0  0  0  0  0  0  0  0  0  0  0  0
  -30.6584  -19.9348   22.0774 N   0  0  0  0  0  0  0  0  0  0  0  0
  -23.4098  -30.9650   22.4447 N   0  0  0  0  0  0  0  0  0  0  0  0
  -18.6462  -26.1029   22.8048 N   0  0  0  0  0  0  0  0  0  0  0  0
  -28.7761  -23.2347   18.9860 N   0  0  0  0  0  0  0  0  0  0  0  0
  -16.8443  -24.6348   20.0361 N   0  3  0  0  0  0  0  0  0  0  0  0
  -30.3164  -12.3325   18.2212 O   0  0  0  0  0  0  0  0  0  0  0  0
  -23.3219  -28.8100   23.3228 O   0  0  0  0  0  0  0  0  0  0  0  0
  -19.5545  -28.7703   23.3229 O   0  0  0  0  0  0  0  0  0  0  0  0
  -31.1556  -23.4135   25.2843 O   0  0  0  0  0  0  0  0  0  0  0  0
  -27.3666  -24.9342   19.7813 O   0  0  0  0  0  0  0  0  0  0  0  0
  -19.3502  -24.4794   21.3062 O   0  0  0  0  0  0  0  0  0  0  0  0
  -31.9429  -20.1120   24.0010 O   0  0  0  0  0  0  0  0  0  0  0  0
  -22.8926  -12.5689   20.5489 O   0  0  0  0  0  0  0  0  0  0  0  0
  -25.2368  -25.3995   18.0118 O   0  0  0  0  0  0  0  0  0  1  0  0
  -20.3595  -11.4387   25.3144 F   0  0  0  0  0  0  0  0  0  0  0  0
  -21.7885  -10.0771   21.0121 F   0  0  0  0  0  0  0  0  0  0  0  0
  1  2  1  0  0  0  0
  1  5  2  0  0  0  0
  2  6  2  0  0  0  0
  3  8  2  0  0  0  0
  3 18  1  0  0  0  0
  4  9  1  0  0  0  0
  4 18  2  0  0  0  0
  5 20  1  0  0  0  0
  6 22  1  0  0  0  0
  7 10  2  0  0  0  0
  7 21  1  0  0  0  0
  8 27  1  0  0  0  0
  9 27  2  0  0  0  0
 10 28  1  0  0  0  0
 11 12  2  0  0  0  0
 11 29  1  0  0  0  0
 12 30  1  0  0  0  0
 13 23  1  0  0  0  0
 13 28  2  0  0  0  0
 14 24  1  0  0  0  0
 14 25  2  0  0  0  0
 15 24  2  0  0  0  0
 15 26  1  0  0  0  0
 16 25  1  0  0  0  0
 16 26  2  0  0  0  0
 17 30  2  0  0  0  0
 17 31  1  0  0  0  0
 18 32  1  0  0  0  0
 19 32  1  0  0  0  0
 19 33  2  0  0  0  0
 19 34  1  0  0  0  0
 20 22  2  0  0  0  0
 20 41  1  0  0  0  0
 21 23  2  0  0  0  0
 21 42  1  0  0  0  0
 22 50  1  0  0  0  0
 23 43  1  0  0  0  0
 24 71  1  0  0  0  0
 25 72  1  0  0  0  0
 26 75  1  0  0  0  0
 27 84  1  0  0  0  0
 28 85  1  0  0  0  0
 29 31  2  0  0  0  0
 29 84  1  0  0  0  0
 30 86  1  0  0  0  0
 31 87  1  0  0  0  0
 32 65  2  0  0  0  0
 33 66  1  0  0  0  0
 33 69  1  0  0  0  0
 34 70  1  0  0  0  0
 34 77  2  0  0  0  0
 35 51  1  0  0  0  0
 35 73  1  0  0  0  0
 35 78  2  0  0  0  0
 36 62  1  0  0  0  0
 36 67  1  0  0  0  0
 36 79  2  0  0  0  0
 37 53  1  0  0  0  0
 37 71  1  0  0  0  0
 37 80  2  0  0  0  0
 38 60  1  0  0  0  0
 38 75  1  0  0  0  0
 38 81  2  0  0  0  0
 39 63  1  0  0  0  0
 39 74  1  0  0  0  0
 39 82  2  0  0  0  0
 40 68  1  0  0  0  0
 40 72  1  0  0  0  0
 40 83  2  0  0  0  0
 41 44  1  0  0  0  0
 42 51  1  0  0  0  0
 43 67  1  0  0  0  0
 44 46  1  0  0  0  0
 45 47  1  0  0  0  0
 45 48  1  0  0  0  0
 46 50  1  0  0  0  0
 47 52  1  0  0  0  0
 48 68  1  0  0  0  0
 49 52  1  0  0  0  0
 49 68  1  0  0  0  0
 50 73  1  0  0  0  0
 51 67  1  0  0  0  0
 52 66  1  0  0  0  0
 54 63  1  0  0  0  0
 55 64  1  0  0  0  0
 56 64  1  0  0  0  0
 57 64  1  0  0  0  0
 58 75  1  0  0  0  0
 59 76  1  0  0  0  0
 60 61  1  0  0  0  0
 61 85  1  0  0  0  0
 62 64  1  0  0  0  0
 62 74  1  0  0  0  0
 63 76  1  0  0  0  0
 65 66  1  0  0  0  0
M  CHG  1  76   1
M  ISO  4  40 100  61 101  72 100  85 101
M  END
> <Batch ID>
0012

> <Smiles>
CNC(C)C(=O)NC(C(=O)N1Cc2cc([101O:1][101CH2:1]CC(=O)N(C)c3cc(NC(C)=O)cc([100NH:0][100C:0](=O)N4CCCC(n5nc(-c6ccc(Oc7ccc(F)cc7F)cc6)c(C(N)=O)c5N)C4)c3)ccc2CC1C(=O)NC1CCCc2ccccc21)C(C)(C)C

> <Shape>
0.279

> <Color>
0.045

> <Negative vol penalty>
0.000

$$$$

  -OEChem-04052315473D

 82 90  0     1  0  0  0  0  0999 V2000
  -29.3834  -32.5791   21.9587 C   0  0  0  0  0  0  0  0  0  0  0  0
  -29.3043  -31.2836   22.4594 C   0  0  0  0  0  0  0  0  0  0  0  0
  -23.1487   -9.7852   19.9410 C   0  0  0  0  0  0  0  0  0  0  0  0
  -23.7666   -9.9366   22.2717 C   0  0  0  0  0  0  0  0  0  0  0  0
  -28.2190  -33.3180   21.7528 C   0  0  0  0  0  0  0  0  0  0  0  0
  -28.0608  -30.7265   22.7555 C   0  0  0  0  0  0  0  0  0  0  0  0
  -27.6128  -25.9705   21.0749 C   0  0  0  0  0  0  0  0  0  0  0  0
  -32.0460  -18.7090   22.6810 C   0  0  0  0  0  0  0  0  0  0  0  0
  -31.6023  -17.4537   22.2652 C   0  0  0  0  0  0  0  0  0  0  0  0
  -22.4353   -8.6162   20.2060 C   0  0  0  0  0  0  0  0  0  0  0  0
  -23.0532   -8.7676   22.5368 C   0  0  0  0  0  0  0  0  0  0  0  0
  -28.2312  -24.9698   21.8232 C   0  0  0  0  0  0  0  0  0  0  0  0
  -23.5036   -5.4369   22.1702 C   0  0  0  0  0  0  0  0  0  0  0  0
  -24.1127   -4.4744   22.9752 C   0  0  0  0  0  0  0  0  0  0  0  0
  -26.1096  -24.4210   22.8315 C   0  0  0  0  0  0  0  0  0  0  0  0
  -22.3051   -4.6621   24.5672 C   0  0  0  0  0  0  0  0  0  0  0  0
  -23.8144  -10.4453   20.9739 C   0  0  0  0  0  0  0  0  0  0  0  0
  -24.0667  -12.9734   20.7437 C   0  0  0  0  0  0  0  0  0  0  0  0
  -26.9600  -32.7661   22.0375 C   0  0  0  0  0  0  0  0  0  0  0  0
  -26.2378  -26.2115   21.2075 C   0  0  0  0  0  0  0  0  0  0  0  0
  -26.8786  -31.4591   22.5545 C   0  0  0  0  0  0  0  0  0  0  0  0
  -25.4757  -25.4236   22.0818 C   0  0  0  0  0  0  0  0  0  0  0  0
  -31.1363  -19.7556   22.8320 C   0  0  0  0  0  0  0  0  0  0  0  0
  -29.3390  -18.2915   22.1514 C   0  0  0  0  0  0  0  0  0  0  0  0
  -30.2488  -17.2450   22.0004 C   0  0  0  0  0  0  0  0  0  0  0  0
  -29.7828  -19.5468   22.5672 C   0  0  0  0  0  0  0  0  0  0  0  0
  -22.3875   -8.1074   21.5039 C   0  0  0  0  0  0  0  0  0  0  0  0
  -27.4802  -24.1968   22.7038 C   0  0  0  0  0  0  0  0  0  0  0  0
  -22.2952   -6.0121   22.5636 C   0  0  0  0  0  0  0  0  0  0  0  0
  -23.5134   -4.0870   24.1738 C   0  0  0  0  0  0  0  0  0  0  0  0
  -21.6960   -5.6246   23.7622 C   0  0  0  0  0  0  0  0  0  0  0  0
  -24.5519  -11.6526   20.7006 C   0  0  0  0  0  0  0  0  0  0  0  0
  -25.1496  -13.7482   20.4071 C   0  0  0  0  0  0  0  0  0  0  0  0
  -22.7543  -13.4567   21.0597 C   0  0  0  0  0  0  0  0  0  0  0  0
  -24.4744  -28.6826   22.1499 C   0  0  0  0  0  0  0  0  0  0  0  0
  -22.0165  -26.7933   21.1950 C   0  0  0  0  0  0  0  0  0  0  0  0
  -20.8530  -23.6452   20.5766 C   0  0  0  0  0  0  0  0  0  0  0  0
  -30.5513  -15.0246   20.8494 C   0  0  0  0  0  0  0  0  0  0  0  0
  -25.7323  -33.6203   21.8431 C   0  0  0  0  0  0  0  0  0  0  0  0
  -25.5808  -27.2769   20.3734 C   0  0  0  0  0  0  0  0  0  0  0  0
  -23.9926  -25.6289   22.2459 C   0  0  0  0  0  0  0  0  0  0  0  0
  -24.4311  -32.8223   21.8291 C   0  0  0  0  0  0  0  0  0  0  0  0
  -29.6759  -12.4531   18.5476 C   0  0  0  0  0  0  0  0  0  0  0  0
  -24.4034  -31.8261   22.9839 C   0  0  0  0  0  0  0  0  0  0  0  0
  -28.2248  -12.1243   18.9061 C   0  0  0  0  0  0  0  0  0  0  0  0
  -30.5067  -12.7783   19.7877 C   0  0  0  0  0  0  0  0  0  0  0  0
  -28.4929  -13.4912   21.0148 C   0  0  0  0  0  0  0  0  0  0  0  0
  -25.5466  -30.8111   22.8645 C   0  0  1  0  0  0  0  0  0  0  0  0
  -24.2682  -27.7771   20.9686 C   0  0  1  0  0  0  0  0  0  0  0  0
  -27.6010  -13.2203   19.7922 C   0  0  2  0  0  0  0  0  0  0  0  0
  -31.6418  -21.0890   23.2789 C   0  0  0  0  0  0  0  0  0  0  0  0
  -27.8861  -18.0658   21.8668 C   0  0  0  0  0  0  0  0  0  0  0  0
  -18.7920  -22.4154   19.8435 C   0  0  0  0  0  0  0  0  0  0  0  0
  -20.7907  -27.2052   23.9586 C   0  0  0  0  0  0  0  0  0  0  0  0
  -19.2910  -25.2517   23.5080 C   0  0  0  0  0  0  0  0  0  0  0  0
  -19.1542  -27.2849   22.0691 C   0  0  0  0  0  0  0  0  0  0  0  0
  -22.2164  -22.5466   18.1906 C   0  0  0  0  0  0  0  0  0  0  0  0
  -28.1846  -20.8717   23.9514 C   0  0  0  0  0  0  0  0  0  0  0  0
  -27.2872  -22.0863   23.7828 C   0  0  0  0  0  0  0  0  0  1  0  0
  -21.1511  -25.7487   21.8575 C   0  0  1  0  0  0  0  0  0  0  0  0
  -20.0922  -23.0660   19.3975 C   0  0  2  0  0  0  0  0  0  0  0  0
  -20.1250  -26.3698   22.8469 C   0  0  0  0  0  0  0  0  0  0  0  0
  -25.8426  -11.5882   20.3631 N   0  0  0  0  0  0  0  0  0  0  0  0
  -26.1776  -12.8783   20.1910 N   0  0  0  0  0  0  0  0  0  0  0  0
  -23.3974  -26.6870   21.4131 N   0  0  0  0  0  0  0  0  0  0  0  0
  -29.8565  -13.8274   20.5761 N   0  0  0  0  0  0  0  0  0  0  0  0
  -25.3133  -15.0820   20.2779 N   0  0  0  0  0  0  0  0  0  0  0  0
  -21.7590  -12.5245   21.3834 N   0  0  0  0  0  0  0  0  0  0  0  0
  -29.8206  -15.9616   21.5793 N   0  0  0  0  0  0  0  0  0  0  0  0
  -28.8813  -20.5875   22.7178 N   0  0  0  0  0  0  0  0  0  0  0  0
  -25.2290  -29.8064   21.8724 N   0  0  0  0  0  0  0  0  0  0  0  0
  -20.5474  -24.9745   20.7783 N   0  0  0  0  0  0  0  0  0  0  0  0
  -20.9179  -22.0381   18.7027 N   0  3  0  0  0  0  0  0  0  0  0  0
  -22.4684  -14.6779   21.0393 O   0  0  0  0  0  0  0  0  0  0  0  0
  -23.9838  -28.3845   23.2325 O   0  0  0  0  0  0  0  0  0  0  0  0
  -21.4874  -27.6670   20.5034 O   0  0  0  0  0  0  0  0  0  0  0  0
  -21.6369  -22.9835   21.2534 O   0  0  0  0  0  0  0  0  0  0  0  0
  -31.6996  -15.2162   20.4410 O   0  0  0  0  0  0  0  0  0  0  0  0
  -21.6913   -6.9669   21.7629 O   0  0  0  0  0  0  0  0  0  0  0  0
  -28.0815  -23.2199   23.4359 O   0  0  0  0  0  0  0  0  0  1  0  0
  -24.0977   -3.1615   24.9460 F   0  0  0  0  0  0  0  0  0  0  0  0
  -20.5345   -6.1728   24.1448 F   0  0  0  0  0  0  0  0  0  0  0  0
  1  2  1  0  0  0  0
  1  5  2  0  0  0  0
  2  6  2  0  0  0  0
  3 10  2  0  0  0  0
  3 17  1  0  0  0  0
  4 11  1  0  0  0  0
  4 17  2  0  0  0  0
  5 19  1  0  0  0  0
  6 21  1  0  0  0  0
  7 12  2  0  0  0  0
  7 20  1  0  0  0  0
  8  9  1  0  0  0  0
  8 23  2  0  0  0  0
  9 25  2  0  0  0  0
 10 27  1  0  0  0  0
 11 27  2  0  0  0  0
 12 28  1  0  0  0  0
 13 14  2  0  0  0  0
 13 29  1  0  0  0  0
 14 30  1  0  0  0  0
 15 22  1  0  0  0  0
 15 28  2  0  0  0  0
 16 30  2  0  0  0  0
 16 31  1  0  0  0  0
 17 32  1  0  0  0  0
 18 32  1  0  0  0  0
 18 33  2  0  0  0  0
 18 34  1  0  0  0  0
 19 21  2  0  0  0  0
 19 39  1  0  0  0  0
 20 22  2  0  0  0  0
 20 40  1  0  0  0  0
 21 48  1  0  0  0  0
 22 41  1  0  0  0  0
 23 26  1  0  0  0  0
 23 51  1  0  0  0  0
 24 25  1  0  0  0  0
 24 26  2  0  0  0  0
 24 52  1  0  0  0  0
 25 69  1  0  0  0  0
 26 70  1  0  0  0  0
 27 79  1  0  0  0  0
 28 80  1  0  0  0  0
 29 31  2  0  0  0  0
 29 79  1  0  0  0  0
 30 81  1  0  0  0  0
 31 82  1  0  0  0  0
 32 63  2  0  0  0  0
 33 64  1  0  0  0  0
 33 67  1  0  0  0  0
 34 68  1  0  0  0  0
 34 74  2  0  0  0  0
 35 49  1  0  0  0  0
 35 71  1  0  0  0  0
 35 75  2  0  0  0  0
 36 60  1  0  0  0  0
 36 65  1  0  0  0  0
 36 76  2  0  0  0  0
 37 61  1  0  0  0  0
 37 72  1  0  0  0  0
 37 77  2  0  0  0  0
 38 66  1  0  0  0  0
 38 69  1  0  0  0  0
 38 78  2  0  0  0  0
 39 42  1  0  0  0  0
 40 49  1  0  0  0  0
 41 65  1  0  0  0  0
 42 44  1  0  0  0  0
 43 45  1  0  0  0  0
 43 46  1  0  0  0  0
 44 48  1  0  0  0  0
 45 50  1  0  0  0  0
 46 66  1  0  0  0  0
 47 50  1  0  0  0  0
 47 66  1  0  0  0  0
 48 71  1  0  0  0  0
 49 65  1  0  0  0  0
 50 64  1  0  0  0  0
 53 61  1  0  0  0  0
 54 62  1  0  0  0  0
 55 62  1  0  0  0  0
 56 62  1  0  0  0  0
 57 73  1  0  0  0  0
 58 59  1  0  0  0  0
 58 70  1  0  0  0  0
 59 80  1  0  0  0  0
 60 62  1  0  0  0  0
 60 72  1  0  0  0  0
 61 73  1  0  0  0  0
 63 64  1  0  0  0  0
M  CHG  1  73   1
M  ISO  4  38 100  59 101  69 100  80 101
M  END
> <Batch ID>
0012

> <Smiles>
CNC(C)C(=O)NC(C(=O)N1Cc2cc([101O:1][101CH2:1]CNc3c(C)ccc([100NH:0][100C:0](=O)N4CCCC(n5nc(-c6ccc(Oc7ccc(F)cc7F)cc6)c(C(N)=O)c5N)C4)c3C)ccc2CC1C(=O)NC1CCCc2ccccc21)C(C)(C)C

> <Shape>
0.282

> <Color>
0.208

> <Negative vol penalty>
0.000

$$$$

  -OEChem-04052315473D

 75 82  0     1  0  0  0  0  0999 V2000
  -21.6576  -26.0082   22.2550 C   0  0  0  0  0  0  0  0  0  0  0  0
  -22.5356  -24.9529   22.0299 C   0  0  0  0  0  0  0  0  0  0  0  0
  -23.8221  -10.0103   22.1423 C   0  0  0  0  0  0  0  0  0  0  0  0
  -24.3934  -11.4271   24.0141 C   0  0  0  0  0  0  0  0  0  0  0  0
  -22.0394  -27.3110   21.9374 C   0  0  0  0  0  0  0  0  0  0  0  0
  -23.7956  -25.1996   21.4859 C   0  0  0  0  0  0  0  0  0  0  0  0
  -27.4742  -22.6745   23.8810 C   0  0  0  0  0  0  0  0  0  0  0  0
  -23.3018   -9.0598   23.0206 C   0  0  0  0  0  0  0  0  0  0  0  0
  -23.8731  -10.4766   24.8924 C   0  0  0  0  0  0  0  0  0  0  0  0
  -27.6174  -21.3207   23.5801 C   0  0  0  0  0  0  0  0  0  0  0  0
  -24.8491   -7.5351   26.2437 C   0  0  0  0  0  0  0  0  0  0  0  0
  -25.5983   -7.2219   27.3778 C   0  0  0  0  0  0  0  0  0  0  0  0
  -29.4494  -21.8491   22.1024 C   0  0  0  0  0  0  0  0  0  0  0  0
  -23.7739   -7.9504   28.7842 C   0  0  0  0  0  0  0  0  0  0  0  0
  -24.3679  -11.1940   22.6391 C   0  0  0  0  0  0  0  0  0  0  0  0
  -24.2169  -13.2470   21.1323 C   0  0  0  0  0  0  0  0  0  0  0  0
  -23.3083  -27.5750   21.3982 C   0  0  0  0  0  0  0  0  0  0  0  0
  -28.3119  -23.6285   23.2855 C   0  0  0  0  0  0  0  0  0  0  0  0
  -24.1942  -26.5070   21.1594 C   0  0  0  0  0  0  0  0  0  0  0  0
  -29.3165  -23.2141   22.3994 C   0  0  0  0  0  0  0  0  0  0  0  0
  -23.3273   -9.2929   24.3956 C   0  0  0  0  0  0  0  0  0  0  0  0
  -28.6032  -20.9081   22.6885 C   0  0  0  0  0  0  0  0  0  0  0  0
  -23.5623   -8.0560   26.3798 C   0  0  0  0  0  0  0  0  0  0  0  0
  -25.0607   -7.4295   28.6481 C   0  0  0  0  0  0  0  0  0  0  0  0
  -23.0247   -8.2636   27.6500 C   0  0  0  0  0  0  0  0  0  0  0  0
  -24.9060  -12.1760   21.7323 C   0  0  0  0  0  0  0  0  0  0  0  0
  -25.1651  -13.8790   20.3656 C   0  0  0  0  0  0  0  0  0  0  0  0
  -22.8425  -13.6357   21.2570 C   0  0  0  0  0  0  0  0  0  0  0  0
  -27.8632  -26.1195   21.3628 C   0  0  0  0  0  0  0  0  0  0  0  0
  -31.0302  -26.5937   21.8798 C   0  0  0  0  0  0  0  0  0  0  0  0
  -34.0557  -25.2690   22.7393 C   0  0  0  0  0  0  0  0  0  0  0  0
  -31.1355  -14.1863   20.6987 C   0  0  0  0  0  0  0  0  0  0  0  0
  -23.6583  -28.9942   21.0268 C   0  0  0  0  0  0  0  0  0  0  0  0
  -28.1620  -25.0822   23.6411 C   0  0  0  0  0  0  0  0  0  0  0  0
  -30.2547  -24.1964   21.7488 C   0  0  0  0  0  0  0  0  0  0  0  0
  -25.1521  -29.2144   20.8024 C   0  0  0  0  0  0  0  0  0  0  0  0
  -29.2021  -13.0226   17.9448 C   0  0  0  0  0  0  0  0  0  0  0  0
  -25.7287  -28.1085   19.9240 C   0  0  0  0  0  0  0  0  0  0  0  0
  -27.8196  -12.7703   18.5491 C   0  0  0  0  0  0  0  0  0  0  0  0
  -30.3192  -12.6648   18.9225 C   0  0  0  0  0  0  0  0  0  0  0  0
  -28.8331  -13.0581   20.8488 C   0  0  0  0  0  0  0  0  0  0  0  0
  -25.5789  -26.7373   20.5939 C   0  0  1  0  0  0  0  0  0  0  0  0
  -28.7355  -26.0186   22.5820 C   0  0  1  0  0  0  0  0  0  0  0  0
  -27.6733  -13.4569   19.9203 C   0  0  2  0  0  0  0  0  0  0  0  0
  -36.4673  -25.8955   23.0376 C   0  0  0  0  0  0  0  0  0  0  0  0
  -31.3900  -26.6419   18.8502 C   0  0  0  0  0  0  0  0  0  0  0  0
  -33.8462  -26.3127   19.2065 C   0  0  0  0  0  0  0  0  0  0  0  0
  -32.7232  -28.3590   20.0866 C   0  0  0  0  0  0  0  0  0  0  0  0
  -34.0184  -24.5131   25.6005 C   0  0  0  0  0  0  0  0  0  0  0  0
  -31.6127  -17.1488   22.1275 C   0  0  0  0  0  0  0  0  0  0  0  0
  -30.2124  -17.6705   22.4514 C   0  0  0  0  0  0  0  0  0  0  0  0
  -31.8074  -15.6961   22.5503 C   0  0  0  0  0  0  0  0  0  0  0  0
  -30.0554  -19.1337   22.0572 C   0  0  0  0  0  0  0  0  0  1  0  0
  -32.3032  -26.1339   21.2112 C   0  0  1  0  0  0  0  0  0  0  0  0
  -35.1174  -25.7346   23.7193 C   0  0  2  0  0  0  0  0  0  0  0  0
  -32.5469  -26.8433   19.8492 C   0  0  0  0  0  0  0  0  0  0  0  0
  -26.1927  -12.1272   21.3772 N   0  0  0  0  0  0  0  0  0  0  0  0
  -26.3196  -13.1754   20.5457 N   0  0  0  0  0  0  0  0  0  0  0  0
  -30.0641  -25.6073   22.1236 N   0  0  0  0  0  0  0  0  0  0  0  0
  -30.1222  -13.3497   20.2023 N   0  0  0  0  0  0  0  0  0  0  0  0
  -25.1157  -14.9623   19.5616 N   0  0  0  0  0  0  0  0  0  0  0  0
  -22.0059  -12.8763   22.0863 N   0  0  0  0  0  0  0  0  0  0  0  0
  -26.5815  -26.5654   21.6233 N   0  0  0  0  0  0  0  0  0  0  0  0
  -33.3704  -26.3301   22.1864 N   0  0  0  0  0  0  0  0  0  0  0  0
  -30.8653  -14.8020   21.9147 N   0  0  0  0  0  0  0  0  0  0  0  0
  -35.2654  -24.7508   24.8288 N   0  3  0  0  0  0  0  0  0  0  0  0
  -22.3663  -14.6175   20.6382 O   0  0  0  0  0  0  0  0  0  0  0  0
  -28.3196  -25.8167   20.2665 O   0  0  0  0  0  0  0  0  0  0  0  0
  -30.9009  -27.7828   22.1813 O   0  0  0  0  0  0  0  0  0  0  0  0
  -33.8568  -24.0828   22.4866 O   0  0  0  0  0  0  0  0  0  0  0  0
  -32.1998  -14.3751   20.0998 O   0  0  0  0  0  0  0  0  0  0  0  0
  -22.8195   -8.3657   25.2529 O   0  0  0  0  0  0  0  0  0  0  0  0
  -28.7447  -19.5874   22.3925 O   0  0  0  0  0  0  0  0  0  1  0  0
  -25.7797   -7.1273   29.7370 F   0  0  0  0  0  0  0  0  0  0  0  0
  -21.7886   -8.7626   27.7871 F   0  0  0  0  0  0  0  0  0  0  0  0
  1  2  1  0  0  0  0
  1  5  2  0  0  0  0
  2  6  2  0  0  0  0
  3  8  2  0  0  0  0
  3 15  1  0  0  0  0
  4  9  1  0  0  0  0
  4 15  2  0  0  0  0
  5 17  1  0  0  0  0
  6 19  1  0  0  0  0
  7 10  2  0  0  0  0
  7 18  1  0  0  0  0
  8 21  1  0  0  0  0
  9 21  2  0  0  0  0
 10 22  1  0  0  0  0
 11 12  2  0  0  0  0
 11 23  1  0  0  0  0
 12 24  1  0  0  0  0
 13 20  1  0  0  0  0
 13 22  2  0  0  0  0
 14 24  2  0  0  0  0
 14 25  1  0  0  0  0
 15 26  1  0  0  0  0
 16 26  1  0  0  0  0
 16 27  2  0  0  0  0
 16 28  1  0  0  0  0
 17 19  2  0  0  0  0
 17 33  1  0  0  0  0
 18 20  2  0  0  0  0
 18 34  1  0  0  0  0
 19 42  1  0  0  0  0
 20 35  1  0  0  0  0
 21 72  1  0  0  0  0
 22 73  1  0  0  0  0
 23 25  2  0  0  0  0
 23 72  1  0  0  0  0
 24 74  1  0  0  0  0
 25 75  1  0  0  0  0
 26 57  2  0  0  0  0
 27 58  1  0  0  0  0
 27 61  1  0  0  0  0
 28 62  1  0  0  0  0
 28 67  2  0  0  0  0
 29 43  1  0  0  0  0
 29 63  1  0  0  0  0
 29 68  2  0  0  0  0
 30 54  1  0  0  0  0
 30 59  1  0  0  0  0
 30 69  2  0  0  0  0
 31 55  1  0  0  0  0
 31 64  1  0  0  0  0
 31 70  2  0  0  0  0
 32 60  1  0  0  0  0
 32 65  1  0  0  0  0
 32 71  2  0  0  0  0
 33 36  1  0  0  0  0
 34 43  1  0  0  0  0
 35 59  1  0  0  0  0
 36 38  1  0  0  0  0
 37 39  1  0  0  0  0
 37 40  1  0  0  0  0
 38 42  1  0  0  0  0
 39 44  1  0  0  0  0
 40 60  1  0  0  0  0
 41 44  1  0  0  0  0
 41 60  1  0  0  0  0
 42 63  1  0  0  0  0
 43 59  1  0  0  0  0
 44 58  1  0  0  0  0
 45 55  1  0  0  0  0
 46 56  1  0  0  0  0
 47 56  1  0  0  0  0
 48 56  1  0  0  0  0
 49 66  1  0  0  0  0
 50 51  1  0  0  0  0
 50 52  1  0  0  0  0
 51 53  1  0  0  0  0
 52 65  1  0  0  0  0
 53 73  1  0  0  0  0
 54 56  1  0  0  0  0
 54 64  1  0  0  0  0
 55 66  1  0  0  0  0
 57 58  1  0  0  0  0
M  CHG  1  66   1
M  ISO  4  32 100  53 101  65 100  73 101
M  END
> <Batch ID>
0012

> <Smiles>
CNC(C)C(=O)NC(C(=O)N1Cc2cc([101O:1][101CH2:1]CCC[100NH:0][100C:0](=O)N3CCCC(n4nc(-c5ccc(Oc6ccc(F)cc6F)cc5)c(C(N)=O)c4N)C3)ccc2CC1C(=O)NC1CCCc2ccccc21)C(C)(C)C

> <Shape>
0.193

> <Color>
0.131

> <Negative vol penalty>
0.000

$$$$

  -OEChem-04052315473D

 84 92  0     1  0  0  0  0  0999 V2000
  -23.3183  -29.8212   20.5752 C   0  0  0  0  0  0  0  0  0  0  0  0
  -23.8169  -28.5988   21.0139 C   0  0  0  0  0  0  0  0  0  0  0  0
  -22.9655   -9.9098   20.0598 C   0  0  0  0  0  0  0  0  0  0  0  0
  -23.6110  -10.1230   22.3781 C   0  0  0  0  0  0  0  0  0  0  0  0
  -24.0445  -30.9900   20.7997 C   0  0  0  0  0  0  0  0  0  0  0  0
  -25.0427  -28.5444   21.6765 C   0  0  0  0  0  0  0  0  0  0  0  0
  -26.6081  -24.7434   26.2161 C   0  0  0  0  0  0  0  0  0  0  0  0
  -22.1702   -8.8102   20.3823 C   0  0  0  0  0  0  0  0  0  0  0  0
  -22.8156   -9.0235   22.7007 C   0  0  0  0  0  0  0  0  0  0  0  0
  -27.3271  -23.5491   26.2336 C   0  0  0  0  0  0  0  0  0  0  0  0
  -23.0170   -5.6552   22.4885 C   0  0  0  0  0  0  0  0  0  0  0  0
  -23.5600   -4.6888   23.3351 C   0  0  0  0  0  0  0  0  0  0  0  0
  -29.3272  -24.7687   26.8094 C   0  0  0  0  0  0  0  0  0  0  0  0
  -31.8446  -18.5004   23.9190 C   0  0  0  0  0  0  0  0  0  0  0  0
  -32.0453  -16.5914   22.4519 C   0  0  0  0  0  0  0  0  0  0  0  0
  -21.7835   -5.0830   24.9244 C   0  0  0  0  0  0  0  0  0  0  0  0
  -23.6859  -10.5662   21.0577 C   0  0  0  0  0  0  0  0  0  0  0  0
  -24.1216  -13.0553   20.7083 C   0  0  0  0  0  0  0  0  0  0  0  0
  -25.2752  -30.9511   21.4739 C   0  0  0  0  0  0  0  0  0  0  0  0
  -27.2466  -25.9626   26.4849 C   0  0  0  0  0  0  0  0  0  0  0  0
  -25.7867  -29.7136   21.9091 C   0  0  0  0  0  0  0  0  0  0  0  0
  -28.6135  -25.9768   26.7972 C   0  0  0  0  0  0  0  0  0  0  0  0
  -32.6338  -17.5348   23.2941 C   0  0  0  0  0  0  0  0  0  0  0  0
  -30.4669  -18.5224   23.7018 C   0  0  0  0  0  0  0  0  0  0  0  0
  -30.6676  -16.6135   22.2346 C   0  0  0  0  0  0  0  0  0  0  0  0
  -22.0952   -8.3671   21.7028 C   0  0  0  0  0  0  0  0  0  0  0  0
  -28.6875  -23.5619   26.5274 C   0  0  0  0  0  0  0  0  0  0  0  0
  -21.8573   -6.3356   22.8599 C   0  0  0  0  0  0  0  0  0  0  0  0
  -29.8784  -17.5790   22.8595 C   0  0  0  0  0  0  0  0  0  0  0  0
  -22.9432   -4.4026   24.5531 C   0  0  0  0  0  0  0  0  0  0  0  0
  -21.2406   -6.0495   24.0778 C   0  0  0  0  0  0  0  0  0  0  0  0
  -24.5081  -11.7017   20.7250 C   0  0  0  0  0  0  0  0  0  0  0  0
  -25.2560  -13.7316   20.3311 C   0  0  0  0  0  0  0  0  0  0  0  0
  -22.8509  -13.6483   21.0071 C   0  0  0  0  0  0  0  0  0  0  0  0
  -27.7550  -28.6378   24.8452 C   0  0  0  0  0  0  0  0  0  0  0  0
  -28.9464  -29.6845   27.6750 C   0  0  0  0  0  0  0  0  0  0  0  0
  -30.1155  -20.5093   25.2060 C   0  0  0  0  0  0  0  0  0  0  0  0
  -30.3317  -28.9150   30.6975 C   0  0  0  0  0  0  0  0  0  0  0  0
  -30.7402  -14.6250   20.6896 C   0  0  0  0  0  0  0  0  0  0  0  0
  -26.0466  -32.2349   21.6516 C   0  0  0  0  0  0  0  0  0  0  0  0
  -26.4512  -27.2392   26.4884 C   0  0  0  0  0  0  0  0  0  0  0  0
  -29.3416  -27.2569   27.1129 C   0  0  0  0  0  0  0  0  0  0  0  0
  -27.1592  -32.1380   22.6922 C   0  0  0  0  0  0  0  0  0  0  0  0
  -29.6601  -12.0211   18.5146 C   0  0  0  0  0  0  0  0  0  0  0  0
  -27.9746  -30.8656   22.4850 C   0  0  0  0  0  0  0  0  0  0  0  0
  -28.1917  -11.8173   18.8944 C   0  0  0  0  0  0  0  0  0  0  0  0
  -30.5222  -12.3413   19.7345 C   0  0  0  0  0  0  0  0  0  0  0  0
  -28.5760  -13.2570   20.9356 C   0  0  0  0  0  0  0  0  0  0  0  0
  -27.1007  -29.6168   22.6534 C   0  0  1  0  0  0  0  0  0  0  0  0
  -27.3119  -28.4801   26.2723 C   0  0  1  0  0  0  0  0  0  0  0  0
  -27.6570  -12.9962   19.7309 C   0  0  2  0  0  0  0  0  0  0  0  0
  -34.1065  -17.5103   23.5280 C   0  0  0  0  0  0  0  0  0  0  0  0
  -31.2338  -29.9848   32.7806 C   0  0  0  0  0  0  0  0  0  0  0  0
  -31.4942  -30.4448   26.1782 C   0  0  0  0  0  0  0  0  0  0  0  0
  -32.6618  -30.6023   28.3873 C   0  0  0  0  0  0  0  0  0  0  0  0
  -30.7458  -32.1171   27.8805 C   0  0  0  0  0  0  0  0  0  0  0  0
  -28.3042  -27.5877   32.3965 C   0  0  0  0  0  0  0  0  0  0  0  0
  -27.7245  -16.8316   23.5363 C   0  0  0  0  0  0  0  0  0  0  0  0
  -28.9476  -21.3570   25.6750 C   0  0  0  0  0  0  0  0  0  1  0  0
  -30.3043  -29.6695   28.3344 C   0  0  1  0  0  0  0  0  0  0  0  0
  -30.0095  -29.3890   32.1032 C   0  0  2  0  0  0  0  0  0  0  0  0
  -31.2885  -30.6844   27.6873 C   0  0  0  0  0  0  0  0  0  0  0  0
  -25.7879  -11.5267   20.3853 N   0  0  0  0  0  0  0  0  0  0  0  0
  -26.2155  -12.7791   20.1515 N   0  0  0  0  0  0  0  0  0  0  0  0
  -28.5216  -28.4796   27.0974 N   0  0  0  0  0  0  0  0  0  0  0  0
  -29.9571  -13.4709   20.4757 N   0  0  0  0  0  0  0  0  0  0  0  0
  -25.5163  -15.0422   20.1388 N   0  0  0  0  0  0  0  0  0  0  0  0
  -21.7923  -12.8081   21.3783 N   0  0  0  0  0  0  0  0  0  0  0  0
  -29.6807  -19.5082   24.3442 N   0  0  0  0  0  0  0  0  0  0  0  0
  -30.0860  -15.6462   21.3780 N   0  0  0  0  0  0  0  0  0  0  0  0
  -26.8696  -29.3471   24.0563 N   0  0  0  0  0  0  0  0  0  0  0  0
  -30.0695  -29.8890   29.7574 N   0  0  0  0  0  0  0  0  0  0  0  0
  -29.5193  -28.2526   32.9334 N   0  3  0  0  0  0  0  0  0  0  0  0
  -22.6554  -14.8850   20.9307 O   0  0  0  0  0  0  0  0  0  0  0  0
  -28.8220  -28.1532   24.4868 O   0  0  0  0  0  0  0  0  0  0  0  0
  -28.2837  -30.7249   27.6787 O   0  0  0  0  0  0  0  0  0  0  0  0
  -31.2626  -20.7341   25.5777 O   0  0  0  0  0  0  0  0  0  0  0  0
  -30.7753  -27.7942   30.4578 O   0  0  0  0  0  0  0  0  0  0  0  0
  -31.8962  -14.7122   20.2678 O   0  0  0  0  0  0  0  0  0  0  0  0
  -21.3191   -7.2943   22.0179 O   0  0  0  0  0  0  0  0  0  0  0  0
  -28.5299  -17.6002   22.6470 O   0  0  0  0  0  0  0  0  0  0  0  0
  -29.3918  -22.3976   26.5444 O   0  0  0  0  0  0  0  0  0  1  0  0
  -23.4639   -3.4734   25.3652 F   0  0  0  0  0  0  0  0  0  0  0  0
  -20.1256   -6.6990   24.4395 F   0  0  0  0  0  0  0  0  0  0  0  0
  1  2  1  0  0  0  0
  1  5  2  0  0  0  0
  2  6  2  0  0  0  0
  3  8  2  0  0  0  0
  3 17  1  0  0  0  0
  4  9  1  0  0  0  0
  4 17  2  0  0  0  0
  5 19  1  0  0  0  0
  6 21  1  0  0  0  0
  7 10  2  0  0  0  0
  7 20  1  0  0  0  0
  8 26  1  0  0  0  0
  9 26  2  0  0  0  0
 10 27  1  0  0  0  0
 11 12  2  0  0  0  0
 11 28  1  0  0  0  0
 12 30  1  0  0  0  0
 13 22  1  0  0  0  0
 13 27  2  0  0  0  0
 14 23  2  0  0  0  0
 14 24  1  0  0  0  0
 15 23  1  0  0  0  0
 15 25  2  0  0  0  0
 16 30  2  0  0  0  0
 16 31  1  0  0  0  0
 17 32  1  0  0  0  0
 18 32  1  0  0  0  0
 18 33  2  0  0  0  0
 18 34  1  0  0  0  0
 19 21  2  0  0  0  0
 19 40  1  0  0  0  0
 20 22  2  0  0  0  0
 20 41  1  0  0  0  0
 21 49  1  0  0  0  0
 22 42  1  0  0  0  0
 23 52  1  0  0  0  0
 24 29  2  0  0  0  0
 24 69  1  0  0  0  0
 25 29  1  0  0  0  0
 25 70  1  0  0  0  0
 26 80  1  0  0  0  0
 27 82  1  0  0  0  0
 28 31  2  0  0  0  0
 28 80  1  0  0  0  0
 29 81  1  0  0  0  0
 30 83  1  0  0  0  0
 31 84  1  0  0  0  0
 32 63  2  0  0  0  0
 33 64  1  0  0  0  0
 33 67  1  0  0  0  0
 34 68  1  0  0  0  0
 34 74  2  0  0  0  0
 35 50  1  0  0  0  0
 35 71  1  0  0  0  0
 35 75  2  0  0  0  0
 36 60  1  0  0  0  0
 36 65  1  0  0  0  0
 36 76  2  0  0  0  0
 37 59  1  0  0  0  0
 37 69  1  0  0  0  0
 37 77  2  0  0  0  0
 38 61  1  0  0  0  0
 38 72  1  0  0  0  0
 38 78  2  0  0  0  0
 39 66  1  0  0  0  0
 39 70  1  0  0  0  0
 39 79  2  0  0  0  0
 40 43  1  0  0  0  0
 41 50  1  0  0  0  0
 42 65  1  0  0  0  0
 43 45  1  0  0  0  0
 44 46  1  0  0  0  0
 44 47  1  0  0  0  0
 45 49  1  0  0  0  0
 46 51  1  0  0  0  0
 47 66  1  0  0  0  0
 48 51  1  0  0  0  0
 48 66  1  0  0  0  0
 49 71  1  0  0  0  0
 50 65  1  0  0  0  0
 51 64  1  0  0  0  0
 53 61  1  0  0  0  0
 54 62  1  0  0  0  0
 55 62  1  0  0  0  0
 56 62  1  0  0  0  0
 57 73  1  0  0  0  0
 58 81  1  0  0  0  0
 59 82  1  0  0  0  0
 60 62  1  0  0  0  0
 60 72  1  0  0  0  0
 61 73  1  0  0  0  0
 63 64  1  0  0  0  0
M  CHG  1  73   1
M  ISO  4  39 100  59 101  70 100  82 101
M  END
> <Batch ID>
0012

> <Smiles>
CNC(C)C(=O)NC(C(=O)N1Cc2cc([101O:1][101CH2:1]C(=O)Nc3cc(C)cc([100NH:0][100C:0](=O)N4CCCC(n5nc(-c6ccc(Oc7ccc(F)cc7F)cc6)c(C(N)=O)c5N)C4)c3OC)ccc2CC1C(=O)NC1CCCc2ccccc21)C(C)(C)C

> <Shape>
0.242

> <Color>
0.206

> <Negative vol penalty>
0.000

$$$$

  -OEChem-04052315473D

 94103  0     1  0  0  0  0  0999 V2000
  -24.5950  -28.7733   20.1114 C   0  0  0  0  0  0  0  0  0  0  0  0
  -25.0601  -27.8441   19.1865 C   0  0  0  0  0  0  0  0  0  0  0  0
  -20.3222  -23.2413   20.0408 C   0  0  0  0  0  0  0  0  0  0  0  0
  -17.9646  -22.7241   19.9332 C   0  0  0  0  0  0  0  0  0  0  0  0
  -25.4556  -29.2754   21.0867 C   0  0  0  0  0  0  0  0  0  0  0  0
  -26.3867  -27.4171   19.2356 C   0  0  0  0  0  0  0  0  0  0  0  0
  -28.0189  -20.4711   19.9413 C   0  0  0  0  0  0  0  0  0  0  0  0
  -20.0794  -24.1298   21.0883 C   0  0  0  0  0  0  0  0  0  0  0  0
  -17.7219  -23.6125   20.9807 C   0  0  0  0  0  0  0  0  0  0  0  0
  -28.4182  -19.1405   19.8129 C   0  0  0  0  0  0  0  0  0  0  0  0
  -20.0311  -26.8037   23.5524 C   0  0  0  0  0  0  0  0  0  0  0  0
  -20.6548  -28.0504   23.5051 C   0  0  0  0  0  0  0  0  0  0  0  0
  -30.7380  -19.8199   19.8764 C   0  0  0  0  0  0  0  0  0  0  0  0
  -25.2307  -13.6893   18.2228 C   0  0  0  0  0  0  0  0  0  0  0  0
  -19.5386  -28.5296   21.4166 C   0  0  0  0  0  0  0  0  0  0  0  0
  -19.2648  -22.5385   19.4632 C   0  0  0  0  0  0  0  0  0  0  0  0
  -20.0810  -21.9196   17.1269 C   0  0  0  0  0  0  0  0  0  0  0  0
  -26.7908  -28.8471   21.1538 C   0  0  0  0  0  0  0  0  0  0  0  0
  -28.9786  -21.4814   20.0532 C   0  0  0  0  0  0  0  0  0  0  0  0
  -27.2664  -27.9149   20.2118 C   0  0  0  0  0  0  0  0  0  0  0  0
  -30.3437  -21.1530   20.0182 C   0  0  0  0  0  0  0  0  0  0  0  0
  -24.2411  -13.5983   17.2440 C   0  0  0  0  0  0  0  0  0  0  0  0
  -23.7293  -14.9637   19.6224 C   0  0  0  0  0  0  0  0  0  0  0  0
  -24.9748  -14.3720   19.4120 C   0  0  0  0  0  0  0  0  0  0  0  0
  -22.7397  -14.8727   18.6436 C   0  0  0  0  0  0  0  0  0  0  0  0
  -18.7793  -24.3154   21.5583 C   0  0  0  0  0  0  0  0  0  0  0  0
  -29.7744  -18.8158   19.7802 C   0  0  0  0  0  0  0  0  0  0  0  0
  -19.1611  -26.4199   22.5318 C   0  0  0  0  0  0  0  0  0  0  0  0
  -20.4085  -28.9134   22.4372 C   0  0  0  0  0  0  0  0  0  0  0  0
  -18.9149  -27.2828   21.4639 C   0  0  0  0  0  0  0  0  0  0  0  0
  -22.9956  -14.1900   17.4544 C   0  0  0  0  0  0  0  0  0  0  0  0
  -19.5148  -21.6210   18.3807 C   0  0  0  0  0  0  0  0  0  0  0  0
  -20.1036  -20.7163   16.4650 C   0  0  0  0  0  0  0  0  0  0  0  0
  -20.5450  -23.1726   16.6070 C   0  0  0  0  0  0  0  0  0  0  0  0
  -27.2742  -13.9187   20.3239 C   0  0  0  0  0  0  0  0  0  0  0  0
  -29.6958  -25.1344   20.3516 C   0  0  0  0  0  0  0  0  0  0  0  0
  -30.1371  -15.3607   20.6380 C   0  0  0  0  0  0  0  0  0  0  0  0
  -31.7869  -23.5621   22.1703 C   0  0  0  0  0  0  0  0  0  0  0  0
  -32.3697  -26.6767   23.8959 C   0  0  0  0  0  0  0  0  0  0  0  0
  -20.2467  -15.0384   18.3214 C   0  0  0  0  0  0  0  0  0  0  0  0
  -27.6962  -29.4536   22.1964 C   0  0  0  0  0  0  0  0  0  0  0  0
  -28.5905  -22.9337   20.1280 C   0  0  0  0  0  0  0  0  0  0  0  0
  -31.3408  -22.2739   20.1083 C   0  0  0  0  0  0  0  0  0  0  0  0
  -28.9873  -28.6686   22.4130 C   0  0  0  0  0  0  0  0  0  0  0  0
  -29.1090  -12.1444   22.1398 C   0  0  0  0  0  0  0  0  0  0  0  0
  -17.7878  -16.5314   16.2233 C   0  0  0  0  0  0  0  0  0  0  0  0
  -29.6221  -28.3052   21.0744 C   0  0  0  0  0  0  0  0  0  0  0  0
  -27.9618  -13.0636   22.5553 C   0  0  0  0  0  0  0  0  0  0  0  0
  -18.0072  -18.0332   16.4196 C   0  0  0  0  0  0  0  0  0  0  0  0
  -30.1825  -13.1072   21.6609 C   0  0  0  0  0  0  0  0  0  0  0  0
  -18.0057  -15.7522   17.5191 C   0  0  0  0  0  0  0  0  0  0  0  0
  -19.5106  -17.5022   18.3804 C   0  0  0  0  0  0  0  0  0  0  0  0
  -28.6921  -27.4087   20.2481 C   0  0  1  0  0  0  0  0  0  0  0  0
  -28.0521  -14.2232   21.5689 C   0  0  1  0  0  0  0  0  0  0  0  0
  -29.5469  -23.7837   20.9881 C   0  0  1  0  0  0  0  0  0  0  0  0
  -19.3659  -18.3216   17.0877 C   0  0  2  0  0  0  0  0  0  0  0  0
  -23.4549  -15.6966   20.8991 C   0  0  0  0  0  0  0  0  0  0  0  0
  -33.8870  -27.2164   25.8205 C   0  0  0  0  0  0  0  0  0  0  0  0
  -24.8766  -11.3740   16.2468 C   0  0  0  0  0  0  0  0  0  0  0  0
  -25.7152  -13.5056   15.2031 C   0  0  0  0  0  0  0  0  0  0  0  0
  -23.3357  -12.8311   14.9489 C   0  0  0  0  0  0  0  0  0  0  0  0
  -29.3177  -23.0431   23.8862 C   0  0  0  0  0  0  0  0  0  0  0  0
  -30.0225  -24.9460   25.3527 C   0  0  0  0  0  0  0  0  0  0  0  0
  -31.4885  -22.9407   25.1239 C   0  0  0  0  0  0  0  0  0  0  0  0
  -33.7114  -28.8375   22.3828 C   0  0  0  0  0  0  0  0  0  0  0  0
  -29.2850  -16.5277   20.2077 C   0  0  0  0  0  0  0  0  0  1  0  0
  -31.2896  -24.5577   23.1905 C   0  0  1  0  0  0  0  0  0  0  0  0
  -33.7136  -27.2485   24.3099 C   0  0  2  0  0  0  0  0  0  0  0  0
  -24.5178  -12.8675   15.9734 C   0  0  0  0  0  0  0  0  0  0  0  0
  -30.5255  -23.8758   24.3604 C   0  0  0  0  0  0  0  0  0  0  0  0
  -19.2003  -20.3293   18.5101 N   0  0  0  0  0  0  0  0  0  0  0  0
  -19.5700  -19.8056   17.3289 N   0  0  0  0  0  0  0  0  0  0  0  0
  -30.9136  -23.2442   21.1228 N   0  0  0  0  0  0  0  0  0  0  0  0
  -29.4646  -14.2901   21.2055 N   0  0  0  0  0  0  0  0  0  0  0  0
  -19.3146  -16.0727   18.0926 N   0  0  0  0  0  0  0  0  0  0  0  0
  -20.5275  -20.3589   15.2342 N   0  0  0  0  0  0  0  0  0  0  0  0
  -19.6384  -23.9845   15.9120 N   0  0  0  0  0  0  0  0  0  0  0  0
  -25.9934  -14.4522   20.3910 N   0  0  0  0  0  0  0  0  0  0  0  0
  -21.4684  -15.4673   18.8390 N   0  0  0  0  0  0  0  0  0  0  0  0
  -28.7342  -26.0480   20.7390 N   0  0  0  0  0  0  0  0  0  0  0  0
  -32.4542  -25.3309   23.6077 N   0  0  0  0  0  0  0  0  0  0  0  0
  -33.8384  -28.6613   23.8525 N   0  3  0  0  0  0  0  0  0  0  0  0
  -21.7328  -23.5532   16.7401 O   0  0  0  0  0  0  0  0  0  0  0  0
  -27.7797  -13.2773   19.4085 O   0  0  0  0  0  0  0  0  0  0  0  0
  -30.6160  -25.3347   19.5676 O   0  0  0  0  0  0  0  0  0  0  0  0
  -31.3592  -15.3954   20.4786 O   0  0  0  0  0  0  0  0  0  0  0  0
  -32.9128  -23.0759   22.3056 O   0  0  0  0  0  0  0  0  0  0  0  0
  -31.3465  -27.3550   23.8379 O   0  0  0  0  0  0  0  0  0  0  0  0
  -19.9904  -13.8623   18.0508 O   0  0  0  0  0  0  0  0  0  0  0  0
  -18.5421  -25.1821   22.5806 O   0  0  0  0  0  0  0  0  0  0  0  0
  -30.1576  -17.5146   19.6590 O   0  0  0  0  0  0  0  0  0  1  0  0
  -21.0064  -30.1112   22.3927 F   0  0  0  0  0  0  0  0  0  0  0  0
  -18.0792  -26.9201   20.4811 F   0  0  0  0  0  0  0  0  0  0  0  0
  -22.0457  -14.1005   16.5111 F   0  0  0  0  0  0  0  0  0  0  0  0
  1  2  1  0  0  0  0
  1  5  2  0  0  0  0
  2  6  2  0  0  0  0
  3  8  2  0  0  0  0
  3 16  1  0  0  0  0
  4  9  1  0  0  0  0
  4 16  2  0  0  0  0
  5 18  1  0  0  0  0
  6 20  1  0  0  0  0
  7 10  2  0  0  0  0
  7 19  1  0  0  0  0
  8 26  1  0  0  0  0
  9 26  2  0  0  0  0
 10 27  1  0  0  0  0
 11 12  2  0  0  0  0
 11 28  1  0  0  0  0
 12 29  1  0  0  0  0
 13 21  1  0  0  0  0
 13 27  2  0  0  0  0
 14 22  2  0  0  0  0
 14 24  1  0  0  0  0
 15 29  2  0  0  0  0
 15 30  1  0  0  0  0
 16 32  1  0  0  0  0
 17 32  1  0  0  0  0
 17 33  2  0  0  0  0
 17 34  1  0  0  0  0
 18 20  2  0  0  0  0
 18 41  1  0  0  0  0
 19 21  2  0  0  0  0
 19 42  1  0  0  0  0
 20 53  1  0  0  0  0
 21 43  1  0  0  0  0
 22 31  1  0  0  0  0
 22 69  1  0  0  0  0
 23 24  2  0  0  0  0
 23 25  1  0  0  0  0
 23 57  1  0  0  0  0
 24 78  1  0  0  0  0
 25 31  2  0  0  0  0
 25 79  1  0  0  0  0
 26 90  1  0  0  0  0
 27 91  1  0  0  0  0
 28 30  2  0  0  0  0
 28 90  1  0  0  0  0
 29 92  1  0  0  0  0
 30 93  1  0  0  0  0
 31 94  1  0  0  0  0
 32 71  2  0  0  0  0
 33 72  1  0  0  0  0
 33 76  1  0  0  0  0
 34 77  1  0  0  0  0
 34 83  2  0  0  0  0
 35 54  1  0  0  0  0
 35 78  1  0  0  0  0
 35 84  2  0  0  0  0
 36 55  1  0  0  0  0
 36 80  1  0  0  0  0
 36 85  2  0  0  0  0
 37 66  1  0  0  0  0
 37 74  1  0  0  0  0
 37 86  2  0  0  0  0
 38 67  1  0  0  0  0
 38 73  1  0  0  0  0
 38 87  2  0  0  0  0
 39 68  1  0  0  0  0
 39 81  1  0  0  0  0
 39 88  2  0  0  0  0
 40 75  1  0  0  0  0
 40 79  1  0  0  0  0
 40 89  2  0  0  0  0
 41 44  1  0  0  0  0
 42 55  1  0  0  0  0
 43 73  1  0  0  0  0
 44 47  1  0  0  0  0
 45 48  1  0  0  0  0
 45 50  1  0  0  0  0
 46 49  1  0  0  0  0
 46 51  1  0  0  0  0
 47 53  1  0  0  0  0
 48 54  1  0  0  0  0
 49 56  1  0  0  0  0
 50 74  1  0  0  0  0
 51 75  1  0  0  0  0
 52 56  1  0  0  0  0
 52 75  1  0  0  0  0
 53 80  1  0  0  0  0
 54 74  1  0  0  0  0
 55 73  1  0  0  0  0
 56 72  1  0  0  0  0
 58 68  1  0  0  0  0
 59 69  1  0  0  0  0
 60 69  1  0  0  0  0
 61 69  1  0  0  0  0
 62 70  1  0  0  0  0
 63 70  1  0  0  0  0
 64 70  1  0  0  0  0
 65 82  1  0  0  0  0
 66 91  1  0  0  0  0
 67 70  1  0  0  0  0
 67 81  1  0  0  0  0
 68 82  1  0  0  0  0
 71 72  1  0  0  0  0
M  CHG  1  82   1
M  ISO  4  40 100  66 101  79 100  91 101
M  END
> <Batch ID>
0012

> <Smiles>
CNC(C)C(=O)NC(C(=O)N1Cc2cc([101O:1][101CH2:1]C(=O)N3CCCC3C(=O)Nc3cc(C(C)(C)C)c(F)c([100NH:0][100C:0](=O)N4CCCC(n5nc(-c6ccc(Oc7ccc(F)cc7F)cc6)c(C(N)=O)c5N)C4)c3C)ccc2CC1C(=O)NC1CCCc2ccccc21)C(C)(C)C

> <Shape>
0.212

> <Color>
0.082

> <Negative vol penalty>
0.000

$$$$

  -OEChem-04052315473D

 84 92  0     1  0  0  0  0  0999 V2000
  -28.4288  -33.7552   28.9678 C   0  0  0  0  0  0  0  0  0  0  0  0
  -28.9591  -32.4694   28.9405 C   0  0  0  0  0  0  0  0  0  0  0  0
  -22.9976   -9.8958   19.9880 C   0  0  0  0  0  0  0  0  0  0  0  0
  -23.7153   -9.9609   22.2940 C   0  0  0  0  0  0  0  0  0  0  0  0
  -27.2225  -34.0243   28.3225 C   0  0  0  0  0  0  0  0  0  0  0  0
  -28.2829  -31.4516   28.2687 C   0  0  0  0  0  0  0  0  0  0  0  0
  -30.7775  -26.7763   25.1988 C   0  0  0  0  0  0  0  0  0  0  0  0
  -22.2284   -8.7643   20.2592 C   0  0  0  0  0  0  0  0  0  0  0  0
  -22.9461   -8.8294   22.5653 C   0  0  0  0  0  0  0  0  0  0  0  0
  -31.0164  -25.4473   25.5458 C   0  0  0  0  0  0  0  0  0  0  0  0
  -23.1867   -5.4870   22.1162 C   0  0  0  0  0  0  0  0  0  0  0  0
  -23.7702   -4.4739   22.8769 C   0  0  0  0  0  0  0  0  0  0  0  0
  -28.9484  -24.8043   24.4832 C   0  0  0  0  0  0  0  0  0  0  0  0
  -31.9008  -18.3113   24.1628 C   0  0  0  0  0  0  0  0  0  0  0  0
  -22.0412   -4.7305   24.5448 C   0  0  0  0  0  0  0  0  0  0  0  0
  -23.7411  -10.4941   21.0053 C   0  0  0  0  0  0  0  0  0  0  0  0
  -24.1309  -13.0079   20.8140 C   0  0  0  0  0  0  0  0  0  0  0  0
  -26.5360  -33.0115   27.6344 C   0  0  0  0  0  0  0  0  0  0  0  0
  -29.6149  -27.1314   24.4997 C   0  0  0  0  0  0  0  0  0  0  0  0
  -27.0656  -31.7071   27.6148 C   0  0  0  0  0  0  0  0  0  0  0  0
  -28.6983  -26.1382   24.1263 C   0  0  0  0  0  0  0  0  0  0  0  0
  -30.7242  -18.6867   23.5145 C   0  0  0  0  0  0  0  0  0  0  0  0
  -30.6737  -16.5576   22.3735 C   0  0  0  0  0  0  0  0  0  0  0  0
  -22.2026   -8.2311   21.5479 C   0  0  0  0  0  0  0  0  0  0  0  0
  -30.1005  -24.4615   25.1905 C   0  0  0  0  0  0  0  0  0  0  0  0
  -22.0305   -6.1220   22.5698 C   0  0  0  0  0  0  0  0  0  0  0  0
  -23.1974   -4.0956   24.0912 C   0  0  0  0  0  0  0  0  0  0  0  0
  -32.4639  -17.0592   23.9165 C   0  0  0  0  0  0  0  0  0  0  0  0
  -21.4577   -5.7437   23.7841 C   0  0  0  0  0  0  0  0  0  0  0  0
  -31.8504  -16.1823   23.0219 C   0  0  0  0  0  0  0  0  0  0  0  0
  -30.1106  -17.8098   22.6199 C   0  0  0  0  0  0  0  0  0  0  0  0
  -24.5363  -11.6627   20.7256 C   0  0  0  0  0  0  0  0  0  0  0  0
  -25.2430  -13.7263   20.4485 C   0  0  0  0  0  0  0  0  0  0  0  0
  -22.8626  -13.5588   21.1928 C   0  0  0  0  0  0  0  0  0  0  0  0
  -27.1102  -28.9910   25.1101 C   0  0  0  0  0  0  0  0  0  0  0  0
  -26.3465  -28.3089   22.0322 C   0  0  0  0  0  0  0  0  0  0  0  0
  -30.6902  -20.9306   24.6537 C   0  0  0  0  0  0  0  0  0  0  0  0
  -26.6436  -26.1879   19.3751 C   0  0  0  0  0  0  0  0  0  0  0  0
  -30.7232  -14.6805   20.6942 C   0  0  0  0  0  0  0  0  0  0  0  0
  -25.2115  -33.3397   26.9919 C   0  0  0  0  0  0  0  0  0  0  0  0
  -29.3849  -28.5657   24.1096 C   0  0  0  0  0  0  0  0  0  0  0  0
  -27.4448  -26.4644   23.3577 C   0  0  0  0  0  0  0  0  0  0  0  0
  -24.7462  -32.2905   25.9854 C   0  0  0  0  0  0  0  0  0  0  0  0
  -29.6087  -12.2140   18.3808 C   0  0  0  0  0  0  0  0  0  0  0  0
  -24.9041  -30.8882   26.5646 C   0  0  0  0  0  0  0  0  0  0  0  0
  -28.1563  -11.9614   18.7919 C   0  0  0  0  0  0  0  0  0  0  0  0
  -30.5056  -12.4640   19.5919 C   0  0  0  0  0  0  0  0  0  0  0  0
  -28.5871  -13.2646   20.9139 C   0  0  0  0  0  0  0  0  0  0  0  0
  -26.3741  -30.5821   26.8757 C   0  0  1  0  0  0  0  0  0  0  0  0
  -27.9165  -28.8853   23.8466 C   0  0  1  0  0  0  0  0  0  0  0  0
  -27.6331  -13.0719   19.7238 C   0  0  2  0  0  0  0  0  0  0  0  0
  -25.8737  -25.8771   17.0070 C   0  0  0  0  0  0  0  0  0  0  0  0
  -23.6127  -27.4055   23.0421 C   0  0  0  0  0  0  0  0  0  0  0  0
  -23.2615  -26.2504   20.8487 C   0  0  0  0  0  0  0  0  0  0  0  0
  -23.5562  -28.7265   20.9193 C   0  0  0  0  0  0  0  0  0  0  0  0
  -29.4133  -26.2970   18.3379 C   0  0  0  0  0  0  0  0  0  0  0  0
  -29.8043  -22.1625   24.6585 C   0  0  0  0  0  0  0  0  0  1  0  0
  -25.5485  -27.2286   21.3429 C   0  0  1  0  0  0  0  0  0  0  0  0
  -26.9565  -26.4440   17.9119 C   0  0  2  0  0  0  0  0  0  0  0  0
  -24.0173  -27.3966   21.5544 C   0  0  0  0  0  0  0  0  0  0  0  0
  -25.8067  -11.5316   20.3345 N   0  0  0  0  0  0  0  0  0  0  0  0
  -26.2091  -12.8037   20.1738 N   0  0  0  0  0  0  0  0  0  0  0  0
  -27.2616  -27.8820   23.0048 N   0  0  0  0  0  0  0  0  0  0  0  0
  -29.9495  -13.5313   20.4264 N   0  0  0  0  0  0  0  0  0  0  0  0
  -25.4789  -15.0510   20.3385 N   0  0  0  0  0  0  0  0  0  0  0  0
  -21.8283  -12.6785   21.5387 N   0  0  0  0  0  0  0  0  0  0  0  0
  -30.1836  -19.9650   23.7905 N   0  0  0  0  0  0  0  0  0  0  0  0
  -30.0778  -15.6418   21.4714 N   0  0  0  0  0  0  0  0  0  0  0  0
  -27.0910  -30.2581   25.6610 N   0  0  0  0  0  0  0  0  0  0  0  0
  -25.9637  -27.2438   19.9444 N   0  0  0  0  0  0  0  0  0  0  0  0
  -28.2555  -25.8141   17.5421 N   0  3  0  0  0  0  0  0  0  0  0  0
  -22.6477  -14.7946   21.2077 O   0  0  0  0  0  0  0  0  0  0  0  0
  -26.5461  -27.9968   25.5518 O   0  0  0  0  0  0  0  0  0  0  0  0
  -26.1697  -29.4876   21.7141 O   0  0  0  0  0  0  0  0  0  0  0  0
  -31.7022  -20.8642   25.3437 O   0  0  0  0  0  0  0  0  0  0  0  0
  -26.9665  -25.1530   19.9541 O   0  0  0  0  0  0  0  0  0  0  0  0
  -31.8635  -14.8146   20.2430 O   0  0  0  0  0  0  0  0  0  0  0  0
  -21.4520   -7.1271   21.8130 O   0  0  0  0  0  0  0  0  0  0  0  0
  -30.3310  -23.1636   25.5285 O   0  0  0  0  0  0  0  0  0  1  0  0
  -23.7569   -3.1216   24.8209 F   0  0  0  0  0  0  0  0  0  0  0  0
  -33.5938  -16.6988   24.5390 F   0  0  0  0  0  0  0  0  0  0  0  0
  -20.3463   -6.3492   24.2245 F   0  0  0  0  0  0  0  0  0  0  0  0
  -32.4021  -14.9817   22.7941 F   0  0  0  0  0  0  0  0  0  0  0  0
  -28.6465  -18.2774   21.8134 Cl  0  0  0  0  0  0  0  0  0  0  0  0
  1  2  1  0  0  0  0
  1  5  2  0  0  0  0
  2  6  2  0  0  0  0
  3  8  2  0  0  0  0
  3 16  1  0  0  0  0
  4  9  1  0  0  0  0
  4 16  2  0  0  0  0
  5 18  1  0  0  0  0
  6 20  1  0  0  0  0
  7 10  2  0  0  0  0
  7 19  1  0  0  0  0
  8 24  1  0  0  0  0
  9 24  2  0  0  0  0
 10 25  1  0  0  0  0
 11 12  2  0  0  0  0
 11 26  1  0  0  0  0
 12 27  1  0  0  0  0
 13 21  1  0  0  0  0
 13 25  2  0  0  0  0
 14 22  1  0  0  0  0
 14 28  2  0  0  0  0
 15 27  2  0  0  0  0
 15 29  1  0  0  0  0
 16 32  1  0  0  0  0
 17 32  1  0  0  0  0
 17 33  2  0  0  0  0
 17 34  1  0  0  0  0
 18 20  2  0  0  0  0
 18 40  1  0  0  0  0
 19 21  2  0  0  0  0
 19 41  1  0  0  0  0
 20 49  1  0  0  0  0
 21 42  1  0  0  0  0
 22 31  2  0  0  0  0
 22 67  1  0  0  0  0
 23 30  2  0  0  0  0
 23 31  1  0  0  0  0
 23 68  1  0  0  0  0
 24 78  1  0  0  0  0
 25 79  1  0  0  0  0
 26 29  2  0  0  0  0
 26 78  1  0  0  0  0
 27 80  1  0  0  0  0
 28 30  1  0  0  0  0
 28 81  1  0  0  0  0
 29 82  1  0  0  0  0
 30 83  1  0  0  0  0
 31 84  1  0  0  0  0
 32 61  2  0  0  0  0
 33 62  1  0  0  0  0
 33 65  1  0  0  0  0
 34 66  1  0  0  0  0
 34 72  2  0  0  0  0
 35 50  1  0  0  0  0
 35 69  1  0  0  0  0
 35 73  2  0  0  0  0
 36 58  1  0  0  0  0
 36 63  1  0  0  0  0
 36 74  2  0  0  0  0
 37 57  1  0  0  0  0
 37 67  1  0  0  0  0
 37 75  2  0  0  0  0
 38 59  1  0  0  0  0
 38 70  1  0  0  0  0
 38 76  2  0  0  0  0
 39 64  1  0  0  0  0
 39 68  1  0  0  0  0
 39 77  2  0  0  0  0
 40 43  1  0  0  0  0
 41 50  1  0  0  0  0
 42 63  1  0  0  0  0
 43 45  1  0  0  0  0
 44 46  1  0  0  0  0
 44 47  1  0  0  0  0
 45 49  1  0  0  0  0
 46 51  1  0  0  0  0
 47 64  1  0  0  0  0
 48 51  1  0  0  0  0
 48 64  1  0  0  0  0
 49 69  1  0  0  0  0
 50 63  1  0  0  0  0
 51 62  1  0  0  0  0
 52 59  1  0  0  0  0
 53 60  1  0  0  0  0
 54 60  1  0  0  0  0
 55 60  1  0  0  0  0
 56 71  1  0  0  0  0
 57 79  1  0  0  0  0
 58 60  1  0  0  0  0
 58 70  1  0  0  0  0
 59 71  1  0  0  0  0
 61 62  1  0  0  0  0
M  CHG  1  71   1
M  ISO  4  39 100  57 101  68 100  79 101
M  END
> <Batch ID>
0012

> <Smiles>
CNC(C)C(=O)NC(C(=O)N1Cc2cc([101O:1][101CH2:1]C(=O)Nc3cc(F)c(F)c([100NH:0][100C:0](=O)N4CCCC(n5nc(-c6ccc(Oc7ccc(F)cc7F)cc6)c(C(N)=O)c5N)C4)c3Cl)ccc2CC1C(=O)NC1CCCc2ccccc21)C(C)(C)C

> <Shape>
0.270

> <Color>
0.198

> <Negative vol penalty>
0.000

$$$$

  -OEChem-04052315473D

 83 91  0     1  0  0  0  0  0999 V2000
  -23.0582   -7.9277   20.8939 C   0  0  0  0  0  0  0  0  0  0  0  0
  -23.8570   -8.9312   20.3551 C   0  0  0  0  0  0  0  0  0  0  0  0
  -24.5342  -30.6611   20.9975 C   0  0  0  0  0  0  0  0  0  0  0  0
  -24.8854  -29.4894   23.0810 C   0  0  0  0  0  0  0  0  0  0  0  0
  -21.8224   -8.2476   21.4546 C   0  0  0  0  0  0  0  0  0  0  0  0
  -23.4199  -10.2552   20.3758 C   0  0  0  0  0  0  0  0  0  0  0  0
  -27.0503  -13.4772   21.8194 C   0  0  0  0  0  0  0  0  0  0  0  0
  -23.9104  -31.7006   21.6873 C   0  0  0  0  0  0  0  0  0  0  0  0
  -24.2616  -30.5290   23.7708 C   0  0  0  0  0  0  0  0  0  0  0  0
  -28.0136  -13.8177   20.8707 C   0  0  0  0  0  0  0  0  0  0  0  0
  -24.8402  -34.3658   23.5487 C   0  0  0  0  0  0  0  0  0  0  0  0
  -25.1956  -35.6720   23.2124 C   0  0  0  0  0  0  0  0  0  0  0  0
  -26.8555  -15.8911   20.4477 C   0  0  0  0  0  0  0  0  0  0  0  0
  -22.9047  -36.1384   22.6031 C   0  0  0  0  0  0  0  0  0  0  0  0
  -28.1327  -19.5993   19.3199 C   0  0  0  0  0  0  0  0  0  0  0  0
  -25.0217  -29.5554   21.6944 C   0  0  0  0  0  0  0  0  0  0  0  0
  -27.0361  -28.3602   20.6837 C   0  0  0  0  0  0  0  0  0  0  0  0
  -21.3742   -9.5774   21.4908 C   0  0  0  0  0  0  0  0  0  0  0  0
  -25.9746  -14.3377   22.0820 C   0  0  0  0  0  0  0  0  0  0  0  0
  -22.1763  -10.5931   20.9363 C   0  0  0  0  0  0  0  0  0  0  0  0
  -25.8813  -15.5605   21.4020 C   0  0  0  0  0  0  0  0  0  0  0  0
  -23.7741  -31.6346   23.0739 C   0  0  0  0  0  0  0  0  0  0  0  0
  -27.9147  -15.0234   20.1826 C   0  0  0  0  0  0  0  0  0  0  0  0
  -23.5171  -33.9459   23.4122 C   0  0  0  0  0  0  0  0  0  0  0  0
  -24.2279  -36.5583   22.7396 C   0  0  0  0  0  0  0  0  0  0  0  0
  -22.5493  -34.8322   22.9394 C   0  0  0  0  0  0  0  0  0  0  0  0
  -25.6656  -28.4809   20.9824 C   0  0  0  0  0  0  0  0  0  0  0  0
  -29.4198  -19.0902   19.5763 C   0  0  0  0  0  0  0  0  0  0  0  0
  -28.1585  -20.8728   19.8338 C   0  0  0  0  0  0  0  0  0  0  0  0
  -27.1353  -27.1730   20.0003 C   0  0  0  0  0  0  0  0  0  0  0  0
  -28.1223  -29.2424   20.9962 C   0  0  0  0  0  0  0  0  0  0  0  0
  -22.8147  -14.1260   21.8101 C   0  0  0  0  0  0  0  0  0  0  0  0
  -22.8851  -17.0162   23.2813 C   0  0  0  0  0  0  0  0  0  0  0  0
  -24.2530  -20.3076   23.8404 C   0  0  0  0  0  0  0  0  0  0  0  0
  -25.8567  -21.7895   19.3780 C   0  0  0  0  0  0  0  0  0  0  0  0
  -20.0102   -9.8684   22.0649 C   0  0  0  0  0  0  0  0  0  0  0  0
  -24.9584  -13.9681   23.1275 C   0  0  0  0  0  0  0  0  0  0  0  0
  -24.7570  -16.5285   21.6617 C   0  0  0  0  0  0  0  0  0  0  0  0
  -19.7859  -11.3442   22.3843 C   0  0  0  0  0  0  0  0  0  0  0  0
  -23.5432  -24.1659   18.0829 C   0  0  0  0  0  0  0  0  0  0  0  0
  -20.2466  -12.2179   21.2219 C   0  0  0  0  0  0  0  0  0  0  0  0
  -24.0019  -25.4905   18.6972 C   0  0  0  0  0  0  0  0  0  0  0  0
  -23.7110  -23.0009   19.0567 C   0  0  0  0  0  0  0  0  0  0  0  0
  -25.5133  -24.1860   20.2467 C   0  0  0  0  0  0  0  0  0  0  0  0
  -21.7479  -12.0442   20.9623 C   0  0  1  0  0  0  0  0  0  0  0  0
  -23.6248  -14.6862   22.9448 C   0  0  1  0  0  0  0  0  0  0  0  0
  -25.4241  -25.3786   19.2805 C   0  0  2  0  0  0  0  0  0  0  0  0
  -23.5941  -22.0918   25.4775 C   0  0  0  0  0  0  0  0  0  0  0  0
  -31.4257  -22.4129   20.7278 C   0  0  0  0  0  0  0  0  0  0  0  0
  -29.6262  -22.2288   22.4981 C   0  0  0  0  0  0  0  0  0  0  0  0
  -21.1804  -18.0854   20.9876 C   0  0  0  0  0  0  0  0  0  0  0  0
  -21.7881  -20.4044   21.7094 C   0  0  0  0  0  0  0  0  0  0  0  0
  -20.5181  -18.9122   23.2531 C   0  0  0  0  0  0  0  0  0  0  0  0
  -26.9943  -20.4700   24.9439 C   0  0  0  0  0  0  0  0  0  0  0  0
  -31.1682  -15.8321   18.8376 C   0  0  0  0  0  0  0  0  0  0  0  0
  -31.0796  -17.2328   19.4312 C   0  0  0  0  0  0  0  0  0  0  0  0
  -30.1743  -14.8583   19.4596 C   0  0  0  0  0  0  0  0  0  1  0  0
  -22.9653  -18.4504   22.8171 C   0  0  1  0  0  0  0  0  0  0  0  0
  -24.5548  -20.9504   25.1820 C   0  0  2  0  0  0  0  0  0  0  0  0
  -29.9322  -22.2216   20.9992 C   0  0  0  0  0  0  0  0  0  0  0  0
  -21.6332  -18.9442   22.1853 C   0  0  0  0  0  0  0  0  0  0  0  0
  -24.9459  -27.4525   20.5260 N   0  0  0  0  0  0  0  0  0  0  0  0
  -30.2061  -19.9685   20.2042 N   0  0  0  0  0  0  0  0  0  0  0  0
  -25.8676  -26.6743   19.9335 N   0  0  0  0  0  0  0  0  0  0  0  0
  -29.4109  -21.0425   20.3466 N   0  0  0  0  0  0  0  0  0  0  0  0
  -23.7849  -16.1190   22.6887 N   0  0  0  0  0  0  0  0  0  0  0  0
  -25.0837  -22.9550   19.5649 N   0  0  0  0  0  0  0  0  0  0  0  0
  -28.1823  -26.5174   19.4560 N   0  0  0  0  0  0  0  0  0  0  0  0
  -27.8444  -30.4197   21.7042 N   0  0  0  0  0  0  0  0  0  0  0  0
  -29.7768  -17.8063   19.1947 N   0  0  0  0  0  0  0  0  0  0  0  0
  -27.1571  -21.8744   19.8745 N   0  0  0  0  0  0  0  0  0  0  0  0
  -22.5185  -12.7825   21.9397 N   0  0  0  0  0  0  0  0  0  0  0  0
  -23.4042  -19.2288   23.9703 N   0  0  0  0  0  0  0  0  0  0  0  0
  -25.9441  -21.4896   25.1972 N   0  3  0  0  0  0  0  0  0  0  0  0
  -29.3018  -29.0021   20.6433 O   0  0  0  0  0  0  0  0  0  0  0  0
  -22.4816  -14.8589   20.8861 O   0  0  0  0  0  0  0  0  0  0  0  0
  -22.0594  -16.7048   24.1433 O   0  0  0  0  0  0  0  0  0  0  0  0
  -24.7202  -20.7234   22.7824 O   0  0  0  0  0  0  0  0  0  0  0  0
  -25.4077  -20.7996   18.7947 O   0  0  0  0  0  0  0  0  0  0  0  0
  -23.1657  -32.6490   23.7473 O   0  0  0  0  0  0  0  0  0  0  0  0
  -28.8532  -15.3578   19.2557 O   0  0  0  0  0  0  0  0  0  1  0  0
  -24.5691  -37.8131   22.4181 F   0  0  0  0  0  0  0  0  0  0  0  0
  -21.2763  -34.4349   22.8073 F   0  0  0  0  0  0  0  0  0  0  0  0
  1  2  1  0  0  0  0
  1  5  2  0  0  0  0
  2  6  2  0  0  0  0
  3  8  2  0  0  0  0
  3 16  1  0  0  0  0
  4  9  1  0  0  0  0
  4 16  2  0  0  0  0
  5 18  1  0  0  0  0
  6 20  1  0  0  0  0
  7 10  2  0  0  0  0
  7 19  1  0  0  0  0
  8 22  1  0  0  0  0
  9 22  2  0  0  0  0
 10 23  1  0  0  0  0
 11 12  2  0  0  0  0
 11 24  1  0  0  0  0
 12 25  1  0  0  0  0
 13 21  1  0  0  0  0
 13 23  2  0  0  0  0
 14 25  2  0  0  0  0
 14 26  1  0  0  0  0
 15 28  1  0  0  0  0
 15 29  2  0  0  0  0
 16 27  1  0  0  0  0
 17 27  1  0  0  0  0
 17 30  2  0  0  0  0
 17 31  1  0  0  0  0
 18 20  2  0  0  0  0
 18 36  1  0  0  0  0
 19 21  2  0  0  0  0
 19 37  1  0  0  0  0
 20 45  1  0  0  0  0
 21 38  1  0  0  0  0
 22 80  1  0  0  0  0
 23 81  1  0  0  0  0
 24 26  2  0  0  0  0
 24 80  1  0  0  0  0
 25 82  1  0  0  0  0
 26 83  1  0  0  0  0
 27 62  2  0  0  0  0
 28 63  2  0  0  0  0
 28 70  1  0  0  0  0
 29 65  1  0  0  0  0
 29 71  1  0  0  0  0
 30 64  1  0  0  0  0
 30 68  1  0  0  0  0
 31 69  1  0  0  0  0
 31 75  2  0  0  0  0
 32 46  1  0  0  0  0
 32 72  1  0  0  0  0
 32 76  2  0  0  0  0
 33 58  1  0  0  0  0
 33 66  1  0  0  0  0
 33 77  2  0  0  0  0
 34 59  1  0  0  0  0
 34 73  1  0  0  0  0
 34 78  2  0  0  0  0
 35 67  1  0  0  0  0
 35 71  1  0  0  0  0
 35 79  2  0  0  0  0
 36 39  1  0  0  0  0
 37 46  1  0  0  0  0
 38 66  1  0  0  0  0
 39 41  1  0  0  0  0
 40 42  1  0  0  0  0
 40 43  1  0  0  0  0
 41 45  1  0  0  0  0
 42 47  1  0  0  0  0
 43 67  1  0  0  0  0
 44 47  1  0  0  0  0
 44 67  1  0  0  0  0
 45 72  1  0  0  0  0
 46 66  1  0  0  0  0
 47 64  1  0  0  0  0
 48 59  1  0  0  0  0
 49 60  1  0  0  0  0
 50 60  1  0  0  0  0
 51 61  1  0  0  0  0
 52 61  1  0  0  0  0
 53 61  1  0  0  0  0
 54 74  1  0  0  0  0
 55 56  1  0  0  0  0
 55 57  1  0  0  0  0
 56 70  1  0  0  0  0
 57 81  1  0  0  0  0
 58 61  1  0  0  0  0
 58 73  1  0  0  0  0
 59 74  1  0  0  0  0
 60 65  1  0  0  0  0
 62 64  1  0  0  0  0
 63 65  1  0  0  0  0
M  CHG  1  74   1
M  ISO  4  35 100  57 101  71 100  81 101
M  END
> <Batch ID>
0012

> <Smiles>
CNC(C)C(=O)NC(C(=O)N1Cc2cc([101O:1][101CH2:1]CCNc3cc([100NH:0][100C:0](=O)N4CCCC(n5nc(-c6ccc(Oc7ccc(F)cc7F)cc6)c(C(N)=O)c5N)C4)n(C(C)C)n3)ccc2CC1C(=O)NC1CCCc2ccccc21)C(C)(C)C

> <Shape>
0.227

> <Color>
0.092

> <Negative vol penalty>
0.000

$$$$

  -OEChem-04052315473D

 85 93  0     1  0  0  0  0  0999 V2000
  -23.5759   -7.8570   21.4632 C   0  0  0  0  0  0  0  0  0  0  0  0
  -24.3483   -8.9019   20.9660 C   0  0  0  0  0  0  0  0  0  0  0  0
  -25.1359  -31.5921   20.2192 C   0  0  0  0  0  0  0  0  0  0  0  0
  -23.9786  -30.2343   21.8483 C   0  0  0  0  0  0  0  0  0  0  0  0
  -22.2341   -8.0710   21.7756 C   0  0  0  0  0  0  0  0  0  0  0  0
  -23.7789  -10.1611   20.7800 C   0  0  0  0  0  0  0  0  0  0  0  0
  -26.7418  -13.9024   22.4736 C   0  0  0  0  0  0  0  0  0  0  0  0
  -24.4183  -32.7110   20.6419 C   0  0  0  0  0  0  0  0  0  0  0  0
  -23.2609  -31.3532   22.2711 C   0  0  0  0  0  0  0  0  0  0  0  0
  -27.8166  -14.2774   21.6687 C   0  0  0  0  0  0  0  0  0  0  0  0
  -23.1504  -35.9982   21.5375 C   0  0  0  0  0  0  0  0  0  0  0  0
  -23.8558  -37.1857   21.7317 C   0  0  0  0  0  0  0  0  0  0  0  0
  -26.5419  -16.1554   20.8518 C   0  0  0  0  0  0  0  0  0  0  0  0
  -27.8110  -20.9108   17.9253 C   0  0  0  0  0  0  0  0  0  0  0  0
  -25.2233  -36.1001   23.4017 C   0  0  0  0  0  0  0  0  0  0  0  0
  -24.9160  -30.3537   20.8224 C   0  0  0  0  0  0  0  0  0  0  0  0
  -26.8919  -28.7414   20.8836 C   0  0  0  0  0  0  0  0  0  0  0  0
  -21.6505   -9.3359   21.6023 C   0  0  0  0  0  0  0  0  0  0  0  0
  -25.5530  -14.6461   22.4655 C   0  0  0  0  0  0  0  0  0  0  0  0
  -22.4277  -10.3918   21.0891 C   0  0  0  0  0  0  0  0  0  0  0  0
  -25.4543  -15.7892   21.6595 C   0  0  0  0  0  0  0  0  0  0  0  0
  -28.8724  -20.0083   17.9930 C   0  0  0  0  0  0  0  0  0  0  0  0
  -29.1459  -20.5063   20.3413 C   0  0  0  0  0  0  0  0  0  0  0  0
  -27.4171  -21.6111   19.0655 C   0  0  0  0  0  0  0  0  0  0  0  0
  -29.5398  -19.8060   19.2010 C   0  0  0  0  0  0  0  0  0  0  0  0
  -23.4808  -32.5916   21.6679 C   0  0  0  0  0  0  0  0  0  0  0  0
  -27.7157  -15.4024   20.8555 C   0  0  0  0  0  0  0  0  0  0  0  0
  -23.4813  -34.8616   22.2754 C   0  0  0  0  0  0  0  0  0  0  0  0
  -24.8923  -37.2367   22.6638 C   0  0  0  0  0  0  0  0  0  0  0  0
  -24.5178  -34.9126   23.2074 C   0  0  0  0  0  0  0  0  0  0  0  0
  -28.0845  -21.4088   20.2735 C   0  0  0  0  0  0  0  0  0  0  0  0
  -25.6566  -29.1974   20.3858 C   0  0  0  0  0  0  0  0  0  0  0  0
  -27.1666  -27.6175   20.1433 C   0  0  0  0  0  0  0  0  0  0  0  0
  -27.7173  -29.2849   21.9223 C   0  0  0  0  0  0  0  0  0  0  0  0
  -22.5302  -14.0353   21.6953 C   0  0  0  0  0  0  0  0  0  0  0  0
  -22.0384  -17.0233   22.8581 C   0  0  0  0  0  0  0  0  0  0  0  0
  -30.3733  -17.5183   19.5821 C   0  0  0  0  0  0  0  0  0  0  0  0
  -23.3231  -20.1050   23.5646 C   0  0  0  0  0  0  0  0  0  0  0  0
  -25.5882  -22.8116   17.8164 C   0  0  0  0  0  0  0  0  0  0  0  0
  -20.1838   -9.5069   21.9094 C   0  0  0  0  0  0  0  0  0  0  0  0
  -24.4124  -14.2437   23.3596 C   0  0  0  0  0  0  0  0  0  0  0  0
  -24.2073  -16.6333   21.6296 C   0  0  0  0  0  0  0  0  0  0  0  0
  -19.7542  -10.9662   22.0363 C   0  0  0  0  0  0  0  0  0  0  0  0
  -24.9434  -25.7920   15.9783 C   0  0  0  0  0  0  0  0  0  0  0  0
  -20.3192  -11.7912   20.8844 C   0  0  0  0  0  0  0  0  0  0  0  0
  -25.1731  -26.9061   17.0021 C   0  0  0  0  0  0  0  0  0  0  0  0
  -24.2978  -24.5620   16.6140 C   0  0  0  0  0  0  0  0  0  0  0  0
  -25.2224  -25.1513   18.8201 C   0  0  0  0  0  0  0  0  0  0  0  0
  -21.8526  -11.7783   20.8967 C   0  0  1  0  0  0  0  0  0  0  0  0
  -23.0646  -14.7793   22.8863 C   0  0  1  0  0  0  0  0  0  0  0  0
  -25.9302  -26.3867   18.2400 C   0  0  2  0  0  0  0  0  0  0  0  0
  -29.2708  -19.2731   16.7543 C   0  0  0  0  0  0  0  0  0  0  0  0
  -29.8729  -20.2781   21.6319 C   0  0  0  0  0  0  0  0  0  0  0  0
  -22.6691  -22.3507   24.4738 C   0  0  0  0  0  0  0  0  0  0  0  0
  -20.6633  -17.6895   20.2170 C   0  0  0  0  0  0  0  0  0  0  0  0
  -20.8891  -20.1158   20.7916 C   0  0  0  0  0  0  0  0  0  0  0  0
  -19.5291  -18.6128   22.2456 C   0  0  0  0  0  0  0  0  0  0  0  0
  -32.0062  -19.3499   19.0033 C   0  0  0  0  0  0  0  0  0  0  0  0
  -25.2327  -19.8795   25.8144 C   0  0  0  0  0  0  0  0  0  0  0  0
  -28.9082  -17.1622   19.7890 C   0  0  0  0  0  0  0  0  0  1  0  0
  -22.0494  -18.4141   22.2712 C   0  0  1  0  0  0  0  0  0  0  0  0
  -23.2284  -20.9757   24.8045 C   0  0  2  0  0  0  0  0  0  0  0  0
  -20.8057  -18.6912   21.3802 C   0  0  0  0  0  0  0  0  0  0  0  0
  -25.1795  -28.4264   19.4050 N   0  0  0  0  0  0  0  0  0  0  0  0
  -26.1200  -27.4745   19.2804 N   0  0  0  0  0  0  0  0  0  0  0  0
  -23.1171  -16.1952   22.5169 N   0  0  0  0  0  0  0  0  0  0  0  0
  -25.0717  -24.1240   17.7776 N   0  0  0  0  0  0  0  0  0  0  0  0
  -28.1989  -26.7476   20.1526 N   0  0  0  0  0  0  0  0  0  0  0  0
  -27.2856  -30.4443   22.5808 N   0  0  0  0  0  0  0  0  0  0  0  0
  -26.3348  -22.5193   18.9573 N   0  0  0  0  0  0  0  0  0  0  0  0
  -22.3574  -12.6810   21.9089 N   0  0  0  0  0  0  0  0  0  0  0  0
  -22.1944  -19.3310   23.3967 N   0  0  0  0  0  0  0  0  0  0  0  0
  -30.6417  -18.8675   19.2669 N   0  0  0  0  0  0  0  0  0  0  0  0
  -24.5750  -21.1513   25.4182 N   0  3  0  0  0  0  0  0  0  0  0  0
  -28.8133  -28.7674   22.2454 O   0  0  0  0  0  0  0  0  0  0  0  0
  -22.2909  -14.6450   20.6596 O   0  0  0  0  0  0  0  0  0  0  0  0
  -21.1106  -16.6864   23.5979 O   0  0  0  0  0  0  0  0  0  0  0  0
  -31.2192  -16.6247   19.6690 O   0  0  0  0  0  0  0  0  0  0  0  0
  -24.2990  -20.1137   22.8176 O   0  0  0  0  0  0  0  0  0  0  0  0
  -25.4061  -22.0149   16.8921 O   0  0  0  0  0  0  0  0  0  0  0  0
  -22.7806  -33.6832   22.0808 O   0  0  0  0  0  0  0  0  0  0  0  0
  -28.7631  -15.7703   20.0684 O   0  0  0  0  0  0  0  0  0  1  0  0
  -25.5707  -38.3767   22.8491 F   0  0  0  0  0  0  0  0  0  0  0  0
  -24.8411  -33.8237   23.9184 F   0  0  0  0  0  0  0  0  0  0  0  0
  -27.5960  -22.2792   21.6920 Cl  0  0  0  0  0  0  0  0  0  0  0  0
  1  2  1  0  0  0  0
  1  5  2  0  0  0  0
  2  6  2  0  0  0  0
  3  8  2  0  0  0  0
  3 16  1  0  0  0  0
  4  9  1  0  0  0  0
  4 16  2  0  0  0  0
  5 18  1  0  0  0  0
  6 20  1  0  0  0  0
  7 10  2  0  0  0  0
  7 19  1  0  0  0  0
  8 26  1  0  0  0  0
  9 26  2  0  0  0  0
 10 27  1  0  0  0  0
 11 12  2  0  0  0  0
 11 28  1  0  0  0  0
 12 29  1  0  0  0  0
 13 21  1  0  0  0  0
 13 27  2  0  0  0  0
 14 22  2  0  0  0  0
 14 24  1  0  0  0  0
 15 29  2  0  0  0  0
 15 30  1  0  0  0  0
 16 32  1  0  0  0  0
 17 32  1  0  0  0  0
 17 33  2  0  0  0  0
 17 34  1  0  0  0  0
 18 20  2  0  0  0  0
 18 40  1  0  0  0  0
 19 21  2  0  0  0  0
 19 41  1  0  0  0  0
 20 49  1  0  0  0  0
 21 42  1  0  0  0  0
 22 25  1  0  0  0  0
 22 52  1  0  0  0  0
 23 25  2  0  0  0  0
 23 31  1  0  0  0  0
 23 53  1  0  0  0  0
 24 31  2  0  0  0  0
 24 70  1  0  0  0  0
 25 73  1  0  0  0  0
 26 81  1  0  0  0  0
 27 82  1  0  0  0  0
 28 30  2  0  0  0  0
 28 81  1  0  0  0  0
 29 83  1  0  0  0  0
 30 84  1  0  0  0  0
 31 85  1  0  0  0  0
 32 64  2  0  0  0  0
 33 65  1  0  0  0  0
 33 68  1  0  0  0  0
 34 69  1  0  0  0  0
 34 75  2  0  0  0  0
 35 50  1  0  0  0  0
 35 71  1  0  0  0  0
 35 76  2  0  0  0  0
 36 61  1  0  0  0  0
 36 66  1  0  0  0  0
 36 77  2  0  0  0  0
 37 60  1  0  0  0  0
 37 73  1  0  0  0  0
 37 78  2  0  0  0  0
 38 62  1  0  0  0  0
 38 72  1  0  0  0  0
 38 79  2  0  0  0  0
 39 67  1  0  0  0  0
 39 70  1  0  0  0  0
 39 80  2  0  0  0  0
 40 43  1  0  0  0  0
 41 50  1  0  0  0  0
 42 66  1  0  0  0  0
 43 45  1  0  0  0  0
 44 46  1  0  0  0  0
 44 47  1  0  0  0  0
 45 49  1  0  0  0  0
 46 51  1  0  0  0  0
 47 67  1  0  0  0  0
 48 51  1  0  0  0  0
 48 67  1  0  0  0  0
 49 71  1  0  0  0  0
 50 66  1  0  0  0  0
 51 65  1  0  0  0  0
 54 62  1  0  0  0  0
 55 63  1  0  0  0  0
 56 63  1  0  0  0  0
 57 63  1  0  0  0  0
 58 73  1  0  0  0  0
 59 74  1  0  0  0  0
 60 82  1  0  0  0  0
 61 63  1  0  0  0  0
 61 72  1  0  0  0  0
 62 74  1  0  0  0  0
 64 65  1  0  0  0  0
M  CHG  1  74   1
M  ISO  4  39 100  60 101  70 100  82 101
M  END
> <Batch ID>
0012

> <Smiles>
CNC(C)C(=O)NC(C(=O)N1Cc2cc([101O:1][101CH2:1]C(=O)N(C)c3c(C)cc([100NH:0][100C:0](=O)N4CCCC(n5nc(-c6ccc(Oc7ccc(F)cc7F)cc6)c(C(N)=O)c5N)C4)c(Cl)c3C)ccc2CC1C(=O)NC1CCCc2ccccc21)C(C)(C)C

> <Shape>
0.217

> <Color>
0.100

> <Negative vol penalty>
0.000

$$$$

  -OEChem-04052315473D

 84 91  0     1  0  0  0  0  0999 V2000
  -28.6839  -22.6246   26.6975 C   0  0  0  0  0  0  0  0  0  0  0  0
  -28.9609  -23.2687   25.4959 C   0  0  0  0  0  0  0  0  0  0  0  0
  -25.9002  -12.9333   22.0879 C   0  0  0  0  0  0  0  0  0  0  0  0
  -26.4816  -13.3059   19.7727 C   0  0  0  0  0  0  0  0  0  0  0  0
  -27.3654  -22.3273   27.0399 C   0  0  0  0  0  0  0  0  0  0  0  0
  -27.9196  -23.6150   24.6355 C   0  0  0  0  0  0  0  0  0  0  0  0
  -27.6046  -28.5640   21.0420 C   0  0  0  0  0  0  0  0  0  0  0  0
  -24.7703  -12.2192   21.6893 C   0  0  0  0  0  0  0  0  0  0  0  0
  -25.3516  -12.5918   19.3740 C   0  0  0  0  0  0  0  0  0  0  0  0
  -27.8687  -28.7575   19.6868 C   0  0  0  0  0  0  0  0  0  0  0  0
  -24.0591   -9.1183   20.5441 C   0  0  0  0  0  0  0  0  0  0  0  0
  -23.7920   -7.9127   21.1928 C   0  0  0  0  0  0  0  0  0  0  0  0
  -25.5237  -28.4758   19.1957 C   0  0  0  0  0  0  0  0  0  0  0  0
  -21.6612   -8.7812   21.9294 C   0  0  0  0  0  0  0  0  0  0  0  0
  -26.7558  -13.4767   21.1296 C   0  0  0  0  0  0  0  0  0  0  0  0
  -29.2117  -13.7025   21.7817 C   0  0  0  0  0  0  0  0  0  0  0  0
  -26.3067  -22.6787   26.1878 C   0  0  0  0  0  0  0  0  0  0  0  0
  -26.2974  -28.3137   21.4837 C   0  0  0  0  0  0  0  0  0  0  0  0
  -26.5859  -23.3209   24.9663 C   0  0  0  0  0  0  0  0  0  0  0  0
  -25.2453  -28.2820   20.5573 C   0  0  0  0  0  0  0  0  0  0  0  0
  -24.4960  -12.0484   20.3323 C   0  0  0  0  0  0  0  0  0  0  0  0
  -26.8286  -28.7105   18.7631 C   0  0  0  0  0  0  0  0  0  0  0  0
  -23.1273  -10.1554   20.5881 C   0  0  0  0  0  0  0  0  0  0  0  0
  -22.5930   -7.7441   21.8854 C   0  0  0  0  0  0  0  0  0  0  0  0
  -21.9284   -9.9868   21.2808 C   0  0  0  0  0  0  0  0  0  0  0  0
  -27.9229  -14.2150   21.5408 C   0  0  0  0  0  0  0  0  0  0  0  0
  -29.9551  -14.7992   22.1440 C   0  0  0  0  0  0  0  0  0  0  0  0
  -29.6939  -12.3556   21.6865 C   0  0  0  0  0  0  0  0  0  0  0  0
  -24.8543  -25.9010   22.9669 C   0  0  0  0  0  0  0  0  0  0  0  0
  -29.2586  -20.5621   20.8874 C   0  0  0  0  0  0  0  0  0  0  0  0
  -22.3408  -27.9508   23.0236 C   0  0  0  0  0  0  0  0  0  0  0  0
  -29.8880  -22.9049   20.1565 C   0  0  0  0  0  0  0  0  0  0  0  0
  -28.3276  -25.7397   15.6767 C   0  0  0  0  0  0  0  0  0  0  0  0
  -20.7788  -30.6583   21.6537 C   0  0  0  0  0  0  0  0  0  0  0  0
  -24.9018  -22.2942   26.5789 C   0  0  0  0  0  0  0  0  0  0  0  0
  -26.0252  -28.1336   22.9520 C   0  0  0  0  0  0  0  0  0  0  0  0
  -23.8214  -28.0369   20.9826 C   0  0  0  0  0  0  0  0  0  0  0  0
  -23.8255  -23.0302   25.7851 C   0  0  0  0  0  0  0  0  0  0  0  0
  -29.5524  -19.0922   24.2010 C   0  0  0  0  0  0  0  0  0  0  0  0
  -24.1563  -23.0151   24.2960 C   0  0  0  0  0  0  0  0  0  0  0  0
  -29.2541  -17.6219   23.9108 C   0  0  0  0  0  0  0  0  0  0  0  0
  -28.7259  -20.0186   23.3128 C   0  0  0  0  0  0  0  0  0  0  0  0
  -28.5831  -18.2786   21.5588 C   0  0  0  0  0  0  0  0  0  0  0  0
  -25.4815  -23.7348   24.0180 C   0  0  1  0  0  0  0  0  0  0  0  0
  -24.7314  -27.3750   23.2312 C   0  0  1  0  0  0  0  0  0  0  0  0
  -29.4189  -17.3106   22.4129 C   0  0  2  0  0  0  0  0  0  0  0  0
  -18.7214  -32.0751   21.8923 C   0  0  0  0  0  0  0  0  0  0  0  0
  -20.6767  -25.7490   21.7224 C   0  0  0  0  0  0  0  0  0  0  0  0
  -18.9723  -27.4842   21.1288 C   0  0  0  0  0  0  0  0  0  0  0  0
  -19.4972  -27.0219   23.5232 C   0  0  0  0  0  0  0  0  0  0  0  0
  -27.4185  -23.4048   19.8454 C   0  0  0  0  0  0  0  0  0  0  0  0
  -22.3755  -33.0904   22.1963 C   0  0  0  0  0  0  0  0  0  0  0  0
  -29.5102  -21.9893   21.3041 C   0  0  0  0  0  0  0  0  0  0  0  0
  -29.3920  -24.6708   15.8630 C   0  0  0  0  0  0  0  0  0  0  0  0
  -29.1312  -23.7418   17.0501 C   0  0  0  0  0  0  0  0  0  0  0  0
  -28.5132  -29.2941   15.5532 C   0  0  0  0  0  0  0  0  0  0  0  0
  -29.1152  -24.4561   18.3999 C   0  0  0  0  0  0  0  0  0  0  0  0
  -28.0468  -28.0513   14.8073 C   0  0  0  0  0  0  0  0  0  0  0  0
  -28.4402  -29.1391   17.0674 C   0  0  0  0  0  0  0  0  0  1  0  0
  -21.1858  -28.2520   22.0993 C   0  0  1  0  0  0  0  0  0  0  0  0
  -20.1803  -31.9022   22.2853 C   0  0  2  0  0  0  0  0  0  0  0  0
  -20.1100  -27.1295   22.1099 C   0  0  0  0  0  0  0  0  0  0  0  0
  -27.8482  -15.5345   21.7339 N   0  0  0  0  0  0  0  0  0  0  0  0
  -29.0995  -15.8604   22.1001 N   0  0  0  0  0  0  0  0  0  0  0  0
  -23.6071  -27.8605   22.4284 N   0  0  0  0  0  0  0  0  0  0  0  0
  -28.8888  -19.6719   21.8959 N   0  0  0  0  0  0  0  0  0  0  0  0
  -31.2505  -14.9495   22.4928 N   0  0  0  0  0  0  0  0  0  0  0  0
  -28.7967  -11.3505   21.3002 N   0  0  0  0  0  0  0  0  0  0  0  0
  -25.2947  -25.1694   24.0533 N   0  0  0  0  0  0  0  0  0  0  0  0
  -28.8493  -26.8986   15.1099 N   0  0  0  0  0  0  0  0  0  0  0  0
  -20.6832  -29.5651   22.4886 N   0  0  0  0  0  0  0  0  0  0  0  0
  -28.8360  -23.5623   19.4897 N   0  0  0  0  0  0  0  0  0  0  0  0
  -20.9305  -33.1150   21.8525 N   0  3  0  0  0  0  0  0  0  0  0  0
  -30.8810  -12.0498   21.9524 O   0  0  0  0  0  0  0  0  0  0  0  0
  -24.5691  -25.4598   21.8598 O   0  0  0  0  0  0  0  0  0  0  0  0
  -29.3899  -20.2492   19.7013 O   0  0  0  0  0  0  0  0  0  0  0  0
  -22.1283  -27.8082   24.2303 O   0  0  0  0  0  0  0  0  0  0  0  0
  -31.0730  -23.0494   19.8438 O   0  0  0  0  0  0  0  0  0  0  0  0
  -27.1479  -25.5754   15.9755 O   0  0  0  0  0  0  0  0  0  0  0  0
  -21.2777  -30.6557   20.5305 O   0  0  0  0  0  0  0  0  0  0  0  0
  -23.3937  -11.3514   19.9430 O   0  0  0  0  0  0  0  0  0  0  0  0
  -27.0838  -28.8984   17.4396 O   0  0  0  0  0  0  0  0  0  1  0  0
  -22.3360   -6.5858   22.5069 F   0  0  0  0  0  0  0  0  0  0  0  0
  -21.0288  -10.9791   21.3256 F   0  0  0  0  0  0  0  0  0  0  0  0
  1  2  1  0  0  0  0
  1  5  2  0  0  0  0
  2  6  2  0  0  0  0
  3  8  2  0  0  0  0
  3 15  1  0  0  0  0
  4  9  1  0  0  0  0
  4 15  2  0  0  0  0
  5 17  1  0  0  0  0
  6 19  1  0  0  0  0
  7 10  2  0  0  0  0
  7 18  1  0  0  0  0
  8 21  1  0  0  0  0
  9 21  2  0  0  0  0
 10 22  1  0  0  0  0
 11 12  2  0  0  0  0
 11 23  1  0  0  0  0
 12 24  1  0  0  0  0
 13 20  1  0  0  0  0
 13 22  2  0  0  0  0
 14 24  2  0  0  0  0
 14 25  1  0  0  0  0
 15 26  1  0  0  0  0
 16 26  1  0  0  0  0
 16 27  2  0  0  0  0
 16 28  1  0  0  0  0
 17 19  2  0  0  0  0
 17 35  1  0  0  0  0
 18 20  2  0  0  0  0
 18 36  1  0  0  0  0
 19 44  1  0  0  0  0
 20 37  1  0  0  0  0
 21 81  1  0  0  0  0
 22 82  1  0  0  0  0
 23 25  2  0  0  0  0
 23 81  1  0  0  0  0
 24 83  1  0  0  0  0
 25 84  1  0  0  0  0
 26 63  2  0  0  0  0
 27 64  1  0  0  0  0
 27 67  1  0  0  0  0
 28 68  1  0  0  0  0
 28 74  2  0  0  0  0
 29 45  1  0  0  0  0
 29 69  1  0  0  0  0
 29 75  2  0  0  0  0
 30 53  1  0  0  0  0
 30 66  1  0  0  0  0
 30 76  2  0  0  0  0
 31 60  1  0  0  0  0
 31 65  1  0  0  0  0
 31 77  2  0  0  0  0
 32 53  1  0  0  0  0
 32 72  1  0  0  0  0
 32 78  2  0  0  0  0
 33 54  1  0  0  0  0
 33 70  1  0  0  0  0
 33 79  2  0  0  0  0
 34 61  1  0  0  0  0
 34 71  1  0  0  0  0
 34 80  2  0  0  0  0
 35 38  1  0  0  0  0
 36 45  1  0  0  0  0
 37 65  1  0  0  0  0
 38 40  1  0  0  0  0
 39 41  1  0  0  0  0
 39 42  1  0  0  0  0
 40 44  1  0  0  0  0
 41 46  1  0  0  0  0
 42 66  1  0  0  0  0
 43 46  1  0  0  0  0
 43 66  1  0  0  0  0
 44 69  1  0  0  0  0
 45 65  1  0  0  0  0
 46 64  1  0  0  0  0
 47 61  1  0  0  0  0
 48 62  1  0  0  0  0
 49 62  1  0  0  0  0
 50 62  1  0  0  0  0
 51 72  1  0  0  0  0
 52 73  1  0  0  0  0
 54 55  1  0  0  0  0
 55 57  1  0  0  0  0
 56 58  1  0  0  0  0
 56 59  1  0  0  0  0
 57 72  1  0  0  0  0
 58 70  1  0  0  0  0
 59 82  1  0  0  0  0
 60 62  1  0  0  0  0
 60 71  1  0  0  0  0
 61 73  1  0  0  0  0
 63 64  1  0  0  0  0
M  CHG  1  73   1
M  ISO  4  30 100  53 100  59 101  82 101
M  END
> <Batch ID>
0012

> <Smiles>
CNC(C)C(=O)NC(C(=O)N1Cc2cc([101O:1][101CH2:1]CCNC(=O)CCCN(C)C(=O)[100CH2:0][100C:0](=O)N3CCCC(n4nc(-c5ccc(Oc6ccc(F)cc6F)cc5)c(C(N)=O)c4N)C3)ccc2CC1C(=O)NC1CCCc2ccccc21)C(C)(C)C

> <Shape>
0.233

> <Color>
0.075

> <Negative vol penalty>
0.000

$$$$

  -OEChem-04052315473D

 83 91  0     1  0  0  0  0  0999 V2000
  -19.1769  -30.7801   24.8767 C   0  0  0  0  0  0  0  0  0  0  0  0
  -20.5253  -30.5219   24.6520 C   0  0  0  0  0  0  0  0  0  0  0  0
  -24.6285  -14.6784   20.5438 C   0  0  0  0  0  0  0  0  0  0  0  0
  -26.8812  -14.4569   21.3885 C   0  0  0  0  0  0  0  0  0  0  0  0
  -18.2079  -29.9253   24.3530 C   0  0  0  0  0  0  0  0  0  0  0  0
  -20.9056  -29.4079   23.9044 C   0  0  0  0  0  0  0  0  0  0  0  0
  -25.6931  -28.9809   20.1092 C   0  0  0  0  0  0  0  0  0  0  0  0
  -24.5722  -13.3007   20.3329 C   0  0  0  0  0  0  0  0  0  0  0  0
  -26.8248  -13.0792   21.1777 C   0  0  0  0  0  0  0  0  0  0  0  0
  -26.9724  -28.4503   20.2691 C   0  0  0  0  0  0  0  0  0  0  0  0
  -24.0839  -10.5150   22.1860 C   0  0  0  0  0  0  0  0  0  0  0  0
  -22.9306   -9.8437   22.5921 C   0  0  0  0  0  0  0  0  0  0  0  0
  -26.2317  -26.3807   19.2754 C   0  0  0  0  0  0  0  0  0  0  0  0
  -33.7062  -21.2519   20.6857 C   0  0  0  0  0  0  0  0  0  0  0  0
  -32.4675  -23.3193   20.8540 C   0  0  0  0  0  0  0  0  0  0  0  0
  -22.5493   -9.1232   20.3177 C   0  0  0  0  0  0  0  0  0  0  0  0
  -25.7831  -15.2565   21.0716 C   0  0  0  0  0  0  0  0  0  0  0  0
  -25.4737  -17.3773   22.4550 C   0  0  0  0  0  0  0  0  0  0  0  0
  -18.5762  -28.8056   23.5905 C   0  0  0  0  0  0  0  0  0  0  0  0
  -24.6689  -28.2103   19.5402 C   0  0  0  0  0  0  0  0  0  0  0  0
  -19.9407  -28.5365   23.3712 C   0  0  0  0  0  0  0  0  0  0  0  0
  -24.9409  -26.9047   19.1070 C   0  0  0  0  0  0  0  0  0  0  0  0
  -33.6282  -22.5837   21.0930 C   0  0  0  0  0  0  0  0  0  0  0  0
  -32.6233  -20.6558   20.0393 C   0  0  0  0  0  0  0  0  0  0  0  0
  -31.3846  -22.7232   20.2076 C   0  0  0  0  0  0  0  0  0  0  0  0
  -31.4626  -21.3914   19.8003 C   0  0  0  0  0  0  0  0  0  0  0  0
  -25.6703  -12.5011   20.6498 C   0  0  0  0  0  0  0  0  0  0  0  0
  -27.2412  -27.1490   19.8549 C   0  0  0  0  0  0  0  0  0  0  0  0
  -24.4698  -10.4904   20.8458 C   0  0  0  0  0  0  0  0  0  0  0  0
  -22.1633   -9.1478   21.6579 C   0  0  0  0  0  0  0  0  0  0  0  0
  -23.7026   -9.7945   19.9117 C   0  0  0  0  0  0  0  0  0  0  0  0
  -25.8421  -16.6796   21.2892 C   0  0  0  0  0  0  0  0  0  0  0  0
  -25.7161  -18.6960   22.1570 C   0  0  0  0  0  0  0  0  0  0  0  0
  -24.9587  -16.8781   23.6964 C   0  0  0  0  0  0  0  0  0  0  0  0
  -21.8575  -27.1214   20.5470 C   0  0  0  0  0  0  0  0  0  0  0  0
  -21.5700  -26.1481   17.4660 C   0  0  0  0  0  0  0  0  0  0  0  0
  -30.1358  -24.8645   19.7724 C   0  0  0  0  0  0  0  0  0  0  0  0
  -23.1093  -25.2716   14.5490 C   0  0  0  0  0  0  0  0  0  0  0  0
  -29.4193  -21.4017   18.3268 C   0  0  0  0  0  0  0  0  0  0  0  0
  -17.4946  -27.8841   23.0850 C   0  0  0  0  0  0  0  0  0  0  0  0
  -23.3011  -28.8064   19.3502 C   0  0  0  0  0  0  0  0  0  0  0  0
  -23.8815  -26.0431   18.4717 C   0  0  0  0  0  0  0  0  0  0  0  0
  -17.9677  -26.9338   21.9879 C   0  0  0  0  0  0  0  0  0  0  0  0
  -25.8764  -21.7303   18.4554 C   0  0  0  0  0  0  0  0  0  0  0  0
  -19.2967  -26.2923   22.3739 C   0  0  0  0  0  0  0  0  0  0  0  0
  -25.4325  -20.5394   19.3079 C   0  0  0  0  0  0  0  0  0  0  0  0
  -27.0576  -21.3741   17.5545 C   0  0  0  0  0  0  0  0  0  0  0  0
  -27.7651  -19.5896   19.0987 C   0  0  0  0  0  0  0  0  0  0  0  0
  -20.3919  -27.3521   22.5444 C   0  0  1  0  0  0  0  0  0  0  0  0
  -22.2026  -27.7548   19.2289 C   0  0  1  0  0  0  0  0  0  0  0  0
  -26.6195  -19.9182   20.0699 C   0  0  2  0  0  0  0  0  0  0  0  0
  -34.7857  -23.2199   21.7855 C   0  0  0  0  0  0  0  0  0  0  0  0
  -32.7374  -19.2275   19.6146 C   0  0  0  0  0  0  0  0  0  0  0  0
  -22.6122  -24.4871   12.2177 C   0  0  0  0  0  0  0  0  0  0  0  0
  -20.9786  -23.3524   18.5355 C   0  0  0  0  0  0  0  0  0  0  0  0
  -21.4325  -22.4550   16.2427 C   0  0  0  0  0  0  0  0  0  0  0  0
  -19.5524  -24.0540   16.6047 C   0  0  0  0  0  0  0  0  0  0  0  0
  -24.3740  -27.6636   13.3499 C   0  0  0  0  0  0  0  0  0  0  0  0
  -28.6940  -25.2888   19.5637 C   0  0  0  0  0  0  0  0  0  1  0  0
  -21.9335  -24.8983   16.7013 C   0  0  1  0  0  0  0  0  0  0  0  0
  -22.8589  -25.6921   13.1120 C   0  0  2  0  0  0  0  0  0  0  0  0
  -20.9939  -23.7052   17.0348 C   0  0  0  0  0  0  0  0  0  0  0  0
  -26.2846  -17.4881   20.3225 N   0  0  0  0  0  0  0  0  0  0  0  0
  -26.1958  -18.7076   20.8803 N   0  0  0  0  0  0  0  0  0  0  0  0
  -22.5583  -26.6688   18.3134 N   0  0  0  0  0  0  0  0  0  0  0  0
  -28.1455  -20.7951   18.3457 N   0  0  0  0  0  0  0  0  0  0  0  0
  -25.5633  -19.8352   22.8650 N   0  0  0  0  0  0  0  0  0  0  0  0
  -24.7703  -15.4961   23.8342 N   0  0  0  0  0  0  0  0  0  0  0  0
  -30.2187  -23.4915   19.9779 N   0  0  0  0  0  0  0  0  0  0  0  0
  -30.3651  -20.7821   19.1430 N   0  0  0  0  0  0  0  0  0  0  0  0
  -20.8762  -27.7907   21.2531 N   0  0  0  0  0  0  0  0  0  0  0  0
  -21.9472  -25.2720   15.2911 N   0  0  0  0  0  0  0  0  0  0  0  0
  -24.0325  -26.4403   12.5792 N   0  3  0  0  0  0  0  0  0  0  0  0
  -24.6584  -17.6366   24.6493 O   0  0  0  0  0  0  0  0  0  0  0  0
  -22.4374  -26.1001   20.8967 O   0  0  0  0  0  0  0  0  0  0  0  0
  -20.4530  -26.6482   17.3116 O   0  0  0  0  0  0  0  0  0  0  0  0
  -31.0543  -25.6771   19.7503 O   0  0  0  0  0  0  0  0  0  0  0  0
  -24.2237  -24.9691   14.9699 O   0  0  0  0  0  0  0  0  0  0  0  0
  -29.6464  -22.4134   17.6584 O   0  0  0  0  0  0  0  0  0  0  0  0
  -25.6155  -11.1568   20.4444 O   0  0  0  0  0  0  0  0  0  0  0  0
  -28.4888  -26.6285   20.0104 O   0  0  0  0  0  0  0  0  0  1  0  0
  -21.0567   -8.5019   22.0483 F   0  0  0  0  0  0  0  0  0  0  0  0
  -24.0689   -9.7664   18.6230 F   0  0  0  0  0  0  0  0  0  0  0  0
  1  2  1  0  0  0  0
  1  5  2  0  0  0  0
  2  6  2  0  0  0  0
  3  8  2  0  0  0  0
  3 17  1  0  0  0  0
  4  9  1  0  0  0  0
  4 17  2  0  0  0  0
  5 19  1  0  0  0  0
  6 21  1  0  0  0  0
  7 10  2  0  0  0  0
  7 20  1  0  0  0  0
  8 27  1  0  0  0  0
  9 27  2  0  0  0  0
 10 28  1  0  0  0  0
 11 12  2  0  0  0  0
 11 29  1  0  0  0  0
 12 30  1  0  0  0  0
 13 22  1  0  0  0  0
 13 28  2  0  0  0  0
 14 23  1  0  0  0  0
 14 24  2  0  0  0  0
 15 23  2  0  0  0  0
 15 25  1  0  0  0  0
 16 30  2  0  0  0  0
 16 31  1  0  0  0  0
 17 32  1  0  0  0  0
 18 32  1  0  0  0  0
 18 33  2  0  0  0  0
 18 34  1  0  0  0  0
 19 21  2  0  0  0  0
 19 40  1  0  0  0  0
 20 22  2  0  0  0  0
 20 41  1  0  0  0  0
 21 49  1  0  0  0  0
 22 42  1  0  0  0  0
 23 52  1  0  0  0  0
 24 26  1  0  0  0  0
 24 53  1  0  0  0  0
 25 26  2  0  0  0  0
 25 69  1  0  0  0  0
 26 70  1  0  0  0  0
 27 80  1  0  0  0  0
 28 81  1  0  0  0  0
 29 31  2  0  0  0  0
 29 80  1  0  0  0  0
 30 82  1  0  0  0  0
 31 83  1  0  0  0  0
 32 63  2  0  0  0  0
 33 64  1  0  0  0  0
 33 67  1  0  0  0  0
 34 68  1  0  0  0  0
 34 74  2  0  0  0  0
 35 50  1  0  0  0  0
 35 71  1  0  0  0  0
 35 75  2  0  0  0  0
 36 60  1  0  0  0  0
 36 65  1  0  0  0  0
 36 76  2  0  0  0  0
 37 59  1  0  0  0  0
 37 69  1  0  0  0  0
 37 77  2  0  0  0  0
 38 61  1  0  0  0  0
 38 72  1  0  0  0  0
 38 78  2  0  0  0  0
 39 66  1  0  0  0  0
 39 70  1  0  0  0  0
 39 79  2  0  0  0  0
 40 43  1  0  0  0  0
 41 50  1  0  0  0  0
 42 65  1  0  0  0  0
 43 45  1  0  0  0  0
 44 46  1  0  0  0  0
 44 47  1  0  0  0  0
 45 49  1  0  0  0  0
 46 51  1  0  0  0  0
 47 66  1  0  0  0  0
 48 51  1  0  0  0  0
 48 66  1  0  0  0  0
 49 71  1  0  0  0  0
 50 65  1  0  0  0  0
 51 64  1  0  0  0  0
 54 61  1  0  0  0  0
 55 62  1  0  0  0  0
 56 62  1  0  0  0  0
 57 62  1  0  0  0  0
 58 73  1  0  0  0  0
 59 81  1  0  0  0  0
 60 62  1  0  0  0  0
 60 72  1  0  0  0  0
 61 73  1  0  0  0  0
 63 64  1  0  0  0  0
M  CHG  1  73   1
M  ISO  4  39 100  59 101  70 100  81 101
M  END
> <Batch ID>
0012

> <Smiles>
CNC(C)C(=O)NC(C(=O)N1Cc2cc([101O:1][101CH2:1]C(=O)Nc3cc(C)cc(C)c3[100NH:0][100C:0](=O)N3CCCC(n4nc(-c5ccc(Oc6ccc(F)cc6F)cc5)c(C(N)=O)c4N)C3)ccc2CC1C(=O)NC1CCCc2ccccc21)C(C)(C)C

> <Shape>
0.217

> <Color>
0.094

> <Negative vol penalty>
0.000

$$$$

  -OEChem-04052315473D

 82 90  0     1  0  0  0  0  0999 V2000
  -23.9239  -32.2842   27.0566 C   0  0  0  0  0  0  0  0  0  0  0  0
  -25.1837  -31.8933   26.6146 C   0  0  0  0  0  0  0  0  0  0  0  0
  -23.8995   -9.8308   21.8955 C   0  0  0  0  0  0  0  0  0  0  0  0
  -24.5085  -11.1809   23.8043 C   0  0  0  0  0  0  0  0  0  0  0  0
  -22.8012  -31.5331   26.7114 C   0  0  0  0  0  0  0  0  0  0  0  0
  -25.3217  -30.7503   25.8279 C   0  0  0  0  0  0  0  0  0  0  0  0
  -29.3075  -28.0832   20.5066 C   0  0  0  0  0  0  0  0  0  0  0  0
  -23.4209   -8.8380   22.7504 C   0  0  0  0  0  0  0  0  0  0  0  0
  -24.0298  -10.1881   24.6592 C   0  0  0  0  0  0  0  0  0  0  0  0
  -30.0628  -26.9556   20.1876 C   0  0  0  0  0  0  0  0  0  0  0  0
  -20.6503   -8.2697   24.6035 C   0  0  0  0  0  0  0  0  0  0  0  0
  -19.4165   -7.6934   24.3012 C   0  0  0  0  0  0  0  0  0  0  0  0
  -28.0435  -25.7802   19.5876 C   0  0  0  0  0  0  0  0  0  0  0  0
  -30.9815  -18.7478   20.0652 C   0  0  0  0  0  0  0  0  0  0  0  0
  -28.6333  -19.2706   20.2879 C   0  0  0  0  0  0  0  0  0  0  0  0
  -20.4717   -5.5273   24.1238 C   0  0  0  0  0  0  0  0  0  0  0  0
  -24.4434  -11.0022   22.4224 C   0  0  0  0  0  0  0  0  0  0  0  0
  -24.2153  -13.1108   21.0048 C   0  0  0  0  0  0  0  0  0  0  0  0
  -22.9243  -30.3857   25.9121 C   0  0  0  0  0  0  0  0  0  0  0  0
  -27.9112  -28.0642   20.3787 C   0  0  0  0  0  0  0  0  0  0  0  0
  -24.1997  -29.9824   25.4727 C   0  0  0  0  0  0  0  0  0  0  0  0
  -27.2730  -26.9097   19.9032 C   0  0  0  0  0  0  0  0  0  0  0  0
  -29.6462  -18.3457   20.0343 C   0  0  0  0  0  0  0  0  0  0  0  0
  -30.2910  -20.9996   20.6034 C   0  0  0  0  0  0  0  0  0  0  0  0
  -23.4860   -9.0167   24.1323 C   0  0  0  0  0  0  0  0  0  0  0  0
  -29.4306  -25.8029   19.7307 C   0  0  0  0  0  0  0  0  0  0  0  0
  -21.7948   -7.4747   24.6658 C   0  0  0  0  0  0  0  0  0  0  0  0
  -19.3272   -6.3222   24.0614 C   0  0  0  0  0  0  0  0  0  0  0  0
  -31.3039  -20.0747   20.3498 C   0  0  0  0  0  0  0  0  0  0  0  0
  -21.7055   -6.1036   24.4260 C   0  0  0  0  0  0  0  0  0  0  0  0
  -28.9557  -20.5975   20.5725 C   0  0  0  0  0  0  0  0  0  0  0  0
  -24.9385  -12.0279   21.5398 C   0  0  0  0  0  0  0  0  0  0  0  0
  -25.1298  -13.7876   20.2354 C   0  0  0  0  0  0  0  0  0  0  0  0
  -22.8400  -13.4726   21.1872 C   0  0  0  0  0  0  0  0  0  0  0  0
  -25.4699  -28.3953   22.3872 C   0  0  0  0  0  0  0  0  0  0  0  0
  -23.7178  -28.2987   19.6590 C   0  0  0  0  0  0  0  0  0  0  0  0
  -23.4865  -27.3215   16.3973 C   0  0  0  0  0  0  0  0  0  0  0  0
  -30.2027  -15.9533   19.4748 C   0  0  0  0  0  0  0  0  0  0  0  0
  -21.6875  -29.5793   25.6042 C   0  0  0  0  0  0  0  0  0  0  0  0
  -27.1132  -29.2976   20.7015 C   0  0  0  0  0  0  0  0  0  0  0  0
  -25.7784  -26.8446   19.7289 C   0  0  0  0  0  0  0  0  0  0  0  0
  -21.8748  -28.5915   24.4555 C   0  0  0  0  0  0  0  0  0  0  0  0
  -29.7938  -12.4900   18.7571 C   0  0  0  0  0  0  0  0  0  0  0  0
  -23.1790  -27.8185   24.6234 C   0  0  0  0  0  0  0  0  0  0  0  0
  -28.4347  -12.1501   19.3731 C   0  0  0  0  0  0  0  0  0  0  0  0
  -30.5652  -13.4984   19.6066 C   0  0  0  0  0  0  0  0  0  0  0  0
  -28.4698  -14.3861   20.5503 C   0  0  0  0  0  0  0  0  0  0  0  0
  -24.3871  -28.7625   24.5971 C   0  0  1  0  0  0  0  0  0  0  0  0
  -25.6524  -28.9971   21.0225 C   0  0  1  0  0  0  0  0  0  0  0  0
  -27.6284  -13.4232   19.6968 C   0  0  2  0  0  0  0  0  0  0  0  0
  -21.9180  -27.3506   14.4387 C   0  0  0  0  0  0  0  0  0  0  0  0
  -22.0910  -26.0528   20.9315 C   0  0  0  0  0  0  0  0  0  0  0  0
  -21.2105  -25.4951   18.6551 C   0  0  0  0  0  0  0  0  0  0  0  0
  -20.7389  -27.7291   19.6600 C   0  0  0  0  0  0  0  0  0  0  0  0
  -25.3738  -28.9092   14.7614 C   0  0  0  0  0  0  0  0  0  0  0  0
  -31.6987  -23.0209   20.2051 C   0  0  0  0  0  0  0  0  0  0  0  0
  -31.3812  -24.5054   20.1404 C   0  0  0  0  0  0  0  0  0  1  0  0
  -23.0729  -27.2063   18.8407 C   0  0  1  0  0  0  0  0  0  0  0  0
  -23.0535  -28.0701   15.1498 C   0  0  2  0  0  0  0  0  0  0  0  0
  -21.8063  -26.6211   19.5268 C   0  0  0  0  0  0  0  0  0  0  0  0
  -26.2139  -12.0136   21.1437 N   0  0  0  0  0  0  0  0  0  0  0  0
  -26.2994  -13.0958   20.3515 N   0  0  0  0  0  0  0  0  0  0  0  0
  -25.0413  -28.0742   20.0638 N   0  0  0  0  0  0  0  0  0  0  0  0
  -29.7406  -14.6799   19.8694 N   0  0  0  0  0  0  0  0  0  0  0  0
  -25.0395  -14.9011   19.4775 N   0  0  0  0  0  0  0  0  0  0  0  0
  -22.0409  -12.6677   22.0105 N   0  0  0  0  0  0  0  0  0  0  0  0
  -29.3192  -16.9972   19.7473 N   0  0  0  0  0  0  0  0  0  0  0  0
  -30.6395  -22.3103   20.8843 N   0  0  0  0  0  0  0  0  0  0  0  0
  -24.6913  -29.1563   23.2381 N   0  0  0  0  0  0  0  0  0  0  0  0
  -22.8278  -27.7760   17.5202 N   0  0  0  0  0  0  0  0  0  0  0  0
  -24.1953  -28.1995   14.2008 N   0  3  0  0  0  0  0  0  0  0  0  0
  -22.3305  -14.4705   20.6232 O   0  0  0  0  0  0  0  0  0  0  0  0
  -25.9954  -27.3195   22.6483 O   0  0  0  0  0  0  0  0  0  0  0  0
  -23.0735  -29.3170   19.9230 O   0  0  0  0  0  0  0  0  0  0  0  0
  -24.3226  -26.4208   16.3772 O   0  0  0  0  0  0  0  0  0  0  0  0
  -31.2895  -16.1031   18.9104 O   0  0  0  0  0  0  0  0  0  0  0  0
  -23.0188   -8.0482   24.9668 O   0  0  0  0  0  0  0  0  0  0  0  0
  -30.1654  -24.7006   19.4193 O   0  0  0  0  0  0  0  0  0  1  0  0
  -18.1421   -5.7688   23.7727 F   0  0  0  0  0  0  0  0  0  0  0  0
  -32.5912  -20.4484   20.3780 F   0  0  0  0  0  0  0  0  0  0  0  0
  -22.8014   -5.3346   24.4857 F   0  0  0  0  0  0  0  0  0  0  0  0
  -27.6706  -21.7101   20.8816 Cl  0  0  0  0  0  0  0  0  0  0  0  0
  1  2  1  0  0  0  0
  1  5  2  0  0  0  0
  2  6  2  0  0  0  0
  3  8  2  0  0  0  0
  3 17  1  0  0  0  0
  4  9  1  0  0  0  0
  4 17  2  0  0  0  0
  5 19  1  0  0  0  0
  6 21  1  0  0  0  0
  7 10  2  0  0  0  0
  7 20  1  0  0  0  0
  8 25  1  0  0  0  0
  9 25  2  0  0  0  0
 10 26  1  0  0  0  0
 11 12  2  0  0  0  0
 11 27  1  0  0  0  0
 12 28  1  0  0  0  0
 13 22  1  0  0  0  0
 13 26  2  0  0  0  0
 14 23  1  0  0  0  0
 14 29  2  0  0  0  0
 15 23  2  0  0  0  0
 15 31  1  0  0  0  0
 16 28  2  0  0  0  0
 16 30  1  0  0  0  0
 17 32  1  0  0  0  0
 18 32  1  0  0  0  0
 18 33  2  0  0  0  0
 18 34  1  0  0  0  0
 19 21  2  0  0  0  0
 19 39  1  0  0  0  0
 20 22  2  0  0  0  0
 20 40  1  0  0  0  0
 21 48  1  0  0  0  0
 22 41  1  0  0  0  0
 23 67  1  0  0  0  0
 24 29  1  0  0  0  0
 24 31  2  0  0  0  0
 24 68  1  0  0  0  0
 25 77  1  0  0  0  0
 26 78  1  0  0  0  0
 27 30  2  0  0  0  0
 27 77  1  0  0  0  0
 28 79  1  0  0  0  0
 29 80  1  0  0  0  0
 30 81  1  0  0  0  0
 31 82  1  0  0  0  0
 32 61  2  0  0  0  0
 33 62  1  0  0  0  0
 33 65  1  0  0  0  0
 34 66  1  0  0  0  0
 34 72  2  0  0  0  0
 35 49  1  0  0  0  0
 35 69  1  0  0  0  0
 35 73  2  0  0  0  0
 36 58  1  0  0  0  0
 36 63  1  0  0  0  0
 36 74  2  0  0  0  0
 37 59  1  0  0  0  0
 37 70  1  0  0  0  0
 37 75  2  0  0  0  0
 38 64  1  0  0  0  0
 38 67  1  0  0  0  0
 38 76  2  0  0  0  0
 39 42  1  0  0  0  0
 40 49  1  0  0  0  0
 41 63  1  0  0  0  0
 42 44  1  0  0  0  0
 43 45  1  0  0  0  0
 43 46  1  0  0  0  0
 44 48  1  0  0  0  0
 45 50  1  0  0  0  0
 46 64  1  0  0  0  0
 47 50  1  0  0  0  0
 47 64  1  0  0  0  0
 48 69  1  0  0  0  0
 49 63  1  0  0  0  0
 50 62  1  0  0  0  0
 51 59  1  0  0  0  0
 52 60  1  0  0  0  0
 53 60  1  0  0  0  0
 54 60  1  0  0  0  0
 55 71  1  0  0  0  0
 56 57  1  0  0  0  0
 56 68  1  0  0  0  0
 57 78  1  0  0  0  0
 58 60  1  0  0  0  0
 58 70  1  0  0  0  0
 59 71  1  0  0  0  0
 61 62  1  0  0  0  0
M  CHG  1  71   1
M  ISO  4  38 100  57 101  67 100  78 101
M  END
> <Batch ID>
0012

> <Smiles>
CNC(C)C(=O)NC(C(=O)N1Cc2cc([101O:1][101CH2:1]CNc3c(F)cc([100NH:0][100C:0](=O)N4CCCC(n5nc(-c6ccc(Oc7ccc(F)cc7F)cc6)c(C(N)=O)c5N)C4)cc3Cl)ccc2CC1C(=O)NC1CCCc2ccccc21)C(C)(C)C

> <Shape>
0.282

> <Color>
0.125

> <Negative vol penalty>
0.000

$$$$

  -OEChem-04052315473D

 85 93  0     1  0  0  0  0  0999 V2000
  -30.7113  -35.6067   20.8708 C   0  0  0  0  0  0  0  0  0  0  0  0
  -30.6283  -34.2729   20.4840 C   0  0  0  0  0  0  0  0  0  0  0  0
  -24.7387   -8.9529   21.3848 C   0  0  0  0  0  0  0  0  0  0  0  0
  -23.1507  -10.7735   21.4116 C   0  0  0  0  0  0  0  0  0  0  0  0
  -30.0349  -36.0447   22.0086 C   0  0  0  0  0  0  0  0  0  0  0  0
  -29.8697  -33.3761   21.2355 C   0  0  0  0  0  0  0  0  0  0  0  0
  -26.6281  -28.6271   19.1272 C   0  0  0  0  0  0  0  0  0  0  0  0
  -23.9991   -8.2934   22.3665 C   0  0  0  0  0  0  0  0  0  0  0  0
  -22.4111  -10.1140   22.3933 C   0  0  0  0  0  0  0  0  0  0  0  0
  -26.9039  -27.2626   19.0520 C   0  0  0  0  0  0  0  0  0  0  0  0
  -21.1830   -6.4292   22.5320 C   0  0  0  0  0  0  0  0  0  0  0  0
  -20.9438   -5.0662   22.3571 C   0  0  0  0  0  0  0  0  0  0  0  0
  -25.7215  -26.9155   21.1258 C   0  0  0  0  0  0  0  0  0  0  0  0
  -27.7762  -18.9519   18.8332 C   0  0  0  0  0  0  0  0  0  0  0  0
  -25.0825  -19.6667   18.9582 C   0  0  0  0  0  0  0  0  0  0  0  0
  -22.0929   -4.5986   24.4303 C   0  0  0  0  0  0  0  0  0  0  0  0
  -24.3145  -10.1930   20.9074 C   0  0  0  0  0  0  0  0  0  0  0  0
  -24.9283  -10.7650   18.4983 C   0  0  0  0  0  0  0  0  0  0  0  0
  -29.2598  -35.1549   22.7689 C   0  0  0  0  0  0  0  0  0  0  0  0
  -25.9050  -29.1486   20.2096 C   0  0  0  0  0  0  0  0  0  0  0  0
  -29.1834  -33.8024   22.3853 C   0  0  0  0  0  0  0  0  0  0  0  0
  -25.4356  -28.2866   21.2110 C   0  0  0  0  0  0  0  0  0  0  0  0
  -27.3385  -20.1298   18.2279 C   0  0  0  0  0  0  0  0  0  0  0  0
  -25.5203  -18.4887   19.5635 C   0  0  0  0  0  0  0  0  0  0  0  0
  -26.8671  -18.1313   19.5010 C   0  0  0  0  0  0  0  0  0  0  0  0
  -25.9916  -20.4872   18.2904 C   0  0  0  0  0  0  0  0  0  0  0  0
  -22.8353   -8.8739   22.8707 C   0  0  0  0  0  0  0  0  0  0  0  0
  -26.4531  -26.4069   20.0529 C   0  0  0  0  0  0  0  0  0  0  0  0
  -21.8773   -6.8769   23.6560 C   0  0  0  0  0  0  0  0  0  0  0  0
  -21.3987   -4.1509   23.3063 C   0  0  0  0  0  0  0  0  0  0  0  0
  -22.3322   -5.9616   24.6051 C   0  0  0  0  0  0  0  0  0  0  0  0
  -25.0783  -10.8750   19.8937 C   0  0  0  0  0  0  0  0  0  0  0  0
  -25.8834  -11.6068   17.9829 C   0  0  0  0  0  0  0  0  0  0  0  0
  -24.0078   -9.9728   17.7362 C   0  0  0  0  0  0  0  0  0  0  0  0
  -26.5238  -31.2409   22.5211 C   0  0  0  0  0  0  0  0  0  0  0  0
  -23.3820  -30.8199   23.2094 C   0  0  0  0  0  0  0  0  0  0  0  0
  -25.4848  -22.9269   18.3772 C   0  0  0  0  0  0  0  0  0  0  0  0
  -20.6165  -28.8290   23.0221 C   0  0  0  0  0  0  0  0  0  0  0  0
  -28.6394  -16.4547   20.1293 C   0  0  0  0  0  0  0  0  0  0  0  0
  -28.5849  -35.6647   24.0177 C   0  0  0  0  0  0  0  0  0  0  0  0
  -25.5927  -30.6190   20.2623 C   0  0  0  0  0  0  0  0  0  0  0  0
  -24.6377  -28.7935   22.3836 C   0  0  0  0  0  0  0  0  0  0  0  0
  -27.4992  -34.7315   24.5474 C   0  0  0  0  0  0  0  0  0  0  0  0
  -30.1844  -13.4551   18.9926 C   0  0  0  0  0  0  0  0  0  0  0  0
  -27.9989  -33.2905   24.5718 C   0  0  0  0  0  0  0  0  0  0  0  0
  -29.0354  -12.4446   18.9618 C   0  0  0  0  0  0  0  0  0  0  0  0
  -30.0618  -14.4176   20.1725 C   0  0  0  0  0  0  0  0  0  0  0  0
  -27.6205  -14.0961   20.2492 C   0  0  0  0  0  0  0  0  0  0  0  0
  -28.3505  -32.8046   23.1605 C   0  0  1  0  0  0  0  0  0  0  0  0
  -25.2901  -31.1154   21.6727 C   0  0  1  0  0  0  0  0  0  0  0  0
  -27.6655  -13.1464   19.0411 C   0  0  2  0  0  0  0  0  0  0  0  0
  -28.3341  -20.9886   17.5181 C   0  0  0  0  0  0  0  0  0  0  0  0
  -24.5250  -17.6285   20.2720 C   0  0  0  0  0  0  0  0  0  0  0  0
  -18.2046  -28.7379   23.7092 C   0  0  0  0  0  0  0  0  0  0  0  0
  -24.2239  -30.1747   26.0703 C   0  0  0  0  0  0  0  0  0  0  0  0
  -21.9526  -29.1893   26.4424 C   0  0  0  0  0  0  0  0  0  0  0  0
  -22.1839  -31.6089   25.8816 C   0  0  0  0  0  0  0  0  0  0  0  0
  -25.1770  -21.6215   16.2374 C   0  0  0  0  0  0  0  0  0  0  0  0
  -19.7010  -28.6837   20.2115 C   0  0  0  0  0  0  0  0  0  0  0  0
  -25.8251  -22.8402   19.8653 C   0  0  0  0  0  0  0  0  0  0  0  0
  -25.7723  -24.1887   20.5741 C   0  0  0  0  0  0  0  0  0  1  0  0
  -22.5971  -29.8758   24.0878 C   0  0  1  0  0  0  0  0  0  0  0  0
  -19.1852  -29.1288   22.6145 C   0  0  2  0  0  0  0  0  0  0  0  0
  -22.7561  -30.2026   25.5996 C   0  0  0  0  0  0  0  0  0  0  0  0
  -26.0521  -11.7200   20.2426 N   0  0  0  0  0  0  0  0  0  0  0  0
  -26.5228  -12.1484   19.0590 N   0  0  0  0  0  0  0  0  0  0  0  0
  -24.3636  -30.2399   22.3934 N   0  0  0  0  0  0  0  0  0  0  0  0
  -28.7400  -15.0483   20.1805 N   0  0  0  0  0  0  0  0  0  0  0  0
  -26.2304  -11.9290   16.7187 N   0  0  0  0  0  0  0  0  0  0  0  0
  -23.0933   -9.1640   18.4245 N   0  0  0  0  0  0  0  0  0  0  0  0
  -27.3318  -16.9388   20.1092 N   0  0  0  0  0  0  0  0  0  0  0  0
  -27.1486  -32.4698   22.4271 N   0  0  0  0  0  0  0  0  0  0  0  0
  -21.2201  -29.9215   23.6081 N   0  0  0  0  0  0  0  0  0  0  0  0
  -25.5173  -21.7061   17.6663 N   0  0  0  0  0  0  0  0  0  0  0  0
  -18.8312  -28.3784   21.3766 N   0  3  0  0  0  0  0  0  0  0  0  0
  -24.0076   -9.9694   16.4818 O   0  0  0  0  0  0  0  0  0  0  0  0
  -26.8816  -30.2934   23.2110 O   0  0  0  0  0  0  0  0  0  0  0  0
  -23.1284  -32.0267   23.2407 O   0  0  0  0  0  0  0  0  0  0  0  0
  -25.1770  -24.0173   17.8896 O   0  0  0  0  0  0  0  0  0  0  0  0
  -21.1448  -27.7340   22.8423 O   0  0  0  0  0  0  0  0  0  0  0  0
  -29.6393  -17.1755   20.0774 O   0  0  0  0  0  0  0  0  0  0  0  0
  -22.1133   -8.2305   23.8285 O   0  0  0  0  0  0  0  0  0  0  0  0
  -26.7216  -25.0747   19.9824 O   0  0  0  0  0  0  0  0  0  1  0  0
  -21.1675   -2.8422   23.1390 F   0  0  0  0  0  0  0  0  0  0  0  0
  -22.9987   -6.3858   25.6875 F   0  0  0  0  0  0  0  0  0  0  0  0
  1  2  1  0  0  0  0
  1  5  2  0  0  0  0
  2  6  2  0  0  0  0
  3  8  2  0  0  0  0
  3 17  1  0  0  0  0
  4  9  1  0  0  0  0
  4 17  2  0  0  0  0
  5 19  1  0  0  0  0
  6 21  1  0  0  0  0
  7 10  2  0  0  0  0
  7 20  1  0  0  0  0
  8 27  1  0  0  0  0
  9 27  2  0  0  0  0
 10 28  1  0  0  0  0
 11 12  2  0  0  0  0
 11 29  1  0  0  0  0
 12 30  1  0  0  0  0
 13 22  1  0  0  0  0
 13 28  2  0  0  0  0
 14 23  1  0  0  0  0
 14 25  2  0  0  0  0
 15 24  2  0  0  0  0
 15 26  1  0  0  0  0
 16 30  2  0  0  0  0
 16 31  1  0  0  0  0
 17 32  1  0  0  0  0
 18 32  1  0  0  0  0
 18 33  2  0  0  0  0
 18 34  1  0  0  0  0
 19 21  2  0  0  0  0
 19 40  1  0  0  0  0
 20 22  2  0  0  0  0
 20 41  1  0  0  0  0
 21 49  1  0  0  0  0
 22 42  1  0  0  0  0
 23 26  2  0  0  0  0
 23 52  1  0  0  0  0
 24 25  1  0  0  0  0
 24 53  1  0  0  0  0
 25 71  1  0  0  0  0
 26 74  1  0  0  0  0
 27 82  1  0  0  0  0
 28 83  1  0  0  0  0
 29 31  2  0  0  0  0
 29 82  1  0  0  0  0
 30 84  1  0  0  0  0
 31 85  1  0  0  0  0
 32 65  2  0  0  0  0
 33 66  1  0  0  0  0
 33 69  1  0  0  0  0
 34 70  1  0  0  0  0
 34 76  2  0  0  0  0
 35 50  1  0  0  0  0
 35 72  1  0  0  0  0
 35 77  2  0  0  0  0
 36 62  1  0  0  0  0
 36 67  1  0  0  0  0
 36 78  2  0  0  0  0
 37 60  1  0  0  0  0
 37 74  1  0  0  0  0
 37 79  2  0  0  0  0
 38 63  1  0  0  0  0
 38 73  1  0  0  0  0
 38 80  2  0  0  0  0
 39 68  1  0  0  0  0
 39 71  1  0  0  0  0
 39 81  2  0  0  0  0
 40 43  1  0  0  0  0
 41 50  1  0  0  0  0
 42 67  1  0  0  0  0
 43 45  1  0  0  0  0
 44 46  1  0  0  0  0
 44 47  1  0  0  0  0
 45 49  1  0  0  0  0
 46 51  1  0  0  0  0
 47 68  1  0  0  0  0
 48 51  1  0  0  0  0
 48 68  1  0  0  0  0
 49 72  1  0  0  0  0
 50 67  1  0  0  0  0
 51 66  1  0  0  0  0
 54 63  1  0  0  0  0
 55 64  1  0  0  0  0
 56 64  1  0  0  0  0
 57 64  1  0  0  0  0
 58 74  1  0  0  0  0
 59 75  1  0  0  0  0
 60 61  1  0  0  0  0
 61 83  1  0  0  0  0
 62 64  1  0  0  0  0
 62 73  1  0  0  0  0
 63 75  1  0  0  0  0
 65 66  1  0  0  0  0
M  CHG  1  75   1
M  ISO  4  39 100  61 101  71 100  83 101
M  END
> <Batch ID>
0012

> <Smiles>
CNC(C)C(=O)NC(C(=O)N1Cc2cc([101O:1][101CH2:1]CC(=O)N(C)c3cc(C)c([100NH:0][100C:0](=O)N4CCCC(n5nc(-c6ccc(Oc7ccc(F)cc7F)cc6)c(C(N)=O)c5N)C4)cc3C)ccc2CC1C(=O)NC1CCCc2ccccc21)C(C)(C)C

> <Shape>
0.259

> <Color>
0.105

> <Negative vol penalty>
0.000

$$$$

  -OEChem-04052315473D

 82 90  0     1  0  0  0  0  0999 V2000
  -39.5012  -28.8666   21.8463 C   0  0  0  0  0  0  0  0  0  0  0  0
  -38.4764  -28.1883   22.4984 C   0  0  0  0  0  0  0  0  0  0  0  0
  -23.0069   -9.8881   19.9653 C   0  0  0  0  0  0  0  0  0  0  0  0
  -23.7375   -9.9143   22.2680 C   0  0  0  0  0  0  0  0  0  0  0  0
  -39.3235  -29.3000   20.5331 C   0  0  0  0  0  0  0  0  0  0  0  0
  -37.2728  -27.9440   21.8380 C   0  0  0  0  0  0  0  0  0  0  0  0
  -35.6119  -23.2082   22.5148 C   0  0  0  0  0  0  0  0  0  0  0  0
  -32.6460  -17.4194   23.4917 C   0  0  0  0  0  0  0  0  0  0  0  0
  -32.0414  -16.5399   22.5938 C   0  0  0  0  0  0  0  0  0  0  0  0
  -22.2462   -8.7469   20.2196 C   0  0  0  0  0  0  0  0  0  0  0  0
  -22.9767   -8.7731   22.5224 C   0  0  0  0  0  0  0  0  0  0  0  0
  -34.9952  -22.9174   23.7309 C   0  0  0  0  0  0  0  0  0  0  0  0
  -23.2351   -5.4414   22.0092 C   0  0  0  0  0  0  0  0  0  0  0  0
  -23.8291   -4.4178   22.7474 C   0  0  0  0  0  0  0  0  0  0  0  0
  -32.8346  -23.1309   22.6795 C   0  0  0  0  0  0  0  0  0  0  0  0
  -30.4799  -18.3220   24.0664 C   0  0  0  0  0  0  0  0  0  0  0  0
  -22.1082   -4.6324   24.4296 C   0  0  0  0  0  0  0  0  0  0  0  0
  -23.7526  -10.4717   20.9895 C   0  0  0  0  0  0  0  0  0  0  0  0
  -24.1260  -12.9910   20.8432 C   0  0  0  0  0  0  0  0  0  0  0  0
  -38.1207  -29.0524   19.8530 C   0  0  0  0  0  0  0  0  0  0  0  0
  -34.8431  -23.4737   21.3725 C   0  0  0  0  0  0  0  0  0  0  0  0
  -37.0784  -28.3757   20.5149 C   0  0  0  0  0  0  0  0  0  0  0  0
  -33.4440  -23.4223   21.4495 C   0  0  0  0  0  0  0  0  0  0  0  0
  -29.8752  -17.4425   23.1684 C   0  0  0  0  0  0  0  0  0  0  0  0
  -31.8653  -18.3105   24.2281 C   0  0  0  0  0  0  0  0  0  0  0  0
  -30.6559  -16.5514   22.4321 C   0  0  0  0  0  0  0  0  0  0  0  0
  -22.2311   -8.1895   21.4981 C   0  0  0  0  0  0  0  0  0  0  0  0
  -33.6064  -22.8816   23.8141 C   0  0  0  0  0  0  0  0  0  0  0  0
  -22.0777   -6.0605   22.4812 C   0  0  0  0  0  0  0  0  0  0  0  0
  -23.2657   -4.0133   23.9576 C   0  0  0  0  0  0  0  0  0  0  0  0
  -21.5143   -5.6560   23.6914 C   0  0  0  0  0  0  0  0  0  0  0  0
  -24.5390  -11.6502   20.7272 C   0  0  0  0  0  0  0  0  0  0  0  0
  -25.2316  -13.7231   20.4850 C   0  0  0  0  0  0  0  0  0  0  0  0
  -22.8565  -13.5269   21.2394 C   0  0  0  0  0  0  0  0  0  0  0  0
  -34.4871  -25.9714   19.4390 C   0  0  0  0  0  0  0  0  0  0  0  0
  -32.6633  -23.8989   17.7358 C   0  0  0  0  0  0  0  0  0  0  0  0
  -30.7451  -21.0764   17.7064 C   0  0  0  0  0  0  0  0  0  0  0  0
  -30.7071  -14.7064   20.7176 C   0  0  0  0  0  0  0  0  0  0  0  0
  -37.9577  -29.5817   18.4502 C   0  0  0  0  0  0  0  0  0  0  0  0
  -35.5238  -23.7594   20.0620 C   0  0  0  0  0  0  0  0  0  0  0  0
  -32.5736  -23.6799   20.2476 C   0  0  0  0  0  0  0  0  0  0  0  0
  -36.7897  -28.9538   17.6940 C   0  0  0  0  0  0  0  0  0  0  0  0
  -29.5944  -12.2769   18.3646 C   0  0  0  0  0  0  0  0  0  0  0  0
  -35.5412  -28.9236   18.5700 C   0  0  0  0  0  0  0  0  0  0  0  0
  -28.1460  -12.0076   18.7790 C   0  0  0  0  0  0  0  0  0  0  0  0
  -30.4967  -12.5097   19.5751 C   0  0  0  0  0  0  0  0  0  0  0  0
  -28.5811  -13.2735   20.9227 C   0  0  0  0  0  0  0  0  0  0  0  0
  -35.7674  -28.0699   19.8236 C   0  0  1  0  0  0  0  0  0  0  0  0
  -34.6367  -24.5198   19.0811 C   0  0  1  0  0  0  0  0  0  0  0  0
  -27.6214  -13.0972   19.7346 C   0  0  2  0  0  0  0  0  0  0  0  0
  -28.3889  -17.4757   23.0166 C   0  0  0  0  0  0  0  0  0  0  0  0
  -29.3559  -19.6547   16.1747 C   0  0  0  0  0  0  0  0  0  0  0  0
  -30.4299  -25.9753   17.8380 C   0  0  0  0  0  0  0  0  0  0  0  0
  -28.8232  -24.1785   17.1612 C   0  0  0  0  0  0  0  0  0  0  0  0
  -30.6849  -24.8252   15.6320 C   0  0  0  0  0  0  0  0  0  0  0  0
  -32.4711  -18.7127   18.1456 C   0  0  0  0  0  0  0  0  0  0  0  0
  -32.6942  -20.9870   26.7513 C   0  0  0  0  0  0  0  0  0  0  0  0
  -31.7382  -20.1378   25.9223 C   0  0  0  0  0  0  0  0  0  0  0  0
  -33.7066  -21.7453   25.9009 C   0  0  0  0  0  0  0  0  0  1  0  0
  -31.2035  -23.5144   17.7307 C   0  0  1  0  0  0  0  0  0  0  0  0
  -30.7344  -19.8755   16.7779 C   0  0  2  0  0  0  0  0  0  0  0  0
  -30.3015  -24.6204   17.1137 C   0  0  0  0  0  0  0  0  0  0  0  0
  -25.8079  -11.5344   20.3265 N   0  0  0  0  0  0  0  0  0  0  0  0
  -26.2017  -12.8118   20.1875 N   0  0  0  0  0  0  0  0  0  0  0  0
  -33.2862  -23.9610   18.9904 N   0  0  0  0  0  0  0  0  0  0  0  0
  -29.9389  -13.5577   20.4326 N   0  0  0  0  0  0  0  0  0  0  0  0
  -25.4587  -15.0510   20.3985 N   0  0  0  0  0  0  0  0  0  0  0  0
  -21.8296  -12.6339   21.5746 N   0  0  0  0  0  0  0  0  0  0  0  0
  -30.0604  -15.6490   21.5162 N   0  0  0  0  0  0  0  0  0  0  0  0
  -32.4664  -19.1841   25.1208 N   0  0  0  0  0  0  0  0  0  0  0  0
  -35.6823  -26.6622   19.4985 N   0  0  0  0  0  0  0  0  0  0  0  0
  -31.1227  -22.2276   17.0480 N   0  0  0  0  0  0  0  0  0  0  0  0
  -31.1255  -18.6436   17.5199 N   0  3  0  0  0  0  0  0  0  0  0  0
  -22.6342  -14.7608   21.2787 O   0  0  0  0  0  0  0  0  0  0  0  0
  -33.3698  -26.4310   19.6444 O   0  0  0  0  0  0  0  0  0  0  0  0
  -33.2319  -24.1285   16.6655 O   0  0  0  0  0  0  0  0  0  0  0  0
  -30.4448  -21.0015   18.8958 O   0  0  0  0  0  0  0  0  0  0  0  0
  -31.8440  -14.8560   20.2625 O   0  0  0  0  0  0  0  0  0  0  0  0
  -21.4887   -7.0761   21.7467 O   0  0  0  0  0  0  0  0  0  0  0  0
  -33.0019  -22.5987   25.0000 O   0  0  0  0  0  0  0  0  0  1  0  0
  -23.8354   -3.0293   24.6657 F   0  0  0  0  0  0  0  0  0  0  0  0
  -20.4018   -6.2463   24.1493 F   0  0  0  0  0  0  0  0  0  0  0  0
  1  2  1  0  0  0  0
  1  5  2  0  0  0  0
  2  6  2  0  0  0  0
  3 10  2  0  0  0  0
  3 18  1  0  0  0  0
  4 11  1  0  0  0  0
  4 18  2  0  0  0  0
  5 20  1  0  0  0  0
  6 22  1  0  0  0  0
  7 12  2  0  0  0  0
  7 21  1  0  0  0  0
  8  9  2  0  0  0  0
  8 25  1  0  0  0  0
  9 26  1  0  0  0  0
 10 27  1  0  0  0  0
 11 27  2  0  0  0  0
 12 28  1  0  0  0  0
 13 14  2  0  0  0  0
 13 29  1  0  0  0  0
 14 30  1  0  0  0  0
 15 23  1  0  0  0  0
 15 28  2  0  0  0  0
 16 24  1  0  0  0  0
 16 25  2  0  0  0  0
 17 30  2  0  0  0  0
 17 31  1  0  0  0  0
 18 32  1  0  0  0  0
 19 32  1  0  0  0  0
 19 33  2  0  0  0  0
 19 34  1  0  0  0  0
 20 22  2  0  0  0  0
 20 39  1  0  0  0  0
 21 23  2  0  0  0  0
 21 40  1  0  0  0  0
 22 48  1  0  0  0  0
 23 41  1  0  0  0  0
 24 26  2  0  0  0  0
 24 51  1  0  0  0  0
 25 70  1  0  0  0  0
 26 69  1  0  0  0  0
 27 79  1  0  0  0  0
 28 80  1  0  0  0  0
 29 31  2  0  0  0  0
 29 79  1  0  0  0  0
 30 81  1  0  0  0  0
 31 82  1  0  0  0  0
 32 63  2  0  0  0  0
 33 64  1  0  0  0  0
 33 67  1  0  0  0  0
 34 68  1  0  0  0  0
 34 74  2  0  0  0  0
 35 49  1  0  0  0  0
 35 71  1  0  0  0  0
 35 75  2  0  0  0  0
 36 60  1  0  0  0  0
 36 65  1  0  0  0  0
 36 76  2  0  0  0  0
 37 61  1  0  0  0  0
 37 72  1  0  0  0  0
 37 77  2  0  0  0  0
 38 66  1  0  0  0  0
 38 69  1  0  0  0  0
 38 78  2  0  0  0  0
 39 42  1  0  0  0  0
 40 49  1  0  0  0  0
 41 65  1  0  0  0  0
 42 44  1  0  0  0  0
 43 45  1  0  0  0  0
 43 46  1  0  0  0  0
 44 48  1  0  0  0  0
 45 50  1  0  0  0  0
 46 66  1  0  0  0  0
 47 50  1  0  0  0  0
 47 66  1  0  0  0  0
 48 71  1  0  0  0  0
 49 65  1  0  0  0  0
 50 64  1  0  0  0  0
 52 61  1  0  0  0  0
 53 62  1  0  0  0  0
 54 62  1  0  0  0  0
 55 62  1  0  0  0  0
 56 73  1  0  0  0  0
 57 58  1  0  0  0  0
 57 59  1  0  0  0  0
 58 70  1  0  0  0  0
 59 80  1  0  0  0  0
 60 62  1  0  0  0  0
 60 72  1  0  0  0  0
 61 73  1  0  0  0  0
 63 64  1  0  0  0  0
M  CHG  1  73   1
M  ISO  4  38 100  59 101  69 100  80 101
M  END
> <Batch ID>
0012

> <Smiles>
CNC(C)C(=O)NC(C(=O)N1Cc2cc([101O:1][101CH2:1]CCNc3ccc([100NH:0][100C:0](=O)N4CCCC(n5nc(-c6ccc(Oc7ccc(F)cc7F)cc6)c(C(N)=O)c5N)C4)c(C)c3)ccc2CC1C(=O)NC1CCCc2ccccc21)C(C)(C)C

> <Shape>
0.207

> <Color>
0.204

> <Negative vol penalty>
0.000

$$$$

  -OEChem-04052315473D

 84 92  0     1  0  0  0  0  0999 V2000
  -29.1509  -29.4586   27.1293 C   0  0  0  0  0  0  0  0  0  0  0  0
  -28.7615  -28.6259   26.0850 C   0  0  0  0  0  0  0  0  0  0  0  0
  -23.2140  -10.4631   21.2456 C   0  0  0  0  0  0  0  0  0  0  0  0
  -24.8086   -8.7892   21.9471 C   0  0  0  0  0  0  0  0  0  0  0  0
  -28.2334  -30.3447   27.6921 C   0  0  0  0  0  0  0  0  0  0  0  0
  -27.4538  -28.6782   25.6037 C   0  0  0  0  0  0  0  0  0  0  0  0
  -27.2449  -28.6895   20.5439 C   0  0  0  0  0  0  0  0  0  0  0  0
  -22.2249   -9.4837   21.1566 C   0  0  0  0  0  0  0  0  0  0  0  0
  -23.8195   -7.8097   21.8581 C   0  0  0  0  0  0  0  0  0  0  0  0
  -27.4267  -27.4683   19.8964 C   0  0  0  0  0  0  0  0  0  0  0  0
  -21.2040   -6.7377   23.7103 C   0  0  0  0  0  0  0  0  0  0  0  0
  -21.1049   -5.8219   24.7577 C   0  0  0  0  0  0  0  0  0  0  0  0
  -25.0385  -27.2629   19.6258 C   0  0  0  0  0  0  0  0  0  0  0  0
  -29.8706  -19.1536   19.9018 C   0  0  0  0  0  0  0  0  0  0  0  0
  -27.4942  -20.3466   19.0579 C   0  0  0  0  0  0  0  0  0  0  0  0
  -21.5255   -4.0113   23.2143 C   0  0  0  0  0  0  0  0  0  0  0  0
  -24.5059  -10.1159   21.6408 C   0  0  0  0  0  0  0  0  0  0  0  0
  -25.8531  -11.9079   22.8579 C   0  0  0  0  0  0  0  0  0  0  0  0
  -26.9164  -30.4146   27.2110 C   0  0  0  0  0  0  0  0  0  0  0  0
  -25.9556  -29.2023   20.7473 C   0  0  0  0  0  0  0  0  0  0  0  0
  -26.5173  -29.5651   26.1616 C   0  0  0  0  0  0  0  0  0  0  0  0
  -24.8431  -28.4921   20.2739 C   0  0  0  0  0  0  0  0  0  0  0  0
  -28.7970  -18.3601   19.4978 C   0  0  0  0  0  0  0  0  0  0  0  0
  -28.5679  -21.1402   19.4619 C   0  0  0  0  0  0  0  0  0  0  0  0
  -22.5277   -8.1570   21.4628 C   0  0  0  0  0  0  0  0  0  0  0  0
  -26.3233  -26.7534   19.4398 C   0  0  0  0  0  0  0  0  0  0  0  0
  -21.4638   -6.2904   22.4149 C   0  0  0  0  0  0  0  0  0  0  0  0
  -21.2657   -4.4587   24.5097 C   0  0  0  0  0  0  0  0  0  0  0  0
  -29.7561  -20.5437   19.8839 C   0  0  0  0  0  0  0  0  0  0  0  0
  -21.6246   -4.9272   22.1669 C   0  0  0  0  0  0  0  0  0  0  0  0
  -27.6088  -18.9566   19.0759 C   0  0  0  0  0  0  0  0  0  0  0  0
  -25.5282  -11.1271   21.7325 C   0  0  0  0  0  0  0  0  0  0  0  0
  -26.8837  -12.7104   22.4331 C   0  0  0  0  0  0  0  0  0  0  0  0
  -25.2751  -11.9078   24.1700 C   0  0  0  0  0  0  0  0  0  0  0  0
  -24.2073  -29.9284   23.3007 C   0  0  0  0  0  0  0  0  0  0  0  0
  -22.1456  -31.0817   21.0777 C   0  0  0  0  0  0  0  0  0  0  0  0
  -27.3450  -23.3020   19.0556 C   0  0  0  0  0  0  0  0  0  0  0  0
  -21.0208  -31.0108   17.8565 C   0  0  0  0  0  0  0  0  0  0  0  0
  -28.8213  -16.1484   18.3563 C   0  0  0  0  0  0  0  0  0  0  0  0
  -25.9472  -31.3548   27.8828 C   0  0  0  0  0  0  0  0  0  0  0  0
  -25.7779  -30.5339   21.4238 C   0  0  0  0  0  0  0  0  0  0  0  0
  -23.4392  -29.0088   20.4492 C   0  0  0  0  0  0  0  0  0  0  0  0
  -24.6841  -31.6137   27.0655 C   0  0  0  0  0  0  0  0  0  0  0  0
  -29.6774  -12.5622   18.2298 C   0  0  0  0  0  0  0  0  0  0  0  0
  -24.1163  -30.3028   26.5308 C   0  0  0  0  0  0  0  0  0  0  0  0
  -28.6536  -11.9342   19.1740 C   0  0  0  0  0  0  0  0  0  0  0  0
  -29.1351  -13.8228   17.5629 C   0  0  0  0  0  0  0  0  0  0  0  0
  -27.6079  -14.2153   19.4718 C   0  0  0  0  0  0  0  0  0  0  0  0
  -25.1146  -29.6099   25.5955 C   0  0  1  0  0  0  0  0  0  0  0  0
  -24.3909  -30.7141   22.0331 C   0  0  1  0  0  0  0  0  0  0  0  0
  -28.1401  -12.9672   20.1920 C   0  0  1  0  0  0  0  0  0  0  0  0
  -19.2993  -32.0395   16.3480 C   0  0  0  0  0  0  0  0  0  0  0  0
  -19.9885  -29.3457   22.3595 C   0  0  0  0  0  0  0  0  0  0  0  0
  -18.6035  -29.6670   20.2988 C   0  0  0  0  0  0  0  0  0  0  0  0
  -19.2289  -31.6349   21.6984 C   0  0  0  0  0  0  0  0  0  0  0  0
  -29.4823  -16.3034   20.7456 C   0  0  0  0  0  0  0  0  0  0  0  0
  -23.0925  -32.1385   16.0689 C   0  0  0  0  0  0  0  0  0  0  0  0
  -27.6348  -24.7857   19.1865 C   0  0  0  0  0  0  0  0  0  1  0  0
  -20.9963  -30.5070   20.2855 C   0  0  1  0  0  0  0  0  0  0  0  0
  -20.7259  -32.1243   16.8677 C   0  0  2  0  0  0  0  0  0  0  0  0
  -19.7305  -30.2777   21.1588 C   0  0  0  0  0  0  0  0  0  0  0  0
  -26.2905  -11.4082   20.6723 N   0  0  0  0  0  0  0  0  0  0  0  0
  -27.1046  -12.3748   21.1297 N   0  0  0  0  0  0  0  0  0  0  0  0
  -23.3169  -30.3124   21.1224 N   0  0  0  0  0  0  0  0  0  0  0  0
  -28.6119  -14.7682   18.5498 N   0  0  0  0  0  0  0  0  0  0  0  0
  -27.6134  -13.6634   23.0510 N   0  0  0  0  0  0  0  0  0  0  0  0
  -24.2242  -11.0198   24.4370 N   0  0  0  0  0  0  0  0  0  0  0  0
  -28.4489  -22.5502   19.4431 N   0  0  0  0  0  0  0  0  0  0  0  0
  -25.1132  -30.2448   24.2950 N   0  0  0  0  0  0  0  0  0  0  0  0
  -20.7882  -31.4072   19.1565 N   0  0  0  0  0  0  0  0  0  0  0  0
  -28.9502  -16.9247   19.5283 N   0  0  0  0  0  0  0  0  0  0  0  0
  -21.6551  -32.0444   15.7053 N   0  3  0  0  0  0  0  0  0  0  0  0
  -25.6676  -12.6841   25.0738 O   0  0  0  0  0  0  0  0  0  0  0  0
  -23.3093  -29.0976   23.3719 O   0  0  0  0  0  0  0  0  0  0  0  0
  -22.0116  -32.1763   21.6304 O   0  0  0  0  0  0  0  0  0  0  0  0
  -26.2606  -22.8921   18.6549 O   0  0  0  0  0  0  0  0  0  0  0  0
  -21.4142  -29.8992   17.5099 O   0  0  0  0  0  0  0  0  0  0  0  0
  -28.9155  -16.6419   17.2261 O   0  0  0  0  0  0  0  0  0  0  0  0
  -21.5627   -7.2010   21.3763 O   0  0  0  0  0  0  0  0  0  0  0  0
  -26.4980  -25.5608   18.8081 O   0  0  0  0  0  0  0  0  0  1  0  0
  -21.1720   -3.5794   25.5158 F   0  0  0  0  0  0  0  0  0  0  0  0
  -30.7944  -21.2966   20.2744 F   0  0  0  0  0  0  0  0  0  0  0  0
  -21.8755   -4.4916   20.9247 F   0  0  0  0  0  0  0  0  0  0  0  0
  -26.2546  -18.0111   18.5684 Cl  0  0  0  0  0  0  0  0  0  0  0  0
  1  2  1  0  0  0  0
  1  5  2  0  0  0  0
  2  6  2  0  0  0  0
  3  8  2  0  0  0  0
  3 17  1  0  0  0  0
  4  9  1  0  0  0  0
  4 17  2  0  0  0  0
  5 19  1  0  0  0  0
  6 21  1  0  0  0  0
  7 10  2  0  0  0  0
  7 20  1  0  0  0  0
  8 25  1  0  0  0  0
  9 25  2  0  0  0  0
 10 26  1  0  0  0  0
 11 12  2  0  0  0  0
 11 27  1  0  0  0  0
 12 28  1  0  0  0  0
 13 22  1  0  0  0  0
 13 26  2  0  0  0  0
 14 23  2  0  0  0  0
 14 29  1  0  0  0  0
 15 24  1  0  0  0  0
 15 31  2  0  0  0  0
 16 28  2  0  0  0  0
 16 30  1  0  0  0  0
 17 32  1  0  0  0  0
 18 32  1  0  0  0  0
 18 33  2  0  0  0  0
 18 34  1  0  0  0  0
 19 21  2  0  0  0  0
 19 40  1  0  0  0  0
 20 22  2  0  0  0  0
 20 41  1  0  0  0  0
 21 49  1  0  0  0  0
 22 42  1  0  0  0  0
 23 31  1  0  0  0  0
 23 71  1  0  0  0  0
 24 29  2  0  0  0  0
 24 68  1  0  0  0  0
 25 79  1  0  0  0  0
 26 80  1  0  0  0  0
 27 30  2  0  0  0  0
 27 79  1  0  0  0  0
 28 81  1  0  0  0  0
 29 82  1  0  0  0  0
 30 83  1  0  0  0  0
 31 84  1  0  0  0  0
 32 62  2  0  0  0  0
 33 63  1  0  0  0  0
 33 66  1  0  0  0  0
 34 67  1  0  0  0  0
 34 73  2  0  0  0  0
 35 50  1  0  0  0  0
 35 69  1  0  0  0  0
 35 74  2  0  0  0  0
 36 59  1  0  0  0  0
 36 64  1  0  0  0  0
 36 75  2  0  0  0  0
 37 58  1  0  0  0  0
 37 68  1  0  0  0  0
 37 76  2  0  0  0  0
 38 60  1  0  0  0  0
 38 70  1  0  0  0  0
 38 77  2  0  0  0  0
 39 65  1  0  0  0  0
 39 71  1  0  0  0  0
 39 78  2  0  0  0  0
 40 43  1  0  0  0  0
 41 50  1  0  0  0  0
 42 64  1  0  0  0  0
 43 45  1  0  0  0  0
 44 46  1  0  0  0  0
 44 47  1  0  0  0  0
 45 49  1  0  0  0  0
 46 51  1  0  0  0  0
 47 65  1  0  0  0  0
 48 51  1  0  0  0  0
 48 65  1  0  0  0  0
 49 69  1  0  0  0  0
 50 64  1  0  0  0  0
 51 63  1  0  0  0  0
 52 60  1  0  0  0  0
 53 61  1  0  0  0  0
 54 61  1  0  0  0  0
 55 61  1  0  0  0  0
 56 71  1  0  0  0  0
 57 72  1  0  0  0  0
 58 80  1  0  0  0  0
 59 61  1  0  0  0  0
 59 70  1  0  0  0  0
 60 72  1  0  0  0  0
 62 63  1  0  0  0  0
M  CHG  1  72   1
M  ISO  4  39 100  58 101  71 100  80 101
M  END
> <Batch ID>
0012

> <Smiles>
CNC(C)C(=O)NC(C(=O)N1Cc2cc([101O:1][101CH2:1]C(=O)Nc3cc(Cl)c([100N:0](C)[100C:0](=O)N4CCCC(n5nc(-c6ccc(Oc7ccc(F)cc7F)cc6)c(C(N)=O)c5N)C4)cc3F)ccc2CC1C(=O)NC1CCCc2ccccc21)C(C)(C)C

> <Shape>
0.306

> <Color>
0.133

> <Negative vol penalty>
0.000

$$$$

  -OEChem-04052315473D

 85 93  0     1  0  0  0  0  0999 V2000
  -19.1306  -33.7349   20.6197 C   0  0  0  0  0  0  0  0  0  0  0  0
  -20.4310  -33.3704   20.2857 C   0  0  0  0  0  0  0  0  0  0  0  0
  -26.9550  -17.7025   20.4856 C   0  0  0  0  0  0  0  0  0  0  0  0
  -29.2087  -17.2513   21.2300 C   0  0  0  0  0  0  0  0  0  0  0  0
  -18.5253  -33.1932   21.7529 C   0  0  0  0  0  0  0  0  0  0  0  0
  -21.1272  -32.4647   21.0853 C   0  0  0  0  0  0  0  0  0  0  0  0
  -25.1763  -28.2645   19.2227 C   0  0  0  0  0  0  0  0  0  0  0  0
  -26.7040  -16.3322   20.4147 C   0  0  0  0  0  0  0  0  0  0  0  0
  -28.9578  -15.8810   21.1592 C   0  0  0  0  0  0  0  0  0  0  0  0
  -26.5701  -28.2532   19.1943 C   0  0  0  0  0  0  0  0  0  0  0  0
  -28.7922  -13.4990   18.7655 C   0  0  0  0  0  0  0  0  0  0  0  0
  -29.7622  -12.6924   18.1705 C   0  0  0  0  0  0  0  0  0  0  0  0
  -26.5976  -27.0807   21.3023 C   0  0  0  0  0  0  0  0  0  0  0  0
  -34.8528  -27.0531   22.3664 C   0  0  0  0  0  0  0  0  0  0  0  0
  -33.2256  -28.5791   21.4390 C   0  0  0  0  0  0  0  0  0  0  0  0
  -29.9968  -11.4540   20.2317 C   0  0  0  0  0  0  0  0  0  0  0  0
  -28.2074  -18.1620   20.8932 C   0  0  0  0  0  0  0  0  0  0  0  0
  -28.2704  -20.4219   22.0749 C   0  0  0  0  0  0  0  0  0  0  0  0
  -19.2110  -32.2731   22.5614 C   0  0  0  0  0  0  0  0  0  0  0  0
  -24.4816  -27.6927   20.2983 C   0  0  0  0  0  0  0  0  0  0  0  0
  -20.5310  -31.9112   22.2311 C   0  0  0  0  0  0  0  0  0  0  0  0
  -25.1948  -27.0838   21.3407 C   0  0  0  0  0  0  0  0  0  0  0  0
  -34.3573  -28.3488   22.2212 C   0  0  0  0  0  0  0  0  0  0  0  0
  -34.2166  -25.9876   21.7294 C   0  0  0  0  0  0  0  0  0  0  0  0
  -32.5893  -27.5137   20.8021 C   0  0  0  0  0  0  0  0  0  0  0  0
  -33.0848  -26.2179   20.9473 C   0  0  0  0  0  0  0  0  0  0  0  0
  -27.7054  -15.4215   20.7515 C   0  0  0  0  0  0  0  0  0  0  0  0
  -27.2810  -27.6637   20.2355 C   0  0  0  0  0  0  0  0  0  0  0  0
  -28.4245  -13.2832   20.0937 C   0  0  0  0  0  0  0  0  0  0  0  0
  -30.3645  -11.6699   18.9035 C   0  0  0  0  0  0  0  0  0  0  0  0
  -29.0268  -12.2607   20.8267 C   0  0  0  0  0  0  0  0  0  0  0  0
  -28.4674  -19.5774   20.9660 C   0  0  0  0  0  0  0  0  0  0  0  0
  -28.6646  -21.6623   21.6362 C   0  0  0  0  0  0  0  0  0  0  0  0
  -27.7754  -20.1128   23.3846 C   0  0  0  0  0  0  0  0  0  0  0  0
  -22.4853  -28.7883   22.5159 C   0  0  0  0  0  0  0  0  0  0  0  0
  -22.2285  -25.6464   23.2805 C   0  0  0  0  0  0  0  0  0  0  0  0
  -23.6137  -22.5280   23.2228 C   0  0  0  0  0  0  0  0  0  0  0  0
  -32.2425  -24.9623   18.9323 C   0  0  0  0  0  0  0  0  0  0  0  0
  -18.5322  -31.7505   23.8027 C   0  0  0  0  0  0  0  0  0  0  0  0
  -22.9775  -27.6895   20.3009 C   0  0  0  0  0  0  0  0  0  0  0  0
  -24.4961  -26.4382   22.5084 C   0  0  0  0  0  0  0  0  0  0  0  0
  -19.2041  -30.5113   24.3885 C   0  0  0  0  0  0  0  0  0  0  0  0
  -29.7643  -23.3129   16.9791 C   0  0  0  0  0  0  0  0  0  0  0  0
  -20.7154  -30.7060   24.4581 C   0  0  0  0  0  0  0  0  0  0  0  0
  -29.1897  -22.2635   17.9335 C   0  0  0  0  0  0  0  0  0  0  0  0
  -31.2677  -23.4974   17.1776 C   0  0  0  0  0  0  0  0  0  0  0  0
  -31.1073  -22.7285   19.5126 C   0  0  0  0  0  0  0  0  0  0  0  0
  -21.3099  -30.9129   23.0598 C   0  0  1  0  0  0  0  0  0  0  0  0
  -22.3828  -27.5327   21.6970 C   0  0  1  0  0  0  0  0  0  0  0  0
  -29.5843  -22.5545   19.3947 C   0  0  2  0  0  0  0  0  0  0  0  0
  -35.0384  -29.4878   22.9018 C   0  0  0  0  0  0  0  0  0  0  0  0
  -23.1843  -20.1678   23.9595 C   0  0  0  0  0  0  0  0  0  0  0  0
  -36.0328  -24.6251   22.8206 C   0  0  0  0  0  0  0  0  0  0  0  0
  -35.1891  -23.9943   20.5345 C   0  0  0  0  0  0  0  0  0  0  0  0
  -33.7958  -23.5742   22.5503 C   0  0  0  0  0  0  0  0  0  0  0  0
  -22.9373  -26.4148   26.1471 C   0  0  0  0  0  0  0  0  0  0  0  0
  -23.4220  -24.0007   26.6004 C   0  0  0  0  0  0  0  0  0  0  0  0
  -21.1216  -24.7071   25.9434 C   0  0  0  0  0  0  0  0  0  0  0  0
  -23.6614  -21.5272   20.4380 C   0  0  0  0  0  0  0  0  0  0  0  0
  -30.6610  -28.9592   20.1555 C   0  0  0  0  0  0  0  0  0  0  0  0
  -29.2884  -28.7348   19.5434 C   0  0  0  0  0  0  0  0  0  1  0  0
  -22.9614  -24.7088   24.2093 C   0  0  1  0  0  0  0  0  0  0  0  0
  -23.0399  -21.1780   22.8319 C   0  0  2  0  0  0  0  0  0  0  0  0
  -34.7716  -24.6109   21.9043 C   0  0  0  0  0  0  0  0  0  0  0  0
  -22.6241  -24.9716   25.7042 C   0  0  0  0  0  0  0  0  0  0  0  0
  -28.9491  -20.2264   19.9027 N   0  0  0  0  0  0  0  0  0  0  0  0
  -29.0581  -21.4920   20.3414 N   0  0  0  0  0  0  0  0  0  0  0  0
  -23.0247  -26.4663   22.4684 N   0  0  0  0  0  0  0  0  0  0  0  0
  -31.5659  -23.7740   18.5845 N   0  0  0  0  0  0  0  0  0  0  0  0
  -28.7094  -22.8712   22.2354 N   0  0  0  0  0  0  0  0  0  0  0  0
  -27.4159  -18.7880   23.6675 N   0  0  0  0  0  0  0  0  0  0  0  0
  -32.4416  -25.1328   20.3019 N   0  0  0  0  0  0  0  0  0  0  0  0
  -31.4672  -27.7665   20.0305 N   0  0  0  0  0  0  0  0  0  0  0  0
  -21.4148  -29.6487   22.3632 N   0  0  0  0  0  0  0  0  0  0  0  0
  -22.6497  -23.3579   23.7550 N   0  0  0  0  0  0  0  0  0  0  0  0
  -23.7423  -20.6449   21.6305 N   0  3  0  0  0  0  0  0  0  0  0  0
  -27.6400  -20.9886   24.2723 O   0  0  0  0  0  0  0  0  0  0  0  0
  -23.4625  -28.9630   23.2344 O   0  0  0  0  0  0  0  0  0  0  0  0
  -20.9949  -25.6461   23.2708 O   0  0  0  0  0  0  0  0  0  0  0  0
  -24.7993  -22.8161   23.0746 O   0  0  0  0  0  0  0  0  0  0  0  0
  -32.5936  -25.7824   18.0800 O   0  0  0  0  0  0  0  0  0  0  0  0
  -27.4608  -14.0843   20.6828 O   0  0  0  0  0  0  0  0  0  0  0  0
  -28.6416  -27.6519   20.2106 O   0  0  0  0  0  0  0  0  0  1  0  0
  -31.2949  -10.8945   18.3315 F   0  0  0  0  0  0  0  0  0  0  0  0
  -28.6769  -12.0478   22.1027 F   0  0  0  0  0  0  0  0  0  0  0  0
  1  2  1  0  0  0  0
  1  5  2  0  0  0  0
  2  6  2  0  0  0  0
  3  8  2  0  0  0  0
  3 17  1  0  0  0  0
  4  9  1  0  0  0  0
  4 17  2  0  0  0  0
  5 19  1  0  0  0  0
  6 21  1  0  0  0  0
  7 10  2  0  0  0  0
  7 20  1  0  0  0  0
  8 27  1  0  0  0  0
  9 27  2  0  0  0  0
 10 28  1  0  0  0  0
 11 12  2  0  0  0  0
 11 29  1  0  0  0  0
 12 30  1  0  0  0  0
 13 22  1  0  0  0  0
 13 28  2  0  0  0  0
 14 23  1  0  0  0  0
 14 24  2  0  0  0  0
 15 23  2  0  0  0  0
 15 25  1  0  0  0  0
 16 30  2  0  0  0  0
 16 31  1  0  0  0  0
 17 32  1  0  0  0  0
 18 32  1  0  0  0  0
 18 33  2  0  0  0  0
 18 34  1  0  0  0  0
 19 21  2  0  0  0  0
 19 39  1  0  0  0  0
 20 22  2  0  0  0  0
 20 40  1  0  0  0  0
 21 48  1  0  0  0  0
 22 41  1  0  0  0  0
 23 51  1  0  0  0  0
 24 26  1  0  0  0  0
 24 64  1  0  0  0  0
 25 26  2  0  0  0  0
 25 73  1  0  0  0  0
 26 72  1  0  0  0  0
 27 82  1  0  0  0  0
 28 83  1  0  0  0  0
 29 31  2  0  0  0  0
 29 82  1  0  0  0  0
 30 84  1  0  0  0  0
 31 85  1  0  0  0  0
 32 66  2  0  0  0  0
 33 67  1  0  0  0  0
 33 70  1  0  0  0  0
 34 71  1  0  0  0  0
 34 77  2  0  0  0  0
 35 49  1  0  0  0  0
 35 74  1  0  0  0  0
 35 78  2  0  0  0  0
 36 62  1  0  0  0  0
 36 68  1  0  0  0  0
 36 79  2  0  0  0  0
 37 63  1  0  0  0  0
 37 75  1  0  0  0  0
 37 80  2  0  0  0  0
 38 69  1  0  0  0  0
 38 72  1  0  0  0  0
 38 81  2  0  0  0  0
 39 42  1  0  0  0  0
 40 49  1  0  0  0  0
 41 68  1  0  0  0  0
 42 44  1  0  0  0  0
 43 45  1  0  0  0  0
 43 46  1  0  0  0  0
 44 48  1  0  0  0  0
 45 50  1  0  0  0  0
 46 69  1  0  0  0  0
 47 50  1  0  0  0  0
 47 69  1  0  0  0  0
 48 74  1  0  0  0  0
 49 68  1  0  0  0  0
 50 67  1  0  0  0  0
 52 63  1  0  0  0  0
 53 64  1  0  0  0  0
 54 64  1  0  0  0  0
 55 64  1  0  0  0  0
 56 65  1  0  0  0  0
 57 65  1  0  0  0  0
 58 65  1  0  0  0  0
 59 76  1  0  0  0  0
 60 61  1  0  0  0  0
 60 73  1  0  0  0  0
 61 83  1  0  0  0  0
 62 65  1  0  0  0  0
 62 75  1  0  0  0  0
 63 76  1  0  0  0  0
 66 67  1  0  0  0  0
M  CHG  1  76   1
M  ISO  4  38 100  61 101  72 100  83 101
M  END
> <Batch ID>
0012

> <Smiles>
CNC(C)C(=O)NC(C(=O)N1Cc2cc([101O:1][101CH2:1]CNc3cc(C)cc(C(C)(C)C)c3[100NH:0][100C:0](=O)N3CCCC(n4nc(-c5ccc(Oc6ccc(F)cc6F)cc5)c(C(N)=O)c4N)C3)ccc2CC1C(=O)NC1CCCc2ccccc21)C(C)(C)C

> <Shape>
0.204

> <Color>
0.089

> <Negative vol penalty>
0.000

$$$$

  -OEChem-04052315473D

 84 92  0     1  0  0  0  0  0999 V2000
  -28.4112  -24.5682   17.0494 C   0  0  0  0  0  0  0  0  0  0  0  0
  -27.2324  -24.7247   17.7715 C   0  0  0  0  0  0  0  0  0  0  0  0
  -27.5791  -14.6164   19.6994 C   0  0  0  0  0  0  0  0  0  0  0  0
  -25.2293  -15.0544   20.0511 C   0  0  0  0  0  0  0  0  0  0  0  0
  -29.5854  -25.1744   17.4940 C   0  0  0  0  0  0  0  0  0  0  0  0
  -27.2275  -25.4867   18.9394 C   0  0  0  0  0  0  0  0  0  0  0  0
  -23.2583  -28.6210   19.1974 C   0  0  0  0  0  0  0  0  0  0  0  0
  -21.7199  -24.0609   24.6560 C   0  0  0  0  0  0  0  0  0  0  0  0
  -27.3631  -13.2604   19.9450 C   0  0  0  0  0  0  0  0  0  0  0  0
  -25.0133  -13.6984   20.2967 C   0  0  0  0  0  0  0  0  0  0  0  0
  -22.0322  -28.0669   19.5624 C   0  0  0  0  0  0  0  0  0  0  0  0
  -25.4512  -11.5289   22.8525 C   0  0  0  0  0  0  0  0  0  0  0  0
  -24.6542  -11.1871   23.9450 C   0  0  0  0  0  0  0  0  0  0  0  0
  -22.6235  -23.5153   25.5678 C   0  0  0  0  0  0  0  0  0  0  0  0
  -22.3450  -28.8729   21.8144 C   0  0  0  0  0  0  0  0  0  0  0  0
  -23.1079  -10.0652   22.4661 C   0  0  0  0  0  0  0  0  0  0  0  0
  -26.5122  -15.5134   19.7525 C   0  0  0  0  0  0  0  0  0  0  0  0
  -26.6718  -17.5743   18.2575 C   0  0  0  0  0  0  0  0  0  0  0  0
  -29.5928  -25.9521   18.6626 C   0  0  0  0  0  0  0  0  0  0  0  0
  -24.0434  -29.2969   20.1425 C   0  0  0  0  0  0  0  0  0  0  0  0
  -28.4033  -26.1027   19.4007 C   0  0  0  0  0  0  0  0  0  0  0  0
  -23.5796  -29.4369   21.4583 C   0  0  0  0  0  0  0  0  0  0  0  0
  -21.9201  -23.8869   23.2866 C   0  0  0  0  0  0  0  0  0  0  0  0
  -23.9276  -22.6217   23.7407 C   0  0  0  0  0  0  0  0  0  0  0  0
  -26.0803  -12.8014   20.2436 C   0  0  0  0  0  0  0  0  0  0  0  0
  -21.5766  -28.1903   20.8717 C   0  0  0  0  0  0  0  0  0  0  0  0
  -25.0764  -11.1389   21.5667 C   0  0  0  0  0  0  0  0  0  0  0  0
  -23.4826  -10.4552   23.7518 C   0  0  0  0  0  0  0  0  0  0  0  0
  -23.9048  -10.4070   21.3735 C   0  0  0  0  0  0  0  0  0  0  0  0
  -23.7274  -22.7957   25.1102 C   0  0  0  0  0  0  0  0  0  0  0  0
  -23.0239  -23.1673   22.8289 C   0  0  0  0  0  0  0  0  0  0  0  0
  -26.7348  -16.9143   19.4994 C   0  0  0  0  0  0  0  0  0  0  0  0
  -26.9591  -18.8851   18.5504 C   0  0  0  0  0  0  0  0  0  0  0  0
  -26.3795  -17.0495   16.9557 C   0  0  0  0  0  0  0  0  0  0  0  0
  -26.9395  -28.8598   21.3777 C   0  0  0  0  0  0  0  0  0  0  0  0
  -26.3454  -31.7218   22.7842 C   0  0  0  0  0  0  0  0  0  0  0  0
  -19.8436  -25.1920   22.7132 C   0  0  0  0  0  0  0  0  0  0  0  0
  -24.0418  -33.9893   23.8791 C   0  0  0  0  0  0  0  0  0  0  0  0
  -26.3963  -22.1792   23.5039 C   0  0  0  0  0  0  0  0  0  0  0  0
  -30.8969  -26.5488   19.1293 C   0  0  0  0  0  0  0  0  0  0  0  0
  -25.3514  -29.9121   19.7264 C   0  0  0  0  0  0  0  0  0  0  0  0
  -24.3752  -30.1707   22.5057 C   0  0  0  0  0  0  0  0  0  0  0  0
  -30.7243  -27.6486   20.1737 C   0  0  0  0  0  0  0  0  0  0  0  0
  -29.3917  -21.5775   21.6756 C   0  0  0  0  0  0  0  0  0  0  0  0
  -29.7402  -27.2098   21.2534 C   0  0  0  0  0  0  0  0  0  0  0  0
  -29.0427  -20.3773   20.7926 C   0  0  0  0  0  0  0  0  0  0  0  0
  -28.7372  -21.4782   23.0524 C   0  0  0  0  0  0  0  0  0  0  0  0
  -26.9362  -20.0586   22.1522 C   0  0  0  0  0  0  0  0  0  0  0  0
  -28.3523  -26.9420   20.6589 C   0  0  1  0  0  0  0  0  0  0  0  0
  -26.3060  -30.1342   20.8955 C   0  0  1  0  0  0  0  0  0  0  0  0
  -27.5200  -20.1458   20.7326 C   0  0  2  0  0  0  0  0  0  0  0  0
  -23.8583  -36.2166   25.0205 C   0  0  0  0  0  0  0  0  0  0  0  0
  -27.0040  -30.4041   25.4562 C   0  0  0  0  0  0  0  0  0  0  0  0
  -25.9071  -32.3409   26.6025 C   0  0  0  0  0  0  0  0  0  0  0  0
  -27.9208  -32.7142   25.1783 C   0  0  0  0  0  0  0  0  0  0  0  0
  -22.6736  -35.2000   21.5508 C   0  0  0  0  0  0  0  0  0  0  0  0
  -19.1097  -25.6172   21.4465 C   0  0  0  0  0  0  0  0  0  0  0  0
  -19.9575  -26.4828   20.5268 C   0  0  0  0  0  0  0  0  0  1  0  0
  -25.7107  -32.1648   24.0803 C   0  0  1  0  0  0  0  0  0  0  0  0
  -23.9362  -35.4913   23.6861 C   0  0  2  0  0  0  0  0  0  0  0  0
  -26.6213  -31.8904   25.3103 C   0  0  0  0  0  0  0  0  0  0  0  0
  -27.0385  -17.7378   20.5062 N   0  0  0  0  0  0  0  0  0  0  0  0
  -27.1689  -18.9288   19.8973 N   0  0  0  0  0  0  0  0  0  0  0  0
  -25.6505  -30.7492   22.0515 N   0  0  0  0  0  0  0  0  0  0  0  0
  -27.2948  -21.2635   22.9167 N   0  0  0  0  0  0  0  0  0  0  0  0
  -27.0503  -19.9931   17.7845 N   0  0  0  0  0  0  0  0  0  0  0  0
  -26.1067  -15.6802   16.8331 N   0  0  0  0  0  0  0  0  0  0  0  0
  -20.9811  -24.4556   22.3934 N   0  0  0  0  0  0  0  0  0  0  0  0
  -25.0505  -21.8900   23.2809 N   0  0  0  0  0  0  0  0  0  0  0  0
  -27.6605  -28.1883   20.4088 N   0  0  0  0  0  0  0  0  0  0  0  0
  -25.3546  -33.5683   23.9017 N   0  0  0  0  0  0  0  0  0  0  0  0
  -22.7179  -35.8277   22.8965 N   0  3  0  0  0  0  0  0  0  0  0  0
  -26.3771  -17.7703   15.9290 O   0  0  0  0  0  0  0  0  0  0  0  0
  -26.7867  -28.5124   22.5428 O   0  0  0  0  0  0  0  0  0  0  0  0
  -27.4146  -32.2256   22.4313 O   0  0  0  0  0  0  0  0  0  0  0  0
  -19.4386  -25.4875   23.8326 O   0  0  0  0  0  0  0  0  0  0  0  0
  -23.0581  -33.2627   24.0016 O   0  0  0  0  0  0  0  0  0  0  0  0
  -26.7919  -23.1637   24.1334 O   0  0  0  0  0  0  0  0  0  0  0  0
  -25.8691  -11.4783   20.4831 O   0  0  0  0  0  0  0  0  0  0  0  0
  -20.3805  -27.6498   21.2308 O   0  0  0  0  0  0  0  0  0  1  0  0
  -22.7182  -10.1257   24.8013 F   0  0  0  0  0  0  0  0  0  0  0  0
  -23.5403  -10.0285   20.1408 F   0  0  0  0  0  0  0  0  0  0  0  0
  -24.8178  -22.1398   26.2801 Cl  0  0  0  0  0  0  0  0  0  0  0  0
  -23.2679  -22.9540   21.1228 Cl  0  0  0  0  0  0  0  0  0  0  0  0
  1  2  1  0  0  0  0
  1  5  2  0  0  0  0
  2  6  2  0  0  0  0
  3  9  2  0  0  0  0
  3 17  1  0  0  0  0
  4 10  1  0  0  0  0
  4 17  2  0  0  0  0
  5 19  1  0  0  0  0
  6 21  1  0  0  0  0
  7 11  2  0  0  0  0
  7 20  1  0  0  0  0
  8 14  2  0  0  0  0
  8 23  1  0  0  0  0
  9 25  1  0  0  0  0
 10 25  2  0  0  0  0
 11 26  1  0  0  0  0
 12 13  2  0  0  0  0
 12 27  1  0  0  0  0
 13 28  1  0  0  0  0
 14 30  1  0  0  0  0
 15 22  1  0  0  0  0
 15 26  2  0  0  0  0
 16 28  2  0  0  0  0
 16 29  1  0  0  0  0
 17 32  1  0  0  0  0
 18 32  1  0  0  0  0
 18 33  2  0  0  0  0
 18 34  1  0  0  0  0
 19 21  2  0  0  0  0
 19 40  1  0  0  0  0
 20 22  2  0  0  0  0
 20 41  1  0  0  0  0
 21 49  1  0  0  0  0
 22 42  1  0  0  0  0
 23 31  2  0  0  0  0
 23 68  1  0  0  0  0
 24 30  2  0  0  0  0
 24 31  1  0  0  0  0
 24 69  1  0  0  0  0
 25 79  1  0  0  0  0
 26 80  1  0  0  0  0
 27 29  2  0  0  0  0
 27 79  1  0  0  0  0
 28 81  1  0  0  0  0
 29 82  1  0  0  0  0
 30 83  1  0  0  0  0
 31 84  1  0  0  0  0
 32 62  2  0  0  0  0
 33 63  1  0  0  0  0
 33 66  1  0  0  0  0
 34 67  1  0  0  0  0
 34 73  2  0  0  0  0
 35 50  1  0  0  0  0
 35 70  1  0  0  0  0
 35 74  2  0  0  0  0
 36 59  1  0  0  0  0
 36 64  1  0  0  0  0
 36 75  2  0  0  0  0
 37 57  1  0  0  0  0
 37 68  1  0  0  0  0
 37 76  2  0  0  0  0
 38 60  1  0  0  0  0
 38 71  1  0  0  0  0
 38 77  2  0  0  0  0
 39 65  1  0  0  0  0
 39 69  1  0  0  0  0
 39 78  2  0  0  0  0
 40 43  1  0  0  0  0
 41 50  1  0  0  0  0
 42 64  1  0  0  0  0
 43 45  1  0  0  0  0
 44 46  1  0  0  0  0
 44 47  1  0  0  0  0
 45 49  1  0  0  0  0
 46 51  1  0  0  0  0
 47 65  1  0  0  0  0
 48 51  1  0  0  0  0
 48 65  1  0  0  0  0
 49 70  1  0  0  0  0
 50 64  1  0  0  0  0
 51 63  1  0  0  0  0
 52 60  1  0  0  0  0
 53 61  1  0  0  0  0
 54 61  1  0  0  0  0
 55 61  1  0  0  0  0
 56 72  1  0  0  0  0
 57 58  1  0  0  0  0
 58 80  1  0  0  0  0
 59 61  1  0  0  0  0
 59 71  1  0  0  0  0
 60 72  1  0  0  0  0
 62 63  1  0  0  0  0
M  CHG  1  72   1
M  ISO  4  39 100  58 101  69 100  80 101
M  END
> <Batch ID>
0012

> <Smiles>
CNC(C)C(=O)NC(C(=O)N1Cc2cc([101O:1][101CH2:1]CC(=O)Nc3ccc(Cl)c([100NH:0][100C:0](=O)N4CCCC(n5nc(-c6ccc(Oc7ccc(F)cc7F)cc6)c(C(N)=O)c5N)C4)c3Cl)ccc2CC1C(=O)NC1CCCc2ccccc21)C(C)(C)C

> <Shape>
0.288

> <Color>
0.070

> <Negative vol penalty>
0.000

$$$$

  -OEChem-04052315473D

 88 96  0     1  0  0  0  0  0999 V2000
  -26.5523  -37.5838   23.2151 C   0  0  0  0  0  0  0  0  0  0  0  0
  -27.2506  -36.4569   22.7935 C   0  0  0  0  0  0  0  0  0  0  0  0
  -25.1612  -13.4790   21.6165 C   0  0  0  0  0  0  0  0  0  0  0  0
  -26.1069  -13.4317   19.3938 C   0  0  0  0  0  0  0  0  0  0  0  0
  -25.3638  -37.4391   23.9296 C   0  0  0  0  0  0  0  0  0  0  0  0
  -26.7614  -35.1845   23.0870 C   0  0  0  0  0  0  0  0  0  0  0  0
  -27.1911  -30.1772   19.5874 C   0  0  0  0  0  0  0  0  0  0  0  0
  -25.0612  -12.0878   21.6037 C   0  0  0  0  0  0  0  0  0  0  0  0
  -26.0070  -12.0405   19.3809 C   0  0  0  0  0  0  0  0  0  0  0  0
  -28.0663  -29.0920   19.6060 C   0  0  0  0  0  0  0  0  0  0  0  0
  -24.2241   -8.5728   22.0127 C   0  0  0  0  0  0  0  0  0  0  0  0
  -23.0358   -8.0022   22.4686 C   0  0  0  0  0  0  0  0  0  0  0  0
  -26.4656  -27.8309   20.8969 C   0  0  0  0  0  0  0  0  0  0  0  0
  -24.7384  -22.6563   20.1660 C   0  0  0  0  0  0  0  0  0  0  0  0
  -25.8617  -22.3079   22.2764 C   0  0  0  0  0  0  0  0  0  0  0  0
  -21.8117   -9.1777   20.7491 C   0  0  0  0  0  0  0  0  0  0  0  0
  -25.6840  -14.1510   20.5116 C   0  0  0  0  0  0  0  0  0  0  0  0
  -26.8771  -16.3584   20.9713 C   0  0  0  0  0  0  0  0  0  0  0  0
  -24.8547  -36.1643   24.2237 C   0  0  0  0  0  0  0  0  0  0  0  0
  -25.9490  -30.1010   20.2338 C   0  0  0  0  0  0  0  0  0  0  0  0
  -25.5657  -35.0226   23.8073 C   0  0  0  0  0  0  0  0  0  0  0  0
  -25.5754  -28.9156   20.8829 C   0  0  0  0  0  0  0  0  0  0  0  0
  -25.9629  -22.9393   19.5609 C   0  0  0  0  0  0  0  0  0  0  0  0
  -24.6878  -22.3407   21.5238 C   0  0  0  0  0  0  0  0  0  0  0  0
  -27.0863  -22.5909   21.6713 C   0  0  0  0  0  0  0  0  0  0  0  0
  -27.1368  -22.9066   20.3136 C   0  0  0  0  0  0  0  0  0  0  0  0
  -25.4841  -11.3685   20.4859 C   0  0  0  0  0  0  0  0  0  0  0  0
  -27.7048  -27.9197   20.2633 C   0  0  0  0  0  0  0  0  0  0  0  0
  -24.2063   -9.4459   20.9250 C   0  0  0  0  0  0  0  0  0  0  0  0
  -21.8296   -8.3046   21.8368 C   0  0  0  0  0  0  0  0  0  0  0  0
  -23.0000   -9.7484   20.2932 C   0  0  0  0  0  0  0  0  0  0  0  0
  -25.7870  -15.5881   20.5241 C   0  0  0  0  0  0  0  0  0  0  0  0
  -26.4821  -17.6591   20.7746 C   0  0  0  0  0  0  0  0  0  0  0  0
  -28.1344  -15.9360   21.5158 C   0  0  0  0  0  0  0  0  0  0  0  0
  -24.5696  -31.6636   22.6336 C   0  0  0  0  0  0  0  0  0  0  0  0
  -21.9897  -29.8854   21.7943 C   0  0  0  0  0  0  0  0  0  0  0  0
  -28.8644  -24.5364   19.6555 C   0  0  0  0  0  0  0  0  0  0  0  0
  -20.7751  -27.0667   20.3022 C   0  0  0  0  0  0  0  0  0  0  0  0
  -22.3354  -21.4722   21.4660 C   0  0  0  0  0  0  0  0  0  0  0  0
  -23.5907  -36.0579   25.0396 C   0  0  0  0  0  0  0  0  0  0  0  0
  -25.0052  -31.2710   20.1817 C   0  0  0  0  0  0  0  0  0  0  0  0
  -24.2449  -28.7757   21.5747 C   0  0  0  0  0  0  0  0  0  0  0  0
  -22.9452  -34.6757   24.9853 C   0  0  0  0  0  0  0  0  0  0  0  0
  -22.5498  -19.6030   18.2797 C   0  0  0  0  0  0  0  0  0  0  0  0
  -23.9944  -33.5880   25.1925 C   0  0  0  0  0  0  0  0  0  0  0  0
  -23.4324  -18.4107   18.6445 C   0  0  0  0  0  0  0  0  0  0  0  0
  -21.7598  -20.1116   19.4817 C   0  0  0  0  0  0  0  0  0  0  0  0
  -23.5020  -19.2576   21.0234 C   0  0  0  0  0  0  0  0  0  0  0  0
  -25.0543  -33.6257   24.0849 C   0  0  1  0  0  0  0  0  0  0  0  0
  -23.9798  -31.2622   21.3113 C   0  0  1  0  0  0  0  0  0  0  0  0
  -24.3387  -18.7521   19.8387 C   0  0  1  0  0  0  0  0  0  0  0  0
  -25.9848  -23.2734   18.1043 C   0  0  0  0  0  0  0  0  0  0  0  0
  -18.6256  -25.8707   19.8058 C   0  0  0  0  0  0  0  0  0  0  0  0
  -27.8187  -23.4591   24.6359 C   0  0  0  0  0  0  0  0  0  0  0  0
  -29.6451  -21.7669   24.2531 C   0  0  0  0  0  0  0  0  0  0  0  0
  -21.8267  -28.9765   24.7024 C   0  0  0  0  0  0  0  0  0  0  0  0
  -20.3236  -27.1156   23.9638 C   0  0  0  0  0  0  0  0  0  0  0  0
  -19.6192  -29.4871   23.6438 C   0  0  0  0  0  0  0  0  0  0  0  0
  -29.1794  -22.1009   19.0852 C   0  0  0  0  0  0  0  0  0  0  0  0
  -23.1685  -22.6128   23.4752 C   0  0  0  0  0  0  0  0  0  0  0  0
  -21.2223  -27.2326   17.3813 C   0  0  0  0  0  0  0  0  0  0  0  0
  -27.9745  -25.5584   20.3483 C   0  0  0  0  0  0  0  0  0  1  0  0
  -21.4512  -28.5309   22.1872 C   0  0  1  0  0  0  0  0  0  0  0  0
  -19.6591  -26.8619   19.2937 C   0  0  2  0  0  0  0  0  0  0  0  0
  -28.2548  -22.2333   23.8467 C   0  0  0  0  0  0  0  0  0  0  0  0
  -20.8312  -28.5305   23.6130 C   0  0  0  0  0  0  0  0  0  0  0  0
  -24.7753  -16.3370   20.0771 N   0  0  0  0  0  0  0  0  0  0  0  0
  -25.2281  -17.5914   20.2426 N   0  0  0  0  0  0  0  0  0  0  0  0
  -23.3593  -29.9496   21.5012 N   0  0  0  0  0  0  0  0  0  0  0  0
  -22.6284  -20.3752   20.6300 N   0  0  0  0  0  0  0  0  0  0  0  0
  -27.0886  -18.8426   21.0067 N   0  0  0  0  0  0  0  0  0  0  0  0
  -28.3770  -14.5620   21.6490 N   0  0  0  0  0  0  0  0  0  0  0  0
  -28.2625  -22.5518   22.4541 N   0  0  0  0  0  0  0  0  0  0  0  0
  -24.5404  -33.0242   22.8730 N   0  0  0  0  0  0  0  0  0  0  0  0
  -20.5233  -28.1388   21.1319 N   0  0  0  0  0  0  0  0  0  0  0  0
  -28.4066  -23.2017   19.6811 N   0  0  0  0  0  0  0  0  0  0  0  0
  -23.4215  -22.0502   22.1506 N   0  0  0  0  0  0  0  0  0  0  0  0
  -20.2100  -26.3449   18.0092 N   0  3  0  0  0  0  0  0  0  0  0  0
  -29.0101  -16.7530   21.8887 O   0  0  0  0  0  0  0  0  0  0  0  0
  -25.0167  -30.8024   23.3821 O   0  0  0  0  0  0  0  0  0  0  0  0
  -21.2220  -30.8495   21.7422 O   0  0  0  0  0  0  0  0  0  0  0  0
  -29.9234  -24.9172   19.1503 O   0  0  0  0  0  0  0  0  0  0  0  0
  -21.7690  -26.3454   20.3514 O   0  0  0  0  0  0  0  0  0  0  0  0
  -21.1780  -21.8751   21.6355 O   0  0  0  0  0  0  0  0  0  0  0  0
  -25.3870  -10.0110   20.4731 O   0  0  0  0  0  0  0  0  0  0  0  0
  -28.5574  -26.8593   20.2836 O   0  0  0  0  0  0  0  0  0  1  0  0
  -20.6887   -7.7554   22.2737 F   0  0  0  0  0  0  0  0  0  0  0  0
  -22.9767  -10.5856   19.2471 F   0  0  0  0  0  0  0  0  0  0  0  0
  1  2  1  0  0  0  0
  1  5  2  0  0  0  0
  2  6  2  0  0  0  0
  3  8  2  0  0  0  0
  3 17  1  0  0  0  0
  4  9  1  0  0  0  0
  4 17  2  0  0  0  0
  5 19  1  0  0  0  0
  6 21  1  0  0  0  0
  7 10  2  0  0  0  0
  7 20  1  0  0  0  0
  8 27  1  0  0  0  0
  9 27  2  0  0  0  0
 10 28  1  0  0  0  0
 11 12  2  0  0  0  0
 11 29  1  0  0  0  0
 12 30  1  0  0  0  0
 13 22  1  0  0  0  0
 13 28  2  0  0  0  0
 14 23  2  0  0  0  0
 14 24  1  0  0  0  0
 15 24  2  0  0  0  0
 15 25  1  0  0  0  0
 16 30  2  0  0  0  0
 16 31  1  0  0  0  0
 17 32  1  0  0  0  0
 18 32  1  0  0  0  0
 18 33  2  0  0  0  0
 18 34  1  0  0  0  0
 19 21  2  0  0  0  0
 19 40  1  0  0  0  0
 20 22  2  0  0  0  0
 20 41  1  0  0  0  0
 21 49  1  0  0  0  0
 22 42  1  0  0  0  0
 23 26  1  0  0  0  0
 23 52  1  0  0  0  0
 24 77  1  0  0  0  0
 25 26  2  0  0  0  0
 25 73  1  0  0  0  0
 26 76  1  0  0  0  0
 27 85  1  0  0  0  0
 28 86  1  0  0  0  0
 29 31  2  0  0  0  0
 29 85  1  0  0  0  0
 30 87  1  0  0  0  0
 31 88  1  0  0  0  0
 32 67  2  0  0  0  0
 33 68  1  0  0  0  0
 33 71  1  0  0  0  0
 34 72  1  0  0  0  0
 34 79  2  0  0  0  0
 35 50  1  0  0  0  0
 35 74  1  0  0  0  0
 35 80  2  0  0  0  0
 36 63  1  0  0  0  0
 36 69  1  0  0  0  0
 36 81  2  0  0  0  0
 37 62  1  0  0  0  0
 37 76  1  0  0  0  0
 37 82  2  0  0  0  0
 38 64  1  0  0  0  0
 38 75  1  0  0  0  0
 38 83  2  0  0  0  0
 39 70  1  0  0  0  0
 39 77  1  0  0  0  0
 39 84  2  0  0  0  0
 40 43  1  0  0  0  0
 41 50  1  0  0  0  0
 42 69  1  0  0  0  0
 43 45  1  0  0  0  0
 44 46  1  0  0  0  0
 44 47  1  0  0  0  0
 45 49  1  0  0  0  0
 46 51  1  0  0  0  0
 47 70  1  0  0  0  0
 48 51  1  0  0  0  0
 48 70  1  0  0  0  0
 49 74  1  0  0  0  0
 50 69  1  0  0  0  0
 51 68  1  0  0  0  0
 53 64  1  0  0  0  0
 54 65  1  0  0  0  0
 55 65  1  0  0  0  0
 56 66  1  0  0  0  0
 57 66  1  0  0  0  0
 58 66  1  0  0  0  0
 59 76  1  0  0  0  0
 60 77  1  0  0  0  0
 61 78  1  0  0  0  0
 62 86  1  0  0  0  0
 63 66  1  0  0  0  0
 63 75  1  0  0  0  0
 64 78  1  0  0  0  0
 65 73  1  0  0  0  0
 67 68  1  0  0  0  0
M  CHG  1  78   1
M  ISO  4  39 100  62 101  77 100  86 101
M  END
> <Batch ID>
0012

> <Smiles>
CNC(C)C(=O)NC(C(=O)N1Cc2cc([101O:1][101CH2:1]C(=O)N(C)c3c(C)cc([100N:0](C)[100C:0](=O)N4CCCC(n5nc(-c6ccc(Oc7ccc(F)cc7F)cc6)c(C(N)=O)c5N)C4)cc3NC(C)C)ccc2CC1C(=O)NC1CCCc2ccccc21)C(C)(C)C

> <Shape>
0.285

> <Color>
0.088

> <Negative vol penalty>
0.000

$$$$

  -OEChem-04052315473D

 83 91  0     1  0  0  0  0  0999 V2000
  -27.0780  -35.0615   22.6813 C   0  0  0  0  0  0  0  0  0  0  0  0
  -27.4369  -33.7279   22.5136 C   0  0  0  0  0  0  0  0  0  0  0  0
  -26.3189  -11.9534   21.1235 C   0  0  0  0  0  0  0  0  0  0  0  0
  -25.7815  -13.7691   19.6229 C   0  0  0  0  0  0  0  0  0  0  0  0
  -25.8358  -35.3847   23.2258 C   0  0  0  0  0  0  0  0  0  0  0  0
  -26.5542  -32.7167   22.8913 C   0  0  0  0  0  0  0  0  0  0  0  0
  -26.2082  -29.0439   19.4220 C   0  0  0  0  0  0  0  0  0  0  0  0
  -24.9598  -11.7444   21.3573 C   0  0  0  0  0  0  0  0  0  0  0  0
  -24.4224  -13.5601   19.8568 C   0  0  0  0  0  0  0  0  0  0  0  0
  -27.2443  -28.1122   19.3756 C   0  0  0  0  0  0  0  0  0  0  0  0
  -22.3591  -10.2674   19.7801 C   0  0  0  0  0  0  0  0  0  0  0  0
  -21.8925   -8.9531   19.7604 C   0  0  0  0  0  0  0  0  0  0  0  0
  -25.8904  -26.5534   20.6231 C   0  0  0  0  0  0  0  0  0  0  0  0
  -31.5812  -21.0858   21.2358 C   0  0  0  0  0  0  0  0  0  0  0  0
  -30.0851  -21.8287   19.0015 C   0  0  0  0  0  0  0  0  0  0  0  0
  -21.1520   -9.1817   22.0488 C   0  0  0  0  0  0  0  0  0  0  0  0
  -26.7298  -12.9658   20.2563 C   0  0  0  0  0  0  0  0  0  0  0  0
  -28.9254  -12.5894   19.0132 C   0  0  0  0  0  0  0  0  0  0  0  0
  -24.9336  -34.3770   23.6015 C   0  0  0  0  0  0  0  0  0  0  0  0
  -25.0074  -28.7409   20.0799 C   0  0  0  0  0  0  0  0  0  0  0  0
  -25.2994  -33.0267   23.4426 C   0  0  0  0  0  0  0  0  0  0  0  0
  -24.8396  -27.4820   20.6742 C   0  0  0  0  0  0  0  0  0  0  0  0
  -31.1101  -20.1110   20.3565 C   0  0  0  0  0  0  0  0  0  0  0  0
  -30.5562  -22.8035   19.8809 C   0  0  0  0  0  0  0  0  0  0  0  0
  -24.0115  -12.5477   20.7240 C   0  0  0  0  0  0  0  0  0  0  0  0
  -27.0866  -26.8678   19.9787 C   0  0  0  0  0  0  0  0  0  0  0  0
  -22.2222  -11.0389   20.9341 C   0  0  0  0  0  0  0  0  0  0  0  0
  -21.2890   -8.4102   20.8948 C   0  0  0  0  0  0  0  0  0  0  0  0
  -30.3621  -20.4824   19.2393 C   0  0  0  0  0  0  0  0  0  0  0  0
  -31.3042  -22.4321   20.9981 C   0  0  0  0  0  0  0  0  0  0  0  0
  -21.6186  -10.4961   22.0684 C   0  0  0  0  0  0  0  0  0  0  0  0
  -28.1336  -13.1825   20.0147 C   0  0  0  0  0  0  0  0  0  0  0  0
  -30.1774  -13.1203   19.2059 C   0  0  0  0  0  0  0  0  0  0  0  0
  -28.5616  -11.6432   17.9992 C   0  0  0  0  0  0  0  0  0  0  0  0
  -23.4479  -29.9499   22.5718 C   0  0  0  0  0  0  0  0  0  0  0  0
  -21.1652  -27.8252   21.6788 C   0  0  0  0  0  0  0  0  0  0  0  0
  -20.3816  -24.9221   20.0648 C   0  0  0  0  0  0  0  0  0  0  0  0
  -32.1196  -18.2087   21.6637 C   0  0  0  0  0  0  0  0  0  0  0  0
  -23.6213  -34.7748   24.2295 C   0  0  0  0  0  0  0  0  0  0  0  0
  -23.8894  -29.7469   20.0980 C   0  0  0  0  0  0  0  0  0  0  0  0
  -23.5626  -27.1000   21.3754 C   0  0  0  0  0  0  0  0  0  0  0  0
  -22.5926  -33.6473   24.2569 C   0  0  0  0  0  0  0  0  0  0  0  0
  -33.0023  -14.9002   22.6390 C   0  0  0  0  0  0  0  0  0  0  0  0
  -23.2313  -32.3538   24.7527 C   0  0  0  0  0  0  0  0  0  0  0  0
  -31.9295  -14.0297   21.9805 C   0  0  0  0  0  0  0  0  0  0  0  0
  -32.4310  -16.2284   23.1321 C   0  0  0  0  0  0  0  0  0  0  0  0
  -30.6197  -16.1287   21.4652 C   0  0  0  0  0  0  0  0  0  0  0  0
  -24.3592  -31.9016   23.8173 C   0  0  1  0  0  0  0  0  0  0  0  0
  -22.9018  -29.5222   21.2389 C   0  0  1  0  0  0  0  0  0  0  0  0
  -31.1609  -14.8077   20.8945 C   0  0  2  0  0  0  0  0  0  0  0  0
  -18.4388  -23.4239   19.5377 C   0  0  0  0  0  0  0  0  0  0  0  0
  -30.4078  -24.6134   17.2760 C   0  0  0  0  0  0  0  0  0  0  0  0
  -21.2082  -26.7668   24.5403 C   0  0  0  0  0  0  0  0  0  0  0  0
  -20.0037  -24.7270   23.7299 C   0  0  0  0  0  0  0  0  0  0  0  0
  -18.9263  -26.9686   23.5368 C   0  0  0  0  0  0  0  0  0  0  0  0
  -20.7366  -25.2936   17.1502 C   0  0  0  0  0  0  0  0  0  0  0  0
  -28.9613  -25.9991   18.8010 C   0  0  0  0  0  0  0  0  0  1  0  0
  -20.8562  -26.3854   22.0111 C   0  0  1  0  0  0  0  0  0  0  0  0
  -19.2915  -24.5898   19.0620 C   0  0  2  0  0  0  0  0  0  0  0  0
  -29.5110  -24.6050   18.5069 C   0  0  2  0  0  0  0  0  0  0  0  0
  -20.2735  -26.2195   23.4431 C   0  0  0  0  0  0  0  0  0  0  0  0
  -28.8247  -14.0256   20.7866 N   0  0  0  0  0  0  0  0  0  0  0  0
  -30.0639  -13.9659   20.2700 N   0  0  0  0  0  0  0  0  0  0  0  0
  -22.5010  -28.1201   21.3716 N   0  0  0  0  0  0  0  0  0  0  0  0
  -31.7206  -16.9113   22.0486 N   0  0  0  0  0  0  0  0  0  0  0  0
  -31.3532  -12.9416   18.5674 N   0  0  0  0  0  0  0  0  0  0  0  0
  -27.2325  -11.2022   17.9428 N   0  0  0  0  0  0  0  0  0  0  0  0
  -31.3923  -18.7441   20.6011 N   0  0  0  0  0  0  0  0  0  0  0  0
  -30.2800  -24.1373   19.6428 N   0  0  0  0  0  0  0  0  0  0  0  0
  -23.8125  -31.2815   22.6294 N   0  0  0  0  0  0  0  0  0  0  0  0
  -19.9805  -25.9004   20.9498 N   0  0  0  0  0  0  0  0  0  0  0  0
  -19.8908  -24.2278   17.7464 N   0  3  0  0  0  0  0  0  0  0  0  0
  -29.3944  -11.1894   17.1782 O   0  0  0  0  0  0  0  0  0  0  0  0
  -23.5308  -29.1327   23.4811 O   0  0  0  0  0  0  0  0  0  0  0  0
  -20.2536  -28.6562   21.6845 O   0  0  0  0  0  0  0  0  0  0  0  0
  -21.4780  -24.3667   20.0655 O   0  0  0  0  0  0  0  0  0  0  0  0
  -33.0565  -18.7904   22.2166 O   0  0  0  0  0  0  0  0  0  0  0  0
  -22.6852  -12.3439   20.9518 O   0  0  0  0  0  0  0  0  0  0  0  0
  -28.0966  -25.9568   19.9354 O   0  0  0  0  0  0  0  0  0  1  0  0
  -20.8396   -7.1485   20.8753 F   0  0  0  0  0  0  0  0  0  0  0  0
  -29.9023  -19.5537   18.3887 F   0  0  0  0  0  0  0  0  0  0  0  0
  -31.7612  -23.3612   21.8498 F   0  0  0  0  0  0  0  0  0  0  0  0
  -21.4832  -11.2328   23.1796 F   0  0  0  0  0  0  0  0  0  0  0  0
  1  2  1  0  0  0  0
  1  5  2  0  0  0  0
  2  6  2  0  0  0  0
  3  8  2  0  0  0  0
  3 17  1  0  0  0  0
  4  9  1  0  0  0  0
  4 17  2  0  0  0  0
  5 19  1  0  0  0  0
  6 21  1  0  0  0  0
  7 10  2  0  0  0  0
  7 20  1  0  0  0  0
  8 25  1  0  0  0  0
  9 25  2  0  0  0  0
 10 26  1  0  0  0  0
 11 12  2  0  0  0  0
 11 27  1  0  0  0  0
 12 28  1  0  0  0  0
 13 22  1  0  0  0  0
 13 26  2  0  0  0  0
 14 23  2  0  0  0  0
 14 30  1  0  0  0  0
 15 24  1  0  0  0  0
 15 29  2  0  0  0  0
 16 28  2  0  0  0  0
 16 31  1  0  0  0  0
 17 32  1  0  0  0  0
 18 32  1  0  0  0  0
 18 33  2  0  0  0  0
 18 34  1  0  0  0  0
 19 21  2  0  0  0  0
 19 39  1  0  0  0  0
 20 22  2  0  0  0  0
 20 40  1  0  0  0  0
 21 48  1  0  0  0  0
 22 41  1  0  0  0  0
 23 29  1  0  0  0  0
 23 68  1  0  0  0  0
 24 30  2  0  0  0  0
 24 69  1  0  0  0  0
 25 78  1  0  0  0  0
 26 79  1  0  0  0  0
 27 31  2  0  0  0  0
 27 78  1  0  0  0  0
 28 80  1  0  0  0  0
 29 81  1  0  0  0  0
 30 82  1  0  0  0  0
 31 83  1  0  0  0  0
 32 62  2  0  0  0  0
 33 63  1  0  0  0  0
 33 66  1  0  0  0  0
 34 67  1  0  0  0  0
 34 73  2  0  0  0  0
 35 49  1  0  0  0  0
 35 70  1  0  0  0  0
 35 74  2  0  0  0  0
 36 58  1  0  0  0  0
 36 64  1  0  0  0  0
 36 75  2  0  0  0  0
 37 59  1  0  0  0  0
 37 71  1  0  0  0  0
 37 76  2  0  0  0  0
 38 65  1  0  0  0  0
 38 68  1  0  0  0  0
 38 77  2  0  0  0  0
 39 42  1  0  0  0  0
 40 49  1  0  0  0  0
 41 64  1  0  0  0  0
 42 44  1  0  0  0  0
 43 45  1  0  0  0  0
 43 46  1  0  0  0  0
 44 48  1  0  0  0  0
 45 50  1  0  0  0  0
 46 65  1  0  0  0  0
 47 50  1  0  0  0  0
 47 65  1  0  0  0  0
 48 70  1  0  0  0  0
 49 64  1  0  0  0  0
 50 63  1  0  0  0  0
 51 59  1  0  0  0  0
 52 60  1  0  0  0  0
 53 61  1  0  0  0  0
 54 61  1  0  0  0  0
 55 61  1  0  0  0  0
 56 72  1  0  0  0  0
 57 60  1  0  0  0  0
 57 79  1  0  0  0  0
 58 61  1  0  0  0  0
 58 71  1  0  0  0  0
 59 72  1  0  0  0  0
 60 69  1  0  0  0  0
 62 63  1  0  0  0  0
M  CHG  1  72   1
M  ISO  4  38 100  57 101  68 100  79 101
M  END
> <Batch ID>
0012

> <Smiles>
CNC(C)C(=O)NC(C(=O)N1Cc2cc([101O:1][101CH2:1]C(C)Nc3cc(F)c([100NH:0][100C:0](=O)N4CCCC(n5nc(-c6ccc(Oc7ccc(F)cc7F)cc6)c(C(N)=O)c5N)C4)cc3F)ccc2CC1C(=O)NC1CCCc2ccccc21)C(C)(C)C

> <Shape>
0.337

> <Color>
0.076

> <Negative vol penalty>
0.000

$$$$

  -OEChem-04052315473D

 89 97  0     1  0  0  0  0  0999 V2000
  -28.5571  -25.0010   16.4954 C   0  0  0  0  0  0  0  0  0  0  0  0
  -27.3244  -25.1720   17.1172 C   0  0  0  0  0  0  0  0  0  0  0  0
  -26.8150  -12.6734   21.0650 C   0  0  0  0  0  0  0  0  0  0  0  0
  -24.9126  -14.0031   20.3945 C   0  0  0  0  0  0  0  0  0  0  0  0
  -29.7191  -25.4571   17.1164 C   0  0  0  0  0  0  0  0  0  0  0  0
  -27.2532  -25.7982   18.3611 C   0  0  0  0  0  0  0  0  0  0  0  0
  -23.5071  -29.1965   18.6134 C   0  0  0  0  0  0  0  0  0  0  0  0
  -26.0093  -11.5351   21.0937 C   0  0  0  0  0  0  0  0  0  0  0  0
  -24.1068  -12.8649   20.4231 C   0  0  0  0  0  0  0  0  0  0  0  0
  -22.2143  -28.7067   18.7939 C   0  0  0  0  0  0  0  0  0  0  0  0
  -23.7369  -10.1443   23.1736 C   0  0  0  0  0  0  0  0  0  0  0  0
  -23.8622   -9.2899   24.2690 C   0  0  0  0  0  0  0  0  0  0  0  0
  -22.3503  -29.2312   21.1446 C   0  0  0  0  0  0  0  0  0  0  0  0
  -22.6452  -23.0188   24.6370 C   0  0  0  0  0  0  0  0  0  0  0  0
  -24.4997   -7.4883   22.7909 C   0  0  0  0  0  0  0  0  0  0  0  0
  -26.2666  -13.9074   20.7154 C   0  0  0  0  0  0  0  0  0  0  0  0
  -27.8308  -15.5799   19.5912 C   0  0  0  0  0  0  0  0  0  0  0  0
  -29.6610  -26.0979   18.3641 C   0  0  0  0  0  0  0  0  0  0  0  0
  -24.2365  -29.6980   19.7009 C   0  0  0  0  0  0  0  0  0  0  0  0
  -28.4156  -26.2621   19.0000 C   0  0  0  0  0  0  0  0  0  0  0  0
  -23.6512  -29.7291   20.9747 C   0  0  0  0  0  0  0  0  0  0  0  0
  -23.0620  -22.8901   23.3121 C   0  0  0  0  0  0  0  0  0  0  0  0
  -24.8933  -21.4846   24.0248 C   0  0  0  0  0  0  0  0  0  0  0  0
  -24.6552  -11.6309   20.7727 C   0  0  0  0  0  0  0  0  0  0  0  0
  -21.6368  -28.7214   20.0601 C   0  0  0  0  0  0  0  0  0  0  0  0
  -23.9929   -9.6706   21.8868 C   0  0  0  0  0  0  0  0  0  0  0  0
  -24.2436   -7.9619   24.0777 C   0  0  0  0  0  0  0  0  0  0  0  0
  -23.3524  -22.3804   25.6558 C   0  0  0  0  0  0  0  0  0  0  0  0
  -24.3743   -8.3427   21.6954 C   0  0  0  0  0  0  0  0  0  0  0  0
  -24.1860  -22.1230   23.0060 C   0  0  0  0  0  0  0  0  0  0  0  0
  -24.4765  -21.6133   25.3497 C   0  0  0  0  0  0  0  0  0  0  0  0
  -27.0983  -15.0837   20.6862 C   0  0  0  0  0  0  0  0  0  0  0  0
  -28.4481  -16.7079   20.0739 C   0  0  0  0  0  0  0  0  0  0  0  0
  -27.9431  -15.0670   18.2570 C   0  0  0  0  0  0  0  0  0  0  0  0
  -26.9531  -28.8938   21.1421 C   0  0  0  0  0  0  0  0  0  0  0  0
  -26.4194  -31.6217   22.8141 C   0  0  0  0  0  0  0  0  0  0  0  0
  -20.6714  -24.8715   21.1958 C   0  0  0  0  0  0  0  0  0  0  0  0
  -24.1798  -33.9338   23.9478 C   0  0  0  0  0  0  0  0  0  0  0  0
  -27.1525  -20.4854   24.5188 C   0  0  0  0  0  0  0  0  0  0  0  0
  -30.9490  -26.5317   19.0181 C   0  0  0  0  0  0  0  0  0  0  0  0
  -25.6200  -30.2473   19.4847 C   0  0  0  0  0  0  0  0  0  0  0  0
  -24.3846  -30.2757   22.1713 C   0  0  0  0  0  0  0  0  0  0  0  0
  -30.7475  -27.5199   20.1640 C   0  0  0  0  0  0  0  0  0  0  0  0
  -30.1485  -18.6010   24.1308 C   0  0  0  0  0  0  0  0  0  0  0  0
  -29.6298  -27.0459   21.0874 C   0  0  0  0  0  0  0  0  0  0  0  0
  -29.7747  -17.5341   23.0993 C   0  0  0  0  0  0  0  0  0  0  0  0
  -28.9884  -18.9064   25.0767 C   0  0  0  0  0  0  0  0  0  0  0  0
  -27.3495  -18.1853   23.3846 C   0  0  0  0  0  0  0  0  0  0  0  0
  -28.2947  -26.9587   20.3380 C   0  0  1  0  0  0  0  0  0  0  0  0
  -26.4630  -30.2607   20.7562 C   0  0  1  0  0  0  0  0  0  0  0  0
  -28.4653  -17.8908   22.3687 C   0  0  2  0  0  0  0  0  0  0  0  0
  -24.0364  -36.0290   25.3214 C   0  0  0  0  0  0  0  0  0  0  0  0
  -18.4467  -25.1895   19.1576 C   0  0  0  0  0  0  0  0  0  0  0  0
  -26.7072  -29.9680   25.3622 C   0  0  0  0  0  0  0  0  0  0  0  0
  -25.6366  -31.8490   26.6207 C   0  0  0  0  0  0  0  0  0  0  0  0
  -27.8067  -32.2126   25.4456 C   0  0  0  0  0  0  0  0  0  0  0  0
  -18.9004  -26.0508   22.5344 C   0  0  0  0  0  0  0  0  0  0  0  0
  -23.1453  -35.5011   21.6604 C   0  0  0  0  0  0  0  0  0  0  0  0
  -21.1897  -24.3361   22.5190 C   0  0  0  0  0  0  0  0  0  0  0  0
  -19.9462  -27.1995   19.3661 C   0  0  0  0  0  0  0  0  0  1  0  0
  -25.6878  -31.9689   24.0882 C   0  0  1  0  0  0  0  0  0  0  0  0
  -24.1997  -35.4515   23.9241 C   0  0  2  0  0  0  0  0  0  0  0  0
  -18.9480  -26.2914   20.0820 C   0  0  2  0  0  0  0  0  0  0  0  0
  -26.4462  -31.4875   25.3572 C   0  0  0  0  0  0  0  0  0  0  0  0
  -27.2365  -15.8348   21.7819 N   0  0  0  0  0  0  0  0  0  0  0  0
  -28.0631  -16.8145   21.3779 N   0  0  0  0  0  0  0  0  0  0  0  0
  -25.7370  -30.7955   21.9100 N   0  0  0  0  0  0  0  0  0  0  0  0
  -27.7833  -19.2400   24.3143 N   0  0  0  0  0  0  0  0  0  0  0  0
  -29.2773  -17.6091   19.5058 N   0  0  0  0  0  0  0  0  0  0  0  0
  -27.2426  -13.8982   17.9293 N   0  0  0  0  0  0  0  0  0  0  0  0
  -26.0347  -20.7045   23.7143 N   0  0  0  0  0  0  0  0  0  0  0  0
  -22.3549  -23.5281   22.2988 N   0  0  0  0  0  0  0  0  0  0  0  0
  -27.7209  -28.2770   20.1727 N   0  0  0  0  0  0  0  0  0  0  0  0
  -25.4508  -33.4077   24.0436 N   0  0  0  0  0  0  0  0  0  0  0  0
  -19.5453  -25.7098   21.2626 N   0  0  0  0  0  0  0  0  0  0  0  0
  -23.0952  -35.9708   23.0689 N   0  3  0  0  0  0  0  0  0  0  0  0
  -28.6570  -15.6195   17.3860 O   0  0  0  0  0  0  0  0  0  0  0  0
  -26.6579  -28.4333   22.2387 O   0  0  0  0  0  0  0  0  0  0  0  0
  -27.5518  -32.0729   22.6249 O   0  0  0  0  0  0  0  0  0  0  0  0
  -21.2257  -24.5749   20.1341 O   0  0  0  0  0  0  0  0  0  0  0  0
  -23.1404  -33.2803   23.8910 O   0  0  0  0  0  0  0  0  0  0  0  0
  -27.5888  -21.3088   25.3272 O   0  0  0  0  0  0  0  0  0  0  0  0
  -23.8688  -10.5203   20.8004 O   0  0  0  0  0  0  0  0  0  0  0  0
  -20.3753  -28.2434   20.2392 O   0  0  0  0  0  0  0  0  0  1  0  0
  -24.3654   -7.1420   25.1298 F   0  0  0  0  0  0  0  0  0  0  0  0
  -22.9523  -22.5036   26.9281 F   0  0  0  0  0  0  0  0  0  0  0  0
  -24.6227   -7.8822   20.4617 F   0  0  0  0  0  0  0  0  0  0  0  0
  -24.5865  -21.9985   21.7314 F   0  0  0  0  0  0  0  0  0  0  0  0
  -25.1477  -21.0032   26.3371 F   0  0  0  0  0  0  0  0  0  0  0  0
  1  2  1  0  0  0  0
  1  5  2  0  0  0  0
  2  6  2  0  0  0  0
  3  8  2  0  0  0  0
  3 16  1  0  0  0  0
  4  9  1  0  0  0  0
  4 16  2  0  0  0  0
  5 18  1  0  0  0  0
  6 20  1  0  0  0  0
  7 10  2  0  0  0  0
  7 19  1  0  0  0  0
  8 24  1  0  0  0  0
  9 24  2  0  0  0  0
 10 25  1  0  0  0  0
 11 12  2  0  0  0  0
 11 26  1  0  0  0  0
 12 27  1  0  0  0  0
 13 21  1  0  0  0  0
 13 25  2  0  0  0  0
 14 22  1  0  0  0  0
 14 28  2  0  0  0  0
 15 27  2  0  0  0  0
 15 29  1  0  0  0  0
 16 32  1  0  0  0  0
 17 32  1  0  0  0  0
 17 33  2  0  0  0  0
 17 34  1  0  0  0  0
 18 20  2  0  0  0  0
 18 40  1  0  0  0  0
 19 21  2  0  0  0  0
 19 41  1  0  0  0  0
 20 49  1  0  0  0  0
 21 42  1  0  0  0  0
 22 30  2  0  0  0  0
 22 72  1  0  0  0  0
 23 30  1  0  0  0  0
 23 31  2  0  0  0  0
 23 71  1  0  0  0  0
 24 83  1  0  0  0  0
 25 84  1  0  0  0  0
 26 29  2  0  0  0  0
 26 83  1  0  0  0  0
 27 85  1  0  0  0  0
 28 31  1  0  0  0  0
 28 86  1  0  0  0  0
 29 87  1  0  0  0  0
 30 88  1  0  0  0  0
 31 89  1  0  0  0  0
 32 65  2  0  0  0  0
 33 66  1  0  0  0  0
 33 69  1  0  0  0  0
 34 70  1  0  0  0  0
 34 77  2  0  0  0  0
 35 50  1  0  0  0  0
 35 73  1  0  0  0  0
 35 78  2  0  0  0  0
 36 61  1  0  0  0  0
 36 67  1  0  0  0  0
 36 79  2  0  0  0  0
 37 59  1  0  0  0  0
 37 75  1  0  0  0  0
 37 80  2  0  0  0  0
 38 62  1  0  0  0  0
 38 74  1  0  0  0  0
 38 81  2  0  0  0  0
 39 68  1  0  0  0  0
 39 71  1  0  0  0  0
 39 82  2  0  0  0  0
 40 43  1  0  0  0  0
 41 50  1  0  0  0  0
 42 67  1  0  0  0  0
 43 45  1  0  0  0  0
 44 46  1  0  0  0  0
 44 47  1  0  0  0  0
 45 49  1  0  0  0  0
 46 51  1  0  0  0  0
 47 68  1  0  0  0  0
 48 51  1  0  0  0  0
 48 68  1  0  0  0  0
 49 73  1  0  0  0  0
 50 67  1  0  0  0  0
 51 66  1  0  0  0  0
 52 62  1  0  0  0  0
 53 63  1  0  0  0  0
 54 64  1  0  0  0  0
 55 64  1  0  0  0  0
 56 64  1  0  0  0  0
 57 75  1  0  0  0  0
 58 76  1  0  0  0  0
 59 72  1  0  0  0  0
 60 63  1  0  0  0  0
 60 84  1  0  0  0  0
 61 64  1  0  0  0  0
 61 74  1  0  0  0  0
 62 76  1  0  0  0  0
 63 75  1  0  0  0  0
 65 66  1  0  0  0  0
M  CHG  1  76   1
M  ISO  4  39 100  60 101  71 100  84 101
M  END
> <Batch ID>
0012

> <Smiles>
CNC(C)C(=O)NC(C(=O)N1Cc2cc([101O:1][101CH2:1]C(C)N(C)C(=O)CNc3cc(F)c(F)c([100NH:0][100C:0](=O)N4CCCC(n5nc(-c6ccc(Oc7ccc(F)cc7F)cc6)c(C(N)=O)c5N)C4)c3F)ccc2CC1C(=O)NC1CCCc2ccccc21)C(C)(C)C

> <Shape>
0.283

> <Color>
0.077

> <Negative vol penalty>
0.000

$$$$

  -OEChem-04052315473D

 83 91  0     1  0  0  0  0  0999 V2000
  -16.4631  -28.6666   23.3788 C   0  0  0  0  0  0  0  0  0  0  0  0
  -17.3364  -28.1701   22.4164 C   0  0  0  0  0  0  0  0  0  0  0  0
  -22.8391  -13.2272   20.2828 C   0  0  0  0  0  0  0  0  0  0  0  0
  -22.1472  -15.3151   21.2824 C   0  0  0  0  0  0  0  0  0  0  0  0
  -16.8988  -29.6384   24.2788 C   0  0  0  0  0  0  0  0  0  0  0  0
  -18.6456  -28.6460   22.3526 C   0  0  0  0  0  0  0  0  0  0  0  0
  -23.6497  -25.4619   20.8275 C   0  0  0  0  0  0  0  0  0  0  0  0
  -21.7704  -12.5775   20.9002 C   0  0  0  0  0  0  0  0  0  0  0  0
  -21.0785  -14.6653   21.8998 C   0  0  0  0  0  0  0  0  0  0  0  0
  -24.3637  -25.3510   19.6351 C   0  0  0  0  0  0  0  0  0  0  0  0
  -19.4320  -10.3002   22.5032 C   0  0  0  0  0  0  0  0  0  0  0  0
  -19.6856   -9.0767   23.1232 C   0  0  0  0  0  0  0  0  0  0  0  0
  -25.8982  -27.0464   20.4033 C   0  0  0  0  0  0  0  0  0  0  0  0
  -30.3902  -21.9422   20.1652 C   0  0  0  0  0  0  0  0  0  0  0  0
  -29.8495  -24.0312   19.0788 C   0  0  0  0  0  0  0  0  0  0  0  0
  -21.2761  -10.1503   24.5912 C   0  0  0  0  0  0  0  0  0  0  0  0
  -23.0275  -14.5961   20.4739 C   0  0  0  0  0  0  0  0  0  0  0  0
  -24.1379  -15.8775   18.5680 C   0  0  0  0  0  0  0  0  0  0  0  0
  -18.2168  -30.1193   24.2322 C   0  0  0  0  0  0  0  0  0  0  0  0
  -24.0490  -26.3753   21.8138 C   0  0  0  0  0  0  0  0  0  0  0  0
  -19.0988  -29.6260   23.2519 C   0  0  0  0  0  0  0  0  0  0  0  0
  -25.1891  -27.1652   21.6083 C   0  0  0  0  0  0  0  0  0  0  0  0
  -30.6127  -23.3087   19.9959 C   0  0  0  0  0  0  0  0  0  0  0  0
  -29.4045  -21.2981   19.4172 C   0  0  0  0  0  0  0  0  0  0  0  0
  -28.8637  -23.3872   18.3309 C   0  0  0  0  0  0  0  0  0  0  0  0
  -20.8900  -13.2965   21.7087 C   0  0  0  0  0  0  0  0  0  0  0  0
  -25.4864  -26.1454   19.4217 C   0  0  0  0  0  0  0  0  0  0  0  0
  -20.1004  -11.4488   22.9272 C   0  0  0  0  0  0  0  0  0  0  0  0
  -20.6076   -9.0018   24.1672 C   0  0  0  0  0  0  0  0  0  0  0  0
  -21.0224  -11.3738   23.9712 C   0  0  0  0  0  0  0  0  0  0  0  0
  -28.6413  -22.0206   18.5002 C   0  0  0  0  0  0  0  0  0  0  0  0
  -24.1317  -15.2677   19.8368 C   0  0  0  0  0  0  0  0  0  0  0  0
  -25.4134  -16.3677   18.4289 C   0  0  0  0  0  0  0  0  0  0  0  0
  -23.0849  -15.9908   17.6015 C   0  0  0  0  0  0  0  0  0  0  0  0
  -22.7253  -28.9211   23.1813 C   0  0  0  0  0  0  0  0  0  0  0  0
  -25.3654  -28.7988   25.0621 C   0  0  0  0  0  0  0  0  0  0  0  0
  -28.6060  -27.7995   25.4451 C   0  0  0  0  0  0  0  0  0  0  0  0
  -29.8496  -19.0493   20.4617 C   0  0  0  0  0  0  0  0  0  0  0  0
  -18.6281  -31.2043   25.1957 C   0  0  0  0  0  0  0  0  0  0  0  0
  -23.2837  -26.4638   23.1057 C   0  0  0  0  0  0  0  0  0  0  0  0
  -25.6711  -28.1466   22.6441 C   0  0  0  0  0  0  0  0  0  0  0  0
  -20.1403  -31.3841   25.3011 C   0  0  0  0  0  0  0  0  0  0  0  0
  -29.5666  -15.5806   21.2134 C   0  0  0  0  0  0  0  0  0  0  0  0
  -20.7720  -31.4174   23.9131 C   0  0  0  0  0  0  0  0  0  0  0  0
  -28.1279  -15.2401   20.8179 C   0  0  0  0  0  0  0  0  0  0  0  0
  -29.6718  -16.9776   21.8225 C   0  0  0  0  0  0  0  0  0  0  0  0
  -27.6562  -17.7145   20.6127 C   0  0  0  0  0  0  0  0  0  0  0  0
  -20.5338  -30.0992   23.1667 C   0  0  1  0  0  0  0  0  0  0  0  0
  -23.4804  -27.7938   23.8267 C   0  0  1  0  0  0  0  0  0  0  0  0
  -27.5103  -16.3422   19.9350 C   0  0  2  0  0  0  0  0  0  0  0  0
  -31.6654  -23.9985   20.7961 C   0  0  0  0  0  0  0  0  0  0  0  0
  -30.5116  -27.8770   27.0760 C   0  0  0  0  0  0  0  0  0  0  0  0
  -25.8646  -31.7201   24.3363 C   0  0  0  0  0  0  0  0  0  0  0  0
  -28.2058  -31.4581   25.1838 C   0  0  0  0  0  0  0  0  0  0  0  0
  -26.2777  -31.1565   26.7375 C   0  0  0  0  0  0  0  0  0  0  0  0
  -27.0635  -23.4447   16.6232 C   0  0  0  0  0  0  0  0  0  0  0  0
  -28.7051  -24.8486   25.6473 C   0  0  0  0  0  0  0  0  0  0  0  0
  -28.2971  -25.5345   17.2226 C   0  0  0  0  0  0  0  0  0  0  0  0
  -27.5837  -26.3158   18.3133 C   0  0  0  0  0  0  0  0  0  1  0  0
  -26.7539  -29.3875   24.9952 C   0  0  1  0  0  0  0  0  0  0  0  0
  -29.3116  -27.0837   26.5827 C   0  0  2  0  0  0  0  0  0  0  0  0
  -26.7655  -30.9136   25.2927 C   0  0  0  0  0  0  0  0  0  0  0  0
  -25.3097  -15.3606   20.4594 N   0  0  0  0  0  0  0  0  0  0  0  0
  -26.0682  -16.0344   19.5780 N   0  0  0  0  0  0  0  0  0  0  0  0
  -24.8856  -28.2010   23.8881 N   0  0  0  0  0  0  0  0  0  0  0  0
  -29.0703  -17.9698   20.9289 N   0  0  0  0  0  0  0  0  0  0  0  0
  -26.0276  -17.0469   17.4370 N   0  0  0  0  0  0  0  0  0  0  0  0
  -21.8364  -15.4309   17.9050 N   0  0  0  0  0  0  0  0  0  0  0  0
  -29.1802  -19.9100   19.5925 N   0  0  0  0  0  0  0  0  0  0  0  0
  -21.4345  -29.0748   23.6501 N   0  0  0  0  0  0  0  0  0  0  0  0
  -27.5772  -28.5955   25.9025 N   0  0  0  0  0  0  0  0  0  0  0  0
  -28.0987  -24.1156   17.4102 N   0  0  3  0  0  0  0  0  0  0  0  0
  -29.7856  -25.7432   26.1364 N   0  3  0  0  0  0  0  0  0  0  0  0
  -23.2512  -16.5570   16.4945 O   0  0  0  0  0  0  0  0  0  0  0  0
  -23.2736  -29.6021   22.3227 O   0  0  0  0  0  0  0  0  0  0  0  0
  -24.7326  -28.8606   26.1192 O   0  0  0  0  0  0  0  0  0  0  0  0
  -28.9369  -27.6687   24.2687 O   0  0  0  0  0  0  0  0  0  0  0  0
  -31.0323  -19.1839   20.7858 O   0  0  0  0  0  0  0  0  0  0  0  0
  -19.8469  -12.6628   22.3112 O   0  0  0  0  0  0  0  0  0  0  0  0
  -26.1847  -26.0396   18.2584 O   0  0  0  0  0  0  0  0  0  1  0  0
  -20.8499   -7.8271   24.7635 F   0  0  0  0  0  0  0  0  0  0  0  0
  -21.6668  -12.4740   24.3836 F   0  0  0  0  0  0  0  0  0  0  0  0
  -27.6928  -21.4014   17.7807 F   0  0  0  0  0  0  0  0  0  0  0  0
  1  2  1  0  0  0  0
  1  5  2  0  0  0  0
  2  6  2  0  0  0  0
  3  8  2  0  0  0  0
  3 17  1  0  0  0  0
  4  9  1  0  0  0  0
  4 17  2  0  0  0  0
  5 19  1  0  0  0  0
  6 21  1  0  0  0  0
  7 10  2  0  0  0  0
  7 20  1  0  0  0  0
  8 26  1  0  0  0  0
  9 26  2  0  0  0  0
 10 27  1  0  0  0  0
 11 12  2  0  0  0  0
 11 28  1  0  0  0  0
 12 29  1  0  0  0  0
 13 22  1  0  0  0  0
 13 27  2  0  0  0  0
 14 23  1  0  0  0  0
 14 24  2  0  0  0  0
 15 23  2  0  0  0  0
 15 25  1  0  0  0  0
 16 29  2  0  0  0  0
 16 30  1  0  0  0  0
 17 32  1  0  0  0  0
 18 32  1  0  0  0  0
 18 33  2  0  0  0  0
 18 34  1  0  0  0  0
 19 21  2  0  0  0  0
 19 39  1  0  0  0  0
 20 22  2  0  0  0  0
 20 40  1  0  0  0  0
 21 48  1  0  0  0  0
 22 41  1  0  0  0  0
 23 51  1  0  0  0  0
 24 31  1  0  0  0  0
 24 69  1  0  0  0  0
 25 31  2  0  0  0  0
 25 72  1  0  0  0  0
 26 79  1  0  0  0  0
 27 80  1  0  0  0  0
 28 30  2  0  0  0  0
 28 79  1  0  0  0  0
 29 81  1  0  0  0  0
 30 82  1  0  0  0  0
 31 83  1  0  0  0  0
 32 63  2  0  0  0  0
 33 64  1  0  0  0  0
 33 67  1  0  0  0  0
 34 68  1  0  0  0  0
 34 74  2  0  0  0  0
 35 49  1  0  0  0  0
 35 70  1  0  0  0  0
 35 75  2  0  0  0  0
 36 60  1  0  0  0  0
 36 65  1  0  0  0  0
 36 76  2  0  0  0  0
 37 61  1  0  0  0  0
 37 71  1  0  0  0  0
 37 77  2  0  0  0  0
 38 66  1  0  0  0  0
 38 69  1  0  0  0  0
 38 78  2  0  0  0  0
 39 42  1  0  0  0  0
 40 49  1  0  0  0  0
 41 65  1  0  0  0  0
 42 44  1  0  0  0  0
 43 45  1  0  0  0  0
 43 46  1  0  0  0  0
 44 48  1  0  0  0  0
 45 50  1  0  0  0  0
 46 66  1  0  0  0  0
 47 50  1  0  0  0  0
 47 66  1  0  0  0  0
 48 70  1  0  0  0  0
 49 65  1  0  0  0  0
 50 64  1  0  0  0  0
 52 61  1  0  0  0  0
 53 62  1  0  0  0  0
 54 62  1  0  0  0  0
 55 62  1  0  0  0  0
 56 72  1  0  0  0  0
 57 73  1  0  0  0  0
 58 59  1  0  0  0  0
 58 72  1  0  0  0  0
 59 80  1  0  0  0  0
 60 62  1  0  0  0  0
 60 71  1  0  0  0  0
 61 73  1  0  0  0  0
 63 64  1  0  0  0  0
M  CHG  1  73   1
M  ISO  4  38 100  59 101  69 100  80 101
M  END
> <Batch ID>
0012

> <Smiles>
CNC(C)C(=O)NC(C(=O)N1Cc2cc([101O:1][101CH2:1]CN(C)c3cc(C)cc([100NH:0][100C:0](=O)N4CCCC(n5nc(-c6ccc(Oc7ccc(F)cc7F)cc6)c(C(N)=O)c5N)C4)c3F)ccc2CC1C(=O)NC1CCCc2ccccc21)C(C)(C)C

> <Shape>
0.226

> <Color>
0.065

> <Negative vol penalty>
0.000

$$$$

  -OEChem-04052315473D

 83 91  0     1  0  0  0  0  0999 V2000
  -24.6016  -36.3579   16.2000 C   0  0  0  0  0  0  0  0  0  0  0  0
  -24.9022  -35.0080   16.0496 C   0  0  0  0  0  0  0  0  0  0  0  0
  -26.7582  -11.3616   20.0929 C   0  0  0  0  0  0  0  0  0  0  0  0
  -27.0826  -11.9752   17.7788 C   0  0  0  0  0  0  0  0  0  0  0  0
  -24.8506  -36.9952   17.4149 C   0  0  0  0  0  0  0  0  0  0  0  0
  -25.4530  -34.2947   17.1136 C   0  0  0  0  0  0  0  0  0  0  0  0
  -24.4490  -28.4191   18.5192 C   0  0  0  0  0  0  0  0  0  0  0  0
  -25.7074  -10.5223   19.7231 C   0  0  0  0  0  0  0  0  0  0  0  0
  -26.0317  -11.1358   17.4089 C   0  0  0  0  0  0  0  0  0  0  0  0
  -25.1749  -27.2564   18.2643 C   0  0  0  0  0  0  0  0  0  0  0  0
  -22.4484  -10.8343   18.8829 C   0  0  0  0  0  0  0  0  0  0  0  0
  -21.2807  -10.8851   19.6441 C   0  0  0  0  0  0  0  0  0  0  0  0
  -26.1873  -27.4170   20.4480 C   0  0  0  0  0  0  0  0  0  0  0  0
  -29.9529  -21.1347   15.0324 C   0  0  0  0  0  0  0  0  0  0  0  0
  -21.5348   -8.5455   20.1904 C   0  0  0  0  0  0  0  0  0  0  0  0
  -27.4458  -12.0881   19.1208 C   0  0  0  0  0  0  0  0  0  0  0  0
  -29.8940  -12.6182   19.6035 C   0  0  0  0  0  0  0  0  0  0  0  0
  -25.3958  -36.2870   18.4974 C   0  0  0  0  0  0  0  0  0  0  0  0
  -24.5952  -29.0967   19.7382 C   0  0  0  0  0  0  0  0  0  0  0  0
  -25.7108  -34.9234   18.3437 C   0  0  0  0  0  0  0  0  0  0  0  0
  -25.4602  -28.5867   20.7169 C   0  0  0  0  0  0  0  0  0  0  0  0
  -29.6770  -19.8729   15.6111 C   0  0  0  0  0  0  0  0  0  0  0  0
  -25.3441  -10.4094   18.3812 C   0  0  0  0  0  0  0  0  0  0  0  0
  -26.0464  -26.7568   19.2276 C   0  0  0  0  0  0  0  0  0  0  0  0
  -23.1593   -9.6389   18.7754 C   0  0  0  0  0  0  0  0  0  0  0  0
  -20.8239   -9.7408   20.2978 C   0  0  0  0  0  0  0  0  0  0  0  0
  -22.7025   -8.4946   19.4291 C   0  0  0  0  0  0  0  0  0  0  0  0
  -28.5311  -12.9558   19.5022 C   0  0  0  0  0  0  0  0  0  0  0  0
  -29.9425  -22.0403   16.0678 C   0  0  0  0  0  0  0  0  0  0  0  0
  -30.5077  -13.7822   19.9973 C   0  0  0  0  0  0  0  0  0  0  0  0
  -29.5179  -20.0973   16.9589 C   0  0  0  0  0  0  0  0  0  0  0  0
  -30.5470  -11.3646   19.3631 C   0  0  0  0  0  0  0  0  0  0  0  0
  -25.5940  -31.9917   20.5897 C   0  0  0  0  0  0  0  0  0  0  0  0
  -24.6215  -31.0353   23.5328 C   0  0  0  0  0  0  0  0  0  0  0  0
  -28.4084  -24.5899   17.5719 C   0  0  0  0  0  0  0  0  0  0  0  0
  -23.9540  -28.4580   25.6679 C   0  0  0  0  0  0  0  0  0  0  0  0
  -29.0909  -19.5544   19.3815 C   0  0  0  0  0  0  0  0  0  0  0  0
  -25.6912  -37.0302   19.7761 C   0  0  0  0  0  0  0  0  0  0  0  0
  -23.7850  -30.3348   20.0082 C   0  0  0  0  0  0  0  0  0  0  0  0
  -25.6379  -29.2653   22.0497 C   0  0  0  0  0  0  0  0  0  0  0  0
  -25.9286  -36.1127   20.9729 C   0  0  0  0  0  0  0  0  0  0  0  0
  -29.6699  -17.8179   22.4354 C   0  0  0  0  0  0  0  0  0  0  0  0
  -26.8788  -34.9802   20.5972 C   0  0  0  0  0  0  0  0  0  0  0  0
  -29.5737  -16.3432   22.0379 C   0  0  0  0  0  0  0  0  0  0  0  0
  -28.6678  -18.6787   21.6683 C   0  0  0  0  0  0  0  0  0  0  0  0
  -28.6215  -17.0621   19.8099 C   0  0  0  0  0  0  0  0  0  0  0  0
  -26.2862  -34.1097   19.4825 C   0  0  1  0  0  0  0  0  0  0  0  0
  -24.3980  -31.2275   21.0828 C   0  0  1  0  0  0  0  0  0  0  0  0
  -29.6561  -16.1652   20.5091 C   0  0  2  0  0  0  0  0  0  0  0  0
  -29.5817  -18.5825   14.9039 C   0  0  0  0  0  0  0  0  0  0  0  0
  -23.2126  -27.9894   28.0191 C   0  0  0  0  0  0  0  0  0  0  0  0
  -27.4003  -31.7742   24.5537 C   0  0  0  0  0  0  0  0  0  0  0  0
  -26.9244  -30.4321   26.6130 C   0  0  0  0  0  0  0  0  0  0  0  0
  -25.5236  -32.4244   26.0734 C   0  0  0  0  0  0  0  0  0  0  0  0
  -28.2152  -24.6035   15.0790 C   0  0  0  0  0  0  0  0  0  0  0  0
  -21.5394  -27.0182   24.7429 C   0  0  0  0  0  0  0  0  0  0  0  0
  -30.1606  -23.5241   16.1368 C   0  0  0  0  0  0  0  0  0  0  0  0
  -27.1029  -25.3552   17.6228 C   0  0  0  0  0  0  0  0  0  1  0  0
  -25.2708  -30.3211   24.6935 C   0  0  1  0  0  0  0  0  0  0  0  0
  -22.7697  -28.1843   26.5774 C   0  0  2  0  0  0  0  0  0  0  0  0
  -26.2781  -31.2260   25.4576 C   0  0  0  0  0  0  0  0  0  0  0  0
  -28.2925  -14.2341   19.8072 N   0  0  0  0  0  0  0  0  0  0  0  0
  -29.5137  -14.7099   20.1041 N   0  0  0  0  0  0  0  0  0  0  0  0
  -24.8284  -30.4763   22.2637 N   0  0  0  0  0  0  0  0  0  0  0  0
  -28.8072  -18.4608   20.2268 N   0  0  0  0  0  0  0  0  0  0  0  0
  -31.7952  -14.0923   20.2592 N   0  0  0  0  0  0  0  0  0  0  0  0
  -29.7668  -10.2706   18.9645 N   0  0  0  0  0  0  0  0  0  0  0  0
  -29.2335  -19.2206   18.0351 N   0  0  0  0  0  0  0  0  0  0  0  0
  -25.2860  -33.2123   20.0199 N   0  0  0  0  0  0  0  0  0  0  0  0
  -24.1819  -29.8097   25.5189 N   0  0  0  0  0  0  0  0  0  0  0  0
  -28.9072  -24.2531   16.3132 N   0  0  0  0  0  0  0  0  0  0  0  0
  -22.0509  -26.9556   26.1363 N   0  3  0  0  0  0  0  0  0  0  0  0
  -31.7832  -11.2146   19.5136 O   0  0  0  0  0  0  0  0  0  0  0  0
  -26.7136  -31.5103   20.7181 O   0  0  0  0  0  0  0  0  0  0  0  0
  -23.9495  -32.0477   23.7451 O   0  0  0  0  0  0  0  0  0  0  0  0
  -28.9719  -24.3069   18.6337 O   0  0  0  0  0  0  0  0  0  0  0  0
  -24.6134  -27.5622   25.1452 O   0  0  0  0  0  0  0  0  0  0  0  0
  -29.2262  -20.6982   19.8235 O   0  0  0  0  0  0  0  0  0  0  0  0
  -29.6782  -21.4159   17.2454 O   0  0  0  0  0  0  0  0  0  0  0  0
  -24.3189   -9.5902   18.0199 O   0  0  0  0  0  0  0  0  0  0  0  0
  -26.7566  -25.6225   18.9811 O   0  0  0  0  0  0  0  0  0  1  0  0
  -19.7033   -9.7902   21.0300 F   0  0  0  0  0  0  0  0  0  0  0  0
  -23.3819   -7.3437   19.3305 F   0  0  0  0  0  0  0  0  0  0  0  0
  1  2  1  0  0  0  0
  1  5  2  0  0  0  0
  2  6  2  0  0  0  0
  3  8  2  0  0  0  0
  3 16  1  0  0  0  0
  4  9  1  0  0  0  0
  4 16  2  0  0  0  0
  5 18  1  0  0  0  0
  6 20  1  0  0  0  0
  7 10  2  0  0  0  0
  7 19  1  0  0  0  0
  8 23  1  0  0  0  0
  9 23  2  0  0  0  0
 10 24  1  0  0  0  0
 11 12  2  0  0  0  0
 11 25  1  0  0  0  0
 12 26  1  0  0  0  0
 13 21  1  0  0  0  0
 13 24  2  0  0  0  0
 14 22  1  0  0  0  0
 14 29  2  0  0  0  0
 15 26  2  0  0  0  0
 15 27  1  0  0  0  0
 16 28  1  0  0  0  0
 17 28  1  0  0  0  0
 17 30  2  0  0  0  0
 17 32  1  0  0  0  0
 18 20  2  0  0  0  0
 18 38  1  0  0  0  0
 19 21  2  0  0  0  0
 19 39  1  0  0  0  0
 20 47  1  0  0  0  0
 21 40  1  0  0  0  0
 22 31  2  0  0  0  0
 22 50  1  0  0  0  0
 23 80  1  0  0  0  0
 24 81  1  0  0  0  0
 25 27  2  0  0  0  0
 25 80  1  0  0  0  0
 26 82  1  0  0  0  0
 27 83  1  0  0  0  0
 28 62  2  0  0  0  0
 29 57  1  0  0  0  0
 29 79  1  0  0  0  0
 30 63  1  0  0  0  0
 30 66  1  0  0  0  0
 31 68  1  0  0  0  0
 31 79  1  0  0  0  0
 32 67  1  0  0  0  0
 32 73  2  0  0  0  0
 33 48  1  0  0  0  0
 33 69  1  0  0  0  0
 33 74  2  0  0  0  0
 34 59  1  0  0  0  0
 34 64  1  0  0  0  0
 34 75  2  0  0  0  0
 35 58  1  0  0  0  0
 35 71  1  0  0  0  0
 35 76  2  0  0  0  0
 36 60  1  0  0  0  0
 36 70  1  0  0  0  0
 36 77  2  0  0  0  0
 37 65  1  0  0  0  0
 37 68  1  0  0  0  0
 37 78  2  0  0  0  0
 38 41  1  0  0  0  0
 39 48  1  0  0  0  0
 40 64  1  0  0  0  0
 41 43  1  0  0  0  0
 42 44  1  0  0  0  0
 42 45  1  0  0  0  0
 43 47  1  0  0  0  0
 44 49  1  0  0  0  0
 45 65  1  0  0  0  0
 46 49  1  0  0  0  0
 46 65  1  0  0  0  0
 47 69  1  0  0  0  0
 48 64  1  0  0  0  0
 49 63  1  0  0  0  0
 51 60  1  0  0  0  0
 52 61  1  0  0  0  0
 53 61  1  0  0  0  0
 54 61  1  0  0  0  0
 55 71  1  0  0  0  0
 56 72  1  0  0  0  0
 57 71  1  0  0  0  0
 58 81  1  0  0  0  0
 59 61  1  0  0  0  0
 59 70  1  0  0  0  0
 60 72  1  0  0  0  0
 62 63  1  0  0  0  0
M  CHG  1  72   1
M  ISO  4  37 100  58 101  68 100  81 101
M  END
> <Batch ID>
0012

> <Smiles>
CNC(C)C(=O)NC(C(=O)N1Cc2cc([101O:1][101CH2:1]C(=O)N(C)Cc3cc(C)c([100NH:0][100C:0](=O)N4CCCC(n5nc(-c6ccc(Oc7ccc(F)cc7F)cc6)c(C(N)=O)c5N)C4)o3)ccc2CC1C(=O)NC1CCCc2ccccc21)C(C)(C)C

> <Shape>
0.249

> <Color>
0.102

> <Negative vol penalty>
0.000

$$$$

  -OEChem-04052315473D

 84 92  0     1  0  0  0  0  0999 V2000
  -21.6029  -11.8612   20.9648 C   0  0  0  0  0  0  0  0  0  0  0  0
  -21.6372  -13.0490   21.6882 C   0  0  0  0  0  0  0  0  0  0  0  0
  -28.8972  -31.7552   22.0006 C   0  0  0  0  0  0  0  0  0  0  0  0
  -28.1306  -30.0010   23.4745 C   0  0  0  0  0  0  0  0  0  0  0  0
  -22.7655  -11.3768   20.3666 C   0  0  0  0  0  0  0  0  0  0  0  0
  -22.8344  -13.7526   21.8148 C   0  0  0  0  0  0  0  0  0  0  0  0
  -22.2508  -18.7284   21.0756 C   0  0  0  0  0  0  0  0  0  0  0  0
  -29.5377  -32.3762   23.0728 C   0  0  0  0  0  0  0  0  0  0  0  0
  -28.7712  -30.6219   24.5467 C   0  0  0  0  0  0  0  0  0  0  0  0
  -21.7126  -19.4694   22.1267 C   0  0  0  0  0  0  0  0  0  0  0  0
  -29.9020  -31.9341   27.7419 C   0  0  0  0  0  0  0  0  0  0  0  0
  -29.1989  -32.0446   28.9414 C   0  0  0  0  0  0  0  0  0  0  0  0
  -23.9292  -20.1958   22.7418 C   0  0  0  0  0  0  0  0  0  0  0  0
  -18.4647  -26.5716   23.4397 C   0  0  0  0  0  0  0  0  0  0  0  0
  -19.0637  -28.0211   21.6020 C   0  0  0  0  0  0  0  0  0  0  0  0
  -27.4934  -33.3393   27.8224 C   0  0  0  0  0  0  0  0  0  0  0  0
  -28.1936  -30.5676   22.2014 C   0  0  0  0  0  0  0  0  0  0  0  0
  -28.0713  -28.9593   20.2251 C   0  0  0  0  0  0  0  0  0  0  0  0
  -23.9754  -12.0799   20.4777 C   0  0  0  0  0  0  0  0  0  0  0  0
  -23.6356  -18.7067   20.8559 C   0  0  0  0  0  0  0  0  0  0  0  0
  -24.0145  -13.2766   21.2186 C   0  0  0  0  0  0  0  0  0  0  0  0
  -24.4823  -19.4557   21.6856 C   0  0  0  0  0  0  0  0  0  0  0  0
  -19.7834  -26.1237   23.5163 C   0  0  0  0  0  0  0  0  0  0  0  0
  -20.3825  -27.5733   21.6787 C   0  0  0  0  0  0  0  0  0  0  0  0
  -29.4748  -31.8096   24.3459 C   0  0  0  0  0  0  0  0  0  0  0  0
  -22.5520  -20.2009   22.9618 C   0  0  0  0  0  0  0  0  0  0  0  0
  -29.4010  -32.5263   26.5826 C   0  0  0  0  0  0  0  0  0  0  0  0
  -27.9945  -32.7472   28.9817 C   0  0  0  0  0  0  0  0  0  0  0  0
  -28.1966  -33.2289   26.6229 C   0  0  0  0  0  0  0  0  0  0  0  0
  -18.1048  -27.5202   22.4824 C   0  0  0  0  0  0  0  0  0  0  0  0
  -20.7424  -26.6246   22.6359 C   0  0  0  0  0  0  0  0  0  0  0  0
  -27.5312  -29.9259   21.0944 C   0  0  0  0  0  0  0  0  0  0  0  0
  -27.0495  -28.6722   19.3533 C   0  0  0  0  0  0  0  0  0  0  0  0
  -29.3797  -28.3732   20.2072 C   0  0  0  0  0  0  0  0  0  0  0  0
  -25.8746  -16.4505   20.8740 C   0  0  0  0  0  0  0  0  0  0  0  0
  -27.7642  -18.8642   19.8127 C   0  0  0  0  0  0  0  0  0  0  0  0
  -20.5690  -22.6873   24.5986 C   0  0  0  0  0  0  0  0  0  0  0  0
  -28.3322  -22.2231   19.6077 C   0  0  0  0  0  0  0  0  0  0  0  0
  -21.1007  -29.0518   19.7696 C   0  0  0  0  0  0  0  0  0  0  0  0
  -25.2163  -11.4925   19.8535 C   0  0  0  0  0  0  0  0  0  0  0  0
  -24.1981  -17.9237   19.7014 C   0  0  0  0  0  0  0  0  0  0  0  0
  -25.9741  -19.4820   21.4798 C   0  0  0  0  0  0  0  0  0  0  0  0
  -26.3626  -12.4917   19.7201 C   0  0  0  0  0  0  0  0  0  0  0  0
  -23.1718  -30.6427   17.3496 C   0  0  0  0  0  0  0  0  0  0  0  0
  -26.5455  -13.2708   21.0188 C   0  0  0  0  0  0  0  0  0  0  0  0
  -24.5748  -30.5461   17.9533 C   0  0  0  0  0  0  0  0  0  0  0  0
  -22.1085  -30.8793   18.4207 C   0  0  0  0  0  0  0  0  0  0  0  0
  -23.5266  -29.8239   20.1366 C   0  0  0  0  0  0  0  0  0  0  0  0
  -25.2886  -14.0813   21.3576 C   0  0  1  0  0  0  0  0  0  0  0  0
  -25.6690  -17.5625   19.8846 C   0  0  1  0  0  0  0  0  0  0  0  0
  -24.6240  -29.5211   19.1033 C   0  0  2  0  0  0  0  0  0  0  0  0
  -29.9781  -23.8914   18.7106 C   0  0  0  0  0  0  0  0  0  0  0  0
  -29.6709  -18.2113   22.1035 C   0  0  0  0  0  0  0  0  0  0  0  0
  -30.7546  -20.4394   21.7441 C   0  0  0  0  0  0  0  0  0  0  0  0
  -30.7918  -18.7290   19.9287 C   0  0  0  0  0  0  0  0  0  0  0  0
  -26.2985  -23.4562   17.8463 C   0  0  0  0  0  0  0  0  0  0  0  0
  -20.1238  -25.1035   24.5609 C   0  0  0  0  0  0  0  0  0  0  0  0
  -20.7117  -21.4435   23.8133 C   0  0  0  0  0  0  0  0  0  1  0  0
  -28.6257  -19.9154   20.4697 C   0  0  1  0  0  0  0  0  0  0  0  0
  -28.7016  -23.1124   18.4342 C   0  0  2  0  0  0  0  0  0  0  0  0
  -29.9329  -19.3220   21.0668 C   0  0  0  0  0  0  0  0  0  0  0  0
  -26.2646  -30.2326   20.8014 N   0  0  0  0  0  0  0  0  0  0  0  0
  -26.0004  -29.4541   19.7383 N   0  0  0  0  0  0  0  0  0  0  0  0
  -26.4766  -18.6953   20.3413 N   0  0  0  0  0  0  0  0  0  0  0  0
  -22.2132  -29.8680   19.4748 N   0  0  0  0  0  0  0  0  0  0  0  0
  -26.9550  -27.8298   18.3027 N   0  0  0  0  0  0  0  0  0  0  0  0
  -30.3080  -28.7815   21.1747 N   0  0  0  0  0  0  0  0  0  0  0  0
  -20.7342  -22.5881   25.9125 N   0  0  0  0  0  0  0  0  0  0  0  0
  -21.3286  -28.1049   20.7676 N   0  0  0  0  0  0  0  0  0  0  0  0
  -25.2238  -15.2769   20.5448 N   0  0  0  0  0  0  0  0  0  0  0  0
  -28.8439  -20.9506   19.4651 N   0  0  0  0  0  0  0  0  0  0  0  0
  -20.2912  -23.7989   23.9182 N   0  3  0  0  0  0  0  0  0  0  0  0
  -27.6076  -24.0858   18.1575 N   0  3  0  0  0  0  0  0  0  0  0  0
  -29.7210  -27.5250   19.3484 O   0  0  0  0  0  0  0  0  0  0  0  0
  -26.5733  -16.6427   21.8623 O   0  0  0  0  0  0  0  0  0  0  0  0
  -28.2144  -18.2217   18.8608 O   0  0  0  0  0  0  0  0  0  0  0  0
  -27.6603  -22.6187   20.5577 O   0  0  0  0  0  0  0  0  0  0  0  0
  -20.0335  -29.1649   19.1612 O   0  0  0  0  0  0  0  0  0  0  0  0
  -30.0999  -32.4151   25.3923 O   0  0  0  0  0  0  0  0  0  0  0  0
  -22.0293  -20.9246   23.9889 O   0  0  0  0  0  0  0  0  0  1  0  0
  -27.3186  -32.8518   30.1334 F   0  0  0  0  0  0  0  0  0  0  0  0
  -27.7096  -33.7989   25.5122 F   0  0  0  0  0  0  0  0  0  0  0  0
  -16.4775  -28.0726   22.3879 Cl  0  0  0  0  0  0  0  0  0  0  0  0
  -22.3799  -26.0640   22.7361 Cl  0  0  0  0  0  0  0  0  0  0  0  0
  1  2  1  0  0  0  0
  1  5  2  0  0  0  0
  2  6  2  0  0  0  0
  3  8  2  0  0  0  0
  3 17  1  0  0  0  0
  4  9  1  0  0  0  0
  4 17  2  0  0  0  0
  5 19  1  0  0  0  0
  6 21  1  0  0  0  0
  7 10  2  0  0  0  0
  7 20  1  0  0  0  0
  8 25  1  0  0  0  0
  9 25  2  0  0  0  0
 10 26  1  0  0  0  0
 11 12  2  0  0  0  0
 11 27  1  0  0  0  0
 12 28  1  0  0  0  0
 13 22  1  0  0  0  0
 13 26  2  0  0  0  0
 14 23  1  0  0  0  0
 14 30  2  0  0  0  0
 15 24  2  0  0  0  0
 15 30  1  0  0  0  0
 16 28  2  0  0  0  0
 16 29  1  0  0  0  0
 17 32  1  0  0  0  0
 18 32  1  0  0  0  0
 18 33  2  0  0  0  0
 18 34  1  0  0  0  0
 19 21  2  0  0  0  0
 19 40  1  0  0  0  0
 20 22  2  0  0  0  0
 20 41  1  0  0  0  0
 21 49  1  0  0  0  0
 22 42  1  0  0  0  0
 23 31  2  0  0  0  0
 23 57  1  0  0  0  0
 24 31  1  0  0  0  0
 24 69  1  0  0  0  0
 25 79  1  0  0  0  0
 26 80  1  0  0  0  0
 27 29  2  0  0  0  0
 27 79  1  0  0  0  0
 28 81  1  0  0  0  0
 29 82  1  0  0  0  0
 30 83  1  0  0  0  0
 31 84  1  0  0  0  0
 32 62  2  0  0  0  0
 33 63  1  0  0  0  0
 33 66  1  0  0  0  0
 34 67  1  0  0  0  0
 34 74  2  0  0  0  0
 35 50  1  0  0  0  0
 35 70  1  0  0  0  0
 35 75  2  0  0  0  0
 36 59  1  0  0  0  0
 36 64  1  0  0  0  0
 36 76  2  0  0  0  0
 37 58  1  0  0  0  0
 37 68  1  0  0  0  0
 37 72  2  0  0  0  0
 38 60  1  0  0  0  0
 38 71  1  0  0  0  0
 38 77  2  0  0  0  0
 39 65  1  0  0  0  0
 39 69  1  0  0  0  0
 39 78  2  0  0  0  0
 40 43  1  0  0  0  0
 41 50  1  0  0  0  0
 42 64  1  0  0  0  0
 43 45  1  0  0  0  0
 44 46  1  0  0  0  0
 44 47  1  0  0  0  0
 45 49  1  0  0  0  0
 46 51  1  0  0  0  0
 47 65  1  0  0  0  0
 48 51  1  0  0  0  0
 48 65  1  0  0  0  0
 49 70  1  0  0  0  0
 50 64  1  0  0  0  0
 51 63  1  0  0  0  0
 52 60  1  0  0  0  0
 53 61  1  0  0  0  0
 54 61  1  0  0  0  0
 55 61  1  0  0  0  0
 56 73  1  0  0  0  0
 57 72  1  0  0  0  0
 58 80  1  0  0  0  0
 59 61  1  0  0  0  0
 59 71  1  0  0  0  0
 60 73  1  0  0  0  0
 62 63  1  0  0  0  0
M  CHG  2  72   1  73   1
M  ISO  4  39 100  58 101  69 100  80 101
M  END
> <Batch ID>
0012

> <Smiles>
CNC(C)C(=O)NC(C(=O)N1Cc2cc([101O:1][101CH2:1]C(=N)NCc3cc(Cl)cc([100NH:0][100C:0](=O)N4CCCC(n5nc(-c6ccc(Oc7ccc(F)cc7F)cc6)c(C(N)=O)c5N)C4)c3Cl)ccc2CC1C(=O)NC1CCCc2ccccc21)C(C)(C)C

> <Shape>
0.244

> <Color>
0.052

> <Negative vol penalty>
0.000

$$$$

  -OEChem-04052315473D

 84 92  0     1  0  0  0  0  0999 V2000
  -30.4244  -24.6201   22.6236 C   0  0  0  0  0  0  0  0  0  0  0  0
  -29.3228  -23.9367   23.1283 C   0  0  0  0  0  0  0  0  0  0  0  0
  -24.6504  -30.1000   20.3334 C   0  0  0  0  0  0  0  0  0  0  0  0
  -24.0702  -28.6759   22.1968 C   0  0  0  0  0  0  0  0  0  0  0  0
  -30.8574  -24.3767   21.3208 C   0  0  0  0  0  0  0  0  0  0  0  0
  -28.6528  -23.0102   22.3301 C   0  0  0  0  0  0  0  0  0  0  0  0
  -25.0439  -16.8378   22.7710 C   0  0  0  0  0  0  0  0  0  0  0  0
  -18.8063  -20.5371   21.3000 C   0  0  0  0  0  0  0  0  0  0  0  0
  -19.1627  -19.2544   20.8836 C   0  0  0  0  0  0  0  0  0  0  0  0
  -24.3825  -31.2266   21.1110 C   0  0  0  0  0  0  0  0  0  0  0  0
  -23.8024  -29.8025   22.9744 C   0  0  0  0  0  0  0  0  0  0  0  0
  -23.8287  -16.2710   22.3892 C   0  0  0  0  0  0  0  0  0  0  0  0
  -24.1984  -34.4826   22.7171 C   0  0  0  0  0  0  0  0  0  0  0  0
  -25.1137  -35.5341   22.6721 C   0  0  0  0  0  0  0  0  0  0  0  0
  -24.7146  -15.8741   20.1808 C   0  0  0  0  0  0  0  0  0  0  0  0
  -26.8464  -34.0608   23.4873 C   0  0  0  0  0  0  0  0  0  0  0  0
  -24.4942  -28.8246   20.8763 C   0  0  0  0  0  0  0  0  0  0  0  0
  -26.0009  -26.9893   19.9440 C   0  0  0  0  0  0  0  0  0  0  0  0
  -30.1982  -23.4397   20.5095 C   0  0  0  0  0  0  0  0  0  0  0  0
  -26.1018  -16.9371   21.8559 C   0  0  0  0  0  0  0  0  0  0  0  0
  -29.0765  -22.7550   21.0148 C   0  0  0  0  0  0  0  0  0  0  0  0
  -25.9430  -16.4403   20.5543 C   0  0  0  0  0  0  0  0  0  0  0  0
  -19.3662  -21.6531   20.6781 C   0  0  0  0  0  0  0  0  0  0  0  0
  -20.6391  -20.2038   19.2234 C   0  0  0  0  0  0  0  0  0  0  0  0
  -20.0792  -19.0878   19.8453 C   0  0  0  0  0  0  0  0  0  0  0  0
  -20.2826  -21.4864   19.6398 C   0  0  0  0  0  0  0  0  0  0  0  0
  -23.9585  -31.0778   22.4315 C   0  0  0  0  0  0  0  0  0  0  0  0
  -23.6629  -15.7917   21.0931 C   0  0  0  0  0  0  0  0  0  0  0  0
  -24.6070  -33.2201   23.1473 C   0  0  0  0  0  0  0  0  0  0  0  0
  -26.4377  -35.3233   23.0572 C   0  0  0  0  0  0  0  0  0  0  0  0
  -25.9310  -33.0093   23.5323 C   0  0  0  0  0  0  0  0  0  0  0  0
  -24.7701  -27.6604   20.0734 C   0  0  0  0  0  0  0  0  0  0  0  0
  -25.7398  -25.9578   19.0755 C   0  0  0  0  0  0  0  0  0  0  0  0
  -27.2668  -27.2729   20.5543 C   0  0  0  0  0  0  0  0  0  0  0  0
  -27.7369  -19.3403   20.5696 C   0  0  0  0  0  0  0  0  0  0  0  0
  -29.5302  -16.9406   19.3253 C   0  0  0  0  0  0  0  0  0  0  0  0
  -19.9566  -16.5747   19.9602 C   0  0  0  0  0  0  0  0  0  0  0  0
  -29.7348  -13.6685   18.3776 C   0  0  0  0  0  0  0  0  0  0  0  0
  -20.7602  -22.9724   17.6624 C   0  0  0  0  0  0  0  0  0  0  0  0
  -30.6741  -23.2449   19.0917 C   0  0  0  0  0  0  0  0  0  0  0  0
  -27.4152  -17.5269   22.2912 C   0  0  0  0  0  0  0  0  0  0  0  0
  -27.0544  -16.5047   19.5398 C   0  0  0  0  0  0  0  0  0  0  0  0
  -30.1377  -21.9739   18.4383 C   0  0  0  0  0  0  0  0  0  0  0  0
  -22.8730  -24.7677   15.4286 C   0  0  0  0  0  0  0  0  0  0  0  0
  -28.6393  -21.8363   18.6887 C   0  0  0  0  0  0  0  0  0  0  0  0
  -23.7155  -25.6478   16.3548 C   0  0  0  0  0  0  0  0  0  0  0  0
  -21.4385  -24.6234   15.9335 C   0  0  0  0  0  0  0  0  0  0  0  0
  -22.1550  -25.0516   18.2513 C   0  0  0  0  0  0  0  0  0  0  0  0
  -28.3386  -21.7243   20.1882 C   0  0  1  0  0  0  0  0  0  0  0  0
  -28.2535  -18.0437   21.1261 C   0  0  1  0  0  0  0  0  0  0  0  0
  -23.6253  -25.1735   17.8186 C   0  0  2  0  0  0  0  0  0  0  0  0
  -18.9638  -23.0140   21.1468 C   0  0  0  0  0  0  0  0  0  0  0  0
  -21.6235  -20.0227   18.1090 C   0  0  0  0  0  0  0  0  0  0  0  0
  -31.3168  -12.0077   17.3597 C   0  0  0  0  0  0  0  0  0  0  0  0
  -29.0714  -18.1899   16.5796 C   0  0  0  0  0  0  0  0  0  0  0  0
  -29.8307  -16.0375   15.5505 C   0  0  0  0  0  0  0  0  0  0  0  0
  -31.3974  -17.3593   16.9723 C   0  0  0  0  0  0  0  0  0  0  0  0
  -29.6545  -11.9441   20.7815 C   0  0  0  0  0  0  0  0  0  0  0  0
  -20.5901  -15.3943   19.2325 C   0  0  0  0  0  0  0  0  0  0  0  0
  -22.1068  -15.3667   19.3457 C   0  0  0  0  0  0  0  0  0  1  0  0
  -29.4841  -16.1163   18.0615 C   0  0  1  0  0  0  0  0  0  0  0  0
  -30.7814  -12.6038   18.6523 C   0  0  2  0  0  0  0  0  0  0  0  0
  -29.9241  -16.9261   16.8093 C   0  0  0  0  0  0  0  0  0  0  0  0
  -23.7994  -27.1023   19.3453 N   0  0  0  0  0  0  0  0  0  0  0  0
  -24.4200  -26.0696   18.7499 N   0  0  0  0  0  0  0  0  0  0  0  0
  -28.3175  -17.0960   20.0116 N   0  0  0  0  0  0  0  0  0  0  0  0
  -21.4314  -24.1667   17.3250 N   0  0  0  0  0  0  0  0  0  0  0  0
  -26.5126  -24.9751   18.5661 N   0  0  0  0  0  0  0  0  0  0  0  0
  -27.3598  -28.3704   21.4211 N   0  0  0  0  0  0  0  0  0  0  0  0
  -20.4268  -17.7773   19.4396 N   0  0  0  0  0  0  0  0  0  0  0  0
  -20.8494  -22.6216   19.0091 N   0  0  0  0  0  0  0  0  0  0  0  0
  -28.6315  -20.3893   20.6641 N   0  0  0  0  0  0  0  0  0  0  0  0
  -30.2913  -14.9287   18.3190 N   0  0  0  0  0  0  0  0  0  0  0  0
  -30.1985  -11.5036   19.4712 N   0  3  0  0  0  0  0  0  0  0  0  0
  -28.2894  -26.5836   20.3248 O   0  0  0  0  0  0  0  0  0  0  0  0
  -26.6107  -19.3853   20.0886 O   0  0  0  0  0  0  0  0  0  0  0  0
  -30.6041  -17.4228   19.6940 O   0  0  0  0  0  0  0  0  0  0  0  0
  -19.1503  -16.4230   20.8719 O   0  0  0  0  0  0  0  0  0  0  0  0
  -28.5433  -13.4079   18.2261 O   0  0  0  0  0  0  0  0  0  0  0  0
  -20.1742  -22.2953   16.8138 O   0  0  0  0  0  0  0  0  0  0  0  0
  -23.6973  -32.1770   23.1906 O   0  0  0  0  0  0  0  0  0  0  0  0
  -22.4776  -15.2386   20.7177 O   0  0  0  0  0  0  0  0  0  1  0  0
  -27.3169  -36.3328   23.0125 F   0  0  0  0  0  0  0  0  0  0  0  0
  -26.3298  -31.7984   23.9453 F   0  0  0  0  0  0  0  0  0  0  0  0
  1  2  1  0  0  0  0
  1  5  2  0  0  0  0
  2  6  2  0  0  0  0
  3 10  2  0  0  0  0
  3 17  1  0  0  0  0
  4 11  1  0  0  0  0
  4 17  2  0  0  0  0
  5 19  1  0  0  0  0
  6 21  1  0  0  0  0
  7 12  2  0  0  0  0
  7 20  1  0  0  0  0
  8  9  2  0  0  0  0
  8 23  1  0  0  0  0
  9 25  1  0  0  0  0
 10 27  1  0  0  0  0
 11 27  2  0  0  0  0
 12 28  1  0  0  0  0
 13 14  2  0  0  0  0
 13 29  1  0  0  0  0
 14 30  1  0  0  0  0
 15 22  1  0  0  0  0
 15 28  2  0  0  0  0
 16 30  2  0  0  0  0
 16 31  1  0  0  0  0
 17 32  1  0  0  0  0
 18 32  1  0  0  0  0
 18 33  2  0  0  0  0
 18 34  1  0  0  0  0
 19 21  2  0  0  0  0
 19 40  1  0  0  0  0
 20 22  2  0  0  0  0
 20 41  1  0  0  0  0
 21 49  1  0  0  0  0
 22 42  1  0  0  0  0
 23 26  2  0  0  0  0
 23 52  1  0  0  0  0
 24 25  2  0  0  0  0
 24 26  1  0  0  0  0
 24 53  1  0  0  0  0
 25 70  1  0  0  0  0
 26 71  1  0  0  0  0
 27 81  1  0  0  0  0
 28 82  1  0  0  0  0
 29 31  2  0  0  0  0
 29 81  1  0  0  0  0
 30 83  1  0  0  0  0
 31 84  1  0  0  0  0
 32 64  2  0  0  0  0
 33 65  1  0  0  0  0
 33 68  1  0  0  0  0
 34 69  1  0  0  0  0
 34 75  2  0  0  0  0
 35 50  1  0  0  0  0
 35 72  1  0  0  0  0
 35 76  2  0  0  0  0
 36 61  1  0  0  0  0
 36 66  1  0  0  0  0
 36 77  2  0  0  0  0
 37 59  1  0  0  0  0
 37 70  1  0  0  0  0
 37 78  2  0  0  0  0
 38 62  1  0  0  0  0
 38 73  1  0  0  0  0
 38 79  2  0  0  0  0
 39 67  1  0  0  0  0
 39 71  1  0  0  0  0
 39 80  2  0  0  0  0
 40 43  1  0  0  0  0
 41 50  1  0  0  0  0
 42 66  1  0  0  0  0
 43 45  1  0  0  0  0
 44 46  1  0  0  0  0
 44 47  1  0  0  0  0
 45 49  1  0  0  0  0
 46 51  1  0  0  0  0
 47 67  1  0  0  0  0
 48 51  1  0  0  0  0
 48 67  1  0  0  0  0
 49 72  1  0  0  0  0
 50 66  1  0  0  0  0
 51 65  1  0  0  0  0
 54 62  1  0  0  0  0
 55 63  1  0  0  0  0
 56 63  1  0  0  0  0
 57 63  1  0  0  0  0
 58 74  1  0  0  0  0
 59 60  1  0  0  0  0
 60 82  1  0  0  0  0
 61 63  1  0  0  0  0
 61 73  1  0  0  0  0
 62 74  1  0  0  0  0
 64 65  1  0  0  0  0
M  CHG  1  74   1
M  ISO  4  39 100  60 101  71 100  82 101
M  END
> <Batch ID>
0012

> <Smiles>
CNC(C)C(=O)NC(C(=O)N1Cc2cc([101O:1][101CH2:1]CC(=O)Nc3ccc(C)c([100NH:0][100C:0](=O)N4CCCC(n5nc(-c6ccc(Oc7ccc(F)cc7F)cc6)c(C(N)=O)c5N)C4)c3C)ccc2CC1C(=O)NC1CCCc2ccccc21)C(C)(C)C

> <Shape>
0.224

> <Color>
0.067

> <Negative vol penalty>
0.000

$$$$

  -OEChem-04052315473D

 91 99  0     1  0  0  0  0  0999 V2000
  -16.7219  -31.1296   23.4121 C   0  0  0  0  0  0  0  0  0  0  0  0
  -17.9058  -31.6405   23.9343 C   0  0  0  0  0  0  0  0  0  0  0  0
  -24.5161  -13.6473   20.5326 C   0  0  0  0  0  0  0  0  0  0  0  0
  -26.8902  -13.3390   20.8577 C   0  0  0  0  0  0  0  0  0  0  0  0
  -16.7044  -29.8571   22.8426 C   0  0  0  0  0  0  0  0  0  0  0  0
  -19.0729  -30.8787   23.8881 C   0  0  0  0  0  0  0  0  0  0  0  0
  -26.1719  -31.5750   23.2286 C   0  0  0  0  0  0  0  0  0  0  0  0
  -24.3737  -12.2831   20.2792 C   0  0  0  0  0  0  0  0  0  0  0  0
  -26.7478  -11.9748   20.6044 C   0  0  0  0  0  0  0  0  0  0  0  0
  -27.3550  -31.1910   23.8585 C   0  0  0  0  0  0  0  0  0  0  0  0
  -23.3285   -8.8218   19.9017 C   0  0  0  0  0  0  0  0  0  0  0  0
  -22.2681   -8.1554   20.5157 C   0  0  0  0  0  0  0  0  0  0  0  0
  -27.2235  -29.0376   22.7793 C   0  0  0  0  0  0  0  0  0  0  0  0
  -31.7085  -22.8556   23.2323 C   0  0  0  0  0  0  0  0  0  0  0  0
  -31.1468  -23.0718   20.5083 C   0  0  0  0  0  0  0  0  0  0  0  0
  -23.1488   -8.7528   22.6848 C   0  0  0  0  0  0  0  0  0  0  0  0
  -25.7744  -14.1753   20.8218 C   0  0  0  0  0  0  0  0  0  0  0  0
  -25.8357  -16.2315   22.3304 C   0  0  0  0  0  0  0  0  0  0  0  0
  -17.8740  -29.0832   22.7807 C   0  0  0  0  0  0  0  0  0  0  0  0
  -25.4989  -30.6878   22.3764 C   0  0  0  0  0  0  0  0  0  0  0  0
  -19.0707  -29.5941   23.3184 C   0  0  0  0  0  0  0  0  0  0  0  0
  -26.0335  -29.4137   22.1378 C   0  0  0  0  0  0  0  0  0  0  0  0
  -30.6284  -22.1626   22.6858 C   0  0  0  0  0  0  0  0  0  0  0  0
  -32.5077  -23.6568   22.4168 C   0  0  0  0  0  0  0  0  0  0  0  0
  -30.3475  -22.2706   21.3238 C   0  0  0  0  0  0  0  0  0  0  0  0
  -32.2269  -23.7648   21.0548 C   0  0  0  0  0  0  0  0  0  0  0  0
  -25.4895  -11.4468   20.3151 C   0  0  0  0  0  0  0  0  0  0  0  0
  -27.8794  -29.9211   23.6362 C   0  0  0  0  0  0  0  0  0  0  0  0
  -24.2991   -9.4537   20.6792 C   0  0  0  0  0  0  0  0  0  0  0  0
  -22.1782   -8.1209   21.9073 C   0  0  0  0  0  0  0  0  0  0  0  0
  -24.2092   -9.4192   22.0707 C   0  0  0  0  0  0  0  0  0  0  0  0
  -25.9223  -15.5845   21.0831 C   0  0  0  0  0  0  0  0  0  0  0  0
  -26.0479  -17.5581   22.0446 C   0  0  0  0  0  0  0  0  0  0  0  0
  -25.5858  -15.6825   23.6311 C   0  0  0  0  0  0  0  0  0  0  0  0
  -22.6337  -29.3114   22.3812 C   0  0  0  0  0  0  0  0  0  0  0  0
  -23.5619  -28.2657   19.4542 C   0  0  0  0  0  0  0  0  0  0  0  0
  -32.8686  -24.7750   18.8430 C   0  0  0  0  0  0  0  0  0  0  0  0
  -30.7816  -27.9491   24.7567 C   0  0  0  0  0  0  0  0  0  0  0  0
  -26.1190  -27.5197   17.3208 C   0  0  0  0  0  0  0  0  0  0  0  0
  -28.8524  -21.5861   19.4153 C   0  0  0  0  0  0  0  0  0  0  0  0
  -17.7954  -27.6943   22.1980 C   0  0  0  0  0  0  0  0  0  0  0  0
  -24.2380  -31.1268   21.6837 C   0  0  0  0  0  0  0  0  0  0  0  0
  -25.3602  -28.4311   21.2161 C   0  0  0  0  0  0  0  0  0  0  0  0
  -19.1586  -27.1014   21.8510 C   0  0  0  0  0  0  0  0  0  0  0  0
  -26.2405  -19.9811   17.6046 C   0  0  0  0  0  0  0  0  0  0  0  0
  -20.1411  -27.3143   22.9982 C   0  0  0  0  0  0  0  0  0  0  0  0
  -25.9177  -18.7474   18.4507 C   0  0  0  0  0  0  0  0  0  0  0  0
  -27.7352  -20.2964   17.6087 C   0  0  0  0  0  0  0  0  0  0  0  0
  -28.0182  -19.1817   19.7874 C   0  0  0  0  0  0  0  0  0  0  0  0
  -20.3628  -28.8081   23.2646 C   0  0  1  0  0  0  0  0  0  0  0  0
  -23.3633  -29.9589   21.2384 C   0  0  1  0  0  0  0  0  0  0  0  0
  -26.5163  -18.8627   19.8664 C   0  0  2  0  0  0  0  0  0  0  0  0
  -29.7888  -21.3123   23.5833 C   0  0  0  0  0  0  0  0  0  0  0  0
  -33.9273  -25.7067   18.3086 C   0  0  0  0  0  0  0  0  0  0  0  0
  -26.5662  -26.6499   15.0098 C   0  0  0  0  0  0  0  0  0  0  0  0
  -22.9030  -25.4384   20.3935 C   0  0  0  0  0  0  0  0  0  0  0  0
  -24.2309  -24.5617   18.4606 C   0  0  0  0  0  0  0  0  0  0  0  0
  -22.1992  -25.9493   18.0487 C   0  0  0  0  0  0  0  0  0  0  0  0
  -34.6612  -23.5914   23.6491 C   0  0  0  0  0  0  0  0  0  0  0  0
  -27.4890  -30.0179   16.5201 C   0  0  0  0  0  0  0  0  0  0  0  0
  -29.5142  -28.2279   23.9772 C   0  0  0  0  0  0  0  0  0  1  0  0
  -33.7084  -26.4201   24.3180 C   0  0  0  0  0  0  0  0  0  0  0  0
  -32.4522  -26.1475   25.1427 C   0  0  0  0  0  0  0  0  0  0  0  0
  -33.6871  -25.7790   22.9321 C   0  0  0  0  0  0  0  0  0  0  0  0
  -24.2944  -27.0520   18.9353 C   0  0  1  0  0  0  0  0  0  0  0  0
  -26.3586  -27.8882   15.8678 C   0  0  2  0  0  0  0  0  0  0  0  0
  -23.4188  -25.7679   18.9784 C   0  0  0  0  0  0  0  0  0  0  0  0
  -26.1701  -16.4304   20.0796 N   0  0  0  0  0  0  0  0  0  0  0  0
  -26.2409  -17.6226   20.6960 N   0  0  0  0  0  0  0  0  0  0  0  0
  -24.1266  -28.9049   20.5671 N   0  0  0  0  0  0  0  0  0  0  0  0
  -28.2315  -20.3951   18.9831 N   0  0  0  0  0  0  0  0  0  0  0  0
  -26.0863  -18.6640   22.8178 N   0  0  0  0  0  0  0  0  0  0  0  0
  -25.3897  -14.2995   23.7462 N   0  0  0  0  0  0  0  0  0  0  0  0
  -33.0144  -24.5615   20.2185 N   0  0  0  0  0  0  0  0  0  0  0  0
  -29.2542  -21.5751   20.7506 N   0  0  0  0  0  0  0  0  0  0  0  0
  -21.2572  -29.3706   22.2756 N   0  0  0  0  0  0  0  0  0  0  0  0
  -31.2567  -26.6685   24.5211 N   0  0  0  0  0  0  0  0  0  0  0  0
  -24.7744  -27.4035   17.6032 N   0  0  0  0  0  0  0  0  0  0  0  0
  -33.5908  -24.3461   22.9884 N   0  0  3  0  0  0  0  0  0  0  0  0
  -27.5662  -28.7528   15.7451 N   0  3  0  0  0  0  0  0  0  0  0  0
  -25.5215  -16.3992   24.6586 O   0  0  0  0  0  0  0  0  0  0  0  0
  -23.2723  -28.7950   23.2907 O   0  0  0  0  0  0  0  0  0  0  0  0
  -22.5307  -28.6374   18.8884 O   0  0  0  0  0  0  0  0  0  0  0  0
  -32.0137  -24.3037   18.1001 O   0  0  0  0  0  0  0  0  0  0  0  0
  -31.3001  -28.7775   25.5002 O   0  0  0  0  0  0  0  0  0  0  0  0
  -27.0333  -27.3482   18.1240 O   0  0  0  0  0  0  0  0  0  0  0  0
  -28.9912  -22.5550   18.6644 O   0  0  0  0  0  0  0  0  0  0  0  0
  -25.3508  -10.1156   20.0681 O   0  0  0  0  0  0  0  0  0  0  0  0
  -29.0336  -29.5435   24.2503 O   0  0  0  0  0  0  0  0  0  1  0  0
  -21.1590   -7.4822   22.4968 F   0  0  0  0  0  0  0  0  0  0  0  0
  -25.1380  -10.0253   22.8229 F   0  0  0  0  0  0  0  0  0  0  0  0
  1  2  1  0  0  0  0
  1  5  2  0  0  0  0
  2  6  2  0  0  0  0
  3  8  2  0  0  0  0
  3 17  1  0  0  0  0
  4  9  1  0  0  0  0
  4 17  2  0  0  0  0
  5 19  1  0  0  0  0
  6 21  1  0  0  0  0
  7 10  2  0  0  0  0
  7 20  1  0  0  0  0
  8 27  1  0  0  0  0
  9 27  2  0  0  0  0
 10 28  1  0  0  0  0
 11 12  2  0  0  0  0
 11 29  1  0  0  0  0
 12 30  1  0  0  0  0
 13 22  1  0  0  0  0
 13 28  2  0  0  0  0
 14 23  2  0  0  0  0
 14 24  1  0  0  0  0
 15 25  2  0  0  0  0
 15 26  1  0  0  0  0
 16 30  2  0  0  0  0
 16 31  1  0  0  0  0
 17 32  1  0  0  0  0
 18 32  1  0  0  0  0
 18 33  2  0  0  0  0
 18 34  1  0  0  0  0
 19 21  2  0  0  0  0
 19 41  1  0  0  0  0
 20 22  2  0  0  0  0
 20 42  1  0  0  0  0
 21 50  1  0  0  0  0
 22 43  1  0  0  0  0
 23 25  1  0  0  0  0
 23 53  1  0  0  0  0
 24 26  2  0  0  0  0
 24 79  1  0  0  0  0
 25 75  1  0  0  0  0
 26 74  1  0  0  0  0
 27 88  1  0  0  0  0
 28 89  1  0  0  0  0
 29 31  2  0  0  0  0
 29 88  1  0  0  0  0
 30 90  1  0  0  0  0
 31 91  1  0  0  0  0
 32 68  2  0  0  0  0
 33 69  1  0  0  0  0
 33 72  1  0  0  0  0
 34 73  1  0  0  0  0
 34 81  2  0  0  0  0
 35 51  1  0  0  0  0
 35 76  1  0  0  0  0
 35 82  2  0  0  0  0
 36 65  1  0  0  0  0
 36 70  1  0  0  0  0
 36 83  2  0  0  0  0
 37 54  1  0  0  0  0
 37 74  1  0  0  0  0
 37 84  2  0  0  0  0
 38 61  1  0  0  0  0
 38 77  1  0  0  0  0
 38 85  2  0  0  0  0
 39 66  1  0  0  0  0
 39 78  1  0  0  0  0
 39 86  2  0  0  0  0
 40 71  1  0  0  0  0
 40 75  1  0  0  0  0
 40 87  2  0  0  0  0
 41 44  1  0  0  0  0
 42 51  1  0  0  0  0
 43 70  1  0  0  0  0
 44 46  1  0  0  0  0
 45 47  1  0  0  0  0
 45 48  1  0  0  0  0
 46 50  1  0  0  0  0
 47 52  1  0  0  0  0
 48 71  1  0  0  0  0
 49 52  1  0  0  0  0
 49 71  1  0  0  0  0
 50 76  1  0  0  0  0
 51 70  1  0  0  0  0
 52 69  1  0  0  0  0
 55 66  1  0  0  0  0
 56 67  1  0  0  0  0
 57 67  1  0  0  0  0
 58 67  1  0  0  0  0
 59 79  1  0  0  0  0
 60 80  1  0  0  0  0
 61 89  1  0  0  0  0
 62 63  1  0  0  0  0
 62 64  1  0  0  0  0
 63 77  1  0  0  0  0
 64 79  1  0  0  0  0
 65 67  1  0  0  0  0
 65 78  1  0  0  0  0
 66 80  1  0  0  0  0
 68 69  1  0  0  0  0
M  CHG  1  80   1
M  ISO  4  40 100  61 101  75 100  89 101
M  END
> <Batch ID>
0012

> <Smiles>
CNC(C)C(=O)NC(C(=O)N1Cc2cc([101O:1][101CH2:1]C(=O)NCCCN(C)c3cc(C)c([100NH:0][100C:0](=O)N4CCCC(n5nc(-c6ccc(Oc7ccc(F)cc7F)cc6)c(C(N)=O)c5N)C4)cc3NC(C)=O)ccc2CC1C(=O)NC1CCCc2ccccc21)C(C)(C)C

> <Shape>
0.264

> <Color>
0.121

> <Negative vol penalty>
0.000

$$$$

  -OEChem-04052315473D

 82 90  0     1  0  0  0  0  0999 V2000
  -30.6341  -11.7991   19.7207 C   0  0  0  0  0  0  0  0  0  0  0  0
  -30.4091  -13.1573   19.5207 C   0  0  0  0  0  0  0  0  0  0  0  0
  -19.8628  -28.8057   23.1536 C   0  0  0  0  0  0  0  0  0  0  0  0
  -20.9661  -26.6619   22.9990 C   0  0  0  0  0  0  0  0  0  0  0  0
  -29.5546  -10.9287   19.8657 C   0  0  0  0  0  0  0  0  0  0  0  0
  -29.1042  -13.6458   19.4645 C   0  0  0  0  0  0  0  0  0  0  0  0
  -28.4995  -17.8864   22.1657 C   0  0  0  0  0  0  0  0  0  0  0  0
  -18.6989  -28.2446   22.6281 C   0  0  0  0  0  0  0  0  0  0  0  0
  -19.8022  -26.1008   22.4736 C   0  0  0  0  0  0  0  0  0  0  0  0
  -28.9607  -19.0737   21.5988 C   0  0  0  0  0  0  0  0  0  0  0  0
  -16.8300  -24.9895   23.6362 C   0  0  0  0  0  0  0  0  0  0  0  0
  -16.4195  -23.7574   24.1451 C   0  0  0  0  0  0  0  0  0  0  0  0
  -26.7092  -19.6204   20.9271 C   0  0  0  0  0  0  0  0  0  0  0  0
  -29.7255  -27.8032   19.5721 C   0  0  0  0  0  0  0  0  0  0  0  0
  -30.3840  -25.5092   19.1966 C   0  0  0  0  0  0  0  0  0  0  0  0
  -16.5986  -22.7870   21.9397 C   0  0  0  0  0  0  0  0  0  0  0  0
  -20.9964  -28.0144   23.3390 C   0  0  0  0  0  0  0  0  0  0  0  0
  -22.5629  -28.6827   25.2383 C   0  0  0  0  0  0  0  0  0  0  0  0
  -28.2360  -11.4082   19.8210 C   0  0  0  0  0  0  0  0  0  0  0  0
  -27.1391  -17.5515   22.1080 C   0  0  0  0  0  0  0  0  0  0  0  0
  -28.0060  -12.7808   19.6078 C   0  0  0  0  0  0  0  0  0  0  0  0
  -26.2330  -18.4296   21.4964 C   0  0  0  0  0  0  0  0  0  0  0  0
  -30.4672  -26.8604   18.8604 C   0  0  0  0  0  0  0  0  0  0  0  0
  -28.9006  -27.3948   20.6202 C   0  0  0  0  0  0  0  0  0  0  0  0
  -29.5591  -25.1008   20.2446 C   0  0  0  0  0  0  0  0  0  0  0  0
  -18.6686  -26.8921   22.2882 C   0  0  0  0  0  0  0  0  0  0  0  0
  -28.0660  -19.9395   20.9768 C   0  0  0  0  0  0  0  0  0  0  0  0
  -17.1248  -25.1204   22.2791 C   0  0  0  0  0  0  0  0  0  0  0  0
  -16.3038  -22.6561   23.2968 C   0  0  0  0  0  0  0  0  0  0  0  0
  -17.0091  -24.0192   21.4309 C   0  0  0  0  0  0  0  0  0  0  0  0
  -28.8174  -26.0436   20.9564 C   0  0  0  0  0  0  0  0  0  0  0  0
  -22.1992  -28.5936   23.8812 C   0  0  0  0  0  0  0  0  0  0  0  0
  -23.7841  -29.3112   25.2259 C   0  0  0  0  0  0  0  0  0  0  0  0
  -21.8597  -28.2372   26.4056 C   0  0  0  0  0  0  0  0  0  0  0  0
  -25.4663  -15.1772   20.8163 C   0  0  0  0  0  0  0  0  0  0  0  0
  -22.9962  -16.5903   22.3731 C   0  0  0  0  0  0  0  0  0  0  0  0
  -21.6831  -19.4193   23.7584 C   0  0  0  0  0  0  0  0  0  0  0  0
  -28.1165  -29.7334   21.1323 C   0  0  0  0  0  0  0  0  0  0  0  0
  -27.1007  -10.4221   19.9357 C   0  0  0  0  0  0  0  0  0  0  0  0
  -26.6535  -16.2798   22.7479 C   0  0  0  0  0  0  0  0  0  0  0  0
  -24.7594  -18.1260   21.4255 C   0  0  0  0  0  0  0  0  0  0  0  0
  -25.7546  -11.0754   20.2383 C   0  0  0  0  0  0  0  0  0  0  0  0
  -26.3658  -32.4280   22.6658 C   0  0  0  0  0  0  0  0  0  0  0  0
  -25.5317  -12.2827   19.3330 C   0  0  0  0  0  0  0  0  0  0  0  0
  -25.1349  -31.7577   23.2802 C   0  0  0  0  0  0  0  0  0  0  0  0
  -26.7464  -31.7973   21.3274 C   0  0  0  0  0  0  0  0  0  0  0  0
  -25.6850  -29.6686   21.9687 C   0  0  0  0  0  0  0  0  0  0  0  0
  -26.6055  -13.3525   19.5658 C   0  0  1  0  0  0  0  0  0  0  0  0
  -25.3239  -15.7944   22.1788 C   0  0  1  0  0  0  0  0  0  0  0  0
  -25.3021  -30.2270   23.3490 C   0  0  2  0  0  0  0  0  0  0  0  0
  -31.3484  -27.2959   17.7387 C   0  0  0  0  0  0  0  0  0  0  0  0
  -19.6299  -20.2732   24.9215 C   0  0  0  0  0  0  0  0  0  0  0  0
  -21.5134  -16.6493   19.7070 C   0  0  0  0  0  0  0  0  0  0  0  0
  -19.9346  -18.3187   20.7015 C   0  0  0  0  0  0  0  0  0  0  0  0
  -20.0992  -16.0273   21.6737 C   0  0  0  0  0  0  0  0  0  0  0  0
  -23.2125  -20.1202   26.1933 C   0  0  0  0  0  0  0  0  0  0  0  0
  -30.2122  -22.7186   19.8919 C   0  0  0  0  0  0  0  0  0  0  0  0
  -29.9126  -21.3648   20.5136 C   0  0  0  0  0  0  0  0  0  1  0  0
  -21.9920  -17.6647   22.0321 C   0  0  1  0  0  0  0  0  0  0  0  0
  -21.0138  -19.6678   25.0981 C   0  0  2  0  0  0  0  0  0  0  0  0
  -20.9128  -17.1701   21.0280 C   0  0  0  0  0  0  0  0  0  0  0  0
  -23.1152  -29.1232   23.0660 N   0  0  0  0  0  0  0  0  0  0  0  0
  -24.0665  -29.5512   23.9133 N   0  0  0  0  0  0  0  0  0  0  0  0
  -24.3345  -16.8674   22.0602 N   0  0  0  0  0  0  0  0  0  0  0  0
  -26.8918  -30.3471   21.4704 N   0  0  0  0  0  0  0  0  0  0  0  0
  -24.6331  -29.6764   26.2098 N   0  0  0  0  0  0  0  0  0  0  0  0
  -20.6172  -27.6106   26.2387 N   0  0  0  0  0  0  0  0  0  0  0  0
  -28.1475  -28.3549   21.3405 N   0  0  0  0  0  0  0  0  0  0  0  0
  -29.4786  -23.7585   20.5765 N   0  0  0  0  0  0  0  0  0  0  0  0
  -26.3250  -14.0952   20.7758 N   0  0  0  0  0  0  0  0  0  0  0  0
  -21.4537  -18.1384   23.3026 N   0  0  0  0  0  0  0  0  0  0  0  0
  -21.8334  -20.6011   25.9215 N   0  3  0  0  0  0  0  0  0  0  0  0
  -22.3120  -28.4049   27.5636 O   0  0  0  0  0  0  0  0  0  0  0  0
  -24.8423  -15.6468   19.8720 O   0  0  0  0  0  0  0  0  0  0  0  0
  -22.6083  -15.5467   22.9043 O   0  0  0  0  0  0  0  0  0  0  0  0
  -22.3404  -20.2771   23.1730 O   0  0  0  0  0  0  0  0  0  0  0  0
  -29.0767  -30.3869   20.7164 O   0  0  0  0  0  0  0  0  0  0  0  0
  -17.5330  -26.3442   21.7756 O   0  0  0  0  0  0  0  0  0  0  0  0
  -28.5136  -21.0987   20.4220 O   0  0  0  0  0  0  0  0  0  1  0  0
  -15.9111  -21.4726   23.7859 F   0  0  0  0  0  0  0  0  0  0  0  0
  -17.2921  -24.1385   20.1265 F   0  0  0  0  0  0  0  0  0  0  0  0
  -28.0237  -25.6504   21.9645 F   0  0  0  0  0  0  0  0  0  0  0  0
  1  2  1  0  0  0  0
  1  5  2  0  0  0  0
  2  6  2  0  0  0  0
  3  8  2  0  0  0  0
  3 17  1  0  0  0  0
  4  9  1  0  0  0  0
  4 17  2  0  0  0  0
  5 19  1  0  0  0  0
  6 21  1  0  0  0  0
  7 10  2  0  0  0  0
  7 20  1  0  0  0  0
  8 26  1  0  0  0  0
  9 26  2  0  0  0  0
 10 27  1  0  0  0  0
 11 12  2  0  0  0  0
 11 28  1  0  0  0  0
 12 29  1  0  0  0  0
 13 22  1  0  0  0  0
 13 27  2  0  0  0  0
 14 23  1  0  0  0  0
 14 24  2  0  0  0  0
 15 23  2  0  0  0  0
 15 25  1  0  0  0  0
 16 29  2  0  0  0  0
 16 30  1  0  0  0  0
 17 32  1  0  0  0  0
 18 32  1  0  0  0  0
 18 33  2  0  0  0  0
 18 34  1  0  0  0  0
 19 21  2  0  0  0  0
 19 39  1  0  0  0  0
 20 22  2  0  0  0  0
 20 40  1  0  0  0  0
 21 48  1  0  0  0  0
 22 41  1  0  0  0  0
 23 51  1  0  0  0  0
 24 31  1  0  0  0  0
 24 68  1  0  0  0  0
 25 31  2  0  0  0  0
 25 69  1  0  0  0  0
 26 78  1  0  0  0  0
 27 79  1  0  0  0  0
 28 30  2  0  0  0  0
 28 78  1  0  0  0  0
 29 80  1  0  0  0  0
 30 81  1  0  0  0  0
 31 82  1  0  0  0  0
 32 62  2  0  0  0  0
 33 63  1  0  0  0  0
 33 66  1  0  0  0  0
 34 67  1  0  0  0  0
 34 73  2  0  0  0  0
 35 49  1  0  0  0  0
 35 70  1  0  0  0  0
 35 74  2  0  0  0  0
 36 59  1  0  0  0  0
 36 64  1  0  0  0  0
 36 75  2  0  0  0  0
 37 60  1  0  0  0  0
 37 71  1  0  0  0  0
 37 76  2  0  0  0  0
 38 65  1  0  0  0  0
 38 68  1  0  0  0  0
 38 77  2  0  0  0  0
 39 42  1  0  0  0  0
 40 49  1  0  0  0  0
 41 64  1  0  0  0  0
 42 44  1  0  0  0  0
 43 45  1  0  0  0  0
 43 46  1  0  0  0  0
 44 48  1  0  0  0  0
 45 50  1  0  0  0  0
 46 65  1  0  0  0  0
 47 50  1  0  0  0  0
 47 65  1  0  0  0  0
 48 70  1  0  0  0  0
 49 64  1  0  0  0  0
 50 63  1  0  0  0  0
 52 60  1  0  0  0  0
 53 61  1  0  0  0  0
 54 61  1  0  0  0  0
 55 61  1  0  0  0  0
 56 72  1  0  0  0  0
 57 58  1  0  0  0  0
 57 69  1  0  0  0  0
 58 79  1  0  0  0  0
 59 61  1  0  0  0  0
 59 71  1  0  0  0  0
 60 72  1  0  0  0  0
 62 63  1  0  0  0  0
M  CHG  1  72   1
M  ISO  4  38 100  58 101  68 100  79 101
M  END
> <Batch ID>
0012

> <Smiles>
CNC(C)C(=O)NC(C(=O)N1Cc2cc([101O:1][101CH2:1]CNc3cc(C)cc([100NH:0][100C:0](=O)N4CCCC(n5nc(-c6ccc(Oc7ccc(F)cc7F)cc6)c(C(N)=O)c5N)C4)c3F)ccc2CC1C(=O)NC1CCCc2ccccc21)C(C)(C)C

> <Shape>
0.245

> <Color>
0.060

> <Negative vol penalty>
0.000

$$$$

  -OEChem-04052315473D

 86 94  0     1  0  0  0  0  0999 V2000
  -18.6394  -33.1753   20.8590 C   0  0  0  0  0  0  0  0  0  0  0  0
  -19.9842  -33.0068   20.5452 C   0  0  0  0  0  0  0  0  0  0  0  0
  -28.4460  -12.4477   20.7193 C   0  0  0  0  0  0  0  0  0  0  0  0
  -26.4077  -13.5957   20.1153 C   0  0  0  0  0  0  0  0  0  0  0  0
  -18.0754  -32.4577   21.9130 C   0  0  0  0  0  0  0  0  0  0  0  0
  -20.7661  -32.1212   21.2860 C   0  0  0  0  0  0  0  0  0  0  0  0
  -25.3628  -28.6471   19.2106 C   0  0  0  0  0  0  0  0  0  0  0  0
  -27.7915  -11.2219   20.5982 C   0  0  0  0  0  0  0  0  0  0  0  0
  -25.7533  -12.3698   19.9942 C   0  0  0  0  0  0  0  0  0  0  0  0
  -26.7473  -28.8097   19.2368 C   0  0  0  0  0  0  0  0  0  0  0  0
  -23.4502   -9.5606   19.8760 C   0  0  0  0  0  0  0  0  0  0  0  0
  -22.1806   -9.4448   20.4419 C   0  0  0  0  0  0  0  0  0  0  0  0
  -26.8628  -27.4535   21.2284 C   0  0  0  0  0  0  0  0  0  0  0  0
  -30.2962  -23.3986   22.5656 C   0  0  0  0  0  0  0  0  0  0  0  0
  -23.1035   -9.9513   22.6165 C   0  0  0  0  0  0  0  0  0  0  0  0
  -27.7541  -13.6346   20.4779 C   0  0  0  0  0  0  0  0  0  0  0  0
  -29.1211  -15.5994   19.5955 C   0  0  0  0  0  0  0  0  0  0  0  0
  -18.8485  -31.5557   22.6609 C   0  0  0  0  0  0  0  0  0  0  0  0
  -24.7157  -27.8942   20.2009 C   0  0  0  0  0  0  0  0  0  0  0  0
  -20.2123  -31.3918   22.3518 C   0  0  0  0  0  0  0  0  0  0  0  0
  -25.4703  -27.2807   21.2110 C   0  0  0  0  0  0  0  0  0  0  0  0
  -30.9970  -24.4873   22.0468 C   0  0  0  0  0  0  0  0  0  0  0  0
  -30.0221  -24.0794   19.8742 C   0  0  0  0  0  0  0  0  0  0  0  0
  -29.4584  -22.6502   21.7387 C   0  0  0  0  0  0  0  0  0  0  0  0
  -30.8599  -24.8277   20.7011 C   0  0  0  0  0  0  0  0  0  0  0  0
  -26.4452  -11.1829   20.2356 C   0  0  0  0  0  0  0  0  0  0  0  0
  -27.4971  -28.2153   20.2474 C   0  0  0  0  0  0  0  0  0  0  0  0
  -24.5466   -9.8716   20.6804 C   0  0  0  0  0  0  0  0  0  0  0  0
  -29.3214  -22.9906   20.3930 C   0  0  0  0  0  0  0  0  0  0  0  0
  -22.0072   -9.6402   21.8120 C   0  0  0  0  0  0  0  0  0  0  0  0
  -24.3732  -10.0670   22.0506 C   0  0  0  0  0  0  0  0  0  0  0  0
  -28.4294  -14.9012   20.6035 C   0  0  0  0  0  0  0  0  0  0  0  0
  -29.5767  -16.7367   20.2163 C   0  0  0  0  0  0  0  0  0  0  0  0
  -29.3327  -15.2510   18.2209 C   0  0  0  0  0  0  0  0  0  0  0  0
  -22.5356  -28.5196   22.4280 C   0  0  0  0  0  0  0  0  0  0  0  0
  -22.6551  -25.3114   22.8918 C   0  0  0  0  0  0  0  0  0  0  0  0
  -30.9899  -27.2361   20.1945 C   0  0  0  0  0  0  0  0  0  0  0  0
  -24.4232  -22.4064   22.6049 C   0  0  0  0  0  0  0  0  0  0  0  0
  -28.7876  -21.0889   23.5985 C   0  0  0  0  0  0  0  0  0  0  0  0
  -18.2062  -30.8375   23.8212 C   0  0  0  0  0  0  0  0  0  0  0  0
  -23.2245  -27.7062   20.1433 C   0  0  0  0  0  0  0  0  0  0  0  0
  -24.8258  -26.4457   22.2861 C   0  0  0  0  0  0  0  0  0  0  0  0
  -19.0121  -29.6399   24.3178 C   0  0  0  0  0  0  0  0  0  0  0  0
  -29.6840  -17.9961   25.1178 C   0  0  0  0  0  0  0  0  0  0  0  0
  -20.4843  -30.0111   24.4650 C   0  0  0  0  0  0  0  0  0  0  0  0
  -29.4944  -16.9726   23.9958 C   0  0  0  0  0  0  0  0  0  0  0  0
  -28.6221  -19.0933   25.0699 C   0  0  0  0  0  0  0  0  0  0  0  0
  -28.2982  -18.7478   22.6523 C   0  0  0  0  0  0  0  0  0  0  0  0
  -21.0871  -30.4220   23.1162 C   0  0  1  0  0  0  0  0  0  0  0  0
  -22.6152  -27.3449   21.4945 C   0  0  1  0  0  0  0  0  0  0  0  0
  -29.3828  -17.6587   22.6202 C   0  0  2  0  0  0  0  0  0  0  0  0
  -31.8867  -25.2702   22.9573 C   0  0  0  0  0  0  0  0  0  0  0  0
  -29.8682  -24.4356   18.4286 C   0  0  0  0  0  0  0  0  0  0  0  0
  -24.2739  -19.9519   23.1053 C   0  0  0  0  0  0  0  0  0  0  0  0
  -23.1806  -25.8835   25.8424 C   0  0  0  0  0  0  0  0  0  0  0  0
  -23.9525  -23.5150   26.0925 C   0  0  0  0  0  0  0  0  0  0  0  0
  -21.6008  -23.9932   25.4115 C   0  0  0  0  0  0  0  0  0  0  0  0
  -32.9316  -25.7406   19.6034 C   0  0  0  0  0  0  0  0  0  0  0  0
  -24.6750  -21.6897   19.7445 C   0  0  0  0  0  0  0  0  0  0  0  0
  -29.0864  -21.1479   18.9081 C   0  0  0  0  0  0  0  0  0  0  0  0
  -29.6146  -27.3105   20.8420 C   0  0  0  0  0  0  0  0  0  1  0  0
  -23.4739  -24.3864   23.7595 C   0  0  1  0  0  0  0  0  0  0  0  0
  -24.0353  -21.0398   22.0698 C   0  0  2  0  0  0  0  0  0  0  0  0
  -23.0642  -24.4618   25.2575 C   0  0  0  0  0  0  0  0  0  0  0  0
  -28.4420  -15.5414   21.7757 N   0  0  0  0  0  0  0  0  0  0  0  0
  -29.1472  -16.6537   21.5082 N   0  0  0  0  0  0  0  0  0  0  0  0
  -23.3643  -26.2966   22.1902 N   0  0  0  0  0  0  0  0  0  0  0  0
  -28.5765  -19.7008   23.7381 N   0  0  0  0  0  0  0  0  0  0  0  0
  -30.2988  -17.7896   19.7778 N   0  0  0  0  0  0  0  0  0  0  0  0
  -28.7958  -14.0464   17.7466 N   0  0  0  0  0  0  0  0  0  0  0  0
  -28.7534  -21.5477   22.2821 N   0  0  0  0  0  0  0  0  0  0  0  0
  -21.3700  -29.2527   22.3118 N   0  0  0  0  0  0  0  0  0  0  0  0
  -23.3477  -23.0571   23.1717 N   0  0  0  0  0  0  0  0  0  0  0  0
  -31.5891  -25.9587   20.1639 N   0  0  0  0  0  0  0  0  0  0  0  0
  -24.8328  -20.7142   20.8537 N   0  3  0  0  0  0  0  0  0  0  0  0
  -29.9929  -15.9783   17.4406 O   0  0  0  0  0  0  0  0  0  0  0  0
  -23.4625  -28.7435   23.1978 O   0  0  0  0  0  0  0  0  0  0  0  0
  -21.4323  -25.1606   22.8328 O   0  0  0  0  0  0  0  0  0  0  0  0
  -31.5035  -28.2747   19.7710 O   0  0  0  0  0  0  0  0  0  0  0  0
  -25.5667  -22.8507   22.5310 O   0  0  0  0  0  0  0  0  0  0  0  0
  -29.0112  -21.8125   24.5723 O   0  0  0  0  0  0  0  0  0  0  0  0
  -25.8063   -9.9870   20.1171 O   0  0  0  0  0  0  0  0  0  0  0  0
  -28.5022  -22.2587   19.5832 O   0  0  0  0  0  0  0  0  0  0  0  0
  -28.8485  -28.3729   20.2758 O   0  0  0  0  0  0  0  0  0  1  0  0
  -20.7876   -9.5305   22.3550 F   0  0  0  0  0  0  0  0  0  0  0  0
  -25.4224  -10.3672   22.8283 F   0  0  0  0  0  0  0  0  0  0  0  0
  1  2  1  0  0  0  0
  1  5  2  0  0  0  0
  2  6  2  0  0  0  0
  3  8  2  0  0  0  0
  3 16  1  0  0  0  0
  4  9  1  0  0  0  0
  4 16  2  0  0  0  0
  5 18  1  0  0  0  0
  6 20  1  0  0  0  0
  7 10  2  0  0  0  0
  7 19  1  0  0  0  0
  8 26  1  0  0  0  0
  9 26  2  0  0  0  0
 10 27  1  0  0  0  0
 11 12  2  0  0  0  0
 11 28  1  0  0  0  0
 12 30  1  0  0  0  0
 13 21  1  0  0  0  0
 13 27  2  0  0  0  0
 14 22  2  0  0  0  0
 14 24  1  0  0  0  0
 15 30  2  0  0  0  0
 15 31  1  0  0  0  0
 16 32  1  0  0  0  0
 17 32  1  0  0  0  0
 17 33  2  0  0  0  0
 17 34  1  0  0  0  0
 18 20  2  0  0  0  0
 18 40  1  0  0  0  0
 19 21  2  0  0  0  0
 19 41  1  0  0  0  0
 20 49  1  0  0  0  0
 21 42  1  0  0  0  0
 22 25  1  0  0  0  0
 22 52  1  0  0  0  0
 23 25  2  0  0  0  0
 23 29  1  0  0  0  0
 23 53  1  0  0  0  0
 24 29  2  0  0  0  0
 24 71  1  0  0  0  0
 25 74  1  0  0  0  0
 26 82  1  0  0  0  0
 27 84  1  0  0  0  0
 28 31  2  0  0  0  0
 28 82  1  0  0  0  0
 29 83  1  0  0  0  0
 30 85  1  0  0  0  0
 31 86  1  0  0  0  0
 32 65  2  0  0  0  0
 33 66  1  0  0  0  0
 33 69  1  0  0  0  0
 34 70  1  0  0  0  0
 34 76  2  0  0  0  0
 35 50  1  0  0  0  0
 35 72  1  0  0  0  0
 35 77  2  0  0  0  0
 36 62  1  0  0  0  0
 36 67  1  0  0  0  0
 36 78  2  0  0  0  0
 37 61  1  0  0  0  0
 37 74  1  0  0  0  0
 37 79  2  0  0  0  0
 38 63  1  0  0  0  0
 38 73  1  0  0  0  0
 38 80  2  0  0  0  0
 39 68  1  0  0  0  0
 39 71  1  0  0  0  0
 39 81  2  0  0  0  0
 40 43  1  0  0  0  0
 41 50  1  0  0  0  0
 42 67  1  0  0  0  0
 43 45  1  0  0  0  0
 44 46  1  0  0  0  0
 44 47  1  0  0  0  0
 45 49  1  0  0  0  0
 46 51  1  0  0  0  0
 47 68  1  0  0  0  0
 48 51  1  0  0  0  0
 48 68  1  0  0  0  0
 49 72  1  0  0  0  0
 50 67  1  0  0  0  0
 51 66  1  0  0  0  0
 54 63  1  0  0  0  0
 55 64  1  0  0  0  0
 56 64  1  0  0  0  0
 57 64  1  0  0  0  0
 58 74  1  0  0  0  0
 59 75  1  0  0  0  0
 60 83  1  0  0  0  0
 61 84  1  0  0  0  0
 62 64  1  0  0  0  0
 62 73  1  0  0  0  0
 63 75  1  0  0  0  0
 65 66  1  0  0  0  0
M  CHG  1  75   1
M  ISO  4  39 100  61 101  71 100  84 101
M  END
> <Batch ID>
0012

> <Smiles>
CNC(C)C(=O)NC(C(=O)N1Cc2cc([101O:1][101CH2:1]C(=O)N(C)c3c(C)cc([100NH:0][100C:0](=O)N4CCCC(n5nc(-c6ccc(Oc7ccc(F)cc7F)cc6)c(C(N)=O)c5N)C4)c(OC)c3C)ccc2CC1C(=O)NC1CCCc2ccccc21)C(C)(C)C

> <Shape>
0.230

> <Color>
0.099

> <Negative vol penalty>
0.000

$$$$

  -OEChem-04052315473D

 85 93  0     1  0  0  0  0  0999 V2000
  -27.2316  -36.5906   22.0334 C   0  0  0  0  0  0  0  0  0  0  0  0
  -27.7433  -35.3976   21.5331 C   0  0  0  0  0  0  0  0  0  0  0  0
  -23.8118  -10.0125   22.2135 C   0  0  0  0  0  0  0  0  0  0  0  0
  -24.4655  -11.5351   23.9718 C   0  0  0  0  0  0  0  0  0  0  0  0
  -26.3617  -36.5722   23.1228 C   0  0  0  0  0  0  0  0  0  0  0  0
  -27.3862  -34.1855   22.1227 C   0  0  0  0  0  0  0  0  0  0  0  0
  -26.5902  -28.8105   19.2975 C   0  0  0  0  0  0  0  0  0  0  0  0
  -23.3194   -9.1221   23.1676 C   0  0  0  0  0  0  0  0  0  0  0  0
  -23.9731  -10.6446   24.9259 C   0  0  0  0  0  0  0  0  0  0  0  0
  -27.4194  -27.7005   19.1424 C   0  0  0  0  0  0  0  0  0  0  0  0
  -20.5532   -8.8053   25.0860 C   0  0  0  0  0  0  0  0  0  0  0  0
  -19.3049   -8.2287   24.8515 C   0  0  0  0  0  0  0  0  0  0  0  0
  -26.3621  -26.6529   21.0407 C   0  0  0  0  0  0  0  0  0  0  0  0
  -31.0668  -18.5379   19.4444 C   0  0  0  0  0  0  0  0  0  0  0  0
  -29.0889  -20.4778   19.7716 C   0  0  0  0  0  0  0  0  0  0  0  0
  -20.3123   -6.0330   24.8878 C   0  0  0  0  0  0  0  0  0  0  0  0
  -24.3849  -11.2190   22.6156 C   0  0  0  0  0  0  0  0  0  0  0  0
  -24.1898  -13.1778   20.9931 C   0  0  0  0  0  0  0  0  0  0  0  0
  -25.9863  -35.3585   23.7201 C   0  0  0  0  0  0  0  0  0  0  0  0
  -25.6466  -28.8547   20.3338 C   0  0  0  0  0  0  0  0  0  0  0  0
  -26.5116  -34.1509   23.2220 C   0  0  0  0  0  0  0  0  0  0  0  0
  -25.5203  -27.7635   21.2053 C   0  0  0  0  0  0  0  0  0  0  0  0
  -29.7224  -18.1668   19.4632 C   0  0  0  0  0  0  0  0  0  0  0  0
  -30.4334  -20.8489   19.7529 C   0  0  0  0  0  0  0  0  0  0  0  0
  -23.4000   -9.4381   24.5238 C   0  0  0  0  0  0  0  0  0  0  0  0
  -27.3074  -26.6227   20.0158 C   0  0  0  0  0  0  0  0  0  0  0  0
  -21.6810   -7.9957   25.2214 C   0  0  0  0  0  0  0  0  0  0  0  0
  -19.1845   -6.8426   24.7524 C   0  0  0  0  0  0  0  0  0  0  0  0
  -28.7334  -19.1368   19.6267 C   0  0  0  0  0  0  0  0  0  0  0  0
  -31.4224  -19.8789   19.5893 C   0  0  0  0  0  0  0  0  0  0  0  0
  -21.5606   -6.6096   25.1224 C   0  0  0  0  0  0  0  0  0  0  0  0
  -24.8942  -12.1389   21.6305 C   0  0  0  0  0  0  0  0  0  0  0  0
  -25.1119  -13.7531   20.1533 C   0  0  0  0  0  0  0  0  0  0  0  0
  -22.8240  -13.5864   21.1465 C   0  0  0  0  0  0  0  0  0  0  0  0
  -25.1759  -30.7248   22.8607 C   0  0  0  0  0  0  0  0  0  0  0  0
  -22.4664  -28.9678   23.1679 C   0  0  0  0  0  0  0  0  0  0  0  0
  -29.9443  -23.2761   19.4601 C   0  0  0  0  0  0  0  0  0  0  0  0
  -20.8153  -26.0520   22.5211 C   0  0  0  0  0  0  0  0  0  0  0  0
  -30.2231  -15.7184   19.1455 C   0  0  0  0  0  0  0  0  0  0  0  0
  -25.0804  -35.3923   24.9255 C   0  0  0  0  0  0  0  0  0  0  0  0
  -24.7413  -30.0480   20.4713 C   0  0  0  0  0  0  0  0  0  0  0  0
  -24.5094  -27.7530   22.3217 C   0  0  0  0  0  0  0  0  0  0  0  0
  -24.4570  -34.0389   25.2570 C   0  0  0  0  0  0  0  0  0  0  0  0
  -29.7345  -12.2101   18.7849 C   0  0  0  0  0  0  0  0  0  0  0  0
  -25.5146  -32.9402   25.2185 C   0  0  0  0  0  0  0  0  0  0  0  0
  -28.3738  -11.9643   19.4407 C   0  0  0  0  0  0  0  0  0  0  0  0
  -30.5344  -13.2821   19.5230 C   0  0  0  0  0  0  0  0  0  0  0  0
  -28.4664  -14.3067   20.3850 C   0  0  0  0  0  0  0  0  0  0  0  0
  -26.1284  -32.8141   23.8189 C   0  0  1  0  0  0  0  0  0  0  0  0
  -24.1673  -30.2039   21.8762 C   0  0  1  0  0  0  0  0  0  0  0  0
  -27.5976  -13.2811   19.6388 C   0  0  2  0  0  0  0  0  0  0  0  0
  -18.6275  -24.8939   22.9330 C   0  0  0  0  0  0  0  0  0  0  0  0
  -23.3152  -28.3915   26.0415 C   0  0  0  0  0  0  0  0  0  0  0  0
  -21.6516  -26.5211   26.0840 C   0  0  0  0  0  0  0  0  0  0  0  0
  -20.8777  -28.8688   25.7495 C   0  0  0  0  0  0  0  0  0  0  0  0
  -32.0480  -22.5172   20.6332 C   0  0  0  0  0  0  0  0  0  0  0  0
  -20.2298  -25.8778   19.6253 C   0  0  0  0  0  0  0  0  0  0  0  0
  -30.3748  -24.6982   19.8204 C   0  0  0  0  0  0  0  0  0  0  0  0
  -29.4116  -25.7652   19.3135 C   0  0  0  0  0  0  0  0  0  1  0  0
  -22.0974  -27.6870   23.8766 C   0  0  1  0  0  0  0  0  0  0  0  0
  -19.4206  -25.7814   21.9864 C   0  0  2  0  0  0  0  0  0  0  0  0
  -22.0060  -27.8678   25.4181 C   0  0  0  0  0  0  0  0  0  0  0  0
  -26.1657  -12.0565   21.2299 N   0  0  0  0  0  0  0  0  0  0  0  0
  -26.2675  -13.0509   20.3316 N   0  0  0  0  0  0  0  0  0  0  0  0
  -23.6514  -28.9455   22.4188 N   0  0  0  0  0  0  0  0  0  0  0  0
  -29.7374  -14.5020   19.6699 N   0  0  0  0  0  0  0  0  0  0  0  0
  -25.0389  -14.7859   19.2871 N   0  0  0  0  0  0  0  0  0  0  0  0
  -22.0150  -12.8867   22.0521 N   0  0  0  0  0  0  0  0  0  0  0  0
  -29.3644  -16.8038   19.3163 N   0  0  0  0  0  0  0  0  0  0  0  0
  -25.2295  -32.1036   22.9349 N   0  0  0  0  0  0  0  0  0  0  0  0
  -20.8634  -27.2179   23.2557 N   0  0  0  0  0  0  0  0  0  0  0  0
  -30.7998  -22.2428   19.9043 N   0  0  0  0  0  0  0  0  0  0  0  0
  -19.4963  -25.1050   20.6606 N   0  3  0  0  0  0  0  0  0  0  0  0
  -22.3311  -14.5331   20.4875 O   0  0  0  0  0  0  0  0  0  0  0  0
  -25.8541  -29.9343   23.5063 O   0  0  0  0  0  0  0  0  0  0  0  0
  -21.7267  -29.9498   23.2692 O   0  0  0  0  0  0  0  0  0  0  0  0
  -28.8888  -23.1009   18.8463 O   0  0  0  0  0  0  0  0  0  0  0  0
  -21.7662  -25.3020   22.3115 O   0  0  0  0  0  0  0  0  0  0  0  0
  -31.3080  -15.7864   18.5620 O   0  0  0  0  0  0  0  0  0  0  0  0
  -22.9195   -8.5696   25.4551 O   0  0  0  0  0  0  0  0  0  0  0  0
  -28.1160  -25.5383   19.8671 O   0  0  0  0  0  0  0  0  0  1  0  0
  -17.9855   -6.2890   24.5287 F   0  0  0  0  0  0  0  0  0  0  0  0
  -27.4380  -18.7917   19.6456 F   0  0  0  0  0  0  0  0  0  0  0  0
  -32.7178  -20.2240   19.5694 F   0  0  0  0  0  0  0  0  0  0  0  0
  -22.6403   -5.8266   25.2527 F   0  0  0  0  0  0  0  0  0  0  0  0
  1  2  1  0  0  0  0
  1  5  2  0  0  0  0
  2  6  2  0  0  0  0
  3  8  2  0  0  0  0
  3 17  1  0  0  0  0
  4  9  1  0  0  0  0
  4 17  2  0  0  0  0
  5 19  1  0  0  0  0
  6 21  1  0  0  0  0
  7 10  2  0  0  0  0
  7 20  1  0  0  0  0
  8 25  1  0  0  0  0
  9 25  2  0  0  0  0
 10 26  1  0  0  0  0
 11 12  2  0  0  0  0
 11 27  1  0  0  0  0
 12 28  1  0  0  0  0
 13 22  1  0  0  0  0
 13 26  2  0  0  0  0
 14 23  2  0  0  0  0
 14 30  1  0  0  0  0
 15 24  1  0  0  0  0
 15 29  2  0  0  0  0
 16 28  2  0  0  0  0
 16 31  1  0  0  0  0
 17 32  1  0  0  0  0
 18 32  1  0  0  0  0
 18 33  2  0  0  0  0
 18 34  1  0  0  0  0
 19 21  2  0  0  0  0
 19 40  1  0  0  0  0
 20 22  2  0  0  0  0
 20 41  1  0  0  0  0
 21 49  1  0  0  0  0
 22 42  1  0  0  0  0
 23 29  1  0  0  0  0
 23 69  1  0  0  0  0
 24 30  2  0  0  0  0
 24 72  1  0  0  0  0
 25 80  1  0  0  0  0
 26 81  1  0  0  0  0
 27 31  2  0  0  0  0
 27 80  1  0  0  0  0
 28 82  1  0  0  0  0
 29 83  1  0  0  0  0
 30 84  1  0  0  0  0
 31 85  1  0  0  0  0
 32 63  2  0  0  0  0
 33 64  1  0  0  0  0
 33 67  1  0  0  0  0
 34 68  1  0  0  0  0
 34 74  2  0  0  0  0
 35 50  1  0  0  0  0
 35 70  1  0  0  0  0
 35 75  2  0  0  0  0
 36 60  1  0  0  0  0
 36 65  1  0  0  0  0
 36 76  2  0  0  0  0
 37 58  1  0  0  0  0
 37 72  1  0  0  0  0
 37 77  2  0  0  0  0
 38 61  1  0  0  0  0
 38 71  1  0  0  0  0
 38 78  2  0  0  0  0
 39 66  1  0  0  0  0
 39 69  1  0  0  0  0
 39 79  2  0  0  0  0
 40 43  1  0  0  0  0
 41 50  1  0  0  0  0
 42 65  1  0  0  0  0
 43 45  1  0  0  0  0
 44 46  1  0  0  0  0
 44 47  1  0  0  0  0
 45 49  1  0  0  0  0
 46 51  1  0  0  0  0
 47 66  1  0  0  0  0
 48 51  1  0  0  0  0
 48 66  1  0  0  0  0
 49 70  1  0  0  0  0
 50 65  1  0  0  0  0
 51 64  1  0  0  0  0
 52 61  1  0  0  0  0
 53 62  1  0  0  0  0
 54 62  1  0  0  0  0
 55 62  1  0  0  0  0
 56 72  1  0  0  0  0
 57 73  1  0  0  0  0
 58 59  1  0  0  0  0
 59 81  1  0  0  0  0
 60 62  1  0  0  0  0
 60 71  1  0  0  0  0
 61 73  1  0  0  0  0
 63 64  1  0  0  0  0
M  CHG  1  73   1
M  ISO  4  39 100  59 101  69 100  81 101
M  END
> <Batch ID>
0012

> <Smiles>
CNC(C)C(=O)NC(C(=O)N1Cc2cc([101O:1][101CH2:1]CC(=O)N(C)c3cc(F)c([100NH:0][100C:0](=O)N4CCCC(n5nc(-c6ccc(Oc7ccc(F)cc7F)cc6)c(C(N)=O)c5N)C4)cc3F)ccc2CC1C(=O)NC1CCCc2ccccc21)C(C)(C)C

> <Shape>
0.338

> <Color>
0.139

> <Negative vol penalty>
0.000

$$$$

  -OEChem-04052315473D

 85 93  0     1  0  0  0  0  0999 V2000
  -16.8293  -22.0432   22.6967 C   0  0  0  0  0  0  0  0  0  0  0  0
  -17.8692  -21.1922   22.3367 C   0  0  0  0  0  0  0  0  0  0  0  0
  -23.1908   -9.8195   19.9317 C   0  0  0  0  0  0  0  0  0  0  0  0
  -23.5701   -9.9993   22.3109 C   0  0  0  0  0  0  0  0  0  0  0  0
  -16.7741  -22.5674   23.9875 C   0  0  0  0  0  0  0  0  0  0  0  0
  -18.8553  -20.8656   23.2670 C   0  0  0  0  0  0  0  0  0  0  0  0
  -23.1960  -15.4856   25.1456 C   0  0  0  0  0  0  0  0  0  0  0  0
  -22.4249   -8.6725   20.1404 C   0  0  0  0  0  0  0  0  0  0  0  0
  -22.8042   -8.8524   22.5197 C   0  0  0  0  0  0  0  0  0  0  0  0
  -24.5430  -15.2248   25.3936 C   0  0  0  0  0  0  0  0  0  0  0  0
  -23.2062   -5.5059   22.2545 C   0  0  0  0  0  0  0  0  0  0  0  0
  -23.7052   -4.5445   23.1333 C   0  0  0  0  0  0  0  0  0  0  0  0
  -24.3018  -16.1268   27.6179 C   0  0  0  0  0  0  0  0  0  0  0  0
  -31.4813  -13.8702   26.3353 C   0  0  0  0  0  0  0  0  0  0  0  0
  -33.4428  -12.9894   25.2336 C   0  0  0  0  0  0  0  0  0  0  0  0
  -21.7492   -4.8035   24.5276 C   0  0  0  0  0  0  0  0  0  0  0  0
  -23.7634  -10.4829   21.0169 C   0  0  0  0  0  0  0  0  0  0  0  0
  -24.1012  -12.9997   20.7737 C   0  0  0  0  0  0  0  0  0  0  0  0
  -17.7547  -22.2394   24.9370 C   0  0  0  0  0  0  0  0  0  0  0  0
  -22.3931  -16.0799   26.1297 C   0  0  0  0  0  0  0  0  0  0  0  0
  -18.8139  -21.3870   24.5713 C   0  0  0  0  0  0  0  0  0  0  0  0
  -22.9443  -16.3917   27.3808 C   0  0  0  0  0  0  0  0  0  0  0  0
  -32.8402  -13.5563   26.3566 C   0  0  0  0  0  0  0  0  0  0  0  0
  -30.7249  -13.6172   25.1909 C   0  0  0  0  0  0  0  0  0  0  0  0
  -31.3275  -13.0503   24.0678 C   0  0  0  0  0  0  0  0  0  0  0  0
  -22.2316   -8.1890   21.4344 C   0  0  0  0  0  0  0  0  0  0  0  0
  -25.0968  -15.5481   26.6289 C   0  0  0  0  0  0  0  0  0  0  0  0
  -21.9787   -6.1162   22.5123 C   0  0  0  0  0  0  0  0  0  0  0  0
  -22.9768   -4.1932   24.2698 C   0  0  0  0  0  0  0  0  0  0  0  0
  -32.6864  -12.7364   24.0892 C   0  0  0  0  0  0  0  0  0  0  0  0
  -21.2502   -5.7649   23.6488 C   0  0  0  0  0  0  0  0  0  0  0  0
  -24.5551  -11.6674   20.8019 C   0  0  0  0  0  0  0  0  0  0  0  0
  -25.2321  -13.7427   20.5381 C   0  0  0  0  0  0  0  0  0  0  0  0
  -22.7759  -13.5191   20.9453 C   0  0  0  0  0  0  0  0  0  0  0  0
  -20.7564  -18.7958   26.3505 C   0  0  0  0  0  0  0  0  0  0  0  0
  -19.7356  -17.4992   29.1432 C   0  0  0  0  0  0  0  0  0  0  0  0
  -28.6135  -14.5095   26.2298 C   0  0  0  0  0  0  0  0  0  0  0  0
  -20.3021  -15.3095   31.6988 C   0  0  0  0  0  0  0  0  0  0  0  0
  -31.0373  -12.7836   21.5797 C   0  0  0  0  0  0  0  0  0  0  0  0
  -17.6789  -22.8682   26.3058 C   0  0  0  0  0  0  0  0  0  0  0  0
  -20.9355  -16.3302   25.8558 C   0  0  0  0  0  0  0  0  0  0  0  0
  -22.1201  -17.0124   28.4780 C   0  0  0  0  0  0  0  0  0  0  0  0
  -18.5575  -22.1751   27.3440 C   0  0  0  0  0  0  0  0  0  0  0  0
  -29.5232  -13.4656   18.4301 C   0  0  0  0  0  0  0  0  0  0  0  0
  -19.9507  -21.9182   26.7784 C   0  0  0  0  0  0  0  0  0  0  0  0
  -28.0353  -13.2090   18.6800 C   0  0  0  0  0  0  0  0  0  0  0  0
  -30.4050  -12.4807   19.1957 C   0  0  0  0  0  0  0  0  0  0  0  0
  -28.6460  -12.1382   20.8862 C   0  0  0  0  0  0  0  0  0  0  0  0
  -19.8888  -20.9896   25.5597 C   0  0  1  0  0  0  0  0  0  0  0  0
  -20.3360  -17.4100   26.7513 C   0  0  1  0  0  0  0  0  0  0  0  0
  -27.7196  -13.1466   20.1873 C   0  0  2  0  0  0  0  0  0  0  0  0
  -19.3081  -14.5000   33.8562 C   0  0  0  0  0  0  0  0  0  0  0  0
  -20.6450  -20.0648   30.5219 C   0  0  0  0  0  0  0  0  0  0  0  0
  -20.5198  -18.8516   32.7084 C   0  0  0  0  0  0  0  0  0  0  0  0
  -18.4598  -19.1611   31.3361 C   0  0  0  0  0  0  0  0  0  0  0  0
  -32.9913  -14.4025   28.6850 C   0  0  0  0  0  0  0  0  0  0  0  0
  -35.0160  -13.4767   27.5482 C   0  0  0  0  0  0  0  0  0  0  0  0
  -20.0687  -12.5384   30.6861 C   0  0  0  0  0  0  0  0  0  0  0  0
  -27.1647  -14.6971   25.8194 C   0  0  0  0  0  0  0  0  0  1  0  0
  -20.2230  -17.5181   30.5719 C   0  0  1  0  0  0  0  0  0  0  0  0
  -19.4066  -14.2743   32.3555 C   0  0  2  0  0  0  0  0  0  0  0  0
  -19.9781  -18.8890   31.2634 C   0  0  0  0  0  0  0  0  0  0  0  0
  -25.8716  -11.5668   20.6001 N   0  0  0  0  0  0  0  0  0  0  0  0
  -26.2547  -12.8453   20.4428 N   0  0  0  0  0  0  0  0  0  0  0  0
  -20.7015  -17.2435   28.1595 N   0  0  0  0  0  0  0  0  0  0  0  0
  -30.0519  -12.4787   20.6170 N   0  0  0  0  0  0  0  0  0  0  0  0
  -25.4415  -15.0697   20.4051 N   0  0  0  0  0  0  0  0  0  0  0  0
  -21.7296  -12.6165   21.1795 N   0  0  0  0  0  0  0  0  0  0  0  0
  -29.3480  -13.9438   25.1933 N   0  0  0  0  0  0  0  0  0  0  0  0
  -30.5771  -12.7829   22.8960 N   0  0  0  0  0  0  0  0  0  0  0  0
  -19.7083  -19.6163   25.9794 N   0  0  0  0  0  0  0  0  0  0  0  0
  -19.5804  -16.3900   31.2374 N   0  0  0  0  0  0  0  0  0  0  0  0
  -33.6064  -13.8127   27.5127 N   0  0  0  0  0  0  0  0  0  0  0  0
  -19.9412  -12.9032   32.1205 N   0  3  0  0  0  0  0  0  0  0  0  0
  -22.5243  -14.7461   20.8760 O   0  0  0  0  0  0  0  0  0  0  0  0
  -21.9435  -19.0986   26.3774 O   0  0  0  0  0  0  0  0  0  0  0  0
  -18.5407  -17.6966   28.9092 O   0  0  0  0  0  0  0  0  0  0  0  0
  -29.0133  -14.8355   27.3426 O   0  0  0  0  0  0  0  0  0  0  0  0
  -21.5203  -15.1748   31.6079 O   0  0  0  0  0  0  0  0  0  0  0  0
  -32.1971  -13.0541   21.2579 O   0  0  0  0  0  0  0  0  0  0  0  0
  -21.4842   -7.0699   21.6386 O   0  0  0  0  0  0  0  0  0  0  0  0
  -26.4113  -15.2952   26.8734 O   0  0  0  0  0  0  0  0  0  1  0  0
  -23.4554   -3.2688   25.1127 F   0  0  0  0  0  0  0  0  0  0  0  0
  -33.2769  -12.1911   23.0160 F   0  0  0  0  0  0  0  0  0  0  0  0
  -20.0697   -6.3469   23.9011 F   0  0  0  0  0  0  0  0  0  0  0  0
  1  2  1  0  0  0  0
  1  5  2  0  0  0  0
  2  6  2  0  0  0  0
  3  8  2  0  0  0  0
  3 17  1  0  0  0  0
  4  9  1  0  0  0  0
  4 17  2  0  0  0  0
  5 19  1  0  0  0  0
  6 21  1  0  0  0  0
  7 10  2  0  0  0  0
  7 20  1  0  0  0  0
  8 26  1  0  0  0  0
  9 26  2  0  0  0  0
 10 27  1  0  0  0  0
 11 12  2  0  0  0  0
 11 28  1  0  0  0  0
 12 29  1  0  0  0  0
 13 22  1  0  0  0  0
 13 27  2  0  0  0  0
 14 23  2  0  0  0  0
 14 24  1  0  0  0  0
 15 23  1  0  0  0  0
 15 30  2  0  0  0  0
 16 29  2  0  0  0  0
 16 31  1  0  0  0  0
 17 32  1  0  0  0  0
 18 32  1  0  0  0  0
 18 33  2  0  0  0  0
 18 34  1  0  0  0  0
 19 21  2  0  0  0  0
 19 40  1  0  0  0  0
 20 22  2  0  0  0  0
 20 41  1  0  0  0  0
 21 49  1  0  0  0  0
 22 42  1  0  0  0  0
 23 73  1  0  0  0  0
 24 25  2  0  0  0  0
 24 69  1  0  0  0  0
 25 30  1  0  0  0  0
 25 70  1  0  0  0  0
 26 81  1  0  0  0  0
 27 82  1  0  0  0  0
 28 31  2  0  0  0  0
 28 81  1  0  0  0  0
 29 83  1  0  0  0  0
 30 84  1  0  0  0  0
 31 85  1  0  0  0  0
 32 63  2  0  0  0  0
 33 64  1  0  0  0  0
 33 67  1  0  0  0  0
 34 68  1  0  0  0  0
 34 75  2  0  0  0  0
 35 50  1  0  0  0  0
 35 71  1  0  0  0  0
 35 76  2  0  0  0  0
 36 60  1  0  0  0  0
 36 65  1  0  0  0  0
 36 77  2  0  0  0  0
 37 59  1  0  0  0  0
 37 69  1  0  0  0  0
 37 78  2  0  0  0  0
 38 61  1  0  0  0  0
 38 72  1  0  0  0  0
 38 79  2  0  0  0  0
 39 66  1  0  0  0  0
 39 70  1  0  0  0  0
 39 80  2  0  0  0  0
 40 43  1  0  0  0  0
 41 50  1  0  0  0  0
 42 65  1  0  0  0  0
 43 45  1  0  0  0  0
 44 46  1  0  0  0  0
 44 47  1  0  0  0  0
 45 49  1  0  0  0  0
 46 51  1  0  0  0  0
 47 66  1  0  0  0  0
 48 51  1  0  0  0  0
 48 66  1  0  0  0  0
 49 71  1  0  0  0  0
 50 65  1  0  0  0  0
 51 64  1  0  0  0  0
 52 61  1  0  0  0  0
 53 62  1  0  0  0  0
 54 62  1  0  0  0  0
 55 62  1  0  0  0  0
 56 73  1  0  0  0  0
 57 73  1  0  0  0  0
 58 74  1  0  0  0  0
 59 82  1  0  0  0  0
 60 62  1  0  0  0  0
 60 72  1  0  0  0  0
 61 74  1  0  0  0  0
 63 64  1  0  0  0  0
M  CHG  1  74   1
M  ISO  4  39 100  59 101  70 100  82 101
M  END
> <Batch ID>
0012

> <Smiles>
CNC(C)C(=O)NC(C(=O)N1Cc2cc([101O:1][101CH2:1]C(=O)Nc3cc(N(C)C)cc(F)c3[100NH:0][100C:0](=O)N3CCCC(n4nc(-c5ccc(Oc6ccc(F)cc6F)cc5)c(C(N)=O)c4N)C3)ccc2CC1C(=O)NC1CCCc2ccccc21)C(C)(C)C

> <Shape>
0.139

> <Color>
0.182

> <Negative vol penalty>
0.000

$$$$

  -OEChem-04052315473D

 86 93  0     1  0  0  0  0  0999 V2000
  -20.5932  -19.7631   23.0094 C   0  0  0  0  0  0  0  0  0  0  0  0
  -21.9483  -20.0778   22.9957 C   0  0  0  0  0  0  0  0  0  0  0  0
  -26.9988  -13.2359   21.1804 C   0  0  0  0  0  0  0  0  0  0  0  0
  -26.7818  -13.6457   18.8093 C   0  0  0  0  0  0  0  0  0  0  0  0
  -19.6594  -20.6874   22.5430 C   0  0  0  0  0  0  0  0  0  0  0  0
  -22.3704  -21.3166   22.5145 C   0  0  0  0  0  0  0  0  0  0  0  0
  -25.8518  -23.4739   25.4928 C   0  0  0  0  0  0  0  0  0  0  0  0
  -26.2523  -12.0652   21.0464 C   0  0  0  0  0  0  0  0  0  0  0  0
  -26.0354  -12.4749   18.6753 C   0  0  0  0  0  0  0  0  0  0  0  0
  -27.1585  -22.9980   25.3928 C   0  0  0  0  0  0  0  0  0  0  0  0
  -22.9970  -11.2085   20.7412 C   0  0  0  0  0  0  0  0  0  0  0  0
  -21.9945  -10.9688   21.6809 C   0  0  0  0  0  0  0  0  0  0  0  0
  -27.7292  -24.8767   23.9914 C   0  0  0  0  0  0  0  0  0  0  0  0
  -23.0933   -8.9172   22.3297 C   0  0  0  0  0  0  0  0  0  0  0  0
  -27.2634  -14.0262   20.0618 C   0  0  0  0  0  0  0  0  0  0  0  0
  -29.4313  -15.3703   20.0949 C   0  0  0  0  0  0  0  0  0  0  0  0
  -20.0695  -21.9420   22.0648 C   0  0  0  0  0  0  0  0  0  0  0  0
  -25.4706  -24.6510   24.8328 C   0  0  0  0  0  0  0  0  0  0  0  0
  -21.4413  -22.2581   22.0400 C   0  0  0  0  0  0  0  0  0  0  0  0
  -26.4177  -25.3668   24.0867 C   0  0  0  0  0  0  0  0  0  0  0  0
  -25.7707  -11.6847   19.7938 C   0  0  0  0  0  0  0  0  0  0  0  0
  -28.0966  -23.6978   24.6397 C   0  0  0  0  0  0  0  0  0  0  0  0
  -24.0476  -10.3025   20.5956 C   0  0  0  0  0  0  0  0  0  0  0  0
  -22.0427   -9.8232   22.4752 C   0  0  0  0  0  0  0  0  0  0  0  0
  -24.0958   -9.1569   21.3899 C   0  0  0  0  0  0  0  0  0  0  0  0
  -28.0339  -15.2359   20.1997 C   0  0  0  0  0  0  0  0  0  0  0  0
  -29.6642  -16.7077   20.3038 C   0  0  0  0  0  0  0  0  0  0  0  0
  -30.4296  -14.3753   19.8320 C   0  0  0  0  0  0  0  0  0  0  0  0
  -23.3700  -25.3670   22.5572 C   0  0  0  0  0  0  0  0  0  0  0  0
  -24.2669  -28.4110   23.2293 C   0  0  0  0  0  0  0  0  0  0  0  0
  -31.4821  -21.4888   23.5180 C   0  0  0  0  0  0  0  0  0  0  0  0
  -29.9357  -24.7306   20.2253 C   0  0  0  0  0  0  0  0  0  0  0  0
  -26.6382  -30.5240   24.4781 C   0  0  0  0  0  0  0  0  0  0  0  0
  -28.4786  -21.9556   19.3035 C   0  0  0  0  0  0  0  0  0  0  0  0
  -19.0271  -22.8900   21.5269 C   0  0  0  0  0  0  0  0  0  0  0  0
  -24.0641  -25.1655   24.9724 C   0  0  0  0  0  0  0  0  0  0  0  0
  -26.0643  -26.6466   23.3755 C   0  0  0  0  0  0  0  0  0  0  0  0
  -19.5261  -24.3254   21.3819 C   0  0  0  0  0  0  0  0  0  0  0  0
  -26.5871  -20.3699   21.9502 C   0  0  0  0  0  0  0  0  0  0  0  0
  -20.8945  -24.3493   20.7083 C   0  0  0  0  0  0  0  0  0  0  0  0
  -26.9155  -18.8942   21.7167 C   0  0  0  0  0  0  0  0  0  0  0  0
  -26.4446  -21.1202   20.6292 C   0  0  0  0  0  0  0  0  0  0  0  0
  -27.9580  -19.5401   19.4950 C   0  0  0  0  0  0  0  0  0  0  0  0
  -21.9363  -23.6011   21.5487 C   0  0  1  0  0  0  0  0  0  0  0  0
  -23.6541  -26.0994   23.8380 C   0  0  1  0  0  0  0  0  0  0  0  0
  -28.1370  -18.7314   20.7927 C   0  0  2  0  0  0  0  0  0  0  0  0
  -27.1014  -32.9607   24.8590 C   0  0  0  0  0  0  0  0  0  0  0  0
  -24.8543  -28.7617   20.2558 C   0  0  0  0  0  0  0  0  0  0  0  0
  -26.1729  -30.8113   20.8292 C   0  0  0  0  0  0  0  0  0  0  0  0
  -23.7320  -30.7186   21.3353 C   0  0  0  0  0  0  0  0  0  0  0  0
  -33.8172  -20.9807   24.2664 C   0  0  0  0  0  0  0  0  0  0  0  0
  -26.8447  -30.1460   27.4061 C   0  0  0  0  0  0  0  0  0  0  0  0
  -31.1413  -21.6633   24.9944 C   0  0  0  0  0  0  0  0  0  0  0  0
  -28.8717  -24.4034   19.1993 C   0  0  0  0  0  0  0  0  0  0  0  0
  -32.7204  -23.3241   21.1327 C   0  0  0  0  0  0  0  0  0  0  0  0
  -33.2563  -24.5811   20.4401 C   0  0  0  0  0  0  0  0  0  0  0  0
  -33.8011  -22.2425   21.2292 C   0  0  0  0  0  0  0  0  0  0  0  0
  -32.2239  -25.7022   20.3792 C   0  0  0  0  0  0  0  0  0  0  0  0
  -33.2856  -20.9535   21.8607 C   0  0  0  0  0  0  0  0  0  0  0  0
  -29.6810  -22.0263   25.2327 C   0  0  0  0  0  0  0  0  0  1  0  0
  -25.3386  -29.3462   22.7235 C   0  0  1  0  0  0  0  0  0  0  0  0
  -26.5422  -31.6795   25.4579 C   0  0  2  0  0  0  0  0  0  0  0  0
  -25.0309  -29.8843   21.2977 C   0  0  0  0  0  0  0  0  0  0  0  0
  -27.4221  -16.3953   20.4556 N   0  0  0  0  0  0  0  0  0  0  0  0
  -28.4399  -17.2710   20.5133 N   0  0  0  0  0  0  0  0  0  0  0  0
  -24.6748  -27.1054   23.5372 N   0  0  0  0  0  0  0  0  0  0  0  0
  -27.6478  -20.9398   19.8047 N   0  0  0  0  0  0  0  0  0  0  0  0
  -30.7948  -17.4450   20.3271 N   0  0  0  0  0  0  0  0  0  0  0  0
  -30.0174  -13.0494   19.6413 N   0  0  0  0  0  0  0  0  0  0  0  0
  -22.3701  -24.4189   22.6612 N   0  0  0  0  0  0  0  0  0  0  0  0
  -31.0498  -25.3270   19.6412 N   0  0  0  0  0  0  0  0  0  0  0  0
  -25.4841  -30.3862   23.7362 N   0  0  0  0  0  0  0  0  0  0  0  0
  -28.1116  -23.2537   19.6366 N   0  0  0  0  0  0  0  0  0  0  0  0
  -32.8094  -21.1542   23.2274 N   0  0  0  0  0  0  0  0  0  0  0  0
  -27.3045  -31.3697   26.7004 N   0  3  0  0  0  0  0  0  0  0  0  0
  -31.6524  -14.6509   19.7844 O   0  0  0  0  0  0  0  0  0  0  0  0
  -24.0094  -25.6427   21.5489 O   0  0  0  0  0  0  0  0  0  0  0  0
  -23.1118  -28.8258   23.3537 O   0  0  0  0  0  0  0  0  0  0  0  0
  -30.6161  -21.6397   22.6523 O   0  0  0  0  0  0  0  0  0  0  0  0
  -29.8272  -24.4598   21.4185 O   0  0  0  0  0  0  0  0  0  0  0  0
  -27.6383  -29.8168   24.3781 O   0  0  0  0  0  0  0  0  0  0  0  0
  -29.4775  -21.7228   18.6141 O   0  0  0  0  0  0  0  0  0  0  0  0
  -25.0425  -10.5423   19.6627 O   0  0  0  0  0  0  0  0  0  0  0  0
  -29.3725  -23.2351   24.5399 O   0  0  0  0  0  0  0  0  0  1  0  0
  -21.0808   -9.5939   23.3787 F   0  0  0  0  0  0  0  0  0  0  0  0
  -25.1032   -8.2835   21.2554 F   0  0  0  0  0  0  0  0  0  0  0  0
  1  2  1  0  0  0  0
  1  5  2  0  0  0  0
  2  6  2  0  0  0  0
  3  8  2  0  0  0  0
  3 15  1  0  0  0  0
  4  9  1  0  0  0  0
  4 15  2  0  0  0  0
  5 17  1  0  0  0  0
  6 19  1  0  0  0  0
  7 10  2  0  0  0  0
  7 18  1  0  0  0  0
  8 21  1  0  0  0  0
  9 21  2  0  0  0  0
 10 22  1  0  0  0  0
 11 12  2  0  0  0  0
 11 23  1  0  0  0  0
 12 24  1  0  0  0  0
 13 20  1  0  0  0  0
 13 22  2  0  0  0  0
 14 24  2  0  0  0  0
 14 25  1  0  0  0  0
 15 26  1  0  0  0  0
 16 26  1  0  0  0  0
 16 27  2  0  0  0  0
 16 28  1  0  0  0  0
 17 19  2  0  0  0  0
 17 35  1  0  0  0  0
 18 20  2  0  0  0  0
 18 36  1  0  0  0  0
 19 44  1  0  0  0  0
 20 37  1  0  0  0  0
 21 83  1  0  0  0  0
 22 84  1  0  0  0  0
 23 25  2  0  0  0  0
 23 83  1  0  0  0  0
 24 85  1  0  0  0  0
 25 86  1  0  0  0  0
 26 64  2  0  0  0  0
 27 65  1  0  0  0  0
 27 68  1  0  0  0  0
 28 69  1  0  0  0  0
 28 76  2  0  0  0  0
 29 45  1  0  0  0  0
 29 70  1  0  0  0  0
 29 77  2  0  0  0  0
 30 61  1  0  0  0  0
 30 66  1  0  0  0  0
 30 78  2  0  0  0  0
 31 53  1  0  0  0  0
 31 74  1  0  0  0  0
 31 79  2  0  0  0  0
 32 54  1  0  0  0  0
 32 71  1  0  0  0  0
 32 80  2  0  0  0  0
 33 62  1  0  0  0  0
 33 72  1  0  0  0  0
 33 81  2  0  0  0  0
 34 67  1  0  0  0  0
 34 73  1  0  0  0  0
 34 82  2  0  0  0  0
 35 38  1  0  0  0  0
 36 45  1  0  0  0  0
 37 66  1  0  0  0  0
 38 40  1  0  0  0  0
 39 41  1  0  0  0  0
 39 42  1  0  0  0  0
 40 44  1  0  0  0  0
 41 46  1  0  0  0  0
 42 67  1  0  0  0  0
 43 46  1  0  0  0  0
 43 67  1  0  0  0  0
 44 70  1  0  0  0  0
 45 66  1  0  0  0  0
 46 65  1  0  0  0  0
 47 62  1  0  0  0  0
 48 63  1  0  0  0  0
 49 63  1  0  0  0  0
 50 63  1  0  0  0  0
 51 74  1  0  0  0  0
 52 75  1  0  0  0  0
 53 60  1  0  0  0  0
 54 73  1  0  0  0  0
 55 56  1  0  0  0  0
 55 57  1  0  0  0  0
 56 58  1  0  0  0  0
 57 59  1  0  0  0  0
 58 71  1  0  0  0  0
 59 74  1  0  0  0  0
 60 84  1  0  0  0  0
 61 63  1  0  0  0  0
 61 72  1  0  0  0  0
 62 75  1  0  0  0  0
 64 65  1  0  0  0  0
M  CHG  1  75   1
M  ISO  4  34 100  60 101  73 100  84 101
M  END
> <Batch ID>
0012

> <Smiles>
CNC(C)C(=O)NC(C(=O)N1Cc2cc([101O:1][101CH2:1]CC(=O)N(C)CCCCCNC(=O)C[100NH:0][100C:0](=O)N3CCCC(n4nc(-c5ccc(Oc6ccc(F)cc6F)cc5)c(C(N)=O)c4N)C3)ccc2CC1C(=O)NC1CCCc2ccccc21)C(C)(C)C

> <Shape>
0.219

> <Color>
0.062

> <Negative vol penalty>
0.000

$$$$

  -OEChem-04052315473D

 84 92  0     1  0  0  0  0  0999 V2000
  -19.3793  -22.2488   30.9592 C   0  0  0  0  0  0  0  0  0  0  0  0
  -20.2722  -21.8441   29.9721 C   0  0  0  0  0  0  0  0  0  0  0  0
  -26.8578  -12.2365   21.8541 C   0  0  0  0  0  0  0  0  0  0  0  0
  -26.0547  -14.0012   20.4125 C   0  0  0  0  0  0  0  0  0  0  0  0
  -18.3447  -23.1285   30.6435 C   0  0  0  0  0  0  0  0  0  0  0  0
  -20.1303  -22.3180   28.6684 C   0  0  0  0  0  0  0  0  0  0  0  0
  -24.6215  -23.5763   24.6996 C   0  0  0  0  0  0  0  0  0  0  0  0
  -25.5699  -11.7053   21.9213 C   0  0  0  0  0  0  0  0  0  0  0  0
  -24.7668  -13.4699   20.4796 C   0  0  0  0  0  0  0  0  0  0  0  0
  -25.1688  -22.8515   23.6418 C   0  0  0  0  0  0  0  0  0  0  0  0
  -23.5516   -9.8125   19.9779 C   0  0  0  0  0  0  0  0  0  0  0  0
  -23.4109   -8.4329   19.8285 C   0  0  0  0  0  0  0  0  0  0  0  0
  -23.7272  -24.0219   22.1019 C   0  0  0  0  0  0  0  0  0  0  0  0
  -29.8120  -22.2600   23.1152 C   0  0  0  0  0  0  0  0  0  0  0  0
  -22.4225   -8.2955   22.0289 C   0  0  0  0  0  0  0  0  0  0  0  0
  -27.1003  -13.3846   21.0997 C   0  0  0  0  0  0  0  0  0  0  0  0
  -29.4311  -13.6223   20.0907 C   0  0  0  0  0  0  0  0  0  0  0  0
  -18.1959  -23.6211   29.3374 C   0  0  0  0  0  0  0  0  0  0  0  0
  -23.6136  -24.5231   24.4674 C   0  0  0  0  0  0  0  0  0  0  0  0
  -19.0920  -23.2041   28.3346 C   0  0  0  0  0  0  0  0  0  0  0  0
  -23.1706  -24.7592   23.1582 C   0  0  0  0  0  0  0  0  0  0  0  0
  -29.2629  -23.5330   22.9615 C   0  0  0  0  0  0  0  0  0  0  0  0
  -29.6497  -21.3046   22.1119 C   0  0  0  0  0  0  0  0  0  0  0  0
  -28.3890  -22.8952   20.8013 C   0  0  0  0  0  0  0  0  0  0  0  0
  -24.5244  -12.3219   21.2341 C   0  0  0  0  0  0  0  0  0  0  0  0
  -24.7197  -23.0722   22.3431 C   0  0  0  0  0  0  0  0  0  0  0  0
  -23.1278  -10.4337   21.1528 C   0  0  0  0  0  0  0  0  0  0  0  0
  -22.8463   -7.6743   20.8540 C   0  0  0  0  0  0  0  0  0  0  0  0
  -22.5633   -9.6752   22.1782 C   0  0  0  0  0  0  0  0  0  0  0  0
  -28.5514  -23.8506   21.8046 C   0  0  0  0  0  0  0  0  0  0  0  0
  -28.9381  -21.6222   20.9550 C   0  0  0  0  0  0  0  0  0  0  0  0
  -28.4304  -13.9342   21.0304 C   0  0  0  0  0  0  0  0  0  0  0  0
  -30.4991  -14.4059   20.4536 C   0  0  0  0  0  0  0  0  0  0  0  0
  -29.3983  -12.7061   18.9883 C   0  0  0  0  0  0  0  0  0  0  0  0
  -20.5864  -24.8467   25.3814 C   0  0  0  0  0  0  0  0  0  0  0  0
  -20.8467  -27.7101   23.8795 C   0  0  0  0  0  0  0  0  0  0  0  0
  -22.4256  -29.6164   21.5301 C   0  0  0  0  0  0  0  0  0  0  0  0
  -30.9482  -19.5795   23.4096 C   0  0  0  0  0  0  0  0  0  0  0  0
  -17.0337  -24.5331   29.0335 C   0  0  0  0  0  0  0  0  0  0  0  0
  -23.0524  -25.3157   25.6160 C   0  0  0  0  0  0  0  0  0  0  0  0
  -22.1050  -25.7790   22.8533 C   0  0  0  0  0  0  0  0  0  0  0  0
  -17.1771  -25.2825   27.7113 C   0  0  0  0  0  0  0  0  0  0  0  0
  -32.4862  -16.4888   24.2809 C   0  0  0  0  0  0  0  0  0  0  0  0
  -17.6160  -24.3306   26.6031 C   0  0  0  0  0  0  0  0  0  0  0  0
  -31.7157  -15.4552   23.4561 C   0  0  0  0  0  0  0  0  0  0  0  0
  -31.5745  -17.6064   24.7843 C   0  0  0  0  0  0  0  0  0  0  0  0
  -30.0048  -17.2369   22.9218 C   0  0  0  0  0  0  0  0  0  0  0  0
  -18.9859  -23.7157   26.9144 C   0  0  1  0  0  0  0  0  0  0  0  0
  -21.6681  -25.8882   25.3271 C   0  0  1  0  0  0  0  0  0  0  0  0
  -30.8931  -16.1259   22.3384 C   0  0  2  0  0  0  0  0  0  0  0  0
  -29.4635  -24.5238   24.0632 C   0  0  0  0  0  0  0  0  0  0  0  0
  -22.3920  -31.9062   20.5040 C   0  0  0  0  0  0  0  0  0  0  0  0
  -26.2866  -22.7381   17.7389 C   0  0  0  0  0  0  0  0  0  0  0  0
  -18.3688  -26.9497   22.2697 C   0  0  0  0  0  0  0  0  0  0  0  0
  -18.9393  -28.7795   20.6588 C   0  0  0  0  0  0  0  0  0  0  0  0
  -18.4247  -29.3293   23.0370 C   0  0  0  0  0  0  0  0  0  0  0  0
  -25.1896  -30.1837   22.4230 C   0  0  0  0  0  0  0  0  0  0  0  0
  -25.2905  -23.0083   20.0353 C   0  0  0  0  0  0  0  0  0  1  0  0
  -20.6167  -28.2036   22.4715 C   0  0  1  0  0  0  0  0  0  0  0  0
  -22.9904  -31.0242   21.5888 C   0  0  2  0  0  0  0  0  0  0  0  0
  -26.4888  -22.5088   19.2310 C   0  0  2  0  0  0  0  0  0  0  0  0
  -19.1061  -28.2949   22.1149 C   0  0  0  0  0  0  0  0  0  0  0  0
  -28.8272  -14.8449   21.9232 N   0  0  0  0  0  0  0  0  0  0  0  0
  -30.0892  -15.1119   21.5462 N   0  0  0  0  0  0  0  0  0  0  0  0
  -21.5829  -26.5241   24.0108 N   0  0  0  0  0  0  0  0  0  0  0  0
  -30.8303  -18.1978   23.6702 N   0  0  0  0  0  0  0  0  0  0  0  0
  -31.7395  -14.5531   19.9416 N   0  0  0  0  0  0  0  0  0  0  0  0
  -28.2215  -11.9808   18.7572 N   0  0  0  0  0  0  0  0  0  0  0  0
  -30.2203  -20.0222   22.3056 N   0  0  0  0  0  0  0  0  0  0  0  0
  -27.6839  -23.2107   19.6544 N   0  0  0  0  0  0  0  0  0  0  0  0
  -20.0412  -24.6667   26.6383 N   0  0  0  0  0  0  0  0  0  0  0  0
  -21.3345  -29.4688   22.3601 N   0  0  0  0  0  0  0  0  0  0  0  0
  -24.4696  -30.9967   21.4093 N   0  3  0  0  0  0  0  0  0  0  0  0
  -30.3888  -12.5237   18.2405 O   0  0  0  0  0  0  0  0  0  0  0  0
  -20.2688  -24.2515   24.3583 O   0  0  0  0  0  0  0  0  0  0  0  0
  -20.3961  -28.3570   24.8283 O   0  0  0  0  0  0  0  0  0  0  0  0
  -22.9022  -28.7366   20.8163 O   0  0  0  0  0  0  0  0  0  0  0  0
  -31.6652  -20.3107   24.0975 O   0  0  0  0  0  0  0  0  0  0  0  0
  -23.2675  -11.8036   21.2992 O   0  0  0  0  0  0  0  0  0  0  0  0
  -25.2517  -22.3657   21.3088 O   0  0  0  0  0  0  0  0  0  1  0  0
  -22.7098   -6.3497   20.7098 F   0  0  0  0  0  0  0  0  0  0  0  0
  -22.1532  -10.2664   23.3087 F   0  0  0  0  0  0  0  0  0  0  0  0
  -27.8737  -25.4371   21.6238 Cl  0  0  0  0  0  0  0  0  0  0  0  0
  -28.7391  -20.4286   19.7095 Cl  0  0  0  0  0  0  0  0  0  0  0  0
  1  2  1  0  0  0  0
  1  5  2  0  0  0  0
  2  6  2  0  0  0  0
  3  8  2  0  0  0  0
  3 16  1  0  0  0  0
  4  9  1  0  0  0  0
  4 16  2  0  0  0  0
  5 18  1  0  0  0  0
  6 20  1  0  0  0  0
  7 10  2  0  0  0  0
  7 19  1  0  0  0  0
  8 25  1  0  0  0  0
  9 25  2  0  0  0  0
 10 26  1  0  0  0  0
 11 12  2  0  0  0  0
 11 27  1  0  0  0  0
 12 28  1  0  0  0  0
 13 21  1  0  0  0  0
 13 26  2  0  0  0  0
 14 22  1  0  0  0  0
 14 23  2  0  0  0  0
 15 28  2  0  0  0  0
 15 29  1  0  0  0  0
 16 32  1  0  0  0  0
 17 32  1  0  0  0  0
 17 33  2  0  0  0  0
 17 34  1  0  0  0  0
 18 20  2  0  0  0  0
 18 39  1  0  0  0  0
 19 21  2  0  0  0  0
 19 40  1  0  0  0  0
 20 48  1  0  0  0  0
 21 41  1  0  0  0  0
 22 30  2  0  0  0  0
 22 51  1  0  0  0  0
 23 31  1  0  0  0  0
 23 69  1  0  0  0  0
 24 30  1  0  0  0  0
 24 31  2  0  0  0  0
 24 70  1  0  0  0  0
 25 79  1  0  0  0  0
 26 80  1  0  0  0  0
 27 29  2  0  0  0  0
 27 79  1  0  0  0  0
 28 81  1  0  0  0  0
 29 82  1  0  0  0  0
 30 83  1  0  0  0  0
 31 84  1  0  0  0  0
 32 63  2  0  0  0  0
 33 64  1  0  0  0  0
 33 67  1  0  0  0  0
 34 68  1  0  0  0  0
 34 74  2  0  0  0  0
 35 49  1  0  0  0  0
 35 71  1  0  0  0  0
 35 75  2  0  0  0  0
 36 59  1  0  0  0  0
 36 65  1  0  0  0  0
 36 76  2  0  0  0  0
 37 60  1  0  0  0  0
 37 72  1  0  0  0  0
 37 77  2  0  0  0  0
 38 66  1  0  0  0  0
 38 69  1  0  0  0  0
 38 78  2  0  0  0  0
 39 42  1  0  0  0  0
 40 49  1  0  0  0  0
 41 65  1  0  0  0  0
 42 44  1  0  0  0  0
 43 45  1  0  0  0  0
 43 46  1  0  0  0  0
 44 48  1  0  0  0  0
 45 50  1  0  0  0  0
 46 66  1  0  0  0  0
 47 50  1  0  0  0  0
 47 66  1  0  0  0  0
 48 71  1  0  0  0  0
 49 65  1  0  0  0  0
 50 64  1  0  0  0  0
 52 60  1  0  0  0  0
 53 61  1  0  0  0  0
 54 62  1  0  0  0  0
 55 62  1  0  0  0  0
 56 62  1  0  0  0  0
 57 73  1  0  0  0  0
 58 61  1  0  0  0  0
 58 80  1  0  0  0  0
 59 62  1  0  0  0  0
 59 72  1  0  0  0  0
 60 73  1  0  0  0  0
 61 70  1  0  0  0  0
 63 64  1  0  0  0  0
M  CHG  1  73   1
M  ISO  4  38 100  58 101  69 100  80 101
M  END
> <Batch ID>
0012

> <Smiles>
CNC(C)C(=O)NC(C(=O)N1Cc2cc([101O:1][101CH2:1]C(C)Nc3c(Cl)c(C)cc([100NH:0][100C:0](=O)N4CCCC(n5nc(-c6ccc(Oc7ccc(F)cc7F)cc6)c(C(N)=O)c5N)C4)c3Cl)ccc2CC1C(=O)NC1CCCc2ccccc21)C(C)(C)C

> <Shape>
0.233

> <Color>
0.066

> <Negative vol penalty>
0.000

$$$$

  -OEChem-04052315473D

 83 91  0     1  0  0  0  0  0999 V2000
  -20.9245  -25.6073   32.3498 C   0  0  0  0  0  0  0  0  0  0  0  0
  -22.0033  -25.8063   31.4942 C   0  0  0  0  0  0  0  0  0  0  0  0
  -23.0752   -9.8687   19.9403 C   0  0  0  0  0  0  0  0  0  0  0  0
  -23.8349   -9.8747   22.2338 C   0  0  0  0  0  0  0  0  0  0  0  0
  -20.8718  -24.4665   33.1495 C   0  0  0  0  0  0  0  0  0  0  0  0
  -23.0306  -24.8650   31.4387 C   0  0  0  0  0  0  0  0  0  0  0  0
  -27.7288  -21.9921   26.8572 C   0  0  0  0  0  0  0  0  0  0  0  0
  -22.3309   -8.7157   20.1898 C   0  0  0  0  0  0  0  0  0  0  0  0
  -23.0905   -8.7217   22.4833 C   0  0  0  0  0  0  0  0  0  0  0  0
  -29.0947  -21.7437   26.7296 C   0  0  0  0  0  0  0  0  0  0  0  0
  -19.8620   -7.9249   23.0852 C   0  0  0  0  0  0  0  0  0  0  0  0
  -19.1049   -7.8849   24.2560 C   0  0  0  0  0  0  0  0  0  0  0  0
  -28.8581  -19.7720   28.0990 C   0  0  0  0  0  0  0  0  0  0  0  0
  -32.0662  -16.5919   22.5387 C   0  0  0  0  0  0  0  0  0  0  0  0
  -30.5021  -18.3390   24.0500 C   0  0  0  0  0  0  0  0  0  0  0  0
  -20.3455   -5.9468   24.9920 C   0  0  0  0  0  0  0  0  0  0  0  0
  -23.8273  -10.4482   20.9623 C   0  0  0  0  0  0  0  0  0  0  0  0
  -24.1701  -12.9732   20.8431 C   0  0  0  0  0  0  0  0  0  0  0  0
  -21.8942  -23.5060   33.0968 C   0  0  0  0  0  0  0  0  0  0  0  0
  -26.9178  -21.1368   27.6170 C   0  0  0  0  0  0  0  0  0  0  0  0
  -22.9922  -23.7109   32.2395 C   0  0  0  0  0  0  0  0  0  0  0  0
  -27.4817  -20.0102   28.2326 C   0  0  0  0  0  0  0  0  0  0  0  0
  -32.6715  -17.4687   23.4389 C   0  0  0  0  0  0  0  0  0  0  0  0
  -29.8968  -17.4623   23.1497 C   0  0  0  0  0  0  0  0  0  0  0  0
  -30.6788  -16.5887   22.3940 C   0  0  0  0  0  0  0  0  0  0  0  0
  -31.8895  -18.3422   24.1946 C   0  0  0  0  0  0  0  0  0  0  0  0
  -22.3385   -8.1423   21.4613 C   0  0  0  0  0  0  0  0  0  0  0  0
  -29.6601  -20.6352   27.3529 C   0  0  0  0  0  0  0  0  0  0  0  0
  -20.8608   -6.9758   22.8677 C   0  0  0  0  0  0  0  0  0  0  0  0
  -19.3466   -6.8959   25.2094 C   0  0  0  0  0  0  0  0  0  0  0  0
  -21.1026   -5.9868   23.8211 C   0  0  0  0  0  0  0  0  0  0  0  0
  -24.5968  -11.6388   20.7050 C   0  0  0  0  0  0  0  0  0  0  0  0
  -25.2625  -13.7224   20.4801 C   0  0  0  0  0  0  0  0  0  0  0  0
  -22.8997  -13.4894   21.2620 C   0  0  0  0  0  0  0  0  0  0  0  0
  -25.1296  -21.4702   30.2237 C   0  0  0  0  0  0  0  0  0  0  0  0
  -24.2596  -18.4202   29.5436 C   0  0  0  0  0  0  0  0  0  0  0  0
  -25.0202  -15.4610   28.0231 C   0  0  0  0  0  0  0  0  0  0  0  0
  -30.7291  -14.7659   20.6558 C   0  0  0  0  0  0  0  0  0  0  0  0
  -21.8166  -22.3120   34.0149 C   0  0  0  0  0  0  0  0  0  0  0  0
  -25.4413  -21.4037   27.7228 C   0  0  0  0  0  0  0  0  0  0  0  0
  -26.6508  -19.0500   29.0426 C   0  0  0  0  0  0  0  0  0  0  0  0
  -22.7612  -21.1790   33.6219 C   0  0  0  0  0  0  0  0  0  0  0  0
  -29.6141  -12.3533   18.2867 C   0  0  0  0  0  0  0  0  0  0  0  0
  -24.1521  -21.7255   33.3158 C   0  0  0  0  0  0  0  0  0  0  0  0
  -28.1743  -12.0621   18.7160 C   0  0  0  0  0  0  0  0  0  0  0  0
  -30.5291  -12.5814   19.4885 C   0  0  0  0  0  0  0  0  0  0  0  0
  -28.6223  -13.3061   20.8697 C   0  0  0  0  0  0  0  0  0  0  0  0
  -24.1137  -22.7005   32.1329 C   0  0  1  0  0  0  0  0  0  0  0  0
  -24.8024  -20.7519   28.9452 C   0  0  1  0  0  0  0  0  0  0  0  0
  -27.6495  -13.1336   19.6918 C   0  0  2  0  0  0  0  0  0  0  0  0
  -34.1595  -17.4521   23.5735 C   0  0  0  0  0  0  0  0  0  0  0  0
  -28.4087  -17.4813   23.0146 C   0  0  0  0  0  0  0  0  0  0  0  0
  -24.1318  -13.1402   27.6740 C   0  0  0  0  0  0  0  0  0  0  0  0
  -25.0510  -17.6904   32.3986 C   0  0  0  0  0  0  0  0  0  0  0  0
  -25.0542  -15.2838   31.7084 C   0  0  0  0  0  0  0  0  0  0  0  0
  -22.9448  -16.6102   31.5914 C   0  0  0  0  0  0  0  0  0  0  0  0
  -32.8831  -20.5672   24.6660 C   0  0  0  0  0  0  0  0  0  0  0  0
  -24.9250  -15.8142   25.0863 C   0  0  0  0  0  0  0  0  0  0  0  0
  -32.6948  -18.8619   26.4840 C   0  0  0  0  0  0  0  0  0  0  0  0
  -31.4107  -19.0271   27.2795 C   0  0  0  0  0  0  0  0  0  1  0  0
  -24.7817  -17.0522   29.9114 C   0  0  1  0  0  0  0  0  0  0  0  0
  -24.2048  -14.5542   27.1191 C   0  0  2  0  0  0  0  0  0  0  0  0
  -24.4742  -16.6781   31.3888 C   0  0  0  0  0  0  0  0  0  0  0  0
  -25.8617  -11.5427   20.2868 N   0  0  0  0  0  0  0  0  0  0  0  0
  -26.2391  -12.8261   20.1589 N   0  0  0  0  0  0  0  0  0  0  0  0
  -25.2132  -19.3575   29.1217 N   0  0  0  0  0  0  0  0  0  0  0  0
  -29.9704  -13.6121   20.3661 N   0  0  0  0  0  0  0  0  0  0  0  0
  -25.4734  -15.0538   20.4076 N   0  0  0  0  0  0  0  0  0  0  0  0
  -21.8874  -12.5805   21.5989 N   0  0  0  0  0  0  0  0  0  0  0  0
  -30.0820  -15.6910   21.4744 N   0  0  0  0  0  0  0  0  0  0  0  0
  -24.0257  -21.9759   30.8833 N   0  0  0  0  0  0  0  0  0  0  0  0
  -24.2243  -16.1257   28.9319 N   0  0  0  0  0  0  0  0  0  0  0  0
  -32.4806  -19.2301   25.1033 N   0  0  3  0  0  0  0  0  0  0  0  0
  -24.8132  -14.4949   25.7600 N   0  3  0  0  0  0  0  0  0  0  0  0
  -22.6639  -14.7200   21.3197 O   0  0  0  0  0  0  0  0  0  0  0  0
  -26.2970  -21.5579   30.5857 O   0  0  0  0  0  0  0  0  0  0  0  0
  -23.0495  -18.6464   29.6207 O   0  0  0  0  0  0  0  0  0  0  0  0
  -26.2415  -15.5661   27.9346 O   0  0  0  0  0  0  0  0  0  0  0  0
  -31.8583  -14.9344   20.1884 O   0  0  0  0  0  0  0  0  0  0  0  0
  -21.6121   -7.0174   21.7052 O   0  0  0  0  0  0  0  0  0  0  0  0
  -30.9932  -20.3908   27.2305 O   0  0  0  0  0  0  0  0  0  1  0  0
  -18.6205   -6.8585   26.3344 F   0  0  0  0  0  0  0  0  0  0  0  0
  -22.0616   -5.0730   23.6183 F   0  0  0  0  0  0  0  0  0  0  0  0
  1  2  1  0  0  0  0
  1  5  2  0  0  0  0
  2  6  2  0  0  0  0
  3  8  2  0  0  0  0
  3 17  1  0  0  0  0
  4  9  1  0  0  0  0
  4 17  2  0  0  0  0
  5 19  1  0  0  0  0
  6 21  1  0  0  0  0
  7 10  2  0  0  0  0
  7 20  1  0  0  0  0
  8 27  1  0  0  0  0
  9 27  2  0  0  0  0
 10 28  1  0  0  0  0
 11 12  2  0  0  0  0
 11 29  1  0  0  0  0
 12 30  1  0  0  0  0
 13 22  1  0  0  0  0
 13 28  2  0  0  0  0
 14 23  1  0  0  0  0
 14 25  2  0  0  0  0
 15 24  2  0  0  0  0
 15 26  1  0  0  0  0
 16 30  2  0  0  0  0
 16 31  1  0  0  0  0
 17 32  1  0  0  0  0
 18 32  1  0  0  0  0
 18 33  2  0  0  0  0
 18 34  1  0  0  0  0
 19 21  2  0  0  0  0
 19 39  1  0  0  0  0
 20 22  2  0  0  0  0
 20 40  1  0  0  0  0
 21 48  1  0  0  0  0
 22 41  1  0  0  0  0
 23 26  2  0  0  0  0
 23 51  1  0  0  0  0
 24 25  1  0  0  0  0
 24 52  1  0  0  0  0
 25 70  1  0  0  0  0
 26 73  1  0  0  0  0
 27 80  1  0  0  0  0
 28 81  1  0  0  0  0
 29 31  2  0  0  0  0
 29 80  1  0  0  0  0
 30 82  1  0  0  0  0
 31 83  1  0  0  0  0
 32 64  2  0  0  0  0
 33 65  1  0  0  0  0
 33 68  1  0  0  0  0
 34 69  1  0  0  0  0
 34 75  2  0  0  0  0
 35 49  1  0  0  0  0
 35 71  1  0  0  0  0
 35 76  2  0  0  0  0
 36 61  1  0  0  0  0
 36 66  1  0  0  0  0
 36 77  2  0  0  0  0
 37 62  1  0  0  0  0
 37 72  1  0  0  0  0
 37 78  2  0  0  0  0
 38 67  1  0  0  0  0
 38 70  1  0  0  0  0
 38 79  2  0  0  0  0
 39 42  1  0  0  0  0
 40 49  1  0  0  0  0
 41 66  1  0  0  0  0
 42 44  1  0  0  0  0
 43 45  1  0  0  0  0
 43 46  1  0  0  0  0
 44 48  1  0  0  0  0
 45 50  1  0  0  0  0
 46 67  1  0  0  0  0
 47 50  1  0  0  0  0
 47 67  1  0  0  0  0
 48 71  1  0  0  0  0
 49 66  1  0  0  0  0
 50 65  1  0  0  0  0
 53 62  1  0  0  0  0
 54 63  1  0  0  0  0
 55 63  1  0  0  0  0
 56 63  1  0  0  0  0
 57 73  1  0  0  0  0
 58 74  1  0  0  0  0
 59 60  1  0  0  0  0
 59 73  1  0  0  0  0
 60 81  1  0  0  0  0
 61 63  1  0  0  0  0
 61 72  1  0  0  0  0
 62 74  1  0  0  0  0
 64 65  1  0  0  0  0
M  CHG  1  74   1
M  ISO  4  38 100  60 101  70 100  81 101
M  END
> <Batch ID>
0012

> <Smiles>
CNC(C)C(=O)NC(C(=O)N1Cc2cc([101O:1][101CH2:1]CN(C)c3cc(C)c([100NH:0][100C:0](=O)N4CCCC(n5nc(-c6ccc(Oc7ccc(F)cc7F)cc6)c(C(N)=O)c5N)C4)cc3C)ccc2CC1C(=O)NC1CCCc2ccccc21)C(C)(C)C

> <Shape>
0.168

> <Color>
0.200

> <Negative vol penalty>
0.000

$$$$

  -OEChem-04052315473D

 91100  0     1  0  0  0  0  0999 V2000
  -19.2780   -8.0944   25.2420 C   0  0  0  0  0  0  0  0  0  0  0  0
  -20.5018   -7.7205   24.6961 C   0  0  0  0  0  0  0  0  0  0  0  0
  -22.9491  -28.6619   23.2863 C   0  0  0  0  0  0  0  0  0  0  0  0
  -21.6073  -29.4678   21.4459 C   0  0  0  0  0  0  0  0  0  0  0  0
  -18.4860   -9.0403   24.5924 C   0  0  0  0  0  0  0  0  0  0  0  0
  -20.9338   -8.2916   23.4996 C   0  0  0  0  0  0  0  0  0  0  0  0
  -27.1539  -11.9082   23.1500 C   0  0  0  0  0  0  0  0  0  0  0  0
  -21.8284  -28.0322   23.8277 C   0  0  0  0  0  0  0  0  0  0  0  0
  -20.4865  -28.8382   21.9873 C   0  0  0  0  0  0  0  0  0  0  0  0
  -28.4310  -12.4338   22.9528 C   0  0  0  0  0  0  0  0  0  0  0  0
  -18.2526  -29.4195   24.4577 C   0  0  0  0  0  0  0  0  0  0  0  0
  -17.0601  -30.1417   24.4985 C   0  0  0  0  0  0  0  0  0  0  0  0
  -27.8902  -12.9100   20.6444 C   0  0  0  0  0  0  0  0  0  0  0  0
  -30.1981  -24.1919   18.8845 C   0  0  0  0  0  0  0  0  0  0  0  0
  -29.5182  -25.5262   16.5307 C   0  0  0  0  0  0  0  0  0  0  0  0
  -15.9997  -28.4692   23.1145 C   0  0  0  0  0  0  0  0  0  0  0  0
  -22.8386  -29.3797   22.0954 C   0  0  0  0  0  0  0  0  0  0  0  0
  -24.7816  -31.0322   22.1373 C   0  0  0  0  0  0  0  0  0  0  0  0
  -18.9130   -9.6304   23.3923 C   0  0  0  0  0  0  0  0  0  0  0  0
  -26.2338  -11.8956   22.0980 C   0  0  0  0  0  0  0  0  0  0  0  0
  -20.1462   -9.2453   22.8326 C   0  0  0  0  0  0  0  0  0  0  0  0
  -26.6053  -12.3962   20.8394 C   0  0  0  0  0  0  0  0  0  0  0  0
  -30.4932  -23.6186   17.6476 C   0  0  0  0  0  0  0  0  0  0  0  0
  -29.2231  -26.0995   17.7676 C   0  0  0  0  0  0  0  0  0  0  0  0
  -20.5971  -28.1203   23.1782 C   0  0  0  0  0  0  0  0  0  0  0  0
  -28.7983  -12.9331   21.7030 C   0  0  0  0  0  0  0  0  0  0  0  0
  -18.3188  -28.2222   23.7451 C   0  0  0  0  0  0  0  0  0  0  0  0
  -15.9336  -29.6666   23.8270 C   0  0  0  0  0  0  0  0  0  0  0  0
  -30.1533  -24.2857   16.4708 C   0  0  0  0  0  0  0  0  0  0  0  0
  -29.5630  -25.4324   18.9445 C   0  0  0  0  0  0  0  0  0  0  0  0
  -17.1924  -27.7470   23.0736 C   0  0  0  0  0  0  0  0  0  0  0  0
  -23.9958  -30.0308   21.5359 C   0  0  0  0  0  0  0  0  0  0  0  0
  -25.7509  -31.3136   21.2058 C   0  0  0  0  0  0  0  0  0  0  0  0
  -24.6474  -31.6524   23.4230 C   0  0  0  0  0  0  0  0  0  0  0  0
  -22.7738  -11.0235   20.9388 C   0  0  0  0  0  0  0  0  0  0  0  0
  -23.4760  -13.7347   19.6871 C   0  0  0  0  0  0  0  0  0  0  0  0
  -31.5416  -21.5644   18.6578 C   0  0  0  0  0  0  0  0  0  0  0  0
  -24.2575  -16.7699   19.4044 C   0  0  0  0  0  0  0  0  0  0  0  0
  -28.1727  -28.1515   16.7515 C   0  0  0  0  0  0  0  0  0  0  0  0
  -18.0009  -10.6134   22.7020 C   0  0  0  0  0  0  0  0  0  0  0  0
  -24.8677  -11.2831   22.2482 C   0  0  0  0  0  0  0  0  0  0  0  0
  -25.5943  -12.3305   19.7274 C   0  0  0  0  0  0  0  0  0  0  0  0
  -18.7019  -11.4473   21.6327 C   0  0  0  0  0  0  0  0  0  0  0  0
  -26.5207  -31.2937   16.4791 C   0  0  0  0  0  0  0  0  0  0  0  0
  -19.5605  -10.5575   20.7395 C   0  0  0  0  0  0  0  0  0  0  0  0
  -25.7621  -31.4204   17.8022 C   0  0  0  0  0  0  0  0  0  0  0  0
  -26.5384  -29.8531   15.9712 C   0  0  0  0  0  0  0  0  0  0  0  0
  -32.8646  -17.0166   20.0067 C   0  0  0  0  0  0  0  0  0  0  0  0
  -30.4939  -17.4812   20.1123 C   0  0  0  0  0  0  0  0  0  0  0  0
  -26.2650  -28.9865   18.2611 C   0  0  0  0  0  0  0  0  0  0  0  0
  -33.0648  -18.0963   18.9484 C   0  0  0  0  0  0  0  0  0  0  0  0
  -30.6253  -18.5744   19.0572 C   0  0  0  0  0  0  0  0  0  0  0  0
  -20.6606   -9.8605   21.5492 C   0  0  1  0  0  0  0  0  0  0  0  0
  -23.7855  -12.0147   21.4342 C   0  0  1  0  0  0  0  0  0  0  0  0
  -26.2757  -30.4086   18.8454 C   0  0  2  0  0  0  0  0  0  0  0  0
  -24.5651  -19.2084   18.8979 C   0  0  0  0  0  0  0  0  0  0  0  0
  -24.1225  -12.3294   17.0582 C   0  0  0  0  0  0  0  0  0  0  0  0
  -24.2829  -14.5813   15.9759 C   0  0  0  0  0  0  0  0  0  0  0  0
  -22.1240  -13.8307   16.9751 C   0  0  0  0  0  0  0  0  0  0  0  0
  -22.1132  -17.5507   21.2888 C   0  0  0  0  0  0  0  0  0  0  0  0
  -32.1915  -20.2954   18.1545 C   0  0  0  0  0  0  0  0  0  0  0  0
  -31.3511  -15.3794   20.9202 C   0  0  0  0  0  0  0  0  0  0  0  0
  -30.1813  -14.4845   20.5463 C   0  0  0  0  0  0  0  0  0  1  0  0
  -24.0382  -14.4712   18.4976 C   0  0  1  0  0  0  0  0  0  0  0  0
  -23.5942  -18.1347   19.3641 C   0  0  2  0  0  0  0  0  0  0  0  0
  -23.6581  -13.7967   17.1492 C   0  0  0  0  0  0  0  0  0  0  0  0
  -24.4284  -29.6986   20.3167 N   0  0  0  0  0  0  0  0  0  0  0  0
  -25.4965  -30.4958   20.1443 N   0  0  0  0  0  0  0  0  0  0  0  0
  -24.2670  -12.7159   20.2319 N   0  0  0  0  0  0  0  0  0  0  0  0
  -27.0404  -28.9522   17.0111 N   0  0  0  0  0  0  0  0  0  0  0  0
  -31.5151  -16.4417   19.9284 N   0  0  0  0  0  0  0  0  0  0  0  0
  -26.7875  -32.1784   21.1993 N   0  0  0  0  0  0  0  0  0  0  0  0
  -25.3100  -31.0761   24.5152 N   0  0  0  0  0  0  0  0  0  0  0  0
  -31.1371  -22.3597   17.5899 N   0  0  0  0  0  0  0  0  0  0  0  0
  -28.5774  -27.3595   17.8255 N   0  0  0  0  0  0  0  0  0  0  0  0
  -21.7433  -10.7799   21.8266 N   0  0  0  0  0  0  0  0  0  0  0  0
  -23.5872  -15.8530   18.6225 N   0  0  0  0  0  0  0  0  0  0  0  0
  -32.0125  -19.1620   19.1240 N   0  3  0  0  0  0  0  0  0  0  0  0
  -23.0951  -18.5082   20.7178 N   0  3  0  0  0  0  0  0  0  0  0  0
  -23.9468  -32.6776   23.6011 O   0  0  0  0  0  0  0  0  0  0  0  0
  -22.9157  -10.5174   19.8318 O   0  0  0  0  0  0  0  0  0  0  0  0
  -22.3635  -14.0483   20.1200 O   0  0  0  0  0  0  0  0  0  0  0  0
  -31.4148  -21.7993   19.8549 O   0  0  0  0  0  0  0  0  0  0  0  0
  -25.2712  -16.5410   20.0605 O   0  0  0  0  0  0  0  0  0  0  0  0
  -28.7579  -28.1874   15.6660 O   0  0  0  0  0  0  0  0  0  0  0  0
  -19.5034  -27.5059   23.7061 O   0  0  0  0  0  0  0  0  0  0  0  0
  -30.0452  -13.4489   21.5186 O   0  0  0  0  0  0  0  0  0  1  0  0
  -14.7880  -30.3595   23.8676 F   0  0  0  0  0  0  0  0  0  0  0  0
  -30.4327  -23.7445   15.2764 F   0  0  0  0  0  0  0  0  0  0  0  0
  -29.2846  -25.9741   20.1390 F   0  0  0  0  0  0  0  0  0  0  0  0
  -17.2495  -26.5968   22.3884 F   0  0  0  0  0  0  0  0  0  0  0  0
  1  2  1  0  0  0  0
  1  5  2  0  0  0  0
  2  6  2  0  0  0  0
  3  8  2  0  0  0  0
  3 17  1  0  0  0  0
  4  9  1  0  0  0  0
  4 17  2  0  0  0  0
  5 19  1  0  0  0  0
  6 21  1  0  0  0  0
  7 10  2  0  0  0  0
  7 20  1  0  0  0  0
  8 25  1  0  0  0  0
  9 25  2  0  0  0  0
 10 26  1  0  0  0  0
 11 12  2  0  0  0  0
 11 27  1  0  0  0  0
 12 28  1  0  0  0  0
 13 22  1  0  0  0  0
 13 26  2  0  0  0  0
 14 23  1  0  0  0  0
 14 30  2  0  0  0  0
 15 24  2  0  0  0  0
 15 29  1  0  0  0  0
 16 28  2  0  0  0  0
 16 31  1  0  0  0  0
 17 32  1  0  0  0  0
 18 32  1  0  0  0  0
 18 33  2  0  0  0  0
 18 34  1  0  0  0  0
 19 21  2  0  0  0  0
 19 40  1  0  0  0  0
 20 22  2  0  0  0  0
 20 41  1  0  0  0  0
 21 53  1  0  0  0  0
 22 42  1  0  0  0  0
 23 29  2  0  0  0  0
 23 74  1  0  0  0  0
 24 30  1  0  0  0  0
 24 75  1  0  0  0  0
 25 86  1  0  0  0  0
 26 87  1  0  0  0  0
 27 31  2  0  0  0  0
 27 86  1  0  0  0  0
 28 88  1  0  0  0  0
 29 89  1  0  0  0  0
 30 90  1  0  0  0  0
 31 91  1  0  0  0  0
 32 67  2  0  0  0  0
 33 68  1  0  0  0  0
 33 72  1  0  0  0  0
 34 73  1  0  0  0  0
 34 80  2  0  0  0  0
 35 54  1  0  0  0  0
 35 76  1  0  0  0  0
 35 81  2  0  0  0  0
 36 64  1  0  0  0  0
 36 69  1  0  0  0  0
 36 82  2  0  0  0  0
 37 61  1  0  0  0  0
 37 74  1  0  0  0  0
 37 83  2  0  0  0  0
 38 65  1  0  0  0  0
 38 77  1  0  0  0  0
 38 84  2  0  0  0  0
 39 70  1  0  0  0  0
 39 75  1  0  0  0  0
 39 85  2  0  0  0  0
 40 43  1  0  0  0  0
 41 54  1  0  0  0  0
 42 69  1  0  0  0  0
 43 45  1  0  0  0  0
 44 46  1  0  0  0  0
 44 47  1  0  0  0  0
 45 53  1  0  0  0  0
 46 55  1  0  0  0  0
 47 70  1  0  0  0  0
 48 51  1  0  0  0  0
 48 71  1  0  0  0  0
 49 52  1  0  0  0  0
 49 71  1  0  0  0  0
 50 55  1  0  0  0  0
 50 70  1  0  0  0  0
 51 78  1  0  0  0  0
 52 78  1  0  0  0  0
 53 76  1  0  0  0  0
 54 69  1  0  0  0  0
 55 68  1  0  0  0  0
 56 65  1  0  0  0  0
 57 66  1  0  0  0  0
 58 66  1  0  0  0  0
 59 66  1  0  0  0  0
 60 79  1  0  0  0  0
 61 78  1  0  0  0  0
 62 63  1  0  0  0  0
 62 71  1  0  0  0  0
 63 87  1  0  0  0  0
 64 66  1  0  0  0  0
 64 77  1  0  0  0  0
 65 79  1  0  0  0  0
 67 68  1  0  0  0  0
M  CHG  2  78   1  79   1
M  ISO  4  39 100  63 101  75 100  87 101
M  END
> <Batch ID>
0012

> <Smiles>
CNC(C)C(=O)NC(C(=O)N1Cc2cc([101O:1][101CH2:1]CN3CCN(CC(=O)Nc4cc(F)c([100NH:0][100C:0](=O)N5CCCC(n6nc(-c7ccc(Oc8ccc(F)cc8F)cc7)c(C(N)=O)c6N)C5)cc4F)CC3)ccc2CC1C(=O)NC1CCCc2ccccc21)C(C)(C)C

> <Shape>
0.267

> <Color>
0.057

> <Negative vol penalty>
0.000

$$$$

  -OEChem-04052315473D

 94102  0     1  0  0  0  0  0999 V2000
  -16.7350  -30.4023   23.1970 C   0  0  0  0  0  0  0  0  0  0  0  0
  -18.0142  -30.9287   23.0484 C   0  0  0  0  0  0  0  0  0  0  0  0
  -27.1680  -17.3337   21.3532 C   0  0  0  0  0  0  0  0  0  0  0  0
  -25.0348  -18.3338   21.8884 C   0  0  0  0  0  0  0  0  0  0  0  0
  -16.5529  -29.0211   23.2523 C   0  0  0  0  0  0  0  0  0  0  0  0
  -19.1122  -30.0741   22.9560 C   0  0  0  0  0  0  0  0  0  0  0  0
  -25.5405  -29.5609   19.8368 C   0  0  0  0  0  0  0  0  0  0  0  0
  -26.6519  -16.0728   21.6520 C   0  0  0  0  0  0  0  0  0  0  0  0
  -24.5187  -17.0728   22.1872 C   0  0  0  0  0  0  0  0  0  0  0  0
  -26.8760  -29.3185   20.1554 C   0  0  0  0  0  0  0  0  0  0  0  0
  -25.7909  -12.5517   21.9273 C   0  0  0  0  0  0  0  0  0  0  0  0
  -26.0709  -11.5101   21.0429 C   0  0  0  0  0  0  0  0  0  0  0  0
  -26.4326  -26.9474   20.1835 C   0  0  0  0  0  0  0  0  0  0  0  0
  -29.7804  -32.9335   23.6344 C   0  0  0  0  0  0  0  0  0  0  0  0
  -24.9691  -12.7219   19.2668 C   0  0  0  0  0  0  0  0  0  0  0  0
  -26.3595  -18.4642   21.4714 C   0  0  0  0  0  0  0  0  0  0  0  0
  -26.8827  -20.4158   19.9140 C   0  0  0  0  0  0  0  0  0  0  0  0
  -17.6481  -28.1489   23.1509 C   0  0  0  0  0  0  0  0  0  0  0  0
  -24.6371  -28.4972   19.6997 C   0  0  0  0  0  0  0  0  0  0  0  0
  -18.9446  -28.6799   23.0113 C   0  0  0  0  0  0  0  0  0  0  0  0
  -25.0868  -27.1789   19.8606 C   0  0  0  0  0  0  0  0  0  0  0  0
  -29.7454  -31.8248   24.4801 C   0  0  0  0  0  0  0  0  0  0  0  0
  -30.9298  -30.5242   22.8240 C   0  0  0  0  0  0  0  0  0  0  0  0
  -25.3273  -15.9423   22.0690 C   0  0  0  0  0  0  0  0  0  0  0  0
  -27.3216  -28.0118   20.3316 C   0  0  0  0  0  0  0  0  0  0  0  0
  -25.0998  -13.6784   21.4814 C   0  0  0  0  0  0  0  0  0  0  0  0
  -25.6601  -11.5952   19.7126 C   0  0  0  0  0  0  0  0  0  0  0  0
  -30.3900  -32.8375   22.3835 C   0  0  0  0  0  0  0  0  0  0  0  0
  -24.6890  -13.7635   20.1512 C   0  0  0  0  0  0  0  0  0  0  0  0
  -30.9647  -31.6329   21.9783 C   0  0  0  0  0  0  0  0  0  0  0  0
  -30.3202  -30.6202   24.0749 C   0  0  0  0  0  0  0  0  0  0  0  0
  -26.8922  -19.7671   21.1634 C   0  0  0  0  0  0  0  0  0  0  0  0
  -27.5039  -21.6184   20.1468 C   0  0  0  0  0  0  0  0  0  0  0  0
  -26.3590  -19.9710   18.6556 C   0  0  0  0  0  0  0  0  0  0  0  0
  -21.9782  -27.6054   21.1958 C   0  0  0  0  0  0  0  0  0  0  0  0
  -21.8736  -25.3667   18.8507 C   0  0  0  0  0  0  0  0  0  0  0  0
  -25.8907  -27.2235   24.6469 C   0  0  0  0  0  0  0  0  0  0  0  0
  -30.7476  -28.3603   21.6586 C   0  0  0  0  0  0  0  0  0  0  0  0
  -23.5638  -23.5164   16.5342 C   0  0  0  0  0  0  0  0  0  0  0  0
  -28.2086  -24.9590   25.0657 C   0  0  0  0  0  0  0  0  0  0  0  0
  -17.4068  -26.6644   23.2633 C   0  0  0  0  0  0  0  0  0  0  0  0
  -23.2057  -28.7740   19.3294 C   0  0  0  0  0  0  0  0  0  0  0  0
  -24.1615  -26.0008   19.7044 C   0  0  0  0  0  0  0  0  0  0  0  0
  -18.5823  -25.8180   22.7818 C   0  0  0  0  0  0  0  0  0  0  0  0
  -30.7802  -23.6545   22.9772 C   0  0  0  0  0  0  0  0  0  0  0  0
  -19.8927  -26.3497   23.3536 C   0  0  0  0  0  0  0  0  0  0  0  0
  -30.0745  -22.5688   22.1628 C   0  0  0  0  0  0  0  0  0  0  0  0
  -30.2507  -23.7205   24.4080 C   0  0  0  0  0  0  0  0  0  0  0  0
  -28.0820  -22.7835   23.7063 C   0  0  0  0  0  0  0  0  0  0  0  0
  -20.1580  -27.7848   22.8828 C   0  0  1  0  0  0  0  0  0  0  0  0
  -22.2583  -27.6439   19.7201 C   0  0  1  0  0  0  0  0  0  0  0  0
  -28.5430  -22.7161   22.2402 C   0  0  2  0  0  0  0  0  0  0  0  0
  -23.2138  -21.7442   14.7923 C   0  0  0  0  0  0  0  0  0  0  0  0
  -21.6398  -23.2596   21.0451 C   0  0  0  0  0  0  0  0  0  0  0  0
  -22.2467  -21.5236   19.3462 C   0  0  0  0  0  0  0  0  0  0  0  0
  -20.1656  -22.8695   19.0629 C   0  0  0  0  0  0  0  0  0  0  0  0
  -32.9563  -29.0415   22.6656 C   0  0  0  0  0  0  0  0  0  0  0  0
  -24.5204  -25.2924   14.3685 C   0  0  0  0  0  0  0  0  0  0  0  0
  -29.0814  -31.9751   25.8112 C   0  0  0  0  0  0  0  0  0  0  0  0
  -26.0760  -26.0928   25.6363 C   0  0  0  0  0  0  0  0  0  0  0  0
  -29.3072  -28.7748   21.3952 C   0  0  0  0  0  0  0  0  0  1  0  0
  -27.5442  -31.9740   25.7543 C   0  0  0  0  0  0  0  0  0  0  0  0
  -26.9723  -30.6874   25.1496 C   0  0  0  0  0  0  0  0  0  0  0  0
  -25.4424  -30.7386   25.0855 C   0  0  0  0  0  0  0  0  0  0  0  0
  -24.8415  -29.4759   24.4759 C   0  0  0  0  0  0  0  0  0  0  0  0
  -22.4120  -23.9662   18.6849 C   0  0  1  0  0  0  0  0  0  0  0  0
  -23.2839  -23.2381   15.0684 C   0  0  2  0  0  0  0  0  0  0  0  0
  -21.6333  -22.9268   19.5397 C   0  0  0  0  0  0  0  0  0  0  0  0
  -27.4736  -20.4971   22.1189 N   0  0  0  0  0  0  0  0  0  0  0  0
  -27.8352  -21.6169   21.4698 N   0  0  0  0  0  0  0  0  0  0  0  0
  -22.7699  -26.3233   19.3480 N   0  0  0  0  0  0  0  0  0  0  0  0
  -28.7926  -23.8618   24.4113 N   0  0  0  0  0  0  0  0  0  0  0  0
  -27.7937  -22.6664   19.3468 N   0  0  0  0  0  0  0  0  0  0  0  0
  -25.7525  -18.7091   18.5927 N   0  0  0  0  0  0  0  0  0  0  0  0
  -20.6475  -27.7875   21.5208 N   0  0  0  0  0  0  0  0  0  0  0  0
  -25.1921  -28.2892   25.2068 N   0  0  0  0  0  0  0  0  0  0  0  0
  -22.3997  -23.6911   17.2522 N   0  0  0  0  0  0  0  0  0  0  0  0
  -26.8213  -25.0205   25.0155 N   0  0  0  0  0  0  0  0  0  0  0  0
  -31.5366  -29.2891   22.3703 N   0  0  0  0  0  0  0  0  0  0  0  0
  -24.3568  -23.8237   14.2158 N   0  3  0  0  0  0  0  0  0  0  0  0
  -26.4415  -20.6651   17.6139 O   0  0  0  0  0  0  0  0  0  0  0  0
  -22.9007  -27.4225   21.9814 O   0  0  0  0  0  0  0  0  0  0  0  0
  -20.7029  -25.6049   18.5433 O   0  0  0  0  0  0  0  0  0  0  0  0
  -26.2827  -27.1723   23.4839 O   0  0  0  0  0  0  0  0  0  0  0  0
  -31.1432  -27.2772   21.2202 O   0  0  0  0  0  0  0  0  0  0  0  0
  -24.7012  -23.5697   16.9967 O   0  0  0  0  0  0  0  0  0  0  0  0
  -28.8744  -25.8227   25.6467 O   0  0  0  0  0  0  0  0  0  0  0  0
  -24.8233  -14.7121   22.3605 O   0  0  0  0  0  0  0  0  0  0  0  0
  -28.6244  -27.7724   20.6433 O   0  0  0  0  0  0  0  0  0  1  0  0
  -25.9304  -10.5955   18.8631 F   0  0  0  0  0  0  0  0  0  0  0  0
  -30.4234  -33.9022   21.5713 F   0  0  0  0  0  0  0  0  0  0  0  0
  -24.0258  -14.8439   19.7168 F   0  0  0  0  0  0  0  0  0  0  0  0
  -31.5474  -31.5541   20.7732 F   0  0  0  0  0  0  0  0  0  0  0  0
  -30.2732  -29.2460   25.1311 Cl  0  0  0  0  0  0  0  0  0  0  0  0
  1  2  1  0  0  0  0
  1  5  2  0  0  0  0
  2  6  2  0  0  0  0
  3  8  2  0  0  0  0
  3 16  1  0  0  0  0
  4  9  1  0  0  0  0
  4 16  2  0  0  0  0
  5 18  1  0  0  0  0
  6 20  1  0  0  0  0
  7 10  2  0  0  0  0
  7 19  1  0  0  0  0
  8 24  1  0  0  0  0
  9 24  2  0  0  0  0
 10 25  1  0  0  0  0
 11 12  2  0  0  0  0
 11 26  1  0  0  0  0
 12 27  1  0  0  0  0
 13 21  1  0  0  0  0
 13 25  2  0  0  0  0
 14 22  2  0  0  0  0
 14 28  1  0  0  0  0
 15 27  2  0  0  0  0
 15 29  1  0  0  0  0
 16 32  1  0  0  0  0
 17 32  1  0  0  0  0
 17 33  2  0  0  0  0
 17 34  1  0  0  0  0
 18 20  2  0  0  0  0
 18 41  1  0  0  0  0
 19 21  2  0  0  0  0
 19 42  1  0  0  0  0
 20 50  1  0  0  0  0
 21 43  1  0  0  0  0
 22 31  1  0  0  0  0
 22 59  1  0  0  0  0
 23 30  1  0  0  0  0
 23 31  2  0  0  0  0
 23 79  1  0  0  0  0
 24 88  1  0  0  0  0
 25 89  1  0  0  0  0
 26 29  2  0  0  0  0
 26 88  1  0  0  0  0
 27 90  1  0  0  0  0
 28 30  2  0  0  0  0
 28 91  1  0  0  0  0
 29 92  1  0  0  0  0
 30 93  1  0  0  0  0
 31 94  1  0  0  0  0
 32 69  2  0  0  0  0
 33 70  1  0  0  0  0
 33 73  1  0  0  0  0
 34 74  1  0  0  0  0
 34 81  2  0  0  0  0
 35 51  1  0  0  0  0
 35 75  1  0  0  0  0
 35 82  2  0  0  0  0
 36 66  1  0  0  0  0
 36 71  1  0  0  0  0
 36 83  2  0  0  0  0
 37 60  1  0  0  0  0
 37 76  1  0  0  0  0
 37 84  2  0  0  0  0
 38 61  1  0  0  0  0
 38 79  1  0  0  0  0
 38 85  2  0  0  0  0
 39 67  1  0  0  0  0
 39 77  1  0  0  0  0
 39 86  2  0  0  0  0
 40 72  1  0  0  0  0
 40 78  1  0  0  0  0
 40 87  2  0  0  0  0
 41 44  1  0  0  0  0
 42 51  1  0  0  0  0
 43 71  1  0  0  0  0
 44 46  1  0  0  0  0
 45 47  1  0  0  0  0
 45 48  1  0  0  0  0
 46 50  1  0  0  0  0
 47 52  1  0  0  0  0
 48 72  1  0  0  0  0
 49 52  1  0  0  0  0
 49 72  1  0  0  0  0
 50 75  1  0  0  0  0
 51 71  1  0  0  0  0
 52 70  1  0  0  0  0
 53 67  1  0  0  0  0
 54 68  1  0  0  0  0
 55 68  1  0  0  0  0
 56 68  1  0  0  0  0
 57 79  1  0  0  0  0
 58 80  1  0  0  0  0
 59 62  1  0  0  0  0
 60 78  1  0  0  0  0
 61 89  1  0  0  0  0
 62 63  1  0  0  0  0
 63 64  1  0  0  0  0
 64 65  1  0  0  0  0
 65 76  1  0  0  0  0
 66 68  1  0  0  0  0
 66 77  1  0  0  0  0
 67 80  1  0  0  0  0
 69 70  1  0  0  0  0
M  CHG  1  80   1
M  ISO  4  40 100  61 101  78 100  89 101
M  END
> <Batch ID>
0012

> <Smiles>
CNC(C)C(=O)NC(C(=O)N1Cc2cc([101O:1][101CH2:1]C(=O)N(C)c3c(F)c(F)cc(CCCCCNC(=O)C[100NH:0][100C:0](=O)N4CCCC(n5nc(-c6ccc(Oc7ccc(F)cc7F)cc6)c(C(N)=O)c5N)C4)c3Cl)ccc2CC1C(=O)NC1CCCc2ccccc21)C(C)(C)C

> <Shape>
0.196

> <Color>
0.082

> <Negative vol penalty>
0.000

$$$$

  -OEChem-04052315473D

 82 90  0     1  0  0  0  0  0999 V2000
  -26.7827  -33.7106   27.8047 C   0  0  0  0  0  0  0  0  0  0  0  0
  -27.3170  -32.8491   26.8519 C   0  0  0  0  0  0  0  0  0  0  0  0
  -26.4141  -12.4332   21.5034 C   0  0  0  0  0  0  0  0  0  0  0  0
  -26.1546  -13.1699   19.2172 C   0  0  0  0  0  0  0  0  0  0  0  0
  -25.4227  -33.6567   28.1070 C   0  0  0  0  0  0  0  0  0  0  0  0
  -26.4917  -31.9324   26.2016 C   0  0  0  0  0  0  0  0  0  0  0  0
  -26.9590  -30.0272   20.4001 C   0  0  0  0  0  0  0  0  0  0  0  0
  -25.1548  -11.8356   21.4538 C   0  0  0  0  0  0  0  0  0  0  0  0
  -24.8953  -12.5722   19.1675 C   0  0  0  0  0  0  0  0  0  0  0  0
  -27.5172  -28.8837   19.8304 C   0  0  0  0  0  0  0  0  0  0  0  0
  -23.7912   -8.9978   20.2206 C   0  0  0  0  0  0  0  0  0  0  0  0
  -23.6638   -7.7101   20.7414 C   0  0  0  0  0  0  0  0  0  0  0  0
  -25.3420  -27.8411   19.8064 C   0  0  0  0  0  0  0  0  0  0  0  0
  -29.1168  -22.1270   18.4108 C   0  0  0  0  0  0  0  0  0  0  0  0
  -22.0330   -8.5148   22.3321 C   0  0  0  0  0  0  0  0  0  0  0  0
  -28.5154  -21.3742   15.7927 C   0  0  0  0  0  0  0  0  0  0  0  0
  -26.9140  -13.1005   20.3851 C   0  0  0  0  0  0  0  0  0  0  0  0
  -29.4495  -13.1289   20.1056 C   0  0  0  0  0  0  0  0  0  0  0  0
  -24.5785  -32.7454   27.4531 C   0  0  0  0  0  0  0  0  0  0  0  0
  -25.5876  -30.0822   20.6877 C   0  0  0  0  0  0  0  0  0  0  0  0
  -25.1193  -31.8653   26.4964 C   0  0  0  0  0  0  0  0  0  0  0  0
  -24.7684  -28.9874   20.3773 C   0  0  0  0  0  0  0  0  0  0  0  0
  -28.6827  -23.0830   17.4926 C   0  0  0  0  0  0  0  0  0  0  0  0
  -29.2503  -20.7946   18.0200 C   0  0  0  0  0  0  0  0  0  0  0  0
  -24.3954  -11.9050   20.2858 C   0  0  0  0  0  0  0  0  0  0  0  0
  -26.7093  -27.7893   19.5361 C   0  0  0  0  0  0  0  0  0  0  0  0
  -23.0396  -10.0440   20.7556 C   0  0  0  0  0  0  0  0  0  0  0  0
  -22.7847   -7.4686   21.7971 C   0  0  0  0  0  0  0  0  0  0  0  0
  -22.1605   -9.8025   21.8113 C   0  0  0  0  0  0  0  0  0  0  0  0
  -28.3819  -22.7066   16.1836 C   0  0  0  0  0  0  0  0  0  0  0  0
  -28.9495  -20.4182   16.7110 C   0  0  0  0  0  0  0  0  0  0  0  0
  -28.2146  -13.7186   20.4360 C   0  0  0  0  0  0  0  0  0  0  0  0
  -30.3729  -14.1228   20.3202 C   0  0  0  0  0  0  0  0  0  0  0  0
  -29.7363  -11.8015   19.6458 C   0  0  0  0  0  0  0  0  0  0  0  0
  -23.8630  -30.4201   23.3364 C   0  0  0  0  0  0  0  0  0  0  0  0
  -21.3894  -30.5566   21.2424 C   0  0  0  0  0  0  0  0  0  0  0  0
  -20.1576  -29.7708   18.1582 C   0  0  0  0  0  0  0  0  0  0  0  0
  -30.0263  -20.0882   20.3103 C   0  0  0  0  0  0  0  0  0  0  0  0
  -23.1238  -32.6919   27.8475 C   0  0  0  0  0  0  0  0  0  0  0  0
  -24.9962  -31.3331   21.2776 C   0  0  0  0  0  0  0  0  0  0  0  0
  -23.2868  -29.0036   20.6479 C   0  0  0  0  0  0  0  0  0  0  0  0
  -22.2475  -31.9476   26.8433 C   0  0  0  0  0  0  0  0  0  0  0  0
  -31.1229  -18.0233   22.9956 C   0  0  0  0  0  0  0  0  0  0  0  0
  -22.9016  -30.6308   26.4369 C   0  0  0  0  0  0  0  0  0  0  0  0
  -30.6192  -16.6303   22.6109 C   0  0  0  0  0  0  0  0  0  0  0  0
  -30.1328  -19.1153   22.5944 C   0  0  0  0  0  0  0  0  0  0  0  0
  -29.2145  -17.6974   20.8011 C   0  0  0  0  0  0  0  0  0  0  0  0
  -24.2517  -30.8740   25.7517 C   0  0  1  0  0  0  0  0  0  0  0  0
  -23.6767  -31.0859   22.0023 C   0  0  1  0  0  0  0  0  0  0  0  0
  -30.2077  -16.5699   21.1268 C   0  0  2  0  0  0  0  0  0  0  0  0
  -18.0913  -29.9818   16.7499 C   0  0  0  0  0  0  0  0  0  0  0  0
  -20.0684  -28.3253   22.8506 C   0  0  0  0  0  0  0  0  0  0  0  0
  -18.5299  -27.9354   20.9142 C   0  0  0  0  0  0  0  0  0  0  0  0
  -18.5108  -30.1313   22.0976 C   0  0  0  0  0  0  0  0  0  0  0  0
  -21.5806  -31.3529   16.1013 C   0  0  0  0  0  0  0  0  0  0  0  0
  -28.8406  -24.8800   19.2164 C   0  0  0  0  0  0  0  0  0  0  0  0
  -28.6104  -26.3794   19.3045 C   0  0  0  0  0  0  0  0  0  1  0  0
  -20.4677  -29.5425   20.6089 C   0  0  1  0  0  0  0  0  0  0  0  0
  -19.4269  -30.6063   17.1225 C   0  0  2  0  0  0  0  0  0  0  0  0
  -19.4224  -28.9823   21.6144 C   0  0  0  0  0  0  0  0  0  0  0  0
  -28.3387  -14.9885   20.8306 N   0  0  0  0  0  0  0  0  0  0  0  0
  -29.6626  -15.2051   20.7497 N   0  0  0  0  0  0  0  0  0  0  0  0
  -22.7568  -30.2471   21.2313 N   0  0  0  0  0  0  0  0  0  0  0  0
  -29.7922  -18.9980   21.1748 N   0  0  0  0  0  0  0  0  0  0  0  0
  -31.7150  -14.1679   20.1816 N   0  0  0  0  0  0  0  0  0  0  0  0
  -28.6702  -10.9072   19.4794 N   0  0  0  0  0  0  0  0  0  0  0  0
  -29.6938  -19.8487   18.9773 N   0  0  0  0  0  0  0  0  0  0  0  0
  -28.5509  -24.4054   17.8826 N   0  0  0  0  0  0  0  0  0  0  0  0
  -24.0542  -31.3016   24.3832 N   0  0  0  0  0  0  0  0  0  0  0  0
  -19.8841  -30.1945   19.4415 N   0  0  0  0  0  0  0  0  0  0  0  0
  -20.2483  -30.7322   15.8854 N   0  3  0  0  0  0  0  0  0  0  0  0
  -30.9052  -11.4148   19.4057 O   0  0  0  0  0  0  0  0  0  0  0  0
  -23.8339  -29.1973   23.4106 O   0  0  0  0  0  0  0  0  0  0  0  0
  -20.9143  -31.5886   21.7227 O   0  0  0  0  0  0  0  0  0  0  0  0
  -20.8941  -28.8335   17.8588 O   0  0  0  0  0  0  0  0  0  0  0  0
  -30.5132  -21.1462   20.7171 O   0  0  0  0  0  0  0  0  0  0  0  0
  -23.1666  -11.3217   20.2369 O   0  0  0  0  0  0  0  0  0  0  0  0
  -27.2517  -26.6717   18.9807 O   0  0  0  0  0  0  0  0  0  1  0  0
  -22.6614   -6.2317   22.2961 F   0  0  0  0  0  0  0  0  0  0  0  0
  -21.4349  -10.8034   22.3286 F   0  0  0  0  0  0  0  0  0  0  0  0
  -27.9637  -23.6172   15.2929 F   0  0  0  0  0  0  0  0  0  0  0  0
  -29.1010  -18.7799   16.1844 Cl  0  0  0  0  0  0  0  0  0  0  0  0
  1  2  1  0  0  0  0
  1  5  2  0  0  0  0
  2  6  2  0  0  0  0
  3  8  2  0  0  0  0
  3 17  1  0  0  0  0
  4  9  1  0  0  0  0
  4 17  2  0  0  0  0
  5 19  1  0  0  0  0
  6 21  1  0  0  0  0
  7 10  2  0  0  0  0
  7 20  1  0  0  0  0
  8 25  1  0  0  0  0
  9 25  2  0  0  0  0
 10 26  1  0  0  0  0
 11 12  2  0  0  0  0
 11 27  1  0  0  0  0
 12 28  1  0  0  0  0
 13 22  1  0  0  0  0
 13 26  2  0  0  0  0
 14 23  1  0  0  0  0
 14 24  2  0  0  0  0
 15 28  2  0  0  0  0
 15 29  1  0  0  0  0
 16 30  1  0  0  0  0
 16 31  2  0  0  0  0
 17 32  1  0  0  0  0
 18 32  1  0  0  0  0
 18 33  2  0  0  0  0
 18 34  1  0  0  0  0
 19 21  2  0  0  0  0
 19 39  1  0  0  0  0
 20 22  2  0  0  0  0
 20 40  1  0  0  0  0
 21 48  1  0  0  0  0
 22 41  1  0  0  0  0
 23 30  2  0  0  0  0
 23 68  1  0  0  0  0
 24 31  1  0  0  0  0
 24 67  1  0  0  0  0
 25 77  1  0  0  0  0
 26 78  1  0  0  0  0
 27 29  2  0  0  0  0
 27 77  1  0  0  0  0
 28 79  1  0  0  0  0
 29 80  1  0  0  0  0
 30 81  1  0  0  0  0
 31 82  1  0  0  0  0
 32 61  2  0  0  0  0
 33 62  1  0  0  0  0
 33 65  1  0  0  0  0
 34 66  1  0  0  0  0
 34 72  2  0  0  0  0
 35 49  1  0  0  0  0
 35 69  1  0  0  0  0
 35 73  2  0  0  0  0
 36 58  1  0  0  0  0
 36 63  1  0  0  0  0
 36 74  2  0  0  0  0
 37 59  1  0  0  0  0
 37 70  1  0  0  0  0
 37 75  2  0  0  0  0
 38 64  1  0  0  0  0
 38 67  1  0  0  0  0
 38 76  2  0  0  0  0
 39 42  1  0  0  0  0
 40 49  1  0  0  0  0
 41 63  1  0  0  0  0
 42 44  1  0  0  0  0
 43 45  1  0  0  0  0
 43 46  1  0  0  0  0
 44 48  1  0  0  0  0
 45 50  1  0  0  0  0
 46 64  1  0  0  0  0
 47 50  1  0  0  0  0
 47 64  1  0  0  0  0
 48 69  1  0  0  0  0
 49 63  1  0  0  0  0
 50 62  1  0  0  0  0
 51 59  1  0  0  0  0
 52 60  1  0  0  0  0
 53 60  1  0  0  0  0
 54 60  1  0  0  0  0
 55 71  1  0  0  0  0
 56 57  1  0  0  0  0
 56 68  1  0  0  0  0
 57 78  1  0  0  0  0
 58 60  1  0  0  0  0
 58 70  1  0  0  0  0
 59 71  1  0  0  0  0
 61 62  1  0  0  0  0
M  CHG  1  71   1
M  ISO  4  38 100  57 101  67 100  78 101
M  END
> <Batch ID>
0012

> <Smiles>
CNC(C)C(=O)NC(C(=O)N1Cc2cc([101O:1][101CH2:1]CNc3cc([100NH:0][100C:0](=O)N4CCCC(n5nc(-c6ccc(Oc7ccc(F)cc7F)cc6)c(C(N)=O)c5N)C4)c(Cl)cc3F)ccc2CC1C(=O)NC1CCCc2ccccc21)C(C)(C)C

> <Shape>
0.311

> <Color>
0.091

> <Negative vol penalty>
0.000

$$$$

  -OEChem-04052315473D

 83 91  0     1  0  0  0  0  0999 V2000
  -27.9810  -36.9925   19.0476 C   0  0  0  0  0  0  0  0  0  0  0  0
  -28.5525  -35.7780   18.6816 C   0  0  0  0  0  0  0  0  0  0  0  0
  -24.0177   -9.3227   22.0827 C   0  0  0  0  0  0  0  0  0  0  0  0
  -23.4826  -11.4988   22.9858 C   0  0  0  0  0  0  0  0  0  0  0  0
  -27.2275  -37.0827   20.2172 C   0  0  0  0  0  0  0  0  0  0  0  0
  -28.3716  -34.6532   19.4857 C   0  0  0  0  0  0  0  0  0  0  0  0
  -27.6964  -27.5345   19.0571 C   0  0  0  0  0  0  0  0  0  0  0  0
  -23.4023   -8.7168   23.1781 C   0  0  0  0  0  0  0  0  0  0  0  0
  -22.8672  -10.8929   24.0811 C   0  0  0  0  0  0  0  0  0  0  0  0
  -28.2402  -26.3669   19.5909 C   0  0  0  0  0  0  0  0  0  0  0  0
  -20.2542   -8.0181   24.1950 C   0  0  0  0  0  0  0  0  0  0  0  0
  -19.4005   -6.9434   23.9463 C   0  0  0  0  0  0  0  0  0  0  0  0
  -26.8528  -26.6225   21.5476 C   0  0  0  0  0  0  0  0  0  0  0  0
  -28.7489  -19.4759   21.5842 C   0  0  0  0  0  0  0  0  0  0  0  0
  -29.6282  -19.1823   19.3532 C   0  0  0  0  0  0  0  0  0  0  0  0
  -20.7984   -5.5182   25.3071 C   0  0  0  0  0  0  0  0  0  0  0  0
  -24.0579  -10.7137   21.9866 C   0  0  0  0  0  0  0  0  0  0  0  0
  -24.0936  -11.6997   19.6341 C   0  0  0  0  0  0  0  0  0  0  0  0
  -27.0292  -35.9562   21.0310 C   0  0  0  0  0  0  0  0  0  0  0  0
  -26.7330  -28.2619   19.7707 C   0  0  0  0  0  0  0  0  0  0  0  0
  -27.6158  -34.7288   20.6680 C   0  0  0  0  0  0  0  0  0  0  0  0
  -26.2965  -27.7975   21.0196 C   0  0  0  0  0  0  0  0  0  0  0  0
  -29.1611  -20.0186   20.3672 C   0  0  0  0  0  0  0  0  0  0  0  0
  -29.2709  -17.2607   20.7733 C   0  0  0  0  0  0  0  0  0  0  0  0
  -22.8270   -9.5019   24.1773 C   0  0  0  0  0  0  0  0  0  0  0  0
  -27.8205  -25.9123   20.8376 C   0  0  0  0  0  0  0  0  0  0  0  0
  -21.3801   -7.8429   24.9996 C   0  0  0  0  0  0  0  0  0  0  0  0
  -19.6726   -5.6935   24.5024 C   0  0  0  0  0  0  0  0  0  0  0  0
  -28.8038  -18.0969   21.7873 C   0  0  0  0  0  0  0  0  0  0  0  0
  -29.6831  -17.8034   19.5562 C   0  0  0  0  0  0  0  0  0  0  0  0
  -21.6521   -6.5929   25.5557 C   0  0  0  0  0  0  0  0  0  0  0  0
  -24.6939  -11.3402   20.8557 C   0  0  0  0  0  0  0  0  0  0  0  0
  -25.1133  -12.2557   18.9009 C   0  0  0  0  0  0  0  0  0  0  0  0
  -22.7356  -11.5450   19.2010 C   0  0  0  0  0  0  0  0  0  0  0  0
  -26.5829  -31.1953   20.9856 C   0  0  0  0  0  0  0  0  0  0  0  0
  -23.5159  -30.3533   21.6238 C   0  0  0  0  0  0  0  0  0  0  0  0
  -28.6726  -22.3892   21.0566 C   0  0  0  0  0  0  0  0  0  0  0  0
  -21.2491  -27.8608   22.1678 C   0  0  0  0  0  0  0  0  0  0  0  0
  -30.2246  -14.9573   20.4109 C   0  0  0  0  0  0  0  0  0  0  0  0
  -26.2463  -36.1136   22.3104 C   0  0  0  0  0  0  0  0  0  0  0  0
  -26.1367  -29.5049   19.1692 C   0  0  0  0  0  0  0  0  0  0  0  0
  -25.2500  -28.5309   21.8168 C   0  0  0  0  0  0  0  0  0  0  0  0
  -25.7898  -34.7871   22.9123 C   0  0  0  0  0  0  0  0  0  0  0  0
  -29.8678  -12.0704   18.3577 C   0  0  0  0  0  0  0  0  0  0  0  0
  -26.9381  -33.7831   22.9246 C   0  0  0  0  0  0  0  0  0  0  0  0
  -28.4437  -11.5918   18.6495 C   0  0  0  0  0  0  0  0  0  0  0  0
  -30.5461  -12.6278   19.6079 C   0  0  0  0  0  0  0  0  0  0  0  0
  -28.3648  -13.1912   20.6047 C   0  0  0  0  0  0  0  0  0  0  0  0
  -27.4215  -33.4805   21.5011 C   0  0  1  0  0  0  0  0  0  0  0  0
  -25.5371  -30.4444   20.2110 C   0  0  1  0  0  0  0  0  0  0  0  0
  -27.6178  -12.6811   19.3615 C   0  0  2  0  0  0  0  0  0  0  0  0
  -18.8261  -27.4836   22.7009 C   0  0  0  0  0  0  0  0  0  0  0  0
  -24.0322  -31.1504   24.5234 C   0  0  0  0  0  0  0  0  0  0  0  0
  -21.9661  -29.8902   25.1647 C   0  0  0  0  0  0  0  0  0  0  0  0
  -21.8036  -31.8502   23.6301 C   0  0  0  0  0  0  0  0  0  0  0  0
  -20.8077  -26.3696   19.6498 C   0  0  0  0  0  0  0  0  0  0  0  0
  -28.7760  -23.7713   20.4387 C   0  0  0  0  0  0  0  0  0  1  0  0
  -22.8078  -29.6910   22.7808 C   0  0  1  0  0  0  0  0  0  0  0  0
  -19.8638  -27.6170   21.5971 C   0  0  2  0  0  0  0  0  0  0  0  0
  -22.6736  -30.6324   24.0109 C   0  0  0  0  0  0  0  0  0  0  0  0
  -25.9943  -11.6422   20.8997 N   0  0  0  0  0  0  0  0  0  0  0  0
  -26.2194  -12.1973   19.6967 N   0  0  0  0  0  0  0  0  0  0  0  0
  -24.7017  -29.7445   21.1890 N   0  0  0  0  0  0  0  0  0  0  0  0
  -29.7081  -13.6574   20.2264 N   0  0  0  0  0  0  0  0  0  0  0  0
  -25.1627  -12.7838   17.6595 N   0  0  0  0  0  0  0  0  0  0  0  0
  -21.8173  -10.9539   20.0794 N   0  0  0  0  0  0  0  0  0  0  0  0
  -29.1061  -21.4175   20.1611 N   0  0  0  0  0  0  0  0  0  0  0  0
  -29.3257  -15.8598   20.9785 N   0  0  0  0  0  0  0  0  0  0  0  0
  -26.5122  -32.5678   20.8418 N   0  0  0  0  0  0  0  0  0  0  0  0
  -21.5350  -29.2068   22.2573 N   0  0  0  0  0  0  0  0  0  0  0  0
  -19.8504  -26.3669   20.7859 N   0  3  0  0  0  0  0  0  0  0  0  0
  -22.3516  -11.9050   18.0623 O   0  0  0  0  0  0  0  0  0  0  0  0
  -27.3930  -30.5755   21.6648 O   0  0  0  0  0  0  0  0  0  0  0  0
  -23.0310  -31.3693   21.1195 O   0  0  0  0  0  0  0  0  0  0  0  0
  -28.2536  -22.2253   22.1977 O   0  0  0  0  0  0  0  0  0  0  0  0
  -22.0009  -26.9487   22.5044 O   0  0  0  0  0  0  0  0  0  0  0  0
  -31.3704  -15.2557   20.0641 O   0  0  0  0  0  0  0  0  0  0  0  0
  -22.2262   -8.9110   25.2461 O   0  0  0  0  0  0  0  0  0  0  0  0
  -28.3502  -24.7733   21.3612 O   0  0  0  0  0  0  0  0  0  1  0  0
  -18.8518   -4.6619   24.2648 F   0  0  0  0  0  0  0  0  0  0  0  0
  -28.4054  -17.5865   22.9614 F   0  0  0  0  0  0  0  0  0  0  0  0
  -30.1344  -17.0095   18.5745 F   0  0  0  0  0  0  0  0  0  0  0  0
  -22.7316   -6.4187   26.3305 F   0  0  0  0  0  0  0  0  0  0  0  0
  1  2  1  0  0  0  0
  1  5  2  0  0  0  0
  2  6  2  0  0  0  0
  3  8  2  0  0  0  0
  3 17  1  0  0  0  0
  4  9  1  0  0  0  0
  4 17  2  0  0  0  0
  5 19  1  0  0  0  0
  6 21  1  0  0  0  0
  7 10  2  0  0  0  0
  7 20  1  0  0  0  0
  8 25  1  0  0  0  0
  9 25  2  0  0  0  0
 10 26  1  0  0  0  0
 11 12  2  0  0  0  0
 11 27  1  0  0  0  0
 12 28  1  0  0  0  0
 13 22  1  0  0  0  0
 13 26  2  0  0  0  0
 14 23  1  0  0  0  0
 14 29  2  0  0  0  0
 15 23  2  0  0  0  0
 15 30  1  0  0  0  0
 16 28  2  0  0  0  0
 16 31  1  0  0  0  0
 17 32  1  0  0  0  0
 18 32  1  0  0  0  0
 18 33  2  0  0  0  0
 18 34  1  0  0  0  0
 19 21  2  0  0  0  0
 19 40  1  0  0  0  0
 20 22  2  0  0  0  0
 20 41  1  0  0  0  0
 21 49  1  0  0  0  0
 22 42  1  0  0  0  0
 23 67  1  0  0  0  0
 24 29  1  0  0  0  0
 24 30  2  0  0  0  0
 24 68  1  0  0  0  0
 25 78  1  0  0  0  0
 26 79  1  0  0  0  0
 27 31  2  0  0  0  0
 27 78  1  0  0  0  0
 28 80  1  0  0  0  0
 29 81  1  0  0  0  0
 30 82  1  0  0  0  0
 31 83  1  0  0  0  0
 32 61  2  0  0  0  0
 33 62  1  0  0  0  0
 33 65  1  0  0  0  0
 34 66  1  0  0  0  0
 34 72  2  0  0  0  0
 35 50  1  0  0  0  0
 35 69  1  0  0  0  0
 35 73  2  0  0  0  0
 36 58  1  0  0  0  0
 36 63  1  0  0  0  0
 36 74  2  0  0  0  0
 37 57  1  0  0  0  0
 37 67  1  0  0  0  0
 37 75  2  0  0  0  0
 38 59  1  0  0  0  0
 38 70  1  0  0  0  0
 38 76  2  0  0  0  0
 39 64  1  0  0  0  0
 39 68  1  0  0  0  0
 39 77  2  0  0  0  0
 40 43  1  0  0  0  0
 41 50  1  0  0  0  0
 42 63  1  0  0  0  0
 43 45  1  0  0  0  0
 44 46  1  0  0  0  0
 44 47  1  0  0  0  0
 45 49  1  0  0  0  0
 46 51  1  0  0  0  0
 47 64  1  0  0  0  0
 48 51  1  0  0  0  0
 48 64  1  0  0  0  0
 49 69  1  0  0  0  0
 50 63  1  0  0  0  0
 51 62  1  0  0  0  0
 52 59  1  0  0  0  0
 53 60  1  0  0  0  0
 54 60  1  0  0  0  0
 55 60  1  0  0  0  0
 56 71  1  0  0  0  0
 57 79  1  0  0  0  0
 58 60  1  0  0  0  0
 58 70  1  0  0  0  0
 59 71  1  0  0  0  0
 61 62  1  0  0  0  0
M  CHG  1  71   1
M  ISO  4  39 100  57 101  68 100  79 101
M  END
> <Batch ID>
0012

> <Smiles>
CNC(C)C(=O)NC(C(=O)N1Cc2cc([101O:1][101CH2:1]C(=O)Nc3cc(F)c([100NH:0][100C:0](=O)N4CCCC(n5nc(-c6ccc(Oc7ccc(F)cc7F)cc6)c(C(N)=O)c5N)C4)c(F)c3)ccc2CC1C(=O)NC1CCCc2ccccc21)C(C)(C)C

> <Shape>
0.320

> <Color>
0.084

> <Negative vol penalty>
0.000

$$$$

  -OEChem-04052315473D

 87 95  0     1  0  0  0  0  0999 V2000
  -16.5871  -30.1710   24.2212 C   0  0  0  0  0  0  0  0  0  0  0  0
  -17.5545  -29.8601   25.1716 C   0  0  0  0  0  0  0  0  0  0  0  0
  -24.6047  -13.9658   20.3651 C   0  0  0  0  0  0  0  0  0  0  0  0
  -26.9173  -13.6250   20.9756 C   0  0  0  0  0  0  0  0  0  0  0  0
  -16.6974  -29.6678   22.9257 C   0  0  0  0  0  0  0  0  0  0  0  0
  -18.6321  -29.0449   24.8271 C   0  0  0  0  0  0  0  0  0  0  0  0
  -25.5732  -28.0512   26.2933 C   0  0  0  0  0  0  0  0  0  0  0  0
  -24.4548  -12.5934   20.1664 C   0  0  0  0  0  0  0  0  0  0  0  0
  -26.7675  -12.2525   20.7769 C   0  0  0  0  0  0  0  0  0  0  0  0
  -26.4601  -27.0455   26.6751 C   0  0  0  0  0  0  0  0  0  0  0  0
  -23.3654   -9.1399   19.8474 C   0  0  0  0  0  0  0  0  0  0  0  0
  -22.2245   -8.5299   20.3687 C   0  0  0  0  0  0  0  0  0  0  0  0
  -26.5889  -26.2981   24.3851 C   0  0  0  0  0  0  0  0  0  0  0  0
  -30.4789  -23.9994   20.7516 C   0  0  0  0  0  0  0  0  0  0  0  0
  -22.8693   -9.2235   22.5914 C   0  0  0  0  0  0  0  0  0  0  0  0
  -25.8360  -14.4816   20.7696 C   0  0  0  0  0  0  0  0  0  0  0  0
  -25.7817  -16.6138   22.1691 C   0  0  0  0  0  0  0  0  0  0  0  0
  -17.7820  -28.8539   22.5625 C   0  0  0  0  0  0  0  0  0  0  0  0
  -25.1783  -28.1813   24.9541 C   0  0  0  0  0  0  0  0  0  0  0  0
  -18.7562  -28.5293   23.5258 C   0  0  0  0  0  0  0  0  0  0  0  0
  -25.6988  -27.3079   23.9885 C   0  0  0  0  0  0  0  0  0  0  0  0
  -31.0612  -25.0682   21.4329 C   0  0  0  0  0  0  0  0  0  0  0  0
  -30.0896  -22.8563   21.4498 C   0  0  0  0  0  0  0  0  0  0  0  0
  -30.8650  -23.8508   23.5105 C   0  0  0  0  0  0  0  0  0  0  0  0
  -25.5362  -11.7367   20.3724 C   0  0  0  0  0  0  0  0  0  0  0  0
  -26.9659  -26.1670   25.7214 C   0  0  0  0  0  0  0  0  0  0  0  0
  -24.2584   -9.7916   20.6980 C   0  0  0  0  0  0  0  0  0  0  0  0
  -21.9764   -8.5717   21.7407 C   0  0  0  0  0  0  0  0  0  0  0  0
  -24.0103   -9.8334   22.0700 C   0  0  0  0  0  0  0  0  0  0  0  0
  -31.2543  -24.9939   22.8123 C   0  0  0  0  0  0  0  0  0  0  0  0
  -30.2827  -22.7820   22.8292 C   0  0  0  0  0  0  0  0  0  0  0  0
  -25.9916  -15.8994   20.9744 C   0  0  0  0  0  0  0  0  0  0  0  0
  -26.0610  -17.9183   21.8427 C   0  0  0  0  0  0  0  0  0  0  0  0
  -25.3710  -16.1404   23.4587 C   0  0  0  0  0  0  0  0  0  0  0  0
  -22.4100  -27.9930   23.4033 C   0  0  0  0  0  0  0  0  0  0  0  0
  -24.2040  -28.9593   20.8794 C   0  0  0  0  0  0  0  0  0  0  0  0
  -30.0639  -24.2811   25.8011 C   0  0  0  0  0  0  0  0  0  0  0  0
  -27.2842  -29.1669   19.4247 C   0  0  0  0  0  0  0  0  0  0  0  0
  -29.2543  -21.7395   19.3518 C   0  0  0  0  0  0  0  0  0  0  0  0
  -17.8333  -28.2948   21.1627 C   0  0  0  0  0  0  0  0  0  0  0  0
  -24.2415  -29.2880   24.5541 C   0  0  0  0  0  0  0  0  0  0  0  0
  -25.3221  -27.4178   22.5344 C   0  0  0  0  0  0  0  0  0  0  0  0
  -19.2038  -27.7443   20.7765 C   0  0  0  0  0  0  0  0  0  0  0  0
  -26.8219  -20.0960   17.3371 C   0  0  0  0  0  0  0  0  0  0  0  0
  -19.7594  -26.8648   21.8921 C   0  0  0  0  0  0  0  0  0  0  0  0
  -26.3718  -18.9164   18.2020 C   0  0  0  0  0  0  0  0  0  0  0  0
  -28.3145  -20.3793   17.4967 C   0  0  0  0  0  0  0  0  0  0  0  0
  -28.3181  -19.3767   19.7470 C   0  0  0  0  0  0  0  0  0  0  0  0
  -19.9529  -27.6685   23.1837 C   0  0  1  0  0  0  0  0  0  0  0  0
  -23.5080  -29.0066   23.2464 C   0  0  1  0  0  0  0  0  0  0  0  0
  -26.8088  -19.0945   19.6693 C   0  0  2  0  0  0  0  0  0  0  0  0
  -28.4294  -29.9762   17.3436 C   0  0  0  0  0  0  0  0  0  0  0  0
  -23.1336  -26.5433   19.3538 C   0  0  0  0  0  0  0  0  0  0  0  0
  -24.9828  -26.8587   17.6958 C   0  0  0  0  0  0  0  0  0  0  0  0
  -23.2731  -28.6478   18.0098 C   0  0  0  0  0  0  0  0  0  0  0  0
  -32.3505  -23.2761   25.4581 C   0  0  0  0  0  0  0  0  0  0  0  0
  -31.2563  -26.3071   19.2912 C   0  0  0  0  0  0  0  0  0  0  0  0
  -32.0472  -27.3459   21.4228 C   0  0  0  0  0  0  0  0  0  0  0  0
  -28.9625  -31.0695   20.9487 C   0  0  0  0  0  0  0  0  0  0  0  0
  -28.7907  -24.7646   25.1220 C   0  0  0  0  0  0  0  0  0  1  0  0
  -25.0069  -28.2608   19.8087 C   0  0  1  0  0  0  0  0  0  0  0  0
  -28.0098  -30.3247   18.7632 C   0  0  2  0  0  0  0  0  0  0  0  0
  -24.1049  -27.5741   18.7446 C   0  0  0  0  0  0  0  0  0  0  0  0
  -26.3745  -16.6850   19.9643 N   0  0  0  0  0  0  0  0  0  0  0  0
  -26.4074  -17.9065   20.5236 N   0  0  0  0  0  0  0  0  0  0  0  0
  -24.3982  -28.5124   22.1941 N   0  0  0  0  0  0  0  0  0  0  0  0
  -28.6542  -20.5407   18.9121 N   0  0  0  0  0  0  0  0  0  0  0  0
  -26.0416  -19.0629   22.5582 N   0  0  0  0  0  0  0  0  0  0  0  0
  -25.1256  -14.7701   23.6204 N   0  0  0  0  0  0  0  0  0  0  0  0
  -29.5015  -21.7913   20.7232 N   0  0  0  0  0  0  0  0  0  0  0  0
  -21.1510  -28.4761   23.1017 N   0  0  0  0  0  0  0  0  0  0  0  0
  -25.9180  -29.2614   19.2636 N   0  0  0  0  0  0  0  0  0  0  0  0
  -31.0799  -23.8091   24.9429 N   0  0  0  0  0  0  0  0  0  0  0  0
  -31.4538  -26.2229   20.7245 N   0  0  0  0  0  0  0  0  0  0  0  0
  -29.2304  -30.6825   19.5396 N   0  3  0  0  0  0  0  0  0  0  0  0
  -25.2101  -16.9123   24.4344 O   0  0  0  0  0  0  0  0  0  0  0  0
  -22.6849  -26.8563   23.7694 O   0  0  0  0  0  0  0  0  0  0  0  0
  -23.4382  -29.8727   20.5619 O   0  0  0  0  0  0  0  0  0  0  0  0
  -30.1232  -24.2997   27.0331 O   0  0  0  0  0  0  0  0  0  0  0  0
  -27.8709  -28.2667   20.0212 O   0  0  0  0  0  0  0  0  0  0  0  0
  -29.5037  -22.6638   18.5737 O   0  0  0  0  0  0  0  0  0  0  0  0
  -25.3902  -10.3973   20.1788 O   0  0  0  0  0  0  0  0  0  0  0  0
  -27.8313  -25.1841   26.0914 O   0  0  0  0  0  0  0  0  0  1  0  0
  -20.8799   -7.9873   22.2410 F   0  0  0  0  0  0  0  0  0  0  0  0
  -24.8639  -10.4590   22.8921 F   0  0  0  0  0  0  0  0  0  0  0  0
  -31.8141  -26.0236   23.4661 F   0  0  0  0  0  0  0  0  0  0  0  0
  -29.7983  -21.3593   23.6976 Cl  0  0  0  0  0  0  0  0  0  0  0  0
  1  2  1  0  0  0  0
  1  5  2  0  0  0  0
  2  6  2  0  0  0  0
  3  8  2  0  0  0  0
  3 16  1  0  0  0  0
  4  9  1  0  0  0  0
  4 16  2  0  0  0  0
  5 18  1  0  0  0  0
  6 20  1  0  0  0  0
  7 10  2  0  0  0  0
  7 19  1  0  0  0  0
  8 25  1  0  0  0  0
  9 25  2  0  0  0  0
 10 26  1  0  0  0  0
 11 12  2  0  0  0  0
 11 27  1  0  0  0  0
 12 28  1  0  0  0  0
 13 21  1  0  0  0  0
 13 26  2  0  0  0  0
 14 22  1  0  0  0  0
 14 23  2  0  0  0  0
 15 28  2  0  0  0  0
 15 29  1  0  0  0  0
 16 32  1  0  0  0  0
 17 32  1  0  0  0  0
 17 33  2  0  0  0  0
 17 34  1  0  0  0  0
 18 20  2  0  0  0  0
 18 40  1  0  0  0  0
 19 21  2  0  0  0  0
 19 41  1  0  0  0  0
 20 49  1  0  0  0  0
 21 42  1  0  0  0  0
 22 30  2  0  0  0  0
 22 74  1  0  0  0  0
 23 31  1  0  0  0  0
 23 70  1  0  0  0  0
 24 30  1  0  0  0  0
 24 31  2  0  0  0  0
 24 73  1  0  0  0  0
 25 82  1  0  0  0  0
 26 83  1  0  0  0  0
 27 29  2  0  0  0  0
 27 82  1  0  0  0  0
 28 84  1  0  0  0  0
 29 85  1  0  0  0  0
 30 86  1  0  0  0  0
 31 87  1  0  0  0  0
 32 64  2  0  0  0  0
 33 65  1  0  0  0  0
 33 68  1  0  0  0  0
 34 69  1  0  0  0  0
 34 76  2  0  0  0  0
 35 50  1  0  0  0  0
 35 71  1  0  0  0  0
 35 77  2  0  0  0  0
 36 61  1  0  0  0  0
 36 66  1  0  0  0  0
 36 78  2  0  0  0  0
 37 60  1  0  0  0  0
 37 73  1  0  0  0  0
 37 79  2  0  0  0  0
 38 62  1  0  0  0  0
 38 72  1  0  0  0  0
 38 80  2  0  0  0  0
 39 67  1  0  0  0  0
 39 70  1  0  0  0  0
 39 81  2  0  0  0  0
 40 43  1  0  0  0  0
 41 50  1  0  0  0  0
 42 66  1  0  0  0  0
 43 45  1  0  0  0  0
 44 46  1  0  0  0  0
 44 47  1  0  0  0  0
 45 49  1  0  0  0  0
 46 51  1  0  0  0  0
 47 67  1  0  0  0  0
 48 51  1  0  0  0  0
 48 67  1  0  0  0  0
 49 71  1  0  0  0  0
 50 66  1  0  0  0  0
 51 65  1  0  0  0  0
 52 62  1  0  0  0  0
 53 63  1  0  0  0  0
 54 63  1  0  0  0  0
 55 63  1  0  0  0  0
 56 73  1  0  0  0  0
 57 74  1  0  0  0  0
 58 74  1  0  0  0  0
 59 75  1  0  0  0  0
 60 83  1  0  0  0  0
 61 63  1  0  0  0  0
 61 72  1  0  0  0  0
 62 75  1  0  0  0  0
 64 65  1  0  0  0  0
M  CHG  1  75   1
M  ISO  4  39 100  60 101  70 100  83 101
M  END
> <Batch ID>
0012

> <Smiles>
CNC(C)C(=O)NC(C(=O)N1Cc2cc([101O:1][101CH2:1]C(=O)N(C)c3c(F)c(N(C)C)cc([100NH:0][100C:0](=O)N4CCCC(n5nc(-c6ccc(Oc7ccc(F)cc7F)cc6)c(C(N)=O)c5N)C4)c3Cl)ccc2CC1C(=O)NC1CCCc2ccccc21)C(C)(C)C

> <Shape>
0.238

> <Color>
0.083

> <Negative vol penalty>
0.000

$$$$

  -OEChem-04052315473D

 86 94  0     1  0  0  0  0  0999 V2000
  -30.7055  -31.1583   25.6504 C   0  0  0  0  0  0  0  0  0  0  0  0
  -30.0918  -30.1336   24.9372 C   0  0  0  0  0  0  0  0  0  0  0  0
  -25.6803  -12.1242   21.7322 C   0  0  0  0  0  0  0  0  0  0  0  0
  -26.1336  -12.2543   19.3626 C   0  0  0  0  0  0  0  0  0  0  0  0
  -29.9310  -32.1565   26.2401 C   0  0  0  0  0  0  0  0  0  0  0  0
  -28.7031  -30.1059   24.8141 C   0  0  0  0  0  0  0  0  0  0  0  0
  -27.1913  -29.0709   20.0931 C   0  0  0  0  0  0  0  0  0  0  0  0
  -24.5346  -11.3725   21.4717 C   0  0  0  0  0  0  0  0  0  0  0  0
  -24.9879  -11.5026   19.1022 C   0  0  0  0  0  0  0  0  0  0  0  0
  -27.2469  -27.7391   19.6843 C   0  0  0  0  0  0  0  0  0  0  0  0
  -23.7801   -8.1694   20.6946 C   0  0  0  0  0  0  0  0  0  0  0  0
  -23.5553   -7.0377   21.4783 C   0  0  0  0  0  0  0  0  0  0  0  0
  -24.8799  -27.5206   20.0949 C   0  0  0  0  0  0  0  0  0  0  0  0
  -28.7645  -20.9399   14.6622 C   0  0  0  0  0  0  0  0  0  0  0  0
  -21.4626   -7.9779   22.2356 C   0  0  0  0  0  0  0  0  0  0  0  0
  -26.4798  -12.5652   20.6776 C   0  0  0  0  0  0  0  0  0  0  0  0
  -28.9660  -12.8575   21.1684 C   0  0  0  0  0  0  0  0  0  0  0  0
  -28.5327  -32.1464   26.1160 C   0  0  0  0  0  0  0  0  0  0  0  0
  -25.9797  -29.6353   20.5169 C   0  0  0  0  0  0  0  0  0  0  0  0
  -27.9091  -31.1042   25.4038 C   0  0  0  0  0  0  0  0  0  0  0  0
  -24.8111  -28.8604   20.5062 C   0  0  0  0  0  0  0  0  0  0  0  0
  -28.0458  -21.4044   15.7637 C   0  0  0  0  0  0  0  0  0  0  0  0
  -29.0728  -19.7114   17.1479 C   0  0  0  0  0  0  0  0  0  0  0  0
  -24.1884  -11.0617   20.1567 C   0  0  0  0  0  0  0  0  0  0  0  0
  -26.0917  -26.9629   19.6879 C   0  0  0  0  0  0  0  0  0  0  0  0
  -22.8462   -9.2054   20.6814 C   0  0  0  0  0  0  0  0  0  0  0  0
  -22.3965   -6.9419   22.2488 C   0  0  0  0  0  0  0  0  0  0  0  0
  -29.6374  -19.8611   14.8036 C   0  0  0  0  0  0  0  0  0  0  0  0
  -21.6874   -9.1097   21.4519 C   0  0  0  0  0  0  0  0  0  0  0  0
  -28.1999  -20.7902   17.0065 C   0  0  0  0  0  0  0  0  0  0  0  0
  -29.7916  -19.2468   16.0464 C   0  0  0  0  0  0  0  0  0  0  0  0
  -27.6632  -13.3422   20.9460 C   0  0  0  0  0  0  0  0  0  0  0  0
  -29.7217  -13.9859   21.3741 C   0  0  0  0  0  0  0  0  0  0  0  0
  -29.4500  -11.5080   21.1873 C   0  0  0  0  0  0  0  0  0  0  0  0
  -24.9249  -30.9033   23.2342 C   0  0  0  0  0  0  0  0  0  0  0  0
  -22.3147  -31.6034   21.4401 C   0  0  0  0  0  0  0  0  0  0  0  0
  -26.6284  -24.1613   17.4757 C   0  0  0  0  0  0  0  0  0  0  0  0
  -20.3980  -30.8840   18.7096 C   0  0  0  0  0  0  0  0  0  0  0  0
  -29.1053  -19.6788   19.6667 C   0  0  0  0  0  0  0  0  0  0  0  0
  -27.7345  -33.2209   26.8109 C   0  0  0  0  0  0  0  0  0  0  0  0
  -25.9313  -31.0810   20.9295 C   0  0  0  0  0  0  0  0  0  0  0  0
  -23.4814  -29.4248   20.9327 C   0  0  0  0  0  0  0  0  0  0  0  0
  -26.2938  -33.3249   26.3170 C   0  0  0  0  0  0  0  0  0  0  0  0
  -29.3803  -18.4752   23.0062 C   0  0  0  0  0  0  0  0  0  0  0  0
  -25.6585  -31.9409   26.2287 C   0  0  0  0  0  0  0  0  0  0  0  0
  -29.0958  -16.9771   22.8762 C   0  0  0  0  0  0  0  0  0  0  0  0
  -28.5195  -19.3009   22.0518 C   0  0  0  0  0  0  0  0  0  0  0  0
  -28.2968  -17.3890   20.5142 C   0  0  0  0  0  0  0  0  0  0  0  0
  -26.4070  -31.0532   25.2271 C   0  0  1  0  0  0  0  0  0  0  0  0
  -24.7434  -31.4059   21.8299 C   0  0  1  0  0  0  0  0  0  0  0  0
  -29.1865  -16.5114   21.4098 C   0  0  2  0  0  0  0  0  0  0  0  0
  -18.3060  -31.6050   17.5260 C   0  0  0  0  0  0  0  0  0  0  0  0
  -20.6323  -30.2059   23.5677 C   0  0  0  0  0  0  0  0  0  0  0  0
  -18.7497  -30.1151   21.9198 C   0  0  0  0  0  0  0  0  0  0  0  0
  -19.6388  -32.3201   22.6746 C   0  0  0  0  0  0  0  0  0  0  0  0
  -28.7839  -24.2661   16.2127 C   0  0  0  0  0  0  0  0  0  0  0  0
  -21.8908  -31.5830   16.2515 C   0  0  0  0  0  0  0  0  0  0  0  0
  -27.1072  -22.5658   15.6074 C   0  0  0  0  0  0  0  0  0  0  0  0
  -27.1256  -25.3208   18.3130 C   0  0  0  0  0  0  0  0  0  1  0  0
  -21.0228  -30.8955   21.1104 C   0  0  1  0  0  0  0  0  0  0  0  0
  -19.8141  -31.7729   17.6263 C   0  0  2  0  0  0  0  0  0  0  0  0
  -20.0362  -30.8727   22.3119 C   0  0  0  0  0  0  0  0  0  0  0  0
  -27.5916  -14.6746   21.0050 N   0  0  0  0  0  0  0  0  0  0  0  0
  -28.8590  -15.0368   21.2669 N   0  0  0  0  0  0  0  0  0  0  0  0
  -23.4868  -30.8414   21.3334 N   0  0  0  0  0  0  0  0  0  0  0  0
  -28.6594  -18.8051   20.6809 N   0  0  0  0  0  0  0  0  0  0  0  0
  -31.0332  -14.1717   21.6344 N   0  0  0  0  0  0  0  0  0  0  0  0
  -28.5390  -10.4682   20.9566 N   0  0  0  0  0  0  0  0  0  0  0  0
  -29.2308  -19.0873   18.4101 N   0  0  0  0  0  0  0  0  0  0  0  0
  -26.0442  -31.4045   23.8709 N   0  0  0  0  0  0  0  0  0  0  0  0
  -20.4946  -31.5452   19.9157 N   0  0  0  0  0  0  0  0  0  0  0  0
  -27.4729  -23.6843   16.4728 N   0  0  0  0  0  0  0  0  0  0  0  0
  -20.4132  -31.4386   16.3033 N   0  3  0  0  0  0  0  0  0  0  0  0
  -30.6515  -11.2315   21.4186 O   0  0  0  0  0  0  0  0  0  0  0  0
  -24.1090  -30.1199   23.7057 O   0  0  0  0  0  0  0  0  0  0  0  0
  -22.2857  -32.7909   21.7728 O   0  0  0  0  0  0  0  0  0  0  0  0
  -25.5136  -23.6891   17.7190 O   0  0  0  0  0  0  0  0  0  0  0  0
  -20.7314  -29.7185   18.5070 O   0  0  0  0  0  0  0  0  0  0  0  0
  -29.3832  -20.8576   19.9015 O   0  0  0  0  0  0  0  0  0  0  0  0
  -23.0705  -10.3280   19.9022 O   0  0  0  0  0  0  0  0  0  0  0  0
  -26.1433  -25.6626   19.2899 O   0  0  0  0  0  0  0  0  0  1  0  0
  -22.1800   -5.8544   23.0002 F   0  0  0  0  0  0  0  0  0  0  0  0
  -30.3278  -19.4149   13.7459 F   0  0  0  0  0  0  0  0  0  0  0  0
  -20.7860  -10.1012   21.4424 F   0  0  0  0  0  0  0  0  0  0  0  0
  -27.5096  -21.2400   18.0653 F   0  0  0  0  0  0  0  0  0  0  0  0
  -30.6350  -18.2122   16.1707 F   0  0  0  0  0  0  0  0  0  0  0  0
  1  2  1  0  0  0  0
  1  5  2  0  0  0  0
  2  6  2  0  0  0  0
  3  8  2  0  0  0  0
  3 16  1  0  0  0  0
  4  9  1  0  0  0  0
  4 16  2  0  0  0  0
  5 18  1  0  0  0  0
  6 20  1  0  0  0  0
  7 10  2  0  0  0  0
  7 19  1  0  0  0  0
  8 24  1  0  0  0  0
  9 24  2  0  0  0  0
 10 25  1  0  0  0  0
 11 12  2  0  0  0  0
 11 26  1  0  0  0  0
 12 27  1  0  0  0  0
 13 21  1  0  0  0  0
 13 25  2  0  0  0  0
 14 22  1  0  0  0  0
 14 28  2  0  0  0  0
 15 27  2  0  0  0  0
 15 29  1  0  0  0  0
 16 32  1  0  0  0  0
 17 32  1  0  0  0  0
 17 33  2  0  0  0  0
 17 34  1  0  0  0  0
 18 20  2  0  0  0  0
 18 40  1  0  0  0  0
 19 21  2  0  0  0  0
 19 41  1  0  0  0  0
 20 49  1  0  0  0  0
 21 42  1  0  0  0  0
 22 30  2  0  0  0  0
 22 58  1  0  0  0  0
 23 30  1  0  0  0  0
 23 31  2  0  0  0  0
 23 69  1  0  0  0  0
 24 80  1  0  0  0  0
 25 81  1  0  0  0  0
 26 29  2  0  0  0  0
 26 80  1  0  0  0  0
 27 82  1  0  0  0  0
 28 31  1  0  0  0  0
 28 83  1  0  0  0  0
 29 84  1  0  0  0  0
 30 85  1  0  0  0  0
 31 86  1  0  0  0  0
 32 63  2  0  0  0  0
 33 64  1  0  0  0  0
 33 67  1  0  0  0  0
 34 68  1  0  0  0  0
 34 74  2  0  0  0  0
 35 50  1  0  0  0  0
 35 70  1  0  0  0  0
 35 75  2  0  0  0  0
 36 60  1  0  0  0  0
 36 65  1  0  0  0  0
 36 76  2  0  0  0  0
 37 59  1  0  0  0  0
 37 72  1  0  0  0  0
 37 77  2  0  0  0  0
 38 61  1  0  0  0  0
 38 71  1  0  0  0  0
 38 78  2  0  0  0  0
 39 66  1  0  0  0  0
 39 69  1  0  0  0  0
 39 79  2  0  0  0  0
 40 43  1  0  0  0  0
 41 50  1  0  0  0  0
 42 65  1  0  0  0  0
 43 45  1  0  0  0  0
 44 46  1  0  0  0  0
 44 47  1  0  0  0  0
 45 49  1  0  0  0  0
 46 51  1  0  0  0  0
 47 66  1  0  0  0  0
 48 51  1  0  0  0  0
 48 66  1  0  0  0  0
 49 70  1  0  0  0  0
 50 65  1  0  0  0  0
 51 64  1  0  0  0  0
 52 61  1  0  0  0  0
 53 62  1  0  0  0  0
 54 62  1  0  0  0  0
 55 62  1  0  0  0  0
 56 72  1  0  0  0  0
 57 73  1  0  0  0  0
 58 72  1  0  0  0  0
 59 81  1  0  0  0  0
 60 62  1  0  0  0  0
 60 71  1  0  0  0  0
 61 73  1  0  0  0  0
 63 64  1  0  0  0  0
M  CHG  1  73   1
M  ISO  4  39 100  59 101  69 100  81 101
M  END
> <Batch ID>
0012

> <Smiles>
CNC(C)C(=O)NC(C(=O)N1Cc2cc([101O:1][101CH2:1]C(=O)N(C)Cc3cc(F)c(F)c([100NH:0][100C:0](=O)N4CCCC(n5nc(-c6ccc(Oc7ccc(F)cc7F)cc6)c(C(N)=O)c5N)C4)c3F)ccc2CC1C(=O)NC1CCCc2ccccc21)C(C)(C)C

> <Shape>
0.283

> <Color>
0.071

> <Negative vol penalty>
0.000

$$$$

  -OEChem-04052315473D

 92100  0     1  0  0  0  0  0999 V2000
  -21.8281  -29.8543   24.5807 C   0  0  0  0  0  0  0  0  0  0  0  0
  -22.7957  -29.0411   23.9993 C   0  0  0  0  0  0  0  0  0  0  0  0
  -23.1884   -9.7580   20.0354 C   0  0  0  0  0  0  0  0  0  0  0  0
  -23.7955  -10.0201   22.3591 C   0  0  0  0  0  0  0  0  0  0  0  0
  -20.4765  -29.6018   24.3496 C   0  0  0  0  0  0  0  0  0  0  0  0
  -22.4122  -27.9743   23.1875 C   0  0  0  0  0  0  0  0  0  0  0  0
  -25.1505  -27.6849   18.9374 C   0  0  0  0  0  0  0  0  0  0  0  0
  -22.4680   -8.6067   20.3534 C   0  0  0  0  0  0  0  0  0  0  0  0
  -23.0751   -8.8688   22.6772 C   0  0  0  0  0  0  0  0  0  0  0  0
  -26.4289  -27.1382   19.0396 C   0  0  0  0  0  0  0  0  0  0  0  0
  -19.8423   -8.0082   23.1555 C   0  0  0  0  0  0  0  0  0  0  0  0
  -19.0118   -8.0539   24.2753 C   0  0  0  0  0  0  0  0  0  0  0  0
  -25.5904  -25.0365   18.2034 C   0  0  0  0  0  0  0  0  0  0  0  0
  -29.3435  -19.6228   21.8950 C   0  0  0  0  0  0  0  0  0  0  0  0
  -30.9481  -17.9031   20.3947 C   0  0  0  0  0  0  0  0  0  0  0  0
  -20.2652   -6.2483   25.2784 C   0  0  0  0  0  0  0  0  0  0  0  0
  -23.8522  -10.4647   21.0383 C   0  0  0  0  0  0  0  0  0  0  0  0
  -24.1181  -12.9773   20.6863 C   0  0  0  0  0  0  0  0  0  0  0  0
  -20.0764  -28.5372   23.5267 C   0  0  0  0  0  0  0  0  0  0  0  0
  -24.0784  -26.9071   18.4769 C   0  0  0  0  0  0  0  0  0  0  0  0
  -21.0539  -27.7065   22.9463 C   0  0  0  0  0  0  0  0  0  0  0  0
  -24.2998  -25.5765   18.0939 C   0  0  0  0  0  0  0  0  0  0  0  0
  -30.2856  -20.1441   21.0082 C   0  0  0  0  0  0  0  0  0  0  0  0
  -29.2037  -18.2416   22.0316 C   0  0  0  0  0  0  0  0  0  0  0  0
  -30.0060  -17.3818   21.2815 C   0  0  0  0  0  0  0  0  0  0  0  0
  -22.4113   -8.1622   21.6743 C   0  0  0  0  0  0  0  0  0  0  0  0
  -26.6484  -25.8129   18.6754 C   0  0  0  0  0  0  0  0  0  0  0  0
  -20.8841   -7.0825   23.0971 C   0  0  0  0  0  0  0  0  0  0  0  0
  -19.2233   -7.1740   25.3367 C   0  0  0  0  0  0  0  0  0  0  0  0
  -21.0956   -6.2026   24.1586 C   0  0  0  0  0  0  0  0  0  0  0  0
  -31.0879  -19.2843   20.2581 C   0  0  0  0  0  0  0  0  0  0  0  0
  -24.5971  -11.6537   20.7103 C   0  0  0  0  0  0  0  0  0  0  0  0
  -25.2066  -13.7296   20.3179 C   0  0  0  0  0  0  0  0  0  0  0  0
  -22.8067  -13.4815   20.9716 C   0  0  0  0  0  0  0  0  0  0  0  0
  -21.3231  -25.9246   19.7206 C   0  0  0  0  0  0  0  0  0  0  0  0
  -20.8153  -24.8051   16.7187 C   0  0  0  0  0  0  0  0  0  0  0  0
  -29.2209  -23.5591   19.8457 C   0  0  0  0  0  0  0  0  0  0  0  0
  -22.1423  -23.7548   13.7552 C   0  0  0  0  0  0  0  0  0  0  0  0
  -30.6123  -15.0008   20.7253 C   0  0  0  0  0  0  0  0  0  0  0  0
  -18.6025  -28.2747   23.3445 C   0  0  0  0  0  0  0  0  0  0  0  0
  -22.7108  -27.5196   18.3472 C   0  0  0  0  0  0  0  0  0  0  0  0
  -23.1866  -24.7052   17.5742 C   0  0  0  0  0  0  0  0  0  0  0  0
  -18.2888  -27.3520   22.1695 C   0  0  0  0  0  0  0  0  0  0  0  0
  -29.7355  -12.3241   18.5473 C   0  0  0  0  0  0  0  0  0  0  0  0
  -19.2100  -26.1363   22.1847 C   0  0  0  0  0  0  0  0  0  0  0  0
  -28.2811  -12.0199   18.9139 C   0  0  0  0  0  0  0  0  0  0  0  0
  -30.5618  -12.7056   19.7743 C   0  0  0  0  0  0  0  0  0  0  0  0
  -28.5455  -13.4870   20.9547 C   0  0  0  0  0  0  0  0  0  0  0  0
  -20.6781  -26.5546   22.0396 C   0  0  1  0  0  0  0  0  0  0  0  0
  -21.5898  -26.4849   18.3521 C   0  0  1  0  0  0  0  0  0  0  0  0
  -27.6583  -13.1608   19.7422 C   0  0  2  0  0  0  0  0  0  0  0  0
  -21.4782  -22.8651   11.5046 C   0  0  0  0  0  0  0  0  0  0  0  0
  -20.2515  -22.0780   17.9658 C   0  0  0  0  0  0  0  0  0  0  0  0
  -20.5369  -21.0591   15.6967 C   0  0  0  0  0  0  0  0  0  0  0  0
  -18.7111  -22.7104   16.0998 C   0  0  0  0  0  0  0  0  0  0  0  0
  -28.6037  -17.4771   24.3154 C   0  0  0  0  0  0  0  0  0  0  0  0
  -23.3626  -26.0591   12.3553 C   0  0  0  0  0  0  0  0  0  0  0  0
  -24.4196  -20.3466   19.8736 C   0  0  0  0  0  0  0  0  0  0  0  0
  -23.3591  -22.0369   21.3633 C   0  0  0  0  0  0  0  0  0  0  0  0
  -30.4037  -21.6361   20.8890 C   0  0  0  0  0  0  0  0  0  0  0  0
  -27.9808  -23.8766   19.0377 C   0  0  0  0  0  0  0  0  0  1  0  0
  -26.0254  -18.7430   22.5193 C   0  0  0  0  0  0  0  0  0  0  0  0
  -24.5810  -18.4719   22.0817 C   0  0  0  0  0  0  0  0  0  0  0  0
  -26.8869  -17.4836   22.4985 C   0  0  0  0  0  0  0  0  0  0  0  0
  -23.6841  -19.7015   22.1638 C   0  0  0  0  0  0  0  0  0  0  0  0
  -21.1067  -23.5119   15.9964 C   0  0  1  0  0  0  0  0  0  0  0  0
  -21.8035  -24.1081   12.3182 C   0  0  2  0  0  0  0  0  0  0  0  0
  -20.1724  -22.3555   16.4512 C   0  0  0  0  0  0  0  0  0  0  0  0
  -25.8891  -11.5669   20.3830 N   0  0  0  0  0  0  0  0  0  0  0  0
  -26.2313  -12.8454   20.1499 N   0  0  0  0  0  0  0  0  0  0  0  0
  -21.8661  -25.3479   17.4717 N   0  0  0  0  0  0  0  0  0  0  0  0
  -29.9129  -13.7949   20.5072 N   0  0  0  0  0  0  0  0  0  0  0  0
  -25.3775  -15.0547   20.1246 N   0  0  0  0  0  0  0  0  0  0  0  0
  -21.8052  -12.5710   21.3352 N   0  0  0  0  0  0  0  0  0  0  0  0
  -29.8826  -15.9757   21.4048 N   0  0  0  0  0  0  0  0  0  0  0  0
  -20.9780  -26.8765   20.6609 N   0  0  0  0  0  0  0  0  0  0  0  0
  -29.3150  -22.2056   20.1292 N   0  0  0  0  0  0  0  0  0  0  0  0
  -21.0325  -23.8148   14.5712 N   0  0  0  0  0  0  0  0  0  0  0  0
  -28.2439  -17.7356   22.9369 N   0  0  3  0  0  0  0  0  0  0  0  0
  -22.9509  -24.8059   11.6720 N   0  3  0  0  0  0  0  0  0  0  0  0
  -24.2053  -20.7880   21.3015 N   0  3  0  0  0  0  0  0  0  0  0  0
  -22.5269  -14.7016   20.8901 O   0  0  0  0  0  0  0  0  0  0  0  0
  -21.4217  -24.7177   19.9090 O   0  0  0  0  0  0  0  0  0  0  0  0
  -19.6987  -25.3185   16.6128 O   0  0  0  0  0  0  0  0  0  0  0  0
  -30.0256  -24.4191   20.1934 O   0  0  0  0  0  0  0  0  0  0  0  0
  -23.2772  -23.4519   14.1168 O   0  0  0  0  0  0  0  0  0  0  0  0
  -31.7635  -15.1668   20.3141 O   0  0  0  0  0  0  0  0  0  0  0  0
  -21.7082   -7.0389   21.9851 O   0  0  0  0  0  0  0  0  0  0  0  0
  -27.8952  -25.2766   18.7748 O   0  0  0  0  0  0  0  0  0  1  0  0
  -18.4267   -7.2190   26.4127 F   0  0  0  0  0  0  0  0  0  0  0  0
  -22.0956   -5.3119   24.1088 F   0  0  0  0  0  0  0  0  0  0  0  0
  -32.2646  -19.8934   19.1519 Cl  0  0  0  0  0  0  0  0  0  0  0  0
  1  2  1  0  0  0  0
  1  5  2  0  0  0  0
  2  6  2  0  0  0  0
  3  8  2  0  0  0  0
  3 17  1  0  0  0  0
  4  9  1  0  0  0  0
  4 17  2  0  0  0  0
  5 19  1  0  0  0  0
  6 21  1  0  0  0  0
  7 10  2  0  0  0  0
  7 20  1  0  0  0  0
  8 26  1  0  0  0  0
  9 26  2  0  0  0  0
 10 27  1  0  0  0  0
 11 12  2  0  0  0  0
 11 28  1  0  0  0  0
 12 29  1  0  0  0  0
 13 22  1  0  0  0  0
 13 27  2  0  0  0  0
 14 23  1  0  0  0  0
 14 24  2  0  0  0  0
 15 25  2  0  0  0  0
 15 31  1  0  0  0  0
 16 29  2  0  0  0  0
 16 30  1  0  0  0  0
 17 32  1  0  0  0  0
 18 32  1  0  0  0  0
 18 33  2  0  0  0  0
 18 34  1  0  0  0  0
 19 21  2  0  0  0  0
 19 40  1  0  0  0  0
 20 22  2  0  0  0  0
 20 41  1  0  0  0  0
 21 49  1  0  0  0  0
 22 42  1  0  0  0  0
 23 31  2  0  0  0  0
 23 60  1  0  0  0  0
 24 25  1  0  0  0  0
 24 79  1  0  0  0  0
 25 75  1  0  0  0  0
 26 88  1  0  0  0  0
 27 89  1  0  0  0  0
 28 30  2  0  0  0  0
 28 88  1  0  0  0  0
 29 90  1  0  0  0  0
 30 91  1  0  0  0  0
 31 92  1  0  0  0  0
 32 69  2  0  0  0  0
 33 70  1  0  0  0  0
 33 73  1  0  0  0  0
 34 74  1  0  0  0  0
 34 82  2  0  0  0  0
 35 50  1  0  0  0  0
 35 76  1  0  0  0  0
 35 83  2  0  0  0  0
 36 66  1  0  0  0  0
 36 71  1  0  0  0  0
 36 84  2  0  0  0  0
 37 61  1  0  0  0  0
 37 77  1  0  0  0  0
 37 85  2  0  0  0  0
 38 67  1  0  0  0  0
 38 78  1  0  0  0  0
 38 86  2  0  0  0  0
 39 72  1  0  0  0  0
 39 75  1  0  0  0  0
 39 87  2  0  0  0  0
 40 43  1  0  0  0  0
 41 50  1  0  0  0  0
 42 71  1  0  0  0  0
 43 45  1  0  0  0  0
 44 46  1  0  0  0  0
 44 47  1  0  0  0  0
 45 49  1  0  0  0  0
 46 51  1  0  0  0  0
 47 72  1  0  0  0  0
 48 51  1  0  0  0  0
 48 72  1  0  0  0  0
 49 76  1  0  0  0  0
 50 71  1  0  0  0  0
 51 70  1  0  0  0  0
 52 67  1  0  0  0  0
 53 68  1  0  0  0  0
 54 68  1  0  0  0  0
 55 68  1  0  0  0  0
 56 79  1  0  0  0  0
 57 80  1  0  0  0  0
 58 81  1  0  0  0  0
 59 81  1  0  0  0  0
 60 77  1  0  0  0  0
 61 89  1  0  0  0  0
 62 63  1  0  0  0  0
 62 64  1  0  0  0  0
 63 65  1  0  0  0  0
 64 79  1  0  0  0  0
 65 81  1  0  0  0  0
 66 68  1  0  0  0  0
 66 78  1  0  0  0  0
 67 80  1  0  0  0  0
 69 70  1  0  0  0  0
M  CHG  2  80   1  81   1
M  ISO  4  39 100  61 101  75 100  89 101
M  END
> <Batch ID>
0012

> <Smiles>
CNC(C)C(=O)NC(C(=O)N1Cc2cc([101O:1][101CH2:1]C(=O)NCc3cc(N(C)CCCCN(C)C)c([100NH:0][100C:0](=O)N4CCCC(n5nc(-c6ccc(Oc7ccc(F)cc7F)cc6)c(C(N)=O)c5N)C4)cc3Cl)ccc2CC1C(=O)NC1CCCc2ccccc21)C(C)(C)C

> <Shape>
0.288

> <Color>
0.199

> <Negative vol penalty>
0.000

$$$$

  -OEChem-04052315473D

 75 82  0     1  0  0  0  0  0999 V2000
  -32.6757  -26.9307   24.1935 C   0  0  0  0  0  0  0  0  0  0  0  0
  -33.2702  -25.6961   23.9527 C   0  0  0  0  0  0  0  0  0  0  0  0
  -23.1714   -9.8811   19.9137 C   0  0  0  0  0  0  0  0  0  0  0  0
  -23.5557  -10.0089   22.2955 C   0  0  0  0  0  0  0  0  0  0  0  0
  -31.2939  -27.0727   24.0744 C   0  0  0  0  0  0  0  0  0  0  0  0
  -32.4830  -24.6026   23.5938 C   0  0  0  0  0  0  0  0  0  0  0  0
  -34.0021  -20.0717   19.7637 C   0  0  0  0  0  0  0  0  0  0  0  0
  -22.3855   -8.7442   20.1014 C   0  0  0  0  0  0  0  0  0  0  0  0
  -22.7697   -8.8720   22.4833 C   0  0  0  0  0  0  0  0  0  0  0  0
  -34.4800  -18.7802   19.9813 C   0  0  0  0  0  0  0  0  0  0  0  0
  -21.1601   -5.7946   23.5550 C   0  0  0  0  0  0  0  0  0  0  0  0
  -21.6407   -4.8094   24.4175 C   0  0  0  0  0  0  0  0  0  0  0  0
  -32.2307  -17.9255   19.8106 C   0  0  0  0  0  0  0  0  0  0  0  0
  -23.5927   -4.5381   23.0199 C   0  0  0  0  0  0  0  0  0  0  0  0
  -23.7566  -10.5135   21.0107 C   0  0  0  0  0  0  0  0  0  0  0  0
  -24.1389  -13.0281   20.8149 C   0  0  0  0  0  0  0  0  0  0  0  0
  -30.4903  -25.9827   23.7044 C   0  0  0  0  0  0  0  0  0  0  0  0
  -32.6312  -20.3016   19.5785 C   0  0  0  0  0  0  0  0  0  0  0  0
  -31.0889  -24.7299   23.4710 C   0  0  0  0  0  0  0  0  0  0  0  0
  -31.7382  -19.2206   19.5883 C   0  0  0  0  0  0  0  0  0  0  0  0
  -22.1846   -8.2396   21.3862 C   0  0  0  0  0  0  0  0  0  0  0  0
  -33.5940  -17.7072   20.0076 C   0  0  0  0  0  0  0  0  0  0  0  0
  -21.8957   -6.1515   22.4248 C   0  0  0  0  0  0  0  0  0  0  0  0
  -22.8571   -4.1812   24.1500 C   0  0  0  0  0  0  0  0  0  0  0  0
  -23.1120   -5.5233   22.1573 C   0  0  0  0  0  0  0  0  0  0  0  0
  -24.5690  -11.6876   20.8173 C   0  0  0  0  0  0  0  0  0  0  0  0
  -25.2825  -13.7553   20.5922 C   0  0  0  0  0  0  0  0  0  0  0  0
  -22.8231  -13.5676   20.9979 C   0  0  0  0  0  0  0  0  0  0  0  0
  -30.4033  -21.9519   21.1331 C   0  0  0  0  0  0  0  0  0  0  0  0
  -28.5643  -21.1105   18.5969 C   0  0  0  0  0  0  0  0  0  0  0  0
  -27.9950  -18.9426   16.0234 C   0  0  0  0  0  0  0  0  0  0  0  0
  -30.8946  -12.8120   21.6977 C   0  0  0  0  0  0  0  0  0  0  0  0
  -28.9959  -26.1732   23.6345 C   0  0  0  0  0  0  0  0  0  0  0  0
  -32.1347  -21.6974   19.3183 C   0  0  0  0  0  0  0  0  0  0  0  0
  -30.2595  -19.4115   19.3746 C   0  0  0  0  0  0  0  0  0  0  0  0
  -28.2739  -25.0566   22.8848 C   0  0  0  0  0  0  0  0  0  0  0  0
  -29.5634  -13.4701   18.4935 C   0  0  0  0  0  0  0  0  0  0  0  0
  -28.7751  -23.6921   23.3473 C   0  0  0  0  0  0  0  0  0  0  0  0
  -28.0758  -13.2078   18.7242 C   0  0  0  0  0  0  0  0  0  0  0  0
  -30.4457  -12.4569   19.2251 C   0  0  0  0  0  0  0  0  0  0  0  0
  -28.6659  -12.0818   20.9026 C   0  0  0  0  0  0  0  0  0  0  0  0
  -30.2714  -23.5261   23.0554 C   0  0  1  0  0  0  0  0  0  0  0  0
  -30.6576  -21.8785   19.6540 C   0  0  1  0  0  0  0  0  0  0  0  0
  -27.7589  -13.1219   20.2273 C   0  0  2  0  0  0  0  0  0  0  0  0
  -26.3932  -18.4922   14.1448 C   0  0  0  0  0  0  0  0  0  0  0  0
  -26.5394  -20.0021   20.5923 C   0  0  0  0  0  0  0  0  0  0  0  0
  -25.4680  -18.7534   18.7052 C   0  0  0  0  0  0  0  0  0  0  0  0
  -25.5353  -21.2467   18.6695 C   0  0  0  0  0  0  0  0  0  0  0  0
  -32.9464  -11.7573   20.6572 C   0  0  0  0  0  0  0  0  0  0  0  0
  -30.1157  -19.2623   13.9840 C   0  0  0  0  0  0  0  0  0  0  0  0
  -34.0098  -14.5134   21.6426 C   0  0  0  0  0  0  0  0  0  0  0  0
  -33.1585  -13.4978   22.3926 C   0  0  0  0  0  0  0  0  0  0  0  0
  -33.1773  -15.5314   20.8726 C   0  0  0  0  0  0  0  0  0  1  0  0
  -27.6645  -19.9435   18.2691 C   0  0  1  0  0  0  0  0  0  0  0  0
  -27.6858  -19.1798   14.5562 C   0  0  2  0  0  0  0  0  0  0  0  0
  -26.3294  -19.9827   19.0650 C   0  0  0  0  0  0  0  0  0  0  0  0
  -25.8833  -11.5675   20.6121 N   0  0  0  0  0  0  0  0  0  0  0  0
  -26.2889  -12.8418   20.4787 N   0  0  0  0  0  0  0  0  0  0  0  0
  -29.8221  -20.7959   19.1303 N   0  0  0  0  0  0  0  0  0  0  0  0
  -30.0786  -12.3718   20.6452 N   0  0  0  0  0  0  0  0  0  0  0  0
  -25.5154  -15.0806   20.4843 N   0  0  0  0  0  0  0  0  0  0  0  0
  -21.7612  -12.6794   21.2161 N   0  0  0  0  0  0  0  0  0  0  0  0
  -30.4832  -23.2289   21.6549 N   0  0  0  0  0  0  0  0  0  0  0  0
  -27.4967  -19.9518   16.8199 N   0  0  0  0  0  0  0  0  0  0  0  0
  -32.2827  -12.7457   21.5051 N   0  0  0  0  0  0  0  0  0  0  0  0
  -28.7893  -18.6552   13.7029 N   0  3  0  0  0  0  0  0  0  0  0  0
  -22.5933  -14.7999   20.9523 O   0  0  0  0  0  0  0  0  0  0  0  0
  -30.1517  -20.9261   21.7545 O   0  0  0  0  0  0  0  0  0  0  0  0
  -28.1685  -22.2586   18.3806 O   0  0  0  0  0  0  0  0  0  0  0  0
  -28.6131  -17.9585   16.4232 O   0  0  0  0  0  0  0  0  0  0  0  0
  -30.4107  -13.2342   22.7559 O   0  0  0  0  0  0  0  0  0  0  0  0
  -21.4176   -7.1304   21.5699 O   0  0  0  0  0  0  0  0  0  0  0  0
  -34.0578  -16.4457   20.2205 O   0  0  0  0  0  0  0  0  0  1  0  0
  -23.3193   -3.2362   24.9792 F   0  0  0  0  0  0  0  0  0  0  0  0
  -23.8238   -5.8629   21.0738 F   0  0  0  0  0  0  0  0  0  0  0  0
  1  2  1  0  0  0  0
  1  5  2  0  0  0  0
  2  6  2  0  0  0  0
  3  8  2  0  0  0  0
  3 15  1  0  0  0  0
  4  9  1  0  0  0  0
  4 15  2  0  0  0  0
  5 17  1  0  0  0  0
  6 19  1  0  0  0  0
  7 10  2  0  0  0  0
  7 18  1  0  0  0  0
  8 21  1  0  0  0  0
  9 21  2  0  0  0  0
 10 22  1  0  0  0  0
 11 12  2  0  0  0  0
 11 23  1  0  0  0  0
 12 24  1  0  0  0  0
 13 20  1  0  0  0  0
 13 22  2  0  0  0  0
 14 24  2  0  0  0  0
 14 25  1  0  0  0  0
 15 26  1  0  0  0  0
 16 26  1  0  0  0  0
 16 27  2  0  0  0  0
 16 28  1  0  0  0  0
 17 19  2  0  0  0  0
 17 33  1  0  0  0  0
 18 20  2  0  0  0  0
 18 34  1  0  0  0  0
 19 42  1  0  0  0  0
 20 35  1  0  0  0  0
 21 72  1  0  0  0  0
 22 73  1  0  0  0  0
 23 25  2  0  0  0  0
 23 72  1  0  0  0  0
 24 74  1  0  0  0  0
 25 75  1  0  0  0  0
 26 57  2  0  0  0  0
 27 58  1  0  0  0  0
 27 61  1  0  0  0  0
 28 62  1  0  0  0  0
 28 67  2  0  0  0  0
 29 43  1  0  0  0  0
 29 63  1  0  0  0  0
 29 68  2  0  0  0  0
 30 54  1  0  0  0  0
 30 59  1  0  0  0  0
 30 69  2  0  0  0  0
 31 55  1  0  0  0  0
 31 64  1  0  0  0  0
 31 70  2  0  0  0  0
 32 60  1  0  0  0  0
 32 65  1  0  0  0  0
 32 71  2  0  0  0  0
 33 36  1  0  0  0  0
 34 43  1  0  0  0  0
 35 59  1  0  0  0  0
 36 38  1  0  0  0  0
 37 39  1  0  0  0  0
 37 40  1  0  0  0  0
 38 42  1  0  0  0  0
 39 44  1  0  0  0  0
 40 60  1  0  0  0  0
 41 44  1  0  0  0  0
 41 60  1  0  0  0  0
 42 63  1  0  0  0  0
 43 59  1  0  0  0  0
 44 58  1  0  0  0  0
 45 55  1  0  0  0  0
 46 56  1  0  0  0  0
 47 56  1  0  0  0  0
 48 56  1  0  0  0  0
 49 65  1  0  0  0  0
 50 66  1  0  0  0  0
 51 52  1  0  0  0  0
 51 53  1  0  0  0  0
 52 65  1  0  0  0  0
 53 73  1  0  0  0  0
 54 56  1  0  0  0  0
 54 64  1  0  0  0  0
 55 66  1  0  0  0  0
 57 58  1  0  0  0  0
M  CHG  1  66   1
M  ISO  4  32 100  53 101  65 100  73 101
M  END
> <Batch ID>
0012

> <Smiles>
CNC(C)C(=O)NC(C(=O)N1Cc2cc([101O:1][101CH2:1]CC[100N:0](C)[100C:0](=O)N3CCCC(n4nc(-c5ccc(Oc6ccc(F)cc6F)cc5)c(C(N)=O)c4N)C3)ccc2CC1C(=O)NC1CCCc2ccccc21)C(C)(C)C

> <Shape>
0.188

> <Color>
0.204

> <Negative vol penalty>
0.000

$$$$

  -OEChem-04052315473D

 88 96  0     1  0  0  0  0  0999 V2000
  -25.0156  -26.3654   26.9962 C   0  0  0  0  0  0  0  0  0  0  0  0
  -25.6801  -25.1536   27.1554 C   0  0  0  0  0  0  0  0  0  0  0  0
  -23.0008   -9.8941   19.9824 C   0  0  0  0  0  0  0  0  0  0  0  0
  -23.7312   -9.9441   22.2848 C   0  0  0  0  0  0  0  0  0  0  0  0
  -23.7242  -26.5221   27.4978 C   0  0  0  0  0  0  0  0  0  0  0  0
  -25.0539  -24.0980   27.8173 C   0  0  0  0  0  0  0  0  0  0  0  0
  -25.6323  -19.6796   25.4114 C   0  0  0  0  0  0  0  0  0  0  0  0
  -22.2363   -8.7585   20.2495 C   0  0  0  0  0  0  0  0  0  0  0  0
  -22.9666   -8.8084   22.5520 C   0  0  0  0  0  0  0  0  0  0  0  0
  -26.8588  -19.0324   25.5547 C   0  0  0  0  0  0  0  0  0  0  0  0
  -23.2138   -5.4702   22.0767 C   0  0  0  0  0  0  0  0  0  0  0  0
  -23.8043   -4.4531   22.8267 C   0  0  0  0  0  0  0  0  0  0  0  0
  -25.8901  -17.5779   27.2176 C   0  0  0  0  0  0  0  0  0  0  0  0
  -22.0839   -4.6925   24.5060 C   0  0  0  0  0  0  0  0  0  0  0  0
  -23.7483  -10.4869   21.0000 C   0  0  0  0  0  0  0  0  0  0  0  0
  -24.1302  -13.0031   20.8252 C   0  0  0  0  0  0  0  0  0  0  0  0
  -23.0782  -25.4649   28.1578 C   0  0  0  0  0  0  0  0  0  0  0  0
  -24.5264  -19.2873   26.1793 C   0  0  0  0  0  0  0  0  0  0  0  0
  -23.7532  -24.2412   28.3294 C   0  0  0  0  0  0  0  0  0  0  0  0
  -24.6500  -18.2201   27.0803 C   0  0  0  0  0  0  0  0  0  0  0  0
  -22.2191   -8.2156   21.5343 C   0  0  0  0  0  0  0  0  0  0  0  0
  -26.9886  -17.9832   26.4600 C   0  0  0  0  0  0  0  0  0  0  0  0
  -22.0584   -6.0985   22.5414 C   0  0  0  0  0  0  0  0  0  0  0  0
  -23.2393   -4.0642   24.0413 C   0  0  0  0  0  0  0  0  0  0  0  0
  -21.4935   -5.7097   23.7560 C   0  0  0  0  0  0  0  0  0  0  0  0
  -24.5388  -11.6597   20.7246 C   0  0  0  0  0  0  0  0  0  0  0  0
  -25.2383  -13.7273   20.4589 C   0  0  0  0  0  0  0  0  0  0  0  0
  -22.8625  -13.5476   21.2151 C   0  0  0  0  0  0  0  0  0  0  0  0
  -22.6892  -20.7028   28.3530 C   0  0  0  0  0  0  0  0  0  0  0  0
  -20.9830  -17.9527   28.1339 C   0  0  0  0  0  0  0  0  0  0  0  0
  -31.5908  -16.6352   23.1719 C   0  0  0  0  0  0  0  0  0  0  0  0
  -20.9274  -14.6326   27.3459 C   0  0  0  0  0  0  0  0  0  0  0  0
  -30.7341  -14.6683   20.6958 C   0  0  0  0  0  0  0  0  0  0  0  0
  -21.6999  -25.6969   28.7244 C   0  0  0  0  0  0  0  0  0  0  0  0
  -23.2033  -19.9782   25.9936 C   0  0  0  0  0  0  0  0  0  0  0  0
  -23.4879  -17.7472   27.9136 C   0  0  0  0  0  0  0  0  0  0  0  0
  -20.9644  -24.4085   29.0841 C   0  0  0  0  0  0  0  0  0  0  0  0
  -27.2487  -12.7158   24.5345 C   0  0  0  0  0  0  0  0  0  0  0  0
  -26.8534  -12.2556   25.9411 C   0  0  0  0  0  0  0  0  0  0  0  0
  -29.5910  -12.2452   18.3509 C   0  0  0  0  0  0  0  0  0  0  0  0
  -21.8814  -23.4695   29.8613 C   0  0  0  0  0  0  0  0  0  0  0  0
  -28.1438  -11.9834   18.7716 C   0  0  0  0  0  0  0  0  0  0  0  0
  -28.1935  -13.8995   24.7246 C   0  0  0  0  0  0  0  0  0  0  0  0
  -27.5688  -13.1925   26.9103 C   0  0  0  0  0  0  0  0  0  0  0  0
  -30.4959  -12.4807   19.5583 C   0  0  0  0  0  0  0  0  0  0  0  0
  -28.5878  -13.2728   20.9021 C   0  0  0  0  0  0  0  0  0  0  0  0
  -23.0979  -23.0648   29.0199 C   0  0  1  0  0  0  0  0  0  0  0  0
  -22.2790  -19.8328   27.1986 C   0  0  1  0  0  0  0  0  0  0  0  0
  -27.6263  -13.0850   19.7161 C   0  0  2  0  0  0  0  0  0  0  0  0
  -28.7666  -13.6744   26.1121 C   0  0  0  0  0  0  0  0  0  0  0  0
  -19.3988  -12.6428   27.3059 C   0  0  0  0  0  0  0  0  0  0  0  0
  -33.1091  -16.9721   25.8194 C   0  0  0  0  0  0  0  0  0  0  0  0
  -21.2301  -17.7049   31.1650 C   0  0  0  0  0  0  0  0  0  0  0  0
  -20.5506  -15.3045   30.9543 C   0  0  0  0  0  0  0  0  0  0  0  0
  -18.9801  -17.1099   30.2496 C   0  0  0  0  0  0  0  0  0  0  0  0
  -31.7276  -19.1319   23.4493 C   0  0  0  0  0  0  0  0  0  0  0  0
  -21.2291  -14.3139   24.4191 C   0  0  0  0  0  0  0  0  0  0  0  0
  -29.7568  -14.7282   28.1018 C   0  0  0  0  0  0  0  0  0  0  0  0
  -30.8169  -16.8464   21.8826 C   0  0  0  0  0  0  0  0  0  0  0  0
  -30.3631  -15.5225   25.8210 C   0  0  0  0  0  0  0  0  0  0  0  0
  -29.2648  -17.8127   25.7923 C   0  0  0  0  0  0  0  0  0  1  0  0
  -21.0157  -16.6156   28.8340 C   0  0  1  0  0  0  0  0  0  0  0  0
  -19.9610  -13.8114   26.5115 C   0  0  2  0  0  0  0  0  0  0  0  0
  -30.5546  -17.0240   26.0911 C   0  0  2  0  0  0  0  0  0  0  0  0
  -31.8064  -17.6705   25.4323 C   0  0  2  0  0  0  0  0  0  0  0  0
  -20.4667  -16.6937   30.2866 C   0  0  0  0  0  0  0  0  0  0  0  0
  -25.8073  -11.5350   20.3254 N   0  0  0  0  0  0  0  0  0  0  0  0
  -26.2054  -12.8094   20.1720 N   0  0  0  0  0  0  0  0  0  0  0  0
  -22.2167  -18.4587   27.7006 N   0  0  0  0  0  0  0  0  0  0  0  0
  -29.9497  -13.5381   20.4125 N   0  0  0  0  0  0  0  0  0  0  0  0
  -25.4699  -15.0534   20.3574 N   0  0  0  0  0  0  0  0  0  0  0  0
  -21.8325  -12.6620   21.5602 N   0  0  0  0  0  0  0  0  0  0  0  0
  -22.7300  -22.0514   28.0544 N   0  0  0  0  0  0  0  0  0  0  0  0
  -20.2944  -15.6856   27.9718 N   0  0  0  0  0  0  0  0  0  0  0  0
  -30.1384  -15.6257   21.5078 N   0  0  0  0  0  0  0  0  0  0  0  0
  -31.7049  -17.7728   23.9970 N   0  0  0  0  0  0  0  0  0  0  0  0
  -20.6483  -13.2718   25.3043 N   0  3  0  0  0  0  0  0  0  0  0  0
  -29.3107  -14.9242   26.6719 N   0  3  1  0  0  0  0  0  0  0  0  0
  -22.6443  -14.7827   21.2404 O   0  0  0  0  0  0  0  0  0  0  0  0
  -22.9480  -20.1887   29.4349 O   0  0  0  0  0  0  0  0  0  0  0  0
  -19.9018  -18.5237   27.9709 O   0  0  0  0  0  0  0  0  0  0  0  0
  -32.0730  -15.5328   23.4454 O   0  0  0  0  0  0  0  0  0  0  0  0
  -22.1234  -14.3644   27.4366 O   0  0  0  0  0  0  0  0  0  0  0  0
  -31.8783  -14.8160   20.2533 O   0  0  0  0  0  0  0  0  0  0  0  0
  -21.4730   -7.1076   21.7954 O   0  0  0  0  0  0  0  0  0  0  0  0
  -28.1848  -17.3502   26.6023 O   0  0  0  0  0  0  0  0  0  1  0  0
  -23.8056   -3.0864   24.7606 F   0  0  0  0  0  0  0  0  0  0  0  0
  -20.3829   -6.3088   24.2071 F   0  0  0  0  0  0  0  0  0  0  0  0
  1  2  1  0  0  0  0
  1  5  2  0  0  0  0
  2  6  2  0  0  0  0
  3  8  2  0  0  0  0
  3 15  1  0  0  0  0
  4  9  1  0  0  0  0
  4 15  2  0  0  0  0
  5 17  1  0  0  0  0
  6 19  1  0  0  0  0
  7 10  2  0  0  0  0
  7 18  1  0  0  0  0
  8 21  1  0  0  0  0
  9 21  2  0  0  0  0
 10 22  1  0  0  0  0
 11 12  2  0  0  0  0
 11 23  1  0  0  0  0
 12 24  1  0  0  0  0
 13 20  1  0  0  0  0
 13 22  2  0  0  0  0
 14 24  2  0  0  0  0
 14 25  1  0  0  0  0
 15 26  1  0  0  0  0
 16 26  1  0  0  0  0
 16 27  2  0  0  0  0
 16 28  1  0  0  0  0
 17 19  2  0  0  0  0
 17 34  1  0  0  0  0
 18 20  2  0  0  0  0
 18 35  1  0  0  0  0
 19 47  1  0  0  0  0
 20 36  1  0  0  0  0
 21 85  1  0  0  0  0
 22 86  1  0  0  0  0
 23 25  2  0  0  0  0
 23 85  1  0  0  0  0
 24 87  1  0  0  0  0
 25 88  1  0  0  0  0
 26 67  2  0  0  0  0
 27 68  1  0  0  0  0
 27 71  1  0  0  0  0
 28 72  1  0  0  0  0
 28 79  2  0  0  0  0
 29 48  1  0  0  0  0
 29 73  1  0  0  0  0
 29 80  2  0  0  0  0
 30 62  1  0  0  0  0
 30 69  1  0  0  0  0
 30 81  2  0  0  0  0
 31 59  1  0  0  0  0
 31 76  1  0  0  0  0
 31 82  2  0  0  0  0
 32 63  1  0  0  0  0
 32 74  1  0  0  0  0
 32 83  2  0  0  0  0
 33 70  1  0  0  0  0
 33 75  1  0  0  0  0
 33 84  2  0  0  0  0
 34 37  1  0  0  0  0
 35 48  1  0  0  0  0
 36 69  1  0  0  0  0
 37 41  1  0  0  0  0
 38 39  1  0  0  0  0
 38 43  1  0  0  0  0
 39 44  1  0  0  0  0
 40 42  1  0  0  0  0
 40 45  1  0  0  0  0
 41 47  1  0  0  0  0
 42 49  1  0  0  0  0
 43 50  1  0  0  0  0
 44 50  1  0  0  0  0
 45 70  1  0  0  0  0
 46 49  1  0  0  0  0
 46 70  1  0  0  0  0
 47 73  1  0  0  0  0
 48 69  1  0  0  0  0
 49 68  1  0  0  0  0
 50 78  1  0  0  0  0
 51 63  1  0  0  0  0
 52 65  1  0  0  0  0
 53 66  1  0  0  0  0
 54 66  1  0  0  0  0
 55 66  1  0  0  0  0
 56 76  1  0  0  0  0
 57 77  1  0  0  0  0
 58 78  1  0  0  0  0
 59 75  1  0  0  0  0
 60 64  1  0  0  0  0
 60 78  1  0  0  0  0
 61 64  1  0  0  0  0
 61 86  1  0  0  0  0
 62 66  1  0  0  0  0
 62 74  1  0  0  0  0
 63 77  1  0  0  0  0
 64 65  1  0  0  0  0
 65 76  1  0  0  0  0
 67 68  1  0  0  0  0
M  CHG  2  77   1  78   1
M  ISO  4  33 100  61 101  75 100  86 101
M  END
> <Batch ID>
0012

> <Smiles>
CNC(C)C(=O)NC(C(=O)N1Cc2cc([101O:1][101CH2:1]C(CN(C)C3CCCC3)C(C)N(C)C(=O)C[100NH:0][100C:0](=O)N3CCCC(n4nc(-c5ccc(Oc6ccc(F)cc6F)cc5)c(C(N)=O)c4N)C3)ccc2CC1C(=O)NC1CCCc2ccccc21)C(C)(C)C

> <Shape>
0.167

> <Color>
0.193

> <Negative vol penalty>
0.000

$$$$
