
  -OEChem-04052315503D

 79 86  0     1  0  0  0  0  0999 V2000
  -18.1677  -23.9946   22.6939 C   0  0  0  0  0  0  0  0  0  0  0  0
  -19.4371  -23.8226   22.1512 C   0  0  0  0  0  0  0  0  0  0  0  0
  -25.2206  -13.0335   21.9479 C   0  0  0  0  0  0  0  0  0  0  0  0
  -25.7884  -13.5130   19.6491 C   0  0  0  0  0  0  0  0  0  0  0  0
  -17.7147  -25.2741   23.0127 C   0  0  0  0  0  0  0  0  0  0  0  0
  -20.2538  -24.9301   21.9260 C   0  0  0  0  0  0  0  0  0  0  0  0
  -26.3514  -25.1733   22.4415 C   0  0  0  0  0  0  0  0  0  0  0  0
  -24.7250  -11.7871   21.5656 C   0  0  0  0  0  0  0  0  0  0  0  0
  -25.2928  -12.2664   19.2667 C   0  0  0  0  0  0  0  0  0  0  0  0
  -27.3764  -25.0910   21.5000 C   0  0  0  0  0  0  0  0  0  0  0  0
  -25.9738   -8.7474   20.7693 C   0  0  0  0  0  0  0  0  0  0  0  0
  -26.3301   -7.6430   21.5431 C   0  0  0  0  0  0  0  0  0  0  0  0
  -27.4706  -27.4994   21.4008 C   0  0  0  0  0  0  0  0  0  0  0  0
  -23.9987   -7.2252   22.0202 C   0  0  0  0  0  0  0  0  0  0  0  0
  -25.7523  -13.8966   20.9896 C   0  0  0  0  0  0  0  0  0  0  0  0
  -27.5811  -15.4931   21.7734 C   0  0  0  0  0  0  0  0  0  0  0  0
  -18.5300  -26.3970   22.8002 C   0  0  0  0  0  0  0  0  0  0  0  0
  -25.8701  -26.4214   22.8623 C   0  0  0  0  0  0  0  0  0  0  0  0
  -19.8108  -26.2259   22.2410 C   0  0  0  0  0  0  0  0  0  0  0  0
  -26.4412  -27.5949   22.3497 C   0  0  0  0  0  0  0  0  0  0  0  0
  -24.7611  -11.4035   20.2250 C   0  0  0  0  0  0  0  0  0  0  0  0
  -27.9342  -26.2541   20.9773 C   0  0  0  0  0  0  0  0  0  0  0  0
  -24.6300   -9.0908   20.6209 C   0  0  0  0  0  0  0  0  0  0  0  0
  -25.3426   -6.8819   22.1686 C   0  0  0  0  0  0  0  0  0  0  0  0
  -23.6425   -8.3297   21.2463 C   0  0  0  0  0  0  0  0  0  0  0  0
  -26.2639  -15.1845   21.3839 C   0  0  0  0  0  0  0  0  0  0  0  0
  -27.5521  -16.8390   22.0460 C   0  0  0  0  0  0  0  0  0  0  0  0
  -28.7282  -14.6396   21.8792 C   0  0  0  0  0  0  0  0  0  0  0  0
  -23.0654  -27.9099   22.7145 C   0  0  0  0  0  0  0  0  0  0  0  0
  -24.5831  -30.1216   24.5387 C   0  0  0  0  0  0  0  0  0  0  0  0
  -27.5285  -31.5307   25.5318 C   0  0  0  0  0  0  0  0  0  0  0  0
  -24.0362  -21.3056   20.1647 C   0  0  0  0  0  0  0  0  0  0  0  0
  -17.9787  -27.7647   23.1166 C   0  0  0  0  0  0  0  0  0  0  0  0
  -24.7822  -26.4934   23.8986 C   0  0  0  0  0  0  0  0  0  0  0  0
  -25.9741  -28.9594   22.7837 C   0  0  0  0  0  0  0  0  0  0  0  0
  -19.0496  -28.8497   23.1955 C   0  0  0  0  0  0  0  0  0  0  0  0
  -24.5969  -20.2956   23.5325 C   0  0  0  0  0  0  0  0  0  0  0  0
  -20.0022  -28.7469   22.0086 C   0  0  0  0  0  0  0  0  0  0  0  0
  -25.2066  -18.8990   23.3989 C   0  0  0  0  0  0  0  0  0  0  0  0
  -23.5309  -20.5501   22.4691 C   0  0  0  0  0  0  0  0  0  0  0  0
  -24.5823  -18.9212   20.9477 C   0  0  0  0  0  0  0  0  0  0  0  0
  -20.7357  -27.4002   22.0050 C   0  0  1  0  0  0  0  0  0  0  0  0
  -24.0184  -27.8137   23.8722 C   0  0  1  0  0  0  0  0  0  0  0  0
  -25.7022  -18.6385   21.9637 C   0  0  2  0  0  0  0  0  0  0  0  0
  -28.4473  -33.3442   27.0029 C   0  0  0  0  0  0  0  0  0  0  0  0
  -31.2087  -25.5509   20.3967 C   0  0  0  0  0  0  0  0  0  0  0  0
  -23.7392  -32.2130   22.4835 C   0  0  0  0  0  0  0  0  0  0  0  0
  -25.4405  -33.7645   23.4668 C   0  0  0  0  0  0  0  0  0  0  0  0
  -23.5412  -32.9511   24.8647 C   0  0  0  0  0  0  0  0  0  0  0  0
  -29.0384  -29.5897   27.1785 C   0  0  0  0  0  0  0  0  0  0  0  0
  -25.9038  -22.7348   17.8164 C   0  0  0  0  0  0  0  0  0  0  0  0
  -27.1516  -21.8582   17.7046 C   0  0  0  0  0  0  0  0  0  0  0  0
  -24.6154  -21.9184   17.8306 C   0  0  0  0  0  0  0  0  0  0  0  0
  -28.4221  -22.6974   17.6516 C   0  0  0  0  0  0  0  0  0  0  0  0
  -29.7205  -24.2638   18.8277 C   0  0  0  0  0  0  0  0  0  0  0  0
  -25.4064  -31.3556   24.2587 C   0  0  1  0  0  0  0  0  0  0  0  0
  -28.0666  -31.8748   26.9088 C   0  0  2  0  0  0  0  0  0  0  0  0
  -29.8001  -25.0447   20.1336 C   0  0  2  0  0  0  0  0  0  1  0  0
  -24.5395  -32.5455   23.7586 C   0  0  0  0  0  0  0  0  0  0  0  0
  -25.4570  -16.2487   21.4060 N   0  0  0  0  0  0  0  0  0  0  0  0
  -26.2692  -17.2391   21.8127 N   0  0  0  0  0  0  0  0  0  0  0  0
  -24.9037  -28.9774   23.7944 N   0  0  0  0  0  0  0  0  0  0  0  0
  -24.0654  -20.2865   21.1310 N   0  0  0  0  0  0  0  0  0  0  0  0
  -28.4991  -17.7074   22.4602 N   0  0  0  0  0  0  0  0  0  0  0  0
  -28.5828  -13.2824   21.5610 N   0  0  0  0  0  0  0  0  0  0  0  0
  -21.8065  -27.4053   22.9786 N   0  0  0  0  0  0  0  0  0  0  0  0
  -26.1544  -31.6331   25.4802 N   0  0  0  0  0  0  0  0  0  0  0  0
  -24.5685  -20.9742   18.9247 N   0  0  0  0  0  0  0  0  0  0  0  0
  -29.2743  -31.0561   27.2125 N   0  3  0  0  0  0  0  0  0  0  0  0
  -29.8451  -15.0644   22.2608 O   0  0  0  0  0  0  0  0  0  0  0  0
  -23.4439  -28.4067   21.6601 O   0  0  0  0  0  0  0  0  0  0  0  0
  -23.6932  -30.1690   25.3916 O   0  0  0  0  0  0  0  0  0  0  0  0
  -28.2547  -31.2072   24.5945 O   0  0  0  0  0  0  0  0  0  0  0  0
  -23.5752  -22.4293   20.3920 O   0  0  0  0  0  0  0  0  0  0  0  0
  -24.2778  -10.1871   19.8516 O   0  0  0  0  0  0  0  0  0  0  0  0
  -28.9343  -26.1766   20.0577 O   0  0  0  0  0  0  0  0  0  1  0  0
  -28.5425  -23.4649   18.8407 O   0  0  0  0  0  0  0  0  0  0  0  0
  -25.6847   -5.8204   22.9105 F   0  0  0  0  0  0  0  0  0  0  0  0
  -22.3498   -8.6540   21.1065 F   0  0  0  0  0  0  0  0  0  0  0  0
  1  2  1  0  0  0  0
  1  5  2  0  0  0  0
  2  6  2  0  0  0  0
  3  8  2  0  0  0  0
  3 15  1  0  0  0  0
  4  9  1  0  0  0  0
  4 15  2  0  0  0  0
  5 17  1  0  0  0  0
  6 19  1  0  0  0  0
  7 10  2  0  0  0  0
  7 18  1  0  0  0  0
  8 21  1  0  0  0  0
  9 21  2  0  0  0  0
 10 22  1  0  0  0  0
 11 12  2  0  0  0  0
 11 23  1  0  0  0  0
 12 24  1  0  0  0  0
 13 20  1  0  0  0  0
 13 22  2  0  0  0  0
 14 24  2  0  0  0  0
 14 25  1  0  0  0  0
 15 26  1  0  0  0  0
 16 26  1  0  0  0  0
 16 27  2  0  0  0  0
 16 28  1  0  0  0  0
 17 19  2  0  0  0  0
 17 33  1  0  0  0  0
 18 20  2  0  0  0  0
 18 34  1  0  0  0  0
 19 42  1  0  0  0  0
 20 35  1  0  0  0  0
 21 75  1  0  0  0  0
 22 76  1  0  0  0  0
 23 25  2  0  0  0  0
 23 75  1  0  0  0  0
 24 78  1  0  0  0  0
 25 79  1  0  0  0  0
 26 60  2  0  0  0  0
 27 61  1  0  0  0  0
 27 64  1  0  0  0  0
 28 65  1  0  0  0  0
 28 70  2  0  0  0  0
 29 43  1  0  0  0  0
 29 66  1  0  0  0  0
 29 71  2  0  0  0  0
 30 56  1  0  0  0  0
 30 62  1  0  0  0  0
 30 72  2  0  0  0  0
 31 57  1  0  0  0  0
 31 67  1  0  0  0  0
 31 73  2  0  0  0  0
 32 63  1  0  0  0  0
 32 68  1  0  0  0  0
 32 74  2  0  0  0  0
 33 36  1  0  0  0  0
 34 43  1  0  0  0  0
 35 62  1  0  0  0  0
 36 38  1  0  0  0  0
 37 39  1  0  0  0  0
 37 40  1  0  0  0  0
 38 42  1  0  0  0  0
 39 44  1  0  0  0  0
 40 63  1  0  0  0  0
 41 44  1  0  0  0  0
 41 63  1  0  0  0  0
 42 66  1  0  0  0  0
 43 62  1  0  0  0  0
 44 61  1  0  0  0  0
 45 57  1  0  0  0  0
 46 58  1  0  0  0  0
 47 59  1  0  0  0  0
 48 59  1  0  0  0  0
 49 59  1  0  0  0  0
 50 69  1  0  0  0  0
 51 52  1  0  0  0  0
 51 53  1  0  0  0  0
 52 54  1  0  0  0  0
 53 68  1  0  0  0  0
 54 77  1  0  0  0  0
 55 58  1  0  0  0  0
 55 77  1  0  0  0  0
 56 59  1  0  0  0  0
 56 67  1  0  0  0  0
 57 69  1  0  0  0  0
 58 76  1  0  0  0  0
 60 61  1  0  0  0  0
M  CHG  1  69   1
M  ISO  4  32 100  58 101  68 100  76 101
M  END
> <Batch ID>
0013

> <Smiles>
CNC(C)C(=O)NC(C(=O)N1Cc2cc([101O:1][101CH:1](C)COCCCC[100NH:0][100C:0](=O)N3CCCC(n4nc(-c5ccc(Oc6ccc(F)cc6F)cc5)c(C(N)=O)c4N)C3)ccc2CC1C(=O)NC1CCCc2ccccc21)C(C)(C)C

> <Shape>
0.232

> <Color>
0.067

> <Negative vol penalty>
0.000

$$$$

  -OEChem-04052315503D

 83 91  0     1  0  0  0  0  0999 V2000
  -21.7528  -27.9706   21.1726 C   0  0  0  0  0  0  0  0  0  0  0  0
  -22.3163  -26.8649   21.8013 C   0  0  0  0  0  0  0  0  0  0  0  0
  -23.0416   -9.8768   20.0597 C   0  0  0  0  0  0  0  0  0  0  0  0
  -23.7518  -10.0259   22.3641 C   0  0  0  0  0  0  0  0  0  0  0  0
  -22.5731  -28.9100   20.5494 C   0  0  0  0  0  0  0  0  0  0  0  0
  -23.7006  -26.6974   21.8062 C   0  0  0  0  0  0  0  0  0  0  0  0
  -27.0990  -24.2657   26.2832 C   0  0  0  0  0  0  0  0  0  0  0  0
  -22.2612   -8.7637   20.3722 C   0  0  0  0  0  0  0  0  0  0  0  0
  -22.9714   -8.9129   22.6766 C   0  0  0  0  0  0  0  0  0  0  0  0
  -27.6363  -22.9924   26.4669 C   0  0  0  0  0  0  0  0  0  0  0  0
  -19.7104   -8.2430   23.2577 C   0  0  0  0  0  0  0  0  0  0  0  0
  -18.9276   -8.3053   24.4105 C   0  0  0  0  0  0  0  0  0  0  0  0
  -29.7296  -23.7480   25.5361 C   0  0  0  0  0  0  0  0  0  0  0  0
  -32.1542  -16.5205   22.3747 C   0  0  0  0  0  0  0  0  0  0  0  0
  -20.0993   -6.3933   25.3095 C   0  0  0  0  0  0  0  0  0  0  0  0
  -23.7869  -10.5079   21.0556 C   0  0  0  0  0  0  0  0  0  0  0  0
  -24.2002  -13.0086   20.7673 C   0  0  0  0  0  0  0  0  0  0  0  0
  -23.9688  -28.7589   20.5549 C   0  0  0  0  0  0  0  0  0  0  0  0
  -27.8708  -25.2886   25.7136 C   0  0  0  0  0  0  0  0  0  0  0  0
  -24.5404  -27.6349   21.1813 C   0  0  0  0  0  0  0  0  0  0  0  0
  -29.2005  -25.0341   25.3487 C   0  0  0  0  0  0  0  0  0  0  0  0
  -32.7818  -17.4335   23.2222 C   0  0  0  0  0  0  0  0  0  0  0  0
  -30.7694  -16.5584   22.2114 C   0  0  0  0  0  0  0  0  0  0  0  0
  -30.6397  -18.4221   23.7433 C   0  0  0  0  0  0  0  0  0  0  0  0
  -22.2261   -8.2817   21.6806 C   0  0  0  0  0  0  0  0  0  0  0  0
  -28.9508  -22.7326   26.0906 C   0  0  0  0  0  0  0  0  0  0  0  0
  -20.6876   -7.2558   23.1308 C   0  0  0  0  0  0  0  0  0  0  0  0
  -19.1220   -7.3805   25.4364 C   0  0  0  0  0  0  0  0  0  0  0  0
  -20.8821   -6.3310   24.1567 C   0  0  0  0  0  0  0  0  0  0  0  0
  -32.0245  -18.3842   23.9066 C   0  0  0  0  0  0  0  0  0  0  0  0
  -30.0122  -17.5091   22.8958 C   0  0  0  0  0  0  0  0  0  0  0  0
  -24.5937  -11.6574   20.7333 C   0  0  0  0  0  0  0  0  0  0  0  0
  -25.3200  -13.7022   20.3782 C   0  0  0  0  0  0  0  0  0  0  0  0
  -22.9356  -13.5853   21.1192 C   0  0  0  0  0  0  0  0  0  0  0  0
  -27.6550  -27.0630   23.0852 C   0  0  0  0  0  0  0  0  0  0  0  0
  -30.2039  -28.5955   24.3800 C   0  0  0  0  0  0  0  0  0  0  0  0
  -32.8868  -28.4859   26.4865 C   0  0  0  0  0  0  0  0  0  0  0  0
  -30.8077  -14.6163   20.6073 C   0  0  0  0  0  0  0  0  0  0  0  0
  -24.8119  -29.7759   19.8272 C   0  0  0  0  0  0  0  0  0  0  0  0
  -27.2849  -26.6638   25.5469 C   0  0  0  0  0  0  0  0  0  0  0  0
  -30.0775  -26.1033   24.7516 C   0  0  0  0  0  0  0  0  0  0  0  0
  -26.2909  -29.7204   20.2009 C   0  0  0  0  0  0  0  0  0  0  0  0
  -29.6790  -12.0709   18.3882 C   0  0  0  0  0  0  0  0  0  0  0  0
  -26.7894  -28.2788   20.1948 C   0  0  0  0  0  0  0  0  0  0  0  0
  -28.2230  -11.8476   18.8033 C   0  0  0  0  0  0  0  0  0  0  0  0
  -30.5739  -12.3603   19.5920 C   0  0  0  0  0  0  0  0  0  0  0  0
  -28.6582  -13.2293   20.8742 C   0  0  0  0  0  0  0  0  0  0  0  0
  -26.0392  -27.4312   21.2293 C   0  0  1  0  0  0  0  0  0  0  0  0
  -27.9989  -27.4925   24.4834 C   0  0  1  0  0  0  0  0  0  0  0  0
  -27.7066  -12.9985   19.6889 C   0  0  2  0  0  0  0  0  0  0  0  0
  -34.2681  -17.3547   23.3649 C   0  0  0  0  0  0  0  0  0  0  0  0
  -34.8062  -29.8794   27.3058 C   0  0  0  0  0  0  0  0  0  0  0  0
  -31.6663  -28.1272   21.7433 C   0  0  0  0  0  0  0  0  0  0  0  0
  -33.8116  -28.6600   22.9188 C   0  0  0  0  0  0  0  0  0  0  0  0
  -32.0229  -30.3902   22.7464 C   0  0  0  0  0  0  0  0  0  0  0  0
  -31.9322  -28.3635   29.2852 C   0  0  0  0  0  0  0  0  0  0  0  0
  -29.3246  -19.1489   25.7353 C   0  0  0  0  0  0  0  0  0  0  0  0
  -28.5756  -20.3867   26.1999 C   0  0  0  0  0  0  0  0  0  1  0  0
  -31.7024  -28.4274   24.3074 C   0  0  1  0  0  0  0  0  0  0  0  0
  -33.3686  -29.4506   27.5550 C   0  0  2  0  0  0  0  0  0  0  0  0
  -32.2839  -28.8803   22.9384 C   0  0  0  0  0  0  0  0  0  0  0  0
  -25.8641  -11.4997   20.3525 N   0  0  0  0  0  0  0  0  0  0  0  0
  -26.2787  -12.7609   20.1435 N   0  0  0  0  0  0  0  0  0  0  0  0
  -29.4570  -27.4300   24.6028 N   0  0  0  0  0  0  0  0  0  0  0  0
  -30.0246  -13.4645   20.3818 N   0  0  0  0  0  0  0  0  0  0  0  0
  -25.5683  -15.0194   20.2172 N   0  0  0  0  0  0  0  0  0  0  0  0
  -21.8921  -12.7286   21.4955 N   0  0  0  0  0  0  0  0  0  0  0  0
  -30.1684  -15.6131   21.3436 N   0  0  0  0  0  0  0  0  0  0  0  0
  -29.8884  -19.3667   24.4228 N   0  0  0  0  0  0  0  0  0  0  0  0
  -26.5437  -27.6944   22.5600 N   0  0  0  0  0  0  0  0  0  0  0  0
  -32.2495  -29.1428   25.4552 N   0  0  0  0  0  0  0  0  0  0  0  0
  -33.2947  -28.8130   28.8999 N   0  3  0  0  0  0  0  0  0  0  0  0
  -22.7319  -14.8226   21.0848 O   0  0  0  0  0  0  0  0  0  0  0  0
  -28.3475  -26.2221   22.5239 O   0  0  0  0  0  0  0  0  0  0  0  0
  -29.7146  -29.7205   24.2512 O   0  0  0  0  0  0  0  0  0  0  0  0
  -33.0618  -27.2715   26.5577 O   0  0  0  0  0  0  0  0  0  0  0  0
  -31.9508  -14.7224   20.1556 O   0  0  0  0  0  0  0  0  0  0  0  0
  -21.4645   -7.1958   21.9860 O   0  0  0  0  0  0  0  0  0  0  0  0
  -29.4775  -21.4904   26.2682 O   0  0  0  0  0  0  0  0  0  1  0  0
  -18.3713   -7.4414   26.5440 F   0  0  0  0  0  0  0  0  0  0  0  0
  -21.8202   -5.3810   24.0410 F   0  0  0  0  0  0  0  0  0  0  0  0
  -32.8157  -19.5152   24.9571 Cl  0  0  0  0  0  0  0  0  0  0  0  0
  -28.2886  -17.5512   22.6887 Cl  0  0  0  0  0  0  0  0  0  0  0  0
  1  2  1  0  0  0  0
  1  5  2  0  0  0  0
  2  6  2  0  0  0  0
  3  8  2  0  0  0  0
  3 16  1  0  0  0  0
  4  9  1  0  0  0  0
  4 16  2  0  0  0  0
  5 18  1  0  0  0  0
  6 20  1  0  0  0  0
  7 10  2  0  0  0  0
  7 19  1  0  0  0  0
  8 25  1  0  0  0  0
  9 25  2  0  0  0  0
 10 26  1  0  0  0  0
 11 12  2  0  0  0  0
 11 27  1  0  0  0  0
 12 28  1  0  0  0  0
 13 21  1  0  0  0  0
 13 26  2  0  0  0  0
 14 22  1  0  0  0  0
 14 23  2  0  0  0  0
 15 28  2  0  0  0  0
 15 29  1  0  0  0  0
 16 32  1  0  0  0  0
 17 32  1  0  0  0  0
 17 33  2  0  0  0  0
 17 34  1  0  0  0  0
 18 20  2  0  0  0  0
 18 39  1  0  0  0  0
 19 21  2  0  0  0  0
 19 40  1  0  0  0  0
 20 48  1  0  0  0  0
 21 41  1  0  0  0  0
 22 30  2  0  0  0  0
 22 51  1  0  0  0  0
 23 31  1  0  0  0  0
 23 68  1  0  0  0  0
 24 30  1  0  0  0  0
 24 31  2  0  0  0  0
 24 69  1  0  0  0  0
 25 78  1  0  0  0  0
 26 79  1  0  0  0  0
 27 29  2  0  0  0  0
 27 78  1  0  0  0  0
 28 80  1  0  0  0  0
 29 81  1  0  0  0  0
 30 82  1  0  0  0  0
 31 83  1  0  0  0  0
 32 62  2  0  0  0  0
 33 63  1  0  0  0  0
 33 66  1  0  0  0  0
 34 67  1  0  0  0  0
 34 73  2  0  0  0  0
 35 49  1  0  0  0  0
 35 70  1  0  0  0  0
 35 74  2  0  0  0  0
 36 59  1  0  0  0  0
 36 64  1  0  0  0  0
 36 75  2  0  0  0  0
 37 60  1  0  0  0  0
 37 71  1  0  0  0  0
 37 76  2  0  0  0  0
 38 65  1  0  0  0  0
 38 68  1  0  0  0  0
 38 77  2  0  0  0  0
 39 42  1  0  0  0  0
 40 49  1  0  0  0  0
 41 64  1  0  0  0  0
 42 44  1  0  0  0  0
 43 45  1  0  0  0  0
 43 46  1  0  0  0  0
 44 48  1  0  0  0  0
 45 50  1  0  0  0  0
 46 65  1  0  0  0  0
 47 50  1  0  0  0  0
 47 65  1  0  0  0  0
 48 70  1  0  0  0  0
 49 64  1  0  0  0  0
 50 63  1  0  0  0  0
 52 60  1  0  0  0  0
 53 61  1  0  0  0  0
 54 61  1  0  0  0  0
 55 61  1  0  0  0  0
 56 72  1  0  0  0  0
 57 58  1  0  0  0  0
 57 69  1  0  0  0  0
 58 79  1  0  0  0  0
 59 61  1  0  0  0  0
 59 71  1  0  0  0  0
 60 72  1  0  0  0  0
 62 63  1  0  0  0  0
M  CHG  1  72   1
M  ISO  4  38 100  58 101  68 100  79 101
M  END
> <Batch ID>
0013

> <Smiles>
CNC(C)C(=O)NC(C(=O)N1Cc2cc([101O:1][101CH2:1]CNc3c(Cl)c(C)cc([100NH:0][100C:0](=O)N4CCCC(n5nc(-c6ccc(Oc7ccc(F)cc7F)cc6)c(C(N)=O)c5N)C4)c3Cl)ccc2CC1C(=O)NC1CCCc2ccccc21)C(C)(C)C

> <Shape>
0.215

> <Color>
0.201

> <Negative vol penalty>
0.000

$$$$

  -OEChem-04052315503D

 81 89  0     1  0  0  0  0  0999 V2000
  -17.0864  -25.0848   20.9732 C   0  0  0  0  0  0  0  0  0  0  0  0
  -18.2130  -25.0194   20.1596 C   0  0  0  0  0  0  0  0  0  0  0  0
  -26.6274  -14.0252   22.0982 C   0  0  0  0  0  0  0  0  0  0  0  0
  -24.5703  -14.2826   20.8575 C   0  0  0  0  0  0  0  0  0  0  0  0
  -17.0641  -25.9550   22.0624 C   0  0  0  0  0  0  0  0  0  0  0  0
  -19.3176  -25.8250   20.4340 C   0  0  0  0  0  0  0  0  0  0  0  0
  -25.2139  -24.3986   19.5950 C   0  0  0  0  0  0  0  0  0  0  0  0
  -26.1523  -12.8300   22.6380 C   0  0  0  0  0  0  0  0  0  0  0  0
  -24.0952  -13.0873   21.3973 C   0  0  0  0  0  0  0  0  0  0  0  0
  -26.1156  -24.6988   18.5749 C   0  0  0  0  0  0  0  0  0  0  0  0
  -22.4857   -9.9201   22.1694 C   0  0  0  0  0  0  0  0  0  0  0  0
  -21.8684   -9.0170   21.3040 C   0  0  0  0  0  0  0  0  0  0  0  0
  -26.9386  -26.5668   19.8605 C   0  0  0  0  0  0  0  0  0  0  0  0
  -23.9013   -8.8705   20.0067 C   0  0  0  0  0  0  0  0  0  0  0  0
  -25.8364  -14.7515   21.2080 C   0  0  0  0  0  0  0  0  0  0  0  0
  -27.0632  -16.1496   19.4621 C   0  0  0  0  0  0  0  0  0  0  0  0
  -18.1727  -26.7646   22.3560 C   0  0  0  0  0  0  0  0  0  0  0  0
  -25.1602  -25.1880   20.7527 C   0  0  0  0  0  0  0  0  0  0  0  0
  -19.3096  -26.7078   21.5273 C   0  0  0  0  0  0  0  0  0  0  0  0
  -26.0371  -26.2729   20.8949 C   0  0  0  0  0  0  0  0  0  0  0  0
  -24.8863  -12.3610   22.2875 C   0  0  0  0  0  0  0  0  0  0  0  0
  -26.9762  -25.7848   18.7063 C   0  0  0  0  0  0  0  0  0  0  0  0
  -23.8108  -10.2985   21.9534 C   0  0  0  0  0  0  0  0  0  0  0  0
  -22.5762   -8.4921   20.2227 C   0  0  0  0  0  0  0  0  0  0  0  0
  -24.5186   -9.7737   20.8721 C   0  0  0  0  0  0  0  0  0  0  0  0
  -26.3263  -15.9866   20.6505 C   0  0  0  0  0  0  0  0  0  0  0  0
  -27.2828  -17.5027   19.3772 C   0  0  0  0  0  0  0  0  0  0  0  0
  -27.5093  -15.1658   18.5193 C   0  0  0  0  0  0  0  0  0  0  0  0
  -22.9432  -27.0031   22.1291 C   0  0  0  0  0  0  0  0  0  0  0  0
  -30.1071  -23.3196   19.1155 C   0  0  0  0  0  0  0  0  0  0  0  0
  -25.1555  -27.2348   24.4901 C   0  0  0  0  0  0  0  0  0  0  0  0
  -28.4370  -27.0670   25.4124 C   0  0  0  0  0  0  0  0  0  0  0  0
  -28.6635  -22.3490   21.6915 C   0  0  0  0  0  0  0  0  0  0  0  0
  -18.0839  -27.7241   23.5163 C   0  0  0  0  0  0  0  0  0  0  0  0
  -24.2002  -24.8349   21.8555 C   0  0  0  0  0  0  0  0  0  0  0  0
  -26.0332  -27.1395   22.1267 C   0  0  0  0  0  0  0  0  0  0  0  0
  -19.4384  -28.2714   23.9591 C   0  0  0  0  0  0  0  0  0  0  0  0
  -32.0126  -21.0914   21.2365 C   0  0  0  0  0  0  0  0  0  0  0  0
  -25.3166  -21.3418   21.9934 C   0  0  0  0  0  0  0  0  0  0  0  0
  -20.2527  -28.7226   22.7508 C   0  0  0  0  0  0  0  0  0  0  0  0
  -32.0638  -22.2400   20.2370 C   0  0  0  0  0  0  0  0  0  0  0  0
  -25.3325  -19.8678   21.5949 C   0  0  0  0  0  0  0  0  0  0  0  0
  -26.5548  -21.6974   22.8063 C   0  0  0  0  0  0  0  0  0  0  0  0
  -30.5457  -20.6944   21.2314 C   0  0  0  0  0  0  0  0  0  0  0  0
  -27.8770  -19.9313   21.6807 C   0  0  0  0  0  0  0  0  0  0  0  0
  -20.5369  -27.5478   21.8071 C   0  0  1  0  0  0  0  0  0  0  0  0
  -23.8776  -26.0146   22.7674 C   0  0  1  0  0  0  0  0  0  0  0  0
  -30.7245  -22.9466   20.4261 C   0  0  2  0  0  0  0  0  0  0  0  0
  -26.6375  -19.5139   20.8630 C   0  0  1  0  0  0  0  0  0  0  0  0
  -29.9402  -27.3412   27.4029 C   0  0  0  0  0  0  0  0  0  0  0  0
  -24.8914  -30.2665   24.2689 C   0  0  0  0  0  0  0  0  0  0  0  0
  -27.0334  -30.4766   25.5478 C   0  0  0  0  0  0  0  0  0  0  0  0
  -25.0490  -29.4011   26.6100 C   0  0  0  0  0  0  0  0  0  0  0  0
  -29.3598  -24.2598   25.2479 C   0  0  0  0  0  0  0  0  0  0  0  0
  -30.1791  -26.2700   17.1226 C   0  0  0  0  0  0  0  0  0  0  0  0
  -30.4072  -24.7645   17.1143 C   0  0  0  0  0  0  0  0  0  0  0  0
  -29.0844  -26.6983   18.0924 C   0  0  0  0  0  0  0  0  0  1  0  0
  -26.3023  -28.1687   24.7928 C   0  0  1  0  0  0  0  0  0  0  0  0
  -29.1232  -26.3654   26.5705 C   0  0  2  0  0  0  0  0  0  0  0  0
  -25.8180  -29.5632   25.2807 C   0  0  0  0  0  0  0  0  0  0  0  0
  -26.0935  -17.1437   21.2757 N   0  0  0  0  0  0  0  0  0  0  0  0
  -26.6875  -18.0467   20.4771 N   0  0  0  0  0  0  0  0  0  0  0  0
  -25.0721  -26.7575   23.1744 N   0  0  0  0  0  0  0  0  0  0  0  0
  -27.7840  -21.3372   22.0981 N   0  0  0  0  0  0  0  0  0  0  0  0
  -29.8372  -21.9598   21.0398 N   0  0  0  0  0  0  0  0  0  0  0  0
  -27.9251  -18.2684   18.4696 N   0  0  0  0  0  0  0  0  0  0  0  0
  -27.1972  -13.8207   18.7592 N   0  0  0  0  0  0  0  0  0  0  0  0
  -21.6051  -26.7246   22.3323 N   0  0  0  0  0  0  0  0  0  0  0  0
  -30.8231  -24.2640   18.4048 N   0  0  0  0  0  0  0  0  0  0  0  0
  -27.1597  -27.4679   25.7426 N   0  0  0  0  0  0  0  0  0  0  0  0
  -30.0353  -25.3010   26.0643 N   0  3  0  0  0  0  0  0  0  0  0  0
  -28.1793  -15.4688   17.5031 O   0  0  0  0  0  0  0  0  0  0  0  0
  -23.4024  -27.9493   21.5000 O   0  0  0  0  0  0  0  0  0  0  0  0
  -29.0576  -22.7900   18.7695 O   0  0  0  0  0  0  0  0  0  0  0  0
  -24.3670  -26.9340   25.3898 O   0  0  0  0  0  0  0  0  0  0  0  0
  -28.9810  -27.2451   24.3248 O   0  0  0  0  0  0  0  0  0  0  0  0
  -28.4228  -23.5418   21.9187 O   0  0  0  0  0  0  0  0  0  0  0  0
  -24.4225  -11.1947   22.8138 O   0  0  0  0  0  0  0  0  0  0  0  0
  -27.8631  -26.0826   17.7048 O   0  0  0  0  0  0  0  0  0  1  0  0
  -21.9837   -7.6237   19.3927 F   0  0  0  0  0  0  0  0  0  0  0  0
  -25.7922  -10.1326   20.6601 F   0  0  0  0  0  0  0  0  0  0  0  0
  1  2  1  0  0  0  0
  1  5  2  0  0  0  0
  2  6  2  0  0  0  0
  3  8  2  0  0  0  0
  3 15  1  0  0  0  0
  4  9  1  0  0  0  0
  4 15  2  0  0  0  0
  5 17  1  0  0  0  0
  6 19  1  0  0  0  0
  7 10  2  0  0  0  0
  7 18  1  0  0  0  0
  8 21  1  0  0  0  0
  9 21  2  0  0  0  0
 10 22  1  0  0  0  0
 11 12  2  0  0  0  0
 11 23  1  0  0  0  0
 12 24  1  0  0  0  0
 13 20  1  0  0  0  0
 13 22  2  0  0  0  0
 14 24  2  0  0  0  0
 14 25  1  0  0  0  0
 15 26  1  0  0  0  0
 16 26  1  0  0  0  0
 16 27  2  0  0  0  0
 16 28  1  0  0  0  0
 17 19  2  0  0  0  0
 17 34  1  0  0  0  0
 18 20  2  0  0  0  0
 18 35  1  0  0  0  0
 19 46  1  0  0  0  0
 20 36  1  0  0  0  0
 21 78  1  0  0  0  0
 22 79  1  0  0  0  0
 23 25  2  0  0  0  0
 23 78  1  0  0  0  0
 24 80  1  0  0  0  0
 25 81  1  0  0  0  0
 26 61  2  0  0  0  0
 27 62  1  0  0  0  0
 27 66  1  0  0  0  0
 28 67  1  0  0  0  0
 28 72  2  0  0  0  0
 29 47  1  0  0  0  0
 29 68  1  0  0  0  0
 29 73  2  0  0  0  0
 30 48  1  0  0  0  0
 30 69  1  0  0  0  0
 30 74  2  0  0  0  0
 31 58  1  0  0  0  0
 31 63  1  0  0  0  0
 31 75  2  0  0  0  0
 32 59  1  0  0  0  0
 32 70  1  0  0  0  0
 32 76  2  0  0  0  0
 33 64  1  0  0  0  0
 33 65  1  0  0  0  0
 33 77  2  0  0  0  0
 34 37  1  0  0  0  0
 35 47  1  0  0  0  0
 36 63  1  0  0  0  0
 37 40  1  0  0  0  0
 38 41  1  0  0  0  0
 38 44  1  0  0  0  0
 39 42  1  0  0  0  0
 39 43  1  0  0  0  0
 40 46  1  0  0  0  0
 41 48  1  0  0  0  0
 42 49  1  0  0  0  0
 43 64  1  0  0  0  0
 44 65  1  0  0  0  0
 45 49  1  0  0  0  0
 45 64  1  0  0  0  0
 46 68  1  0  0  0  0
 47 63  1  0  0  0  0
 48 65  1  0  0  0  0
 49 62  1  0  0  0  0
 50 59  1  0  0  0  0
 51 60  1  0  0  0  0
 52 60  1  0  0  0  0
 53 60  1  0  0  0  0
 54 71  1  0  0  0  0
 55 56  1  0  0  0  0
 55 57  1  0  0  0  0
 56 69  1  0  0  0  0
 57 79  1  0  0  0  0
 58 60  1  0  0  0  0
 58 70  1  0  0  0  0
 59 71  1  0  0  0  0
 61 62  1  0  0  0  0
M  CHG  1  71   1
M  ISO  4  33 100  57 101  65 100  79 101
M  END
> <Batch ID>
0013

> <Smiles>
CNC(C)C(=O)NC(C(=O)N1Cc2cc([101O:1][101CH2:1]CCNC(=O)C3CCC[100N:0]3[100C:0](=O)N3CCCC(n4nc(-c5ccc(Oc6ccc(F)cc6F)cc5)c(C(N)=O)c4N)C3)ccc2CC1C(=O)NC1CCCc2ccccc21)C(C)(C)C

> <Shape>
0.217

> <Color>
0.060

> <Negative vol penalty>
0.000

$$$$

  -OEChem-04052315503D

 90 97  0     1  0  0  0  0  0999 V2000
  -27.0310  -17.5992   19.1003 C   0  0  0  0  0  0  0  0  0  0  0  0
  -26.0851  -18.6109   19.2312 C   0  0  0  0  0  0  0  0  0  0  0  0
  -24.5529  -14.0403   20.2775 C   0  0  0  0  0  0  0  0  0  0  0  0
  -24.8372  -14.2991   22.6627 C   0  0  0  0  0  0  0  0  0  0  0  0
  -28.3073  -17.7660   19.6361 C   0  0  0  0  0  0  0  0  0  0  0  0
  -26.4148  -19.7898   19.8989 C   0  0  0  0  0  0  0  0  0  0  0  0
  -24.4312  -25.4360   18.5980 C   0  0  0  0  0  0  0  0  0  0  0  0
  -25.6284  -13.1527   20.2456 C   0  0  0  0  0  0  0  0  0  0  0  0
  -25.9127  -13.4115   22.6308 C   0  0  0  0  0  0  0  0  0  0  0  0
  -23.4178  -26.2230   19.1434 C   0  0  0  0  0  0  0  0  0  0  0  0
  -28.5276  -11.0955   19.4799 C   0  0  0  0  0  0  0  0  0  0  0  0
  -29.4716  -11.2543   18.4654 C   0  0  0  0  0  0  0  0  0  0  0  0
  -25.0365  -27.3146   20.5603 C   0  0  0  0  0  0  0  0  0  0  0  0
  -29.9500  -13.4852   19.2600 C   0  0  0  0  0  0  0  0  0  0  0  0
  -24.1573  -14.6136   21.4861 C   0  0  0  0  0  0  0  0  0  0  0  0
  -21.6889  -15.2153   21.7159 C   0  0  0  0  0  0  0  0  0  0  0  0
  -28.6558  -18.9515   20.3023 C   0  0  0  0  0  0  0  0  0  0  0  0
  -25.7553  -25.5750   19.0382 C   0  0  0  0  0  0  0  0  0  0  0  0
  -27.6966  -19.9722   20.4453 C   0  0  0  0  0  0  0  0  0  0  0  0
  -26.0652  -26.5299   20.0171 C   0  0  0  0  0  0  0  0  0  0  0  0
  -26.3083  -12.8383   21.4222 C   0  0  0  0  0  0  0  0  0  0  0  0
  -23.7199  -27.1605   20.1267 C   0  0  0  0  0  0  0  0  0  0  0  0
  -28.2947  -12.1316   20.3844 C   0  0  0  0  0  0  0  0  0  0  0  0
  -30.1828  -12.4492   18.3555 C   0  0  0  0  0  0  0  0  0  0  0  0
  -29.0060  -13.3264   20.2744 C   0  0  0  0  0  0  0  0  0  0  0  0
  -23.0467  -15.5310   21.5196 C   0  0  0  0  0  0  0  0  0  0  0  0
  -21.0436  -16.4265   21.6622 C   0  0  0  0  0  0  0  0  0  0  0  0
  -21.0667  -13.9411   21.9279 C   0  0  0  0  0  0  0  0  0  0  0  0
  -27.8579  -23.6636   20.4628 C   0  0  0  0  0  0  0  0  0  0  0  0
  -29.8716  -26.1590   19.9724 C   0  0  0  0  0  0  0  0  0  0  0  0
  -18.4467  -30.0939   25.2512 C   0  0  0  0  0  0  0  0  0  0  0  0
  -19.3830  -29.3889   23.0860 C   0  0  0  0  0  0  0  0  0  0  0  0
  -21.2954  -24.4323   24.1648 C   0  0  0  0  0  0  0  0  0  0  0  0
  -30.2610  -29.5114   19.4662 C   0  0  0  0  0  0  0  0  0  0  0  0
  -22.8825  -21.9175   22.8121 C   0  0  0  0  0  0  0  0  0  0  0  0
  -30.0331  -19.0669   20.9060 C   0  0  0  0  0  0  0  0  0  0  0  0
  -26.8411  -24.7370   18.4208 C   0  0  0  0  0  0  0  0  0  0  0  0
  -27.4741  -26.7323   20.5096 C   0  0  0  0  0  0  0  0  0  0  0  0
  -30.4196  -20.4975   21.2723 C   0  0  0  0  0  0  0  0  0  0  0  0
  -21.4081  -20.7806   19.7088 C   0  0  0  0  0  0  0  0  0  0  0  0
  -29.2794  -21.1846   22.0171 C   0  0  0  0  0  0  0  0  0  0  0  0
  -21.5367  -19.2628   19.8490 C   0  0  0  0  0  0  0  0  0  0  0  0
  -22.6234  -21.4947   20.2928 C   0  0  0  0  0  0  0  0  0  0  0  0
  -23.0438  -19.6366   21.8562 C   0  0  0  0  0  0  0  0  0  0  0  0
  -28.0240  -21.2755   21.1412 C   0  0  1  0  0  0  0  0  0  0  0  0
  -28.0728  -24.6045   19.3112 C   0  0  1  0  0  0  0  0  0  0  0  0
  -21.8357  -18.8579   21.3046 C   0  0  2  0  0  0  0  0  0  0  0  0
  -32.0290  -31.2619   19.1386 C   0  0  0  0  0  0  0  0  0  0  0  0
  -30.5155  -26.0631   22.9534 C   0  0  0  0  0  0  0  0  0  0  0  0
  -31.5013  -28.3549   22.7431 C   0  0  0  0  0  0  0  0  0  0  0  0
  -32.4920  -26.4514   21.4711 C   0  0  0  0  0  0  0  0  0  0  0  0
  -29.2209  -30.2266   16.7894 C   0  0  0  0  0  0  0  0  0  0  0  0
  -18.4051  -29.8349   26.7539 C   0  0  0  0  0  0  0  0  0  0  0  0
  -20.3651  -28.4491   22.3879 C   0  0  0  0  0  0  0  0  0  0  0  0
  -22.6977  -24.2555   23.6227 C   0  0  0  0  0  0  0  0  0  0  0  0
  -17.4901  -30.7952   27.5181 C   0  0  0  0  0  0  0  0  0  0  0  0
  -20.4332  -28.6648   20.8722 C   0  0  0  0  0  0  0  0  0  0  0  0
  -19.2707  -26.8561   25.2349 C   0  0  0  0  0  0  0  0  0  0  0  0
  -20.0515  -25.7217   25.8951 C   0  0  0  0  0  0  0  0  0  0  0  0
  -20.0453  -28.1694   25.1494 C   0  0  0  0  0  0  0  0  0  0  0  0
  -17.4141  -30.4552   29.0014 C   0  0  0  0  0  0  0  0  0  0  0  0
  -21.4103  -27.7258   20.1706 C   0  0  0  0  0  0  0  0  0  1  0  0
  -30.2571  -27.3914   20.7545 C   0  0  1  0  0  0  0  0  0  0  0  0
  -31.0826  -30.2885   18.4535 C   0  0  2  0  0  0  0  0  0  0  0  0
  -31.1645  -27.0603   21.9729 C   0  0  0  0  0  0  0  0  0  0  0  0
  -23.2529  -16.8401   21.3534 N   0  0  0  0  0  0  0  0  0  0  0  0
  -22.0161  -17.3578   21.4452 N   0  0  0  0  0  0  0  0  0  0  0  0
  -28.4998  -25.8846   19.8796 N   0  0  0  0  0  0  0  0  0  0  0  0
  -22.8419  -21.0793   21.6856 N   0  0  0  0  0  0  0  0  0  0  0  0
  -19.7447  -16.7752   21.7800 N   0  0  0  0  0  0  0  0  0  0  0  0
  -21.8772  -12.7979   21.9546 N   0  0  0  0  0  0  0  0  0  0  0  0
  -28.1576  -22.3455   20.1760 N   0  0  0  0  0  0  0  0  0  0  0  0
  -21.2507  -25.3864   25.1772 N   0  0  0  0  0  0  0  0  0  0  0  0
  -30.8571  -28.3124   19.7953 N   0  0  0  0  0  0  0  0  0  0  0  0
  -22.6891  -23.2709   22.5637 N   0  0  0  0  0  0  0  0  0  0  0  0
  -19.2807  -29.2317   24.4907 N   0  0  0  0  0  0  0  0  0  0  0  0
  -16.5494  -31.4501   29.6817 N   0  3  0  0  0  0  0  0  0  0  0  0
  -30.1889  -31.0620   17.5457 N   0  3  0  0  0  0  0  0  0  0  0  0
  -19.8268  -13.8181   22.0725 O   0  0  0  0  0  0  0  0  0  0  0  0
  -27.4517  -24.1014   21.5329 O   0  0  0  0  0  0  0  0  0  0  0  0
  -30.7547  -25.4693   19.4567 O   0  0  0  0  0  0  0  0  0  0  0  0
  -17.7786  -31.0058   24.7566 O   0  0  0  0  0  0  0  0  0  0  0  0
  -18.7828  -30.2488   22.4383 O   0  0  0  0  0  0  0  0  0  0  0  0
  -20.3336  -23.7766   23.7727 O   0  0  0  0  0  0  0  0  0  0  0  0
  -29.1988  -29.9282   19.9228 O   0  0  0  0  0  0  0  0  0  0  0  0
  -23.0719  -21.4907   23.9563 O   0  0  0  0  0  0  0  0  0  0  0  0
  -27.3577  -11.9720   21.3915 O   0  0  0  0  0  0  0  0  0  0  0  0
  -22.7252  -27.9353   20.6652 O   0  0  0  0  0  0  0  0  0  1  0  0
  -31.0905  -12.6010   17.3821 F   0  0  0  0  0  0  0  0  0  0  0  0
  -28.7875  -14.3248   21.1411 F   0  0  0  0  0  0  0  0  0  0  0  0
  1  2  1  0  0  0  0
  1  5  2  0  0  0  0
  2  6  2  0  0  0  0
  3  8  2  0  0  0  0
  3 15  1  0  0  0  0
  4  9  1  0  0  0  0
  4 15  2  0  0  0  0
  5 17  1  0  0  0  0
  6 19  1  0  0  0  0
  7 10  2  0  0  0  0
  7 18  1  0  0  0  0
  8 21  1  0  0  0  0
  9 21  2  0  0  0  0
 10 22  1  0  0  0  0
 11 12  2  0  0  0  0
 11 23  1  0  0  0  0
 12 24  1  0  0  0  0
 13 20  1  0  0  0  0
 13 22  2  0  0  0  0
 14 24  2  0  0  0  0
 14 25  1  0  0  0  0
 15 26  1  0  0  0  0
 16 26  1  0  0  0  0
 16 27  2  0  0  0  0
 16 28  1  0  0  0  0
 17 19  2  0  0  0  0
 17 36  1  0  0  0  0
 18 20  2  0  0  0  0
 18 37  1  0  0  0  0
 19 45  1  0  0  0  0
 20 38  1  0  0  0  0
 21 87  1  0  0  0  0
 22 88  1  0  0  0  0
 23 25  2  0  0  0  0
 23 87  1  0  0  0  0
 24 89  1  0  0  0  0
 25 90  1  0  0  0  0
 26 66  2  0  0  0  0
 27 67  1  0  0  0  0
 27 70  1  0  0  0  0
 28 71  1  0  0  0  0
 28 79  2  0  0  0  0
 29 46  1  0  0  0  0
 29 72  1  0  0  0  0
 29 80  2  0  0  0  0
 30 63  1  0  0  0  0
 30 68  1  0  0  0  0
 30 81  2  0  0  0  0
 31 53  1  0  0  0  0
 31 76  1  0  0  0  0
 31 82  2  0  0  0  0
 32 54  1  0  0  0  0
 32 76  1  0  0  0  0
 32 83  2  0  0  0  0
 33 55  1  0  0  0  0
 33 73  1  0  0  0  0
 33 84  2  0  0  0  0
 34 64  1  0  0  0  0
 34 74  1  0  0  0  0
 34 85  2  0  0  0  0
 35 69  1  0  0  0  0
 35 75  1  0  0  0  0
 35 86  2  0  0  0  0
 36 39  1  0  0  0  0
 37 46  1  0  0  0  0
 38 68  1  0  0  0  0
 39 41  1  0  0  0  0
 40 42  1  0  0  0  0
 40 43  1  0  0  0  0
 41 45  1  0  0  0  0
 42 47  1  0  0  0  0
 43 69  1  0  0  0  0
 44 47  1  0  0  0  0
 44 69  1  0  0  0  0
 45 72  1  0  0  0  0
 46 68  1  0  0  0  0
 47 67  1  0  0  0  0
 48 64  1  0  0  0  0
 49 65  1  0  0  0  0
 50 65  1  0  0  0  0
 51 65  1  0  0  0  0
 52 78  1  0  0  0  0
 53 56  1  0  0  0  0
 54 57  1  0  0  0  0
 55 75  1  0  0  0  0
 56 61  1  0  0  0  0
 57 62  1  0  0  0  0
 58 59  1  0  0  0  0
 58 60  1  0  0  0  0
 59 73  1  0  0  0  0
 60 76  1  0  0  0  0
 61 77  1  0  0  0  0
 62 88  1  0  0  0  0
 63 65  1  0  0  0  0
 63 74  1  0  0  0  0
 64 78  1  0  0  0  0
 66 67  1  0  0  0  0
M  CHG  2  77   1  78   1
M  ISO  4  35 100  62 101  75 100  88 101
M  END
> <Batch ID>
0013

> <Smiles>
CNC(C)C(=O)NC(C(=O)N1Cc2cc([101O:1][101CH2:1]CCC(=O)N(CCCNC(=O)C[100NH:0][100C:0](=O)N3CCCC(n4nc(-c5ccc(Oc6ccc(F)cc6F)cc5)c(C(N)=O)c4N)C3)C(=O)CCCN)ccc2CC1C(=O)NC1CCCc2ccccc21)C(C)(C)C

> <Shape>
0.215

> <Color>
0.052

> <Negative vol penalty>
0.000

$$$$

  -OEChem-04052315503D

 83 91  0     1  0  0  0  0  0999 V2000
  -30.8366  -24.7640   18.2704 C   0  0  0  0  0  0  0  0  0  0  0  0
  -29.4550  -24.6631   18.3982 C   0  0  0  0  0  0  0  0  0  0  0  0
  -26.3035  -12.8957   19.7361 C   0  0  0  0  0  0  0  0  0  0  0  0
  -24.1278  -13.5653   20.5454 C   0  0  0  0  0  0  0  0  0  0  0  0
  -31.5751  -25.4593   19.2270 C   0  0  0  0  0  0  0  0  0  0  0  0
  -28.8111  -25.2566   19.4834 C   0  0  0  0  0  0  0  0  0  0  0  0
  -23.2558  -27.8341   19.5084 C   0  0  0  0  0  0  0  0  0  0  0  0
  -26.3592  -11.8991   20.7103 C   0  0  0  0  0  0  0  0  0  0  0  0
  -24.1835  -12.5686   21.5197 C   0  0  0  0  0  0  0  0  0  0  0  0
  -22.0052  -27.3635   19.9065 C   0  0  0  0  0  0  0  0  0  0  0  0
  -27.0269  -11.6832   24.0167 C   0  0  0  0  0  0  0  0  0  0  0  0
  -28.2174  -11.5404   24.7293 C   0  0  0  0  0  0  0  0  0  0  0  0
  -22.3021  -28.4129   22.0582 C   0  0  0  0  0  0  0  0  0  0  0  0
  -23.6339  -23.0176   20.9699 C   0  0  0  0  0  0  0  0  0  0  0  0
  -21.0641  -22.1328   21.5993 C   0  0  0  0  0  0  0  0  0  0  0  0
  -28.4241   -9.2701   23.9292 C   0  0  0  0  0  0  0  0  0  0  0  0
  -25.1878  -13.7289   19.6536 C   0  0  0  0  0  0  0  0  0  0  0  0
  -24.6100  -14.6461   17.3444 C   0  0  0  0  0  0  0  0  0  0  0  0
  -30.9389  -26.0698   20.3194 C   0  0  0  0  0  0  0  0  0  0  0  0
  -24.0449  -28.5896   20.3875 C   0  0  0  0  0  0  0  0  0  0  0  0
  -29.5419  -25.9596   20.4563 C   0  0  0  0  0  0  0  0  0  0  0  0
  -23.5612  -28.8940   21.6679 C   0  0  0  0  0  0  0  0  0  0  0  0
  -23.1560  -21.8232   20.4308 C   0  0  0  0  0  0  0  0  0  0  0  0
  -25.2993  -11.7355   21.6021 C   0  0  0  0  0  0  0  0  0  0  0  0
  -21.5294  -27.6505   21.1825 C   0  0  0  0  0  0  0  0  0  0  0  0
  -26.5349  -10.6194   23.2604 C   0  0  0  0  0  0  0  0  0  0  0  0
  -21.5421  -23.3272   22.1385 C   0  0  0  0  0  0  0  0  0  0  0  0
  -28.9161  -10.3339   24.6856 C   0  0  0  0  0  0  0  0  0  0  0  0
  -22.8269  -23.7696   21.8238 C   0  0  0  0  0  0  0  0  0  0  0  0
  -21.8711  -21.3808   20.7455 C   0  0  0  0  0  0  0  0  0  0  0  0
  -27.2335   -9.4129   23.2166 C   0  0  0  0  0  0  0  0  0  0  0  0
  -25.1299  -14.7589   18.6478 C   0  0  0  0  0  0  0  0  0  0  0  0
  -24.7881  -15.8921   16.7947 C   0  0  0  0  0  0  0  0  0  0  0  0
  -24.0190  -13.5160   16.6892 C   0  0  0  0  0  0  0  0  0  0  0  0
  -26.9010  -28.2084   21.7295 C   0  0  0  0  0  0  0  0  0  0  0  0
  -26.3757  -31.2299   22.7862 C   0  0  0  0  0  0  0  0  0  0  0  0
  -24.1282  -33.6779   23.5628 C   0  0  0  0  0  0  0  0  0  0  0  0
  -25.2761  -21.3616   19.1508 C   0  0  0  0  0  0  0  0  0  0  0  0
  -31.7845  -26.7705   21.3532 C   0  0  0  0  0  0  0  0  0  0  0  0
  -25.3802  -29.1124   19.9334 C   0  0  0  0  0  0  0  0  0  0  0  0
  -24.3607  -29.7184   22.6424 C   0  0  0  0  0  0  0  0  0  0  0  0
  -30.9847  -27.6894   22.2731 C   0  0  0  0  0  0  0  0  0  0  0  0
  -27.6451  -19.7267   17.0552 C   0  0  0  0  0  0  0  0  0  0  0  0
  -29.7283  -26.9831   22.7722 C   0  0  0  0  0  0  0  0  0  0  0  0
  -27.2180  -18.2578   17.1023 C   0  0  0  0  0  0  0  0  0  0  0  0
  -27.4499  -20.4176   18.4036 C   0  0  0  0  0  0  0  0  0  0  0  0
  -25.6762  -18.8241   19.0230 C   0  0  0  0  0  0  0  0  0  0  0  0
  -28.8045  -26.6108   21.6061 C   0  0  1  0  0  0  0  0  0  0  0  0
  -26.3194  -29.4378   21.0908 C   0  0  1  0  0  0  0  0  0  0  0  0
  -25.7935  -18.1031   17.6702 C   0  0  2  0  0  0  0  0  0  0  0  0
  -23.9972  -36.0262   24.4379 C   0  0  0  0  0  0  0  0  0  0  0  0
  -26.9397  -30.2082   25.6054 C   0  0  0  0  0  0  0  0  0  0  0  0
  -25.8862  -32.2967   26.4980 C   0  0  0  0  0  0  0  0  0  0  0  0
  -27.9377  -32.4418   25.0862 C   0  0  0  0  0  0  0  0  0  0  0  0
  -22.8452  -34.6547   21.0811 C   0  0  0  0  0  0  0  0  0  0  0  0
  -19.1023  -25.8159   23.1459 C   0  0  0  0  0  0  0  0  0  0  0  0
  -20.1334  -26.9185   22.9634 C   0  0  0  0  0  0  0  0  0  1  0  0
  -19.5139  -24.5305   22.4455 C   0  0  0  0  0  0  0  0  0  0  0  0
  -25.7316  -31.8382   24.0086 C   0  0  1  0  0  0  0  0  0  0  0  0
  -24.0762  -35.1504   23.1972 C   0  0  2  0  0  0  0  0  0  0  0  0
  -26.6093  -31.6790   25.2821 C   0  0  0  0  0  0  0  0  0  0  0  0
  -25.6028  -15.9801   18.9104 N   0  0  0  0  0  0  0  0  0  0  0  0
  -25.3809  -16.6461   17.7643 N   0  0  0  0  0  0  0  0  0  0  0  0
  -25.6629  -30.2014   22.1539 N   0  0  0  0  0  0  0  0  0  0  0  0
  -26.0765  -20.2323   18.8771 N   0  0  0  0  0  0  0  0  0  0  0  0
  -24.4938  -16.4054   15.5813 N   0  0  0  0  0  0  0  0  0  0  0  0
  -23.9133  -12.3121   17.3989 N   0  0  0  0  0  0  0  0  0  0  0  0
  -23.9782  -21.0621   19.5634 N   0  0  0  0  0  0  0  0  0  0  0  0
  -28.0764  -27.7742   21.1470 N   0  0  0  0  0  0  0  0  0  0  0  0
  -25.4257  -33.2221   23.6629 N   0  0  0  0  0  0  0  0  0  0  0  0
  -22.8848  -35.4312   22.3470 N   0  3  0  0  0  0  0  0  0  0  0  0
  -23.6120  -13.5676   15.5038 O   0  0  0  0  0  0  0  0  0  0  0  0
  -26.3267  -27.6928   22.6814 O   0  0  0  0  0  0  0  0  0  0  0  0
  -27.4675  -31.6567   22.4023 O   0  0  0  0  0  0  0  0  0  0  0  0
  -23.1189  -33.0008   23.7452 O   0  0  0  0  0  0  0  0  0  0  0  0
  -25.7016  -22.5100   19.0022 O   0  0  0  0  0  0  0  0  0  0  0  0
  -25.3532  -10.7629   22.5528 O   0  0  0  0  0  0  0  0  0  0  0  0
  -20.3094  -27.1919   21.5739 O   0  0  0  0  0  0  0  0  0  1  0  0
  -20.7475  -24.0656   22.9764 O   0  0  0  0  0  0  0  0  0  0  0  0
  -30.0601  -10.1975   25.3687 F   0  0  0  0  0  0  0  0  0  0  0  0
  -23.2910  -24.9163   22.3386 F   0  0  0  0  0  0  0  0  0  0  0  0
  -21.4019  -20.2339   20.2334 F   0  0  0  0  0  0  0  0  0  0  0  0
  -26.7665   -8.3877   22.4908 F   0  0  0  0  0  0  0  0  0  0  0  0
  1  2  1  0  0  0  0
  1  5  2  0  0  0  0
  2  6  2  0  0  0  0
  3  8  2  0  0  0  0
  3 17  1  0  0  0  0
  4  9  1  0  0  0  0
  4 17  2  0  0  0  0
  5 19  1  0  0  0  0
  6 21  1  0  0  0  0
  7 10  2  0  0  0  0
  7 20  1  0  0  0  0
  8 24  1  0  0  0  0
  9 24  2  0  0  0  0
 10 25  1  0  0  0  0
 11 12  2  0  0  0  0
 11 26  1  0  0  0  0
 12 28  1  0  0  0  0
 13 22  1  0  0  0  0
 13 25  2  0  0  0  0
 14 23  2  0  0  0  0
 14 29  1  0  0  0  0
 15 27  1  0  0  0  0
 15 30  2  0  0  0  0
 16 28  2  0  0  0  0
 16 31  1  0  0  0  0
 17 32  1  0  0  0  0
 18 32  1  0  0  0  0
 18 33  2  0  0  0  0
 18 34  1  0  0  0  0
 19 21  2  0  0  0  0
 19 39  1  0  0  0  0
 20 22  2  0  0  0  0
 20 40  1  0  0  0  0
 21 48  1  0  0  0  0
 22 41  1  0  0  0  0
 23 30  1  0  0  0  0
 23 68  1  0  0  0  0
 24 77  1  0  0  0  0
 25 78  1  0  0  0  0
 26 31  2  0  0  0  0
 26 77  1  0  0  0  0
 27 29  2  0  0  0  0
 27 79  1  0  0  0  0
 28 80  1  0  0  0  0
 29 81  1  0  0  0  0
 30 82  1  0  0  0  0
 31 83  1  0  0  0  0
 32 62  2  0  0  0  0
 33 63  1  0  0  0  0
 33 66  1  0  0  0  0
 34 67  1  0  0  0  0
 34 72  2  0  0  0  0
 35 49  1  0  0  0  0
 35 69  1  0  0  0  0
 35 73  2  0  0  0  0
 36 59  1  0  0  0  0
 36 64  1  0  0  0  0
 36 74  2  0  0  0  0
 37 60  1  0  0  0  0
 37 70  1  0  0  0  0
 37 75  2  0  0  0  0
 38 65  1  0  0  0  0
 38 68  1  0  0  0  0
 38 76  2  0  0  0  0
 39 42  1  0  0  0  0
 40 49  1  0  0  0  0
 41 64  1  0  0  0  0
 42 44  1  0  0  0  0
 43 45  1  0  0  0  0
 43 46  1  0  0  0  0
 44 48  1  0  0  0  0
 45 50  1  0  0  0  0
 46 65  1  0  0  0  0
 47 50  1  0  0  0  0
 47 65  1  0  0  0  0
 48 69  1  0  0  0  0
 49 64  1  0  0  0  0
 50 63  1  0  0  0  0
 51 60  1  0  0  0  0
 52 61  1  0  0  0  0
 53 61  1  0  0  0  0
 54 61  1  0  0  0  0
 55 71  1  0  0  0  0
 56 57  1  0  0  0  0
 56 58  1  0  0  0  0
 57 78  1  0  0  0  0
 58 79  1  0  0  0  0
 59 61  1  0  0  0  0
 59 70  1  0  0  0  0
 60 71  1  0  0  0  0
 62 63  1  0  0  0  0
M  CHG  1  71   1
M  ISO  4  38 100  57 101  68 100  78 101
M  END
> <Batch ID>
0013

> <Smiles>
CNC(C)C(=O)NC(C(=O)N1Cc2cc([101O:1][101CH2:1]CCOc3cc(F)c([100NH:0][100C:0](=O)N4CCCC(n5nc(-c6ccc(Oc7ccc(F)cc7F)cc6)c(C(N)=O)c5N)C4)cc3F)ccc2CC1C(=O)NC1CCCc2ccccc21)C(C)(C)C

> <Shape>
0.219

> <Color>
0.063

> <Negative vol penalty>
0.000

$$$$

  -OEChem-04052315503D

 84 92  0     1  0  0  0  0  0999 V2000
  -30.4244  -24.6201   22.6236 C   0  0  0  0  0  0  0  0  0  0  0  0
  -29.3228  -23.9367   23.1283 C   0  0  0  0  0  0  0  0  0  0  0  0
  -24.6504  -30.1000   20.3334 C   0  0  0  0  0  0  0  0  0  0  0  0
  -24.0702  -28.6759   22.1968 C   0  0  0  0  0  0  0  0  0  0  0  0
  -30.8574  -24.3767   21.3208 C   0  0  0  0  0  0  0  0  0  0  0  0
  -28.6528  -23.0102   22.3301 C   0  0  0  0  0  0  0  0  0  0  0  0
  -25.0439  -16.8378   22.7710 C   0  0  0  0  0  0  0  0  0  0  0  0
  -18.8063  -20.5371   21.3000 C   0  0  0  0  0  0  0  0  0  0  0  0
  -19.1627  -19.2544   20.8836 C   0  0  0  0  0  0  0  0  0  0  0  0
  -24.3825  -31.2266   21.1110 C   0  0  0  0  0  0  0  0  0  0  0  0
  -23.8024  -29.8025   22.9744 C   0  0  0  0  0  0  0  0  0  0  0  0
  -23.8287  -16.2710   22.3892 C   0  0  0  0  0  0  0  0  0  0  0  0
  -24.1984  -34.4826   22.7171 C   0  0  0  0  0  0  0  0  0  0  0  0
  -25.1137  -35.5341   22.6721 C   0  0  0  0  0  0  0  0  0  0  0  0
  -24.7146  -15.8741   20.1808 C   0  0  0  0  0  0  0  0  0  0  0  0
  -26.8464  -34.0608   23.4873 C   0  0  0  0  0  0  0  0  0  0  0  0
  -24.4942  -28.8246   20.8763 C   0  0  0  0  0  0  0  0  0  0  0  0
  -26.0009  -26.9893   19.9440 C   0  0  0  0  0  0  0  0  0  0  0  0
  -30.1982  -23.4397   20.5095 C   0  0  0  0  0  0  0  0  0  0  0  0
  -26.1018  -16.9371   21.8559 C   0  0  0  0  0  0  0  0  0  0  0  0
  -29.0765  -22.7550   21.0148 C   0  0  0  0  0  0  0  0  0  0  0  0
  -25.9430  -16.4403   20.5543 C   0  0  0  0  0  0  0  0  0  0  0  0
  -19.3662  -21.6531   20.6781 C   0  0  0  0  0  0  0  0  0  0  0  0
  -20.6391  -20.2038   19.2234 C   0  0  0  0  0  0  0  0  0  0  0  0
  -20.0792  -19.0878   19.8453 C   0  0  0  0  0  0  0  0  0  0  0  0
  -20.2826  -21.4864   19.6398 C   0  0  0  0  0  0  0  0  0  0  0  0
  -23.9585  -31.0778   22.4315 C   0  0  0  0  0  0  0  0  0  0  0  0
  -23.6629  -15.7917   21.0931 C   0  0  0  0  0  0  0  0  0  0  0  0
  -24.6070  -33.2201   23.1473 C   0  0  0  0  0  0  0  0  0  0  0  0
  -26.4377  -35.3233   23.0572 C   0  0  0  0  0  0  0  0  0  0  0  0
  -25.9310  -33.0093   23.5323 C   0  0  0  0  0  0  0  0  0  0  0  0
  -24.7701  -27.6604   20.0734 C   0  0  0  0  0  0  0  0  0  0  0  0
  -25.7398  -25.9578   19.0755 C   0  0  0  0  0  0  0  0  0  0  0  0
  -27.2668  -27.2729   20.5543 C   0  0  0  0  0  0  0  0  0  0  0  0
  -27.7369  -19.3403   20.5696 C   0  0  0  0  0  0  0  0  0  0  0  0
  -29.5302  -16.9406   19.3253 C   0  0  0  0  0  0  0  0  0  0  0  0
  -19.9566  -16.5747   19.9602 C   0  0  0  0  0  0  0  0  0  0  0  0
  -29.7348  -13.6685   18.3776 C   0  0  0  0  0  0  0  0  0  0  0  0
  -20.7602  -22.9724   17.6624 C   0  0  0  0  0  0  0  0  0  0  0  0
  -30.6741  -23.2449   19.0917 C   0  0  0  0  0  0  0  0  0  0  0  0
  -27.4152  -17.5269   22.2912 C   0  0  0  0  0  0  0  0  0  0  0  0
  -27.0544  -16.5047   19.5398 C   0  0  0  0  0  0  0  0  0  0  0  0
  -30.1377  -21.9739   18.4383 C   0  0  0  0  0  0  0  0  0  0  0  0
  -22.8730  -24.7677   15.4286 C   0  0  0  0  0  0  0  0  0  0  0  0
  -28.6393  -21.8363   18.6887 C   0  0  0  0  0  0  0  0  0  0  0  0
  -23.7155  -25.6478   16.3548 C   0  0  0  0  0  0  0  0  0  0  0  0
  -21.4385  -24.6234   15.9335 C   0  0  0  0  0  0  0  0  0  0  0  0
  -22.1550  -25.0516   18.2513 C   0  0  0  0  0  0  0  0  0  0  0  0
  -28.3386  -21.7243   20.1882 C   0  0  1  0  0  0  0  0  0  0  0  0
  -28.2535  -18.0437   21.1261 C   0  0  1  0  0  0  0  0  0  0  0  0
  -23.6253  -25.1735   17.8186 C   0  0  2  0  0  0  0  0  0  0  0  0
  -18.9638  -23.0140   21.1468 C   0  0  0  0  0  0  0  0  0  0  0  0
  -21.6235  -20.0227   18.1090 C   0  0  0  0  0  0  0  0  0  0  0  0
  -31.3168  -12.0077   17.3597 C   0  0  0  0  0  0  0  0  0  0  0  0
  -29.0714  -18.1899   16.5796 C   0  0  0  0  0  0  0  0  0  0  0  0
  -29.8307  -16.0375   15.5505 C   0  0  0  0  0  0  0  0  0  0  0  0
  -31.3974  -17.3593   16.9723 C   0  0  0  0  0  0  0  0  0  0  0  0
  -29.6545  -11.9441   20.7815 C   0  0  0  0  0  0  0  0  0  0  0  0
  -20.5901  -15.3943   19.2325 C   0  0  0  0  0  0  0  0  0  0  0  0
  -22.1068  -15.3667   19.3457 C   0  0  0  0  0  0  0  0  0  1  0  0
  -29.4841  -16.1163   18.0615 C   0  0  1  0  0  0  0  0  0  0  0  0
  -30.7814  -12.6038   18.6523 C   0  0  2  0  0  0  0  0  0  0  0  0
  -29.9241  -16.9261   16.8093 C   0  0  0  0  0  0  0  0  0  0  0  0
  -23.7994  -27.1023   19.3453 N   0  0  0  0  0  0  0  0  0  0  0  0
  -24.4200  -26.0696   18.7499 N   0  0  0  0  0  0  0  0  0  0  0  0
  -28.3175  -17.0960   20.0116 N   0  0  0  0  0  0  0  0  0  0  0  0
  -21.4314  -24.1667   17.3250 N   0  0  0  0  0  0  0  0  0  0  0  0
  -26.5126  -24.9751   18.5661 N   0  0  0  0  0  0  0  0  0  0  0  0
  -27.3598  -28.3704   21.4211 N   0  0  0  0  0  0  0  0  0  0  0  0
  -20.4268  -17.7773   19.4396 N   0  0  0  0  0  0  0  0  0  0  0  0
  -20.8494  -22.6216   19.0091 N   0  0  0  0  0  0  0  0  0  0  0  0
  -28.6315  -20.3893   20.6641 N   0  0  0  0  0  0  0  0  0  0  0  0
  -30.2913  -14.9287   18.3190 N   0  0  0  0  0  0  0  0  0  0  0  0
  -30.1985  -11.5036   19.4712 N   0  3  0  0  0  0  0  0  0  0  0  0
  -28.2894  -26.5836   20.3248 O   0  0  0  0  0  0  0  0  0  0  0  0
  -26.6107  -19.3853   20.0886 O   0  0  0  0  0  0  0  0  0  0  0  0
  -30.6041  -17.4228   19.6940 O   0  0  0  0  0  0  0  0  0  0  0  0
  -19.1503  -16.4230   20.8719 O   0  0  0  0  0  0  0  0  0  0  0  0
  -28.5433  -13.4079   18.2261 O   0  0  0  0  0  0  0  0  0  0  0  0
  -20.1742  -22.2953   16.8138 O   0  0  0  0  0  0  0  0  0  0  0  0
  -23.6973  -32.1770   23.1906 O   0  0  0  0  0  0  0  0  0  0  0  0
  -22.4776  -15.2386   20.7177 O   0  0  0  0  0  0  0  0  0  1  0  0
  -27.3169  -36.3328   23.0125 F   0  0  0  0  0  0  0  0  0  0  0  0
  -26.3298  -31.7984   23.9453 F   0  0  0  0  0  0  0  0  0  0  0  0
  1  2  1  0  0  0  0
  1  5  2  0  0  0  0
  2  6  2  0  0  0  0
  3 10  2  0  0  0  0
  3 17  1  0  0  0  0
  4 11  1  0  0  0  0
  4 17  2  0  0  0  0
  5 19  1  0  0  0  0
  6 21  1  0  0  0  0
  7 12  2  0  0  0  0
  7 20  1  0  0  0  0
  8  9  2  0  0  0  0
  8 23  1  0  0  0  0
  9 25  1  0  0  0  0
 10 27  1  0  0  0  0
 11 27  2  0  0  0  0
 12 28  1  0  0  0  0
 13 14  2  0  0  0  0
 13 29  1  0  0  0  0
 14 30  1  0  0  0  0
 15 22  1  0  0  0  0
 15 28  2  0  0  0  0
 16 30  2  0  0  0  0
 16 31  1  0  0  0  0
 17 32  1  0  0  0  0
 18 32  1  0  0  0  0
 18 33  2  0  0  0  0
 18 34  1  0  0  0  0
 19 21  2  0  0  0  0
 19 40  1  0  0  0  0
 20 22  2  0  0  0  0
 20 41  1  0  0  0  0
 21 49  1  0  0  0  0
 22 42  1  0  0  0  0
 23 26  2  0  0  0  0
 23 52  1  0  0  0  0
 24 25  2  0  0  0  0
 24 26  1  0  0  0  0
 24 53  1  0  0  0  0
 25 70  1  0  0  0  0
 26 71  1  0  0  0  0
 27 81  1  0  0  0  0
 28 82  1  0  0  0  0
 29 31  2  0  0  0  0
 29 81  1  0  0  0  0
 30 83  1  0  0  0  0
 31 84  1  0  0  0  0
 32 64  2  0  0  0  0
 33 65  1  0  0  0  0
 33 68  1  0  0  0  0
 34 69  1  0  0  0  0
 34 75  2  0  0  0  0
 35 50  1  0  0  0  0
 35 72  1  0  0  0  0
 35 76  2  0  0  0  0
 36 61  1  0  0  0  0
 36 66  1  0  0  0  0
 36 77  2  0  0  0  0
 37 59  1  0  0  0  0
 37 70  1  0  0  0  0
 37 78  2  0  0  0  0
 38 62  1  0  0  0  0
 38 73  1  0  0  0  0
 38 79  2  0  0  0  0
 39 67  1  0  0  0  0
 39 71  1  0  0  0  0
 39 80  2  0  0  0  0
 40 43  1  0  0  0  0
 41 50  1  0  0  0  0
 42 66  1  0  0  0  0
 43 45  1  0  0  0  0
 44 46  1  0  0  0  0
 44 47  1  0  0  0  0
 45 49  1  0  0  0  0
 46 51  1  0  0  0  0
 47 67  1  0  0  0  0
 48 51  1  0  0  0  0
 48 67  1  0  0  0  0
 49 72  1  0  0  0  0
 50 66  1  0  0  0  0
 51 65  1  0  0  0  0
 54 62  1  0  0  0  0
 55 63  1  0  0  0  0
 56 63  1  0  0  0  0
 57 63  1  0  0  0  0
 58 74  1  0  0  0  0
 59 60  1  0  0  0  0
 60 82  1  0  0  0  0
 61 63  1  0  0  0  0
 61 73  1  0  0  0  0
 62 74  1  0  0  0  0
 64 65  1  0  0  0  0
M  CHG  1  74   1
M  ISO  4  39 100  60 101  71 100  82 101
M  END
> <Batch ID>
0013

> <Smiles>
CNC(C)C(=O)NC(C(=O)N1Cc2cc([101O:1][101CH2:1]CC(=O)Nc3ccc(C)c([100NH:0][100C:0](=O)N4CCCC(n5nc(-c6ccc(Oc7ccc(F)cc7F)cc6)c(C(N)=O)c5N)C4)c3C)ccc2CC1C(=O)NC1CCCc2ccccc21)C(C)(C)C

> <Shape>
0.224

> <Color>
0.067

> <Negative vol penalty>
0.000

$$$$

  -OEChem-04052315503D

 84 92  0     1  0  0  0  0  0999 V2000
  -17.4667  -30.9023   24.2051 C   0  0  0  0  0  0  0  0  0  0  0  0
  -18.8354  -31.1516   24.2144 C   0  0  0  0  0  0  0  0  0  0  0  0
  -24.6497  -12.3255   19.6608 C   0  0  0  0  0  0  0  0  0  0  0  0
  -25.4455  -13.1420   21.7909 C   0  0  0  0  0  0  0  0  0  0  0  0
  -16.9824  -29.6967   23.6992 C   0  0  0  0  0  0  0  0  0  0  0  0
  -19.7205  -30.1950   23.7186 C   0  0  0  0  0  0  0  0  0  0  0  0
  -25.9960  -29.6303   20.3103 C   0  0  0  0  0  0  0  0  0  0  0  0
  -25.4453  -11.1882   19.7995 C   0  0  0  0  0  0  0  0  0  0  0  0
  -26.2411  -12.0047   21.9296 C   0  0  0  0  0  0  0  0  0  0  0  0
  -27.2313  -28.9946   20.4265 C   0  0  0  0  0  0  0  0  0  0  0  0
  -28.2077   -9.1452   23.0131 C   0  0  0  0  0  0  0  0  0  0  0  0
  -28.2096   -8.5011   24.2503 C   0  0  0  0  0  0  0  0  0  0  0  0
  -28.5179  -22.8059   23.2351 C   0  0  0  0  0  0  0  0  0  0  0  0
  -27.4087  -22.3838   21.1308 C   0  0  0  0  0  0  0  0  0  0  0  0
  -26.2751  -26.9809   19.5044 C   0  0  0  0  0  0  0  0  0  0  0  0
  -25.8308   -8.1247   24.0580 C   0  0  0  0  0  0  0  0  0  0  0  0
  -24.6499  -13.3024   20.6565 C   0  0  0  0  0  0  0  0  0  0  0  0
  -28.3366  -23.1027   21.8843 C   0  0  0  0  0  0  0  0  0  0  0  0
  -22.4995  -14.6439   20.9466 C   0  0  0  0  0  0  0  0  0  0  0  0
  -17.8614  -28.7288   23.1881 C   0  0  0  0  0  0  0  0  0  0  0  0
  -24.8863  -28.9415   19.7996 C   0  0  0  0  0  0  0  0  0  0  0  0
  -19.2476  -28.9748   23.2066 C   0  0  0  0  0  0  0  0  0  0  0  0
  -25.0274  -27.6110   19.3804 C   0  0  0  0  0  0  0  0  0  0  0  0
  -27.7714  -21.7901   23.8324 C   0  0  0  0  0  0  0  0  0  0  0  0
  -26.8435  -21.0712   23.0788 C   0  0  0  0  0  0  0  0  0  0  0  0
  -26.6621  -21.3680   21.7280 C   0  0  0  0  0  0  0  0  0  0  0  0
  -26.2409  -11.0278   20.9339 C   0  0  0  0  0  0  0  0  0  0  0  0
  -27.3704  -27.6688   20.0262 C   0  0  0  0  0  0  0  0  0  0  0  0
  -27.0173   -9.2791   22.2983 C   0  0  0  0  0  0  0  0  0  0  0  0
  -27.0212   -7.9909   24.7728 C   0  0  0  0  0  0  0  0  0  0  0  0
  -25.8289   -8.7688   22.8207 C   0  0  0  0  0  0  0  0  0  0  0  0
  -23.8287  -14.4777   20.5135 C   0  0  0  0  0  0  0  0  0  0  0  0
  -22.1758  -15.9265   20.5768 C   0  0  0  0  0  0  0  0  0  0  0  0
  -29.1331  -24.1826   21.2469 C   0  0  0  0  0  0  0  0  0  0  0  0
  -21.6349  -13.7215   21.6227 C   0  0  0  0  0  0  0  0  0  0  0  0
  -22.0390  -28.1132   20.9442 C   0  0  0  0  0  0  0  0  0  0  0  0
  -21.5363  -27.1208   17.8971 C   0  0  0  0  0  0  0  0  0  0  0  0
  -22.8673  -26.0706   14.9353 C   0  0  0  0  0  0  0  0  0  0  0  0
  -25.4350  -20.8372   19.5929 C   0  0  0  0  0  0  0  0  0  0  0  0
  -17.2942  -27.4212   22.6952 C   0  0  0  0  0  0  0  0  0  0  0  0
  -23.5672  -29.6497   19.6559 C   0  0  0  0  0  0  0  0  0  0  0  0
  -23.8720  -26.8336   18.8067 C   0  0  0  0  0  0  0  0  0  0  0  0
  -18.2723  -26.6153   21.8442 C   0  0  0  0  0  0  0  0  0  0  0  0
  -23.2215  -19.2550   17.2963 C   0  0  0  0  0  0  0  0  0  0  0  0
  -19.6439  -26.5658   22.5098 C   0  0  0  0  0  0  0  0  0  0  0  0
  -23.0002  -17.8676   17.9033 C   0  0  0  0  0  0  0  0  0  0  0  0
  -24.6544  -19.7425   17.5030 C   0  0  0  0  0  0  0  0  0  0  0  0
  -24.9058  -18.3218   19.4999 C   0  0  0  0  0  0  0  0  0  0  0  0
  -20.2377  -27.9722   22.6549 C   0  0  1  0  0  0  0  0  0  0  0  0
  -22.3790  -28.6944   19.6009 C   0  0  1  0  0  0  0  0  0  0  0  0
  -23.4595  -17.8160   19.3736 C   0  0  2  0  0  0  0  0  0  0  0  0
  -27.9851  -21.4923   25.2803 C   0  0  0  0  0  0  0  0  0  0  0  0
  -26.0455  -19.9819   23.7239 C   0  0  0  0  0  0  0  0  0  0  0  0
  -22.2045  -25.2958   12.6423 C   0  0  0  0  0  0  0  0  0  0  0  0
  -20.7566  -24.4028   19.0436 C   0  0  0  0  0  0  0  0  0  0  0  0
  -21.0325  -23.4346   16.7513 C   0  0  0  0  0  0  0  0  0  0  0  0
  -19.3125  -25.1941   17.1614 C   0  0  0  0  0  0  0  0  0  0  0  0
  -24.2773  -28.3267   13.6387 C   0  0  0  0  0  0  0  0  0  0  0  0
  -30.3291  -26.3248   21.6168 C   0  0  0  0  0  0  0  0  0  0  0  0
  -29.4315  -27.4749   21.1967 C   0  0  0  0  0  0  0  0  0  1  0  0
  -21.7587  -25.8327   17.1418 C   0  0  1  0  0  0  0  0  0  0  0  0
  -22.5914  -26.4889   13.5023 C   0  0  2  0  0  0  0  0  0  0  0  0
  -20.7366  -24.7298   17.5371 C   0  0  0  0  0  0  0  0  0  0  0  0
  -24.3158  -15.5675   19.9143 N   0  0  0  0  0  0  0  0  0  0  0  0
  -23.2873  -16.4308   19.9682 N   0  0  0  0  0  0  0  0  0  0  0  0
  -22.6011  -27.5679   18.6921 N   0  0  0  0  0  0  0  0  0  0  0  0
  -25.0183  -19.6692   18.9197 N   0  0  0  0  0  0  0  0  0  0  0  0
  -21.0516  -16.6608   20.7162 N   0  0  0  0  0  0  0  0  0  0  0  0
  -22.1270  -12.4450   21.9273 N   0  0  0  0  0  0  0  0  0  0  0  0
  -25.7236  -20.6517   20.9445 N   0  0  0  0  0  0  0  0  0  0  0  0
  -29.5690  -25.1980   22.0889 N   0  0  0  0  0  0  0  0  0  0  0  0
  -20.7694  -28.4293   21.3889 N   0  0  0  0  0  0  0  0  0  0  0  0
  -21.7429  -26.1821   15.7254 N   0  0  0  0  0  0  0  0  0  0  0  0
  -23.8000  -27.1254   12.9066 N   0  3  0  0  0  0  0  0  0  0  0  0
  -29.3444  -24.1385   20.0378 O   0  0  0  0  0  0  0  0  0  0  0  0
  -20.4552  -14.0147   21.9325 O   0  0  0  0  0  0  0  0  0  0  0  0
  -22.8666  -27.4275   21.5328 O   0  0  0  0  0  0  0  0  0  0  0  0
  -20.4601  -27.7123   17.7802 O   0  0  0  0  0  0  0  0  0  0  0  0
  -23.9692  -25.6803   15.3148 O   0  0  0  0  0  0  0  0  0  0  0  0
  -25.5026  -21.9275   19.0196 O   0  0  0  0  0  0  0  0  0  0  0  0
  -27.0172   -9.9180   21.0697 O   0  0  0  0  0  0  0  0  0  0  0  0
  -28.5749  -27.0458   20.1391 O   0  0  0  0  0  0  0  0  0  1  0  0
  -27.0234   -7.3710   25.9602 F   0  0  0  0  0  0  0  0  0  0  0  0
  -24.6825   -8.8933   22.1381 F   0  0  0  0  0  0  0  0  0  0  0  0
  1  2  1  0  0  0  0
  1  5  2  0  0  0  0
  2  6  2  0  0  0  0
  3  8  2  0  0  0  0
  3 17  1  0  0  0  0
  4  9  1  0  0  0  0
  4 17  2  0  0  0  0
  5 20  1  0  0  0  0
  6 22  1  0  0  0  0
  7 10  2  0  0  0  0
  7 21  1  0  0  0  0
  8 27  1  0  0  0  0
  9 27  2  0  0  0  0
 10 28  1  0  0  0  0
 11 12  2  0  0  0  0
 11 29  1  0  0  0  0
 12 30  1  0  0  0  0
 13 18  1  0  0  0  0
 13 24  2  0  0  0  0
 14 18  2  0  0  0  0
 14 26  1  0  0  0  0
 15 23  1  0  0  0  0
 15 28  2  0  0  0  0
 16 30  2  0  0  0  0
 16 31  1  0  0  0  0
 17 32  1  0  0  0  0
 18 34  1  0  0  0  0
 19 32  1  0  0  0  0
 19 33  2  0  0  0  0
 19 35  1  0  0  0  0
 20 22  2  0  0  0  0
 20 40  1  0  0  0  0
 21 23  2  0  0  0  0
 21 41  1  0  0  0  0
 22 49  1  0  0  0  0
 23 42  1  0  0  0  0
 24 25  1  0  0  0  0
 24 52  1  0  0  0  0
 25 26  2  0  0  0  0
 25 53  1  0  0  0  0
 26 70  1  0  0  0  0
 27 81  1  0  0  0  0
 28 82  1  0  0  0  0
 29 31  2  0  0  0  0
 29 81  1  0  0  0  0
 30 83  1  0  0  0  0
 31 84  1  0  0  0  0
 32 64  2  0  0  0  0
 33 65  1  0  0  0  0
 33 68  1  0  0  0  0
 34 71  1  0  0  0  0
 34 75  2  0  0  0  0
 35 69  1  0  0  0  0
 35 76  2  0  0  0  0
 36 50  1  0  0  0  0
 36 72  1  0  0  0  0
 36 77  2  0  0  0  0
 37 61  1  0  0  0  0
 37 66  1  0  0  0  0
 37 78  2  0  0  0  0
 38 62  1  0  0  0  0
 38 73  1  0  0  0  0
 38 79  2  0  0  0  0
 39 67  1  0  0  0  0
 39 70  1  0  0  0  0
 39 80  2  0  0  0  0
 40 43  1  0  0  0  0
 41 50  1  0  0  0  0
 42 66  1  0  0  0  0
 43 45  1  0  0  0  0
 44 46  1  0  0  0  0
 44 47  1  0  0  0  0
 45 49  1  0  0  0  0
 46 51  1  0  0  0  0
 47 67  1  0  0  0  0
 48 51  1  0  0  0  0
 48 67  1  0  0  0  0
 49 72  1  0  0  0  0
 50 66  1  0  0  0  0
 51 65  1  0  0  0  0
 54 62  1  0  0  0  0
 55 63  1  0  0  0  0
 56 63  1  0  0  0  0
 57 63  1  0  0  0  0
 58 74  1  0  0  0  0
 59 60  1  0  0  0  0
 59 71  1  0  0  0  0
 60 82  1  0  0  0  0
 61 63  1  0  0  0  0
 61 73  1  0  0  0  0
 62 74  1  0  0  0  0
 64 65  1  0  0  0  0
M  CHG  1  74   1
M  ISO  4  39 100  60 101  70 100  82 101
M  END
> <Batch ID>
0013

> <Smiles>
CNC(C)C(=O)NC(C(=O)N1Cc2cc([101O:1][101CH2:1]CNC(=O)c3cc(C)c(C)c([100NH:0][100C:0](=O)N4CCCC(n5nc(-c6ccc(Oc7ccc(F)cc7F)cc6)c(C(N)=O)c5N)C4)c3)ccc2CC1C(=O)NC1CCCc2ccccc21)C(C)(C)C

> <Shape>
0.202

> <Color>
0.100

> <Negative vol penalty>
0.000

$$$$

  -OEChem-04052315503D

 85 93  0     1  0  0  0  0  0999 V2000
  -20.1845  -21.2145   20.2070 C   0  0  0  0  0  0  0  0  0  0  0  0
  -21.5396  -21.3269   19.9127 C   0  0  0  0  0  0  0  0  0  0  0  0
  -27.0977  -13.5936   22.4483 C   0  0  0  0  0  0  0  0  0  0  0  0
  -26.9034  -12.8031   20.1736 C   0  0  0  0  0  0  0  0  0  0  0  0
  -19.4031  -22.3618   20.3372 C   0  0  0  0  0  0  0  0  0  0  0  0
  -22.1137  -22.5868   19.7472 C   0  0  0  0  0  0  0  0  0  0  0  0
  -27.7875  -24.2810   21.3105 C   0  0  0  0  0  0  0  0  0  0  0  0
  -26.4697  -12.4348   22.9047 C   0  0  0  0  0  0  0  0  0  0  0  0
  -26.2754  -11.6442   20.6299 C   0  0  0  0  0  0  0  0  0  0  0  0
  -28.9648  -24.4082   20.5746 C   0  0  0  0  0  0  0  0  0  0  0  0
  -24.2983   -8.6418   21.1649 C   0  0  0  0  0  0  0  0  0  0  0  0
  -23.1607   -8.2095   20.4833 C   0  0  0  0  0  0  0  0  0  0  0  0
  -32.3003  -22.2383   14.8895 C   0  0  0  0  0  0  0  0  0  0  0  0
  -28.5318  -26.7655   20.3008 C   0  0  0  0  0  0  0  0  0  0  0  0
  -22.0575  -10.2956   21.0014 C   0  0  0  0  0  0  0  0  0  0  0  0
  -27.3145  -13.7778   21.0828 C   0  0  0  0  0  0  0  0  0  0  0  0
  -31.5011  -22.7337   15.9198 C   0  0  0  0  0  0  0  0  0  0  0  0
  -29.3432  -15.1765   20.4225 C   0  0  0  0  0  0  0  0  0  0  0  0
  -19.9700  -23.6367   20.1828 C   0  0  0  0  0  0  0  0  0  0  0  0
  -26.9666  -25.3948   21.5383 C   0  0  0  0  0  0  0  0  0  0  0  0
  -21.3389  -23.7523   19.8741 C   0  0  0  0  0  0  0  0  0  0  0  0
  -27.3460  -26.6503   21.0422 C   0  0  0  0  0  0  0  0  0  0  0  0
  -30.0489  -20.8135   15.7164 C   0  0  0  0  0  0  0  0  0  0  0  0
  -26.0586  -11.4601   21.9955 C   0  0  0  0  0  0  0  0  0  0  0  0
  -29.3356  -25.6500   20.0671 C   0  0  0  0  0  0  0  0  0  0  0  0
  -24.3155   -9.9010   21.7648 C   0  0  0  0  0  0  0  0  0  0  0  0
  -22.0403   -9.0364   20.4015 C   0  0  0  0  0  0  0  0  0  0  0  0
  -31.9738  -21.0306   14.2726 C   0  0  0  0  0  0  0  0  0  0  0  0
  -23.1951  -10.7279   21.6830 C   0  0  0  0  0  0  0  0  0  0  0  0
  -30.3754  -22.0213   16.3333 C   0  0  0  0  0  0  0  0  0  0  0  0
  -30.8481  -20.3182   14.6861 C   0  0  0  0  0  0  0  0  0  0  0  0
  -27.9627  -14.9750   20.6107 C   0  0  0  0  0  0  0  0  0  0  0  0
  -29.4424  -16.4676   19.9645 C   0  0  0  0  0  0  0  0  0  0  0  0
  -31.8504  -24.0077   16.5649 C   0  0  0  0  0  0  0  0  0  0  0  0
  -30.4379  -14.2771   20.6421 C   0  0  0  0  0  0  0  0  0  0  0  0
  -31.0788  -25.1062   16.5779 C   0  0  0  0  0  0  0  0  0  0  0  0
  -23.9799  -26.1730   20.7785 C   0  0  0  0  0  0  0  0  0  0  0  0
  -24.5851  -28.7460   22.6588 C   0  0  0  0  0  0  0  0  0  0  0  0
  -26.8934  -30.8460   24.0404 C   0  0  0  0  0  0  0  0  0  0  0  0
  -27.7243  -20.6113   16.6659 C   0  0  0  0  0  0  0  0  0  0  0  0
  -19.0752  -24.8464   20.2861 C   0  0  0  0  0  0  0  0  0  0  0  0
  -25.7136  -25.2462   22.3569 C   0  0  0  0  0  0  0  0  0  0  0  0
  -26.5100  -27.8810   21.2761 C   0  0  0  0  0  0  0  0  0  0  0  0
  -19.8394  -26.1557   20.4657 C   0  0  0  0  0  0  0  0  0  0  0  0
  -25.9850  -20.1577   19.7394 C   0  0  0  0  0  0  0  0  0  0  0  0
  -20.9989  -26.2368   19.4778 C   0  0  0  0  0  0  0  0  0  0  0  0
  -26.4580  -18.7855   20.2246 C   0  0  0  0  0  0  0  0  0  0  0  0
  -25.8297  -20.1995   18.2202 C   0  0  0  0  0  0  0  0  0  0  0  0
  -27.4843  -18.3947   17.9484 C   0  0  0  0  0  0  0  0  0  0  0  0
  -22.0034  -25.1021   19.7119 C   0  0  1  0  0  0  0  0  0  0  0  0
  -24.6916  -26.3471   22.0903 C   0  0  1  0  0  0  0  0  0  0  0  0
  -27.7177  -18.3231   19.4663 C   0  0  2  0  0  0  0  0  0  0  0  0
  -27.0833  -32.8781   25.5005 C   0  0  0  0  0  0  0  0  0  0  0  0
  -23.6996  -30.5020   20.3260 C   0  0  0  0  0  0  0  0  0  0  0  0
  -24.7889  -32.4463   21.4668 C   0  0  0  0  0  0  0  0  0  0  0  0
  -22.8908  -31.2599   22.5678 C   0  0  0  0  0  0  0  0  0  0  0  0
  -28.4593  -29.3782   26.0782 C   0  0  0  0  0  0  0  0  0  0  0  0
  -31.4871  -26.3915   17.2415 C   0  0  0  0  0  0  0  0  0  0  0  0
  -30.5124  -26.7898   18.3432 C   0  0  0  0  0  0  0  0  0  1  0  0
  -25.1475  -30.1283   22.4307 C   0  0  1  0  0  0  0  0  0  0  0  0
  -27.0680  -31.3579   25.4588 C   0  0  2  0  0  0  0  0  0  0  0  0
  -24.1467  -31.0607   21.6916 C   0  0  0  0  0  0  0  0  0  0  0  0
  -27.2370  -16.0518   20.2979 N   0  0  0  0  0  0  0  0  0  0  0  0
  -28.1651  -16.9425   19.9087 N   0  0  0  0  0  0  0  0  0  0  0  0
  -25.2906  -27.6832   22.0771 N   0  0  0  0  0  0  0  0  0  0  0  0
  -27.0630  -19.7525   17.5693 N   0  0  0  0  0  0  0  0  0  0  0  0
  -30.4968  -17.2316   19.6082 N   0  0  0  0  0  0  0  0  0  0  0  0
  -30.1587  -12.9875   21.1148 N   0  0  0  0  0  0  0  0  0  0  0  0
  -28.9038  -20.0911   16.1343 N   0  0  0  0  0  0  0  0  0  0  0  0
  -22.8400  -25.3956   20.8557 N   0  0  0  0  0  0  0  0  0  0  0  0
  -25.5672  -30.6193   23.7388 N   0  0  0  0  0  0  0  0  0  0  0  0
  -28.3483  -30.8591   26.0356 N   0  3  0  0  0  0  0  0  0  0  0  0
  -31.6298  -14.6125   20.4411 O   0  0  0  0  0  0  0  0  0  0  0  0
  -24.4306  -26.7058   19.7712 O   0  0  0  0  0  0  0  0  0  0  0  0
  -23.5616  -28.6135   23.3345 O   0  0  0  0  0  0  0  0  0  0  0  0
  -27.8387  -30.6687   23.2751 O   0  0  0  0  0  0  0  0  0  0  0  0
  -27.2915  -21.7368   16.4055 O   0  0  0  0  0  0  0  0  0  0  0  0
  -25.4459  -10.3291   22.4405 O   0  0  0  0  0  0  0  0  0  0  0  0
  -30.4839  -25.7768   19.3479 O   0  0  0  0  0  0  0  0  0  1  0  0
  -20.9485   -8.6217   19.7456 F   0  0  0  0  0  0  0  0  0  0  0  0
  -32.7411  -20.5547   13.2831 F   0  0  0  0  0  0  0  0  0  0  0  0
  -23.2062  -11.9391   22.2563 F   0  0  0  0  0  0  0  0  0  0  0  0
  -29.6031  -22.4945   17.3239 F   0  0  0  0  0  0  0  0  0  0  0  0
  -30.5433  -19.1590   14.0859 F   0  0  0  0  0  0  0  0  0  0  0  0
  -29.8858  -25.0909   15.9380 F   0  0  0  0  0  0  0  0  0  0  0  0
  1  2  1  0  0  0  0
  1  5  2  0  0  0  0
  2  6  2  0  0  0  0
  3  8  2  0  0  0  0
  3 16  1  0  0  0  0
  4  9  1  0  0  0  0
  4 16  2  0  0  0  0
  5 19  1  0  0  0  0
  6 21  1  0  0  0  0
  7 10  2  0  0  0  0
  7 20  1  0  0  0  0
  8 24  1  0  0  0  0
  9 24  2  0  0  0  0
 10 25  1  0  0  0  0
 11 12  2  0  0  0  0
 11 26  1  0  0  0  0
 12 27  1  0  0  0  0
 13 17  1  0  0  0  0
 13 28  2  0  0  0  0
 14 22  1  0  0  0  0
 14 25  2  0  0  0  0
 15 27  2  0  0  0  0
 15 29  1  0  0  0  0
 16 32  1  0  0  0  0
 17 30  2  0  0  0  0
 17 34  1  0  0  0  0
 18 32  1  0  0  0  0
 18 33  2  0  0  0  0
 18 35  1  0  0  0  0
 19 21  2  0  0  0  0
 19 41  1  0  0  0  0
 20 22  2  0  0  0  0
 20 42  1  0  0  0  0
 21 50  1  0  0  0  0
 22 43  1  0  0  0  0
 23 30  1  0  0  0  0
 23 31  2  0  0  0  0
 23 69  1  0  0  0  0
 24 78  1  0  0  0  0
 25 79  1  0  0  0  0
 26 29  2  0  0  0  0
 26 78  1  0  0  0  0
 27 80  1  0  0  0  0
 28 31  1  0  0  0  0
 28 81  1  0  0  0  0
 29 82  1  0  0  0  0
 30 83  1  0  0  0  0
 31 84  1  0  0  0  0
 32 63  2  0  0  0  0
 33 64  1  0  0  0  0
 33 67  1  0  0  0  0
 34 36  2  0  0  0  0
 35 68  1  0  0  0  0
 35 73  2  0  0  0  0
 36 58  1  0  0  0  0
 36 85  1  0  0  0  0
 37 51  1  0  0  0  0
 37 70  1  0  0  0  0
 37 74  2  0  0  0  0
 38 60  1  0  0  0  0
 38 65  1  0  0  0  0
 38 75  2  0  0  0  0
 39 61  1  0  0  0  0
 39 71  1  0  0  0  0
 39 76  2  0  0  0  0
 40 66  1  0  0  0  0
 40 69  1  0  0  0  0
 40 77  2  0  0  0  0
 41 44  1  0  0  0  0
 42 51  1  0  0  0  0
 43 65  1  0  0  0  0
 44 46  1  0  0  0  0
 45 47  1  0  0  0  0
 45 48  1  0  0  0  0
 46 50  1  0  0  0  0
 47 52  1  0  0  0  0
 48 66  1  0  0  0  0
 49 52  1  0  0  0  0
 49 66  1  0  0  0  0
 50 70  1  0  0  0  0
 51 65  1  0  0  0  0
 52 64  1  0  0  0  0
 53 61  1  0  0  0  0
 54 62  1  0  0  0  0
 55 62  1  0  0  0  0
 56 62  1  0  0  0  0
 57 72  1  0  0  0  0
 58 59  1  0  0  0  0
 59 79  1  0  0  0  0
 60 62  1  0  0  0  0
 60 71  1  0  0  0  0
 61 72  1  0  0  0  0
 63 64  1  0  0  0  0
M  CHG  1  72   1
M  ISO  4  40 100  59 101  69 100  79 101
M  END
> <Batch ID>
0013

> <Smiles>
CNC(C)C(=O)NC(C(=O)N1Cc2cc([101O:1][101CH2:1]CC(F)=Cc3cc(F)c(F)c([100NH:0][100C:0](=O)N4CCCC(n5nc(-c6ccc(Oc7ccc(F)cc7F)cc6)c(C(N)=O)c5N)C4)c3F)ccc2CC1C(=O)NC1CCCc2ccccc21)C(C)(C)C

> <Shape>
0.235

> <Color>
0.085

> <Negative vol penalty>
0.000

$$$$

  -OEChem-04052315503D

 85 93  0     1  0  0  0  0  0999 V2000
  -18.7809  -26.1925   23.0458 C   0  0  0  0  0  0  0  0  0  0  0  0
  -19.5723  -25.4003   22.2203 C   0  0  0  0  0  0  0  0  0  0  0  0
  -22.2351  -10.8666   23.0071 C   0  0  0  0  0  0  0  0  0  0  0  0
  -21.2269  -11.0399   20.8184 C   0  0  0  0  0  0  0  0  0  0  0  0
  -19.0534  -27.5539   23.1735 C   0  0  0  0  0  0  0  0  0  0  0  0
  -20.6360  -25.9693   21.5209 C   0  0  0  0  0  0  0  0  0  0  0  0
  -24.8431  -23.1609   21.7615 C   0  0  0  0  0  0  0  0  0  0  0  0
  -21.5054   -9.7032   23.2511 C   0  0  0  0  0  0  0  0  0  0  0  0
  -20.4972   -9.8765   21.0624 C   0  0  0  0  0  0  0  0  0  0  0  0
  -24.9087  -22.0401   20.9349 C   0  0  0  0  0  0  0  0  0  0  0  0
  -20.1790   -6.4884   24.3099 C   0  0  0  0  0  0  0  0  0  0  0  0
  -20.8526   -5.4078   24.8791 C   0  0  0  0  0  0  0  0  0  0  0  0
  -26.2681  -23.2785   19.3737 C   0  0  0  0  0  0  0  0  0  0  0  0
  -22.3559   -5.3491   22.9886 C   0  0  0  0  0  0  0  0  0  0  0  0
  -22.0959  -11.5350   21.7907 C   0  0  0  0  0  0  0  0  0  0  0  0
  -24.1274  -12.8331   20.9567 C   0  0  0  0  0  0  0  0  0  0  0  0
  -20.1270  -28.1380   22.4828 C   0  0  0  0  0  0  0  0  0  0  0  0
  -25.4816  -24.3542   21.3946 C   0  0  0  0  0  0  0  0  0  0  0  0
  -20.9224  -27.3401   21.6384 C   0  0  0  0  0  0  0  0  0  0  0  0
  -26.2113  -24.4122   20.1986 C   0  0  0  0  0  0  0  0  0  0  0  0
  -20.6365   -9.2081   22.2788 C   0  0  0  0  0  0  0  0  0  0  0  0
  -25.6188  -22.0996   19.7394 C   0  0  0  0  0  0  0  0  0  0  0  0
  -20.5937   -6.9994   23.0799 C   0  0  0  0  0  0  0  0  0  0  0  0
  -21.9411   -4.8381   24.2185 C   0  0  0  0  0  0  0  0  0  0  0  0
  -21.6822   -6.4297   22.4194 C   0  0  0  0  0  0  0  0  0  0  0  0
  -22.8490  -12.7372   21.5383 C   0  0  0  0  0  0  0  0  0  0  0  0
  -24.3962  -14.1799   20.9386 C   0  0  0  0  0  0  0  0  0  0  0  0
  -24.9944  -11.7973   20.4758 C   0  0  0  0  0  0  0  0  0  0  0  0
  -24.5117  -27.3144   20.7616 C   0  0  0  0  0  0  0  0  0  0  0  0
  -27.6971  -27.9111   20.6212 C   0  0  0  0  0  0  0  0  0  0  0  0
  -29.0697  -17.1997   21.6287 C   0  0  0  0  0  0  0  0  0  0  0  0
  -30.8512  -26.7066   20.1238 C   0  0  0  0  0  0  0  0  0  0  0  0
  -24.3330  -18.9987   23.9573 C   0  0  0  0  0  0  0  0  0  0  0  0
  -20.3536  -29.6232   22.6156 C   0  0  0  0  0  0  0  0  0  0  0  0
  -25.4237  -25.5462   22.3101 C   0  0  0  0  0  0  0  0  0  0  0  0
  -26.9314  -25.6633   19.7688 C   0  0  0  0  0  0  0  0  0  0  0  0
  -21.7292  -30.0750   22.1321 C   0  0  0  0  0  0  0  0  0  0  0  0
  -21.4232  -18.1634   21.8190 C   0  0  0  0  0  0  0  0  0  0  0  0
  -27.5649  -19.9092   24.8201 C   0  0  0  0  0  0  0  0  0  0  0  0
  -22.0537  -29.4451   20.7813 C   0  0  0  0  0  0  0  0  0  0  0  0
  -21.6098  -16.6664   21.5777 C   0  0  0  0  0  0  0  0  0  0  0  0
  -28.4122  -19.3668   23.6698 C   0  0  0  0  0  0  0  0  0  0  0  0
  -22.0357  -18.6044   23.1447 C   0  0  0  0  0  0  0  0  0  0  0  0
  -26.4705  -18.9204   25.2051 C   0  0  0  0  0  0  0  0  0  0  0  0
  -23.6584  -16.7387   23.0540 C   0  0  0  0  0  0  0  0  0  0  0  0
  -26.4158  -17.9983   22.9100 C   0  0  0  0  0  0  0  0  0  0  0  0
  -22.1004  -27.9157   20.8827 C   0  0  1  0  0  0  0  0  0  0  0  0
  -25.6824  -26.8660   21.5899 C   0  0  1  0  0  0  0  0  0  0  0  0
  -23.0913  -16.2719   21.7048 C   0  0  1  0  0  0  0  0  0  0  0  0
  -27.5324  -18.9608   22.4847 C   0  0  2  0  0  0  0  0  0  0  0  0
  -29.8694  -16.6894   20.4562 C   0  0  0  0  0  0  0  0  0  0  0  0
  -33.2491  -27.4411   20.0348 C   0  0  0  0  0  0  0  0  0  0  0  0
  -28.4158  -19.2045   17.0408 C   0  0  0  0  0  0  0  0  0  0  0  0
  -27.2221  -29.1190   17.8598 C   0  0  0  0  0  0  0  0  0  0  0  0
  -29.6852  -28.9557   17.4414 C   0  0  0  0  0  0  0  0  0  0  0  0
  -28.8287  -30.3916   19.2928 C   0  0  0  0  0  0  0  0  0  0  0  0
  -31.5957  -24.9445   22.3820 C   0  0  0  0  0  0  0  0  0  0  0  0
  -27.2229  -18.6213   19.2199 C   0  0  0  0  0  0  0  0  0  0  0  0
  -28.3319  -19.0948   20.1573 C   0  0  0  0  0  0  0  0  0  0  0  0
  -26.8564  -20.8575   18.1327 C   0  0  0  0  0  0  0  0  0  1  0  0
  -28.7444  -27.8764   19.5345 C   0  0  1  0  0  0  0  0  0  0  0  0
  -32.1355  -26.8903   20.9120 C   0  0  2  0  0  0  0  0  0  0  0  0
  -27.1406  -19.3705   17.8744 C   0  0  1  0  0  0  0  0  0  0  0  0
  -28.6050  -29.0625   18.5390 C   0  0  0  0  0  0  0  0  0  0  0  0
  -22.3410  -13.9282   21.8661 N   0  0  0  0  0  0  0  0  0  0  0  0
  -23.3052  -14.7852   21.4893 N   0  0  0  0  0  0  0  0  0  0  0  0
  -26.8398  -26.8041   20.6950 N   0  0  0  0  0  0  0  0  0  0  0  0
  -23.4300  -18.1768   23.2624 N   0  0  0  0  0  0  0  0  0  0  0  0
  -25.6602  -18.5522   24.0440 N   0  0  0  0  0  0  0  0  0  0  0  0
  -25.4572  -14.8935   20.5056 N   0  0  0  0  0  0  0  0  0  0  0  0
  -24.5627  -10.4673   20.5702 N   0  0  0  0  0  0  0  0  0  0  0  0
  -23.3456  -27.4867   21.4826 N   0  0  0  0  0  0  0  0  0  0  0  0
  -30.0345  -27.8140   20.2128 N   0  0  0  0  0  0  0  0  0  0  0  0
  -28.3343  -18.3777   21.4364 N   0  0  0  0  0  0  0  0  0  0  0  0
  -32.5854  -25.5881   21.4802 N   0  3  0  0  0  0  0  0  0  0  0  0
  -26.1255  -12.0428   19.9922 O   0  0  0  0  0  0  0  0  0  0  0  0
  -24.6561  -27.4923   19.5578 O   0  0  0  0  0  0  0  0  0  0  0  0
  -27.6462  -28.8814   21.3812 O   0  0  0  0  0  0  0  0  0  0  0  0
  -29.0929  -16.5732   22.6914 O   0  0  0  0  0  0  0  0  0  0  0  0
  -30.5994  -25.6845   19.4894 O   0  0  0  0  0  0  0  0  0  0  0  0
  -23.9739  -20.0676   24.4668 O   0  0  0  0  0  0  0  0  0  0  0  0
  -19.9244   -8.0727   22.5165 O   0  0  0  0  0  0  0  0  0  0  0  0
  -25.6842  -20.9996   18.9246 O   0  0  0  0  0  0  0  0  0  1  0  0
  -22.5888   -3.8014   24.7660 F   0  0  0  0  0  0  0  0  0  0  0  0
  -22.0860   -6.9170   21.2381 F   0  0  0  0  0  0  0  0  0  0  0  0
  1  2  1  0  0  0  0
  1  5  2  0  0  0  0
  2  6  2  0  0  0  0
  3  8  2  0  0  0  0
  3 15  1  0  0  0  0
  4  9  1  0  0  0  0
  4 15  2  0  0  0  0
  5 17  1  0  0  0  0
  6 19  1  0  0  0  0
  7 10  2  0  0  0  0
  7 18  1  0  0  0  0
  8 21  1  0  0  0  0
  9 21  2  0  0  0  0
 10 22  1  0  0  0  0
 11 12  2  0  0  0  0
 11 23  1  0  0  0  0
 12 24  1  0  0  0  0
 13 20  1  0  0  0  0
 13 22  2  0  0  0  0
 14 24  2  0  0  0  0
 14 25  1  0  0  0  0
 15 26  1  0  0  0  0
 16 26  1  0  0  0  0
 16 27  2  0  0  0  0
 16 28  1  0  0  0  0
 17 19  2  0  0  0  0
 17 34  1  0  0  0  0
 18 20  2  0  0  0  0
 18 35  1  0  0  0  0
 19 47  1  0  0  0  0
 20 36  1  0  0  0  0
 21 82  1  0  0  0  0
 22 83  1  0  0  0  0
 23 25  2  0  0  0  0
 23 82  1  0  0  0  0
 24 84  1  0  0  0  0
 25 85  1  0  0  0  0
 26 65  2  0  0  0  0
 27 66  1  0  0  0  0
 27 70  1  0  0  0  0
 28 71  1  0  0  0  0
 28 76  2  0  0  0  0
 29 48  1  0  0  0  0
 29 72  1  0  0  0  0
 29 77  2  0  0  0  0
 30 61  1  0  0  0  0
 30 67  1  0  0  0  0
 30 78  2  0  0  0  0
 31 51  1  0  0  0  0
 31 74  1  0  0  0  0
 31 79  2  0  0  0  0
 32 62  1  0  0  0  0
 32 73  1  0  0  0  0
 32 80  2  0  0  0  0
 33 68  1  0  0  0  0
 33 69  1  0  0  0  0
 33 81  2  0  0  0  0
 34 37  1  0  0  0  0
 35 48  1  0  0  0  0
 36 67  1  0  0  0  0
 37 40  1  0  0  0  0
 38 41  1  0  0  0  0
 38 43  1  0  0  0  0
 39 42  1  0  0  0  0
 39 44  1  0  0  0  0
 40 47  1  0  0  0  0
 41 49  1  0  0  0  0
 42 50  1  0  0  0  0
 43 68  1  0  0  0  0
 44 69  1  0  0  0  0
 45 49  1  0  0  0  0
 45 68  1  0  0  0  0
 46 50  1  0  0  0  0
 46 69  1  0  0  0  0
 47 72  1  0  0  0  0
 48 67  1  0  0  0  0
 49 66  1  0  0  0  0
 50 74  1  0  0  0  0
 52 62  1  0  0  0  0
 53 63  1  0  0  0  0
 54 64  1  0  0  0  0
 55 64  1  0  0  0  0
 56 64  1  0  0  0  0
 57 75  1  0  0  0  0
 58 59  1  0  0  0  0
 58 63  1  0  0  0  0
 59 74  1  0  0  0  0
 60 63  1  0  0  0  0
 60 83  1  0  0  0  0
 61 64  1  0  0  0  0
 61 73  1  0  0  0  0
 62 75  1  0  0  0  0
 65 66  1  0  0  0  0
M  CHG  1  75   1
M  ISO  4  33 100  60 101  69 100  83 101
M  END
> <Batch ID>
0013

> <Smiles>
CNC(C)C(=O)NC(C(=O)N1Cc2cc([101O:1][101CH2:1]C(C)CCN(C(C)=O)C3CCC[100N:0]([100C:0](=O)N4CCCC(n5nc(-c6ccc(Oc7ccc(F)cc7F)cc6)c(C(N)=O)c5N)C4)C3)ccc2CC1C(=O)NC1CCCc2ccccc21)C(C)(C)C

> <Shape>
0.238

> <Color>
0.085

> <Negative vol penalty>
0.000

$$$$

  -OEChem-04052315503D

 88 96  0     1  0  0  0  0  0999 V2000
  -22.5911   -7.6494   20.7123 C   0  0  0  0  0  0  0  0  0  0  0  0
  -21.9442   -8.8137   20.3106 C   0  0  0  0  0  0  0  0  0  0  0  0
  -28.4155  -25.1011   20.9170 C   0  0  0  0  0  0  0  0  0  0  0  0
  -29.7488  -26.6647   19.6463 C   0  0  0  0  0  0  0  0  0  0  0  0
  -23.6825   -7.7225   21.5768 C   0  0  0  0  0  0  0  0  0  0  0  0
  -22.3878  -10.0518   20.7740 C   0  0  0  0  0  0  0  0  0  0  0  0
  -22.3658  -15.3534   17.7083 C   0  0  0  0  0  0  0  0  0  0  0  0
  -28.9647  -24.0436   20.1921 C   0  0  0  0  0  0  0  0  0  0  0  0
  -30.2981  -25.6071   18.9214 C   0  0  0  0  0  0  0  0  0  0  0  0
  -21.4898  -16.4380   17.7164 C   0  0  0  0  0  0  0  0  0  0  0  0
  -31.7846  -23.3498   16.4914 C   0  0  0  0  0  0  0  0  0  0  0  0
  -31.8818  -23.4938   15.1074 C   0  0  0  0  0  0  0  0  0  0  0  0
  -22.9146  -17.5692   19.3006 C   0  0  0  0  0  0  0  0  0  0  0  0
  -19.6738  -28.5436   23.4619 C   0  0  0  0  0  0  0  0  0  0  0  0
  -29.4838  -23.7525   14.9661 C   0  0  0  0  0  0  0  0  0  0  0  0
  -28.8075  -26.4117   20.6441 C   0  0  0  0  0  0  0  0  0  0  0  0
  -28.7299  -28.0602   22.5893 C   0  0  0  0  0  0  0  0  0  0  0  0
  -24.1458   -8.9628   22.0434 C   0  0  0  0  0  0  0  0  0  0  0  0
  -23.5191  -15.3640   18.5059 C   0  0  0  0  0  0  0  0  0  0  0  0
  -23.4857  -10.1415   21.6465 C   0  0  0  0  0  0  0  0  0  0  0  0
  -23.8049  -16.4846   19.2988 C   0  0  0  0  0  0  0  0  0  0  0  0
  -19.0847  -26.4424   21.7240 C   0  0  0  0  0  0  0  0  0  0  0  0
  -20.5550  -28.2253   22.4286 C   0  0  0  0  0  0  0  0  0  0  0  0
  -29.9061  -24.2965   19.1944 C   0  0  0  0  0  0  0  0  0  0  0  0
  -21.7626  -17.5449   18.5148 C   0  0  0  0  0  0  0  0  0  0  0  0
  -30.5371  -23.4071   17.1128 C   0  0  0  0  0  0  0  0  0  0  0  0
  -18.4981  -27.8113   23.6264 C   0  0  0  0  0  0  0  0  0  0  0  0
  -30.7314  -23.6952   14.3448 C   0  0  0  0  0  0  0  0  0  0  0  0
  -29.3867  -23.6085   16.3501 C   0  0  0  0  0  0  0  0  0  0  0  0
  -18.2035  -26.7607   22.7574 C   0  0  0  0  0  0  0  0  0  0  0  0
  -20.2604  -27.1747   21.5596 C   0  0  0  0  0  0  0  0  0  0  0  0
  -28.2401  -27.5046   21.3922 C   0  0  0  0  0  0  0  0  0  0  0  0
  -27.8418  -29.0637   22.8907 C   0  0  0  0  0  0  0  0  0  0  0  0
  -29.8844  -27.7013   23.3601 C   0  0  0  0  0  0  0  0  0  0  0  0
  -24.6019  -13.5854   20.9076 C   0  0  0  0  0  0  0  0  0  0  0  0
  -27.2567  -15.4151   20.5518 C   0  0  0  0  0  0  0  0  0  0  0  0
  -28.6314  -18.3479   19.4765 C   0  0  0  0  0  0  0  0  0  0  0  0
  -22.0322  -29.7339   21.1106 C   0  0  0  0  0  0  0  0  0  0  0  0
  -25.2999   -8.9883   23.0139 C   0  0  0  0  0  0  0  0  0  0  0  0
  -24.4678  -14.1975   18.4655 C   0  0  0  0  0  0  0  0  0  0  0  0
  -25.0401  -16.5540   20.1579 C   0  0  0  0  0  0  0  0  0  0  0  0
  -25.9407  -10.3659   23.1623 C   0  0  0  0  0  0  0  0  0  0  0  0
  -24.8148  -32.1411   20.8414 C   0  0  0  0  0  0  0  0  0  0  0  0
  -24.8689  -11.4373   23.3358 C   0  0  0  0  0  0  0  0  0  0  0  0
  -26.0489  -31.2531   20.9910 C   0  0  0  0  0  0  0  0  0  0  0  0
  -23.6459  -31.3864   20.2152 C   0  0  0  0  0  0  0  0  0  0  0  0
  -24.5240  -29.2402   21.0829 C   0  0  0  0  0  0  0  0  0  0  0  0
  -23.9527  -11.5050   22.1080 C   0  0  1  0  0  0  0  0  0  0  0  0
  -25.3472  -14.0992   19.7083 C   0  0  1  0  0  0  0  0  0  0  0  0
  -25.7056  -29.9600   21.7506 C   0  0  1  0  0  0  0  0  0  0  0  0
  -30.8198  -19.5700   19.3553 C   0  0  0  0  0  0  0  0  0  0  0  0
  -27.0584  -16.0605   23.5274 C   0  0  0  0  0  0  0  0  0  0  0  0
  -28.6318  -17.9704   23.1468 C   0  0  0  0  0  0  0  0  0  0  0  0
  -29.3812  -15.6325   22.7053 C   0  0  0  0  0  0  0  0  0  0  0  0
  -22.5873  -29.2358   23.4798 C   0  0  0  0  0  0  0  0  0  0  0  0
  -28.5456  -18.4455   16.5198 C   0  0  0  0  0  0  0  0  0  0  0  0
  -18.0043  -29.2081   25.4867 C   0  0  0  0  0  0  0  0  0  0  0  0
  -18.7304  -25.3041   20.8131 C   0  0  0  0  0  0  0  0  0  0  0  0
  -20.4827  -21.9916   20.1076 C   0  0  0  0  0  0  0  0  0  0  0  0
  -20.1876  -20.7853   19.2194 C   0  0  0  0  0  0  0  0  0  0  0  0
  -19.3902  -23.0430   19.9820 C   0  0  0  0  0  0  0  0  0  0  0  0
  -21.2502  -19.7054   19.3665 C   0  0  0  0  0  0  0  0  0  1  0  0
  -27.7367  -16.7259   21.1267 C   0  0  1  0  0  0  0  0  0  0  0  0
  -29.8614  -18.6347   18.6344 C   0  0  2  0  0  0  0  0  0  0  0  0
  -28.1777  -16.5955   22.6119 C   0  0  0  0  0  0  0  0  0  0  0  0
  -27.1272  -28.1053   20.9624 N   0  0  0  0  0  0  0  0  0  0  0  0
  -26.9102  -29.0486   21.8947 N   0  0  0  0  0  0  0  0  0  0  0  0
  -25.9336  -15.3859   20.0889 N   0  0  0  0  0  0  0  0  0  0  0  0
  -23.3697  -30.1390   20.9288 N   0  0  0  0  0  0  0  0  0  0  0  0
  -27.7747  -29.9487   23.9079 N   0  0  0  0  0  0  0  0  0  0  0  0
  -30.6885  -26.6464   22.9073 N   0  0  0  0  0  0  0  0  0  0  0  0
  -24.6081  -12.2088   21.0265 N   0  0  0  0  0  0  0  0  0  0  0  0
  -28.7849  -17.2047   20.2320 N   0  0  0  0  0  0  0  0  0  0  0  0
  -21.7610  -29.0070   22.2900 N   0  0  0  0  0  0  0  0  0  0  0  0
  -29.4693  -19.2674   17.3433 N   0  3  0  0  0  0  0  0  0  0  0  0
  -19.7413  -24.2113   20.8249 N   0  3  0  0  0  0  0  0  0  0  0  0
  -30.1846  -28.2876   24.4276 O   0  0  0  0  0  0  0  0  0  0  0  0
  -24.0626  -14.3794   21.6694 O   0  0  0  0  0  0  0  0  0  0  0  0
  -28.0296  -14.4547   20.5082 O   0  0  0  0  0  0  0  0  0  0  0  0
  -27.6355  -19.0681   19.4680 O   0  0  0  0  0  0  0  0  0  0  0  0
  -21.1462  -30.0249   20.2982 O   0  0  0  0  0  0  0  0  0  0  0  0
  -30.4424  -23.2648   18.4870 O   0  0  0  0  0  0  0  0  0  0  0  0
  -17.6400  -28.1221   24.6361 O   0  0  0  0  0  0  0  0  0  0  0  0
  -20.9089  -18.6046   18.5251 O   0  0  0  0  0  0  0  0  0  1  0  0
  -30.8250  -23.8350   13.0159 F   0  0  0  0  0  0  0  0  0  0  0  0
  -28.1855  -23.6657   16.9415 F   0  0  0  0  0  0  0  0  0  0  0  0
  -17.0725  -26.0586   22.9210 F   0  0  0  0  0  0  0  0  0  0  0  0
  -21.3523  -26.7760   20.2734 Cl  0  0  0  0  0  0  0  0  0  0  0  0
  1  2  1  0  0  0  0
  1  5  2  0  0  0  0
  2  6  2  0  0  0  0
  3  8  2  0  0  0  0
  3 16  1  0  0  0  0
  4  9  1  0  0  0  0
  4 16  2  0  0  0  0
  5 18  1  0  0  0  0
  6 20  1  0  0  0  0
  7 10  2  0  0  0  0
  7 19  1  0  0  0  0
  8 24  1  0  0  0  0
  9 24  2  0  0  0  0
 10 25  1  0  0  0  0
 11 12  2  0  0  0  0
 11 26  1  0  0  0  0
 12 28  1  0  0  0  0
 13 21  1  0  0  0  0
 13 25  2  0  0  0  0
 14 23  2  0  0  0  0
 14 27  1  0  0  0  0
 15 28  2  0  0  0  0
 15 29  1  0  0  0  0
 16 32  1  0  0  0  0
 17 32  1  0  0  0  0
 17 33  2  0  0  0  0
 17 34  1  0  0  0  0
 18 20  2  0  0  0  0
 18 39  1  0  0  0  0
 19 21  2  0  0  0  0
 19 40  1  0  0  0  0
 20 48  1  0  0  0  0
 21 41  1  0  0  0  0
 22 30  1  0  0  0  0
 22 31  2  0  0  0  0
 22 58  1  0  0  0  0
 23 31  1  0  0  0  0
 23 74  1  0  0  0  0
 24 82  1  0  0  0  0
 25 84  1  0  0  0  0
 26 29  2  0  0  0  0
 26 82  1  0  0  0  0
 27 30  2  0  0  0  0
 27 83  1  0  0  0  0
 28 85  1  0  0  0  0
 29 86  1  0  0  0  0
 30 87  1  0  0  0  0
 31 88  1  0  0  0  0
 32 66  2  0  0  0  0
 33 67  1  0  0  0  0
 33 70  1  0  0  0  0
 34 71  1  0  0  0  0
 34 77  2  0  0  0  0
 35 49  1  0  0  0  0
 35 72  1  0  0  0  0
 35 78  2  0  0  0  0
 36 63  1  0  0  0  0
 36 68  1  0  0  0  0
 36 79  2  0  0  0  0
 37 64  1  0  0  0  0
 37 73  1  0  0  0  0
 37 80  2  0  0  0  0
 38 69  1  0  0  0  0
 38 74  1  0  0  0  0
 38 81  2  0  0  0  0
 39 42  1  0  0  0  0
 40 49  1  0  0  0  0
 41 68  1  0  0  0  0
 42 44  1  0  0  0  0
 43 45  1  0  0  0  0
 43 46  1  0  0  0  0
 44 48  1  0  0  0  0
 45 50  1  0  0  0  0
 46 69  1  0  0  0  0
 47 50  1  0  0  0  0
 47 69  1  0  0  0  0
 48 72  1  0  0  0  0
 49 68  1  0  0  0  0
 50 67  1  0  0  0  0
 51 64  1  0  0  0  0
 52 65  1  0  0  0  0
 53 65  1  0  0  0  0
 54 65  1  0  0  0  0
 55 74  1  0  0  0  0
 56 75  1  0  0  0  0
 57 83  1  0  0  0  0
 58 76  1  0  0  0  0
 59 60  1  0  0  0  0
 59 61  1  0  0  0  0
 60 62  1  0  0  0  0
 61 76  1  0  0  0  0
 62 84  1  0  0  0  0
 63 65  1  0  0  0  0
 63 73  1  0  0  0  0
 64 75  1  0  0  0  0
 66 67  1  0  0  0  0
M  CHG  2  75   1  76   1
M  ISO  4  38 100  62 101  74 100  84 101
M  END
> <Batch ID>
0013

> <Smiles>
CNC(C)C(=O)NC(C(=O)N1Cc2cc([101O:1][101CH2:1]CCCNCc3c(F)c(OC)cc([100N:0](C)[100C:0](=O)N4CCCC(n5nc(-c6ccc(Oc7ccc(F)cc7F)cc6)c(C(N)=O)c5N)C4)c3Cl)ccc2CC1C(=O)NC1CCCc2ccccc21)C(C)(C)C

> <Shape>
0.295

> <Color>
0.052

> <Negative vol penalty>
0.000

$$$$

  -OEChem-04052315503D

 92100  0     1  0  0  0  0  0999 V2000
  -16.8280  -30.5605   23.6180 C   0  0  0  0  0  0  0  0  0  0  0  0
  -18.0307  -31.0555   24.1119 C   0  0  0  0  0  0  0  0  0  0  0  0
  -25.0468  -15.0251   20.5511 C   0  0  0  0  0  0  0  0  0  0  0  0
  -27.3794  -14.7236   21.1035 C   0  0  0  0  0  0  0  0  0  0  0  0
  -16.7968  -29.3257   22.9713 C   0  0  0  0  0  0  0  0  0  0  0  0
  -19.2028  -30.3154   23.9603 C   0  0  0  0  0  0  0  0  0  0  0  0
  -24.8471  -32.5064   23.0402 C   0  0  0  0  0  0  0  0  0  0  0  0
  -24.8951  -13.6432   20.4376 C   0  0  0  0  0  0  0  0  0  0  0  0
  -27.2277  -13.3417   20.9900 C   0  0  0  0  0  0  0  0  0  0  0  0
  -25.9183  -32.7315   23.9038 C   0  0  0  0  0  0  0  0  0  0  0  0
  -24.5260  -10.9991   22.5125 C   0  0  0  0  0  0  0  0  0  0  0  0
  -23.4067  -10.4187   23.1091 C   0  0  0  0  0  0  0  0  0  0  0  0
  -31.7359  -26.1470   22.2028 C   0  0  0  0  0  0  0  0  0  0  0  0
  -26.8479  -30.5891   23.2993 C   0  0  0  0  0  0  0  0  0  0  0  0
  -22.6866   -9.5937   20.9556 C   0  0  0  0  0  0  0  0  0  0  0  0
  -26.2890  -15.5653   20.8840 C   0  0  0  0  0  0  0  0  0  0  0  0
  -31.3578  -25.0286   22.9457 C   0  0  0  0  0  0  0  0  0  0  0  0
  -26.2738  -17.7752   22.1583 C   0  0  0  0  0  0  0  0  0  0  0  0
  -17.9707  -28.5746   22.8031 C   0  0  0  0  0  0  0  0  0  0  0  0
  -24.7626  -31.3143   22.3066 C   0  0  0  0  0  0  0  0  0  0  0  0
  -19.1870  -29.0688   23.3119 C   0  0  0  0  0  0  0  0  0  0  0  0
  -25.7760  -30.3525   22.4251 C   0  0  0  0  0  0  0  0  0  0  0  0
  -30.5349  -23.9713   20.9352 C   0  0  0  0  0  0  0  0  0  0  0  0
  -25.9855  -12.8015   20.6571 C   0  0  0  0  0  0  0  0  0  0  0  0
  -26.9174  -31.7715   24.0356 C   0  0  0  0  0  0  0  0  0  0  0  0
  -24.7255  -10.8769   21.1374 C   0  0  0  0  0  0  0  0  0  0  0  0
  -22.4870   -9.7160   22.3307 C   0  0  0  0  0  0  0  0  0  0  0  0
  -23.8059  -10.1741   20.3589 C   0  0  0  0  0  0  0  0  0  0  0  0
  -30.7574  -23.9407   22.3119 C   0  0  0  0  0  0  0  0  0  0  0  0
  -30.9130  -25.0897   20.1923 C   0  0  0  0  0  0  0  0  0  0  0  0
  -31.5134  -26.1776   20.8261 C   0  0  0  0  0  0  0  0  0  0  0  0
  -26.4466  -16.9928   21.0008 C   0  0  0  0  0  0  0  0  0  0  0  0
  -26.5379  -19.0590   21.7475 C   0  0  0  0  0  0  0  0  0  0  0  0
  -31.5966  -25.0001   24.4118 C   0  0  0  0  0  0  0  0  0  0  0  0
  -25.9075  -17.3772   23.4861 C   0  0  0  0  0  0  0  0  0  0  0  0
  -22.7013  -28.8978   22.1835 C   0  0  0  0  0  0  0  0  0  0  0  0
  -24.5727  -27.9380   19.7139 C   0  0  0  0  0  0  0  0  0  0  0  0
  -29.1950  -29.9745   26.9292 C   0  0  0  0  0  0  0  0  0  0  0  0
  -27.6232  -28.0251   18.1862 C   0  0  0  0  0  0  0  0  0  0  0  0
  -29.6346  -22.7332   18.9345 C   0  0  0  0  0  0  0  0  0  0  0  0
  -17.8792  -27.2236   22.1390 C   0  0  0  0  0  0  0  0  0  0  0  0
  -23.6144  -31.0984   21.3592 C   0  0  0  0  0  0  0  0  0  0  0  0
  -25.7424  -29.0648   21.6446 C   0  0  0  0  0  0  0  0  0  0  0  0
  -19.2300  -26.6736   21.6883 C   0  0  0  0  0  0  0  0  0  0  0  0
  -27.1426  -20.9718   17.1002 C   0  0  0  0  0  0  0  0  0  0  0  0
  -20.2665  -26.8294   22.7966 C   0  0  0  0  0  0  0  0  0  0  0  0
  -26.7251  -19.8439   18.0467 C   0  0  0  0  0  0  0  0  0  0  0  0
  -28.6388  -21.2660   17.1936 C   0  0  0  0  0  0  0  0  0  0  0  0
  -28.7198  -20.3961   19.4971 C   0  0  0  0  0  0  0  0  0  0  0  0
  -20.4838  -28.3069   23.1450 C   0  0  1  0  0  0  0  0  0  0  0  0
  -23.3648  -29.6257   21.0488 C   0  0  1  0  0  0  0  0  0  0  0  0
  -27.2097  -20.1077   19.4859 C   0  0  2  0  0  0  0  0  0  0  0  0
  -28.8604  -27.1102   16.2038 C   0  0  0  0  0  0  0  0  0  0  0  0
  -24.8386  -25.2459   21.1252 C   0  0  0  0  0  0  0  0  0  0  0  0
  -26.7880  -24.7378   19.6387 C   0  0  0  0  0  0  0  0  0  0  0  0
  -24.5273  -25.0989   18.6481 C   0  0  0  0  0  0  0  0  0  0  0  0
  -28.0909  -30.7312   17.0828 C   0  0  0  0  0  0  0  0  0  0  0  0
  -28.7926  -28.6260   27.5029 C   0  0  0  0  0  0  0  0  0  0  0  0
  -29.5394  -27.4451   26.8834 C   0  0  0  0  0  0  0  0  0  0  0  0
  -31.0576  -27.5517   27.0746 C   0  0  0  0  0  0  0  0  0  0  0  0
  -31.8073  -26.3681   26.4710 C   0  0  0  0  0  0  0  0  0  0  0  0
  -28.6646  -32.3950   27.1419 C   0  0  0  0  0  0  0  0  0  0  0  0
  -27.7153  -32.7972   26.0274 C   0  0  0  0  0  0  0  0  0  1  0  0
  -25.8030  -27.0738   19.5778 C   0  0  1  0  0  0  0  0  0  0  0  0
  -28.0189  -28.2582   16.7393 C   0  0  2  0  0  0  0  0  0  0  0  0
  -25.4892  -25.5625   19.7638 C   0  0  0  0  0  0  0  0  0  0  0  0
  -26.7934  -17.7188   19.9347 N   0  0  0  0  0  0  0  0  0  0  0  0
  -26.8406  -18.9709   20.4206 N   0  0  0  0  0  0  0  0  0  0  0  0
  -24.5960  -28.8974   20.7361 N   0  0  0  0  0  0  0  0  0  0  0  0
  -29.0243  -21.5099   18.5853 N   0  0  0  0  0  0  0  0  0  0  0  0
  -26.5383  -20.2432   22.3955 N   0  0  0  0  0  0  0  0  0  0  0  0
  -25.6720  -16.0182   23.7352 N   0  0  0  0  0  0  0  0  0  0  0  0
  -29.9268  -22.8651   20.2916 N   0  0  0  0  0  0  0  0  0  0  0  0
  -31.5705  -26.2295   25.0607 N   0  0  0  0  0  0  0  0  0  0  0  0
  -21.3206  -28.9430   22.1501 N   0  0  0  0  0  0  0  0  0  0  0  0
  -28.4916  -31.0178   27.5210 N   0  0  0  0  0  0  0  0  0  0  0  0
  -26.3949  -27.4067   18.2865 N   0  0  0  0  0  0  0  0  0  0  0  0
  -28.8069  -29.5169   16.6141 N   0  3  0  0  0  0  0  0  0  0  0  0
  -31.8199  -23.9253   24.9625 O   0  0  0  0  0  0  0  0  0  0  0  0
  -25.7763  -18.2042   24.4200 O   0  0  0  0  0  0  0  0  0  0  0  0
  -23.3909  -28.3354   23.0260 O   0  0  0  0  0  0  0  0  0  0  0  0
  -23.6288  -27.7729   18.9371 O   0  0  0  0  0  0  0  0  0  0  0  0
  -30.0264  -30.1057   26.0348 O   0  0  0  0  0  0  0  0  0  0  0  0
  -28.3345  -28.3549   19.1327 O   0  0  0  0  0  0  0  0  0  0  0  0
  -29.8552  -23.6110   18.0961 O   0  0  0  0  0  0  0  0  0  0  0  0
  -25.8377  -11.4530   20.5467 O   0  0  0  0  0  0  0  0  0  0  0  0
  -27.9637  -31.9883   24.8783 O   0  0  0  0  0  0  0  0  0  1  0  0
  -21.4130   -9.1574   22.9040 F   0  0  0  0  0  0  0  0  0  0  0  0
  -23.9928  -10.0523   19.0376 F   0  0  0  0  0  0  0  0  0  0  0  0
  -30.3940  -22.8648   23.0268 F   0  0  0  0  0  0  0  0  0  0  0  0
  -30.6987  -25.1155   18.8676 F   0  0  0  0  0  0  0  0  0  0  0  0
  -31.9827  -27.5604   19.9143 Cl  0  0  0  0  0  0  0  0  0  0  0  0
  1  2  1  0  0  0  0
  1  5  2  0  0  0  0
  2  6  2  0  0  0  0
  3  8  2  0  0  0  0
  3 16  1  0  0  0  0
  4  9  1  0  0  0  0
  4 16  2  0  0  0  0
  5 19  1  0  0  0  0
  6 21  1  0  0  0  0
  7 10  2  0  0  0  0
  7 20  1  0  0  0  0
  8 24  1  0  0  0  0
  9 24  2  0  0  0  0
 10 25  1  0  0  0  0
 11 12  2  0  0  0  0
 11 26  1  0  0  0  0
 12 27  1  0  0  0  0
 13 17  1  0  0  0  0
 13 31  2  0  0  0  0
 14 22  1  0  0  0  0
 14 25  2  0  0  0  0
 15 27  2  0  0  0  0
 15 28  1  0  0  0  0
 16 32  1  0  0  0  0
 17 29  2  0  0  0  0
 17 34  1  0  0  0  0
 18 32  1  0  0  0  0
 18 33  2  0  0  0  0
 18 35  1  0  0  0  0
 19 21  2  0  0  0  0
 19 41  1  0  0  0  0
 20 22  2  0  0  0  0
 20 42  1  0  0  0  0
 21 50  1  0  0  0  0
 22 43  1  0  0  0  0
 23 29  1  0  0  0  0
 23 30  2  0  0  0  0
 23 73  1  0  0  0  0
 24 86  1  0  0  0  0
 25 87  1  0  0  0  0
 26 28  2  0  0  0  0
 26 86  1  0  0  0  0
 27 88  1  0  0  0  0
 28 89  1  0  0  0  0
 29 90  1  0  0  0  0
 30 31  1  0  0  0  0
 30 91  1  0  0  0  0
 31 92  1  0  0  0  0
 32 67  2  0  0  0  0
 33 68  1  0  0  0  0
 33 71  1  0  0  0  0
 34 74  1  0  0  0  0
 34 79  2  0  0  0  0
 35 72  1  0  0  0  0
 35 80  2  0  0  0  0
 36 51  1  0  0  0  0
 36 75  1  0  0  0  0
 36 81  2  0  0  0  0
 37 64  1  0  0  0  0
 37 69  1  0  0  0  0
 37 82  2  0  0  0  0
 38 58  1  0  0  0  0
 38 76  1  0  0  0  0
 38 83  2  0  0  0  0
 39 65  1  0  0  0  0
 39 77  1  0  0  0  0
 39 84  2  0  0  0  0
 40 70  1  0  0  0  0
 40 73  1  0  0  0  0
 40 85  2  0  0  0  0
 41 44  1  0  0  0  0
 42 51  1  0  0  0  0
 43 69  1  0  0  0  0
 44 46  1  0  0  0  0
 45 47  1  0  0  0  0
 45 48  1  0  0  0  0
 46 50  1  0  0  0  0
 47 52  1  0  0  0  0
 48 70  1  0  0  0  0
 49 52  1  0  0  0  0
 49 70  1  0  0  0  0
 50 75  1  0  0  0  0
 51 69  1  0  0  0  0
 52 68  1  0  0  0  0
 53 65  1  0  0  0  0
 54 66  1  0  0  0  0
 55 66  1  0  0  0  0
 56 66  1  0  0  0  0
 57 78  1  0  0  0  0
 58 59  1  0  0  0  0
 59 60  1  0  0  0  0
 60 61  1  0  0  0  0
 61 74  1  0  0  0  0
 62 63  1  0  0  0  0
 62 76  1  0  0  0  0
 63 87  1  0  0  0  0
 64 66  1  0  0  0  0
 64 77  1  0  0  0  0
 65 78  1  0  0  0  0
 67 68  1  0  0  0  0
M  CHG  1  78   1
M  ISO  4  40 100  63 101  73 100  87 101
M  END
> <Batch ID>
0013

> <Smiles>
CNC(C)C(=O)NC(C(=O)N1Cc2cc([101O:1][101CH2:1]CNC(=O)CCCCNC(=O)c3cc(Cl)c(F)c([100NH:0][100C:0](=O)N4CCCC(n5nc(-c6ccc(Oc7ccc(F)cc7F)cc6)c(C(N)=O)c5N)C4)c3F)ccc2CC1C(=O)NC1CCCc2ccccc21)C(C)(C)C

> <Shape>
0.315

> <Color>
0.103

> <Negative vol penalty>
0.000

$$$$

  -OEChem-04052315503D

 76 83  0     1  0  0  0  0  0999 V2000
  -34.1465   -8.5674   21.6895 C   0  0  0  0  0  0  0  0  0  0  0  0
  -34.1176   -9.9573   21.6372 C   0  0  0  0  0  0  0  0  0  0  0  0
  -27.0297  -31.3884   22.5065 C   0  0  0  0  0  0  0  0  0  0  0  0
  -25.4973  -32.0937   20.7770 C   0  0  0  0  0  0  0  0  0  0  0  0
  -33.1813   -7.8252   21.0101 C   0  0  0  0  0  0  0  0  0  0  0  0
  -33.1241  -10.6059   20.9045 C   0  0  0  0  0  0  0  0  0  0  0  0
  -30.4365  -15.9386   22.2628 C   0  0  0  0  0  0  0  0  0  0  0  0
  -27.2650  -32.7217   22.8418 C   0  0  0  0  0  0  0  0  0  0  0  0
  -25.7326  -33.4271   21.1123 C   0  0  0  0  0  0  0  0  0  0  0  0
  -30.6539  -17.2400   21.8125 C   0  0  0  0  0  0  0  0  0  0  0  0
  -25.6546  -37.0053   21.7514 C   0  0  0  0  0  0  0  0  0  0  0  0
  -24.5519  -37.8534   21.8537 C   0  0  0  0  0  0  0  0  0  0  0  0
  -28.8856  -16.9690   20.1942 C   0  0  0  0  0  0  0  0  0  0  0  0
  -23.6398  -36.4566   23.6013 C   0  0  0  0  0  0  0  0  0  0  0  0
  -26.1459  -31.0744   21.4740 C   0  0  0  0  0  0  0  0  0  0  0  0
  -24.9129  -28.8487   21.6576 C   0  0  0  0  0  0  0  0  0  0  0  0
  -32.1698   -8.4652   20.2766 C   0  0  0  0  0  0  0  0  0  0  0  0
  -29.4477  -15.1375   21.6738 C   0  0  0  0  0  0  0  0  0  0  0  0
  -32.1453   -9.8715   20.2136 C   0  0  0  0  0  0  0  0  0  0  0  0
  -28.6560  -15.6586   20.6405 C   0  0  0  0  0  0  0  0  0  0  0  0
  -26.6164  -33.7411   22.1447 C   0  0  0  0  0  0  0  0  0  0  0  0
  -29.8804  -17.7545   20.7761 C   0  0  0  0  0  0  0  0  0  0  0  0
  -25.7499  -35.8828   22.5740 C   0  0  0  0  0  0  0  0  0  0  0  0
  -23.5445  -37.5790   22.7787 C   0  0  0  0  0  0  0  0  0  0  0  0
  -24.7425  -35.6085   23.4990 C   0  0  0  0  0  0  0  0  0  0  0  0
  -25.9029  -29.6973   21.1268 C   0  0  0  0  0  0  0  0  0  0  0  0
  -25.0984  -27.6544   21.0050 C   0  0  0  0  0  0  0  0  0  0  0  0
  -23.9149  -29.1161   22.6516 C   0  0  0  0  0  0  0  0  0  0  0  0
  -29.4445  -12.3893   20.0764 C   0  0  0  0  0  0  0  0  0  0  0  0
  -26.2244  -12.7298   20.2698 C   0  0  0  0  0  0  0  0  0  0  0  0
  -23.5484  -14.8157   20.6368 C   0  0  0  0  0  0  0  0  0  0  0  0
  -28.6903  -23.6910   19.1726 C   0  0  0  0  0  0  0  0  0  0  0  0
  -31.1762   -7.6198   19.5199 C   0  0  0  0  0  0  0  0  0  0  0  0
  -29.2077  -13.7448   22.1889 C   0  0  0  0  0  0  0  0  0  0  0  0
  -27.5680  -14.8465   19.9883 C   0  0  0  0  0  0  0  0  0  0  0  0
  -29.9362   -8.3901   19.0735 C   0  0  0  0  0  0  0  0  0  0  0  0
  -27.9156  -26.4837   16.9929 C   0  0  0  0  0  0  0  0  0  0  0  0
  -30.3330   -9.7207   18.4420 C   0  0  0  0  0  0  0  0  0  0  0  0
  -27.2934  -27.5167   17.9277 C   0  0  0  0  0  0  0  0  0  0  0  0
  -28.9859  -25.6666   17.7065 C   0  0  0  0  0  0  0  0  0  0  0  0
  -27.8495  -25.9969   19.8860 C   0  0  0  0  0  0  0  0  0  0  0  0
  -31.0690  -10.6119   19.4498 C   0  0  1  0  0  0  0  0  0  0  0  0
  -28.5191  -12.8414   21.1705 C   0  0  1  0  0  0  0  0  0  0  0  0
  -26.7596  -26.8433   19.2015 C   0  0  1  0  0  0  0  0  0  0  0  0
  -21.0402  -14.8069   20.7165 C   0  0  0  0  0  0  0  0  0  0  0  0
  -26.1316  -12.3867   17.2394 C   0  0  0  0  0  0  0  0  0  0  0  0
  -23.8077  -13.3174   17.2750 C   0  0  0  0  0  0  0  0  0  0  0  0
  -24.3174  -11.1937   18.4803 C   0  0  0  0  0  0  0  0  0  0  0  0
  -23.5165  -15.8950   23.3923 C   0  0  0  0  0  0  0  0  0  0  0  0
  -30.5745  -19.9713   21.2859 C   0  0  0  0  0  0  0  0  0  1  0  0
  -30.1191  -21.3613   20.8899 C   0  0  0  0  0  0  0  0  0  0  0  0
  -25.1653  -13.3841   19.4159 C   0  0  1  0  0  0  0  0  0  0  0  0
  -22.3233  -14.7351   21.5296 C   0  0  2  0  0  0  0  0  0  0  0  0
  -24.8772  -12.5854   18.1134 C   0  0  0  0  0  0  0  0  0  0  0  0
  -26.6611  -29.0933   20.2079 N   0  0  0  0  0  0  0  0  0  0  0  0
  -26.1476  -27.8525   20.1563 N   0  0  0  0  0  0  0  0  0  0  0  0
  -27.3761  -13.4882   20.5229 N   0  0  0  0  0  0  0  0  0  0  0  0
  -28.4759  -25.0612   18.9402 N   0  0  0  0  0  0  0  0  0  0  0  0
  -24.4649  -26.4647   21.0802 N   0  0  0  0  0  0  0  0  0  0  0  0
  -23.8640  -30.3963   23.2199 N   0  0  0  0  0  0  0  0  0  0  0  0
  -30.1289  -11.2239   20.3642 N   0  0  0  0  0  0  0  0  0  0  0  0
  -24.0009  -13.5641   20.2763 N   0  0  0  0  0  0  0  0  0  0  0  0
  -28.1910  -23.1330   20.4006 N   0  0  0  0  0  0  0  0  0  0  0  0
  -22.3220  -15.8576   22.5099 N   0  3  0  0  0  0  0  0  0  0  0  0
  -23.1031  -28.2407   23.0368 O   0  0  0  0  0  0  0  0  0  0  0  0
  -29.5300  -13.0482   19.0467 O   0  0  0  0  0  0  0  0  0  0  0  0
  -26.0336  -11.5904   20.7025 O   0  0  0  0  0  0  0  0  0  0  0  0
  -24.0512  -15.8824   20.2904 O   0  0  0  0  0  0  0  0  0  0  0  0
  -29.2950  -22.9766   18.3722 O   0  0  0  0  0  0  0  0  0  0  0  0
  -27.8883  -21.3597   22.2413 O   0  0  0  0  0  0  0  0  0  0  0  0
  -27.8441  -20.6215   19.8292 O   0  0  0  0  0  0  0  0  0  0  0  0
  -26.8456  -35.0423   22.4718 O   0  0  0  0  0  0  0  0  0  0  0  0
  -30.0909  -19.0242   20.3343 O   0  0  0  0  0  0  0  0  0  1  0  0
  -22.4864  -38.3944   22.8779 F   0  0  0  0  0  0  0  0  0  0  0  0
  -24.8290  -34.5323   24.2928 F   0  0  0  0  0  0  0  0  0  0  0  0
  -28.3476  -21.4929   20.8723 S   0  0  0  0  0  0  0  0  0  0  0  0
  1  2  1  0  0  0  0
  1  5  2  0  0  0  0
  2  6  2  0  0  0  0
  3  8  2  0  0  0  0
  3 15  1  0  0  0  0
  4  9  1  0  0  0  0
  4 15  2  0  0  0  0
  5 17  1  0  0  0  0
  6 19  1  0  0  0  0
  7 10  2  0  0  0  0
  7 18  1  0  0  0  0
  8 21  1  0  0  0  0
  9 21  2  0  0  0  0
 10 22  1  0  0  0  0
 11 12  2  0  0  0  0
 11 23  1  0  0  0  0
 12 24  1  0  0  0  0
 13 20  1  0  0  0  0
 13 22  2  0  0  0  0
 14 24  2  0  0  0  0
 14 25  1  0  0  0  0
 15 26  1  0  0  0  0
 16 26  1  0  0  0  0
 16 27  2  0  0  0  0
 16 28  1  0  0  0  0
 17 19  2  0  0  0  0
 17 33  1  0  0  0  0
 18 20  2  0  0  0  0
 18 34  1  0  0  0  0
 19 42  1  0  0  0  0
 20 35  1  0  0  0  0
 21 72  1  0  0  0  0
 22 73  1  0  0  0  0
 23 25  2  0  0  0  0
 23 72  1  0  0  0  0
 24 74  1  0  0  0  0
 25 75  1  0  0  0  0
 26 55  2  0  0  0  0
 27 56  1  0  0  0  0
 27 59  1  0  0  0  0
 28 60  1  0  0  0  0
 28 65  2  0  0  0  0
 29 43  1  0  0  0  0
 29 61  1  0  0  0  0
 29 66  2  0  0  0  0
 30 52  1  0  0  0  0
 30 57  1  0  0  0  0
 30 67  2  0  0  0  0
 31 53  1  0  0  0  0
 31 62  1  0  0  0  0
 31 68  2  0  0  0  0
 32 58  1  0  0  0  0
 32 63  1  0  0  0  0
 32 69  2  0  0  0  0
 33 36  1  0  0  0  0
 34 43  1  0  0  0  0
 35 57  1  0  0  0  0
 36 38  1  0  0  0  0
 37 39  1  0  0  0  0
 37 40  1  0  0  0  0
 38 42  1  0  0  0  0
 39 44  1  0  0  0  0
 40 58  1  0  0  0  0
 41 44  1  0  0  0  0
 41 58  1  0  0  0  0
 42 61  1  0  0  0  0
 43 57  1  0  0  0  0
 44 56  1  0  0  0  0
 45 53  1  0  0  0  0
 46 54  1  0  0  0  0
 47 54  1  0  0  0  0
 48 54  1  0  0  0  0
 49 64  1  0  0  0  0
 50 51  1  0  0  0  0
 50 73  1  0  0  0  0
 51 76  1  0  0  0  0
 52 54  1  0  0  0  0
 52 62  1  0  0  0  0
 53 64  1  0  0  0  0
 55 56  1  0  0  0  0
 63 76  1  0  0  0  0
 70 76  2  0  0  0  0
 71 76  2  0  0  0  0
M  CHG  1  64   1
M  ISO  4  32 100  50 101  63 100  73 101
M  END
> <Batch ID>
0013

> <Smiles>
CNC(C)C(=O)NC(C(=O)N1Cc2cc([101O:1][101CH2:1]CS(=O)(=O)[100NH:0][100C:0](=O)N3CCCC(n4nc(-c5ccc(Oc6ccc(F)cc6F)cc5)c(C(N)=O)c4N)C3)ccc2CC1C(=O)NC1CCCc2ccccc21)C(C)(C)C

> <Shape>
0.278

> <Color>
0.082

> <Negative vol penalty>
0.000

$$$$

  -OEChem-04052315503D

 89 97  0     1  0  0  0  0  0999 V2000
  -21.2118  -24.5754   24.2245 C   0  0  0  0  0  0  0  0  0  0  0  0
  -22.3557  -24.0997   24.8576 C   0  0  0  0  0  0  0  0  0  0  0  0
  -23.0948   -9.7566   20.0580 C   0  0  0  0  0  0  0  0  0  0  0  0
  -23.7934   -9.9446   22.3632 C   0  0  0  0  0  0  0  0  0  0  0  0
  -21.2381  -24.8571   22.8593 C   0  0  0  0  0  0  0  0  0  0  0  0
  -23.5262  -23.9044   24.1254 C   0  0  0  0  0  0  0  0  0  0  0  0
  -29.2717  -24.7258   26.0801 C   0  0  0  0  0  0  0  0  0  0  0  0
  -22.3501   -8.6210   20.3762 C   0  0  0  0  0  0  0  0  0  0  0  0
  -23.0485   -8.8090   22.6815 C   0  0  0  0  0  0  0  0  0  0  0  0
  -30.2376  -23.8384   26.5527 C   0  0  0  0  0  0  0  0  0  0  0  0
  -19.8093   -8.0379   23.2588 C   0  0  0  0  0  0  0  0  0  0  0  0
  -19.0216   -8.0827   24.4090 C   0  0  0  0  0  0  0  0  0  0  0  0
  -32.3652  -17.3080   23.7119 C   0  0  0  0  0  0  0  0  0  0  0  0
  -31.1994  -23.7183   24.3437 C   0  0  0  0  0  0  0  0  0  0  0  0
  -20.2522   -6.2159   25.3244 C   0  0  0  0  0  0  0  0  0  0  0  0
  -23.8166  -10.4183   21.0514 C   0  0  0  0  0  0  0  0  0  0  0  0
  -31.7741  -18.5576   23.8987 C   0  0  0  0  0  0  0  0  0  0  0  0
  -24.1495  -12.9291   20.7467 C   0  0  0  0  0  0  0  0  0  0  0  0
  -22.4123  -24.6743   22.1120 C   0  0  0  0  0  0  0  0  0  0  0  0
  -29.2557  -25.1083   24.7311 C   0  0  0  0  0  0  0  0  0  0  0  0
  -23.5678  -24.1826   22.7486 C   0  0  0  0  0  0  0  0  0  0  0  0
  -30.2338  -24.6127   23.8571 C   0  0  0  0  0  0  0  0  0  0  0  0
  -30.5962  -16.6997   22.1830 C   0  0  0  0  0  0  0  0  0  0  0  0
  -22.3269   -8.1472   21.6880 C   0  0  0  0  0  0  0  0  0  0  0  0
  -31.1999  -23.3323   25.6839 C   0  0  0  0  0  0  0  0  0  0  0  0
  -20.8184   -7.0820   23.1413 C   0  0  0  0  0  0  0  0  0  0  0  0
  -19.2431   -7.1718   25.4419 C   0  0  0  0  0  0  0  0  0  0  0  0
  -31.7763  -16.3791   22.8540 C   0  0  0  0  0  0  0  0  0  0  0  0
  -21.0398   -6.1710   24.1741 C   0  0  0  0  0  0  0  0  0  0  0  0
  -30.5940  -18.8781   23.2277 C   0  0  0  0  0  0  0  0  0  0  0  0
  -30.0051  -17.9492   22.3698 C   0  0  0  0  0  0  0  0  0  0  0  0
  -24.5866  -11.5911   20.7232 C   0  0  0  0  0  0  0  0  0  0  0  0
  -25.2473  -13.6559   20.3557 C   0  0  0  0  0  0  0  0  0  0  0  0
  -32.4465  -19.5056   24.8240 C   0  0  0  0  0  0  0  0  0  0  0  0
  -22.8659  -13.4669   21.0913 C   0  0  0  0  0  0  0  0  0  0  0  0
  -27.1871  -24.8024   22.3371 C   0  0  0  0  0  0  0  0  0  0  0  0
  -29.3203  -26.6774   20.7698 C   0  0  0  0  0  0  0  0  0  0  0  0
  -32.5297  -27.8033   20.4886 C   0  0  0  0  0  0  0  0  0  0  0  0
  -30.7019  -14.7488   20.5926 C   0  0  0  0  0  0  0  0  0  0  0  0
  -22.3789  -24.9476   20.6291 C   0  0  0  0  0  0  0  0  0  0  0  0
  -28.2234  -26.0871   24.2428 C   0  0  0  0  0  0  0  0  0  0  0  0
  -30.2725  -25.0078   22.4042 C   0  0  0  0  0  0  0  0  0  0  0  0
  -23.7648  -25.0690   20.0008 C   0  0  0  0  0  0  0  0  0  0  0  0
  -29.6624  -12.1530   18.3884 C   0  0  0  0  0  0  0  0  0  0  0  0
  -24.6666  -23.9331   20.4734 C   0  0  0  0  0  0  0  0  0  0  0  0
  -28.2133  -11.8855   18.8013 C   0  0  0  0  0  0  0  0  0  0  0  0
  -30.5441  -12.4795   19.5925 C   0  0  0  0  0  0  0  0  0  0  0  0
  -28.5977  -13.2948   20.8636 C   0  0  0  0  0  0  0  0  0  0  0  0
  -24.8637  -23.9812   21.9934 C   0  0  1  0  0  0  0  0  0  0  0  0
  -27.9898  -26.0079   22.7373 C   0  0  1  0  0  0  0  0  0  0  0  0
  -27.6574  -13.0251   19.6775 C   0  0  2  0  0  0  0  0  0  0  0  0
  -33.9766  -29.2996   19.0869 C   0  0  0  0  0  0  0  0  0  0  0  0
  -29.3787  -24.5597   18.5739 C   0  0  0  0  0  0  0  0  0  0  0  0
  -31.4810  -25.6113   17.7121 C   0  0  0  0  0  0  0  0  0  0  0  0
  -29.3575  -26.9197   17.7469 C   0  0  0  0  0  0  0  0  0  0  0  0
  -33.1637  -29.5453   22.7956 C   0  0  0  0  0  0  0  0  0  0  0  0
  -31.7743  -21.6200   27.2312 C   0  0  0  0  0  0  0  0  0  1  0  0
  -30.5450  -26.4262   19.9236 C   0  0  1  0  0  0  0  0  0  0  0  0
  -33.0955  -29.2022   20.3225 C   0  0  2  0  0  0  0  0  0  0  0  0
  -32.5803  -20.3249   27.1622 C   0  0  1  0  0  0  0  0  0  0  0  0
  -30.1889  -25.8701   18.5160 C   0  0  0  0  0  0  0  0  0  0  0  0
  -32.6064  -19.6158   28.5036 C   0  0  0  0  0  0  0  0  0  0  0  0
  -25.8626  -11.4721   20.3468 N   0  0  0  0  0  0  0  0  0  0  0  0
  -26.2367  -12.7445   20.1301 N   0  0  0  0  0  0  0  0  0  0  0  0
  -29.2381  -25.9626   21.9732 N   0  0  0  0  0  0  0  0  0  0  0  0
  -29.9571  -13.5708   20.3731 N   0  0  0  0  0  0  0  0  0  0  0  0
  -25.4533  -14.9792   20.1861 N   0  0  0  0  0  0  0  0  0  0  0  0
  -21.8496  -12.5794   21.4709 N   0  0  0  0  0  0  0  0  0  0  0  0
  -30.0286  -15.7295   21.3202 N   0  0  0  0  0  0  0  0  0  0  0  0
  -32.0381  -19.4501   26.1469 N   0  0  0  0  0  0  0  0  0  0  0  0
  -25.8207  -25.0077   22.3467 N   0  0  0  0  0  0  0  0  0  0  0  0
  -31.2889  -27.6810   19.8997 N   0  0  0  0  0  0  0  0  0  0  0  0
  -33.9115  -29.5755   21.5123 N   0  3  0  0  0  0  0  0  0  0  0  0
  -33.2895  -20.2809   24.3805 O   0  0  0  0  0  0  0  0  0  0  0  0
  -22.6223  -14.6967   21.0477 O   0  0  0  0  0  0  0  0  0  0  0  0
  -27.7649  -23.7633   22.0401 O   0  0  0  0  0  0  0  0  0  0  0  0
  -28.4715  -27.4835   20.3809 O   0  0  0  0  0  0  0  0  0  0  0  0
  -33.1301  -26.9076   21.0783 O   0  0  0  0  0  0  0  0  0  0  0  0
  -31.8423  -14.8888   20.1431 O   0  0  0  0  0  0  0  0  0  0  0  0
  -21.6000   -7.0392   21.9990 O   0  0  0  0  0  0  0  0  0  0  0  0
  -32.1434  -22.4655   26.1424 O   0  0  0  0  0  0  0  0  0  1  0  0
  -18.4876   -7.2160   26.5471 F   0  0  0  0  0  0  0  0  0  0  0  0
  -32.3550  -15.1816   22.6834 F   0  0  0  0  0  0  0  0  0  0  0  0
  -22.0085   -5.2512   24.0675 F   0  0  0  0  0  0  0  0  0  0  0  0
  -33.1932  -20.3838   29.4485 F   0  0  0  0  0  0  0  0  0  0  0  0
  -31.3534  -19.3410   28.9299 F   0  0  0  0  0  0  0  0  0  0  0  0
  -33.2838  -18.4495   28.4390 F   0  0  0  0  0  0  0  0  0  0  0  0
  -29.8811  -20.4422   23.4803 Cl  0  0  0  0  0  0  0  0  0  0  0  0
  -28.5346  -18.3236   21.5216 Cl  0  0  0  0  0  0  0  0  0  0  0  0
  1  2  1  0  0  0  0
  1  5  2  0  0  0  0
  2  6  2  0  0  0  0
  3  8  2  0  0  0  0
  3 16  1  0  0  0  0
  4  9  1  0  0  0  0
  4 16  2  0  0  0  0
  5 19  1  0  0  0  0
  6 21  1  0  0  0  0
  7 10  2  0  0  0  0
  7 20  1  0  0  0  0
  8 24  1  0  0  0  0
  9 24  2  0  0  0  0
 10 25  1  0  0  0  0
 11 12  2  0  0  0  0
 11 26  1  0  0  0  0
 12 27  1  0  0  0  0
 13 17  1  0  0  0  0
 13 28  2  0  0  0  0
 14 22  1  0  0  0  0
 14 25  2  0  0  0  0
 15 27  2  0  0  0  0
 15 29  1  0  0  0  0
 16 32  1  0  0  0  0
 17 30  2  0  0  0  0
 17 34  1  0  0  0  0
 18 32  1  0  0  0  0
 18 33  2  0  0  0  0
 18 35  1  0  0  0  0
 19 21  2  0  0  0  0
 19 40  1  0  0  0  0
 20 22  2  0  0  0  0
 20 41  1  0  0  0  0
 21 49  1  0  0  0  0
 22 42  1  0  0  0  0
 23 28  1  0  0  0  0
 23 31  2  0  0  0  0
 23 69  1  0  0  0  0
 24 80  1  0  0  0  0
 25 81  1  0  0  0  0
 26 29  2  0  0  0  0
 26 80  1  0  0  0  0
 27 82  1  0  0  0  0
 28 83  1  0  0  0  0
 29 84  1  0  0  0  0
 30 31  1  0  0  0  0
 30 88  1  0  0  0  0
 31 89  1  0  0  0  0
 32 63  2  0  0  0  0
 33 64  1  0  0  0  0
 33 67  1  0  0  0  0
 34 70  1  0  0  0  0
 34 74  2  0  0  0  0
 35 68  1  0  0  0  0
 35 75  2  0  0  0  0
 36 50  1  0  0  0  0
 36 71  1  0  0  0  0
 36 76  2  0  0  0  0
 37 58  1  0  0  0  0
 37 65  1  0  0  0  0
 37 77  2  0  0  0  0
 38 59  1  0  0  0  0
 38 72  1  0  0  0  0
 38 78  2  0  0  0  0
 39 66  1  0  0  0  0
 39 69  1  0  0  0  0
 39 79  2  0  0  0  0
 40 43  1  0  0  0  0
 41 50  1  0  0  0  0
 42 65  1  0  0  0  0
 43 45  1  0  0  0  0
 44 46  1  0  0  0  0
 44 47  1  0  0  0  0
 45 49  1  0  0  0  0
 46 51  1  0  0  0  0
 47 66  1  0  0  0  0
 48 51  1  0  0  0  0
 48 66  1  0  0  0  0
 49 71  1  0  0  0  0
 50 65  1  0  0  0  0
 51 64  1  0  0  0  0
 52 59  1  0  0  0  0
 53 61  1  0  0  0  0
 54 61  1  0  0  0  0
 55 61  1  0  0  0  0
 56 73  1  0  0  0  0
 57 60  1  0  0  0  0
 57 81  1  0  0  0  0
 58 61  1  0  0  0  0
 58 72  1  0  0  0  0
 59 73  1  0  0  0  0
 60 62  1  0  0  0  0
 60 70  1  0  0  0  0
 62 85  1  0  0  0  0
 62 86  1  0  0  0  0
 62 87  1  0  0  0  0
 63 64  1  0  0  0  0
M  CHG  1  73   1
M  ISO  4  39 100  57 101  69 100  81 101
M  END
> <Batch ID>
0013

> <Smiles>
CNC(C)C(=O)NC(C(=O)N1Cc2cc([101O:1][101CH2:1]C(NC(=O)c3cc(F)c([100NH:0][100C:0](=O)N4CCCC(n5nc(-c6ccc(Oc7ccc(F)cc7F)cc6)c(C(N)=O)c5N)C4)c(Cl)c3Cl)C(F)(F)F)ccc2CC1C(=O)NC1CCCc2ccccc21)C(C)(C)C

> <Shape>
0.229

> <Color>
0.198

> <Negative vol penalty>
0.000

$$$$

  -OEChem-04052315503D

 83 91  0     1  0  0  0  0  0999 V2000
  -21.6064  -22.7901   34.9809 C   0  0  0  0  0  0  0  0  0  0  0  0
  -22.8334  -22.5157   34.3854 C   0  0  0  0  0  0  0  0  0  0  0  0
  -23.1518   -9.8664   19.9626 C   0  0  0  0  0  0  0  0  0  0  0  0
  -23.8246   -9.9641   22.2809 C   0  0  0  0  0  0  0  0  0  0  0  0
  -20.7276  -21.7487   35.2757 C   0  0  0  0  0  0  0  0  0  0  0  0
  -23.1828  -21.1995   34.0855 C   0  0  0  0  0  0  0  0  0  0  0  0
  -26.4715  -19.2639   29.2956 C   0  0  0  0  0  0  0  0  0  0  0  0
  -22.4382   -8.6957   20.2190 C   0  0  0  0  0  0  0  0  0  0  0  0
  -23.1110   -8.7934   22.5374 C   0  0  0  0  0  0  0  0  0  0  0  0
  -27.8167  -18.9247   29.1570 C   0  0  0  0  0  0  0  0  0  0  0  0
  -21.7628   -5.6345   23.7262 C   0  0  0  0  0  0  0  0  0  0  0  0
  -22.3834   -4.6530   24.4990 C   0  0  0  0  0  0  0  0  0  0  0  0
  -27.2578  -16.6005   29.4809 C   0  0  0  0  0  0  0  0  0  0  0  0
  -32.5797  -14.6493   23.3781 C   0  0  0  0  0  0  0  0  0  0  0  0
  -24.1550   -4.4864   22.8647 C   0  0  0  0  0  0  0  0  0  0  0  0
  -23.8451  -10.5006   20.9935 C   0  0  0  0  0  0  0  0  0  0  0  0
  -24.1062  -13.0317   20.8120 C   0  0  0  0  0  0  0  0  0  0  0  0
  -21.0622  -20.4200   34.9704 C   0  0  0  0  0  0  0  0  0  0  0  0
  -25.5092  -18.2734   29.5391 C   0  0  0  0  0  0  0  0  0  0  0  0
  -22.3081  -20.1392   34.3777 C   0  0  0  0  0  0  0  0  0  0  0  0
  -25.9007  -16.9294   29.6196 C   0  0  0  0  0  0  0  0  0  0  0  0
  -33.3534  -14.9631   24.4954 C   0  0  0  0  0  0  0  0  0  0  0  0
  -31.2002  -14.8542   23.4052 C   0  0  0  0  0  0  0  0  0  0  0  0
  -31.3682  -15.6866   25.6670 C   0  0  0  0  0  0  0  0  0  0  0  0
  -22.4177   -8.1592   21.5063 C   0  0  0  0  0  0  0  0  0  0  0  0
  -28.2104  -17.5931   29.2525 C   0  0  0  0  0  0  0  0  0  0  0  0
  -22.3382   -6.0419   22.5226 C   0  0  0  0  0  0  0  0  0  0  0  0
  -23.5795   -4.0790   24.0682 C   0  0  0  0  0  0  0  0  0  0  0  0
  -23.5343   -5.4679   22.0919 C   0  0  0  0  0  0  0  0  0  0  0  0
  -32.7477  -15.4817   25.6398 C   0  0  0  0  0  0  0  0  0  0  0  0
  -30.5945  -15.3728   24.5496 C   0  0  0  0  0  0  0  0  0  0  0  0
  -24.5829  -11.7097   20.7292 C   0  0  0  0  0  0  0  0  0  0  0  0
  -25.1855  -13.8081   20.4670 C   0  0  0  0  0  0  0  0  0  0  0  0
  -22.8044  -13.5148   21.1690 C   0  0  0  0  0  0  0  0  0  0  0  0
  -23.4724  -17.6572   31.9004 C   0  0  0  0  0  0  0  0  0  0  0  0
  -22.4262  -15.3509   29.8734 C   0  0  0  0  0  0  0  0  0  0  0  0
  -23.0970  -13.2855   27.2407 C   0  0  0  0  0  0  0  0  0  0  0  0
  -30.9285  -14.0016   21.0502 C   0  0  0  0  0  0  0  0  0  0  0  0
  -20.0996  -19.3231   35.3510 C   0  0  0  0  0  0  0  0  0  0  0  0
  -24.0587  -18.6528   29.6596 C   0  0  0  0  0  0  0  0  0  0  0  0
  -24.9040  -15.8261   29.8598 C   0  0  0  0  0  0  0  0  0  0  0  0
  -20.3873  -17.9931   34.6592 C   0  0  0  0  0  0  0  0  0  0  0  0
  -29.3959  -13.0196   17.9902 C   0  0  0  0  0  0  0  0  0  0  0  0
  -21.8747  -17.6631   34.7340 C   0  0  0  0  0  0  0  0  0  0  0  0
  -27.9515  -12.7106   18.3909 C   0  0  0  0  0  0  0  0  0  0  0  0
  -30.3875  -12.5973   19.0728 C   0  0  0  0  0  0  0  0  0  0  0  0
  -28.6591  -12.8141   20.8149 C   0  0  0  0  0  0  0  0  0  0  0  0
  -22.7126  -18.7269   34.0145 C   0  0  1  0  0  0  0  0  0  0  0  0
  -23.2317  -17.6190   30.4177 C   0  0  1  0  0  0  0  0  0  0  0  0
  -27.6188  -13.2809   19.7836 C   0  0  2  0  0  0  0  0  0  0  0  0
  -34.8282  -14.7427   24.4628 C   0  0  0  0  0  0  0  0  0  0  0  0
  -22.0577  -11.4857   25.8343 C   0  0  0  0  0  0  0  0  0  0  0  0
  -22.8233  -13.3510   32.1435 C   0  0  0  0  0  0  0  0  0  0  0  0
  -22.6978  -11.5106   30.4507 C   0  0  0  0  0  0  0  0  0  0  0  0
  -20.7371  -13.0112   30.8067 C   0  0  0  0  0  0  0  0  0  0  0  0
  -23.3660  -14.8973   24.7732 C   0  0  0  0  0  0  0  0  0  0  0  0
  -31.3980  -17.2513   27.6102 C   0  0  0  0  0  0  0  0  0  0  0  0
  -30.3218  -18.0911   28.2779 C   0  0  0  0  0  0  0  0  0  1  0  0
  -22.7837  -13.9058   29.6222 C   0  0  1  0  0  0  0  0  0  0  0  0
  -22.3144  -12.9779   25.9769 C   0  0  2  0  0  0  0  0  0  0  0  0
  -22.2797  -12.9654   30.7532 C   0  0  0  0  0  0  0  0  0  0  0  0
  -25.8650  -11.6460   20.3603 N   0  0  0  0  0  0  0  0  0  0  0  0
  -26.2032  -12.9377   20.2082 N   0  0  0  0  0  0  0  0  0  0  0  0
  -23.4985  -16.2483   29.9770 N   0  0  0  0  0  0  0  0  0  0  0  0
  -30.0112  -13.1784   20.3634 N   0  0  0  0  0  0  0  0  0  0  0  0
  -25.3537  -15.1434   20.3626 N   0  0  0  0  0  0  0  0  0  0  0  0
  -21.8116  -12.5810   21.4957 N   0  0  0  0  0  0  0  0  0  0  0  0
  -30.4480  -14.5236   22.2507 N   0  0  0  0  0  0  0  0  0  0  0  0
  -30.7969  -16.2028   26.8182 N   0  0  0  0  0  0  0  0  0  0  0  0
  -22.6506  -18.5350   32.5814 N   0  0  0  0  0  0  0  0  0  0  0  0
  -22.2634  -13.5808   28.2986 N   0  0  0  0  0  0  0  0  0  0  0  0
  -23.0656  -13.4424   24.7765 N   0  3  0  0  0  0  0  0  0  0  0  0
  -22.5250  -14.7377   21.1816 O   0  0  0  0  0  0  0  0  0  0  0  0
  -24.3385  -16.9421   32.3905 O   0  0  0  0  0  0  0  0  0  0  0  0
  -21.2391  -15.6727   29.9669 O   0  0  0  0  0  0  0  0  0  0  0  0
  -24.3250  -13.2622   27.2861 O   0  0  0  0  0  0  0  0  0  0  0  0
  -32.0473  -14.2488   20.5929 O   0  0  0  0  0  0  0  0  0  0  0  0
  -21.7213   -7.0169   21.7570 O   0  0  0  0  0  0  0  0  0  0  0  0
  -29.5228  -17.2594   29.1183 O   0  0  0  0  0  0  0  0  0  1  0  0
  -24.1761   -3.1376   24.8112 F   0  0  0  0  0  0  0  0  0  0  0  0
  -24.0925   -5.8560   20.9371 F   0  0  0  0  0  0  0  0  0  0  0  0
  -33.4948  -15.7822   26.7130 F   0  0  0  0  0  0  0  0  0  0  0  0
  -28.8781  -15.6279   24.5834 Cl  0  0  0  0  0  0  0  0  0  0  0  0
  1  2  1  0  0  0  0
  1  5  2  0  0  0  0
  2  6  2  0  0  0  0
  3  8  2  0  0  0  0
  3 16  1  0  0  0  0
  4  9  1  0  0  0  0
  4 16  2  0  0  0  0
  5 18  1  0  0  0  0
  6 20  1  0  0  0  0
  7 10  2  0  0  0  0
  7 19  1  0  0  0  0
  8 25  1  0  0  0  0
  9 25  2  0  0  0  0
 10 26  1  0  0  0  0
 11 12  2  0  0  0  0
 11 27  1  0  0  0  0
 12 28  1  0  0  0  0
 13 21  1  0  0  0  0
 13 26  2  0  0  0  0
 14 22  1  0  0  0  0
 14 23  2  0  0  0  0
 15 28  2  0  0  0  0
 15 29  1  0  0  0  0
 16 32  1  0  0  0  0
 17 32  1  0  0  0  0
 17 33  2  0  0  0  0
 17 34  1  0  0  0  0
 18 20  2  0  0  0  0
 18 39  1  0  0  0  0
 19 21  2  0  0  0  0
 19 40  1  0  0  0  0
 20 48  1  0  0  0  0
 21 41  1  0  0  0  0
 22 30  2  0  0  0  0
 22 51  1  0  0  0  0
 23 31  1  0  0  0  0
 23 68  1  0  0  0  0
 24 30  1  0  0  0  0
 24 31  2  0  0  0  0
 24 69  1  0  0  0  0
 25 78  1  0  0  0  0
 26 79  1  0  0  0  0
 27 29  2  0  0  0  0
 27 78  1  0  0  0  0
 28 80  1  0  0  0  0
 29 81  1  0  0  0  0
 30 82  1  0  0  0  0
 31 83  1  0  0  0  0
 32 62  2  0  0  0  0
 33 63  1  0  0  0  0
 33 66  1  0  0  0  0
 34 67  1  0  0  0  0
 34 73  2  0  0  0  0
 35 49  1  0  0  0  0
 35 70  1  0  0  0  0
 35 74  2  0  0  0  0
 36 59  1  0  0  0  0
 36 64  1  0  0  0  0
 36 75  2  0  0  0  0
 37 60  1  0  0  0  0
 37 71  1  0  0  0  0
 37 76  2  0  0  0  0
 38 65  1  0  0  0  0
 38 68  1  0  0  0  0
 38 77  2  0  0  0  0
 39 42  1  0  0  0  0
 40 49  1  0  0  0  0
 41 64  1  0  0  0  0
 42 44  1  0  0  0  0
 43 45  1  0  0  0  0
 43 46  1  0  0  0  0
 44 48  1  0  0  0  0
 45 50  1  0  0  0  0
 46 65  1  0  0  0  0
 47 50  1  0  0  0  0
 47 65  1  0  0  0  0
 48 70  1  0  0  0  0
 49 64  1  0  0  0  0
 50 63  1  0  0  0  0
 52 60  1  0  0  0  0
 53 61  1  0  0  0  0
 54 61  1  0  0  0  0
 55 61  1  0  0  0  0
 56 72  1  0  0  0  0
 57 58  1  0  0  0  0
 57 69  1  0  0  0  0
 58 79  1  0  0  0  0
 59 61  1  0  0  0  0
 59 71  1  0  0  0  0
 60 72  1  0  0  0  0
 62 63  1  0  0  0  0
M  CHG  1  72   1
M  ISO  4  38 100  58 101  68 100  79 101
M  END
> <Batch ID>
0013

> <Smiles>
CNC(C)C(=O)NC(C(=O)N1Cc2cc([101O:1][101CH2:1]CNc3c(F)c(C)cc([100NH:0][100C:0](=O)N4CCCC(n5nc(-c6ccc(Oc7ccc(F)cc7F)cc6)c(C(N)=O)c5N)C4)c3Cl)ccc2CC1C(=O)NC1CCCc2ccccc21)C(C)(C)C

> <Shape>
0.149

> <Color>
0.192

> <Negative vol penalty>
0.000

$$$$

  -OEChem-04052315503D

 82 90  0     1  0  0  0  0  0999 V2000
  -30.4376  -34.9901   24.6790 C   0  0  0  0  0  0  0  0  0  0  0  0
  -30.4887  -34.2162   23.5241 C   0  0  0  0  0  0  0  0  0  0  0  0
  -24.6061   -9.0593   21.1832 C   0  0  0  0  0  0  0  0  0  0  0  0
  -22.8469  -10.6803   20.8447 C   0  0  0  0  0  0  0  0  0  0  0  0
  -29.6777  -34.5655   25.7682 C   0  0  0  0  0  0  0  0  0  0  0  0
  -29.7807  -33.0166   23.4581 C   0  0  0  0  0  0  0  0  0  0  0  0
  -26.2681  -28.8560   18.8032 C   0  0  0  0  0  0  0  0  0  0  0  0
  -23.6505   -8.0571   21.3501 C   0  0  0  0  0  0  0  0  0  0  0  0
  -21.8913   -9.6780   21.0116 C   0  0  0  0  0  0  0  0  0  0  0  0
  -26.2251  -27.5353   18.3587 C   0  0  0  0  0  0  0  0  0  0  0  0
  -21.5735   -6.9776   23.7884 C   0  0  0  0  0  0  0  0  0  0  0  0
  -21.7478   -6.0869   24.8475 C   0  0  0  0  0  0  0  0  0  0  0  0
  -24.8824  -26.9412   20.2727 C   0  0  0  0  0  0  0  0  0  0  0  0
  -27.4646  -20.1956   21.8263 C   0  0  0  0  0  0  0  0  0  0  0  0
  -27.0581  -20.6290   19.1005 C   0  0  0  0  0  0  0  0  0  0  0  0
  -21.8407   -4.2467   23.2847 C   0  0  0  0  0  0  0  0  0  0  0  0
  -24.2043  -10.3710   20.9306 C   0  0  0  0  0  0  0  0  0  0  0  0
  -25.7964  -11.8128   19.5543 C   0  0  0  0  0  0  0  0  0  0  0  0
  -28.9524  -33.3650   25.7119 C   0  0  0  0  0  0  0  0  0  0  0  0
  -25.6267  -29.2276   19.9936 C   0  0  0  0  0  0  0  0  0  0  0  0
  -29.0115  -32.5750   24.5480 C   0  0  0  0  0  0  0  0  0  0  0  0
  -24.9166  -28.2678   20.7288 C   0  0  0  0  0  0  0  0  0  0  0  0
  -27.4101  -19.1130   20.9485 C   0  0  0  0  0  0  0  0  0  0  0  0
  -27.1126  -21.7116   19.9784 C   0  0  0  0  0  0  0  0  0  0  0  0
  -22.2931   -8.3664   21.2643 C   0  0  0  0  0  0  0  0  0  0  0  0
  -25.5346  -26.5770   19.0949 C   0  0  0  0  0  0  0  0  0  0  0  0
  -21.5327   -6.5029   22.4773 C   0  0  0  0  0  0  0  0  0  0  0  0
  -21.8815   -4.7215   24.5957 C   0  0  0  0  0  0  0  0  0  0  0  0
  -27.3158  -21.4950   21.3412 C   0  0  0  0  0  0  0  0  0  0  0  0
  -21.6664   -5.1375   22.2255 C   0  0  0  0  0  0  0  0  0  0  0  0
  -27.2069  -19.3297   19.5856 C   0  0  0  0  0  0  0  0  0  0  0  0
  -25.1910  -11.4069   20.7586 C   0  0  0  0  0  0  0  0  0  0  0  0
  -26.6531  -12.8209   19.9233 C   0  0  0  0  0  0  0  0  0  0  0  0
  -25.6017  -11.3224   18.2211 C   0  0  0  0  0  0  0  0  0  0  0  0
  -26.5842  -30.4228   22.7789 C   0  0  0  0  0  0  0  0  0  0  0  0
  -23.3972  -30.5921   23.3589 C   0  0  0  0  0  0  0  0  0  0  0  0
  -20.2612  -29.4372   22.6671 C   0  0  0  0  0  0  0  0  0  0  0  0
  -27.7716  -17.4509   22.8068 C   0  0  0  0  0  0  0  0  0  0  0  0
  -28.1830  -32.9239   26.9318 C   0  0  0  0  0  0  0  0  0  0  0  0
  -25.6601  -30.6619   20.4455 C   0  0  0  0  0  0  0  0  0  0  0  0
  -24.1943  -28.6195   22.0028 C   0  0  0  0  0  0  0  0  0  0  0  0
  -27.1620  -31.8261   26.6440 C   0  0  0  0  0  0  0  0  0  0  0  0
  -28.1630  -14.3473   24.5072 C   0  0  0  0  0  0  0  0  0  0  0  0
  -27.7851  -30.7291   25.7866 C   0  0  0  0  0  0  0  0  0  0  0  0
  -27.4745  -13.3390   23.5845 C   0  0  0  0  0  0  0  0  0  0  0  0
  -27.4331  -15.6892   24.5263 C   0  0  0  0  0  0  0  0  0  0  0  0
  -26.5037  -15.2754   22.2826 C   0  0  0  0  0  0  0  0  0  0  0  0
  -28.2376  -31.2800   24.4290 C   0  0  1  0  0  0  0  0  0  0  0  0
  -25.4033  -30.8233   21.9406 C   0  0  1  0  0  0  0  0  0  0  0  0
  -27.2394  -13.9293   22.1803 C   0  0  2  0  0  0  0  0  0  0  0  0
  -17.8595  -29.7418   23.3278 C   0  0  0  0  0  0  0  0  0  0  0  0
  -23.9089  -29.0303   25.9296 C   0  0  0  0  0  0  0  0  0  0  0  0
  -21.4545  -28.5494   26.0437 C   0  0  0  0  0  0  0  0  0  0  0  0
  -22.2688  -30.9046   26.1566 C   0  0  0  0  0  0  0  0  0  0  0  0
  -19.4926  -30.2643   19.9313 C   0  0  0  0  0  0  0  0  0  0  0  0
  -26.7491  -23.3143   18.1008 C   0  0  0  0  0  0  0  0  0  0  0  0
  -26.6097  -24.8156   17.9127 C   0  0  0  0  0  0  0  0  0  1  0  0
  -22.3685  -29.6629   23.9566 C   0  0  1  0  0  0  0  0  0  0  0  0
  -18.9625  -30.1650   22.3701 C   0  0  2  0  0  0  0  0  0  0  0  0
  -22.5153  -29.5294   25.4987 C   0  0  0  0  0  0  0  0  0  0  0  0
  -25.6263  -12.1004   21.8139 N   0  0  0  0  0  0  0  0  0  0  0  0
  -26.5144  -12.9522   21.2738 N   0  0  0  0  0  0  0  0  0  0  0  0
  -24.2615  -30.0337   22.4065 N   0  0  0  0  0  0  0  0  0  0  0  0
  -27.2498  -16.1891   23.1620 N   0  0  0  0  0  0  0  0  0  0  0  0
  -27.5041  -13.5989   19.2212 N   0  0  0  0  0  0  0  0  0  0  0  0
  -24.6837  -10.2829   18.0189 N   0  0  0  0  0  0  0  0  0  0  0  0
  -27.5645  -17.8063   21.4744 N   0  0  0  0  0  0  0  0  0  0  0  0
  -26.9637  -23.0011   19.4951 N   0  0  0  0  0  0  0  0  0  0  0  0
  -27.1019  -31.4478   23.5477 N   0  0  0  0  0  0  0  0  0  0  0  0
  -21.0677  -30.1595   23.5209 N   0  0  0  0  0  0  0  0  0  0  0  0
  -18.5133  -29.8762   20.9788 N   0  3  0  0  0  0  0  0  0  0  0  0
  -26.2354  -11.7812   17.2405 O   0  0  0  0  0  0  0  0  0  0  0  0
  -26.9944  -29.2690   22.7329 O   0  0  0  0  0  0  0  0  0  0  0  0
  -23.4279  -31.7717   23.7183 O   0  0  0  0  0  0  0  0  0  0  0  0
  -20.5314  -28.3363   22.1922 O   0  0  0  0  0  0  0  0  0  0  0  0
  -28.3828  -18.1519   23.6174 O   0  0  0  0  0  0  0  0  0  0  0  0
  -21.3604   -7.3886   21.4268 O   0  0  0  0  0  0  0  0  0  0  0  0
  -25.4915  -25.2871   18.6636 O   0  0  0  0  0  0  0  0  0  1  0  0
  -22.0504   -3.8664   25.6128 F   0  0  0  0  0  0  0  0  0  0  0  0
  -27.3687  -22.5281   22.1940 F   0  0  0  0  0  0  0  0  0  0  0  0
  -21.6292   -4.6756   20.9681 F   0  0  0  0  0  0  0  0  0  0  0  0
  -27.1323  -18.0176   18.4639 Cl  0  0  0  0  0  0  0  0  0  0  0  0
  1  2  1  0  0  0  0
  1  5  2  0  0  0  0
  2  6  2  0  0  0  0
  3  8  2  0  0  0  0
  3 17  1  0  0  0  0
  4  9  1  0  0  0  0
  4 17  2  0  0  0  0
  5 19  1  0  0  0  0
  6 21  1  0  0  0  0
  7 10  2  0  0  0  0
  7 20  1  0  0  0  0
  8 25  1  0  0  0  0
  9 25  2  0  0  0  0
 10 26  1  0  0  0  0
 11 12  2  0  0  0  0
 11 27  1  0  0  0  0
 12 28  1  0  0  0  0
 13 22  1  0  0  0  0
 13 26  2  0  0  0  0
 14 23  2  0  0  0  0
 14 29  1  0  0  0  0
 15 24  1  0  0  0  0
 15 31  2  0  0  0  0
 16 28  2  0  0  0  0
 16 30  1  0  0  0  0
 17 32  1  0  0  0  0
 18 32  1  0  0  0  0
 18 33  2  0  0  0  0
 18 34  1  0  0  0  0
 19 21  2  0  0  0  0
 19 39  1  0  0  0  0
 20 22  2  0  0  0  0
 20 40  1  0  0  0  0
 21 48  1  0  0  0  0
 22 41  1  0  0  0  0
 23 31  1  0  0  0  0
 23 67  1  0  0  0  0
 24 29  2  0  0  0  0
 24 68  1  0  0  0  0
 25 77  1  0  0  0  0
 26 78  1  0  0  0  0
 27 30  2  0  0  0  0
 27 77  1  0  0  0  0
 28 79  1  0  0  0  0
 29 80  1  0  0  0  0
 30 81  1  0  0  0  0
 31 82  1  0  0  0  0
 32 61  2  0  0  0  0
 33 62  1  0  0  0  0
 33 65  1  0  0  0  0
 34 66  1  0  0  0  0
 34 72  2  0  0  0  0
 35 49  1  0  0  0  0
 35 69  1  0  0  0  0
 35 73  2  0  0  0  0
 36 58  1  0  0  0  0
 36 63  1  0  0  0  0
 36 74  2  0  0  0  0
 37 59  1  0  0  0  0
 37 70  1  0  0  0  0
 37 75  2  0  0  0  0
 38 64  1  0  0  0  0
 38 67  1  0  0  0  0
 38 76  2  0  0  0  0
 39 42  1  0  0  0  0
 40 49  1  0  0  0  0
 41 63  1  0  0  0  0
 42 44  1  0  0  0  0
 43 45  1  0  0  0  0
 43 46  1  0  0  0  0
 44 48  1  0  0  0  0
 45 50  1  0  0  0  0
 46 64  1  0  0  0  0
 47 50  1  0  0  0  0
 47 64  1  0  0  0  0
 48 69  1  0  0  0  0
 49 63  1  0  0  0  0
 50 62  1  0  0  0  0
 51 59  1  0  0  0  0
 52 60  1  0  0  0  0
 53 60  1  0  0  0  0
 54 60  1  0  0  0  0
 55 71  1  0  0  0  0
 56 57  1  0  0  0  0
 56 68  1  0  0  0  0
 57 78  1  0  0  0  0
 58 60  1  0  0  0  0
 58 70  1  0  0  0  0
 59 71  1  0  0  0  0
 61 62  1  0  0  0  0
M  CHG  1  71   1
M  ISO  4  38 100  57 101  67 100  78 101
M  END
> <Batch ID>
0013

> <Smiles>
CNC(C)C(=O)NC(C(=O)N1Cc2cc([101O:1][101CH2:1]CNc3cc(Cl)c([100NH:0][100C:0](=O)N4CCCC(n5nc(-c6ccc(Oc7ccc(F)cc7F)cc6)c(C(N)=O)c5N)C4)cc3F)ccc2CC1C(=O)NC1CCCc2ccccc21)C(C)(C)C

> <Shape>
0.273

> <Color>
0.108

> <Negative vol penalty>
0.000

$$$$

  -OEChem-04052315503D

 85 93  0     1  0  0  0  0  0999 V2000
  -30.4183  -24.6240   22.6315 C   0  0  0  0  0  0  0  0  0  0  0  0
  -29.3172  -23.9393   23.1356 C   0  0  0  0  0  0  0  0  0  0  0  0
  -24.6512  -30.0981   20.3333 C   0  0  0  0  0  0  0  0  0  0  0  0
  -24.0706  -28.6752   22.1975 C   0  0  0  0  0  0  0  0  0  0  0  0
  -30.8513  -24.3823   21.3284 C   0  0  0  0  0  0  0  0  0  0  0  0
  -28.6477  -23.0132   22.3365 C   0  0  0  0  0  0  0  0  0  0  0  0
  -25.0432  -16.8379   22.7713 C   0  0  0  0  0  0  0  0  0  0  0  0
  -24.3841  -31.2252   21.1104 C   0  0  0  0  0  0  0  0  0  0  0  0
  -23.8035  -29.8023   22.9747 C   0  0  0  0  0  0  0  0  0  0  0  0
  -23.8283  -16.2707   22.3890 C   0  0  0  0  0  0  0  0  0  0  0  0
  -24.2020  -34.4820   22.7150 C   0  0  0  0  0  0  0  0  0  0  0  0
  -25.1178  -35.5331   22.6693 C   0  0  0  0  0  0  0  0  0  0  0  0
  -24.7142  -15.8768   20.1801 C   0  0  0  0  0  0  0  0  0  0  0  0
  -19.1601  -19.2531   20.8871 C   0  0  0  0  0  0  0  0  0  0  0  0
  -26.8498  -34.0593   23.4849 C   0  0  0  0  0  0  0  0  0  0  0  0
  -24.4944  -28.8230   20.8769 C   0  0  0  0  0  0  0  0  0  0  0  0
  -25.9999  -26.9865   19.9451 C   0  0  0  0  0  0  0  0  0  0  0  0
  -30.1927  -23.4457   20.5162 C   0  0  0  0  0  0  0  0  0  0  0  0
  -26.1008  -16.9389   21.8561 C   0  0  0  0  0  0  0  0  0  0  0  0
  -29.0715  -22.7597   21.0209 C   0  0  0  0  0  0  0  0  0  0  0  0
  -25.9423  -16.4434   20.5540 C   0  0  0  0  0  0  0  0  0  0  0  0
  -18.8031  -20.5353   21.3045 C   0  0  0  0  0  0  0  0  0  0  0  0
  -19.3624  -21.6519   20.6833 C   0  0  0  0  0  0  0  0  0  0  0  0
  -20.6358  -20.2043   19.2273 C   0  0  0  0  0  0  0  0  0  0  0  0
  -20.0765  -19.0876   19.8485 C   0  0  0  0  0  0  0  0  0  0  0  0
  -20.2787  -21.4865   19.6447 C   0  0  0  0  0  0  0  0  0  0  0  0
  -23.9603  -31.0773   22.4311 C   0  0  0  0  0  0  0  0  0  0  0  0
  -23.6627  -15.7926   21.0924 C   0  0  0  0  0  0  0  0  0  0  0  0
  -24.6100  -33.2196   23.1457 C   0  0  0  0  0  0  0  0  0  0  0  0
  -26.4417  -35.3217   23.0543 C   0  0  0  0  0  0  0  0  0  0  0  0
  -25.9339  -33.0082   23.5306 C   0  0  0  0  0  0  0  0  0  0  0  0
  -24.7696  -27.6583   20.0745 C   0  0  0  0  0  0  0  0  0  0  0  0
  -25.7382  -25.9547   19.0772 C   0  0  0  0  0  0  0  0  0  0  0  0
  -27.2662  -27.2697   20.5551 C   0  0  0  0  0  0  0  0  0  0  0  0
  -27.7342  -19.3446   20.5721 C   0  0  0  0  0  0  0  0  0  0  0  0
  -29.5290  -16.9475   19.3251 C   0  0  0  0  0  0  0  0  0  0  0  0
  -19.9557  -16.5743   19.9608 C   0  0  0  0  0  0  0  0  0  0  0  0
  -29.7356  -13.6765   18.3738 C   0  0  0  0  0  0  0  0  0  0  0  0
  -20.7568  -22.9712   17.6665 C   0  0  0  0  0  0  0  0  0  0  0  0
  -30.6685  -23.2528   19.0981 C   0  0  0  0  0  0  0  0  0  0  0  0
  -27.4139  -17.5291   22.2919 C   0  0  0  0  0  0  0  0  0  0  0  0
  -27.0535  -16.5097   19.5395 C   0  0  0  0  0  0  0  0  0  0  0  0
  -30.1329  -21.9821   18.4434 C   0  0  0  0  0  0  0  0  0  0  0  0
  -22.8701  -24.7644   15.4314 C   0  0  0  0  0  0  0  0  0  0  0  0
  -28.6347  -21.8432   18.6939 C   0  0  0  0  0  0  0  0  0  0  0  0
  -23.7132  -25.6444   16.3571 C   0  0  0  0  0  0  0  0  0  0  0  0
  -21.4356  -24.6211   15.9366 C   0  0  0  0  0  0  0  0  0  0  0  0
  -22.1528  -25.0500   18.2541 C   0  0  0  0  0  0  0  0  0  0  0  0
  -28.3342  -21.7294   20.1933 C   0  0  1  0  0  0  0  0  0  0  0  0
  -28.2517  -18.0478   21.1272 C   0  0  1  0  0  0  0  0  0  0  0  0
  -23.6230  -25.1710   17.8210 C   0  0  2  0  0  0  0  0  0  0  0  0
  -17.8207  -20.6847   22.4198 C   0  0  0  0  0  0  0  0  0  0  0  0
  -18.9736  -23.0247   21.1364 C   0  0  0  0  0  0  0  0  0  0  0  0
  -21.6191  -20.0244   18.1118 C   0  0  0  0  0  0  0  0  0  0  0  0
  -31.3187  -12.0179   17.3540 C   0  0  0  0  0  0  0  0  0  0  0  0
  -29.0689  -18.1994   16.5808 C   0  0  0  0  0  0  0  0  0  0  0  0
  -29.8296  -16.0486   15.5493 C   0  0  0  0  0  0  0  0  0  0  0  0
  -31.3955  -17.3699   16.9723 C   0  0  0  0  0  0  0  0  0  0  0  0
  -29.6569  -11.9495   20.7760 C   0  0  0  0  0  0  0  0  0  0  0  0
  -20.5899  -15.3952   19.2318 C   0  0  0  0  0  0  0  0  0  0  0  0
  -22.1066  -15.3685   19.3447 C   0  0  0  0  0  0  0  0  0  1  0  0
  -29.4832  -16.1245   18.0604 C   0  0  1  0  0  0  0  0  0  0  0  0
  -30.7830  -12.6122   18.6473 C   0  0  2  0  0  0  0  0  0  0  0  0
  -29.9225  -16.9360   16.8090 C   0  0  0  0  0  0  0  0  0  0  0  0
  -23.7984  -27.1004   19.3468 N   0  0  0  0  0  0  0  0  0  0  0  0
  -24.4184  -26.0671   18.7518 N   0  0  0  0  0  0  0  0  0  0  0  0
  -28.3162  -17.1013   20.0117 N   0  0  0  0  0  0  0  0  0  0  0  0
  -21.4285  -24.1651   17.3283 N   0  0  0  0  0  0  0  0  0  0  0  0
  -26.5104  -24.9714   18.5681 N   0  0  0  0  0  0  0  0  0  0  0  0
  -27.3599  -28.3676   21.4213 N   0  0  0  0  0  0  0  0  0  0  0  0
  -20.4250  -17.7778   19.4414 N   0  0  0  0  0  0  0  0  0  0  0  0
  -20.8460  -22.6211   19.0133 N   0  0  0  0  0  0  0  0  0  0  0  0
  -28.6280  -20.3940   20.6677 N   0  0  0  0  0  0  0  0  0  0  0  0
  -30.2913  -14.9371   18.3166 N   0  0  0  0  0  0  0  0  0  0  0  0
  -30.2010  -11.5107   19.4651 N   0  3  0  0  0  0  0  0  0  0  0  0
  -28.2884  -26.5797   20.3257 O   0  0  0  0  0  0  0  0  0  0  0  0
  -26.6079  -19.3893   20.0914 O   0  0  0  0  0  0  0  0  0  0  0  0
  -30.6026  -17.4299   19.6941 O   0  0  0  0  0  0  0  0  0  0  0  0
  -19.1496  -16.4211   20.8724 O   0  0  0  0  0  0  0  0  0  0  0  0
  -28.5443  -13.4153   18.2223 O   0  0  0  0  0  0  0  0  0  0  0  0
  -20.1703  -22.2941   16.8183 O   0  0  0  0  0  0  0  0  0  0  0  0
  -23.6998  -32.1769   23.1897 O   0  0  0  0  0  0  0  0  0  0  0  0
  -22.4777  -15.2391   20.7165 O   0  0  0  0  0  0  0  0  0  1  0  0
  -27.3215  -36.3308   23.0089 F   0  0  0  0  0  0  0  0  0  0  0  0
  -26.3321  -31.7973   23.9441 F   0  0  0  0  0  0  0  0  0  0  0  0
  1  2  1  0  0  0  0
  1  5  2  0  0  0  0
  2  6  2  0  0  0  0
  3  8  2  0  0  0  0
  3 16  1  0  0  0  0
  4  9  1  0  0  0  0
  4 16  2  0  0  0  0
  5 18  1  0  0  0  0
  6 20  1  0  0  0  0
  7 10  2  0  0  0  0
  7 19  1  0  0  0  0
  8 27  1  0  0  0  0
  9 27  2  0  0  0  0
 10 28  1  0  0  0  0
 11 12  2  0  0  0  0
 11 29  1  0  0  0  0
 12 30  1  0  0  0  0
 13 21  1  0  0  0  0
 13 28  2  0  0  0  0
 14 22  2  0  0  0  0
 14 25  1  0  0  0  0
 15 30  2  0  0  0  0
 15 31  1  0  0  0  0
 16 32  1  0  0  0  0
 17 32  1  0  0  0  0
 17 33  2  0  0  0  0
 17 34  1  0  0  0  0
 18 20  2  0  0  0  0
 18 40  1  0  0  0  0
 19 21  2  0  0  0  0
 19 41  1  0  0  0  0
 20 49  1  0  0  0  0
 21 42  1  0  0  0  0
 22 23  1  0  0  0  0
 22 52  1  0  0  0  0
 23 26  2  0  0  0  0
 23 53  1  0  0  0  0
 24 25  2  0  0  0  0
 24 26  1  0  0  0  0
 24 54  1  0  0  0  0
 25 71  1  0  0  0  0
 26 72  1  0  0  0  0
 27 82  1  0  0  0  0
 28 83  1  0  0  0  0
 29 31  2  0  0  0  0
 29 82  1  0  0  0  0
 30 84  1  0  0  0  0
 31 85  1  0  0  0  0
 32 65  2  0  0  0  0
 33 66  1  0  0  0  0
 33 69  1  0  0  0  0
 34 70  1  0  0  0  0
 34 76  2  0  0  0  0
 35 50  1  0  0  0  0
 35 73  1  0  0  0  0
 35 77  2  0  0  0  0
 36 62  1  0  0  0  0
 36 67  1  0  0  0  0
 36 78  2  0  0  0  0
 37 60  1  0  0  0  0
 37 71  1  0  0  0  0
 37 79  2  0  0  0  0
 38 63  1  0  0  0  0
 38 74  1  0  0  0  0
 38 80  2  0  0  0  0
 39 68  1  0  0  0  0
 39 72  1  0  0  0  0
 39 81  2  0  0  0  0
 40 43  1  0  0  0  0
 41 50  1  0  0  0  0
 42 67  1  0  0  0  0
 43 45  1  0  0  0  0
 44 46  1  0  0  0  0
 44 47  1  0  0  0  0
 45 49  1  0  0  0  0
 46 51  1  0  0  0  0
 47 68  1  0  0  0  0
 48 51  1  0  0  0  0
 48 68  1  0  0  0  0
 49 73  1  0  0  0  0
 50 67  1  0  0  0  0
 51 66  1  0  0  0  0
 55 63  1  0  0  0  0
 56 64  1  0  0  0  0
 57 64  1  0  0  0  0
 58 64  1  0  0  0  0
 59 75  1  0  0  0  0
 60 61  1  0  0  0  0
 61 83  1  0  0  0  0
 62 64  1  0  0  0  0
 62 74  1  0  0  0  0
 63 75  1  0  0  0  0
 65 66  1  0  0  0  0
M  CHG  1  75   1
M  ISO  4  39 100  61 101  72 100  83 101
M  END
> <Batch ID>
0013

> <Smiles>
CNC(C)C(=O)NC(C(=O)N1Cc2cc([101O:1][101CH2:1]CC(=O)Nc3cc(C)c(C)c([100NH:0][100C:0](=O)N4CCCC(n5nc(-c6ccc(Oc7ccc(F)cc7F)cc6)c(C(N)=O)c5N)C4)c3C)ccc2CC1C(=O)NC1CCCc2ccccc21)C(C)(C)C

> <Shape>
0.223

> <Color>
0.067

> <Negative vol penalty>
0.000

$$$$

  -OEChem-04052315503D

 85 93  0     1  0  0  0  0  0999 V2000
  -22.8848  -18.6745   22.2239 C   0  0  0  0  0  0  0  0  0  0  0  0
  -24.1523  -19.1530   22.5402 C   0  0  0  0  0  0  0  0  0  0  0  0
  -23.1762   -9.7634   20.0326 C   0  0  0  0  0  0  0  0  0  0  0  0
  -23.7999  -10.0007   22.3546 C   0  0  0  0  0  0  0  0  0  0  0  0
  -21.9575  -19.5143   21.6086 C   0  0  0  0  0  0  0  0  0  0  0  0
  -24.4935  -20.4714   22.2403 C   0  0  0  0  0  0  0  0  0  0  0  0
  -26.8978  -22.7724   26.0573 C   0  0  0  0  0  0  0  0  0  0  0  0
  -22.4547   -8.6110   20.3441 C   0  0  0  0  0  0  0  0  0  0  0  0
  -23.0783   -8.8483   22.6662 C   0  0  0  0  0  0  0  0  0  0  0  0
  -28.2475  -22.4708   26.2336 C   0  0  0  0  0  0  0  0  0  0  0  0
  -19.8463   -7.9920   23.1579 C   0  0  0  0  0  0  0  0  0  0  0  0
  -19.0237   -8.0288   24.2837 C   0  0  0  0  0  0  0  0  0  0  0  0
  -28.8460  -24.5199   25.1102 C   0  0  0  0  0  0  0  0  0  0  0  0
  -31.6915  -17.4518   22.0422 C   0  0  0  0  0  0  0  0  0  0  0  0
  -20.2786   -6.2099   25.2603 C   0  0  0  0  0  0  0  0  0  0  0  0
  -23.8489  -10.4582   21.0379 C   0  0  0  0  0  0  0  0  0  0  0  0
  -24.1196  -12.9734   20.7091 C   0  0  0  0  0  0  0  0  0  0  0  0
  -22.2842  -20.8464   21.3097 C   0  0  0  0  0  0  0  0  0  0  0  0
  -26.5115  -23.9467   25.3953 C   0  0  0  0  0  0  0  0  0  0  0  0
  -23.5701  -21.3294   21.6191 C   0  0  0  0  0  0  0  0  0  0  0  0
  -27.4907  -24.8354   24.9290 C   0  0  0  0  0  0  0  0  0  0  0  0
  -29.4350  -18.3031   21.8997 C   0  0  0  0  0  0  0  0  0  0  0  0
  -31.2455  -19.7779   22.5193 C   0  0  0  0  0  0  0  0  0  0  0  0
  -30.3358  -17.2440   21.7882 C   0  0  0  0  0  0  0  0  0  0  0  0
  -22.4057   -8.1535   21.6609 C   0  0  0  0  0  0  0  0  0  0  0  0
  -29.2218  -23.3432   25.7575 C   0  0  0  0  0  0  0  0  0  0  0  0
  -20.8851   -7.0640   23.0833 C   0  0  0  0  0  0  0  0  0  0  0  0
  -19.2398   -7.1378   25.3349 C   0  0  0  0  0  0  0  0  0  0  0  0
  -21.1013   -6.1730   24.1345 C   0  0  0  0  0  0  0  0  0  0  0  0
  -32.1463  -18.7188   22.4078 C   0  0  0  0  0  0  0  0  0  0  0  0
  -29.8898  -19.5701   22.2653 C   0  0  0  0  0  0  0  0  0  0  0  0
  -24.5949  -11.6483   20.7166 C   0  0  0  0  0  0  0  0  0  0  0  0
  -25.2076  -13.7264   20.3408 C   0  0  0  0  0  0  0  0  0  0  0  0
  -22.8115  -13.4785   21.0083 C   0  0  0  0  0  0  0  0  0  0  0  0
  -24.8854  -24.5946   22.7420 C   0  0  0  0  0  0  0  0  0  0  0  0
  -25.1796  -27.6556   23.7744 C   0  0  0  0  0  0  0  0  0  0  0  0
  -26.8995  -29.9269   25.6532 C   0  0  0  0  0  0  0  0  0  0  0  0
  -30.6195  -14.9783   20.7239 C   0  0  0  0  0  0  0  0  0  0  0  0
  -21.2645  -21.7026   20.6012 C   0  0  0  0  0  0  0  0  0  0  0  0
  -25.0512  -24.2706   25.2367 C   0  0  0  0  0  0  0  0  0  0  0  0
  -27.1282  -26.1190   24.2295 C   0  0  0  0  0  0  0  0  0  0  0  0
  -21.5785  -23.1955   20.6568 C   0  0  0  0  0  0  0  0  0  0  0  0
  -29.7204  -12.3259   18.5255 C   0  0  0  0  0  0  0  0  0  0  0  0
  -23.0447  -23.4455   20.3185 C   0  0  0  0  0  0  0  0  0  0  0  0
  -28.2677  -12.0222   18.8989 C   0  0  0  0  0  0  0  0  0  0  0  0
  -30.5561  -12.6928   19.7505 C   0  0  0  0  0  0  0  0  0  0  0  0
  -28.5501  -13.4681   20.9524 C   0  0  0  0  0  0  0  0  0  0  0  0
  -23.9693  -22.7606   21.3321 C   0  0  1  0  0  0  0  0  0  0  0  0
  -24.7755  -25.2423   24.0933 C   0  0  1  0  0  0  0  0  0  0  0  0
  -27.6538  -13.1565   19.7428 C   0  0  2  0  0  0  0  0  0  0  0  0
  -27.9822  -18.0615   21.6224 C   0  0  0  0  0  0  0  0  0  0  0  0
  -26.9237  -32.3597   26.2684 C   0  0  0  0  0  0  0  0  0  0  0  0
  -33.4039  -22.3877   26.0478 C   0  0  0  0  0  0  0  0  0  0  0  0
  -26.3533  -28.3328   21.0406 C   0  0  0  0  0  0  0  0  0  0  0  0
  -27.2147  -30.4710   22.0175 C   0  0  0  0  0  0  0  0  0  0  0  0
  -24.7595  -30.0360   21.9425 C   0  0  0  0  0  0  0  0  0  0  0  0
  -26.5060  -29.3241   28.5239 C   0  0  0  0  0  0  0  0  0  0  0  0
  -31.7403  -21.1386   22.9126 C   0  0  0  0  0  0  0  0  0  0  0  0
  -31.4462  -23.5374   24.9386 C   0  0  0  0  0  0  0  0  0  1  0  0
  -26.1956  -28.7556   23.5827 C   0  0  1  0  0  0  0  0  0  0  0  0
  -26.4301  -30.9724   26.6487 C   0  0  2  0  0  0  0  0  0  0  0  0
  -32.6126  -22.5716   24.7630 C   0  0  2  0  0  0  0  0  0  0  0  0
  -26.1380  -29.3738   22.1573 C   0  0  0  0  0  0  0  0  0  0  0  0
  -25.8844  -11.5612   20.3797 N   0  0  0  0  0  0  0  0  0  0  0  0
  -26.2286  -12.8410   20.1570 N   0  0  0  0  0  0  0  0  0  0  0  0
  -25.6872  -26.3881   24.0931 N   0  0  0  0  0  0  0  0  0  0  0  0
  -29.9153  -13.7767   20.4986 N   0  0  0  0  0  0  0  0  0  0  0  0
  -25.3810  -15.0528   20.1594 N   0  0  0  0  0  0  0  0  0  0  0  0
  -21.8099  -12.5671   21.3696 N   0  0  0  0  0  0  0  0  0  0  0  0
  -29.8973  -15.9485   21.4180 N   0  0  0  0  0  0  0  0  0  0  0  0
  -24.0292  -23.5256   22.5591 N   0  0  0  0  0  0  0  0  0  0  0  0
  -25.9681  -29.7136   24.6592 N   0  0  0  0  0  0  0  0  0  0  0  0
  -26.9353  -30.6517   28.0136 N   0  3  0  0  0  0  0  0  0  0  0  0
  -32.0699  -21.2429   24.3568 N   0  3  0  0  0  0  0  0  0  0  0  0
  -22.5347  -14.7001   20.9408 O   0  0  0  0  0  0  0  0  0  0  0  0
  -25.6867  -25.0333   21.9252 O   0  0  0  0  0  0  0  0  0  0  0  0
  -23.9793  -27.9132   23.6531 O   0  0  0  0  0  0  0  0  0  0  0  0
  -27.9856  -29.3591   25.7459 O   0  0  0  0  0  0  0  0  0  0  0  0
  -31.7684  -15.1453   20.3065 O   0  0  0  0  0  0  0  0  0  0  0  0
  -21.7015   -7.0292   21.9653 O   0  0  0  0  0  0  0  0  0  0  0  0
  -30.5400  -23.0509   25.9278 O   0  0  0  0  0  0  0  0  0  1  0  0
  -18.4506   -7.1744   26.4166 F   0  0  0  0  0  0  0  0  0  0  0  0
  -22.0984   -5.2801   24.0690 F   0  0  0  0  0  0  0  0  0  0  0  0
  -33.8327  -18.9312   22.7129 Cl  0  0  0  0  0  0  0  0  0  0  0  0
  -28.7681  -20.8846   22.4040 Cl  0  0  0  0  0  0  0  0  0  0  0  0
  1  2  1  0  0  0  0
  1  5  2  0  0  0  0
  2  6  2  0  0  0  0
  3  8  2  0  0  0  0
  3 16  1  0  0  0  0
  4  9  1  0  0  0  0
  4 16  2  0  0  0  0
  5 18  1  0  0  0  0
  6 20  1  0  0  0  0
  7 10  2  0  0  0  0
  7 19  1  0  0  0  0
  8 25  1  0  0  0  0
  9 25  2  0  0  0  0
 10 26  1  0  0  0  0
 11 12  2  0  0  0  0
 11 27  1  0  0  0  0
 12 28  1  0  0  0  0
 13 21  1  0  0  0  0
 13 26  2  0  0  0  0
 14 24  1  0  0  0  0
 14 30  2  0  0  0  0
 15 28  2  0  0  0  0
 15 29  1  0  0  0  0
 16 32  1  0  0  0  0
 17 32  1  0  0  0  0
 17 33  2  0  0  0  0
 17 34  1  0  0  0  0
 18 20  2  0  0  0  0
 18 39  1  0  0  0  0
 19 21  2  0  0  0  0
 19 40  1  0  0  0  0
 20 48  1  0  0  0  0
 21 41  1  0  0  0  0
 22 24  2  0  0  0  0
 22 31  1  0  0  0  0
 22 51  1  0  0  0  0
 23 30  1  0  0  0  0
 23 31  2  0  0  0  0
 23 58  1  0  0  0  0
 24 70  1  0  0  0  0
 25 80  1  0  0  0  0
 26 81  1  0  0  0  0
 27 29  2  0  0  0  0
 27 80  1  0  0  0  0
 28 82  1  0  0  0  0
 29 83  1  0  0  0  0
 30 84  1  0  0  0  0
 31 85  1  0  0  0  0
 32 64  2  0  0  0  0
 33 65  1  0  0  0  0
 33 68  1  0  0  0  0
 34 69  1  0  0  0  0
 34 75  2  0  0  0  0
 35 49  1  0  0  0  0
 35 71  1  0  0  0  0
 35 76  2  0  0  0  0
 36 60  1  0  0  0  0
 36 66  1  0  0  0  0
 36 77  2  0  0  0  0
 37 61  1  0  0  0  0
 37 72  1  0  0  0  0
 37 78  2  0  0  0  0
 38 67  1  0  0  0  0
 38 70  1  0  0  0  0
 38 79  2  0  0  0  0
 39 42  1  0  0  0  0
 40 49  1  0  0  0  0
 41 66  1  0  0  0  0
 42 44  1  0  0  0  0
 43 45  1  0  0  0  0
 43 46  1  0  0  0  0
 44 48  1  0  0  0  0
 45 50  1  0  0  0  0
 46 67  1  0  0  0  0
 47 50  1  0  0  0  0
 47 67  1  0  0  0  0
 48 71  1  0  0  0  0
 49 66  1  0  0  0  0
 50 65  1  0  0  0  0
 52 61  1  0  0  0  0
 53 62  1  0  0  0  0
 54 63  1  0  0  0  0
 55 63  1  0  0  0  0
 56 63  1  0  0  0  0
 57 73  1  0  0  0  0
 58 74  1  0  0  0  0
 59 62  1  0  0  0  0
 59 81  1  0  0  0  0
 60 63  1  0  0  0  0
 60 72  1  0  0  0  0
 61 73  1  0  0  0  0
 62 74  1  0  0  0  0
 64 65  1  0  0  0  0
M  CHG  2  73   1  74   1
M  ISO  4  38 100  59 101  70 100  81 101
M  END
> <Batch ID>
0013

> <Smiles>
CNC(C)C(=O)NC(C(=O)N1Cc2cc([101O:1][101CH2:1]C(C)NCc3c(Cl)cc([100NH:0][100C:0](=O)N4CCCC(n5nc(-c6ccc(Oc7ccc(F)cc7F)cc6)c(C(N)=O)c5N)C4)c(C)c3Cl)ccc2CC1C(=O)NC1CCCc2ccccc21)C(C)(C)C

> <Shape>
0.232

> <Color>
0.190

> <Negative vol penalty>
0.000

$$$$

  -OEChem-04052315503D

 85 93  0     1  0  0  0  0  0999 V2000
  -18.3982  -27.8658   22.4946 C   0  0  0  0  0  0  0  0  0  0  0  0
  -18.4225  -26.4889   22.2978 C   0  0  0  0  0  0  0  0  0  0  0  0
  -29.4010  -23.5406   19.0490 C   0  0  0  0  0  0  0  0  0  0  0  0
  -27.6389  -23.4460   20.6992 C   0  0  0  0  0  0  0  0  0  0  0  0
  -19.5783  -28.5479   22.7880 C   0  0  0  0  0  0  0  0  0  0  0  0
  -19.6273  -25.7933   22.3930 C   0  0  0  0  0  0  0  0  0  0  0  0
  -20.4397  -20.1137   24.5352 C   0  0  0  0  0  0  0  0  0  0  0  0
  -29.3981  -24.9333   19.1256 C   0  0  0  0  0  0  0  0  0  0  0  0
  -27.6361  -24.8388   20.7759 C   0  0  0  0  0  0  0  0  0  0  0  0
  -20.5735  -18.8810   23.8978 C   0  0  0  0  0  0  0  0  0  0  0  0
  -26.4236  -27.4306   18.9750 C   0  0  0  0  0  0  0  0  0  0  0  0
  -25.1878  -28.0774   18.9694 C   0  0  0  0  0  0  0  0  0  0  0  0
  -22.9739  -19.0794   24.0313 C   0  0  0  0  0  0  0  0  0  0  0  0
  -23.9098  -12.2026   21.2700 C   0  0  0  0  0  0  0  0  0  0  0  0
  -25.6767  -29.0304   21.1350 C   0  0  0  0  0  0  0  0  0  0  0  0
  -28.5213  -22.7969   19.8357 C   0  0  0  0  0  0  0  0  0  0  0  0
  -29.2925  -20.4655   20.5269 C   0  0  0  0  0  0  0  0  0  0  0  0
  -20.7966  -27.8589   22.8964 C   0  0  0  0  0  0  0  0  0  0  0  0
  -21.5740  -20.8448   24.9163 C   0  0  0  0  0  0  0  0  0  0  0  0
  -20.8250  -26.4669   22.6868 C   0  0  0  0  0  0  0  0  0  0  0  0
  -22.8518  -20.3199   24.6757 C   0  0  0  0  0  0  0  0  0  0  0  0
  -26.3088  -12.0041   21.4761 C   0  0  0  0  0  0  0  0  0  0  0  0
  -24.0663  -13.4342   20.6342 C   0  0  0  0  0  0  0  0  0  0  0  0
  -25.3441  -13.9507   20.4193 C   0  0  0  0  0  0  0  0  0  0  0  0
  -28.5157  -25.5824   19.9891 C   0  0  0  0  0  0  0  0  0  0  0  0
  -21.8407  -18.3650   23.6431 C   0  0  0  0  0  0  0  0  0  0  0  0
  -27.2859  -27.5836   20.0607 C   0  0  0  0  0  0  0  0  0  0  0  0
  -24.8144  -28.8773   20.0493 C   0  0  0  0  0  0  0  0  0  0  0  0
  -25.0310  -11.4876   21.6910 C   0  0  0  0  0  0  0  0  0  0  0  0
  -26.9125  -28.3836   21.1406 C   0  0  0  0  0  0  0  0  0  0  0  0
  -26.4653  -13.2357   20.8402 C   0  0  0  0  0  0  0  0  0  0  0  0
  -28.5234  -21.3582   19.7565 C   0  0  0  0  0  0  0  0  0  0  0  0
  -28.9320  -19.2208   20.0718 C   0  0  0  0  0  0  0  0  0  0  0  0
  -30.2474  -20.7372   21.5613 C   0  0  0  0  0  0  0  0  0  0  0  0
  -22.7710  -23.6885   24.1519 C   0  0  0  0  0  0  0  0  0  0  0  0
  -24.9019  -22.9874   26.4950 C   0  0  0  0  0  0  0  0  0  0  0  0
  -26.4841  -20.6019   28.3532 C   0  0  0  0  0  0  0  0  0  0  0  0
  -25.0593  -15.5460   18.4904 C   0  0  0  0  0  0  0  0  0  0  0  0
  -22.0540  -28.6460   23.1686 C   0  0  0  0  0  0  0  0  0  0  0  0
  -21.4125  -22.1606   25.6270 C   0  0  0  0  0  0  0  0  0  0  0  0
  -24.1011  -21.0560   25.0830 C   0  0  0  0  0  0  0  0  0  0  0  0
  -23.2277  -27.7815   23.6217 C   0  0  0  0  0  0  0  0  0  0  0  0
  -26.2059  -17.8524   16.0323 C   0  0  0  0  0  0  0  0  0  0  0  0
  -23.3621  -26.5529   22.7277 C   0  0  0  0  0  0  0  0  0  0  0  0
  -26.9743  -18.8967   16.8454 C   0  0  0  0  0  0  0  0  0  0  0  0
  -24.9735  -17.3462   16.7796 C   0  0  0  0  0  0  0  0  0  0  0  0
  -25.9994  -17.8953   18.9511 C   0  0  0  0  0  0  0  0  0  0  0  0
  -22.1082  -25.6736   22.8062 C   0  0  1  0  0  0  0  0  0  0  0  0
  -22.6407  -23.0579   25.5095 C   0  0  1  0  0  0  0  0  0  0  0  0
  -27.2851  -18.3873   18.2665 C   0  0  2  0  0  0  0  0  0  0  0  0
  -27.4828  -11.2046   21.9433 C   0  0  0  0  0  0  0  0  0  0  0  0
  -28.2006  -20.3327   30.1639 C   0  0  0  0  0  0  0  0  0  0  0  0
  -27.1184  -23.5449   24.4735 C   0  0  0  0  0  0  0  0  0  0  0  0
  -28.7135  -22.3676   26.0025 C   0  0  0  0  0  0  0  0  0  0  0  0
  -27.5515  -24.4376   26.7691 C   0  0  0  0  0  0  0  0  0  0  0  0
  -22.0023  -13.5246   19.2588 C   0  0  0  0  0  0  0  0  0  0  0  0
  -24.5326  -19.3218   30.1730 C   0  0  0  0  0  0  0  0  0  0  0  0
  -21.2994  -15.4347   21.4977 C   0  0  0  0  0  0  0  0  0  0  0  0
  -22.6176  -15.4471   20.7332 C   0  0  0  0  0  0  0  0  0  0  0  0
  -20.9486  -16.7897   22.1009 C   0  0  0  0  0  0  0  0  0  1  0  0
  -26.2386  -22.2880   26.5501 C   0  0  1  0  0  0  0  0  0  0  0  0
  -26.7205  -20.4820   29.8479 C   0  0  2  0  0  0  0  0  0  0  0  0
  -27.3822  -23.1463   25.9392 C   0  0  0  0  0  0  0  0  0  0  0  0
  -27.7340  -20.7336   18.8786 N   0  0  0  0  0  0  0  0  0  0  0  0
  -28.0052  -19.4352   19.0944 N   0  0  0  0  0  0  0  0  0  0  0  0
  -23.8910  -22.3414   25.7693 N   0  0  0  0  0  0  0  0  0  0  0  0
  -25.3452  -16.8759   18.1159 N   0  0  0  0  0  0  0  0  0  0  0  0
  -29.3205  -17.9747   20.4164 N   0  0  0  0  0  0  0  0  0  0  0  0
  -30.4985  -22.0726   21.9049 N   0  0  0  0  0  0  0  0  0  0  0  0
  -25.4884  -15.2030   19.7722 N   0  0  0  0  0  0  0  0  0  0  0  0
  -22.1115  -24.8964   24.0270 N   0  0  0  0  0  0  0  0  0  0  0  0
  -26.4489  -21.9187   27.9457 N   0  0  0  0  0  0  0  0  0  0  0  0
  -22.9232  -14.1332   20.2207 N   0  0  3  0  0  0  0  0  0  0  0  0
  -26.0017  -19.2955   30.3925 N   0  3  0  0  0  0  0  0  0  0  0  0
  -30.8718  -19.8236   22.1519 O   0  0  0  0  0  0  0  0  0  0  0  0
  -23.4230  -23.1220   23.2826 O   0  0  0  0  0  0  0  0  0  0  0  0
  -24.7579  -24.0636   27.0804 O   0  0  0  0  0  0  0  0  0  0  0  0
  -26.3483  -19.6251   27.6198 O   0  0  0  0  0  0  0  0  0  0  0  0
  -24.5010  -14.7605   17.7201 O   0  0  0  0  0  0  0  0  0  0  0  0
  -28.5128  -26.9414   20.0644 O   0  0  0  0  0  0  0  0  0  0  0  0
  -21.9742  -17.1623   23.0205 O   0  0  0  0  0  0  0  0  0  1  0  0
  -23.6283  -29.4997   20.0431 F   0  0  0  0  0  0  0  0  0  0  0  0
  -24.8686  -10.3049   22.3010 F   0  0  0  0  0  0  0  0  0  0  0  0
  -27.7373  -28.5353   22.1859 F   0  0  0  0  0  0  0  0  0  0  0  0
  -28.0584  -13.8694   20.5777 Cl  0  0  0  0  0  0  0  0  0  0  0  0
  1  2  1  0  0  0  0
  1  5  2  0  0  0  0
  2  6  2  0  0  0  0
  3  8  2  0  0  0  0
  3 16  1  0  0  0  0
  4  9  1  0  0  0  0
  4 16  2  0  0  0  0
  5 18  1  0  0  0  0
  6 20  1  0  0  0  0
  7 10  2  0  0  0  0
  7 19  1  0  0  0  0
  8 25  1  0  0  0  0
  9 25  2  0  0  0  0
 10 26  1  0  0  0  0
 11 12  2  0  0  0  0
 11 27  1  0  0  0  0
 12 28  1  0  0  0  0
 13 21  1  0  0  0  0
 13 26  2  0  0  0  0
 14 23  1  0  0  0  0
 14 29  2  0  0  0  0
 15 28  2  0  0  0  0
 15 30  1  0  0  0  0
 16 32  1  0  0  0  0
 17 32  1  0  0  0  0
 17 33  2  0  0  0  0
 17 34  1  0  0  0  0
 18 20  2  0  0  0  0
 18 39  1  0  0  0  0
 19 21  2  0  0  0  0
 19 40  1  0  0  0  0
 20 48  1  0  0  0  0
 21 41  1  0  0  0  0
 22 29  1  0  0  0  0
 22 31  2  0  0  0  0
 22 51  1  0  0  0  0
 23 24  2  0  0  0  0
 23 73  1  0  0  0  0
 24 31  1  0  0  0  0
 24 70  1  0  0  0  0
 25 80  1  0  0  0  0
 26 81  1  0  0  0  0
 27 30  2  0  0  0  0
 27 80  1  0  0  0  0
 28 82  1  0  0  0  0
 29 83  1  0  0  0  0
 30 84  1  0  0  0  0
 31 85  1  0  0  0  0
 32 64  2  0  0  0  0
 33 65  1  0  0  0  0
 33 68  1  0  0  0  0
 34 69  1  0  0  0  0
 34 75  2  0  0  0  0
 35 49  1  0  0  0  0
 35 71  1  0  0  0  0
 35 76  2  0  0  0  0
 36 61  1  0  0  0  0
 36 66  1  0  0  0  0
 36 77  2  0  0  0  0
 37 62  1  0  0  0  0
 37 72  1  0  0  0  0
 37 78  2  0  0  0  0
 38 67  1  0  0  0  0
 38 70  1  0  0  0  0
 38 79  2  0  0  0  0
 39 42  1  0  0  0  0
 40 49  1  0  0  0  0
 41 66  1  0  0  0  0
 42 44  1  0  0  0  0
 43 45  1  0  0  0  0
 43 46  1  0  0  0  0
 44 48  1  0  0  0  0
 45 50  1  0  0  0  0
 46 67  1  0  0  0  0
 47 50  1  0  0  0  0
 47 67  1  0  0  0  0
 48 71  1  0  0  0  0
 49 66  1  0  0  0  0
 50 65  1  0  0  0  0
 52 62  1  0  0  0  0
 53 63  1  0  0  0  0
 54 63  1  0  0  0  0
 55 63  1  0  0  0  0
 56 73  1  0  0  0  0
 57 74  1  0  0  0  0
 58 59  1  0  0  0  0
 58 60  1  0  0  0  0
 59 73  1  0  0  0  0
 60 81  1  0  0  0  0
 61 63  1  0  0  0  0
 61 72  1  0  0  0  0
 62 74  1  0  0  0  0
 64 65  1  0  0  0  0
M  CHG  1  74   1
M  ISO  4  38 100  60 101  70 100  81 101
M  END
> <Batch ID>
0013

> <Smiles>
CNC(C)C(=O)NC(C(=O)N1Cc2cc([101O:1][101CH2:1]CCN(C)c3cc(F)c(C)c(Cl)c3[100NH:0][100C:0](=O)N3CCCC(n4nc(-c5ccc(Oc6ccc(F)cc6F)cc5)c(C(N)=O)c4N)C3)ccc2CC1C(=O)NC1CCCc2ccccc21)C(C)(C)C

> <Shape>
0.214

> <Color>
0.091

> <Negative vol penalty>
0.000

$$$$

  -OEChem-04052315503D

 85 93  0     1  0  0  0  0  0999 V2000
  -19.6842  -14.7812   17.1400 C   0  0  0  0  0  0  0  0  0  0  0  0
  -20.5252  -15.8592   17.3971 C   0  0  0  0  0  0  0  0  0  0  0  0
  -16.9133  -26.4021   20.3731 C   0  0  0  0  0  0  0  0  0  0  0  0
  -18.5757  -24.7595   20.9860 C   0  0  0  0  0  0  0  0  0  0  0  0
  -19.9417  -13.5425   17.7258 C   0  0  0  0  0  0  0  0  0  0  0  0
  -21.6236  -15.6994   18.2411 C   0  0  0  0  0  0  0  0  0  0  0  0
  -27.0753  -18.4456   17.7488 C   0  0  0  0  0  0  0  0  0  0  0  0
  -16.2722  -25.4552   19.5743 C   0  0  0  0  0  0  0  0  0  0  0  0
  -17.9346  -23.8126   20.1873 C   0  0  0  0  0  0  0  0  0  0  0  0
  -27.6243  -19.5607   18.3804 C   0  0  0  0  0  0  0  0  0  0  0  0
  -17.7406  -23.0473   16.8998 C   0  0  0  0  0  0  0  0  0  0  0  0
  -18.5340  -22.2571   16.0681 C   0  0  0  0  0  0  0  0  0  0  0  0
  -28.7008  -18.1150   19.9837 C   0  0  0  0  0  0  0  0  0  0  0  0
  -27.1777  -28.7053   20.7289 C   0  0  0  0  0  0  0  0  0  0  0  0
  -17.7363  -20.2730   17.1924 C   0  0  0  0  0  0  0  0  0  0  0  0
  -18.0651  -26.0543   21.0790 C   0  0  0  0  0  0  0  0  0  0  0  0
  -18.4892  -27.2981   23.2654 C   0  0  0  0  0  0  0  0  0  0  0  0
  -21.0493  -13.3650   18.5699 C   0  0  0  0  0  0  0  0  0  0  0  0
  -27.3265  -17.1554   18.2372 C   0  0  0  0  0  0  0  0  0  0  0  0
  -21.8953  -14.4575   18.8399 C   0  0  0  0  0  0  0  0  0  0  0  0
  -28.1559  -16.9851   19.3549 C   0  0  0  0  0  0  0  0  0  0  0  0
  -28.3954  -28.0727   20.4790 C   0  0  0  0  0  0  0  0  0  0  0  0
  -27.6468  -26.1407   21.7216 C   0  0  0  0  0  0  0  0  0  0  0  0
  -26.1945  -28.0557   21.4753 C   0  0  0  0  0  0  0  0  0  0  0  0
  -16.7828  -24.1605   19.4814 C   0  0  0  0  0  0  0  0  0  0  0  0
  -28.4349  -19.3957   19.4998 C   0  0  0  0  0  0  0  0  0  0  0  0
  -16.9451  -22.4504   17.8778 C   0  0  0  0  0  0  0  0  0  0  0  0
  -18.5318  -20.8699   16.2144 C   0  0  0  0  0  0  0  0  0  0  0  0
  -16.9429  -21.0632   18.0241 C   0  0  0  0  0  0  0  0  0  0  0  0
  -28.6300  -26.7904   20.9752 C   0  0  0  0  0  0  0  0  0  0  0  0
  -26.4291  -26.7734   21.9716 C   0  0  0  0  0  0  0  0  0  0  0  0
  -18.7281  -27.0321   21.9038 C   0  0  0  0  0  0  0  0  0  0  0  0
  -19.3697  -28.3047   23.5783 C   0  0  0  0  0  0  0  0  0  0  0  0
  -17.5549  -26.6896   24.1669 C   0  0  0  0  0  0  0  0  0  0  0  0
  -25.5285  -14.8121   19.4120 C   0  0  0  0  0  0  0  0  0  0  0  0
  -28.3217  -13.1640   19.3490 C   0  0  0  0  0  0  0  0  0  0  0  0
  -28.5082  -22.5597   21.2695 C   0  0  0  0  0  0  0  0  0  0  0  0
  -31.7335  -13.2436   19.3583 C   0  0  0  0  0  0  0  0  0  0  0  0
  -24.6126  -30.0056   21.2709 C   0  0  0  0  0  0  0  0  0  0  0  0
  -21.2599  -12.0194   19.2177 C   0  0  0  0  0  0  0  0  0  0  0  0
  -26.7485  -15.9612   17.5285 C   0  0  0  0  0  0  0  0  0  0  0  0
  -28.4729  -15.6199   19.9066 C   0  0  0  0  0  0  0  0  0  0  0  0
  -22.6581  -11.8372   19.8027 C   0  0  0  0  0  0  0  0  0  0  0  0
  -21.6842  -32.0033   21.6039 C   0  0  0  0  0  0  0  0  0  0  0  0
  -23.0617  -13.0647   20.6134 C   0  0  0  0  0  0  0  0  0  0  0  0
  -20.5730  -30.9797   21.8486 C   0  0  0  0  0  0  0  0  0  0  0  0
  -22.7259  -31.4838   20.6146 C   0  0  0  0  0  0  0  0  0  0  0  0
  -22.1882  -29.1501   21.1925 C   0  0  0  0  0  0  0  0  0  0  0  0
  -23.1109  -14.3174   19.7303 C   0  0  1  0  0  0  0  0  0  0  0  0
  -26.6531  -14.7263   18.4192 C   0  0  1  0  0  0  0  0  0  0  0  0
  -21.1496  -29.6027   22.2318 C   0  0  2  0  0  0  0  0  0  0  0  0
  -29.4192  -28.8076   19.6744 C   0  0  0  0  0  0  0  0  0  0  0  0
  -33.7392  -11.7355   19.3390 C   0  0  0  0  0  0  0  0  0  0  0  0
  -27.8656  -12.5237   22.2972 C   0  0  0  0  0  0  0  0  0  0  0  0
  -30.2761  -11.8660   22.4555 C   0  0  0  0  0  0  0  0  0  0  0  0
  -28.7409  -10.6152   20.9385 C   0  0  0  0  0  0  0  0  0  0  0  0
  -32.6956  -14.3636   16.7934 C   0  0  0  0  0  0  0  0  0  0  0  0
  -27.9001  -24.7605   22.2554 C   0  0  0  0  0  0  0  0  0  0  0  0
  -28.2274  -21.6985   20.0566 C   0  0  0  0  0  0  0  0  0  1  0  0
  -29.4628  -12.9567   20.3154 C   0  0  1  0  0  0  0  0  0  0  0  0
  -32.7600  -12.5347   18.4933 C   0  0  2  0  0  0  0  0  0  0  0  0
  -29.0790  -12.0164   21.4926 C   0  0  0  0  0  0  0  0  0  0  0  0
  -19.6852  -27.8073   21.3872 N   0  0  0  0  0  0  0  0  0  0  0  0
  -20.0555  -28.5703   22.4297 N   0  0  0  0  0  0  0  0  0  0  0  0
  -27.8789  -14.4838   19.1826 N   0  0  0  0  0  0  0  0  0  0  0  0
  -23.2306  -30.1779   21.0447 N   0  0  0  0  0  0  0  0  0  0  0  0
  -19.6164  -28.9797   24.7210 N   0  0  0  0  0  0  0  0  0  0  0  0
  -16.7252  -25.6698   23.6813 N   0  0  0  0  0  0  0  0  0  0  0  0
  -24.9707  -28.7308   21.7082 N   0  0  0  0  0  0  0  0  0  0  0  0
  -24.3226  -14.3307   18.9391 N   0  0  0  0  0  0  0  0  0  0  0  0
  -27.8096  -23.7559   21.2213 N   0  0  0  0  0  0  0  0  0  0  0  0
  -30.5917  -12.4875   19.5194 N   0  0  0  0  0  0  0  0  0  0  0  0
  -33.5318  -13.5241   17.6894 N   0  3  0  0  0  0  0  0  0  0  0  0
  -17.4473  -27.0511   25.3632 O   0  0  0  0  0  0  0  0  0  0  0  0
  -25.7395  -15.2792   20.5251 O   0  0  0  0  0  0  0  0  0  0  0  0
  -27.8456  -12.1915   18.7580 O   0  0  0  0  0  0  0  0  0  0  0  0
  -29.2690  -22.2128   22.1688 O   0  0  0  0  0  0  0  0  0  0  0  0
  -31.9268  -14.3552   19.8457 O   0  0  0  0  0  0  0  0  0  0  0  0
  -25.4156  -30.9292   21.1160 O   0  0  0  0  0  0  0  0  0  0  0  0
  -16.1574  -23.2363   18.7022 O   0  0  0  0  0  0  0  0  0  0  0  0
  -28.9715  -20.4824   20.1186 O   0  0  0  0  0  0  0  0  0  1  0  0
  -19.2926  -20.1111   15.4147 F   0  0  0  0  0  0  0  0  0  0  0  0
  -16.1798  -20.4840   18.9611 F   0  0  0  0  0  0  0  0  0  0  0  0
  -30.1454  -26.0109   20.6605 Cl  0  0  0  0  0  0  0  0  0  0  0  0
  -25.2055  -25.9664   22.8998 Cl  0  0  0  0  0  0  0  0  0  0  0  0
  1  2  1  0  0  0  0
  1  5  2  0  0  0  0
  2  6  2  0  0  0  0
  3  8  2  0  0  0  0
  3 16  1  0  0  0  0
  4  9  1  0  0  0  0
  4 16  2  0  0  0  0
  5 18  1  0  0  0  0
  6 20  1  0  0  0  0
  7 10  2  0  0  0  0
  7 19  1  0  0  0  0
  8 25  1  0  0  0  0
  9 25  2  0  0  0  0
 10 26  1  0  0  0  0
 11 12  2  0  0  0  0
 11 27  1  0  0  0  0
 12 28  1  0  0  0  0
 13 21  1  0  0  0  0
 13 26  2  0  0  0  0
 14 22  1  0  0  0  0
 14 24  2  0  0  0  0
 15 28  2  0  0  0  0
 15 29  1  0  0  0  0
 16 32  1  0  0  0  0
 17 32  1  0  0  0  0
 17 33  2  0  0  0  0
 17 34  1  0  0  0  0
 18 20  2  0  0  0  0
 18 40  1  0  0  0  0
 19 21  2  0  0  0  0
 19 41  1  0  0  0  0
 20 49  1  0  0  0  0
 21 42  1  0  0  0  0
 22 30  2  0  0  0  0
 22 52  1  0  0  0  0
 23 30  1  0  0  0  0
 23 31  2  0  0  0  0
 23 58  1  0  0  0  0
 24 31  1  0  0  0  0
 24 69  1  0  0  0  0
 25 80  1  0  0  0  0
 26 81  1  0  0  0  0
 27 29  2  0  0  0  0
 27 80  1  0  0  0  0
 28 82  1  0  0  0  0
 29 83  1  0  0  0  0
 30 84  1  0  0  0  0
 31 85  1  0  0  0  0
 32 63  2  0  0  0  0
 33 64  1  0  0  0  0
 33 67  1  0  0  0  0
 34 68  1  0  0  0  0
 34 74  2  0  0  0  0
 35 50  1  0  0  0  0
 35 70  1  0  0  0  0
 35 75  2  0  0  0  0
 36 60  1  0  0  0  0
 36 65  1  0  0  0  0
 36 76  2  0  0  0  0
 37 59  1  0  0  0  0
 37 71  1  0  0  0  0
 37 77  2  0  0  0  0
 38 61  1  0  0  0  0
 38 72  1  0  0  0  0
 38 78  2  0  0  0  0
 39 66  1  0  0  0  0
 39 69  1  0  0  0  0
 39 79  2  0  0  0  0
 40 43  1  0  0  0  0
 41 50  1  0  0  0  0
 42 65  1  0  0  0  0
 43 45  1  0  0  0  0
 44 46  1  0  0  0  0
 44 47  1  0  0  0  0
 45 49  1  0  0  0  0
 46 51  1  0  0  0  0
 47 66  1  0  0  0  0
 48 51  1  0  0  0  0
 48 66  1  0  0  0  0
 49 70  1  0  0  0  0
 50 65  1  0  0  0  0
 51 64  1  0  0  0  0
 53 61  1  0  0  0  0
 54 62  1  0  0  0  0
 55 62  1  0  0  0  0
 56 62  1  0  0  0  0
 57 73  1  0  0  0  0
 58 71  1  0  0  0  0
 59 81  1  0  0  0  0
 60 62  1  0  0  0  0
 60 72  1  0  0  0  0
 61 73  1  0  0  0  0
 63 64  1  0  0  0  0
M  CHG  1  73   1
M  ISO  4  39 100  59 101  69 100  81 101
M  END
> <Batch ID>
0013

> <Smiles>
CNC(C)C(=O)NC(C(=O)N1Cc2cc([101O:1][101CH2:1]C(=O)NCc3c(Cl)c(C)cc([100NH:0][100C:0](=O)N4CCCC(n5nc(-c6ccc(Oc7ccc(F)cc7F)cc6)c(C(N)=O)c5N)C4)c3Cl)ccc2CC1C(=O)NC1CCCc2ccccc21)C(C)(C)C

> <Shape>
0.241

> <Color>
0.068

> <Negative vol penalty>
0.000

$$$$

  -OEChem-04052315503D

 89 97  0     1  0  0  0  0  0999 V2000
  -24.4962  -36.8080   23.5756 C   0  0  0  0  0  0  0  0  0  0  0  0
  -25.3545  -35.8988   22.9657 C   0  0  0  0  0  0  0  0  0  0  0  0
  -22.7833  -10.0004   22.1208 C   0  0  0  0  0  0  0  0  0  0  0  0
  -24.2206   -9.3031   20.3083 C   0  0  0  0  0  0  0  0  0  0  0  0
  -23.5567  -36.3627   24.5046 C   0  0  0  0  0  0  0  0  0  0  0  0
  -25.2747  -34.5439   23.2852 C   0  0  0  0  0  0  0  0  0  0  0  0
  -26.2268  -29.8105   19.5177 C   0  0  0  0  0  0  0  0  0  0  0  0
  -22.1534   -8.7560   22.1000 C   0  0  0  0  0  0  0  0  0  0  0  0
  -23.5908   -8.0587   20.2876 C   0  0  0  0  0  0  0  0  0  0  0  0
  -27.3325  -28.9883   19.3054 C   0  0  0  0  0  0  0  0  0  0  0  0
  -22.7861   -5.6251   23.2091 C   0  0  0  0  0  0  0  0  0  0  0  0
  -22.5565   -4.9943   24.4317 C   0  0  0  0  0  0  0  0  0  0  0  0
  -26.4048  -27.3591   20.8234 C   0  0  0  0  0  0  0  0  0  0  0  0
  -31.5314  -22.0786   18.4295 C   0  0  0  0  0  0  0  0  0  0  0  0
  -30.5104  -20.1293   17.4320 C   0  0  0  0  0  0  0  0  0  0  0  0
  -20.1811   -5.0036   23.9903 C   0  0  0  0  0  0  0  0  0  0  0  0
  -23.8168  -10.2739   21.2249 C   0  0  0  0  0  0  0  0  0  0  0  0
  -25.5976  -11.9282   21.9996 C   0  0  0  0  0  0  0  0  0  0  0  0
  -23.4588  -35.0003   24.8285 C   0  0  0  0  0  0  0  0  0  0  0  0
  -25.2053  -29.4174   20.3943 C   0  0  0  0  0  0  0  0  0  0  0  0
  -24.3340  -34.0801   24.2204 C   0  0  0  0  0  0  0  0  0  0  0  0
  -25.2860  -28.1770   21.0431 C   0  0  0  0  0  0  0  0  0  0  0  0
  -30.7871  -21.8739   19.5913 C   0  0  0  0  0  0  0  0  0  0  0  0
  -31.3930  -21.2064   17.3498 C   0  0  0  0  0  0  0  0  0  0  0  0
  -29.7662  -19.9246   18.5938 C   0  0  0  0  0  0  0  0  0  0  0  0
  -22.5572   -7.7852   21.1835 C   0  0  0  0  0  0  0  0  0  0  0  0
  -27.4231  -27.7636   19.9605 C   0  0  0  0  0  0  0  0  0  0  0  0
  -21.7133   -5.9452   22.3770 C   0  0  0  0  0  0  0  0  0  0  0  0
  -21.2540   -4.6835   24.8224 C   0  0  0  0  0  0  0  0  0  0  0  0
  -20.4108   -5.6344   22.7677 C   0  0  0  0  0  0  0  0  0  0  0  0
  -29.9045  -20.7969   19.6735 C   0  0  0  0  0  0  0  0  0  0  0  0
  -24.4675  -11.5594   21.2455 C   0  0  0  0  0  0  0  0  0  0  0  0
  -25.8179  -13.2426   21.6675 C   0  0  0  0  0  0  0  0  0  0  0  0
  -26.3784  -11.1520   22.9180 C   0  0  0  0  0  0  0  0  0  0  0  0
  -24.0008  -30.5754   23.0983 C   0  0  0  0  0  0  0  0  0  0  0  0
  -26.1999  -17.2305   17.7636 C   0  0  0  0  0  0  0  0  0  0  0  0
  -21.8392  -28.1896   22.7008 C   0  0  0  0  0  0  0  0  0  0  0  0
  -28.6474  -17.8795   17.6434 C   0  0  0  0  0  0  0  0  0  0  0  0
  -29.8017  -24.9578   20.1523 C   0  0  0  0  0  0  0  0  0  0  0  0
  -21.0970  -25.1499   21.3384 C   0  0  0  0  0  0  0  0  0  0  0  0
  -22.4592  -34.5726   25.8738 C   0  0  0  0  0  0  0  0  0  0  0  0
  -24.0063  -30.3038   20.5919 C   0  0  0  0  0  0  0  0  0  0  0  0
  -24.2064  -27.6996   21.9786 C   0  0  0  0  0  0  0  0  0  0  0  0
  -22.1878  -33.0705   25.8785 C   0  0  0  0  0  0  0  0  0  0  0  0
  -22.9554  -16.5262   19.1117 C   0  0  0  0  0  0  0  0  0  0  0  0
  -23.4975  -32.2911   25.8159 C   0  0  0  0  0  0  0  0  0  0  0  0
  -23.1451  -15.1870   19.8229 C   0  0  0  0  0  0  0  0  0  0  0  0
  -23.8069  -16.6134   17.8490 C   0  0  0  0  0  0  0  0  0  0  0  0
  -25.4545  -15.0256   18.7904 C   0  0  0  0  0  0  0  0  0  0  0  0
  -24.2614  -32.5990   24.5224 C   0  0  1  0  0  0  0  0  0  0  0  0
  -23.2722  -30.0328   21.9015 C   0  0  1  0  0  0  0  0  0  0  0  0
  -24.6353  -14.9082   20.0879 C   0  0  2  0  0  0  0  0  0  0  0  0
  -19.2656  -23.4383   21.2205 C   0  0  0  0  0  0  0  0  0  0  0  0
  -22.5148  -27.2752   25.5323 C   0  0  0  0  0  0  0  0  0  0  0  0
  -21.4127  -25.0877   25.0140 C   0  0  0  0  0  0  0  0  0  0  0  0
  -20.0807  -27.1963   24.9634 C   0  0  0  0  0  0  0  0  0  0  0  0
  -33.0653  -22.5295   16.0798 C   0  0  0  0  0  0  0  0  0  0  0  0
  -32.0193  -20.5047   15.0529 C   0  0  0  0  0  0  0  0  0  0  0  0
  -20.8755  -25.4199   18.3995 C   0  0  0  0  0  0  0  0  0  0  0  0
  -30.9689  -22.8383   20.7275 C   0  0  0  0  0  0  0  0  0  0  0  0
  -27.6228  -16.8608   18.0991 C   0  0  0  0  0  0  0  0  0  0  0  0
  -28.5294  -25.7184   20.4594 C   0  0  0  0  0  0  0  0  0  1  0  0
  -21.7541  -26.7428   23.1232 C   0  0  1  0  0  0  0  0  0  0  0  0
  -19.8860  -24.6618   20.5640 C   0  0  2  0  0  0  0  0  0  0  0  0
  -21.4620  -26.5851   24.6421 C   0  0  0  0  0  0  0  0  0  0  0  0
  -24.0022  -12.5588   20.4913 N   0  0  0  0  0  0  0  0  0  0  0  0
  -24.8441  -13.5686   20.7699 N   0  0  0  0  0  0  0  0  0  0  0  0
  -23.0571  -28.6048   22.1438 N   0  0  0  0  0  0  0  0  0  0  0  0
  -25.2117  -16.3201   18.1387 N   0  0  0  0  0  0  0  0  0  0  0  0
  -26.7476  -14.1398   22.0587 N   0  0  0  0  0  0  0  0  0  0  0  0
  -26.0138   -9.8176   23.1432 N   0  0  0  0  0  0  0  0  0  0  0  0
  -28.8917  -18.8342   18.6398 N   0  0  0  0  0  0  0  0  0  0  0  0
  -23.6781  -31.8828   23.4083 N   0  0  0  0  0  0  0  0  0  0  0  0
  -29.8590  -23.7560   20.8405 N   0  0  0  0  0  0  0  0  0  0  0  0
  -20.7587  -26.1222   22.2557 N   0  0  0  0  0  0  0  0  0  0  0  0
  -32.1455  -21.4134   16.1751 N   0  0  0  0  0  0  0  0  0  0  0  0
  -20.2728  -24.3021   19.1704 N   0  3  0  0  0  0  0  0  0  0  0  0
  -27.3601  -11.6325   23.5335 O   0  0  0  0  0  0  0  0  0  0  0  0
  -24.7956  -29.8604   23.6971 O   0  0  0  0  0  0  0  0  0  0  0  0
  -25.9751  -18.2983   17.1879 O   0  0  0  0  0  0  0  0  0  0  0  0
  -20.8587  -28.9226   22.8526 O   0  0  0  0  0  0  0  0  0  0  0  0
  -29.1624  -17.8233   16.5314 O   0  0  0  0  0  0  0  0  0  0  0  0
  -30.6600  -25.3819   19.3832 O   0  0  0  0  0  0  0  0  0  0  0  0
  -22.2291  -24.7099   21.1511 O   0  0  0  0  0  0  0  0  0  0  0  0
  -21.9430   -6.5707   21.1631 O   0  0  0  0  0  0  0  0  0  0  0  0
  -28.5016  -26.9595   19.7556 O   0  0  0  0  0  0  0  0  0  1  0  0
  -21.0337   -4.0764   25.9959 F   0  0  0  0  0  0  0  0  0  0  0  0
  -19.3762   -5.9383   21.9720 F   0  0  0  0  0  0  0  0  0  0  0  0
  -28.9823  -20.5479   21.1201 Cl  0  0  0  0  0  0  0  0  0  0  0  0
  1  2  1  0  0  0  0
  1  5  2  0  0  0  0
  2  6  2  0  0  0  0
  3  8  2  0  0  0  0
  3 17  1  0  0  0  0
  4  9  1  0  0  0  0
  4 17  2  0  0  0  0
  5 19  1  0  0  0  0
  6 21  1  0  0  0  0
  7 10  2  0  0  0  0
  7 20  1  0  0  0  0
  8 26  1  0  0  0  0
  9 26  2  0  0  0  0
 10 27  1  0  0  0  0
 11 12  2  0  0  0  0
 11 28  1  0  0  0  0
 12 29  1  0  0  0  0
 13 22  1  0  0  0  0
 13 27  2  0  0  0  0
 14 23  1  0  0  0  0
 14 24  2  0  0  0  0
 15 24  1  0  0  0  0
 15 25  2  0  0  0  0
 16 29  2  0  0  0  0
 16 30  1  0  0  0  0
 17 32  1  0  0  0  0
 18 32  1  0  0  0  0
 18 33  2  0  0  0  0
 18 34  1  0  0  0  0
 19 21  2  0  0  0  0
 19 41  1  0  0  0  0
 20 22  2  0  0  0  0
 20 42  1  0  0  0  0
 21 50  1  0  0  0  0
 22 43  1  0  0  0  0
 23 31  2  0  0  0  0
 23 60  1  0  0  0  0
 24 76  1  0  0  0  0
 25 31  1  0  0  0  0
 25 72  1  0  0  0  0
 26 85  1  0  0  0  0
 27 86  1  0  0  0  0
 28 30  2  0  0  0  0
 28 85  1  0  0  0  0
 29 87  1  0  0  0  0
 30 88  1  0  0  0  0
 31 89  1  0  0  0  0
 32 66  2  0  0  0  0
 33 67  1  0  0  0  0
 33 70  1  0  0  0  0
 34 71  1  0  0  0  0
 34 78  2  0  0  0  0
 35 51  1  0  0  0  0
 35 73  1  0  0  0  0
 35 79  2  0  0  0  0
 36 61  1  0  0  0  0
 36 69  1  0  0  0  0
 36 80  2  0  0  0  0
 37 63  1  0  0  0  0
 37 68  1  0  0  0  0
 37 81  2  0  0  0  0
 38 61  1  0  0  0  0
 38 72  1  0  0  0  0
 38 82  2  0  0  0  0
 39 62  1  0  0  0  0
 39 74  1  0  0  0  0
 39 83  2  0  0  0  0
 40 64  1  0  0  0  0
 40 75  1  0  0  0  0
 40 84  2  0  0  0  0
 41 44  1  0  0  0  0
 42 51  1  0  0  0  0
 43 68  1  0  0  0  0
 44 46  1  0  0  0  0
 45 47  1  0  0  0  0
 45 48  1  0  0  0  0
 46 50  1  0  0  0  0
 47 52  1  0  0  0  0
 48 69  1  0  0  0  0
 49 52  1  0  0  0  0
 49 69  1  0  0  0  0
 50 73  1  0  0  0  0
 51 68  1  0  0  0  0
 52 67  1  0  0  0  0
 53 64  1  0  0  0  0
 54 65  1  0  0  0  0
 55 65  1  0  0  0  0
 56 65  1  0  0  0  0
 57 76  1  0  0  0  0
 58 76  1  0  0  0  0
 59 77  1  0  0  0  0
 60 74  1  0  0  0  0
 62 86  1  0  0  0  0
 63 65  1  0  0  0  0
 63 75  1  0  0  0  0
 64 77  1  0  0  0  0
 66 67  1  0  0  0  0
M  CHG  1  77   1
M  ISO  4  36 100  61 100  62 101  86 101
M  END
> <Batch ID>
0013

> <Smiles>
CNC(C)C(=O)NC(C(=O)N1Cc2cc([101O:1][101CH2:1]C(=O)NCc3cc(N(C)C)cc(NC(=O)[100CH2:0][100C:0](=O)N4CCCC(n5nc(-c6ccc(Oc7ccc(F)cc7F)cc6)c(C(N)=O)c5N)C4)c3Cl)ccc2CC1C(=O)NC1CCCc2ccccc21)C(C)(C)C

> <Shape>
0.282

> <Color>
0.122

> <Negative vol penalty>
0.000

$$$$

  -OEChem-04052315503D

 84 92  0     1  0  0  0  0  0999 V2000
  -30.3428  -33.7548   17.6521 C   0  0  0  0  0  0  0  0  0  0  0  0
  -30.7173  -32.7333   18.5191 C   0  0  0  0  0  0  0  0  0  0  0  0
  -22.9782   -9.9182   19.9828 C   0  0  0  0  0  0  0  0  0  0  0  0
  -23.7154   -9.9453   22.2834 C   0  0  0  0  0  0  0  0  0  0  0  0
  -29.0546  -33.7782   17.1194 C   0  0  0  0  0  0  0  0  0  0  0  0
  -29.8033  -31.7351   18.8548 C   0  0  0  0  0  0  0  0  0  0  0  0
  -31.0279  -25.8310   19.9262 C   0  0  0  0  0  0  0  0  0  0  0  0
  -22.2021   -8.7892   20.2448 C   0  0  0  0  0  0  0  0  0  0  0  0
  -22.9392   -8.8163   22.5454 C   0  0  0  0  0  0  0  0  0  0  0  0
  -31.2023  -25.1083   21.1056 C   0  0  0  0  0  0  0  0  0  0  0  0
  -23.1490   -5.4787   22.0480 C   0  0  0  0  0  0  0  0  0  0  0  0
  -23.7304   -4.4504   22.7897 C   0  0  0  0  0  0  0  0  0  0  0  0
  -28.8901  -24.4256   21.0221 C   0  0  0  0  0  0  0  0  0  0  0  0
  -32.0000  -18.2233   24.1684 C   0  0  0  0  0  0  0  0  0  0  0  0
  -32.1142  -16.4403   22.5421 C   0  0  0  0  0  0  0  0  0  0  0  0
  -22.0173   -4.6977   24.4754 C   0  0  0  0  0  0  0  0  0  0  0  0
  -23.7349  -10.4962   21.0021 C   0  0  0  0  0  0  0  0  0  0  0  0
  -24.1436  -13.0092   20.8425 C   0  0  0  0  0  0  0  0  0  0  0  0
  -28.1274  -32.7745   17.4412 C   0  0  0  0  0  0  0  0  0  0  0  0
  -29.7784  -25.8655   19.2907 C   0  0  0  0  0  0  0  0  0  0  0  0
  -28.5010  -31.7459   18.3270 C   0  0  0  0  0  0  0  0  0  0  0  0
  -28.7032  -25.1475   19.8333 C   0  0  0  0  0  0  0  0  0  0  0  0
  -32.7504  -17.3098   23.4281 C   0  0  0  0  0  0  0  0  0  0  0  0
  -30.6135  -18.2673   24.0228 C   0  0  0  0  0  0  0  0  0  0  0  0
  -30.7277  -16.4843   22.3965 C   0  0  0  0  0  0  0  0  0  0  0  0
  -22.1826   -8.2383   21.5261 C   0  0  0  0  0  0  0  0  0  0  0  0
  -30.1326  -24.4078   21.6553 C   0  0  0  0  0  0  0  0  0  0  0  0
  -22.0017   -6.1166   22.5200 C   0  0  0  0  0  0  0  0  0  0  0  0
  -23.1646   -4.0599   24.0034 C   0  0  0  0  0  0  0  0  0  0  0  0
  -21.4359   -5.7260   23.7337 C   0  0  0  0  0  0  0  0  0  0  0  0
  -29.9773  -17.3978   23.1368 C   0  0  0  0  0  0  0  0  0  0  0  0
  -24.5373  -11.6621   20.7320 C   0  0  0  0  0  0  0  0  0  0  0  0
  -25.2585  -13.7237   20.4777 C   0  0  0  0  0  0  0  0  0  0  0  0
  -22.8829  -13.5649   21.2394 C   0  0  0  0  0  0  0  0  0  0  0  0
  -27.6871  -28.1503   18.5768 C   0  0  0  0  0  0  0  0  0  0  0  0
  -26.1682  -25.7369   17.0306 C   0  0  0  0  0  0  0  0  0  0  0  0
  -30.1913  -21.5212   23.8490 C   0  0  0  0  0  0  0  0  0  0  0  0
  -25.6247  -22.3817   16.7234 C   0  0  0  0  0  0  0  0  0  0  0  0
  -30.7480  -14.6304   20.6909 C   0  0  0  0  0  0  0  0  0  0  0  0
  -26.7315  -32.8681   16.8778 C   0  0  0  0  0  0  0  0  0  0  0  0
  -29.6136  -26.6280   18.0047 C   0  0  0  0  0  0  0  0  0  0  0  0
  -27.3467  -25.1357   19.1790 C   0  0  0  0  0  0  0  0  0  0  0  0
  -25.9412  -31.5668   16.9891 C   0  0  0  0  0  0  0  0  0  0  0  0
  -29.5945  -12.2054   18.3529 C   0  0  0  0  0  0  0  0  0  0  0  0
  -26.0831  -30.9740   18.3874 C   0  0  0  0  0  0  0  0  0  0  0  0
  -28.1436  -11.9587   18.7725 C   0  0  0  0  0  0  0  0  0  0  0  0
  -30.5034  -12.4313   19.5598 C   0  0  0  0  0  0  0  0  0  0  0  0
  -28.6024  -13.2288   20.9088 C   0  0  0  0  0  0  0  0  0  0  0  0
  -27.5457  -30.6316   18.6956 C   0  0  1  0  0  0  0  0  0  0  0  0
  -28.1651  -27.0126   17.7196 C   0  0  1  0  0  0  0  0  0  0  0  0
  -27.6371  -13.0603   19.7241 C   0  0  2  0  0  0  0  0  0  0  0  0
  -34.2328  -17.2639   23.5835 C   0  0  0  0  0  0  0  0  0  0  0  0
  -24.3018  -20.7140   15.3945 C   0  0  0  0  0  0  0  0  0  0  0  0
  -23.6628  -26.4688   18.6109 C   0  0  0  0  0  0  0  0  0  0  0  0
  -22.6985  -24.2469   17.9770 C   0  0  0  0  0  0  0  0  0  0  0  0
  -23.2548  -25.9140   16.2067 C   0  0  0  0  0  0  0  0  0  0  0  0
  -28.0768  -21.0807   15.6967 C   0  0  0  0  0  0  0  0  0  0  0  0
  -29.8473  -19.2664   24.8406 C   0  0  0  0  0  0  0  0  0  0  0  0
  -29.4867  -22.5426   22.9818 C   0  0  0  0  0  0  0  0  0  1  0  0
  -25.1259  -24.7128   17.4101 C   0  0  1  0  0  0  0  0  0  0  0  0
  -25.6165  -21.4696   15.5100 C   0  0  2  0  0  0  0  0  0  0  0  0
  -23.7104  -25.3372   17.5648 C   0  0  0  0  0  0  0  0  0  0  0  0
  -25.8033  -11.5263   20.3285 N   0  0  0  0  0  0  0  0  0  0  0  0
  -26.2148  -12.7973   20.1821 N   0  0  0  0  0  0  0  0  0  0  0  0
  -27.2340  -25.9015   17.9266 N   0  0  0  0  0  0  0  0  0  0  0  0
  -29.9628  -13.4913   20.4136 N   0  0  0  0  0  0  0  0  0  0  0  0
  -25.5042  -15.0478   20.3841 N   0  0  0  0  0  0  0  0  0  0  0  0
  -21.8444  -12.6883   21.5817 N   0  0  0  0  0  0  0  0  0  0  0  0
  -30.1170  -15.5859   21.4867 N   0  0  0  0  0  0  0  0  0  0  0  0
  -27.9259  -29.4000   18.0376 N   0  0  0  0  0  0  0  0  0  0  0  0
  -29.4112  -20.3929   24.0482 N   0  0  0  0  0  0  0  0  0  0  0  0
  -25.2068  -23.6569   16.4066 N   0  0  0  0  0  0  0  0  0  0  0  0
  -26.7233  -20.4757   15.6015 N   0  3  0  0  0  0  0  0  0  0  0  0
  -22.6783  -14.8021   21.2732 O   0  0  0  0  0  0  0  0  0  0  0  0
  -27.1407  -27.9120   19.6475 O   0  0  0  0  0  0  0  0  0  0  0  0
  -26.0452  -26.3623   15.9746 O   0  0  0  0  0  0  0  0  0  0  0  0
  -31.3167  -21.7010   24.3061 O   0  0  0  0  0  0  0  0  0  0  0  0
  -25.9641  -22.0001   17.8413 O   0  0  0  0  0  0  0  0  0  0  0  0
  -31.8857  -14.7616   20.2321 O   0  0  0  0  0  0  0  0  0  0  0  0
  -21.4252   -7.1367   21.7821 O   0  0  0  0  0  0  0  0  0  0  0  0
  -30.2999  -23.7020   22.8067 O   0  0  0  0  0  0  0  0  0  1  0  0
  -23.7222   -3.0714   24.7148 F   0  0  0  0  0  0  0  0  0  0  0  0
  -20.3331   -6.3342   24.1917 F   0  0  0  0  0  0  0  0  0  0  0  0
  -28.2537  -17.4571   22.9608 Cl  0  0  0  0  0  0  0  0  0  0  0  0
  1  2  1  0  0  0  0
  1  5  2  0  0  0  0
  2  6  2  0  0  0  0
  3  8  2  0  0  0  0
  3 17  1  0  0  0  0
  4  9  1  0  0  0  0
  4 17  2  0  0  0  0
  5 19  1  0  0  0  0
  6 21  1  0  0  0  0
  7 10  2  0  0  0  0
  7 20  1  0  0  0  0
  8 26  1  0  0  0  0
  9 26  2  0  0  0  0
 10 27  1  0  0  0  0
 11 12  2  0  0  0  0
 11 28  1  0  0  0  0
 12 29  1  0  0  0  0
 13 22  1  0  0  0  0
 13 27  2  0  0  0  0
 14 23  2  0  0  0  0
 14 24  1  0  0  0  0
 15 23  1  0  0  0  0
 15 25  2  0  0  0  0
 16 29  2  0  0  0  0
 16 30  1  0  0  0  0
 17 32  1  0  0  0  0
 18 32  1  0  0  0  0
 18 33  2  0  0  0  0
 18 34  1  0  0  0  0
 19 21  2  0  0  0  0
 19 40  1  0  0  0  0
 20 22  2  0  0  0  0
 20 41  1  0  0  0  0
 21 49  1  0  0  0  0
 22 42  1  0  0  0  0
 23 52  1  0  0  0  0
 24 31  2  0  0  0  0
 24 58  1  0  0  0  0
 25 31  1  0  0  0  0
 25 69  1  0  0  0  0
 26 80  1  0  0  0  0
 27 81  1  0  0  0  0
 28 30  2  0  0  0  0
 28 80  1  0  0  0  0
 29 82  1  0  0  0  0
 30 83  1  0  0  0  0
 31 84  1  0  0  0  0
 32 63  2  0  0  0  0
 33 64  1  0  0  0  0
 33 67  1  0  0  0  0
 34 68  1  0  0  0  0
 34 74  2  0  0  0  0
 35 50  1  0  0  0  0
 35 70  1  0  0  0  0
 35 75  2  0  0  0  0
 36 60  1  0  0  0  0
 36 65  1  0  0  0  0
 36 76  2  0  0  0  0
 37 59  1  0  0  0  0
 37 71  1  0  0  0  0
 37 77  2  0  0  0  0
 38 61  1  0  0  0  0
 38 72  1  0  0  0  0
 38 78  2  0  0  0  0
 39 66  1  0  0  0  0
 39 69  1  0  0  0  0
 39 79  2  0  0  0  0
 40 43  1  0  0  0  0
 41 50  1  0  0  0  0
 42 65  1  0  0  0  0
 43 45  1  0  0  0  0
 44 46  1  0  0  0  0
 44 47  1  0  0  0  0
 45 49  1  0  0  0  0
 46 51  1  0  0  0  0
 47 66  1  0  0  0  0
 48 51  1  0  0  0  0
 48 66  1  0  0  0  0
 49 70  1  0  0  0  0
 50 65  1  0  0  0  0
 51 64  1  0  0  0  0
 53 61  1  0  0  0  0
 54 62  1  0  0  0  0
 55 62  1  0  0  0  0
 56 62  1  0  0  0  0
 57 73  1  0  0  0  0
 58 71  1  0  0  0  0
 59 81  1  0  0  0  0
 60 62  1  0  0  0  0
 60 72  1  0  0  0  0
 61 73  1  0  0  0  0
 63 64  1  0  0  0  0
M  CHG  1  73   1
M  ISO  4  39 100  59 101  69 100  81 101
M  END
> <Batch ID>
0013

> <Smiles>
CNC(C)C(=O)NC(C(=O)N1Cc2cc([101O:1][101CH2:1]C(=O)NCc3cc(C)cc([100NH:0][100C:0](=O)N4CCCC(n5nc(-c6ccc(Oc7ccc(F)cc7F)cc6)c(C(N)=O)c5N)C4)c3Cl)ccc2CC1C(=O)NC1CCCc2ccccc21)C(C)(C)C

> <Shape>
0.224

> <Color>
0.198

> <Negative vol penalty>
0.000

$$$$

  -OEChem-04052315503D

 84 92  0     1  0  0  0  0  0999 V2000
  -29.4399  -24.4129   17.0041 C   0  0  0  0  0  0  0  0  0  0  0  0
  -28.2395  -24.4414   17.7067 C   0  0  0  0  0  0  0  0  0  0  0  0
  -27.6201  -14.9429   19.4565 C   0  0  0  0  0  0  0  0  0  0  0  0
  -25.2728  -15.4303   19.7560 C   0  0  0  0  0  0  0  0  0  0  0  0
  -30.5327  -25.1469   17.4633 C   0  0  0  0  0  0  0  0  0  0  0  0
  -28.1316  -25.2032   18.8697 C   0  0  0  0  0  0  0  0  0  0  0  0
  -23.8371  -27.8811   19.0464 C   0  0  0  0  0  0  0  0  0  0  0  0
  -27.3950  -13.6216   19.8428 C   0  0  0  0  0  0  0  0  0  0  0  0
  -25.0477  -14.1090   20.1423 C   0  0  0  0  0  0  0  0  0  0  0  0
  -22.6738  -27.1965   19.3955 C   0  0  0  0  0  0  0  0  0  0  0  0
  -25.4685  -12.2172   22.9126 C   0  0  0  0  0  0  0  0  0  0  0  0
  -24.6682  -11.9971   24.0336 C   0  0  0  0  0  0  0  0  0  0  0  0
  -22.8592  -28.0420   21.6471 C   0  0  0  0  0  0  0  0  0  0  0  0
  -21.9333  -23.7342   24.7166 C   0  0  0  0  0  0  0  0  0  0  0  0
  -23.1163  -10.7359   22.6779 C   0  0  0  0  0  0  0  0  0  0  0  0
  -26.5590  -15.8473   19.4132 C   0  0  0  0  0  0  0  0  0  0  0  0
  -26.7336  -17.7387   17.7104 C   0  0  0  0  0  0  0  0  0  0  0  0
  -30.4352  -25.9258   18.6271 C   0  0  0  0  0  0  0  0  0  0  0  0
  -24.5274  -28.6437   19.9994 C   0  0  0  0  0  0  0  0  0  0  0  0
  -29.2245  -25.9473   19.3456 C   0  0  0  0  0  0  0  0  0  0  0  0
  -24.0296  -28.7374   21.3069 C   0  0  0  0  0  0  0  0  0  0  0  0
  -21.7152  -23.5451   23.3519 C   0  0  0  0  0  0  0  0  0  0  0  0
  -24.0415  -22.9610   23.0612 C   0  0  0  0  0  0  0  0  0  0  0  0
  -26.1089  -13.2047   20.1857 C   0  0  0  0  0  0  0  0  0  0  0  0
  -22.1862  -27.2746   20.6967 C   0  0  0  0  0  0  0  0  0  0  0  0
  -25.0928  -11.6967   21.6742 C   0  0  0  0  0  0  0  0  0  0  0  0
  -23.4921  -11.2564   23.9162 C   0  0  0  0  0  0  0  0  0  0  0  0
  -23.2054  -23.5367   25.2536 C   0  0  0  0  0  0  0  0  0  0  0  0
  -23.9166  -10.9560   21.5569 C   0  0  0  0  0  0  0  0  0  0  0  0
  -24.2595  -23.1501   24.4258 C   0  0  0  0  0  0  0  0  0  0  0  0
  -22.7693  -23.1585   22.5242 C   0  0  0  0  0  0  0  0  0  0  0  0
  -26.7910  -17.2124   19.0148 C   0  0  0  0  0  0  0  0  0  0  0  0
  -27.0291  -19.0711   17.8644 C   0  0  0  0  0  0  0  0  0  0  0  0
  -26.4395  -17.0819   16.4703 C   0  0  0  0  0  0  0  0  0  0  0  0
  -27.4335  -28.5345   21.2825 C   0  0  0  0  0  0  0  0  0  0  0  0
  -20.0668  -24.9273   22.4210 C   0  0  0  0  0  0  0  0  0  0  0  0
  -26.5044  -31.3195   22.6620 C   0  0  0  0  0  0  0  0  0  0  0  0
  -23.9472  -33.3234   23.7068 C   0  0  0  0  0  0  0  0  0  0  0  0
  -26.4821  -22.8708   22.4435 C   0  0  0  0  0  0  0  0  0  0  0  0
  -31.6578  -26.6649   19.1105 C   0  0  0  0  0  0  0  0  0  0  0  0
  -25.7661  -29.3978   19.6001 C   0  0  0  0  0  0  0  0  0  0  0  0
  -24.7222  -29.5590   22.3622 C   0  0  0  0  0  0  0  0  0  0  0  0
  -31.3480  -27.7435   20.1454 C   0  0  0  0  0  0  0  0  0  0  0  0
  -29.4757  -22.0615   20.6940 C   0  0  0  0  0  0  0  0  0  0  0  0
  -30.4009  -27.2034   21.2122 C   0  0  0  0  0  0  0  0  0  0  0  0
  -29.1198  -20.7774   19.9414 C   0  0  0  0  0  0  0  0  0  0  0  0
  -28.8189  -22.1115   22.0724 C   0  0  0  0  0  0  0  0  0  0  0  0
  -27.0098  -20.6166   21.3230 C   0  0  0  0  0  0  0  0  0  0  0  0
  -29.0608  -26.7813   20.5977 C   0  0  1  0  0  0  0  0  0  0  0  0
  -26.6712  -29.7290   20.7827 C   0  0  1  0  0  0  0  0  0  0  0  0
  -27.5958  -20.5505   19.9032 C   0  0  2  0  0  0  0  0  0  0  0  0
  -18.6703  -25.0724   21.8640 C   0  0  0  0  0  0  0  0  0  0  0  0
  -23.5005  -35.5217   24.8316 C   0  0  0  0  0  0  0  0  0  0  0  0
  -27.2609  -30.0941   25.3521 C   0  0  0  0  0  0  0  0  0  0  0  0
  -25.9386  -31.9029   26.4691 C   0  0  0  0  0  0  0  0  0  0  0  0
  -27.9216  -32.4901   25.0744 C   0  0  0  0  0  0  0  0  0  0  0  0
  -22.4918  -34.3654   21.3500 C   0  0  0  0  0  0  0  0  0  0  0  0
  -20.9422  -26.1644   22.3926 C   0  0  0  0  0  0  0  0  0  1  0  0
  -25.8037  -31.6953   23.9453 C   0  0  1  0  0  0  0  0  0  0  0  0
  -23.6797  -34.8037   23.5030 C   0  0  2  0  0  0  0  0  0  0  0  0
  -26.7190  -31.5285   25.1911 C   0  0  0  0  0  0  0  0  0  0  0  0
  -27.0988  -18.1352   19.9300 N   0  0  0  0  0  0  0  0  0  0  0  0
  -20.4236  -23.7525   22.8462 N   0  0  0  0  0  0  0  0  0  0  0  0
  -27.2377  -19.2547   19.1997 N   0  0  0  0  0  0  0  0  0  0  0  0
  -25.9331  -30.2728   21.9245 N   0  0  0  0  0  0  0  0  0  0  0  0
  -27.3754  -21.8928   21.9575 N   0  0  0  0  0  0  0  0  0  0  0  0
  -27.1284  -20.0919   16.9866 N   0  0  0  0  0  0  0  0  0  0  0  0
  -26.1579  -15.7091   16.4917 N   0  0  0  0  0  0  0  0  0  0  0  0
  -25.1347  -22.5683   22.2498 N   0  0  0  0  0  0  0  0  0  0  0  0
  -28.2398  -27.9425   20.3292 N   0  0  0  0  0  0  0  0  0  0  0  0
  -25.2979  -33.0500   23.7526 N   0  0  0  0  0  0  0  0  0  0  0  0
  -22.4446  -35.0001   22.6924 N   0  3  0  0  0  0  0  0  0  0  0  0
  -26.4428  -17.6909   15.3736 O   0  0  0  0  0  0  0  0  0  0  0  0
  -27.3011  -28.1773   22.4472 O   0  0  0  0  0  0  0  0  0  0  0  0
  -27.5171  -31.9367   22.3228 O   0  0  0  0  0  0  0  0  0  0  0  0
  -23.0479  -32.4931   23.8183 O   0  0  0  0  0  0  0  0  0  0  0  0
  -26.8835  -23.9134   22.9669 O   0  0  0  0  0  0  0  0  0  0  0  0
  -25.8888  -11.9154   20.5624 O   0  0  0  0  0  0  0  0  0  0  0  0
  -21.0513  -26.6069   21.0403 O   0  0  0  0  0  0  0  0  0  1  0  0
  -22.7244  -11.0439   24.9931 F   0  0  0  0  0  0  0  0  0  0  0  0
  -23.4148  -23.7184   26.5640 F   0  0  0  0  0  0  0  0  0  0  0  0
  -23.5510  -10.4525   20.3701 F   0  0  0  0  0  0  0  0  0  0  0  0
  -25.4774  -22.9637   24.9548 F   0  0  0  0  0  0  0  0  0  0  0  0
  -22.4916  -22.9250   20.8282 Cl  0  0  0  0  0  0  0  0  0  0  0  0
  1  2  1  0  0  0  0
  1  5  2  0  0  0  0
  2  6  2  0  0  0  0
  3  8  2  0  0  0  0
  3 16  1  0  0  0  0
  4  9  1  0  0  0  0
  4 16  2  0  0  0  0
  5 18  1  0  0  0  0
  6 20  1  0  0  0  0
  7 10  2  0  0  0  0
  7 19  1  0  0  0  0
  8 24  1  0  0  0  0
  9 24  2  0  0  0  0
 10 25  1  0  0  0  0
 11 12  2  0  0  0  0
 11 26  1  0  0  0  0
 12 27  1  0  0  0  0
 13 21  1  0  0  0  0
 13 25  2  0  0  0  0
 14 22  1  0  0  0  0
 14 28  2  0  0  0  0
 15 27  2  0  0  0  0
 15 29  1  0  0  0  0
 16 32  1  0  0  0  0
 17 32  1  0  0  0  0
 17 33  2  0  0  0  0
 17 34  1  0  0  0  0
 18 20  2  0  0  0  0
 18 40  1  0  0  0  0
 19 21  2  0  0  0  0
 19 41  1  0  0  0  0
 20 49  1  0  0  0  0
 21 42  1  0  0  0  0
 22 31  2  0  0  0  0
 22 63  1  0  0  0  0
 23 30  2  0  0  0  0
 23 31  1  0  0  0  0
 23 69  1  0  0  0  0
 24 78  1  0  0  0  0
 25 79  1  0  0  0  0
 26 29  2  0  0  0  0
 26 78  1  0  0  0  0
 27 80  1  0  0  0  0
 28 30  1  0  0  0  0
 28 81  1  0  0  0  0
 29 82  1  0  0  0  0
 30 83  1  0  0  0  0
 31 84  1  0  0  0  0
 32 62  2  0  0  0  0
 33 64  1  0  0  0  0
 33 67  1  0  0  0  0
 34 68  1  0  0  0  0
 34 73  2  0  0  0  0
 35 50  1  0  0  0  0
 35 70  1  0  0  0  0
 35 74  2  0  0  0  0
 36 52  1  0  0  0  0
 36 58  1  0  0  0  0
 36 63  2  0  0  0  0
 37 59  1  0  0  0  0
 37 65  1  0  0  0  0
 37 75  2  0  0  0  0
 38 60  1  0  0  0  0
 38 71  1  0  0  0  0
 38 76  2  0  0  0  0
 39 66  1  0  0  0  0
 39 69  1  0  0  0  0
 39 77  2  0  0  0  0
 40 43  1  0  0  0  0
 41 50  1  0  0  0  0
 42 65  1  0  0  0  0
 43 45  1  0  0  0  0
 44 46  1  0  0  0  0
 44 47  1  0  0  0  0
 45 49  1  0  0  0  0
 46 51  1  0  0  0  0
 47 66  1  0  0  0  0
 48 51  1  0  0  0  0
 48 66  1  0  0  0  0
 49 70  1  0  0  0  0
 50 65  1  0  0  0  0
 51 64  1  0  0  0  0
 53 60  1  0  0  0  0
 54 61  1  0  0  0  0
 55 61  1  0  0  0  0
 56 61  1  0  0  0  0
 57 72  1  0  0  0  0
 58 79  1  0  0  0  0
 59 61  1  0  0  0  0
 59 71  1  0  0  0  0
 60 72  1  0  0  0  0
 62 64  1  0  0  0  0
M  CHG  1  72   1
M  ISO  4  39 100  58 101  69 100  79 101
M  END
> <Batch ID>
0013

> <Smiles>
CNC(C)C(=O)NC(C(=O)N1Cc2cc([101O:1][101CH2:1]C(C)=Nc3cc(F)c(F)c([100NH:0][100C:0](=O)N4CCCC(n5nc(-c6ccc(Oc7ccc(F)cc7F)cc6)c(C(N)=O)c5N)C4)c3Cl)ccc2CC1C(=O)NC1CCCc2ccccc21)C(C)(C)C

> <Shape>
0.273

> <Color>
0.066

> <Negative vol penalty>
0.000

$$$$

  -OEChem-04052315503D

 85 93  0     1  0  0  0  0  0999 V2000
  -34.6112  -31.2065   29.4378 C   0  0  0  0  0  0  0  0  0  0  0  0
  -34.9523  -29.9286   29.0066 C   0  0  0  0  0  0  0  0  0  0  0  0
  -22.9977  -10.0347   19.8533 C   0  0  0  0  0  0  0  0  0  0  0  0
  -23.8429   -9.7760   22.1018 C   0  0  0  0  0  0  0  0  0  0  0  0
  -33.3638  -31.7398   29.1161 C   0  0  0  0  0  0  0  0  0  0  0  0
  -34.0456  -29.1827   28.2543 C   0  0  0  0  0  0  0  0  0  0  0  0
  -35.3590  -25.2485   23.7484 C   0  0  0  0  0  0  0  0  0  0  0  0
  -22.2220   -8.8864   20.0128 C   0  0  0  0  0  0  0  0  0  0  0  0
  -23.0672   -8.6278   22.2613 C   0  0  0  0  0  0  0  0  0  0  0  0
  -35.4699  -23.8591   23.7190 C   0  0  0  0  0  0  0  0  0  0  0  0
  -19.8369   -7.8763   22.9103 C   0  0  0  0  0  0  0  0  0  0  0  0
  -19.1235   -7.7382   24.1009 C   0  0  0  0  0  0  0  0  0  0  0  0
  -33.1898  -23.6994   22.9477 C   0  0  0  0  0  0  0  0  0  0  0  0
  -32.3178  -16.1531   22.7554 C   0  0  0  0  0  0  0  0  0  0  0  0
  -20.3200   -5.6949   24.5807 C   0  0  0  0  0  0  0  0  0  0  0  0
  -23.8082  -10.4795   20.8978 C   0  0  0  0  0  0  0  0  0  0  0  0
  -24.2374  -12.9908   21.0262 C   0  0  0  0  0  0  0  0  0  0  0  0
  -32.4451  -31.0038   28.3513 C   0  0  0  0  0  0  0  0  0  0  0  0
  -34.1572  -25.8744   23.3875 C   0  0  0  0  0  0  0  0  0  0  0  0
  -32.7842  -29.7060   27.9232 C   0  0  0  0  0  0  0  0  0  0  0  0
  -33.0671  -25.0970   22.9709 C   0  0  0  0  0  0  0  0  0  0  0  0
  -30.2106  -17.0293   23.5485 C   0  0  0  0  0  0  0  0  0  0  0  0
  -30.9267  -16.2132   22.6728 C   0  0  0  0  0  0  0  0  0  0  0  0
  -32.2768  -17.7251   24.5896 C   0  0  0  0  0  0  0  0  0  0  0  0
  -22.2567   -8.1830   21.2168 C   0  0  0  0  0  0  0  0  0  0  0  0
  -34.3843  -23.0841   23.3214 C   0  0  0  0  0  0  0  0  0  0  0  0
  -20.7918   -6.9237   22.5548 C   0  0  0  0  0  0  0  0  0  0  0  0
  -19.3651   -6.6475   24.9361 C   0  0  0  0  0  0  0  0  0  0  0  0
  -32.9929  -16.9090   23.7138 C   0  0  0  0  0  0  0  0  0  0  0  0
  -21.0334   -5.8330   23.3901 C   0  0  0  0  0  0  0  0  0  0  0  0
  -30.8857  -17.7853   24.5069 C   0  0  0  0  0  0  0  0  0  0  0  0
  -24.6101  -11.6652   20.7335 C   0  0  0  0  0  0  0  0  0  0  0  0
  -25.3419  -13.7384   20.6980 C   0  0  0  0  0  0  0  0  0  0  0  0
  -23.0033  -13.5008   21.5483 C   0  0  0  0  0  0  0  0  0  0  0  0
  -32.0574  -27.7321   24.8854 C   0  0  0  0  0  0  0  0  0  0  0  0
  -30.7213  -27.9354   21.9366 C   0  0  0  0  0  0  0  0  0  0  0  0
  -30.2968  -26.5505   18.8465 C   0  0  0  0  0  0  0  0  0  0  0  0
  -30.8454  -14.5818   20.7549 C   0  0  0  0  0  0  0  0  0  0  0  0
  -31.0905  -31.6037   28.0686 C   0  0  0  0  0  0  0  0  0  0  0  0
  -34.0622  -27.3755   23.3989 C   0  0  0  0  0  0  0  0  0  0  0  0
  -31.7612  -25.7212   22.5541 C   0  0  0  0  0  0  0  0  0  0  0  0
  -30.3318  -30.8946   26.9498 C   0  0  0  0  0  0  0  0  0  0  0  0
  -29.5552  -12.4676   18.1970 C   0  0  0  0  0  0  0  0  0  0  0  0
  -30.3911  -29.3823   27.1398 C   0  0  0  0  0  0  0  0  0  0  0  0
  -28.1230  -12.1794   18.6530 C   0  0  0  0  0  0  0  0  0  0  0  0
  -30.5226  -12.5391   19.3772 C   0  0  0  0  0  0  0  0  0  0  0  0
  -28.6966  -13.1760   20.9035 C   0  0  0  0  0  0  0  0  0  0  0  0
  -31.8373  -28.8756   27.0842 C   0  0  1  0  0  0  0  0  0  0  0  0
  -32.6271  -27.8826   23.5033 C   0  0  1  0  0  0  0  0  0  0  0  0
  -27.6746  -13.1591   19.7551 C   0  0  2  0  0  0  0  0  0  0  0  0
  -28.7167  -17.0815   23.4455 C   0  0  0  0  0  0  0  0  0  0  0  0
  -29.1193  -26.9292   16.6630 C   0  0  0  0  0  0  0  0  0  0  0  0
  -28.0904  -27.0524   23.2049 C   0  0  0  0  0  0  0  0  0  0  0  0
  -27.2371  -26.5361   20.9085 C   0  0  0  0  0  0  0  0  0  0  0  0
  -27.8697  -28.8740   21.5057 C   0  0  0  0  0  0  0  0  0  0  0  0
  -33.2645  -17.9008   26.8598 C   0  0  0  0  0  0  0  0  0  0  0  0
  -32.8514  -26.6730   17.3573 C   0  0  0  0  0  0  0  0  0  0  0  0
  -34.8434  -19.7481   24.6022 C   0  0  0  0  0  0  0  0  0  0  0  0
  -33.4648  -19.8021   25.2493 C   0  0  0  0  0  0  0  0  0  0  0  0
  -35.3805  -21.1252   24.2305 C   0  0  0  0  0  0  0  0  0  1  0  0
  -29.6843  -27.1448   21.1759 C   0  0  1  0  0  0  0  0  0  0  0  0
  -30.4005  -27.1448   17.4534 C   0  0  2  0  0  0  0  0  0  0  0  0
  -28.2442  -27.3897   21.7084 C   0  0  0  0  0  0  0  0  0  0  0  0
  -25.8540  -11.5728   20.2558 N   0  0  0  0  0  0  0  0  0  0  0  0
  -26.2725  -12.8499   20.2458 N   0  0  0  0  0  0  0  0  0  0  0  0
  -31.7158  -27.1923   22.5883 N   0  0  0  0  0  0  0  0  0  0  0  0
  -30.0350  -13.4897   20.3790 N   0  0  0  0  0  0  0  0  0  0  0  0
  -25.5980  -15.0627   20.7548 N   0  0  0  0  0  0  0  0  0  0  0  0
  -21.9722  -12.5945   21.8309 N   0  0  0  0  0  0  0  0  0  0  0  0
  -30.2635  -15.4363   21.6908 N   0  0  0  0  0  0  0  0  0  0  0  0
  -32.2981  -28.8115   25.7138 N   0  0  0  0  0  0  0  0  0  0  0  0
  -29.8662  -27.4814   19.7681 N   0  0  0  0  0  0  0  0  0  0  0  0
  -32.9853  -18.4727   25.5412 N   0  0  3  0  0  0  0  0  0  0  0  0
  -31.5259  -26.5169   16.7049 N   0  3  0  0  0  0  0  0  0  0  0  0
  -22.8146  -14.7256   21.7426 O   0  0  0  0  0  0  0  0  0  0  0  0
  -31.4436  -26.7127   25.1782 O   0  0  0  0  0  0  0  0  0  0  0  0
  -30.6556  -29.1671   21.9461 O   0  0  0  0  0  0  0  0  0  0  0  0
  -30.5668  -25.3769   19.0918 O   0  0  0  0  0  0  0  0  0  0  0  0
  -31.9615  -14.7620   20.2612 O   0  0  0  0  0  0  0  0  0  0  0  0
  -21.4998   -7.0626   21.3728 O   0  0  0  0  0  0  0  0  0  0  0  0
  -34.4897  -21.7277   23.2924 O   0  0  0  0  0  0  0  0  0  1  0  0
  -18.6810   -6.5159   26.0802 F   0  0  0  0  0  0  0  0  0  0  0  0
  -34.3302  -16.8427   23.7829 F   0  0  0  0  0  0  0  0  0  0  0  0
  -21.9503   -4.9151   23.0545 F   0  0  0  0  0  0  0  0  0  0  0  0
  -29.9939  -18.7996   25.5947 Cl  0  0  0  0  0  0  0  0  0  0  0  0
  1  2  1  0  0  0  0
  1  5  2  0  0  0  0
  2  6  2  0  0  0  0
  3  8  2  0  0  0  0
  3 16  1  0  0  0  0
  4  9  1  0  0  0  0
  4 16  2  0  0  0  0
  5 18  1  0  0  0  0
  6 20  1  0  0  0  0
  7 10  2  0  0  0  0
  7 19  1  0  0  0  0
  8 25  1  0  0  0  0
  9 25  2  0  0  0  0
 10 26  1  0  0  0  0
 11 12  2  0  0  0  0
 11 27  1  0  0  0  0
 12 28  1  0  0  0  0
 13 21  1  0  0  0  0
 13 26  2  0  0  0  0
 14 23  1  0  0  0  0
 14 29  2  0  0  0  0
 15 28  2  0  0  0  0
 15 30  1  0  0  0  0
 16 32  1  0  0  0  0
 17 32  1  0  0  0  0
 17 33  2  0  0  0  0
 17 34  1  0  0  0  0
 18 20  2  0  0  0  0
 18 39  1  0  0  0  0
 19 21  2  0  0  0  0
 19 40  1  0  0  0  0
 20 48  1  0  0  0  0
 21 41  1  0  0  0  0
 22 23  2  0  0  0  0
 22 31  1  0  0  0  0
 22 51  1  0  0  0  0
 23 70  1  0  0  0  0
 24 29  1  0  0  0  0
 24 31  2  0  0  0  0
 24 73  1  0  0  0  0
 25 80  1  0  0  0  0
 26 81  1  0  0  0  0
 27 30  2  0  0  0  0
 27 80  1  0  0  0  0
 28 82  1  0  0  0  0
 29 83  1  0  0  0  0
 30 84  1  0  0  0  0
 31 85  1  0  0  0  0
 32 64  2  0  0  0  0
 33 65  1  0  0  0  0
 33 68  1  0  0  0  0
 34 69  1  0  0  0  0
 34 75  2  0  0  0  0
 35 49  1  0  0  0  0
 35 71  1  0  0  0  0
 35 76  2  0  0  0  0
 36 61  1  0  0  0  0
 36 66  1  0  0  0  0
 36 77  2  0  0  0  0
 37 62  1  0  0  0  0
 37 72  1  0  0  0  0
 37 78  2  0  0  0  0
 38 67  1  0  0  0  0
 38 70  1  0  0  0  0
 38 79  2  0  0  0  0
 39 42  1  0  0  0  0
 40 49  1  0  0  0  0
 41 66  1  0  0  0  0
 42 44  1  0  0  0  0
 43 45  1  0  0  0  0
 43 46  1  0  0  0  0
 44 48  1  0  0  0  0
 45 50  1  0  0  0  0
 46 67  1  0  0  0  0
 47 50  1  0  0  0  0
 47 67  1  0  0  0  0
 48 71  1  0  0  0  0
 49 66  1  0  0  0  0
 50 65  1  0  0  0  0
 52 62  1  0  0  0  0
 53 63  1  0  0  0  0
 54 63  1  0  0  0  0
 55 63  1  0  0  0  0
 56 73  1  0  0  0  0
 57 74  1  0  0  0  0
 58 59  1  0  0  0  0
 58 60  1  0  0  0  0
 59 73  1  0  0  0  0
 60 81  1  0  0  0  0
 61 63  1  0  0  0  0
 61 72  1  0  0  0  0
 62 74  1  0  0  0  0
 64 65  1  0  0  0  0
M  CHG  1  74   1
M  ISO  4  38 100  60 101  70 100  81 101
M  END
> <Batch ID>
0013

> <Smiles>
CNC(C)C(=O)NC(C(=O)N1Cc2cc([101O:1][101CH2:1]CCN(C)c3c(F)cc([100NH:0][100C:0](=O)N4CCCC(n5nc(-c6ccc(Oc7ccc(F)cc7F)cc6)c(C(N)=O)c5N)C4)c(C)c3Cl)ccc2CC1C(=O)NC1CCCc2ccccc21)C(C)(C)C

> <Shape>
0.214

> <Color>
0.211

> <Negative vol penalty>
0.000

$$$$

  -OEChem-04052315503D

 84 92  0     1  0  0  0  0  0999 V2000
  -27.9176  -33.5055   26.2290 C   0  0  0  0  0  0  0  0  0  0  0  0
  -28.1341  -32.6116   25.1853 C   0  0  0  0  0  0  0  0  0  0  0  0
  -23.8488   -9.7293   22.3181 C   0  0  0  0  0  0  0  0  0  0  0  0
  -24.6785   -8.8655   20.2199 C   0  0  0  0  0  0  0  0  0  0  0  0
  -26.7660  -33.4003   27.0079 C   0  0  0  0  0  0  0  0  0  0  0  0
  -27.1994  -31.6112   24.9205 C   0  0  0  0  0  0  0  0  0  0  0  0
  -26.1969  -31.1482   19.9782 C   0  0  0  0  0  0  0  0  0  0  0  0
  -22.8477   -8.7580   22.3222 C   0  0  0  0  0  0  0  0  0  0  0  0
  -23.6774   -7.8942   20.2239 C   0  0  0  0  0  0  0  0  0  0  0  0
  -27.1332  -30.4695   19.1995 C   0  0  0  0  0  0  0  0  0  0  0  0
  -22.5721   -5.4679   23.0517 C   0  0  0  0  0  0  0  0  0  0  0  0
  -22.3374   -4.7838   24.2444 C   0  0  0  0  0  0  0  0  0  0  0  0
  -30.0715  -21.3729   20.7820 C   0  0  0  0  0  0  0  0  0  0  0  0
  -27.6887  -21.6558   20.5011 C   0  0  0  0  0  0  0  0  0  0  0  0
  -25.7601  -28.4880   19.2861 C   0  0  0  0  0  0  0  0  0  0  0  0
  -20.0608   -5.5924   24.2603 C   0  0  0  0  0  0  0  0  0  0  0  0
  -24.7642   -9.7831   21.2669 C   0  0  0  0  0  0  0  0  0  0  0  0
  -28.7769  -20.8596   20.8584 C   0  0  0  0  0  0  0  0  0  0  0  0
  -27.0882  -10.6806   21.8154 C   0  0  0  0  0  0  0  0  0  0  0  0
  -25.8122  -32.4041   26.7465 C   0  0  0  0  0  0  0  0  0  0  0  0
  -25.0384  -30.4975   20.4267 C   0  0  0  0  0  0  0  0  0  0  0  0
  -26.0346  -31.4917   25.6974 C   0  0  0  0  0  0  0  0  0  0  0  0
  -24.8094  -29.1614   20.0683 C   0  0  0  0  0  0  0  0  0  0  0  0
  -29.1900  -23.4787   19.9910 C   0  0  0  0  0  0  0  0  0  0  0  0
  -22.7620   -7.8404   21.2751 C   0  0  0  0  0  0  0  0  0  0  0  0
  -26.9163  -29.1384   18.8557 C   0  0  0  0  0  0  0  0  0  0  0  0
  -21.5511   -6.2144   22.4633 C   0  0  0  0  0  0  0  0  0  0  0  0
  -21.0818   -4.8460   24.8487 C   0  0  0  0  0  0  0  0  0  0  0  0
  -20.2955   -6.2766   23.0676 C   0  0  0  0  0  0  0  0  0  0  0  0
  -30.2781  -22.6825   20.3483 C   0  0  0  0  0  0  0  0  0  0  0  0
  -27.8953  -22.9654   20.0674 C   0  0  0  0  0  0  0  0  0  0  0  0
  -25.7982  -10.7865   21.2619 C   0  0  0  0  0  0  0  0  0  0  0  0
  -27.6769  -11.8925   21.5483 C   0  0  0  0  0  0  0  0  0  0  0  0
  -28.5614  -19.4941   21.3108 C   0  0  0  0  0  0  0  0  0  0  0  0
  -27.4536  -18.7580   21.0795 C   0  0  0  0  0  0  0  0  0  0  0  0
  -27.6997   -9.5848   22.5088 C   0  0  0  0  0  0  0  0  0  0  0  0
  -27.3893  -17.3770   21.5986 C   0  0  0  0  0  0  0  0  0  0  0  0
  -23.8330  -29.7742   23.2776 C   0  0  0  0  0  0  0  0  0  0  0  0
  -21.2904  -28.7902   21.5199 C   0  0  0  0  0  0  0  0  0  0  0  0
  -20.0956  -27.6839   18.5207 C   0  0  0  0  0  0  0  0  0  0  0  0
  -24.6057  -32.3004   27.6455 C   0  0  0  0  0  0  0  0  0  0  0  0
  -24.0252  -31.2514   21.2436 C   0  0  0  0  0  0  0  0  0  0  0  0
  -23.5720  -28.4235   20.5074 C   0  0  0  0  0  0  0  0  0  0  0  0
  -23.4834  -31.4454   27.0626 C   0  0  0  0  0  0  0  0  0  0  0  0
  -26.2230  -15.6875   18.5626 C   0  0  0  0  0  0  0  0  0  0  0  0
  -24.0417  -30.1408   26.5031 C   0  0  0  0  0  0  0  0  0  0  0  0
  -26.0706  -14.2541   19.0644 C   0  0  0  0  0  0  0  0  0  0  0  0
  -25.8863  -16.7112   19.6457 C   0  0  0  0  0  0  0  0  0  0  0  0
  -26.5045  -15.0848   21.4100 C   0  0  0  0  0  0  0  0  0  0  0  0
  -25.0321  -30.4084   25.3634 C   0  0  1  0  0  0  0  0  0  0  0  0
  -23.1298  -30.3386   22.0756 C   0  0  1  0  0  0  0  0  0  0  0  0
  -26.8838  -14.0382   20.3506 C   0  0  1  0  0  0  0  0  0  0  0  0
  -17.9817  -26.9255   17.4011 C   0  0  0  0  0  0  0  0  0  0  0  0
  -21.4966  -26.1053   22.9547 C   0  0  0  0  0  0  0  0  0  0  0  0
  -20.0385  -25.1204   21.1738 C   0  0  0  0  0  0  0  0  0  0  0  0
  -19.1612  -26.9411   22.6360 C   0  0  0  0  0  0  0  0  0  0  0  0
  -20.2152  -29.8844   16.5452 C   0  0  0  0  0  0  0  0  0  0  0  0
  -29.3680  -26.6362   17.9743 C   0  0  0  0  0  0  0  0  0  0  0  0
  -29.6015  -25.1443   18.1793 C   0  0  0  0  0  0  0  0  0  0  0  0
  -27.9428  -27.0659   18.3016 C   0  0  0  0  0  0  0  0  0  1  0  0
  -20.8805  -27.4926   20.8663 C   0  0  1  0  0  0  0  0  0  0  0  0
  -18.8921  -28.1070   17.6979 C   0  0  2  0  0  0  0  0  0  0  0  0
  -20.4185  -26.4279   21.9009 C   0  0  0  0  0  0  0  0  0  0  0  0
  -25.5795  -11.9721   20.6868 N   0  0  0  0  0  0  0  0  0  0  0  0
  -26.7401  -12.6223   20.8776 N   0  0  0  0  0  0  0  0  0  0  0  0
  -26.6329  -16.4489   20.8852 N   0  0  0  0  0  0  0  0  0  0  0  0
  -22.6141  -29.2019   21.3099 N   0  0  0  0  0  0  0  0  0  0  0  0
  -28.8994  -12.3944   21.8242 N   0  0  0  0  0  0  0  0  0  0  0  0
  -26.9537   -8.4133   22.6970 N   0  0  0  0  0  0  0  0  0  0  0  0
  -29.3953  -24.7802   19.5603 N   0  0  0  0  0  0  0  0  0  0  0  0
  -24.3236  -30.7325   24.1438 N   0  0  0  0  0  0  0  0  0  0  0  0
  -19.8699  -27.8377   19.8722 N   0  0  0  0  0  0  0  0  0  0  0  0
  -19.3320  -28.6984   16.4027 N   0  3  0  0  0  0  0  0  0  0  0  0
  -28.8673   -9.6486   22.9630 O   0  0  0  0  0  0  0  0  0  0  0  0
  -28.0064  -17.1304   22.6364 O   0  0  0  0  0  0  0  0  0  0  0  0
  -23.9224  -28.5593   23.4101 O   0  0  0  0  0  0  0  0  0  0  0  0
  -20.4644  -29.4190   22.1862 O   0  0  0  0  0  0  0  0  0  0  0  0
  -21.1310  -27.2561   18.0152 O   0  0  0  0  0  0  0  0  0  0  0  0
  -21.7854   -6.8924   21.2788 O   0  0  0  0  0  0  0  0  0  0  0  0
  -27.8289  -28.4734   18.0962 O   0  0  0  0  0  0  0  0  0  1  0  0
  -20.8562   -4.1878   25.9932 F   0  0  0  0  0  0  0  0  0  0  0  0
  -19.3104   -6.9911   22.5065 F   0  0  0  0  0  0  0  0  0  0  0  0
  -31.9001  -23.2745   20.2704 Cl  0  0  0  0  0  0  0  0  0  0  0  0
  -26.5163  -23.9138   19.6360 Cl  0  0  0  0  0  0  0  0  0  0  0  0
  1  2  1  0  0  0  0
  1  5  2  0  0  0  0
  2  6  2  0  0  0  0
  3  8  2  0  0  0  0
  3 17  1  0  0  0  0
  4  9  1  0  0  0  0
  4 17  2  0  0  0  0
  5 20  1  0  0  0  0
  6 22  1  0  0  0  0
  7 10  2  0  0  0  0
  7 21  1  0  0  0  0
  8 25  1  0  0  0  0
  9 25  2  0  0  0  0
 10 26  1  0  0  0  0
 11 12  2  0  0  0  0
 11 27  1  0  0  0  0
 12 28  1  0  0  0  0
 13 18  1  0  0  0  0
 13 30  2  0  0  0  0
 14 18  2  0  0  0  0
 14 31  1  0  0  0  0
 15 23  1  0  0  0  0
 15 26  2  0  0  0  0
 16 28  2  0  0  0  0
 16 29  1  0  0  0  0
 17 32  1  0  0  0  0
 18 34  1  0  0  0  0
 19 32  1  0  0  0  0
 19 33  2  0  0  0  0
 19 36  1  0  0  0  0
 20 22  2  0  0  0  0
 20 41  1  0  0  0  0
 21 23  2  0  0  0  0
 21 42  1  0  0  0  0
 22 50  1  0  0  0  0
 23 43  1  0  0  0  0
 24 30  1  0  0  0  0
 24 31  2  0  0  0  0
 24 70  1  0  0  0  0
 25 79  1  0  0  0  0
 26 80  1  0  0  0  0
 27 29  2  0  0  0  0
 27 79  1  0  0  0  0
 28 81  1  0  0  0  0
 29 82  1  0  0  0  0
 30 83  1  0  0  0  0
 31 84  1  0  0  0  0
 32 64  2  0  0  0  0
 33 65  1  0  0  0  0
 33 68  1  0  0  0  0
 34 35  2  0  0  0  0
 35 37  1  0  0  0  0
 36 69  1  0  0  0  0
 36 74  2  0  0  0  0
 37 66  1  0  0  0  0
 37 75  2  0  0  0  0
 38 51  1  0  0  0  0
 38 71  1  0  0  0  0
 38 76  2  0  0  0  0
 39 61  1  0  0  0  0
 39 67  1  0  0  0  0
 39 77  2  0  0  0  0
 40 62  1  0  0  0  0
 40 72  1  0  0  0  0
 40 78  2  0  0  0  0
 41 44  1  0  0  0  0
 42 51  1  0  0  0  0
 43 67  1  0  0  0  0
 44 46  1  0  0  0  0
 45 47  1  0  0  0  0
 45 48  1  0  0  0  0
 46 50  1  0  0  0  0
 47 52  1  0  0  0  0
 48 66  1  0  0  0  0
 49 52  1  0  0  0  0
 49 66  1  0  0  0  0
 50 71  1  0  0  0  0
 51 67  1  0  0  0  0
 52 65  1  0  0  0  0
 53 62  1  0  0  0  0
 54 63  1  0  0  0  0
 55 63  1  0  0  0  0
 56 63  1  0  0  0  0
 57 73  1  0  0  0  0
 58 59  1  0  0  0  0
 58 60  1  0  0  0  0
 59 70  1  0  0  0  0
 60 80  1  0  0  0  0
 61 63  1  0  0  0  0
 61 72  1  0  0  0  0
 62 73  1  0  0  0  0
 64 65  1  0  0  0  0
M  CHG  1  73   1
M  ISO  4  35 100  37 100  60 101  80 101
M  END
> <Batch ID>
0013

> <Smiles>
CNC(C)C(=O)NC(C(=O)N1Cc2cc([101O:1][101CH2:1]CCNc3c(Cl)cc(C=[100CH:0][100C:0](=O)N4CCCC(n5nc(-c6ccc(Oc7ccc(F)cc7F)cc6)c(C(N)=O)c5N)C4)cc3Cl)ccc2CC1C(=O)NC1CCCc2ccccc21)C(C)(C)C

> <Shape>
0.315

> <Color>
0.090

> <Negative vol penalty>
0.000

$$$$

  -OEChem-04052315503D

 85 93  0     1  0  0  0  0  0999 V2000
  -26.9782  -33.7303   26.1360 C   0  0  0  0  0  0  0  0  0  0  0  0
  -27.3463  -32.5757   25.4527 C   0  0  0  0  0  0  0  0  0  0  0  0
  -23.6483  -14.5364   21.8580 C   0  0  0  0  0  0  0  0  0  0  0  0
  -25.8245  -15.4526   21.3459 C   0  0  0  0  0  0  0  0  0  0  0  0
  -25.6469  -33.9294   26.4993 C   0  0  0  0  0  0  0  0  0  0  0  0
  -26.3834  -31.6191   25.1332 C   0  0  0  0  0  0  0  0  0  0  0  0
  -26.8213  -29.9347   20.3776 C   0  0  0  0  0  0  0  0  0  0  0  0
  -24.0875  -13.2726   21.4637 C   0  0  0  0  0  0  0  0  0  0  0  0
  -26.2637  -14.1887   20.9516 C   0  0  0  0  0  0  0  0  0  0  0  0
  -27.8239  -29.0000   20.1230 C   0  0  0  0  0  0  0  0  0  0  0  0
  -25.9465  -10.7643   22.7620 C   0  0  0  0  0  0  0  0  0  0  0  0
  -25.6272   -9.6821   23.5820 C   0  0  0  0  0  0  0  0  0  0  0  0
  -26.1870  -27.2301   20.2068 C   0  0  0  0  0  0  0  0  0  0  0  0
  -27.0630  -24.1488   16.0511 C   0  0  0  0  0  0  0  0  0  0  0  0
  -24.8062  -23.6815   16.7761 C   0  0  0  0  0  0  0  0  0  0  0  0
  -24.4264   -8.6527   21.7556 C   0  0  0  0  0  0  0  0  0  0  0  0
  -24.5168  -15.6264   21.7991 C   0  0  0  0  0  0  0  0  0  0  0  0
  -24.1315  -17.4922   23.4955 C   0  0  0  0  0  0  0  0  0  0  0  0
  -24.6656  -32.9792   26.1757 C   0  0  0  0  0  0  0  0  0  0  0  0
  -25.4934  -29.5223   20.5599 C   0  0  0  0  0  0  0  0  0  0  0  0
  -25.0379  -31.8051   25.4937 C   0  0  0  0  0  0  0  0  0  0  0  0
  -25.1689  -28.1617   20.4611 C   0  0  0  0  0  0  0  0  0  0  0  0
  -27.5609  -23.4628   17.1589 C   0  0  0  0  0  0  0  0  0  0  0  0
  -25.3041  -22.9955   17.8839 C   0  0  0  0  0  0  0  0  0  0  0  0
  -25.3952  -13.0988   21.0105 C   0  0  0  0  0  0  0  0  0  0  0  0
  -27.5074  -27.6472   20.0404 C   0  0  0  0  0  0  0  0  0  0  0  0
  -25.5057  -10.7908   21.4389 C   0  0  0  0  0  0  0  0  0  0  0  0
  -24.8672   -8.6262   23.0788 C   0  0  0  0  0  0  0  0  0  0  0  0
  -24.7457   -9.7350   20.9357 C   0  0  0  0  0  0  0  0  0  0  0  0
  -25.6856  -24.2582   15.8598 C   0  0  0  0  0  0  0  0  0  0  0  0
  -26.6815  -22.8861   18.0752 C   0  0  0  0  0  0  0  0  0  0  0  0
  -24.0635  -16.9323   22.2057 C   0  0  0  0  0  0  0  0  0  0  0  0
  -23.5747  -18.7402   23.3579 C   0  0  0  0  0  0  0  0  0  0  0  0
  -24.6517  -16.9342   24.7095 C   0  0  0  0  0  0  0  0  0  0  0  0
  -23.4016  -29.6855   22.9476 C   0  0  0  0  0  0  0  0  0  0  0  0
  -21.3666  -28.4746   20.7307 C   0  0  0  0  0  0  0  0  0  0  0  0
  -30.4246  -25.2987   18.1013 C   0  0  0  0  0  0  0  0  0  0  0  0
  -20.9476  -26.7067   17.8418 C   0  0  0  0  0  0  0  0  0  0  0  0
  -22.9883  -22.4595   18.7181 C   0  0  0  0  0  0  0  0  0  0  0  0
  -23.2474  -33.2163   26.6310 C   0  0  0  0  0  0  0  0  0  0  0  0
  -24.4192  -30.5456   20.8073 C   0  0  0  0  0  0  0  0  0  0  0  0
  -23.7555  -27.6694   20.6289 C   0  0  0  0  0  0  0  0  0  0  0  0
  -22.2248  -32.3293   25.9254 C   0  0  0  0  0  0  0  0  0  0  0  0
  -20.3669  -21.1409   20.7347 C   0  0  0  0  0  0  0  0  0  0  0  0
  -22.7064  -30.8824   25.8915 C   0  0  0  0  0  0  0  0  0  0  0  0
  -21.0252  -19.9667   21.4628 C   0  0  0  0  0  0  0  0  0  0  0  0
  -20.8806  -21.2802   19.3028 C   0  0  0  0  0  0  0  0  0  0  0  0
  -22.9998  -20.1747   19.8992 C   0  0  0  0  0  0  0  0  0  0  0  0
  -24.0182  -30.7557   25.1075 C   0  0  1  0  0  0  0  0  0  0  0  0
  -23.1840  -29.9628   21.4870 C   0  0  1  0  0  0  0  0  0  0  0  0
  -22.5620  -20.0340   21.3663 C   0  0  2  0  0  0  0  0  0  0  0  0
  -19.1646  -25.8484   16.2985 C   0  0  0  0  0  0  0  0  0  0  0  0
  -20.7072  -26.2628   22.7265 C   0  0  0  0  0  0  0  0  0  0  0  0
  -19.7005  -24.9580   20.8418 C   0  0  0  0  0  0  0  0  0  0  0  0
  -18.7352  -27.1672   21.4824 C   0  0  0  0  0  0  0  0  0  0  0  0
  -21.9955  -28.2828   15.5665 C   0  0  0  0  0  0  0  0  0  0  0  0
  -29.0504  -23.3708   17.3236 C   0  0  0  0  0  0  0  0  0  0  0  0
  -30.7576  -26.0661   19.3712 C   0  0  0  0  0  0  0  0  0  0  0  0
  -29.8119  -27.2292   19.6276 C   0  0  0  0  0  0  0  0  0  1  0  0
  -20.9649  -27.0866   20.2932 C   0  0  1  0  0  0  0  0  0  0  0  0
  -20.1242  -26.9895   16.5982 C   0  0  2  0  0  0  0  0  0  0  0  0
  -20.0540  -26.3774   21.3347 C   0  0  0  0  0  0  0  0  0  0  0  0
  -23.5071  -17.7568   21.3143 N   0  0  0  0  0  0  0  0  0  0  0  0
  -23.2204  -18.8476   22.0452 N   0  0  0  0  0  0  0  0  0  0  0  0
  -22.7415  -28.7079   20.8755 N   0  0  0  0  0  0  0  0  0  0  0  0
  -22.3437  -21.3422   19.2899 N   0  0  0  0  0  0  0  0  0  0  0  0
  -23.3583  -19.7452   24.2329 N   0  0  0  0  0  0  0  0  0  0  0  0
  -25.1875  -15.6396   24.6740 N   0  0  0  0  0  0  0  0  0  0  0  0
  -24.3803  -22.4229   18.7929 N   0  0  0  0  0  0  0  0  0  0  0  0
  -23.7622  -30.7979   23.6838 N   0  0  0  0  0  0  0  0  0  0  0  0
  -29.5369  -24.2622   18.3520 N   0  0  0  0  0  0  0  0  0  0  0  0
  -20.3613  -27.2334   18.9732 N   0  0  0  0  0  0  0  0  0  0  0  0
  -21.0153  -27.1764   15.4184 N   0  3  0  0  0  0  0  0  0  0  0  0
  -24.6267  -17.5586   25.7972 O   0  0  0  0  0  0  0  0  0  0  0  0
  -23.2519  -28.5470   23.3753 O   0  0  0  0  0  0  0  0  0  0  0  0
  -20.4930  -29.3225   20.9295 O   0  0  0  0  0  0  0  0  0  0  0  0
  -30.8944  -25.5791   17.0020 O   0  0  0  0  0  0  0  0  0  0  0  0
  -22.0032  -26.0780   17.8129 O   0  0  0  0  0  0  0  0  0  0  0  0
  -22.3515  -23.3937   18.2244 O   0  0  0  0  0  0  0  0  0  0  0  0
  -25.8242  -11.8657   20.6259 O   0  0  0  0  0  0  0  0  0  0  0  0
  -28.4842  -26.7328   19.7926 O   0  0  0  0  0  0  0  0  0  1  0  0
  -24.5619   -7.5863   23.8658 F   0  0  0  0  0  0  0  0  0  0  0  0
  -24.3204   -9.7542   19.6650 F   0  0  0  0  0  0  0  0  0  0  0  0
  -25.0714  -25.1048   14.4929 Cl  0  0  0  0  0  0  0  0  0  0  0  0
  -27.3064  -22.0348   19.4501 Cl  0  0  0  0  0  0  0  0  0  0  0  0
  1  2  1  0  0  0  0
  1  5  2  0  0  0  0
  2  6  2  0  0  0  0
  3  8  2  0  0  0  0
  3 17  1  0  0  0  0
  4  9  1  0  0  0  0
  4 17  2  0  0  0  0
  5 19  1  0  0  0  0
  6 21  1  0  0  0  0
  7 10  2  0  0  0  0
  7 20  1  0  0  0  0
  8 25  1  0  0  0  0
  9 25  2  0  0  0  0
 10 26  1  0  0  0  0
 11 12  2  0  0  0  0
 11 27  1  0  0  0  0
 12 28  1  0  0  0  0
 13 22  1  0  0  0  0
 13 26  2  0  0  0  0
 14 23  1  0  0  0  0
 14 30  2  0  0  0  0
 15 24  2  0  0  0  0
 15 30  1  0  0  0  0
 16 28  2  0  0  0  0
 16 29  1  0  0  0  0
 17 32  1  0  0  0  0
 18 32  1  0  0  0  0
 18 33  2  0  0  0  0
 18 34  1  0  0  0  0
 19 21  2  0  0  0  0
 19 40  1  0  0  0  0
 20 22  2  0  0  0  0
 20 41  1  0  0  0  0
 21 49  1  0  0  0  0
 22 42  1  0  0  0  0
 23 31  2  0  0  0  0
 23 57  1  0  0  0  0
 24 31  1  0  0  0  0
 24 69  1  0  0  0  0
 25 80  1  0  0  0  0
 26 81  1  0  0  0  0
 27 29  2  0  0  0  0
 27 80  1  0  0  0  0
 28 82  1  0  0  0  0
 29 83  1  0  0  0  0
 30 84  1  0  0  0  0
 31 85  1  0  0  0  0
 32 63  2  0  0  0  0
 33 64  1  0  0  0  0
 33 67  1  0  0  0  0
 34 68  1  0  0  0  0
 34 74  2  0  0  0  0
 35 50  1  0  0  0  0
 35 70  1  0  0  0  0
 35 75  2  0  0  0  0
 36 60  1  0  0  0  0
 36 65  1  0  0  0  0
 36 76  2  0  0  0  0
 37 58  1  0  0  0  0
 37 71  1  0  0  0  0
 37 77  2  0  0  0  0
 38 61  1  0  0  0  0
 38 72  1  0  0  0  0
 38 78  2  0  0  0  0
 39 66  1  0  0  0  0
 39 69  1  0  0  0  0
 39 79  2  0  0  0  0
 40 43  1  0  0  0  0
 41 50  1  0  0  0  0
 42 65  1  0  0  0  0
 43 45  1  0  0  0  0
 44 46  1  0  0  0  0
 44 47  1  0  0  0  0
 45 49  1  0  0  0  0
 46 51  1  0  0  0  0
 47 66  1  0  0  0  0
 48 51  1  0  0  0  0
 48 66  1  0  0  0  0
 49 70  1  0  0  0  0
 50 65  1  0  0  0  0
 51 64  1  0  0  0  0
 52 61  1  0  0  0  0
 53 62  1  0  0  0  0
 54 62  1  0  0  0  0
 55 62  1  0  0  0  0
 56 73  1  0  0  0  0
 57 71  1  0  0  0  0
 58 59  1  0  0  0  0
 59 81  1  0  0  0  0
 60 62  1  0  0  0  0
 60 72  1  0  0  0  0
 61 73  1  0  0  0  0
 63 64  1  0  0  0  0
M  CHG  1  73   1
M  ISO  4  39 100  59 101  69 100  81 101
M  END
> <Batch ID>
0013

> <Smiles>
CNC(C)C(=O)NC(C(=O)N1Cc2cc([101O:1][101CH2:1]CC(=O)NCc3cc(Cl)cc([100NH:0][100C:0](=O)N4CCCC(n5nc(-c6ccc(Oc7ccc(F)cc7F)cc6)c(C(N)=O)c5N)C4)c3Cl)ccc2CC1C(=O)NC1CCCc2ccccc21)C(C)(C)C

> <Shape>
0.225

> <Color>
0.072

> <Negative vol penalty>
0.000

$$$$

  -OEChem-04052315503D

 82 90  0     1  0  0  0  0  0999 V2000
  -32.2348  -32.5018   21.3909 C   0  0  0  0  0  0  0  0  0  0  0  0
  -32.7047  -31.2090   21.5985 C   0  0  0  0  0  0  0  0  0  0  0  0
  -23.0723   -9.8717   19.9412 C   0  0  0  0  0  0  0  0  0  0  0  0
  -23.8330   -9.8768   22.2343 C   0  0  0  0  0  0  0  0  0  0  0  0
  -30.8791  -32.7840   21.5537 C   0  0  0  0  0  0  0  0  0  0  0  0
  -31.8194  -30.1978   21.9701 C   0  0  0  0  0  0  0  0  0  0  0  0
  -30.7274  -23.1629   21.1739 C   0  0  0  0  0  0  0  0  0  0  0  0
  -22.3264   -8.7199   20.1912 C   0  0  0  0  0  0  0  0  0  0  0  0
  -23.0870   -8.7250   22.4843 C   0  0  0  0  0  0  0  0  0  0  0  0
  -30.4991  -22.0157   21.9326 C   0  0  0  0  0  0  0  0  0  0  0  0
  -19.8576   -7.9332   23.0878 C   0  0  0  0  0  0  0  0  0  0  0  0
  -19.1010   -7.8944   24.2589 C   0  0  0  0  0  0  0  0  0  0  0  0
  -28.1659  -22.6028   22.1072 C   0  0  0  0  0  0  0  0  0  0  0  0
  -32.0757  -16.5670   22.5205 C   0  0  0  0  0  0  0  0  0  0  0  0
  -20.3390   -5.9545   24.9946 C   0  0  0  0  0  0  0  0  0  0  0  0
  -23.8257  -10.4501   20.9627 C   0  0  0  0  0  0  0  0  0  0  0  0
  -24.1722  -12.9747   20.8430 C   0  0  0  0  0  0  0  0  0  0  0  0
  -29.9752  -31.7737   21.9181 C   0  0  0  0  0  0  0  0  0  0  0  0
  -29.6769  -24.0458   20.8849 C   0  0  0  0  0  0  0  0  0  0  0  0
  -30.4506  -30.4670   22.1392 C   0  0  0  0  0  0  0  0  0  0  0  0
  -28.3829  -23.7591   21.3425 C   0  0  0  0  0  0  0  0  0  0  0  0
  -31.9377  -18.3176   24.1797 C   0  0  0  0  0  0  0  0  0  0  0  0
  -30.5490  -18.3314   24.0497 C   0  0  0  0  0  0  0  0  0  0  0  0
  -30.6871  -16.5807   22.3904 C   0  0  0  0  0  0  0  0  0  0  0  0
  -22.3337   -8.1466   21.4627 C   0  0  0  0  0  0  0  0  0  0  0  0
  -29.2188  -21.7370   22.4018 C   0  0  0  0  0  0  0  0  0  0  0  0
  -20.8549   -6.9825   22.8700 C   0  0  0  0  0  0  0  0  0  0  0  0
  -19.3417   -6.9052   25.2124 C   0  0  0  0  0  0  0  0  0  0  0  0
  -32.7011  -17.4354   23.4151 C   0  0  0  0  0  0  0  0  0  0  0  0
  -21.0956   -5.9933   23.8234 C   0  0  0  0  0  0  0  0  0  0  0  0
  -29.9237  -17.4629   23.1550 C   0  0  0  0  0  0  0  0  0  0  0  0
  -24.5969  -11.6396   20.7049 C   0  0  0  0  0  0  0  0  0  0  0  0
  -25.2656  -13.7222   20.4795 C   0  0  0  0  0  0  0  0  0  0  0  0
  -22.9028  -13.4928   21.2624 C   0  0  0  0  0  0  0  0  0  0  0  0
  -29.0638  -27.0945   21.5431 C   0  0  0  0  0  0  0  0  0  0  0  0
  -26.5266  -26.6027   19.5827 C   0  0  0  0  0  0  0  0  0  0  0  0
  -24.3349  -24.3952   18.1792 C   0  0  0  0  0  0  0  0  0  0  0  0
  -30.7338  -14.7575   20.6525 C   0  0  0  0  0  0  0  0  0  0  0  0
  -28.5265  -32.1369   22.1282 C   0  0  0  0  0  0  0  0  0  0  0  0
  -29.9344  -25.2651   20.0426 C   0  0  0  0  0  0  0  0  0  0  0  0
  -27.2171  -24.6643   21.0427 C   0  0  0  0  0  0  0  0  0  0  0  0
  -27.5939  -30.9289   22.1584 C   0  0  0  0  0  0  0  0  0  0  0  0
  -29.6141  -12.3462   18.2842 C   0  0  0  0  0  0  0  0  0  0  0  0
  -28.1677  -29.8336   23.0518 C   0  0  0  0  0  0  0  0  0  0  0  0
  -28.1741  -12.0572   18.7142 C   0  0  0  0  0  0  0  0  0  0  0  0
  -30.5301  -12.5731   19.4856 C   0  0  0  0  0  0  0  0  0  0  0  0
  -28.6249  -13.3009   20.8676 C   0  0  0  0  0  0  0  0  0  0  0  0
  -29.5174  -29.3378   22.5190 C   0  0  1  0  0  0  0  0  0  0  0  0
  -28.8919  -26.3608   20.2432 C   0  0  1  0  0  0  0  0  0  0  0  0
  -27.6514  -13.1296   19.6901 C   0  0  2  0  0  0  0  0  0  0  0  0
  -32.6312  -19.2378   25.1307 C   0  0  0  0  0  0  0  0  0  0  0  0
  -22.3486  -24.2949   16.6489 C   0  0  0  0  0  0  0  0  0  0  0  0
  -24.7480  -27.6577   21.8262 C   0  0  0  0  0  0  0  0  0  0  0  0
  -22.7805  -26.6629   20.6398 C   0  0  0  0  0  0  0  0  0  0  0  0
  -24.1241  -28.4532   19.5388 C   0  0  0  0  0  0  0  0  0  0  0  0
  -25.7721  -22.6872   16.2360 C   0  0  0  0  0  0  0  0  0  0  0  0
  -29.7449  -19.2919   24.8849 C   0  0  0  0  0  0  0  0  0  0  0  0
  -25.1041  -26.1343   19.7723 C   0  0  1  0  0  0  0  0  0  0  0  0
  -23.8641  -24.2158   16.7472 C   0  0  2  0  0  0  0  0  0  0  0  0
  -24.2113  -27.2108   20.4517 C   0  0  0  0  0  0  0  0  0  0  0  0
  -25.8615  -11.5415   20.2862 N   0  0  0  0  0  0  0  0  0  0  0  0
  -26.2407  -12.8244   20.1579 N   0  0  0  0  0  0  0  0  0  0  0  0
  -27.5208  -25.8474   20.2207 N   0  0  0  0  0  0  0  0  0  0  0  0
  -29.9733  -13.6048   20.3633 N   0  0  0  0  0  0  0  0  0  0  0  0
  -25.4785  -15.0533   20.4066 N   0  0  0  0  0  0  0  0  0  0  0  0
  -21.8893  -12.5854   21.5999 N   0  0  0  0  0  0  0  0  0  0  0  0
  -30.0885  -15.6836   21.4713 N   0  0  0  0  0  0  0  0  0  0  0  0
  -29.3208  -28.4444   21.3976 N   0  0  0  0  0  0  0  0  0  0  0  0
  -24.6346  -25.7120   18.4571 N   0  0  0  0  0  0  0  0  0  0  0  0
  -29.8048  -20.6485   24.3596 N   0  0  0  0  0  0  0  0  0  1  0  0
  -24.3008  -22.8920   16.2202 N   0  3  0  0  0  0  0  0  0  0  0  0
  -22.6689  -14.7238   21.3200 O   0  0  0  0  0  0  0  0  0  0  0  0
  -28.9687  -26.4815   22.6000 O   0  0  0  0  0  0  0  0  0  0  0  0
  -26.7482  -27.5977   18.8881 O   0  0  0  0  0  0  0  0  0  0  0  0
  -24.4240  -23.4611   18.9730 O   0  0  0  0  0  0  0  0  0  0  0  0
  -31.8631  -14.9242   20.1845 O   0  0  0  0  0  0  0  0  0  0  0  0
  -21.6058   -7.0228   21.7071 O   0  0  0  0  0  0  0  0  0  0  0  0
  -28.9934  -20.6183   23.1431 O   0  0  0  0  0  0  0  0  0  1  0  0
  -18.6160   -6.8690   26.3377 F   0  0  0  0  0  0  0  0  0  0  0  0
  -34.0363  -17.4141   23.5324 F   0  0  0  0  0  0  0  0  0  0  0  0
  -22.0532   -5.0780   23.6203 F   0  0  0  0  0  0  0  0  0  0  0  0
  -28.1968  -17.4818   22.9951 Cl  0  0  0  0  0  0  0  0  0  0  0  0
  1  2  1  0  0  0  0
  1  5  2  0  0  0  0
  2  6  2  0  0  0  0
  3  8  2  0  0  0  0
  3 16  1  0  0  0  0
  4  9  1  0  0  0  0
  4 16  2  0  0  0  0
  5 18  1  0  0  0  0
  6 20  1  0  0  0  0
  7 10  2  0  0  0  0
  7 19  1  0  0  0  0
  8 25  1  0  0  0  0
  9 25  2  0  0  0  0
 10 26  1  0  0  0  0
 11 12  2  0  0  0  0
 11 27  1  0  0  0  0
 12 28  1  0  0  0  0
 13 21  1  0  0  0  0
 13 26  2  0  0  0  0
 14 24  2  0  0  0  0
 14 29  1  0  0  0  0
 15 28  2  0  0  0  0
 15 30  1  0  0  0  0
 16 32  1  0  0  0  0
 17 32  1  0  0  0  0
 17 33  2  0  0  0  0
 17 34  1  0  0  0  0
 18 20  2  0  0  0  0
 18 39  1  0  0  0  0
 19 21  2  0  0  0  0
 19 40  1  0  0  0  0
 20 48  1  0  0  0  0
 21 41  1  0  0  0  0
 22 23  1  0  0  0  0
 22 29  2  0  0  0  0
 22 51  1  0  0  0  0
 23 31  2  0  0  0  0
 23 57  1  0  0  0  0
 24 31  1  0  0  0  0
 24 67  1  0  0  0  0
 25 77  1  0  0  0  0
 26 78  1  0  0  0  0
 27 30  2  0  0  0  0
 27 77  1  0  0  0  0
 28 79  1  0  0  0  0
 29 80  1  0  0  0  0
 30 81  1  0  0  0  0
 31 82  1  0  0  0  0
 32 61  2  0  0  0  0
 33 62  1  0  0  0  0
 33 65  1  0  0  0  0
 34 66  1  0  0  0  0
 34 72  2  0  0  0  0
 35 49  1  0  0  0  0
 35 68  1  0  0  0  0
 35 73  2  0  0  0  0
 36 58  1  0  0  0  0
 36 63  1  0  0  0  0
 36 74  2  0  0  0  0
 37 59  1  0  0  0  0
 37 69  1  0  0  0  0
 37 75  2  0  0  0  0
 38 64  1  0  0  0  0
 38 67  1  0  0  0  0
 38 76  2  0  0  0  0
 39 42  1  0  0  0  0
 40 49  1  0  0  0  0
 41 63  1  0  0  0  0
 42 44  1  0  0  0  0
 43 45  1  0  0  0  0
 43 46  1  0  0  0  0
 44 48  1  0  0  0  0
 45 50  1  0  0  0  0
 46 64  1  0  0  0  0
 47 50  1  0  0  0  0
 47 64  1  0  0  0  0
 48 68  1  0  0  0  0
 49 63  1  0  0  0  0
 50 62  1  0  0  0  0
 52 59  1  0  0  0  0
 53 60  1  0  0  0  0
 54 60  1  0  0  0  0
 55 60  1  0  0  0  0
 56 71  1  0  0  0  0
 57 70  1  0  0  0  0
 58 60  1  0  0  0  0
 58 69  1  0  0  0  0
 59 71  1  0  0  0  0
 61 62  1  0  0  0  0
 70 78  1  0  0  0  0
M  CHG  1  71   1
M  ISO  4  38 100  67 100  70 101  78 101
M  END
> <Batch ID>
0013

> <Smiles>
CNC(C)C(=O)NC(C(=O)N1Cc2cc([101O:1][101NH:1]Cc3c(C)c(F)cc([100NH:0][100C:0](=O)N4CCCC(n5nc(-c6ccc(Oc7ccc(F)cc7F)cc6)c(C(N)=O)c5N)C4)c3Cl)ccc2CC1C(=O)NC1CCCc2ccccc21)C(C)(C)C

> <Shape>
0.260

> <Color>
0.205

> <Negative vol penalty>
0.000

$$$$

  -OEChem-04052315503D

 84 91  0     1  0  0  0  0  0999 V2000
  -33.5188  -31.6508   16.2703 C   0  0  0  0  0  0  0  0  0  0  0  0
  -32.6625  -30.7750   16.9300 C   0  0  0  0  0  0  0  0  0  0  0  0
  -23.4437   -9.6542   19.7383 C   0  0  0  0  0  0  0  0  0  0  0  0
  -23.8541   -9.6644   22.1192 C   0  0  0  0  0  0  0  0  0  0  0  0
  -33.8555  -32.8695   16.8579 C   0  0  0  0  0  0  0  0  0  0  0  0
  -32.1433  -31.1170   18.1782 C   0  0  0  0  0  0  0  0  0  0  0  0
  -27.1908  -30.1307   18.5589 C   0  0  0  0  0  0  0  0  0  0  0  0
  -22.8103   -8.4167   19.8528 C   0  0  0  0  0  0  0  0  0  0  0  0
  -23.2207   -8.4269   22.2337 C   0  0  0  0  0  0  0  0  0  0  0  0
  -26.8206  -28.8043   18.7763 C   0  0  0  0  0  0  0  0  0  0  0  0
  -23.9738   -5.1805   21.6641 C   0  0  0  0  0  0  0  0  0  0  0  0
  -24.5926   -4.2057   22.4466 C   0  0  0  0  0  0  0  0  0  0  0  0
  -26.5303  -29.2766   21.1241 C   0  0  0  0  0  0  0  0  0  0  0  0
  -22.6515   -4.1265   23.8828 C   0  0  0  0  0  0  0  0  0  0  0  0
  -23.9656  -10.2780   20.8715 C   0  0  0  0  0  0  0  0  0  0  0  0
  -24.0257  -12.8282   20.8511 C   0  0  0  0  0  0  0  0  0  0  0  0
  -33.3326  -33.2308   18.1095 C   0  0  0  0  0  0  0  0  0  0  0  0
  -27.2442  -31.0389   19.6260 C   0  0  0  0  0  0  0  0  0  0  0  0
  -32.4745  -32.3411   18.7836 C   0  0  0  0  0  0  0  0  0  0  0  0
  -26.8990  -30.6146   20.9171 C   0  0  0  0  0  0  0  0  0  0  0  0
  -22.6988   -7.8031   21.1005 C   0  0  0  0  0  0  0  0  0  0  0  0
  -26.4931  -28.3763   20.0595 C   0  0  0  0  0  0  0  0  0  0  0  0
  -22.6939   -5.6284   21.9909 C   0  0  0  0  0  0  0  0  0  0  0  0
  -23.9315   -3.6787   23.5560 C   0  0  0  0  0  0  0  0  0  0  0  0
  -22.0327   -5.1013   23.1003 C   0  0  0  0  0  0  0  0  0  0  0  0
  -24.6205  -11.5560   20.7538 C   0  0  0  0  0  0  0  0  0  0  0  0
  -25.0647  -13.7079   20.6690 C   0  0  0  0  0  0  0  0  0  0  0  0
  -22.6564  -13.1831   21.0851 C   0  0  0  0  0  0  0  0  0  0  0  0
  -29.5357  -32.7761   20.9806 C   0  0  0  0  0  0  0  0  0  0  0  0
  -27.0609  -34.0049   22.6801 C   0  0  0  0  0  0  0  0  0  0  0  0
  -23.8957  -33.6033   23.8912 C   0  0  0  0  0  0  0  0  0  0  0  0
  -29.6517  -15.3544   18.0132 C   0  0  0  0  0  0  0  0  0  0  0  0
  -33.7629  -34.5383   18.7261 C   0  0  0  0  0  0  0  0  0  0  0  0
  -27.6196  -32.4728   19.3704 C   0  0  0  0  0  0  0  0  0  0  0  0
  -26.9208  -31.5551   22.0933 C   0  0  0  0  0  0  0  0  0  0  0  0
  -32.8733  -34.9886   19.8819 C   0  0  0  0  0  0  0  0  0  0  0  0
  -30.0637  -12.9201   20.5416 C   0  0  0  0  0  0  0  0  0  0  0  0
  -32.6104  -33.8284   20.8367 C   0  0  0  0  0  0  0  0  0  0  0  0
  -28.6354  -12.4562   20.8369 C   0  0  0  0  0  0  0  0  0  0  0  0
  -30.2732  -13.1936   19.0533 C   0  0  0  0  0  0  0  0  0  0  0  0
  -27.8745  -13.6467   18.7403 C   0  0  0  0  0  0  0  0  0  0  0  0
  -31.8714  -32.6871   20.1277 C   0  0  1  0  0  0  0  0  0  0  0  0
  -28.1369  -33.1862   20.6157 C   0  0  1  0  0  0  0  0  0  0  0  0
  -27.5933  -13.4195   20.2351 C   0  0  1  0  0  0  0  0  0  0  0  0
  -22.1552  -34.7632   25.2778 C   0  0  0  0  0  0  0  0  0  0  0  0
  -28.6167  -33.3087   25.2109 C   0  0  0  0  0  0  0  0  0  0  0  0
  -26.4952  -33.5935   26.5096 C   0  0  0  0  0  0  0  0  0  0  0  0
  -27.4665  -35.5286   25.2708 C   0  0  0  0  0  0  0  0  0  0  0  0
  -28.9511  -16.5916   14.6246 C   0  0  0  0  0  0  0  0  0  0  0  0
  -26.7308  -17.3266   15.5128 C   0  0  0  0  0  0  0  0  0  0  0  0
  -28.4959  -19.0141   14.9617 C   0  0  0  0  0  0  0  0  0  0  0  0
  -21.9715  -33.6534   21.6432 C   0  0  0  0  0  0  0  0  0  0  0  0
  -27.6043  -22.3652   20.0348 C   0  0  0  0  0  0  0  0  0  0  0  0
  -28.2017  -21.2693   19.1489 C   0  0  0  0  0  0  0  0  0  0  0  0
  -27.4554  -23.6811   19.2684 C   0  0  0  0  0  0  0  0  0  0  0  0
  -28.3868  -19.9653   19.9302 C   0  0  0  0  0  0  0  0  0  0  0  0
  -26.8300  -24.7681   20.1476 C   0  0  0  0  0  0  0  0  0  0  0  0
  -29.0492  -18.8600   19.1170 C   0  0  0  0  0  0  0  0  0  0  0  0
  -26.6953  -26.0965   19.4133 C   0  0  0  0  0  0  0  0  0  1  0  0
  -26.3746  -33.6508   23.9772 C   0  0  1  0  0  0  0  0  0  0  0  0
  -22.6865  -34.5209   23.8736 C   0  0  2  0  0  0  0  0  0  0  0  0
  -28.8374  -17.4986   16.9927 C   0  0  2  0  0  0  0  0  0  0  0  0
  -27.2396  -34.0020   25.2205 C   0  0  0  0  0  0  0  0  0  0  0  0
  -28.2454  -17.6086   15.5494 C   0  0  0  0  0  0  0  0  0  0  0  0
  -25.9354  -11.6176   20.5274 N   0  0  0  0  0  0  0  0  0  0  0  0
  -26.1754  -12.9391   20.4808 N   0  0  0  0  0  0  0  0  0  0  0  0
  -27.3006  -32.9455   21.7934 N   0  0  0  0  0  0  0  0  0  0  0  0
  -29.2544  -14.1226   18.5595 N   0  0  0  0  0  0  0  0  0  0  0  0
  -25.1274  -15.0563   20.6532 N   0  0  0  0  0  0  0  0  0  0  0  0
  -21.7186  -12.1547   21.2504 N   0  0  0  0  0  0  0  0  0  0  0  0
  -30.4668  -33.0057   19.9857 N   0  0  0  0  0  0  0  0  0  0  0  0
  -25.0757  -34.3145   23.9462 N   0  0  0  0  0  0  0  0  0  0  0  0
  -28.6195  -16.1776   17.5788 N   0  0  0  0  0  0  0  0  0  0  0  0
  -21.5944  -33.9230   23.0546 N   0  3  0  0  0  0  0  0  0  0  0  0
  -28.2371  -18.5350   17.9088 N   0  3  0  0  0  0  0  0  0  0  0  0
  -22.2729  -14.3766   21.1295 O   0  0  0  0  0  0  0  0  0  0  0  0
  -29.7542  -32.2890   22.0836 O   0  0  0  0  0  0  0  0  0  0  0  0
  -27.3666  -35.1792   22.4586 O   0  0  0  0  0  0  0  0  0  0  0  0
  -23.8026  -32.3781   23.8631 O   0  0  0  0  0  0  0  0  0  0  0  0
  -30.8365  -15.6939   17.9292 O   0  0  0  0  0  0  0  0  0  0  0  0
  -22.0806   -6.5957   21.2126 O   0  0  0  0  0  0  0  0  0  0  0  0
  -26.1293  -27.0722   20.2763 O   0  0  0  0  0  0  0  0  0  1  0  0
  -24.5252   -2.7414   24.3065 F   0  0  0  0  0  0  0  0  0  0  0  0
  -20.8024   -5.5268   23.4186 F   0  0  0  0  0  0  0  0  0  0  0  0
  1  2  1  0  0  0  0
  1  5  2  0  0  0  0
  2  6  2  0  0  0  0
  3  8  2  0  0  0  0
  3 15  1  0  0  0  0
  4  9  1  0  0  0  0
  4 15  2  0  0  0  0
  5 17  1  0  0  0  0
  6 19  1  0  0  0  0
  7 10  2  0  0  0  0
  7 18  1  0  0  0  0
  8 21  1  0  0  0  0
  9 21  2  0  0  0  0
 10 22  1  0  0  0  0
 11 12  2  0  0  0  0
 11 23  1  0  0  0  0
 12 24  1  0  0  0  0
 13 20  1  0  0  0  0
 13 22  2  0  0  0  0
 14 24  2  0  0  0  0
 14 25  1  0  0  0  0
 15 26  1  0  0  0  0
 16 26  1  0  0  0  0
 16 27  2  0  0  0  0
 16 28  1  0  0  0  0
 17 19  2  0  0  0  0
 17 33  1  0  0  0  0
 18 20  2  0  0  0  0
 18 34  1  0  0  0  0
 19 42  1  0  0  0  0
 20 35  1  0  0  0  0
 21 81  1  0  0  0  0
 22 82  1  0  0  0  0
 23 25  2  0  0  0  0
 23 81  1  0  0  0  0
 24 83  1  0  0  0  0
 25 84  1  0  0  0  0
 26 65  2  0  0  0  0
 27 66  1  0  0  0  0
 27 69  1  0  0  0  0
 28 70  1  0  0  0  0
 28 76  2  0  0  0  0
 29 43  1  0  0  0  0
 29 71  1  0  0  0  0
 29 77  2  0  0  0  0
 30 60  1  0  0  0  0
 30 67  1  0  0  0  0
 30 78  2  0  0  0  0
 31 61  1  0  0  0  0
 31 72  1  0  0  0  0
 31 79  2  0  0  0  0
 32 68  1  0  0  0  0
 32 73  1  0  0  0  0
 32 80  2  0  0  0  0
 33 36  1  0  0  0  0
 34 43  1  0  0  0  0
 35 67  1  0  0  0  0
 36 38  1  0  0  0  0
 37 39  1  0  0  0  0
 37 40  1  0  0  0  0
 38 42  1  0  0  0  0
 39 44  1  0  0  0  0
 40 68  1  0  0  0  0
 41 44  1  0  0  0  0
 41 68  1  0  0  0  0
 42 71  1  0  0  0  0
 43 67  1  0  0  0  0
 44 66  1  0  0  0  0
 45 61  1  0  0  0  0
 46 63  1  0  0  0  0
 47 63  1  0  0  0  0
 48 63  1  0  0  0  0
 49 64  1  0  0  0  0
 50 64  1  0  0  0  0
 51 64  1  0  0  0  0
 52 74  1  0  0  0  0
 53 54  1  0  0  0  0
 53 55  1  0  0  0  0
 54 56  1  0  0  0  0
 55 57  1  0  0  0  0
 56 58  1  0  0  0  0
 57 59  1  0  0  0  0
 58 75  1  0  0  0  0
 59 82  1  0  0  0  0
 60 63  1  0  0  0  0
 60 72  1  0  0  0  0
 61 74  1  0  0  0  0
 62 64  1  0  0  0  0
 62 73  1  0  0  0  0
 62 75  1  0  0  0  0
 65 66  1  0  0  0  0
M  CHG  2  74   1  75   1
M  ISO  4  32 100  59 101  73 100  82 101
M  END
> <Batch ID>
0013

> <Smiles>
CNC(C)C(=O)NC(C(=O)N1Cc2cc([101O:1][101CH2:1]CCCCCCNC([100NH:0][100C:0](=O)N3CCCC(n4nc(-c5ccc(Oc6ccc(F)cc6F)cc5)c(C(N)=O)c4N)C3)C(C)(C)C)ccc2CC1C(=O)NC1CCCc2ccccc21)C(C)(C)C

> <Shape>
0.251

> <Color>
0.193

> <Negative vol penalty>
0.000

$$$$

  -OEChem-04052315503D

 83 91  0     1  0  0  0  0  0999 V2000
  -33.5691  -28.5406   31.9058 C   0  0  0  0  0  0  0  0  0  0  0  0
  -32.7523  -27.5672   31.3394 C   0  0  0  0  0  0  0  0  0  0  0  0
  -23.0753   -9.8686   19.9404 C   0  0  0  0  0  0  0  0  0  0  0  0
  -23.8349   -9.8747   22.2339 C   0  0  0  0  0  0  0  0  0  0  0  0
  -34.9536  -28.4553   31.7653 C   0  0  0  0  0  0  0  0  0  0  0  0
  -33.3196  -26.5084   30.6312 C   0  0  0  0  0  0  0  0  0  0  0  0
  -31.2873  -20.7366   30.3833 C   0  0  0  0  0  0  0  0  0  0  0  0
  -32.0674  -16.5773   22.5245 C   0  0  0  0  0  0  0  0  0  0  0  0
  -22.3310   -8.7157   20.1900 C   0  0  0  0  0  0  0  0  0  0  0  0
  -23.0906   -8.7217   22.4835 C   0  0  0  0  0  0  0  0  0  0  0  0
  -30.5212  -20.0516   29.4412 C   0  0  0  0  0  0  0  0  0  0  0  0
  -19.8621   -7.9249   23.0854 C   0  0  0  0  0  0  0  0  0  0  0  0
  -32.6911  -17.4464   23.4196 C   0  0  0  0  0  0  0  0  0  0  0  0
  -19.1050   -7.8849   24.2562 C   0  0  0  0  0  0  0  0  0  0  0  0
  -32.5382  -19.1924   28.4347 C   0  0  0  0  0  0  0  0  0  0  0  0
  -20.3456   -5.9468   24.9922 C   0  0  0  0  0  0  0  0  0  0  0  0
  -23.8273  -10.4481   20.9624 C   0  0  0  0  0  0  0  0  0  0  0  0
  -24.1700  -12.9732   20.8431 C   0  0  0  0  0  0  0  0  0  0  0  0
  -35.5387  -27.3897   31.0632 C   0  0  0  0  0  0  0  0  0  0  0  0
  -32.6873  -20.6633   30.3515 C   0  0  0  0  0  0  0  0  0  0  0  0
  -34.7132  -26.4095   30.4799 C   0  0  0  0  0  0  0  0  0  0  0  0
  -33.3197  -19.8754   29.3791 C   0  0  0  0  0  0  0  0  0  0  0  0
  -30.6787  -16.5889   22.3939 C   0  0  0  0  0  0  0  0  0  0  0  0
  -30.5373  -18.3388   24.0537 C   0  0  0  0  0  0  0  0  0  0  0  0
  -22.3386   -8.1422   21.4615 C   0  0  0  0  0  0  0  0  0  0  0  0
  -31.1467  -19.2816   28.4650 C   0  0  0  0  0  0  0  0  0  0  0  0
  -20.8609   -6.9758   22.8679 C   0  0  0  0  0  0  0  0  0  0  0  0
  -19.3467   -6.8959   25.2096 C   0  0  0  0  0  0  0  0  0  0  0  0
  -31.9261  -18.3272   24.1842 C   0  0  0  0  0  0  0  0  0  0  0  0
  -21.1027   -5.9868   23.8214 C   0  0  0  0  0  0  0  0  0  0  0  0
  -29.9137  -17.4697   23.1585 C   0  0  0  0  0  0  0  0  0  0  0  0
  -24.5968  -11.6388   20.7051 C   0  0  0  0  0  0  0  0  0  0  0  0
  -25.2625  -13.7224   20.4802 C   0  0  0  0  0  0  0  0  0  0  0  0
  -22.8997  -13.4893   21.2620 C   0  0  0  0  0  0  0  0  0  0  0  0
  -35.0350  -22.7675   29.9460 C   0  0  0  0  0  0  0  0  0  0  0  0
  -36.9154  -20.2163   30.6373 C   0  0  0  0  0  0  0  0  0  0  0  0
  -37.2817  -16.8242   30.7172 C   0  0  0  0  0  0  0  0  0  0  0  0
  -30.7290  -14.7661   20.6558 C   0  0  0  0  0  0  0  0  0  0  0  0
  -37.0376  -27.3656   30.8974 C   0  0  0  0  0  0  0  0  0  0  0  0
  -33.4985  -21.3868   31.3912 C   0  0  0  0  0  0  0  0  0  0  0  0
  -34.8189  -19.7475   29.3142 C   0  0  0  0  0  0  0  0  0  0  0  0
  -37.5793  -26.0099   30.4513 C   0  0  0  0  0  0  0  0  0  0  0  0
  -29.6140  -12.3533   18.2867 C   0  0  0  0  0  0  0  0  0  0  0  0
  -36.7481  -25.4561   29.2984 C   0  0  0  0  0  0  0  0  0  0  0  0
  -28.1742  -12.0621   18.7161 C   0  0  0  0  0  0  0  0  0  0  0  0
  -30.5291  -12.5815   19.4886 C   0  0  0  0  0  0  0  0  0  0  0  0
  -28.6222  -13.3062   20.8698 C   0  0  0  0  0  0  0  0  0  0  0  0
  -35.2923  -25.2325   29.7254 C   0  0  1  0  0  0  0  0  0  0  0  0
  -34.9342  -21.6539   30.9497 C   0  0  1  0  0  0  0  0  0  0  0  0
  -27.6495  -13.1336   19.6918 C   0  0  2  0  0  0  0  0  0  0  0  0
  -38.9442  -15.0355   31.2950 C   0  0  0  0  0  0  0  0  0  0  0  0
  -38.4229  -20.7837   28.0459 C   0  0  0  0  0  0  0  0  0  0  0  0
  -39.3996  -18.4830   28.1920 C   0  0  0  0  0  0  0  0  0  0  0  0
  -39.8759  -20.1543   29.9816 C   0  0  0  0  0  0  0  0  0  0  0  0
  -30.0273  -20.6760   24.7152 C   0  0  0  0  0  0  0  0  0  0  0  0
  -35.5158  -15.6958   32.8070 C   0  0  0  0  0  0  0  0  0  0  0  0
  -28.7909  -18.7729   25.7630 C   0  0  0  0  0  0  0  0  0  0  0  0
  -29.1474  -19.1886   27.1804 C   0  0  0  0  0  0  0  0  0  1  0  0
  -37.5726  -19.1227   29.8303 C   0  0  1  0  0  0  0  0  0  0  0  0
  -37.7932  -15.8915   31.8002 C   0  0  2  0  0  0  0  0  0  0  0  0
  -38.7895  -19.6397   29.0122 C   0  0  0  0  0  0  0  0  0  0  0  0
  -25.8617  -11.5427   20.2869 N   0  0  0  0  0  0  0  0  0  0  0  0
  -26.2391  -12.8262   20.1590 N   0  0  0  0  0  0  0  0  0  0  0  0
  -35.5686  -20.4789   30.3489 N   0  0  0  0  0  0  0  0  0  0  0  0
  -29.9704  -13.6122   20.3662 N   0  0  0  0  0  0  0  0  0  0  0  0
  -25.4734  -15.0538   20.4076 N   0  0  0  0  0  0  0  0  0  0  0  0
  -21.8874  -12.5804   21.5989 N   0  0  0  0  0  0  0  0  0  0  0  0
  -30.0819  -15.6911   21.4744 N   0  0  0  0  0  0  0  0  0  0  0  0
  -35.1759  -24.0215   30.5093 N   0  0  0  0  0  0  0  0  0  0  0  0
  -37.8957  -18.0575   30.7734 N   0  0  0  0  0  0  0  0  0  0  0  0
  -29.7980  -19.2359   24.8360 N   0  0  3  0  0  0  0  0  0  0  0  0
  -36.7026  -14.9873   32.2626 N   0  3  0  0  0  0  0  0  0  0  0  0
  -22.6638  -14.7200   21.3197 O   0  0  0  0  0  0  0  0  0  0  0  0
  -34.9900  -22.5082   28.7492 O   0  0  0  0  0  0  0  0  0  0  0  0
  -37.5707  -20.8106   31.4969 O   0  0  0  0  0  0  0  0  0  0  0  0
  -36.4259  -16.4907   29.9005 O   0  0  0  0  0  0  0  0  0  0  0  0
  -31.8582  -14.9345   20.1884 O   0  0  0  0  0  0  0  0  0  0  0  0
  -21.6122   -7.0173   21.7054 O   0  0  0  0  0  0  0  0  0  0  0  0
  -30.4013  -18.6125   27.5438 O   0  0  0  0  0  0  0  0  0  1  0  0
  -18.6207   -6.8585   26.3346 F   0  0  0  0  0  0  0  0  0  0  0  0
  -32.5372  -19.1581   25.0408 F   0  0  0  0  0  0  0  0  0  0  0  0
  -22.0617   -5.0730   23.6186 F   0  0  0  0  0  0  0  0  0  0  0  0
  -28.1858  -17.4839   22.9960 Cl  0  0  0  0  0  0  0  0  0  0  0  0
  1  2  1  0  0  0  0
  1  5  2  0  0  0  0
  2  6  2  0  0  0  0
  3  9  2  0  0  0  0
  3 17  1  0  0  0  0
  4 10  1  0  0  0  0
  4 17  2  0  0  0  0
  5 19  1  0  0  0  0
  6 21  1  0  0  0  0
  7 11  2  0  0  0  0
  7 20  1  0  0  0  0
  8 13  1  0  0  0  0
  8 23  2  0  0  0  0
  9 25  1  0  0  0  0
 10 25  2  0  0  0  0
 11 26  1  0  0  0  0
 12 14  2  0  0  0  0
 12 27  1  0  0  0  0
 13 29  2  0  0  0  0
 14 28  1  0  0  0  0
 15 22  1  0  0  0  0
 15 26  2  0  0  0  0
 16 28  2  0  0  0  0
 16 30  1  0  0  0  0
 17 32  1  0  0  0  0
 18 32  1  0  0  0  0
 18 33  2  0  0  0  0
 18 34  1  0  0  0  0
 19 21  2  0  0  0  0
 19 39  1  0  0  0  0
 20 22  2  0  0  0  0
 20 40  1  0  0  0  0
 21 48  1  0  0  0  0
 22 41  1  0  0  0  0
 23 31  1  0  0  0  0
 23 68  1  0  0  0  0
 24 29  1  0  0  0  0
 24 31  2  0  0  0  0
 24 71  1  0  0  0  0
 25 78  1  0  0  0  0
 26 79  1  0  0  0  0
 27 30  2  0  0  0  0
 27 78  1  0  0  0  0
 28 80  1  0  0  0  0
 29 81  1  0  0  0  0
 30 82  1  0  0  0  0
 31 83  1  0  0  0  0
 32 62  2  0  0  0  0
 33 63  1  0  0  0  0
 33 66  1  0  0  0  0
 34 67  1  0  0  0  0
 34 73  2  0  0  0  0
 35 49  1  0  0  0  0
 35 69  1  0  0  0  0
 35 74  2  0  0  0  0
 36 59  1  0  0  0  0
 36 64  1  0  0  0  0
 36 75  2  0  0  0  0
 37 60  1  0  0  0  0
 37 70  1  0  0  0  0
 37 76  2  0  0  0  0
 38 65  1  0  0  0  0
 38 68  1  0  0  0  0
 38 77  2  0  0  0  0
 39 42  1  0  0  0  0
 40 49  1  0  0  0  0
 41 64  1  0  0  0  0
 42 44  1  0  0  0  0
 43 45  1  0  0  0  0
 43 46  1  0  0  0  0
 44 48  1  0  0  0  0
 45 50  1  0  0  0  0
 46 65  1  0  0  0  0
 47 50  1  0  0  0  0
 47 65  1  0  0  0  0
 48 69  1  0  0  0  0
 49 64  1  0  0  0  0
 50 63  1  0  0  0  0
 51 60  1  0  0  0  0
 52 61  1  0  0  0  0
 53 61  1  0  0  0  0
 54 61  1  0  0  0  0
 55 71  1  0  0  0  0
 56 72  1  0  0  0  0
 57 58  1  0  0  0  0
 57 71  1  0  0  0  0
 58 79  1  0  0  0  0
 59 61  1  0  0  0  0
 59 70  1  0  0  0  0
 60 72  1  0  0  0  0
 62 63  1  0  0  0  0
M  CHG  1  72   1
M  ISO  4  38 100  58 101  68 100  79 101
M  END
> <Batch ID>
0013

> <Smiles>
CNC(C)C(=O)NC(C(=O)N1Cc2cc([101O:1][101CH2:1]CN(C)c3c(F)ccc([100NH:0][100C:0](=O)N4CCCC(n5nc(-c6ccc(Oc7ccc(F)cc7F)cc6)c(C(N)=O)c5N)C4)c3Cl)ccc2CC1C(=O)NC1CCCc2ccccc21)C(C)(C)C

> <Shape>
0.167

> <Color>
0.200

> <Negative vol penalty>
0.000

$$$$

  -OEChem-04052315503D

 85 93  0     1  0  0  0  0  0999 V2000
  -26.5683  -34.5563   25.3596 C   0  0  0  0  0  0  0  0  0  0  0  0
  -26.7912  -33.6758   24.3070 C   0  0  0  0  0  0  0  0  0  0  0  0
  -23.4824  -14.6485   22.9318 C   0  0  0  0  0  0  0  0  0  0  0  0
  -22.1977  -14.0545   20.9738 C   0  0  0  0  0  0  0  0  0  0  0  0
  -25.4889  -34.3527   26.2168 C   0  0  0  0  0  0  0  0  0  0  0  0
  -25.9281  -32.5984   24.1041 C   0  0  0  0  0  0  0  0  0  0  0  0
  -26.6031  -29.9314   20.0255 C   0  0  0  0  0  0  0  0  0  0  0  0
  -23.3961  -13.3330   23.3875 C   0  0  0  0  0  0  0  0  0  0  0  0
  -22.1114  -12.7390   21.4295 C   0  0  0  0  0  0  0  0  0  0  0  0
  -27.6859  -29.0689   19.8595 C   0  0  0  0  0  0  0  0  0  0  0  0
  -24.0879   -9.9991   21.5138 C   0  0  0  0  0  0  0  0  0  0  0  0
  -24.3223   -8.9789   20.5920 C   0  0  0  0  0  0  0  0  0  0  0  0
  -26.2432  -27.1844   20.2911 C   0  0  0  0  0  0  0  0  0  0  0  0
  -22.0963   -8.1214   20.9752 C   0  0  0  0  0  0  0  0  0  0  0  0
  -22.8832  -15.0092   21.7250 C   0  0  0  0  0  0  0  0  0  0  0  0
  -22.5010  -17.5251   21.9033 C   0  0  0  0  0  0  0  0  0  0  0  0
  -24.6199  -33.2649   26.0310 C   0  0  0  0  0  0  0  0  0  0  0  0
  -25.3324  -29.4267   20.3368 C   0  0  0  0  0  0  0  0  0  0  0  0
  -24.8193  -32.3896   24.9441 C   0  0  0  0  0  0  0  0  0  0  0  0
  -25.1454  -28.0424   20.4580 C   0  0  0  0  0  0  0  0  0  0  0  0
  -22.7106  -12.3783   22.6364 C   0  0  0  0  0  0  0  0  0  0  0  0
  -27.5067  -27.6954   19.9951 C   0  0  0  0  0  0  0  0  0  0  0  0
  -22.8578  -10.0805   22.1664 C   0  0  0  0  0  0  0  0  0  0  0  0
  -23.3264   -8.0400   20.3227 C   0  0  0  0  0  0  0  0  0  0  0  0
  -21.8620   -9.1417   21.8971 C   0  0  0  0  0  0  0  0  0  0  0  0
  -22.9715  -16.3681   21.2539 C   0  0  0  0  0  0  0  0  0  0  0  0
  -22.8254  -18.5527   21.0516 C   0  0  0  0  0  0  0  0  0  0  0  0
  -21.8307  -17.6591   23.1636 C   0  0  0  0  0  0  0  0  0  0  0  0
  -23.3267  -29.7521   22.7812 C   0  0  0  0  0  0  0  0  0  0  0  0
  -29.6097  -24.7311   19.7624 C   0  0  0  0  0  0  0  0  0  0  0  0
  -21.3440  -28.0280   20.8789 C   0  0  0  0  0  0  0  0  0  0  0  0
  -20.9992  -25.8079   18.3100 C   0  0  0  0  0  0  0  0  0  0  0  0
  -27.0344  -19.1834   16.8400 C   0  0  0  0  0  0  0  0  0  0  0  0
  -23.4629  -33.0964   26.9840 C   0  0  0  0  0  0  0  0  0  0  0  0
  -24.1691  -30.3685   20.4863 C   0  0  0  0  0  0  0  0  0  0  0  0
  -23.7972  -27.4487   20.7714 C   0  0  0  0  0  0  0  0  0  0  0  0
  -22.8713  -31.6908   26.9581 C   0  0  0  0  0  0  0  0  0  0  0  0
  -23.5136  -19.4947   16.4115 C   0  0  0  0  0  0  0  0  0  0  0  0
  -22.6046  -31.2655   25.5220 C   0  0  0  0  0  0  0  0  0  0  0  0
  -22.9330  -18.8331   17.6626 C   0  0  0  0  0  0  0  0  0  0  0  0
  -28.1836  -21.4329   19.1580 C   0  0  0  0  0  0  0  0  0  0  0  0
  -30.6589  -21.4679   18.6820 C   0  0  0  0  0  0  0  0  0  0  0  0
  -24.7693  -18.7754   15.9239 C   0  0  0  0  0  0  0  0  0  0  0  0
  -28.3888  -22.5427   20.1872 C   0  0  0  0  0  0  0  0  0  0  0  0
  -30.8173  -22.5744   19.7214 C   0  0  0  0  0  0  0  0  0  0  0  0
  -25.2399  -17.9425   18.1952 C   0  0  0  0  0  0  0  0  0  0  0  0
  -23.9116  -31.1934   24.7222 C   0  0  1  0  0  0  0  0  0  0  0  0
  -23.0267  -29.7809   21.3092 C   0  0  1  0  0  0  0  0  0  0  0  0
  -29.4472  -20.5781   18.9902 C   0  0  0  0  0  0  0  0  0  0  0  0
  -24.0042  -18.6661   18.7571 C   0  0  2  0  0  0  0  0  0  0  0  0
  -19.2563  -24.5576   17.0075 C   0  0  0  0  0  0  0  0  0  0  0  0
  -20.9906  -26.0942   23.2125 C   0  0  0  0  0  0  0  0  0  0  0  0
  -20.0522  -24.4267   21.5978 C   0  0  0  0  0  0  0  0  0  0  0  0
  -18.8907  -26.6054   21.9541 C   0  0  0  0  0  0  0  0  0  0  0  0
  -21.7933  -27.1109   15.7742 C   0  0  0  0  0  0  0  0  0  0  0  0
  -28.3067  -25.4558   19.9874 C   0  0  0  0  0  0  0  0  0  1  0  0
  -21.0703  -26.5576   20.6738 C   0  0  1  0  0  0  0  0  0  0  0  0
  -20.1047  -25.8175   17.0836 C   0  0  2  0  0  0  0  0  0  0  0  0
  -29.2522  -19.5281   17.8991 C   0  0  1  0  0  0  0  0  0  0  0  0
  -20.2769  -25.9320   21.8555 C   0  0  0  0  0  0  0  0  0  0  0  0
  -30.2445  -18.3904   18.0478 C   0  0  0  0  0  0  0  0  0  0  0  0
  -23.5506  -16.6348   20.0803 N   0  0  0  0  0  0  0  0  0  0  0  0
  -23.4460  -17.9713   19.9853 N   0  0  0  0  0  0  0  0  0  0  0  0
  -22.6923  -28.4110   20.9146 N   0  0  0  0  0  0  0  0  0  0  0  0
  -29.5793  -23.3405   19.8713 N   0  0  0  0  0  0  0  0  0  0  0  0
  -25.7456  -18.6511   17.0090 N   0  0  0  0  0  0  0  0  0  0  0  0
  -22.6373  -19.8879   21.1182 N   0  0  0  0  0  0  0  0  0  0  0  0
  -20.4307  -17.5964   23.1858 N   0  0  0  0  0  0  0  0  0  0  0  0
  -23.5991  -30.9932   23.3243 N   0  0  0  0  0  0  0  0  0  0  0  0
  -20.4053  -26.4427   19.3803 N   0  0  0  0  0  0  0  0  0  0  0  0
  -27.8956  -19.0282   17.9194 N   0  0  0  0  0  0  0  0  0  0  0  0
  -20.9266  -25.9063   15.8436 N   0  3  0  0  0  0  0  0  0  0  0  0
  -22.4540  -17.8458   24.2361 O   0  0  0  0  0  0  0  0  0  0  0  0
  -23.3107  -28.6832   23.3802 O   0  0  0  0  0  0  0  0  0  0  0  0
  -30.6228  -25.3828   19.4957 O   0  0  0  0  0  0  0  0  0  0  0  0
  -20.3963  -28.8090   20.9958 O   0  0  0  0  0  0  0  0  0  0  0  0
  -22.1118  -25.2859   18.3189 O   0  0  0  0  0  0  0  0  0  0  0  0
  -27.3895  -19.7594   15.8061 O   0  0  0  0  0  0  0  0  0  0  0  0
  -22.6264  -11.0945   23.0807 O   0  0  0  0  0  0  0  0  0  0  0  0
  -28.5620  -26.8514   19.8343 O   0  0  0  0  0  0  0  0  0  1  0  0
  -23.5511   -7.0612   19.4363 F   0  0  0  0  0  0  0  0  0  0  0  0
  -20.6778   -9.2154   22.5200 F   0  0  0  0  0  0  0  0  0  0  0  0
  -31.5157  -18.8410   17.9588 F   0  0  0  0  0  0  0  0  0  0  0  0
  -30.1127  -17.7626   19.2360 F   0  0  0  0  0  0  0  0  0  0  0  0
  -30.0745  -17.4700   17.0726 F   0  0  0  0  0  0  0  0  0  0  0  0
  1  2  1  0  0  0  0
  1  5  2  0  0  0  0
  2  6  2  0  0  0  0
  3  8  2  0  0  0  0
  3 15  1  0  0  0  0
  4  9  1  0  0  0  0
  4 15  2  0  0  0  0
  5 17  1  0  0  0  0
  6 19  1  0  0  0  0
  7 10  2  0  0  0  0
  7 18  1  0  0  0  0
  8 21  1  0  0  0  0
  9 21  2  0  0  0  0
 10 22  1  0  0  0  0
 11 12  2  0  0  0  0
 11 23  1  0  0  0  0
 12 24  1  0  0  0  0
 13 20  1  0  0  0  0
 13 22  2  0  0  0  0
 14 24  2  0  0  0  0
 14 25  1  0  0  0  0
 15 26  1  0  0  0  0
 16 26  1  0  0  0  0
 16 27  2  0  0  0  0
 16 28  1  0  0  0  0
 17 19  2  0  0  0  0
 17 34  1  0  0  0  0
 18 20  2  0  0  0  0
 18 35  1  0  0  0  0
 19 47  1  0  0  0  0
 20 36  1  0  0  0  0
 21 79  1  0  0  0  0
 22 80  1  0  0  0  0
 23 25  2  0  0  0  0
 23 79  1  0  0  0  0
 24 81  1  0  0  0  0
 25 82  1  0  0  0  0
 26 62  2  0  0  0  0
 27 63  1  0  0  0  0
 27 67  1  0  0  0  0
 28 68  1  0  0  0  0
 28 73  2  0  0  0  0
 29 48  1  0  0  0  0
 29 69  1  0  0  0  0
 29 74  2  0  0  0  0
 30 56  1  0  0  0  0
 30 65  1  0  0  0  0
 30 75  2  0  0  0  0
 31 57  1  0  0  0  0
 31 64  1  0  0  0  0
 31 76  2  0  0  0  0
 32 58  1  0  0  0  0
 32 70  1  0  0  0  0
 32 77  2  0  0  0  0
 33 66  1  0  0  0  0
 33 71  1  0  0  0  0
 33 78  2  0  0  0  0
 34 37  1  0  0  0  0
 35 48  1  0  0  0  0
 36 64  1  0  0  0  0
 37 39  1  0  0  0  0
 38 40  1  0  0  0  0
 38 43  1  0  0  0  0
 39 47  1  0  0  0  0
 40 50  1  0  0  0  0
 41 44  1  0  0  0  0
 41 49  1  0  0  0  0
 42 45  1  0  0  0  0
 42 49  1  0  0  0  0
 43 66  1  0  0  0  0
 44 65  1  0  0  0  0
 45 65  1  0  0  0  0
 46 50  1  0  0  0  0
 46 66  1  0  0  0  0
 47 69  1  0  0  0  0
 48 64  1  0  0  0  0
 49 59  1  0  0  0  0
 50 63  1  0  0  0  0
 51 58  1  0  0  0  0
 52 60  1  0  0  0  0
 53 60  1  0  0  0  0
 54 60  1  0  0  0  0
 55 72  1  0  0  0  0
 56 80  1  0  0  0  0
 57 60  1  0  0  0  0
 57 70  1  0  0  0  0
 58 72  1  0  0  0  0
 59 61  1  0  0  0  0
 59 71  1  0  0  0  0
 61 83  1  0  0  0  0
 61 84  1  0  0  0  0
 61 85  1  0  0  0  0
 62 63  1  0  0  0  0
M  CHG  1  72   1
M  ISO  4  33 100  56 101  71 100  80 101
M  END
> <Batch ID>
0013

> <Smiles>
CNC(C)C(=O)NC(C(=O)N1Cc2cc([101O:1][101CH2:1]C(=O)N3CCC(C([100NH:0][100C:0](=O)N4CCCC(n5nc(-c6ccc(Oc7ccc(F)cc7F)cc6)c(C(N)=O)c5N)C4)C(F)(F)F)CC3)ccc2CC1C(=O)NC1CCCc2ccccc21)C(C)(C)C

> <Shape>
0.237

> <Color>
0.095

> <Negative vol penalty>
0.000

$$$$

  -OEChem-04052315503D

 85 93  0     1  0  0  0  0  0999 V2000
  -32.6934  -21.8527   21.0809 C   0  0  0  0  0  0  0  0  0  0  0  0
  -31.3663  -22.2678   21.0368 C   0  0  0  0  0  0  0  0  0  0  0  0
  -29.7569  -27.2074   18.2606 C   0  0  0  0  0  0  0  0  0  0  0  0
  -29.7137  -26.2749   20.4889 C   0  0  0  0  0  0  0  0  0  0  0  0
  -33.0751  -20.6728   20.4437 C   0  0  0  0  0  0  0  0  0  0  0  0
  -30.4203  -21.5037   20.3545 C   0  0  0  0  0  0  0  0  0  0  0  0
  -24.5361  -20.7237   21.8627 C   0  0  0  0  0  0  0  0  0  0  0  0
  -31.1343  -26.9962   18.1989 C   0  0  0  0  0  0  0  0  0  0  0  0
  -31.0911  -26.0636   20.4272 C   0  0  0  0  0  0  0  0  0  0  0  0
  -23.3637  -21.3266   21.4091 C   0  0  0  0  0  0  0  0  0  0  0  0
  -34.6518  -25.6091   20.9974 C   0  0  0  0  0  0  0  0  0  0  0  0
  -35.4130  -25.9667   22.1101 C   0  0  0  0  0  0  0  0  0  0  0  0
  -23.0242  -19.4971   19.8738 C   0  0  0  0  0  0  0  0  0  0  0  0
  -17.8003  -27.4876   22.2961 C   0  0  0  0  0  0  0  0  0  0  0  0
  -19.4751  -29.2281   22.3492 C   0  0  0  0  0  0  0  0  0  0  0  0
  -34.6732  -28.2552   21.8807 C   0  0  0  0  0  0  0  0  0  0  0  0
  -29.0466  -26.8468   19.4057 C   0  0  0  0  0  0  0  0  0  0  0  0
  -26.6081  -26.1732   19.0775 C   0  0  0  0  0  0  0  0  0  0  0  0
  -32.1314  -19.8888   19.7615 C   0  0  0  0  0  0  0  0  0  0  0  0
  -24.9679  -19.5064   21.3166 C   0  0  0  0  0  0  0  0  0  0  0  0
  -30.7899  -20.3128   19.7065 C   0  0  0  0  0  0  0  0  0  0  0  0
  -24.2011  -18.8796   20.3240 C   0  0  0  0  0  0  0  0  0  0  0  0
  -18.1437  -28.8366   22.2079 C   0  0  0  0  0  0  0  0  0  0  0  0
  -18.7882  -26.5300   22.5258 C   0  0  0  0  0  0  0  0  0  0  0  0
  -20.4630  -28.2704   22.5789 C   0  0  0  0  0  0  0  0  0  0  0  0
  -31.8014  -26.4243   19.2821 C   0  0  0  0  0  0  0  0  0  0  0  0
  -22.6091  -20.7147   20.4125 C   0  0  0  0  0  0  0  0  0  0  0  0
  -33.9013  -26.5745   20.3262 C   0  0  0  0  0  0  0  0  0  0  0  0
  -35.4238  -27.2897   22.5518 C   0  0  0  0  0  0  0  0  0  0  0  0
  -33.9120  -27.8976   20.7680 C   0  0  0  0  0  0  0  0  0  0  0  0
  -20.1195  -26.9214   22.6672 C   0  0  0  0  0  0  0  0  0  0  0  0
  -27.6239  -27.0653   19.4703 C   0  0  0  0  0  0  0  0  0  0  0  0
  -25.4399  -26.8470   19.3377 C   0  0  0  0  0  0  0  0  0  0  0  0
  -26.7114  -24.8535   18.5267 C   0  0  0  0  0  0  0  0  0  0  0  0
  -27.5393  -18.5560   19.7079 C   0  0  0  0  0  0  0  0  0  0  0  0
  -26.1923  -15.6254   20.0532 C   0  0  0  0  0  0  0  0  0  0  0  0
  -23.3686  -13.7755   20.5548 C   0  0  0  0  0  0  0  0  0  0  0  0
  -22.2785  -30.0155   22.6496 C   0  0  0  0  0  0  0  0  0  0  0  0
  -32.6003  -18.6456   19.0479 C   0  0  0  0  0  0  0  0  0  0  0  0
  -26.2207  -18.8557   21.8356 C   0  0  0  0  0  0  0  0  0  0  0  0
  -24.6104  -17.5623   19.7194 C   0  0  0  0  0  0  0  0  0  0  0  0
  -31.4658  -17.6993   18.6636 C   0  0  0  0  0  0  0  0  0  0  0  0
  -24.6350  -31.6898   20.5709 C   0  0  0  0  0  0  0  0  0  0  0  0
  -30.3194  -18.4735   18.0208 C   0  0  0  0  0  0  0  0  0  0  0  0
  -25.5391  -30.5625   20.0670 C   0  0  0  0  0  0  0  0  0  0  0  0
  -24.1972  -31.4623   22.0167 C   0  0  0  0  0  0  0  0  0  0  0  0
  -24.4871  -29.0276   21.7770 C   0  0  0  0  0  0  0  0  0  0  0  0
  -29.7298  -19.4983   18.9974 C   0  0  1  0  0  0  0  0  0  0  0  0
  -26.8369  -17.8715   20.8461 C   0  0  1  0  0  0  0  0  0  0  0  0
  -24.9011  -29.1797   20.3042 C   0  0  2  0  0  0  0  0  0  0  0  0
  -17.0873  -29.8598   21.9613 C   0  0  0  0  0  0  0  0  0  0  0  0
  -22.5776  -11.4022   20.7516 C   0  0  0  0  0  0  0  0  0  0  0  0
  -16.8953  -22.7209   21.1267 C   0  0  0  0  0  0  0  0  0  0  0  0
  -26.4285  -15.2984   17.0287 C   0  0  0  0  0  0  0  0  0  0  0  0
  -24.8053  -13.3981   17.1774 C   0  0  0  0  0  0  0  0  0  0  0  0
  -27.0037  -13.2527   18.3472 C   0  0  0  0  0  0  0  0  0  0  0  0
  -22.3897  -14.2084   23.3141 C   0  0  0  0  0  0  0  0  0  0  0  0
  -18.3717  -25.0913   22.6137 C   0  0  0  0  0  0  0  0  0  0  0  0
  -19.2599  -22.0554   20.5384 C   0  0  0  0  0  0  0  0  0  0  0  0
  -20.7404  -22.1026   20.9001 C   0  0  0  0  0  0  0  0  0  1  0  0
  -25.2174  -14.7958   19.2528 C   0  0  1  0  0  0  0  0  0  0  0  0
  -23.0712  -12.6284   21.5036 C   0  0  2  0  0  0  0  0  0  0  0  0
  -18.3689  -22.8639   21.4835 C   0  0  1  0  0  0  0  0  0  0  0  0
  -25.8568  -14.2120   17.9614 C   0  0  0  0  0  0  0  0  0  0  0  0
  -27.1431  -28.2179   19.9438 N   0  0  0  0  0  0  0  0  0  0  0  0
  -25.8124  -28.0547   19.8503 N   0  0  0  0  0  0  0  0  0  0  0  0
  -25.8464  -16.9689   20.2558 N   0  0  0  0  0  0  0  0  0  0  0  0
  -23.5982  -30.1340   22.1649 N   0  0  0  0  0  0  0  0  0  0  0  0
  -24.1406  -26.5182   19.1757 N   0  0  0  0  0  0  0  0  0  0  0  0
  -27.9882  -24.3121   18.3241 N   0  0  0  0  0  0  0  0  0  0  0  0
  -21.8043  -28.7059   22.7167 N   0  0  0  0  0  0  0  0  0  0  0  0
  -28.8677  -18.8433   19.9577 N   0  0  0  0  0  0  0  0  0  0  0  0
  -24.6919  -13.7881   20.1676 N   0  0  0  0  0  0  0  0  0  0  0  0
  -22.0264  -13.0281   22.4882 N   0  3  0  0  0  0  0  0  0  0  0  0
  -18.7232  -24.3083   21.4008 N   0  3  0  0  0  0  0  0  0  0  0  0
  -25.7017  -24.1809   18.2080 O   0  0  0  0  0  0  0  0  0  0  0  0
  -26.9223  -18.8038   18.6785 O   0  0  0  0  0  0  0  0  0  0  0  0
  -27.2192  -15.0988   20.4887 O   0  0  0  0  0  0  0  0  0  0  0  0
  -22.5118  -14.5779   20.1906 O   0  0  0  0  0  0  0  0  0  0  0  0
  -21.6080  -31.0051   22.9550 O   0  0  0  0  0  0  0  0  0  0  0  0
  -33.1454  -26.2178   19.2222 O   0  0  0  0  0  0  0  0  0  0  0  0
  -21.4646  -21.3013   19.9675 O   0  0  0  0  0  0  0  0  0  1  0  0
  -36.1536  -27.6327   23.6213 F   0  0  0  0  0  0  0  0  0  0  0  0
  -33.1921  -28.8293   20.1280 F   0  0  0  0  0  0  0  0  0  0  0  0
  -21.3424  -25.7264   22.9530 Cl  0  0  0  0  0  0  0  0  0  0  0  0
  1  2  1  0  0  0  0
  1  5  2  0  0  0  0
  2  6  2  0  0  0  0
  3  8  2  0  0  0  0
  3 17  1  0  0  0  0
  4  9  1  0  0  0  0
  4 17  2  0  0  0  0
  5 19  1  0  0  0  0
  6 21  1  0  0  0  0
  7 10  2  0  0  0  0
  7 20  1  0  0  0  0
  8 26  1  0  0  0  0
  9 26  2  0  0  0  0
 10 27  1  0  0  0  0
 11 12  2  0  0  0  0
 11 28  1  0  0  0  0
 12 29  1  0  0  0  0
 13 22  1  0  0  0  0
 13 27  2  0  0  0  0
 14 23  2  0  0  0  0
 14 24  1  0  0  0  0
 15 23  1  0  0  0  0
 15 25  2  0  0  0  0
 16 29  2  0  0  0  0
 16 30  1  0  0  0  0
 17 32  1  0  0  0  0
 18 32  1  0  0  0  0
 18 33  2  0  0  0  0
 18 34  1  0  0  0  0
 19 21  2  0  0  0  0
 19 39  1  0  0  0  0
 20 22  2  0  0  0  0
 20 40  1  0  0  0  0
 21 48  1  0  0  0  0
 22 41  1  0  0  0  0
 23 51  1  0  0  0  0
 24 31  2  0  0  0  0
 24 58  1  0  0  0  0
 25 31  1  0  0  0  0
 25 71  1  0  0  0  0
 26 81  1  0  0  0  0
 27 82  1  0  0  0  0
 28 30  2  0  0  0  0
 28 81  1  0  0  0  0
 29 83  1  0  0  0  0
 30 84  1  0  0  0  0
 31 85  1  0  0  0  0
 32 65  2  0  0  0  0
 33 66  1  0  0  0  0
 33 69  1  0  0  0  0
 34 70  1  0  0  0  0
 34 76  2  0  0  0  0
 35 49  1  0  0  0  0
 35 72  1  0  0  0  0
 35 77  2  0  0  0  0
 36 61  1  0  0  0  0
 36 67  1  0  0  0  0
 36 78  2  0  0  0  0
 37 62  1  0  0  0  0
 37 73  1  0  0  0  0
 37 79  2  0  0  0  0
 38 68  1  0  0  0  0
 38 71  1  0  0  0  0
 38 80  2  0  0  0  0
 39 42  1  0  0  0  0
 40 49  1  0  0  0  0
 41 67  1  0  0  0  0
 42 44  1  0  0  0  0
 43 45  1  0  0  0  0
 43 46  1  0  0  0  0
 44 48  1  0  0  0  0
 45 50  1  0  0  0  0
 46 68  1  0  0  0  0
 47 50  1  0  0  0  0
 47 68  1  0  0  0  0
 48 72  1  0  0  0  0
 49 67  1  0  0  0  0
 50 66  1  0  0  0  0
 52 62  1  0  0  0  0
 53 63  1  0  0  0  0
 54 64  1  0  0  0  0
 55 64  1  0  0  0  0
 56 64  1  0  0  0  0
 57 74  1  0  0  0  0
 58 75  1  0  0  0  0
 59 60  1  0  0  0  0
 59 63  1  0  0  0  0
 60 82  1  0  0  0  0
 61 64  1  0  0  0  0
 61 73  1  0  0  0  0
 62 74  1  0  0  0  0
 63 75  1  0  0  0  0
 65 66  1  0  0  0  0
M  CHG  2  74   1  75   1
M  ISO  4  38 100  60 101  71 100  82 101
M  END
> <Batch ID>
0013

> <Smiles>
CNC(C)C(=O)NC(C(=O)N1Cc2cc([101O:1][101CH2:1]CC(C)NCc3cc(C)cc([100NH:0][100C:0](=O)N4CCCC(n5nc(-c6ccc(Oc7ccc(F)cc7F)cc6)c(C(N)=O)c5N)C4)c3Cl)ccc2CC1C(=O)NC1CCCc2ccccc21)C(C)(C)C

> <Shape>
0.233

> <Color>
0.081

> <Negative vol penalty>
0.000

$$$$

  -OEChem-04052315503D

 75 82  0     1  0  0  0  0  0999 V2000
  -32.6757  -26.9307   24.1935 C   0  0  0  0  0  0  0  0  0  0  0  0
  -33.2702  -25.6961   23.9527 C   0  0  0  0  0  0  0  0  0  0  0  0
  -23.1714   -9.8811   19.9137 C   0  0  0  0  0  0  0  0  0  0  0  0
  -23.5557  -10.0089   22.2955 C   0  0  0  0  0  0  0  0  0  0  0  0
  -31.2939  -27.0727   24.0744 C   0  0  0  0  0  0  0  0  0  0  0  0
  -32.4830  -24.6026   23.5938 C   0  0  0  0  0  0  0  0  0  0  0  0
  -34.0021  -20.0717   19.7637 C   0  0  0  0  0  0  0  0  0  0  0  0
  -22.3855   -8.7442   20.1014 C   0  0  0  0  0  0  0  0  0  0  0  0
  -22.7697   -8.8720   22.4833 C   0  0  0  0  0  0  0  0  0  0  0  0
  -34.4800  -18.7802   19.9813 C   0  0  0  0  0  0  0  0  0  0  0  0
  -21.1601   -5.7946   23.5550 C   0  0  0  0  0  0  0  0  0  0  0  0
  -21.6407   -4.8094   24.4175 C   0  0  0  0  0  0  0  0  0  0  0  0
  -32.2307  -17.9255   19.8106 C   0  0  0  0  0  0  0  0  0  0  0  0
  -23.5927   -4.5381   23.0199 C   0  0  0  0  0  0  0  0  0  0  0  0
  -23.7566  -10.5135   21.0107 C   0  0  0  0  0  0  0  0  0  0  0  0
  -24.1389  -13.0281   20.8149 C   0  0  0  0  0  0  0  0  0  0  0  0
  -30.4903  -25.9827   23.7044 C   0  0  0  0  0  0  0  0  0  0  0  0
  -32.6312  -20.3016   19.5785 C   0  0  0  0  0  0  0  0  0  0  0  0
  -31.0889  -24.7299   23.4710 C   0  0  0  0  0  0  0  0  0  0  0  0
  -31.7382  -19.2206   19.5883 C   0  0  0  0  0  0  0  0  0  0  0  0
  -22.1846   -8.2396   21.3862 C   0  0  0  0  0  0  0  0  0  0  0  0
  -33.5940  -17.7072   20.0076 C   0  0  0  0  0  0  0  0  0  0  0  0
  -21.8957   -6.1515   22.4248 C   0  0  0  0  0  0  0  0  0  0  0  0
  -22.8571   -4.1812   24.1500 C   0  0  0  0  0  0  0  0  0  0  0  0
  -23.1120   -5.5233   22.1573 C   0  0  0  0  0  0  0  0  0  0  0  0
  -24.5690  -11.6876   20.8173 C   0  0  0  0  0  0  0  0  0  0  0  0
  -25.2825  -13.7553   20.5922 C   0  0  0  0  0  0  0  0  0  0  0  0
  -22.8231  -13.5676   20.9979 C   0  0  0  0  0  0  0  0  0  0  0  0
  -30.4033  -21.9519   21.1331 C   0  0  0  0  0  0  0  0  0  0  0  0
  -28.5643  -21.1105   18.5969 C   0  0  0  0  0  0  0  0  0  0  0  0
  -27.9950  -18.9426   16.0234 C   0  0  0  0  0  0  0  0  0  0  0  0
  -30.8946  -12.8120   21.6977 C   0  0  0  0  0  0  0  0  0  0  0  0
  -28.9959  -26.1732   23.6345 C   0  0  0  0  0  0  0  0  0  0  0  0
  -32.1347  -21.6974   19.3183 C   0  0  0  0  0  0  0  0  0  0  0  0
  -30.2595  -19.4115   19.3746 C   0  0  0  0  0  0  0  0  0  0  0  0
  -28.2739  -25.0566   22.8848 C   0  0  0  0  0  0  0  0  0  0  0  0
  -29.5634  -13.4701   18.4935 C   0  0  0  0  0  0  0  0  0  0  0  0
  -28.7751  -23.6921   23.3473 C   0  0  0  0  0  0  0  0  0  0  0  0
  -28.0758  -13.2078   18.7242 C   0  0  0  0  0  0  0  0  0  0  0  0
  -30.4457  -12.4569   19.2251 C   0  0  0  0  0  0  0  0  0  0  0  0
  -28.6659  -12.0818   20.9026 C   0  0  0  0  0  0  0  0  0  0  0  0
  -30.2714  -23.5261   23.0554 C   0  0  1  0  0  0  0  0  0  0  0  0
  -30.6576  -21.8785   19.6540 C   0  0  1  0  0  0  0  0  0  0  0  0
  -27.7589  -13.1219   20.2273 C   0  0  2  0  0  0  0  0  0  0  0  0
  -26.3932  -18.4922   14.1448 C   0  0  0  0  0  0  0  0  0  0  0  0
  -26.5394  -20.0021   20.5923 C   0  0  0  0  0  0  0  0  0  0  0  0
  -25.4680  -18.7534   18.7052 C   0  0  0  0  0  0  0  0  0  0  0  0
  -25.5353  -21.2467   18.6695 C   0  0  0  0  0  0  0  0  0  0  0  0
  -32.9464  -11.7573   20.6572 C   0  0  0  0  0  0  0  0  0  0  0  0
  -30.1157  -19.2623   13.9840 C   0  0  0  0  0  0  0  0  0  0  0  0
  -34.0098  -14.5134   21.6426 C   0  0  0  0  0  0  0  0  0  0  0  0
  -33.1585  -13.4978   22.3926 C   0  0  0  0  0  0  0  0  0  0  0  0
  -33.1773  -15.5314   20.8726 C   0  0  0  0  0  0  0  0  0  1  0  0
  -27.6645  -19.9435   18.2691 C   0  0  1  0  0  0  0  0  0  0  0  0
  -27.6858  -19.1798   14.5562 C   0  0  2  0  0  0  0  0  0  0  0  0
  -26.3294  -19.9827   19.0650 C   0  0  0  0  0  0  0  0  0  0  0  0
  -25.8833  -11.5675   20.6121 N   0  0  0  0  0  0  0  0  0  0  0  0
  -26.2889  -12.8418   20.4787 N   0  0  0  0  0  0  0  0  0  0  0  0
  -29.8221  -20.7959   19.1303 N   0  0  0  0  0  0  0  0  0  0  0  0
  -30.0786  -12.3718   20.6452 N   0  0  0  0  0  0  0  0  0  0  0  0
  -25.5154  -15.0806   20.4843 N   0  0  0  0  0  0  0  0  0  0  0  0
  -21.7612  -12.6794   21.2161 N   0  0  0  0  0  0  0  0  0  0  0  0
  -30.4832  -23.2289   21.6549 N   0  0  0  0  0  0  0  0  0  0  0  0
  -27.4967  -19.9518   16.8199 N   0  0  0  0  0  0  0  0  0  0  0  0
  -32.2827  -12.7457   21.5051 N   0  0  0  0  0  0  0  0  0  0  0  0
  -28.7893  -18.6552   13.7029 N   0  3  0  0  0  0  0  0  0  0  0  0
  -22.5933  -14.7999   20.9523 O   0  0  0  0  0  0  0  0  0  0  0  0
  -30.1517  -20.9261   21.7545 O   0  0  0  0  0  0  0  0  0  0  0  0
  -28.1685  -22.2586   18.3806 O   0  0  0  0  0  0  0  0  0  0  0  0
  -28.6131  -17.9585   16.4232 O   0  0  0  0  0  0  0  0  0  0  0  0
  -30.4107  -13.2342   22.7559 O   0  0  0  0  0  0  0  0  0  0  0  0
  -21.4176   -7.1304   21.5699 O   0  0  0  0  0  0  0  0  0  0  0  0
  -34.0578  -16.4457   20.2205 O   0  0  0  0  0  0  0  0  0  1  0  0
  -23.3193   -3.2362   24.9792 F   0  0  0  0  0  0  0  0  0  0  0  0
  -23.8238   -5.8629   21.0738 F   0  0  0  0  0  0  0  0  0  0  0  0
  1  2  1  0  0  0  0
  1  5  2  0  0  0  0
  2  6  2  0  0  0  0
  3  8  2  0  0  0  0
  3 15  1  0  0  0  0
  4  9  1  0  0  0  0
  4 15  2  0  0  0  0
  5 17  1  0  0  0  0
  6 19  1  0  0  0  0
  7 10  2  0  0  0  0
  7 18  1  0  0  0  0
  8 21  1  0  0  0  0
  9 21  2  0  0  0  0
 10 22  1  0  0  0  0
 11 12  2  0  0  0  0
 11 23  1  0  0  0  0
 12 24  1  0  0  0  0
 13 20  1  0  0  0  0
 13 22  2  0  0  0  0
 14 24  2  0  0  0  0
 14 25  1  0  0  0  0
 15 26  1  0  0  0  0
 16 26  1  0  0  0  0
 16 27  2  0  0  0  0
 16 28  1  0  0  0  0
 17 19  2  0  0  0  0
 17 33  1  0  0  0  0
 18 20  2  0  0  0  0
 18 34  1  0  0  0  0
 19 42  1  0  0  0  0
 20 35  1  0  0  0  0
 21 72  1  0  0  0  0
 22 73  1  0  0  0  0
 23 25  2  0  0  0  0
 23 72  1  0  0  0  0
 24 74  1  0  0  0  0
 25 75  1  0  0  0  0
 26 57  2  0  0  0  0
 27 58  1  0  0  0  0
 27 61  1  0  0  0  0
 28 62  1  0  0  0  0
 28 67  2  0  0  0  0
 29 43  1  0  0  0  0
 29 63  1  0  0  0  0
 29 68  2  0  0  0  0
 30 54  1  0  0  0  0
 30 59  1  0  0  0  0
 30 69  2  0  0  0  0
 31 55  1  0  0  0  0
 31 64  1  0  0  0  0
 31 70  2  0  0  0  0
 32 60  1  0  0  0  0
 32 65  1  0  0  0  0
 32 71  2  0  0  0  0
 33 36  1  0  0  0  0
 34 43  1  0  0  0  0
 35 59  1  0  0  0  0
 36 38  1  0  0  0  0
 37 39  1  0  0  0  0
 37 40  1  0  0  0  0
 38 42  1  0  0  0  0
 39 44  1  0  0  0  0
 40 60  1  0  0  0  0
 41 44  1  0  0  0  0
 41 60  1  0  0  0  0
 42 63  1  0  0  0  0
 43 59  1  0  0  0  0
 44 58  1  0  0  0  0
 45 55  1  0  0  0  0
 46 56  1  0  0  0  0
 47 56  1  0  0  0  0
 48 56  1  0  0  0  0
 49 65  1  0  0  0  0
 50 66  1  0  0  0  0
 51 52  1  0  0  0  0
 51 53  1  0  0  0  0
 52 65  1  0  0  0  0
 53 73  1  0  0  0  0
 54 56  1  0  0  0  0
 54 64  1  0  0  0  0
 55 66  1  0  0  0  0
 57 58  1  0  0  0  0
M  CHG  1  66   1
M  ISO  4  32 100  53 101  65 100  73 101
M  END
> <Batch ID>
0013

> <Smiles>
CNC(C)C(=O)NC(C(=O)N1Cc2cc([101O:1][101CH2:1]CC[100N:0](C)[100C:0](=O)N3CCCC(n4nc(-c5ccc(Oc6ccc(F)cc6F)cc5)c(C(N)=O)c4N)C3)ccc2CC1C(=O)NC1CCCc2ccccc21)C(C)(C)C

> <Shape>
0.188

> <Color>
0.204

> <Negative vol penalty>
0.000

$$$$

  -OEChem-04052315503D

 86 94  0     1  0  0  0  0  0999 V2000
  -21.9814  -11.7540   19.2433 C   0  0  0  0  0  0  0  0  0  0  0  0
  -21.7941  -12.9745   19.8842 C   0  0  0  0  0  0  0  0  0  0  0  0
  -29.7245  -28.3919   23.5603 C   0  0  0  0  0  0  0  0  0  0  0  0
  -28.2652  -26.4827   23.3110 C   0  0  0  0  0  0  0  0  0  0  0  0
  -23.2428  -11.1601   19.2322 C   0  0  0  0  0  0  0  0  0  0  0  0
  -22.8680  -13.6013   20.5154 C   0  0  0  0  0  0  0  0  0  0  0  0
  -23.0948  -18.5574   19.5000 C   0  0  0  0  0  0  0  0  0  0  0  0
  -30.4856  -27.6884   24.4938 C   0  0  0  0  0  0  0  0  0  0  0  0
  -29.0263  -25.7790   24.2444 C   0  0  0  0  0  0  0  0  0  0  0  0
  -22.2135  -19.3894   20.1891 C   0  0  0  0  0  0  0  0  0  0  0  0
  -30.2728  -26.8589   27.7635 C   0  0  0  0  0  0  0  0  0  0  0  0
  -30.6453  -27.5264   28.9302 C   0  0  0  0  0  0  0  0  0  0  0  0
  -23.9850  -19.9964   21.7098 C   0  0  0  0  0  0  0  0  0  0  0  0
  -19.2533  -29.3794   23.1520 C   0  0  0  0  0  0  0  0  0  0  0  0
  -32.9735  -27.1897   28.3794 C   0  0  0  0  0  0  0  0  0  0  0  0
  -28.6143  -27.7891   22.9690 C   0  0  0  0  0  0  0  0  0  0  0  0
  -28.0148  -28.5543   20.6104 C   0  0  0  0  0  0  0  0  0  0  0  0
  -24.3348  -11.7846   19.8552 C   0  0  0  0  0  0  0  0  0  0  0  0
  -24.4272  -18.4300   19.9180 C   0  0  0  0  0  0  0  0  0  0  0  0
  -24.1449  -13.0145   20.5137 C   0  0  0  0  0  0  0  0  0  0  0  0
  -24.8818  -19.1640   21.0228 C   0  0  0  0  0  0  0  0  0  0  0  0
  -18.1251  -28.6655   23.5558 C   0  0  0  0  0  0  0  0  0  0  0  0
  -20.2980  -28.7232   22.5011 C   0  0  0  0  0  0  0  0  0  0  0  0
  -19.0863  -26.6389   22.6578 C   0  0  0  0  0  0  0  0  0  0  0  0
  -30.1365  -26.3819   24.8358 C   0  0  0  0  0  0  0  0  0  0  0  0
  -22.6578  -20.1069   21.2958 C   0  0  0  0  0  0  0  0  0  0  0  0
  -31.2506  -26.3567   26.9047 C   0  0  0  0  0  0  0  0  0  0  0  0
  -31.9956  -27.6918   29.2382 C   0  0  0  0  0  0  0  0  0  0  0  0
  -32.6009  -26.5222   27.2127 C   0  0  0  0  0  0  0  0  0  0  0  0
  -18.0416  -27.2952   23.3087 C   0  0  0  0  0  0  0  0  0  0  0  0
  -20.2145  -27.3529   22.2540 C   0  0  0  0  0  0  0  0  0  0  0  0
  -27.8273  -28.5156   22.0051 C   0  0  0  0  0  0  0  0  0  0  0  0
  -27.0151  -29.3772   20.1523 C   0  0  0  0  0  0  0  0  0  0  0  0
  -29.0041  -27.9044   19.8013 C   0  0  0  0  0  0  0  0  0  0  0  0
  -26.2285  -16.0316   20.9702 C   0  0  0  0  0  0  0  0  0  0  0  0
  -28.5898  -18.2502   20.8118 C   0  0  0  0  0  0  0  0  0  0  0  0
  -29.4730  -21.5466   20.8166 C   0  0  0  0  0  0  0  0  0  0  0  0
  -21.6351  -30.8484   22.2964 C   0  0  0  0  0  0  0  0  0  0  0  0
  -25.6689  -11.0812   19.8575 C   0  0  0  0  0  0  0  0  0  0  0  0
  -25.3722  -17.5488   19.1479 C   0  0  0  0  0  0  0  0  0  0  0  0
  -26.3079  -19.0779   21.4997 C   0  0  0  0  0  0  0  0  0  0  0  0
  -26.8369  -11.9918   20.2276 C   0  0  0  0  0  0  0  0  0  0  0  0
  -24.2960  -33.0789   21.5080 C   0  0  0  0  0  0  0  0  0  0  0  0
  -26.4942  -12.8263   21.4576 C   0  0  0  0  0  0  0  0  0  0  0  0
  -25.5195  -32.1645   21.4131 C   0  0  0  0  0  0  0  0  0  0  0  0
  -23.3375  -32.6312   22.6101 C   0  0  0  0  0  0  0  0  0  0  0  0
  -24.1460  -30.3101   22.4433 C   0  0  0  0  0  0  0  0  0  0  0  0
  -25.2905  -13.7374   21.1883 C   0  0  1  0  0  0  0  0  0  0  0  0
  -26.5752  -17.0993   19.9713 C   0  0  1  0  0  0  0  0  0  0  0  0
  -25.1087  -30.6830   21.3041 C   0  0  2  0  0  0  0  0  0  0  0  0
  -17.0308  -29.4118   24.2493 C   0  0  0  0  0  0  0  0  0  0  0  0
  -31.4809  -23.0482   20.7114 C   0  0  0  0  0  0  0  0  0  0  0  0
  -29.2288  -17.5956   23.7227 C   0  0  0  0  0  0  0  0  0  0  0  0
  -30.5448  -19.7222   23.8392 C   0  0  0  0  0  0  0  0  0  0  0  0
  -31.2328  -17.9167   22.2614 C   0  0  0  0  0  0  0  0  0  0  0  0
  -18.4085  -24.7785   21.1613 C   0  0  0  0  0  0  0  0  0  0  0  0
  -28.5364  -22.8167   18.3128 C   0  0  0  0  0  0  0  0  0  0  0  0
  -20.6340  -23.4695   22.7494 C   0  0  0  0  0  0  0  0  0  0  0  0
  -21.2220  -22.4611   23.7374 C   0  0  0  0  0  0  0  0  0  0  0  0
  -19.5015  -24.2937   23.3564 C   0  0  0  0  0  0  0  0  0  0  0  0
  -22.3219  -21.6249   23.0955 C   0  0  0  0  0  0  0  0  0  1  0  0
  -29.1594  -19.2749   21.7628 C   0  0  1  0  0  0  0  0  0  0  0  0
  -30.3957  -22.3435   19.9122 C   0  0  2  0  0  0  0  0  0  0  0  0
  -30.0140  -18.6277   22.8890 C   0  0  0  0  0  0  0  0  0  0  0  0
  -26.7902  -29.2553   22.4067 N   0  0  0  0  0  0  0  0  0  0  0  0
  -26.3170  -29.7665   21.2574 N   0  0  0  0  0  0  0  0  0  0  0  0
  -27.1918  -18.1980   20.7174 N   0  0  0  0  0  0  0  0  0  0  0  0
  -22.9890  -31.2190   22.4397 N   0  0  0  0  0  0  0  0  0  0  0  0
  -26.6738  -29.7985   18.9160 N   0  0  0  0  0  0  0  0  0  0  0  0
  -29.9572  -27.0942   20.4335 N   0  0  0  0  0  0  0  0  0  0  0  0
  -21.4282  -29.4822   22.1082 N   0  0  0  0  0  0  0  0  0  0  0  0
  -25.6924  -14.8885   20.4086 N   0  0  0  0  0  0  0  0  0  0  0  0
  -29.8850  -20.2366   20.9399 N   0  0  0  0  0  0  0  0  0  0  0  0
  -19.0016  -25.2617   22.4094 N   0  0  3  0  0  0  0  0  0  0  0  0
  -29.6227  -23.3722   19.1605 N   0  3  0  0  0  0  0  0  0  0  0  0
  -29.0517  -28.0512   18.5565 O   0  0  0  0  0  0  0  0  0  0  0  0
  -26.4337  -16.2297   22.1620 O   0  0  0  0  0  0  0  0  0  0  0  0
  -29.3570  -17.5276   20.1708 O   0  0  0  0  0  0  0  0  0  0  0  0
  -28.4875  -22.0381   21.3623 O   0  0  0  0  0  0  0  0  0  0  0  0
  -20.7284  -31.6848   22.3102 O   0  0  0  0  0  0  0  0  0  0  0  0
  -30.8791  -25.6950   25.7464 O   0  0  0  0  0  0  0  0  0  0  0  0
  -21.7995  -20.9193   21.9706 O   0  0  0  0  0  0  0  0  0  1  0  0
  -32.3533  -28.3342   30.3578 F   0  0  0  0  0  0  0  0  0  0  0  0
  -33.5448  -26.0430   26.3910 F   0  0  0  0  0  0  0  0  0  0  0  0
  -16.6334  -26.4176   23.8144 Cl  0  0  0  0  0  0  0  0  0  0  0  0
  -21.5183  -26.5413   21.4435 Cl  0  0  0  0  0  0  0  0  0  0  0  0
  1  2  1  0  0  0  0
  1  5  2  0  0  0  0
  2  6  2  0  0  0  0
  3  8  2  0  0  0  0
  3 16  1  0  0  0  0
  4  9  1  0  0  0  0
  4 16  2  0  0  0  0
  5 18  1  0  0  0  0
  6 20  1  0  0  0  0
  7 10  2  0  0  0  0
  7 19  1  0  0  0  0
  8 25  1  0  0  0  0
  9 25  2  0  0  0  0
 10 26  1  0  0  0  0
 11 12  2  0  0  0  0
 11 27  1  0  0  0  0
 12 28  1  0  0  0  0
 13 21  1  0  0  0  0
 13 26  2  0  0  0  0
 14 22  1  0  0  0  0
 14 23  2  0  0  0  0
 15 28  2  0  0  0  0
 15 29  1  0  0  0  0
 16 32  1  0  0  0  0
 17 32  1  0  0  0  0
 17 33  2  0  0  0  0
 17 34  1  0  0  0  0
 18 20  2  0  0  0  0
 18 39  1  0  0  0  0
 19 21  2  0  0  0  0
 19 40  1  0  0  0  0
 20 48  1  0  0  0  0
 21 41  1  0  0  0  0
 22 30  2  0  0  0  0
 22 51  1  0  0  0  0
 23 31  1  0  0  0  0
 23 71  1  0  0  0  0
 24 30  1  0  0  0  0
 24 31  2  0  0  0  0
 24 74  1  0  0  0  0
 25 81  1  0  0  0  0
 26 82  1  0  0  0  0
 27 29  2  0  0  0  0
 27 81  1  0  0  0  0
 28 83  1  0  0  0  0
 29 84  1  0  0  0  0
 30 85  1  0  0  0  0
 31 86  1  0  0  0  0
 32 65  2  0  0  0  0
 33 66  1  0  0  0  0
 33 69  1  0  0  0  0
 34 70  1  0  0  0  0
 34 76  2  0  0  0  0
 35 49  1  0  0  0  0
 35 72  1  0  0  0  0
 35 77  2  0  0  0  0
 36 62  1  0  0  0  0
 36 67  1  0  0  0  0
 36 78  2  0  0  0  0
 37 63  1  0  0  0  0
 37 73  1  0  0  0  0
 37 79  2  0  0  0  0
 38 68  1  0  0  0  0
 38 71  1  0  0  0  0
 38 80  2  0  0  0  0
 39 42  1  0  0  0  0
 40 49  1  0  0  0  0
 41 67  1  0  0  0  0
 42 44  1  0  0  0  0
 43 45  1  0  0  0  0
 43 46  1  0  0  0  0
 44 48  1  0  0  0  0
 45 50  1  0  0  0  0
 46 68  1  0  0  0  0
 47 50  1  0  0  0  0
 47 68  1  0  0  0  0
 48 72  1  0  0  0  0
 49 67  1  0  0  0  0
 50 66  1  0  0  0  0
 52 63  1  0  0  0  0
 53 64  1  0  0  0  0
 54 64  1  0  0  0  0
 55 64  1  0  0  0  0
 56 74  1  0  0  0  0
 57 75  1  0  0  0  0
 58 59  1  0  0  0  0
 58 60  1  0  0  0  0
 59 61  1  0  0  0  0
 60 74  1  0  0  0  0
 61 82  1  0  0  0  0
 62 64  1  0  0  0  0
 62 73  1  0  0  0  0
 63 75  1  0  0  0  0
 65 66  1  0  0  0  0
M  CHG  1  75   1
M  ISO  4  38 100  61 101  71 100  82 101
M  END
> <Batch ID>
0013

> <Smiles>
CNC(C)C(=O)NC(C(=O)N1Cc2cc([101O:1][101CH2:1]CCCN(C)c3c(Cl)c(C)cc([100NH:0][100C:0](=O)N4CCCC(n5nc(-c6ccc(Oc7ccc(F)cc7F)cc6)c(C(N)=O)c5N)C4)c3Cl)ccc2CC1C(=O)NC1CCCc2ccccc21)C(C)(C)C

> <Shape>
0.239

> <Color>
0.077

> <Negative vol penalty>
0.000

$$$$

  -OEChem-04052315503D

 84 92  0     1  0  0  0  0  0999 V2000
  -16.9021  -28.4485   24.1151 C   0  0  0  0  0  0  0  0  0  0  0  0
  -17.6578  -27.5780   23.3362 C   0  0  0  0  0  0  0  0  0  0  0  0
  -23.8390   -8.6325   19.9022 C   0  0  0  0  0  0  0  0  0  0  0  0
  -23.1310  -10.2952   21.5058 C   0  0  0  0  0  0  0  0  0  0  0  0
  -17.2010  -29.8103   24.1262 C   0  0  0  0  0  0  0  0  0  0  0  0
  -18.7122  -28.0691   22.5671 C   0  0  0  0  0  0  0  0  0  0  0  0
  -22.8759  -25.2092   22.9269 C   0  0  0  0  0  0  0  0  0  0  0  0
  -23.1313   -7.6557   20.6025 C   0  0  0  0  0  0  0  0  0  0  0  0
  -22.4232   -9.3183   22.2061 C   0  0  0  0  0  0  0  0  0  0  0  0
  -22.9005  -24.0250   22.1915 C   0  0  0  0  0  0  0  0  0  0  0  0
  -23.1065   -6.8408   24.4029 C   0  0  0  0  0  0  0  0  0  0  0  0
  -23.2309   -6.8213   25.7920 C   0  0  0  0  0  0  0  0  0  0  0  0
  -24.2389  -25.1088   20.5023 C   0  0  0  0  0  0  0  0  0  0  0  0
  -29.4203  -18.7017   19.9072 C   0  0  0  0  0  0  0  0  0  0  0  0
  -20.8508   -7.1746   26.0100 C   0  0  0  0  0  0  0  0  0  0  0  0
  -23.8389   -9.9523   20.3538 C   0  0  0  0  0  0  0  0  0  0  0  0
  -24.0927  -11.7703   18.5823 C   0  0  0  0  0  0  0  0  0  0  0  0
  -18.2656  -30.3169   23.3643 C   0  0  0  0  0  0  0  0  0  0  0  0
  -23.5246  -26.3571   22.4494 C   0  0  0  0  0  0  0  0  0  0  0  0
  -19.0247  -29.4391   22.5669 C   0  0  0  0  0  0  0  0  0  0  0  0
  -24.2233  -26.3056   21.2348 C   0  0  0  0  0  0  0  0  0  0  0  0
  -29.3775  -20.0906   20.0291 C   0  0  0  0  0  0  0  0  0  0  0  0
  -28.3638  -18.0218   19.3012 C   0  0  0  0  0  0  0  0  0  0  0  0
  -27.2215  -20.1197   18.9391 C   0  0  0  0  0  0  0  0  0  0  0  0
  -22.4234   -7.9986   21.7544 C   0  0  0  0  0  0  0  0  0  0  0  0
  -23.5796  -23.9755   20.9776 C   0  0  0  0  0  0  0  0  0  0  0  0
  -21.8543   -7.0273   23.8172 C   0  0  0  0  0  0  0  0  0  0  0  0
  -22.1030   -6.9881   26.5956 C   0  0  0  0  0  0  0  0  0  0  0  0
  -20.7265   -7.1941   24.6208 C   0  0  0  0  0  0  0  0  0  0  0  0
  -28.2781  -20.7996   19.5451 C   0  0  0  0  0  0  0  0  0  0  0  0
  -27.2644  -18.7308   18.8172 C   0  0  0  0  0  0  0  0  0  0  0  0
  -24.5702  -10.9617   19.6312 C   0  0  0  0  0  0  0  0  0  0  0  0
  -25.1648  -12.5578   18.2404 C   0  0  0  0  0  0  0  0  0  0  0  0
  -22.7960  -11.8063   17.9717 C   0  0  0  0  0  0  0  0  0  0  0  0
  -22.5886  -29.2753   21.6055 C   0  0  0  0  0  0  0  0  0  0  0  0
  -25.7788  -29.7982   21.3380 C   0  0  0  0  0  0  0  0  0  0  0  0
  -28.8978  -28.4980   20.8600 C   0  0  0  0  0  0  0  0  0  0  0  0
  -29.4784  -15.7883   19.6403 C   0  0  0  0  0  0  0  0  0  0  0  0
  -18.5208  -31.8033   23.3718 C   0  0  0  0  0  0  0  0  0  0  0  0
  -23.5112  -27.6192   23.2676 C   0  0  0  0  0  0  0  0  0  0  0  0
  -24.9528  -27.5045   20.6882 C   0  0  0  0  0  0  0  0  0  0  0  0
  -19.8906  -32.1889   22.8192 C   0  0  0  0  0  0  0  0  0  0  0  0
  -30.0307  -12.2710   19.6053 C   0  0  0  0  0  0  0  0  0  0  0  0
  -20.1685  -31.4472   21.5156 C   0  0  0  0  0  0  0  0  0  0  0  0
  -28.6200  -11.6834   19.5226 C   0  0  0  0  0  0  0  0  0  0  0  0
  -30.0725  -13.5250   20.4768 C   0  0  0  0  0  0  0  0  0  0  0  0
  -27.6926  -13.9788   20.0304 C   0  0  0  0  0  0  0  0  0  0  0  0
  -20.1919  -29.9301   21.7383 C   0  0  1  0  0  0  0  0  0  0  0  0
  -23.7731  -28.8722   22.4375 C   0  0  1  0  0  0  0  0  0  0  0  0
  -27.5879  -12.7513   19.1106 C   0  0  2  0  0  0  0  0  0  0  0  0
  -30.5333  -20.7755   20.6852 C   0  0  0  0  0  0  0  0  0  0  0  0
  -31.3046  -29.1773   20.6524 C   0  0  0  0  0  0  0  0  0  0  0  0
  -25.2515  -30.7907   18.5013 C   0  0  0  0  0  0  0  0  0  0  0  0
  -27.6995  -30.5478   18.0358 C   0  0  0  0  0  0  0  0  0  0  0  0
  -26.9168  -32.1428   19.7869 C   0  0  0  0  0  0  0  0  0  0  0  0
  -26.1099  -21.3216   17.0736 C   0  0  0  0  0  0  0  0  0  0  0  0
  -29.6718  -26.9078   23.2330 C   0  0  0  0  0  0  0  0  0  0  0  0
  -24.9633  -21.0907   19.2828 C   0  0  0  0  0  0  0  0  0  0  0  0
  -24.7543  -22.5870   19.4453 C   0  0  0  0  0  0  0  0  0  1  0  0
  -26.7962  -29.6569   20.2317 C   0  0  1  0  0  0  0  0  0  0  0  0
  -30.2054  -28.7195   21.5985 C   0  0  2  0  0  0  0  0  0  0  0  0
  -26.6507  -30.7623   19.1480 C   0  0  0  0  0  0  0  0  0  0  0  0
  -25.8464  -11.2124   19.9355 N   0  0  0  0  0  0  0  0  0  0  0  0
  -26.1799  -12.1873   19.0726 N   0  0  0  0  0  0  0  0  0  0  0  0
  -24.9052  -28.7171   21.5218 N   0  0  0  0  0  0  0  0  0  0  0  0
  -29.0710  -14.4933   20.0250 N   0  0  0  0  0  0  0  0  0  0  0  0
  -25.3289  -13.5240   17.3121 N   0  0  0  0  0  0  0  0  0  0  0  0
  -21.8102  -10.9293   18.4446 N   0  0  0  0  0  0  0  0  0  0  0  0
  -28.4430  -16.6109   19.1979 N   0  0  0  0  0  0  0  0  0  0  0  0
  -21.4451  -29.5268   22.3393 N   0  0  0  0  0  0  0  0  0  0  0  0
  -28.1026  -29.6243   20.8803 N   0  0  0  0  0  0  0  0  0  0  0  0
  -26.1176  -20.8325   18.4526 N   0  0  3  0  0  0  0  0  0  0  0  0
  -30.6480  -27.4584   22.2579 N   0  3  0  0  0  0  0  0  0  0  0  0
  -22.5244  -12.5814   17.0236 O   0  0  0  0  0  0  0  0  0  0  0  0
  -22.7041  -29.3538   20.3881 O   0  0  0  0  0  0  0  0  0  0  0  0
  -25.7645  -30.8268   22.0187 O   0  0  0  0  0  0  0  0  0  0  0  0
  -28.6119  -27.4335   20.3162 O   0  0  0  0  0  0  0  0  0  0  0  0
  -30.6627  -16.1325   19.6732 O   0  0  0  0  0  0  0  0  0  0  0  0
  -21.7325   -7.0456   22.4379 O   0  0  0  0  0  0  0  0  0  0  0  0
  -23.6046  -22.8211   20.2575 O   0  0  0  0  0  0  0  0  0  1  0  0
  -22.2223   -6.9678   27.9296 F   0  0  0  0  0  0  0  0  0  0  0  0
  -19.5207   -7.3725   24.0639 F   0  0  0  0  0  0  0  0  0  0  0  0
  -28.2360  -22.5266   19.7012 Cl  0  0  0  0  0  0  0  0  0  0  0  0
  -25.9519  -17.8789   18.0640 Cl  0  0  0  0  0  0  0  0  0  0  0  0
  1  2  1  0  0  0  0
  1  5  2  0  0  0  0
  2  6  2  0  0  0  0
  3  8  2  0  0  0  0
  3 16  1  0  0  0  0
  4  9  1  0  0  0  0
  4 16  2  0  0  0  0
  5 18  1  0  0  0  0
  6 20  1  0  0  0  0
  7 10  2  0  0  0  0
  7 19  1  0  0  0  0
  8 25  1  0  0  0  0
  9 25  2  0  0  0  0
 10 26  1  0  0  0  0
 11 12  2  0  0  0  0
 11 27  1  0  0  0  0
 12 28  1  0  0  0  0
 13 21  1  0  0  0  0
 13 26  2  0  0  0  0
 14 22  1  0  0  0  0
 14 23  2  0  0  0  0
 15 28  2  0  0  0  0
 15 29  1  0  0  0  0
 16 32  1  0  0  0  0
 17 32  1  0  0  0  0
 17 33  2  0  0  0  0
 17 34  1  0  0  0  0
 18 20  2  0  0  0  0
 18 39  1  0  0  0  0
 19 21  2  0  0  0  0
 19 40  1  0  0  0  0
 20 48  1  0  0  0  0
 21 41  1  0  0  0  0
 22 30  2  0  0  0  0
 22 51  1  0  0  0  0
 23 31  1  0  0  0  0
 23 69  1  0  0  0  0
 24 30  1  0  0  0  0
 24 31  2  0  0  0  0
 24 72  1  0  0  0  0
 25 79  1  0  0  0  0
 26 80  1  0  0  0  0
 27 29  2  0  0  0  0
 27 79  1  0  0  0  0
 28 81  1  0  0  0  0
 29 82  1  0  0  0  0
 30 83  1  0  0  0  0
 31 84  1  0  0  0  0
 32 63  2  0  0  0  0
 33 64  1  0  0  0  0
 33 67  1  0  0  0  0
 34 68  1  0  0  0  0
 34 74  2  0  0  0  0
 35 49  1  0  0  0  0
 35 70  1  0  0  0  0
 35 75  2  0  0  0  0
 36 60  1  0  0  0  0
 36 65  1  0  0  0  0
 36 76  2  0  0  0  0
 37 61  1  0  0  0  0
 37 71  1  0  0  0  0
 37 77  2  0  0  0  0
 38 66  1  0  0  0  0
 38 69  1  0  0  0  0
 38 78  2  0  0  0  0
 39 42  1  0  0  0  0
 40 49  1  0  0  0  0
 41 65  1  0  0  0  0
 42 44  1  0  0  0  0
 43 45  1  0  0  0  0
 43 46  1  0  0  0  0
 44 48  1  0  0  0  0
 45 50  1  0  0  0  0
 46 66  1  0  0  0  0
 47 50  1  0  0  0  0
 47 66  1  0  0  0  0
 48 70  1  0  0  0  0
 49 65  1  0  0  0  0
 50 64  1  0  0  0  0
 52 61  1  0  0  0  0
 53 62  1  0  0  0  0
 54 62  1  0  0  0  0
 55 62  1  0  0  0  0
 56 72  1  0  0  0  0
 57 73  1  0  0  0  0
 58 59  1  0  0  0  0
 58 72  1  0  0  0  0
 59 80  1  0  0  0  0
 60 62  1  0  0  0  0
 60 71  1  0  0  0  0
 61 73  1  0  0  0  0
 63 64  1  0  0  0  0
M  CHG  1  73   1
M  ISO  4  38 100  59 101  69 100  80 101
M  END
> <Batch ID>
0013

> <Smiles>
CNC(C)C(=O)NC(C(=O)N1Cc2cc([101O:1][101CH2:1]CN(C)c3c(Cl)c(C)cc([100NH:0][100C:0](=O)N4CCCC(n5nc(-c6ccc(Oc7ccc(F)cc7F)cc6)c(C(N)=O)c5N)C4)c3Cl)ccc2CC1C(=O)NC1CCCc2ccccc21)C(C)(C)C

> <Shape>
0.263

> <Color>
0.104

> <Negative vol penalty>
0.000

$$$$

  -OEChem-04052315503D

 86 94  0     1  0  0  0  0  0999 V2000
  -17.4654  -28.9104   24.6577 C   0  0  0  0  0  0  0  0  0  0  0  0
  -18.3345  -27.8267   24.5838 C   0  0  0  0  0  0  0  0  0  0  0  0
  -23.5839   -9.7231   20.0886 C   0  0  0  0  0  0  0  0  0  0  0  0
  -24.1499  -10.0606   22.4130 C   0  0  0  0  0  0  0  0  0  0  0  0
  -17.4663  -29.8733   23.6493 C   0  0  0  0  0  0  0  0  0  0  0  0
  -19.2044  -27.7046   23.5008 C   0  0  0  0  0  0  0  0  0  0  0  0
  -23.8978  -26.4307   24.9129 C   0  0  0  0  0  0  0  0  0  0  0  0
  -23.0603   -8.4679   20.3983 C   0  0  0  0  0  0  0  0  0  0  0  0
  -23.6263   -8.8054   22.7227 C   0  0  0  0  0  0  0  0  0  0  0  0
  -24.1246  -25.0936   25.2365 C   0  0  0  0  0  0  0  0  0  0  0  0
  -20.5770   -7.4295   23.2018 C   0  0  0  0  0  0  0  0  0  0  0  0
  -19.7546   -7.3311   24.3240 C   0  0  0  0  0  0  0  0  0  0  0  0
  -25.0816  -24.7334   23.0516 C   0  0  0  0  0  0  0  0  0  0  0  0
  -29.8390  -20.9376   22.5960 C   0  0  0  0  0  0  0  0  0  0  0  0
  -21.2872   -5.7436   25.3079 C   0  0  0  0  0  0  0  0  0  0  0  0
  -24.1288  -10.5194   21.0959 C   0  0  0  0  0  0  0  0  0  0  0  0
  -23.9837  -13.0448   20.7655 C   0  0  0  0  0  0  0  0  0  0  0  0
  -18.3433  -29.7680   22.5583 C   0  0  0  0  0  0  0  0  0  0  0  0
  -24.2519  -26.9273   23.6502 C   0  0  0  0  0  0  0  0  0  0  0  0
  -19.2161  -28.6662   22.4762 C   0  0  0  0  0  0  0  0  0  0  0  0
  -24.8607  -26.0778   22.7154 C   0  0  0  0  0  0  0  0  0  0  0  0
  -29.8651  -20.5709   21.2505 C   0  0  0  0  0  0  0  0  0  0  0  0
  -29.5978  -19.9754   23.5766 C   0  0  0  0  0  0  0  0  0  0  0  0
  -29.4085  -18.2796   21.8662 C   0  0  0  0  0  0  0  0  0  0  0  0
  -23.0814   -8.0091   21.7153 C   0  0  0  0  0  0  0  0  0  0  0  0
  -24.7139  -24.2441   24.3048 C   0  0  0  0  0  0  0  0  0  0  0  0
  -21.7545   -6.6850   23.1325 C   0  0  0  0  0  0  0  0  0  0  0  0
  -20.1097   -6.4882   25.3771 C   0  0  0  0  0  0  0  0  0  0  0  0
  -22.1096   -5.8420   24.1856 C   0  0  0  0  0  0  0  0  0  0  0  0
  -29.6498  -19.2419   20.8856 C   0  0  0  0  0  0  0  0  0  0  0  0
  -29.3825  -18.6464   23.2117 C   0  0  0  0  0  0  0  0  0  0  0  0
  -24.6703  -11.8159   20.7765 C   0  0  0  0  0  0  0  0  0  0  0  0
  -24.9347  -13.9662   20.4010 C   0  0  0  0  0  0  0  0  0  0  0  0
  -22.6091  -13.3281   21.0587 C   0  0  0  0  0  0  0  0  0  0  0  0
  -22.6584  -28.2052   21.2148 C   0  0  0  0  0  0  0  0  0  0  0  0
  -25.6371  -28.6788   20.0209 C   0  0  0  0  0  0  0  0  0  0  0  0
  -27.4424  -21.6243   25.4376 C   0  0  0  0  0  0  0  0  0  0  0  0
  -28.9217  -27.7534   19.9771 C   0  0  0  0  0  0  0  0  0  0  0  0
  -30.0655  -16.0911   20.8056 C   0  0  0  0  0  0  0  0  0  0  0  0
  -18.2748  -30.8086   21.4687 C   0  0  0  0  0  0  0  0  0  0  0  0
  -24.0251  -28.3785   23.3262 C   0  0  0  0  0  0  0  0  0  0  0  0
  -25.2779  -26.5666   21.3533 C   0  0  0  0  0  0  0  0  0  0  0  0
  -19.4894  -30.8033   20.5441 C   0  0  0  0  0  0  0  0  0  0  0  0
  -29.6242  -13.3260   18.6062 C   0  0  0  0  0  0  0  0  0  0  0  0
  -19.8296  -29.3787   20.1179 C   0  0  0  0  0  0  0  0  0  0  0  0
  -28.2395  -12.7878   18.9739 C   0  0  0  0  0  0  0  0  0  0  0  0
  -30.3828  -13.8259   19.8344 C   0  0  0  0  0  0  0  0  0  0  0  0
  -28.2715  -14.2612   21.0269 C   0  0  0  0  0  0  0  0  0  0  0  0
  -20.1919  -28.5119   21.3298 C   0  0  1  0  0  0  0  0  0  0  0  0
  -23.9557  -28.6522   21.8269 C   0  0  1  0  0  0  0  0  0  0  0  0
  -27.4439  -13.8060   19.8139 C   0  0  2  0  0  0  0  0  0  0  0  0
  -30.1270  -21.6369   20.2353 C   0  0  0  0  0  0  0  0  0  0  0  0
  -31.1077  -28.3001   18.8726 C   0  0  0  0  0  0  0  0  0  0  0  0
  -24.7169  -27.2394   17.4928 C   0  0  0  0  0  0  0  0  0  0  0  0
  -27.1225  -26.9759   16.8510 C   0  0  0  0  0  0  0  0  0  0  0  0
  -26.1388  -29.2561   17.0861 C   0  0  0  0  0  0  0  0  0  0  0  0
  -30.1783  -28.4737   22.5580 C   0  0  0  0  0  0  0  0  0  0  0  0
  -29.5803  -20.4172   25.0114 C   0  0  0  0  0  0  0  0  0  0  0  0
  -26.0812  -21.4093   26.0807 C   0  0  0  0  0  0  0  0  0  0  0  0
  -25.1815  -22.6322   25.9897 C   0  0  0  0  0  0  0  0  0  1  0  0
  -26.5830  -27.8783   19.1588 C   0  0  1  0  0  0  0  0  0  0  0  0
  -30.1992  -28.5690   20.0622 C   0  0  2  0  0  0  0  0  0  0  0  0
  -26.1308  -27.8274   17.6721 C   0  0  0  0  0  0  0  0  0  0  0  0
  -25.9581  -11.9418   20.4452 N   0  0  0  0  0  0  0  0  0  0  0  0
  -26.0882  -13.2607   20.2224 N   0  0  0  0  0  0  0  0  0  0  0  0
  -25.0294  -27.9921   21.0816 N   0  0  0  0  0  0  0  0  0  0  0  0
  -29.5693  -14.7899   20.5786 N   0  0  0  0  0  0  0  0  0  0  0  0
  -24.8885  -15.3031   20.2189 N   0  0  0  0  0  0  0  0  0  0  0  0
  -21.7694  -12.2646   21.4168 N   0  0  0  0  0  0  0  0  0  0  0  0
  -29.1905  -16.9295   21.4956 N   0  0  0  0  0  0  0  0  0  0  0  0
  -21.5404  -28.7975   21.7705 N   0  0  0  0  0  0  0  0  0  0  0  0
  -28.2366  -20.4911   25.5382 N   0  0  0  0  0  0  0  0  0  0  0  0
  -27.9075  -28.4557   19.3611 N   0  0  0  0  0  0  0  0  0  0  0  0
  -30.9451  -28.2348   21.3083 N   0  3  0  0  0  0  0  0  0  0  0  0
  -22.1355  -14.4875   20.9887 O   0  0  0  0  0  0  0  0  0  0  0  0
  -22.6708  -27.3849   20.3045 O   0  0  0  0  0  0  0  0  0  0  0  0
  -25.4499  -29.8713   19.7671 O   0  0  0  0  0  0  0  0  0  0  0  0
  -27.7754  -22.6778   24.9018 O   0  0  0  0  0  0  0  0  0  0  0  0
  -28.8335  -26.6066   20.4102 O   0  0  0  0  0  0  0  0  0  0  0  0
  -31.1731  -16.4444   20.3928 O   0  0  0  0  0  0  0  0  0  0  0  0
  -22.5704   -6.7844   22.0180 O   0  0  0  0  0  0  0  0  0  0  0  0
  -24.9358  -22.9385   24.6178 O   0  0  0  0  0  0  0  0  0  1  0  0
  -19.3206   -6.3949   26.4554 F   0  0  0  0  0  0  0  0  0  0  0  0
  -23.2402   -5.1252   24.1253 F   0  0  0  0  0  0  0  0  0  0  0  0
  -29.6831  -18.7992   19.2085 Cl  0  0  0  0  0  0  0  0  0  0  0  0
  -29.0836  -17.4595   24.4412 Cl  0  0  0  0  0  0  0  0  0  0  0  0
  1  2  1  0  0  0  0
  1  5  2  0  0  0  0
  2  6  2  0  0  0  0
  3  8  2  0  0  0  0
  3 16  1  0  0  0  0
  4  9  1  0  0  0  0
  4 16  2  0  0  0  0
  5 18  1  0  0  0  0
  6 20  1  0  0  0  0
  7 10  2  0  0  0  0
  7 19  1  0  0  0  0
  8 25  1  0  0  0  0
  9 25  2  0  0  0  0
 10 26  1  0  0  0  0
 11 12  2  0  0  0  0
 11 27  1  0  0  0  0
 12 28  1  0  0  0  0
 13 21  1  0  0  0  0
 13 26  2  0  0  0  0
 14 22  2  0  0  0  0
 14 23  1  0  0  0  0
 15 28  2  0  0  0  0
 15 29  1  0  0  0  0
 16 32  1  0  0  0  0
 17 32  1  0  0  0  0
 17 33  2  0  0  0  0
 17 34  1  0  0  0  0
 18 20  2  0  0  0  0
 18 40  1  0  0  0  0
 19 21  2  0  0  0  0
 19 41  1  0  0  0  0
 20 49  1  0  0  0  0
 21 42  1  0  0  0  0
 22 30  1  0  0  0  0
 22 52  1  0  0  0  0
 23 31  2  0  0  0  0
 23 58  1  0  0  0  0
 24 30  2  0  0  0  0
 24 31  1  0  0  0  0
 24 70  1  0  0  0  0
 25 81  1  0  0  0  0
 26 82  1  0  0  0  0
 27 29  2  0  0  0  0
 27 81  1  0  0  0  0
 28 83  1  0  0  0  0
 29 84  1  0  0  0  0
 30 85  1  0  0  0  0
 31 86  1  0  0  0  0
 32 64  2  0  0  0  0
 33 65  1  0  0  0  0
 33 68  1  0  0  0  0
 34 69  1  0  0  0  0
 34 75  2  0  0  0  0
 35 50  1  0  0  0  0
 35 71  1  0  0  0  0
 35 76  2  0  0  0  0
 36 61  1  0  0  0  0
 36 66  1  0  0  0  0
 36 77  2  0  0  0  0
 37 59  1  0  0  0  0
 37 72  1  0  0  0  0
 37 78  2  0  0  0  0
 38 62  1  0  0  0  0
 38 73  1  0  0  0  0
 38 79  2  0  0  0  0
 39 67  1  0  0  0  0
 39 70  1  0  0  0  0
 39 80  2  0  0  0  0
 40 43  1  0  0  0  0
 41 50  1  0  0  0  0
 42 66  1  0  0  0  0
 43 45  1  0  0  0  0
 44 46  1  0  0  0  0
 44 47  1  0  0  0  0
 45 49  1  0  0  0  0
 46 51  1  0  0  0  0
 47 67  1  0  0  0  0
 48 51  1  0  0  0  0
 48 67  1  0  0  0  0
 49 71  1  0  0  0  0
 50 66  1  0  0  0  0
 51 65  1  0  0  0  0
 53 62  1  0  0  0  0
 54 63  1  0  0  0  0
 55 63  1  0  0  0  0
 56 63  1  0  0  0  0
 57 74  1  0  0  0  0
 58 72  1  0  0  0  0
 59 60  1  0  0  0  0
 60 82  1  0  0  0  0
 61 63  1  0  0  0  0
 61 73  1  0  0  0  0
 62 74  1  0  0  0  0
 64 65  1  0  0  0  0
M  CHG  1  74   1
M  ISO  4  39 100  60 101  70 100  82 101
M  END
> <Batch ID>
0013

> <Smiles>
CNC(C)C(=O)NC(C(=O)N1Cc2cc([101O:1][101CH2:1]CC(=O)NCc3cc(C)c(Cl)c([100NH:0][100C:0](=O)N4CCCC(n5nc(-c6ccc(Oc7ccc(F)cc7F)cc6)c(C(N)=O)c5N)C4)c3Cl)ccc2CC1C(=O)NC1CCCc2ccccc21)C(C)(C)C

> <Shape>
0.289

> <Color>
0.166

> <Negative vol penalty>
0.000

$$$$

  -OEChem-04052315503D

 82 90  0     1  0  0  0  0  0999 V2000
  -28.1325  -36.8221   19.6325 C   0  0  0  0  0  0  0  0  0  0  0  0
  -28.2619  -35.5246   19.1475 C   0  0  0  0  0  0  0  0  0  0  0  0
  -24.5480   -9.2768   21.4475 C   0  0  0  0  0  0  0  0  0  0  0  0
  -22.7154  -10.6260   20.6363 C   0  0  0  0  0  0  0  0  0  0  0  0
  -27.8332  -37.0357   20.9774 C   0  0  0  0  0  0  0  0  0  0  0  0
  -28.0933  -34.4400   20.0074 C   0  0  0  0  0  0  0  0  0  0  0  0
  -25.6543  -28.9940   18.6296 C   0  0  0  0  0  0  0  0  0  0  0  0
  -23.6891   -8.1848   21.5718 C   0  0  0  0  0  0  0  0  0  0  0  0
  -21.8564   -9.5340   20.7606 C   0  0  0  0  0  0  0  0  0  0  0  0
  -26.2268  -27.7648   18.3055 C   0  0  0  0  0  0  0  0  0  0  0  0
  -21.3392   -7.0996   23.7455 C   0  0  0  0  0  0  0  0  0  0  0  0
  -21.4164   -6.3452   24.9162 C   0  0  0  0  0  0  0  0  0  0  0  0
  -26.0232  -27.0701   20.6066 C   0  0  0  0  0  0  0  0  0  0  0  0
  -26.0570  -20.6912   21.2366 C   0  0  0  0  0  0  0  0  0  0  0  0
  -26.0967  -20.8010   18.4493 C   0  0  0  0  0  0  0  0  0  0  0  0
  -21.9778   -4.3869   23.6173 C   0  0  0  0  0  0  0  0  0  0  0  0
  -24.0611  -10.4974   20.9798 C   0  0  0  0  0  0  0  0  0  0  0  0
  -25.7104  -11.9841   19.7238 C   0  0  0  0  0  0  0  0  0  0  0  0
  -27.6513  -35.9530   21.8521 C   0  0  0  0  0  0  0  0  0  0  0  0
  -25.2713  -29.2750   19.9490 C   0  0  0  0  0  0  0  0  0  0  0  0
  -27.7926  -34.6393   21.3656 C   0  0  0  0  0  0  0  0  0  0  0  0
  -25.4437  -28.3026   20.9443 C   0  0  0  0  0  0  0  0  0  0  0  0
  -25.8608  -21.9081   20.5837 C   0  0  0  0  0  0  0  0  0  0  0  0
  -26.2731  -19.5292   20.4958 C   0  0  0  0  0  0  0  0  0  0  0  0
  -22.3433   -8.3134   21.2283 C   0  0  0  0  0  0  0  0  0  0  0  0
  -26.4140  -26.8037   19.2946 C   0  0  0  0  0  0  0  0  0  0  0  0
  -21.5812   -6.4976   22.5106 C   0  0  0  0  0  0  0  0  0  0  0  0
  -25.8807  -21.9630   19.1901 C   0  0  0  0  0  0  0  0  0  0  0  0
  -21.7358   -4.9889   24.8521 C   0  0  0  0  0  0  0  0  0  0  0  0
  -21.9005   -5.1413   22.4466 C   0  0  0  0  0  0  0  0  0  0  0  0
  -26.2929  -19.5841   19.1022 C   0  0  0  0  0  0  0  0  0  0  0  0
  -24.9478  -11.6259   20.8516 C   0  0  0  0  0  0  0  0  0  0  0  0
  -26.3772  -13.1219   20.1075 C   0  0  0  0  0  0  0  0  0  0  0  0
  -25.8074  -11.3454   18.4439 C   0  0  0  0  0  0  0  0  0  0  0  0
  -26.1314  -31.4272   22.1243 C   0  0  0  0  0  0  0  0  0  0  0  0
  -23.6877  -30.1237   23.8129 C   0  0  0  0  0  0  0  0  0  0  0  0
  -21.6652  -27.4328   24.3741 C   0  0  0  0  0  0  0  0  0  0  0  0
  -26.4735  -18.1146   22.5707 C   0  0  0  0  0  0  0  0  0  0  0  0
  -27.3756  -36.2344   23.3080 C   0  0  0  0  0  0  0  0  0  0  0  0
  -24.6306  -30.5957   20.2771 C   0  0  0  0  0  0  0  0  0  0  0  0
  -25.0309  -28.5473   22.3720 C   0  0  0  0  0  0  0  0  0  0  0  0
  -26.8426  -35.0249   24.0718 C   0  0  0  0  0  0  0  0  0  0  0  0
  -26.8832  -15.2647   24.6654 C   0  0  0  0  0  0  0  0  0  0  0  0
  -27.6714  -33.7846   23.7531 C   0  0  0  0  0  0  0  0  0  0  0  0
  -26.4789  -14.0935   23.7671 C   0  0  0  0  0  0  0  0  0  0  0  0
  -26.0240  -16.5010   24.4062 C   0  0  0  0  0  0  0  0  0  0  0  0
  -25.5549  -15.7577   22.1048 C   0  0  0  0  0  0  0  0  0  0  0  0
  -27.5925  -33.4365   22.2618 C   0  0  1  0  0  0  0  0  0  0  0  0
  -24.7502  -30.9678   21.7518 C   0  0  1  0  0  0  0  0  0  0  0  0
  -26.4349  -14.5099   22.2838 C   0  0  2  0  0  0  0  0  0  0  0  0
  -25.6324  -23.1425   21.3922 C   0  0  0  0  0  0  0  0  0  0  0  0
  -19.7874  -26.6525   25.8448 C   0  0  0  0  0  0  0  0  0  0  0  0
  -25.6588  -29.7071   26.1044 C   0  0  0  0  0  0  0  0  0  0  0  0
  -24.0226  -28.1133   27.1296 C   0  0  0  0  0  0  0  0  0  0  0  0
  -23.3956  -30.5062   26.8073 C   0  0  0  0  0  0  0  0  0  0  0  0
  -19.8518  -27.0697   22.0635 C   0  0  0  0  0  0  0  0  0  0  0  0
  -26.7538  -25.1098   17.6602 C   0  0  0  0  0  0  0  0  0  1  0  0
  -26.7490  -23.5937   17.6925 C   0  0  0  0  0  0  0  0  0  0  0  0
  -23.5545  -28.9845   24.7945 C   0  0  1  0  0  0  0  0  0  0  0  0
  -20.1594  -27.3195   24.5297 C   0  0  2  0  0  0  0  0  0  0  0  0
  -24.1676  -29.3236   26.1825 C   0  0  0  0  0  0  0  0  0  0  0  0
  -25.1140  -12.4679   21.8751 N   0  0  0  0  0  0  0  0  0  0  0  0
  -25.9888  -13.3664   21.3919 N   0  0  0  0  0  0  0  0  0  0  0  0
  -24.4147  -29.8564   22.6442 N   0  0  0  0  0  0  0  0  0  0  0  0
  -26.0331  -16.8385   22.9812 N   0  0  0  0  0  0  0  0  0  0  0  0
  -27.2521  -13.9271   19.4682 N   0  0  0  0  0  0  0  0  0  0  0  0
  -25.0545  -10.1852   18.2173 N   0  0  0  0  0  0  0  0  0  0  0  0
  -26.4690  -18.3095   21.1899 N   0  0  0  0  0  0  0  0  0  0  0  0
  -26.3362  -32.7840   21.9609 N   0  0  0  0  0  0  0  0  0  0  0  0
  -22.1365  -28.6440   24.8346 N   0  0  0  0  0  0  0  0  0  0  0  0
  -19.5826  -26.5155   23.4153 N   0  3  0  0  0  0  0  0  0  0  0  0
  -26.5526  -11.7811   17.5337 O   0  0  0  0  0  0  0  0  0  0  0  0
  -26.9503  -30.6114   22.5312 O   0  0  0  0  0  0  0  0  0  0  0  0
  -23.1599  -31.2085   24.0702 O   0  0  0  0  0  0  0  0  0  0  0  0
  -22.3548  -26.5350   23.8957 O   0  0  0  0  0  0  0  0  0  0  0  0
  -26.8544  -18.9619   23.3825 O   0  0  0  0  0  0  0  0  0  0  0  0
  -21.5049   -7.2480   21.3493 O   0  0  0  0  0  0  0  0  0  0  0  0
  -26.9732  -25.6033   18.9810 O   0  0  0  0  0  0  0  0  0  1  0  0
  -25.6907  -23.1502   18.5331 O   0  0  0  0  0  0  0  0  0  0  0  0
  -21.8114   -4.2650   25.9766 F   0  0  0  0  0  0  0  0  0  0  0  0
  -22.1353   -4.5577   21.2633 F   0  0  0  0  0  0  0  0  0  0  0  0
  -26.5571  -18.1695   18.1461 Cl  0  0  0  0  0  0  0  0  0  0  0  0
  1  2  1  0  0  0  0
  1  5  2  0  0  0  0
  2  6  2  0  0  0  0
  3  8  2  0  0  0  0
  3 17  1  0  0  0  0
  4  9  1  0  0  0  0
  4 17  2  0  0  0  0
  5 19  1  0  0  0  0
  6 21  1  0  0  0  0
  7 10  2  0  0  0  0
  7 20  1  0  0  0  0
  8 25  1  0  0  0  0
  9 25  2  0  0  0  0
 10 26  1  0  0  0  0
 11 12  2  0  0  0  0
 11 27  1  0  0  0  0
 12 29  1  0  0  0  0
 13 22  1  0  0  0  0
 13 26  2  0  0  0  0
 14 23  1  0  0  0  0
 14 24  2  0  0  0  0
 15 28  1  0  0  0  0
 15 31  2  0  0  0  0
 16 29  2  0  0  0  0
 16 30  1  0  0  0  0
 17 32  1  0  0  0  0
 18 32  1  0  0  0  0
 18 33  2  0  0  0  0
 18 34  1  0  0  0  0
 19 21  2  0  0  0  0
 19 39  1  0  0  0  0
 20 22  2  0  0  0  0
 20 40  1  0  0  0  0
 21 48  1  0  0  0  0
 22 41  1  0  0  0  0
 23 28  2  0  0  0  0
 23 51  1  0  0  0  0
 24 31  1  0  0  0  0
 24 68  1  0  0  0  0
 25 77  1  0  0  0  0
 26 78  1  0  0  0  0
 27 30  2  0  0  0  0
 27 77  1  0  0  0  0
 28 79  1  0  0  0  0
 29 80  1  0  0  0  0
 30 81  1  0  0  0  0
 31 82  1  0  0  0  0
 32 62  2  0  0  0  0
 33 63  1  0  0  0  0
 33 66  1  0  0  0  0
 34 67  1  0  0  0  0
 34 72  2  0  0  0  0
 35 49  1  0  0  0  0
 35 69  1  0  0  0  0
 35 73  2  0  0  0  0
 36 59  1  0  0  0  0
 36 64  1  0  0  0  0
 36 74  2  0  0  0  0
 37 60  1  0  0  0  0
 37 70  1  0  0  0  0
 37 75  2  0  0  0  0
 38 65  1  0  0  0  0
 38 68  1  0  0  0  0
 38 76  2  0  0  0  0
 39 42  1  0  0  0  0
 40 49  1  0  0  0  0
 41 64  1  0  0  0  0
 42 44  1  0  0  0  0
 43 45  1  0  0  0  0
 43 46  1  0  0  0  0
 44 48  1  0  0  0  0
 45 50  1  0  0  0  0
 46 65  1  0  0  0  0
 47 50  1  0  0  0  0
 47 65  1  0  0  0  0
 48 69  1  0  0  0  0
 49 64  1  0  0  0  0
 50 63  1  0  0  0  0
 52 60  1  0  0  0  0
 53 61  1  0  0  0  0
 54 61  1  0  0  0  0
 55 61  1  0  0  0  0
 56 71  1  0  0  0  0
 57 58  1  0  0  0  0
 57 78  1  0  0  0  0
 58 79  1  0  0  0  0
 59 61  1  0  0  0  0
 59 70  1  0  0  0  0
 60 71  1  0  0  0  0
 62 63  1  0  0  0  0
M  CHG  1  71   1
M  ISO  4  38 100  57 101  68 100  78 101
M  END
> <Batch ID>
0013

> <Smiles>
CNC(C)C(=O)NC(C(=O)N1Cc2cc([101O:1][101CH2:1]COc3cc(Cl)c([100NH:0][100C:0](=O)N4CCCC(n5nc(-c6ccc(Oc7ccc(F)cc7F)cc6)c(C(N)=O)c5N)C4)cc3C)ccc2CC1C(=O)NC1CCCc2ccccc21)C(C)(C)C

> <Shape>
0.236

> <Color>
0.104

> <Negative vol penalty>
0.000

$$$$

  -OEChem-04052315503D

 84 92  0     1  0  0  0  0  0999 V2000
  -33.7730  -31.7849   21.0120 C   0  0  0  0  0  0  0  0  0  0  0  0
  -32.6700  -31.2573   21.6757 C   0  0  0  0  0  0  0  0  0  0  0  0
  -23.0735   -9.8695   19.9416 C   0  0  0  0  0  0  0  0  0  0  0  0
  -23.8315   -9.8778   22.2356 C   0  0  0  0  0  0  0  0  0  0  0  0
  -34.9042  -30.9963   20.8063 C   0  0  0  0  0  0  0  0  0  0  0  0
  -32.6973  -29.9404   22.1332 C   0  0  0  0  0  0  0  0  0  0  0  0
  -30.2380  -25.8282   27.4585 C   0  0  0  0  0  0  0  0  0  0  0  0
  -22.3285   -8.7172   20.1918 C   0  0  0  0  0  0  0  0  0  0  0  0
  -23.0864   -8.7254   22.4859 C   0  0  0  0  0  0  0  0  0  0  0  0
  -29.5427  -24.6379   27.6671 C   0  0  0  0  0  0  0  0  0  0  0  0
  -19.3784   -7.9241   21.6412 C   0  0  0  0  0  0  0  0  0  0  0  0
  -18.0719   -7.8785   21.1549 C   0  0  0  0  0  0  0  0  0  0  0  0
  -31.5812  -23.3942   27.3249 C   0  0  0  0  0  0  0  0  0  0  0  0
  -32.0667  -16.5769   22.5248 C   0  0  0  0  0  0  0  0  0  0  0  0
  -18.6312   -5.9339   19.8347 C   0  0  0  0  0  0  0  0  0  0  0  0
  -23.8251  -10.4498   20.9634 C   0  0  0  0  0  0  0  0  0  0  0  0
  -24.1690  -12.9746   20.8417 C   0  0  0  0  0  0  0  0  0  0  0  0
  -34.9490  -29.6720   21.2700 C   0  0  0  0  0  0  0  0  0  0  0  0
  -31.6102  -25.8098   27.1702 C   0  0  0  0  0  0  0  0  0  0  0  0
  -33.8297  -29.1329   21.9323 C   0  0  0  0  0  0  0  0  0  0  0  0
  -32.2921  -24.5858   27.1156 C   0  0  0  0  0  0  0  0  0  0  0  0
  -32.6901  -17.4453   23.4207 C   0  0  0  0  0  0  0  0  0  0  0  0
  -30.6781  -16.5891   22.3933 C   0  0  0  0  0  0  0  0  0  0  0  0
  -30.5363  -18.3383   24.0538 C   0  0  0  0  0  0  0  0  0  0  0  0
  -22.3350   -8.1451   21.4639 C   0  0  0  0  0  0  0  0  0  0  0  0
  -30.2137  -23.4205   27.5975 C   0  0  0  0  0  0  0  0  0  0  0  0
  -20.3114   -6.9746   21.2242 C   0  0  0  0  0  0  0  0  0  0  0  0
  -17.6983   -6.8834   20.2517 C   0  0  0  0  0  0  0  0  0  0  0  0
  -19.9378   -5.9795   20.3210 C   0  0  0  0  0  0  0  0  0  0  0  0
  -31.9250  -18.3260   24.1853 C   0  0  0  0  0  0  0  0  0  0  0  0
  -29.9129  -17.4698   23.1579 C   0  0  0  0  0  0  0  0  0  0  0  0
  -24.5953  -11.6399   20.7054 C   0  0  0  0  0  0  0  0  0  0  0  0
  -25.2620  -13.7229   20.4788 C   0  0  0  0  0  0  0  0  0  0  0  0
  -22.8985  -13.4917   21.2591 C   0  0  0  0  0  0  0  0  0  0  0  0
  -33.3983  -26.7353   24.7105 C   0  0  0  0  0  0  0  0  0  0  0  0
  -35.8423  -25.9439   26.6911 C   0  0  0  0  0  0  0  0  0  0  0  0
  -36.9322  -24.1223   29.3634 C   0  0  0  0  0  0  0  0  0  0  0  0
  -30.7289  -14.7644   20.6572 C   0  0  0  0  0  0  0  0  0  0  0  0
  -36.1759  -28.8433   20.9824 C   0  0  0  0  0  0  0  0  0  0  0  0
  -32.3512  -27.1040   26.9741 C   0  0  0  0  0  0  0  0  0  0  0  0
  -33.7690  -24.5129   26.8294 C   0  0  0  0  0  0  0  0  0  0  0  0
  -36.2669  -27.5760   21.8285 C   0  0  0  0  0  0  0  0  0  0  0  0
  -29.6146  -12.3495   18.2899 C   0  0  0  0  0  0  0  0  0  0  0  0
  -34.9278  -26.8456   21.8417 C   0  0  0  0  0  0  0  0  0  0  0  0
  -28.1743  -12.0594   18.7185 C   0  0  0  0  0  0  0  0  0  0  0  0
  -30.5288  -12.5786   19.4922 C   0  0  0  0  0  0  0  0  0  0  0  0
  -28.6213  -13.3056   20.8713 C   0  0  0  0  0  0  0  0  0  0  0  0
  -33.8305  -27.7165   22.4653 C   0  0  1  0  0  0  0  0  0  0  0  0
  -33.6427  -26.9385   26.1791 C   0  0  1  0  0  0  0  0  0  0  0  0
  -27.6493  -13.1322   19.6928 C   0  0  2  0  0  0  0  0  0  0  0  0
  -34.1808  -17.3964   23.5268 C   0  0  0  0  0  0  0  0  0  0  0  0
  -38.9897  -23.6565   30.7225 C   0  0  0  0  0  0  0  0  0  0  0  0
  -36.9162  -24.1699   24.4529 C   0  0  0  0  0  0  0  0  0  0  0  0
  -38.3723  -23.0361   26.1448 C   0  0  0  0  0  0  0  0  0  0  0  0
  -38.6631  -25.4702   25.6826 C   0  0  0  0  0  0  0  0  0  0  0  0
  -35.6752  -25.1578   31.8346 C   0  0  0  0  0  0  0  0  0  0  0  0
  -28.8442  -20.1597   26.8623 C   0  0  0  0  0  0  0  0  0  0  0  0
  -29.2480  -18.8931   26.1173 C   0  0  0  0  0  0  0  0  0  0  0  0
  -30.0167  -21.0997   27.1168 C   0  0  0  0  0  0  0  0  0  1  0  0
  -36.6309  -24.6864   26.9664 C   0  0  1  0  0  0  0  0  0  0  0  0
  -37.7410  -24.5140   30.5869 C   0  0  2  0  0  0  0  0  0  0  0  0
  -37.6174  -24.3416   25.8152 C   0  0  0  0  0  0  0  0  0  0  0  0
  -25.8604  -11.5427   20.2883 N   0  0  0  0  0  0  0  0  0  0  0  0
  -26.2384  -12.8259   20.1592 N   0  0  0  0  0  0  0  0  0  0  0  0
  -34.4481  -25.8051   26.6387 N   0  0  0  0  0  0  0  0  0  0  0  0
  -29.9699  -13.6105   20.3683 N   0  0  0  0  0  0  0  0  0  0  0  0
  -25.4735  -15.0542   20.4049 N   0  0  0  0  0  0  0  0  0  0  0  0
  -21.8856  -12.5836   21.5963 N   0  0  0  0  0  0  0  0  0  0  0  0
  -30.0816  -15.6906   21.4744 N   0  0  0  0  0  0  0  0  0  0  0  0
  -29.7765  -19.2140   24.8135 N   0  0  0  0  0  0  0  0  0  0  0  0
  -33.9453  -27.7182   23.9079 N   0  0  0  0  0  0  0  0  0  0  0  0
  -37.2705  -24.8813   28.2631 N   0  0  0  0  0  0  0  0  0  0  0  0
  -36.9231  -24.3519   31.8221 N   0  3  0  0  0  0  0  0  0  0  0  0
  -22.6632  -14.7226   21.3153 O   0  0  0  0  0  0  0  0  0  0  0  0
  -32.7618  -25.7584   24.3335 O   0  0  0  0  0  0  0  0  0  0  0  0
  -36.4408  -27.0112   26.5357 O   0  0  0  0  0  0  0  0  0  0  0  0
  -36.0875  -23.2297   29.3810 O   0  0  0  0  0  0  0  0  0  0  0  0
  -31.8585  -14.9318   20.1904 O   0  0  0  0  0  0  0  0  0  0  0  0
  -21.6079   -7.0208   21.7086 O   0  0  0  0  0  0  0  0  0  0  0  0
  -29.5373  -22.2572   27.8000 O   0  0  0  0  0  0  0  0  0  1  0  0
  -16.4432   -6.8388   19.7859 F   0  0  0  0  0  0  0  0  0  0  0  0
  -20.8293   -5.0640   19.9177 F   0  0  0  0  0  0  0  0  0  0  0  0
  -32.7110  -19.4023   25.2955 Cl  0  0  0  0  0  0  0  0  0  0  0  0
  -28.1845  -17.4803   22.9900 Cl  0  0  0  0  0  0  0  0  0  0  0  0
  1  2  1  0  0  0  0
  1  5  2  0  0  0  0
  2  6  2  0  0  0  0
  3  8  2  0  0  0  0
  3 16  1  0  0  0  0
  4  9  1  0  0  0  0
  4 16  2  0  0  0  0
  5 18  1  0  0  0  0
  6 20  1  0  0  0  0
  7 10  2  0  0  0  0
  7 19  1  0  0  0  0
  8 25  1  0  0  0  0
  9 25  2  0  0  0  0
 10 26  1  0  0  0  0
 11 12  2  0  0  0  0
 11 27  1  0  0  0  0
 12 28  1  0  0  0  0
 13 21  1  0  0  0  0
 13 26  2  0  0  0  0
 14 22  1  0  0  0  0
 14 23  2  0  0  0  0
 15 28  2  0  0  0  0
 15 29  1  0  0  0  0
 16 32  1  0  0  0  0
 17 32  1  0  0  0  0
 17 33  2  0  0  0  0
 17 34  1  0  0  0  0
 18 20  2  0  0  0  0
 18 39  1  0  0  0  0
 19 21  2  0  0  0  0
 19 40  1  0  0  0  0
 20 48  1  0  0  0  0
 21 41  1  0  0  0  0
 22 30  2  0  0  0  0
 22 51  1  0  0  0  0
 23 31  1  0  0  0  0
 23 69  1  0  0  0  0
 24 30  1  0  0  0  0
 24 31  2  0  0  0  0
 24 70  1  0  0  0  0
 25 79  1  0  0  0  0
 26 80  1  0  0  0  0
 27 29  2  0  0  0  0
 27 79  1  0  0  0  0
 28 81  1  0  0  0  0
 29 82  1  0  0  0  0
 30 83  1  0  0  0  0
 31 84  1  0  0  0  0
 32 63  2  0  0  0  0
 33 64  1  0  0  0  0
 33 67  1  0  0  0  0
 34 68  1  0  0  0  0
 34 74  2  0  0  0  0
 35 49  1  0  0  0  0
 35 71  1  0  0  0  0
 35 75  2  0  0  0  0
 36 60  1  0  0  0  0
 36 65  1  0  0  0  0
 36 76  2  0  0  0  0
 37 61  1  0  0  0  0
 37 72  1  0  0  0  0
 37 77  2  0  0  0  0
 38 66  1  0  0  0  0
 38 69  1  0  0  0  0
 38 78  2  0  0  0  0
 39 42  1  0  0  0  0
 40 49  1  0  0  0  0
 41 65  1  0  0  0  0
 42 44  1  0  0  0  0
 43 45  1  0  0  0  0
 43 46  1  0  0  0  0
 44 48  1  0  0  0  0
 45 50  1  0  0  0  0
 46 66  1  0  0  0  0
 47 50  1  0  0  0  0
 47 66  1  0  0  0  0
 48 71  1  0  0  0  0
 49 65  1  0  0  0  0
 50 64  1  0  0  0  0
 52 61  1  0  0  0  0
 53 62  1  0  0  0  0
 54 62  1  0  0  0  0
 55 62  1  0  0  0  0
 56 73  1  0  0  0  0
 57 58  1  0  0  0  0
 57 59  1  0  0  0  0
 58 70  1  0  0  0  0
 59 80  1  0  0  0  0
 60 62  1  0  0  0  0
 60 72  1  0  0  0  0
 61 73  1  0  0  0  0
 63 64  1  0  0  0  0
M  CHG  1  73   1
M  ISO  4  38 100  59 101  69 100  80 101
M  END
> <Batch ID>
0013

> <Smiles>
CNC(C)C(=O)NC(C(=O)N1Cc2cc([101O:1][101CH2:1]CCNc3c(Cl)c(C)cc([100NH:0][100C:0](=O)N4CCCC(n5nc(-c6ccc(Oc7ccc(F)cc7F)cc6)c(C(N)=O)c5N)C4)c3Cl)ccc2CC1C(=O)NC1CCCc2ccccc21)C(C)(C)C

> <Shape>
0.148

> <Color>
0.196

> <Negative vol penalty>
0.000

$$$$

  -OEChem-04052315503D

 88 97  0     1  0  0  0  0  0999 V2000
  -27.9683  -37.9455   24.1812 C   0  0  0  0  0  0  0  0  0  0  0  0
  -28.5467  -36.7572   24.6158 C   0  0  0  0  0  0  0  0  0  0  0  0
  -22.8987  -10.0779   20.0471 C   0  0  0  0  0  0  0  0  0  0  0  0
  -24.3534   -9.5936   21.9143 C   0  0  0  0  0  0  0  0  0  0  0  0
  -26.5817  -38.0467   24.0756 C   0  0  0  0  0  0  0  0  0  0  0  0
  -27.7388  -35.6697   24.9461 C   0  0  0  0  0  0  0  0  0  0  0  0
  -28.4574  -29.3524   21.5600 C   0  0  0  0  0  0  0  0  0  0  0  0
  -21.9059   -9.2783   20.6132 C   0  0  0  0  0  0  0  0  0  0  0  0
  -23.3606   -8.7940   22.4804 C   0  0  0  0  0  0  0  0  0  0  0  0
  -28.6756  -28.0517   21.1052 C   0  0  0  0  0  0  0  0  0  0  0  0
  -22.1286   -5.6747   22.0526 C   0  0  0  0  0  0  0  0  0  0  0  0
  -22.5087   -4.4335   22.5630 C   0  0  0  0  0  0  0  0  0  0  0  0
  -26.8030  -27.2668   22.4187 C   0  0  0  0  0  0  0  0  0  0  0  0
  -23.9855  -21.0953   19.2377 C   0  0  0  0  0  0  0  0  0  0  0  0
  -25.7454  -19.9228   20.4060 C   0  0  0  0  0  0  0  0  0  0  0  0
  -21.7227   -5.0924   24.7505 C   0  0  0  0  0  0  0  0  0  0  0  0
  -24.1226  -10.2355   20.6976 C   0  0  0  0  0  0  0  0  0  0  0  0
  -25.7679  -10.8880   18.8606 C   0  0  0  0  0  0  0  0  0  0  0  0
  -25.7569  -36.9568   24.3955 C   0  0  0  0  0  0  0  0  0  0  0  0
  -27.4003  -29.6181   22.4348 C   0  0  0  0  0  0  0  0  0  0  0  0
  -26.3398  -35.7569   24.8459 C   0  0  0  0  0  0  0  0  0  0  0  0
  -26.5718  -28.5698   22.8678 C   0  0  0  0  0  0  0  0  0  0  0  0
  -23.3732  -19.8783   18.9385 C   0  0  0  0  0  0  0  0  0  0  0  0
  -25.1716  -21.1176   19.9714 C   0  0  0  0  0  0  0  0  0  0  0  0
  -25.1331  -18.7057   20.1068 C   0  0  0  0  0  0  0  0  0  0  0  0
  -22.1367   -8.6364   21.8299 C   0  0  0  0  0  0  0  0  0  0  0  0
  -27.8506  -27.0115   21.5337 C   0  0  0  0  0  0  0  0  0  0  0  0
  -21.5456   -6.6248   22.8911 C   0  0  0  0  0  0  0  0  0  0  0  0
  -22.3058   -4.1423   23.9119 C   0  0  0  0  0  0  0  0  0  0  0  0
  -21.3427   -6.3336   24.2401 C   0  0  0  0  0  0  0  0  0  0  0  0
  -23.9470  -18.6835   19.3731 C   0  0  0  0  0  0  0  0  0  0  0  0
  -25.1488  -11.0608   20.1130 C   0  0  0  0  0  0  0  0  0  0  0  0
  -26.6640  -11.9253   18.7745 C   0  0  0  0  0  0  0  0  0  0  0  0
  -25.5523   -9.8800   17.8641 C   0  0  0  0  0  0  0  0  0  0  0  0
  -25.5117  -32.1812   24.4197 C   0  0  0  0  0  0  0  0  0  0  0  0
  -23.4303  -30.2802   23.2097 C   0  0  0  0  0  0  0  0  0  0  0  0
  -21.4436  -28.2195   21.3540 C   0  0  0  0  0  0  0  0  0  0  0  0
  -26.8920  -17.3420   21.2871 C   0  0  0  0  0  0  0  0  0  0  0  0
  -24.2609  -37.1291   24.3107 C   0  0  0  0  0  0  0  0  0  0  0  0
  -27.1657  -30.9933   22.9985 C   0  0  0  0  0  0  0  0  0  0  0  0
  -25.4683  -28.8966   23.8364 C   0  0  0  0  0  0  0  0  0  0  0  0
  -23.4942  -35.8091   24.3219 C   0  0  0  0  0  0  0  0  0  0  0  0
  -29.3580  -14.7838   21.5142 C   0  0  0  0  0  0  0  0  0  0  0  0
  -24.0226  -34.8941   25.4221 C   0  0  0  0  0  0  0  0  0  0  0  0
  -28.6165  -13.5241   21.0609 C   0  0  0  0  0  0  0  0  0  0  0  0
  -26.7669  -24.4720   19.5229 C   0  0  0  0  0  0  0  0  0  0  0  0
  -27.1220  -23.6673   21.8624 C   0  0  0  0  0  0  0  0  0  0  0  0
  -28.4554  -15.7126   22.3244 C   0  0  0  0  0  0  0  0  0  0  0  0
  -25.6305  -23.4684   19.3475 C   0  0  0  0  0  0  0  0  0  0  0  0
  -25.9832  -22.6667   21.6914 C   0  0  0  0  0  0  0  0  0  0  0  0
  -26.4465  -14.8097   21.2207 C   0  0  0  0  0  0  0  0  0  0  0  0
  -25.4981  -34.5472   25.1897 C   0  0  1  0  0  0  0  0  0  0  0  0
  -25.6747  -31.3141   23.2060 C   0  0  1  0  0  0  0  0  0  0  0  0
  -27.2965  -13.8738   20.3460 C   0  0  2  0  0  0  0  0  0  0  0  0
  -26.9316  -24.8937   20.9774 C   0  0  0  0  0  0  0  0  0  1  0  0
  -19.0325  -27.7066   20.8837 C   0  0  0  0  0  0  0  0  0  0  0  0
  -23.2172  -28.8414   25.8909 C   0  0  0  0  0  0  0  0  0  0  0  0
  -21.2436  -27.5954   24.9850 C   0  0  0  0  0  0  0  0  0  0  0  0
  -21.1553  -30.0788   25.2038 C   0  0  0  0  0  0  0  0  0  0  0  0
  -21.7398  -28.8905   18.4868 C   0  0  0  0  0  0  0  0  0  0  0  0
  -22.5873  -29.0440   23.3952 C   0  0  1  0  0  0  0  0  0  0  0  0
  -20.2532  -28.5071   20.4570 C   0  0  2  0  0  0  0  0  0  0  0  0
  -22.1045  -19.8580   18.1546 C   0  0  0  0  0  0  0  0  0  0  0  0
  -22.0760  -28.8889   24.8554 C   0  0  0  0  0  0  0  0  0  0  0  0
  -25.6125  -12.1242   20.7751 N   0  0  0  0  0  0  0  0  0  0  0  0
  -26.5325  -12.6288   19.9355 N   0  0  0  0  0  0  0  0  0  0  0  0
  -25.7863  -22.3398   20.2721 N   0  0  0  0  0  0  0  0  0  0  0  0
  -24.8053  -30.1484   23.4388 N   0  0  0  0  0  0  0  0  0  0  0  0
  -27.2265  -16.0035   21.5828 N   0  0  0  0  0  0  0  0  0  0  0  0
  -27.5438  -12.2952   17.8197 N   0  0  0  0  0  0  0  0  0  0  0  0
  -24.5939   -8.8881   18.1135 N   0  0  0  0  0  0  0  0  0  0  0  0
  -25.7183  -17.4935   20.5495 N   0  0  0  0  0  0  0  0  0  0  0  0
  -25.6237  -33.5345   24.1635 N   0  0  0  0  0  0  0  0  0  0  0  0
  -21.5272  -29.1190   22.3957 N   0  0  0  0  0  0  0  0  0  0  0  0
  -20.5732  -28.1585   19.0438 N   0  3  0  0  0  0  0  0  0  0  0  0
  -26.2021   -9.8499   16.7916 O   0  0  0  0  0  0  0  0  0  0  0  0
  -25.2985  -31.6619   25.5090 O   0  0  0  0  0  0  0  0  0  0  0  0
  -22.8863  -31.3367   22.8764 O   0  0  0  0  0  0  0  0  0  0  0  0
  -22.2194  -27.2877   21.1530 O   0  0  0  0  0  0  0  0  0  0  0  0
  -27.6093  -18.2827   21.6372 O   0  0  0  0  0  0  0  0  0  0  0  0
  -21.1680   -7.8563   22.3827 O   0  0  0  0  0  0  0  0  0  0  0  0
  -28.0665  -25.7449   21.0823 O   0  0  0  0  0  0  0  0  0  1  0  0
  -22.6695   -2.9498   24.4016 F   0  0  0  0  0  0  0  0  0  0  0  0
  -20.7820   -7.2419   25.0503 F   0  0  0  0  0  0  0  0  0  0  0  0
  -23.3567  -17.5137   19.0847 F   0  0  0  0  0  0  0  0  0  0  0  0
  -21.6610  -21.1000   17.7987 F   0  0  0  0  0  0  0  0  0  0  0  0
  -22.1975  -19.1637   16.9820 F   0  0  0  0  0  0  0  0  0  0  0  0
  -21.0732  -19.2835   18.8396 F   0  0  0  0  0  0  0  0  0  0  0  0
  1  2  1  0  0  0  0
  1  5  2  0  0  0  0
  2  6  2  0  0  0  0
  3  8  2  0  0  0  0
  3 17  1  0  0  0  0
  4  9  1  0  0  0  0
  4 17  2  0  0  0  0
  5 19  1  0  0  0  0
  6 21  1  0  0  0  0
  7 10  2  0  0  0  0
  7 20  1  0  0  0  0
  8 26  1  0  0  0  0
  9 26  2  0  0  0  0
 10 27  1  0  0  0  0
 11 12  2  0  0  0  0
 11 28  1  0  0  0  0
 12 29  1  0  0  0  0
 13 22  1  0  0  0  0
 13 27  2  0  0  0  0
 14 23  1  0  0  0  0
 14 24  2  0  0  0  0
 15 24  1  0  0  0  0
 15 25  2  0  0  0  0
 16 29  2  0  0  0  0
 16 30  1  0  0  0  0
 17 32  1  0  0  0  0
 18 32  1  0  0  0  0
 18 33  2  0  0  0  0
 18 34  1  0  0  0  0
 19 21  2  0  0  0  0
 19 39  1  0  0  0  0
 20 22  2  0  0  0  0
 20 40  1  0  0  0  0
 21 52  1  0  0  0  0
 22 41  1  0  0  0  0
 23 31  2  0  0  0  0
 23 63  1  0  0  0  0
 24 67  1  0  0  0  0
 25 31  1  0  0  0  0
 25 72  1  0  0  0  0
 26 81  1  0  0  0  0
 27 82  1  0  0  0  0
 28 30  2  0  0  0  0
 28 81  1  0  0  0  0
 29 83  1  0  0  0  0
 30 84  1  0  0  0  0
 31 85  1  0  0  0  0
 32 65  2  0  0  0  0
 33 66  1  0  0  0  0
 33 70  1  0  0  0  0
 34 71  1  0  0  0  0
 34 76  2  0  0  0  0
 35 53  1  0  0  0  0
 35 73  1  0  0  0  0
 35 77  2  0  0  0  0
 36 61  1  0  0  0  0
 36 68  1  0  0  0  0
 36 78  2  0  0  0  0
 37 62  1  0  0  0  0
 37 74  1  0  0  0  0
 37 79  2  0  0  0  0
 38 69  1  0  0  0  0
 38 72  1  0  0  0  0
 38 80  2  0  0  0  0
 39 42  1  0  0  0  0
 40 53  1  0  0  0  0
 41 68  1  0  0  0  0
 42 44  1  0  0  0  0
 43 45  1  0  0  0  0
 43 48  1  0  0  0  0
 44 52  1  0  0  0  0
 45 54  1  0  0  0  0
 46 49  1  0  0  0  0
 46 55  1  0  0  0  0
 47 50  1  0  0  0  0
 47 55  1  0  0  0  0
 48 69  1  0  0  0  0
 49 67  1  0  0  0  0
 50 67  1  0  0  0  0
 51 54  1  0  0  0  0
 51 69  1  0  0  0  0
 52 73  1  0  0  0  0
 53 68  1  0  0  0  0
 54 66  1  0  0  0  0
 55 82  1  0  0  0  0
 56 62  1  0  0  0  0
 57 64  1  0  0  0  0
 58 64  1  0  0  0  0
 59 64  1  0  0  0  0
 60 75  1  0  0  0  0
 61 64  1  0  0  0  0
 61 74  1  0  0  0  0
 62 75  1  0  0  0  0
 63 86  1  0  0  0  0
 63 87  1  0  0  0  0
 63 88  1  0  0  0  0
 65 66  1  0  0  0  0
M  CHG  1  75   1
M  ISO  4  38 100  55 101  72 100  82 101
M  END
> <Batch ID>
0013

> <Smiles>
CNC(C)C(=O)NC(C(=O)N1Cc2cc([101O:1][101CH:1]3CCN(c4cc([100NH:0][100C:0](=O)N5CCCC(n6nc(-c7ccc(Oc8ccc(F)cc8F)cc7)c(C(N)=O)c6N)C5)c(F)c(C(F)(F)F)c4)CC3)ccc2CC1C(=O)NC1CCCc2ccccc21)C(C)(C)C

> <Shape>
0.281

> <Color>
0.096

> <Negative vol penalty>
0.000

$$$$

  -OEChem-04052315503D

 84 92  0     1  0  0  0  0  0999 V2000
  -23.3516  -31.4692   13.6206 C   0  0  0  0  0  0  0  0  0  0  0  0
  -24.0545  -30.3321   14.0060 C   0  0  0  0  0  0  0  0  0  0  0  0
  -23.1280   -9.6781   20.1840 C   0  0  0  0  0  0  0  0  0  0  0  0
  -23.7074  -10.1001   22.4912 C   0  0  0  0  0  0  0  0  0  0  0  0
  -23.5226  -32.6633   14.3198 C   0  0  0  0  0  0  0  0  0  0  0  0
  -24.9296  -30.3889   15.0901 C   0  0  0  0  0  0  0  0  0  0  0  0
  -26.0644  -25.9392   19.1421 C   0  0  0  0  0  0  0  0  0  0  0  0
  -22.3905   -8.5602   20.5736 C   0  0  0  0  0  0  0  0  0  0  0  0
  -22.9698   -8.9822   22.8809 C   0  0  0  0  0  0  0  0  0  0  0  0
  -27.0930  -25.0037   19.2444 C   0  0  0  0  0  0  0  0  0  0  0  0
  -23.3704   -5.6253   22.9261 C   0  0  0  0  0  0  0  0  0  0  0  0
  -23.9490   -4.7581   23.8527 C   0  0  0  0  0  0  0  0  0  0  0  0
  -28.2503  -26.4536   20.7863 C   0  0  0  0  0  0  0  0  0  0  0  0
  -31.1907  -19.8219   22.0021 C   0  0  0  0  0  0  0  0  0  0  0  0
  -22.1171   -5.1626   25.3751 C   0  0  0  0  0  0  0  0  0  0  0  0
  -23.7865  -10.4481   21.1427 C   0  0  0  0  0  0  0  0  0  0  0  0
  -24.0853  -12.9261   20.6154 C   0  0  0  0  0  0  0  0  0  0  0  0
  -24.3929  -32.7322   15.4190 C   0  0  0  0  0  0  0  0  0  0  0  0
  -26.1263  -27.1458   19.8539 C   0  0  0  0  0  0  0  0  0  0  0  0
  -25.1134  -31.5854   15.8038 C   0  0  0  0  0  0  0  0  0  0  0  0
  -27.2199  -27.4017   20.6933 C   0  0  0  0  0  0  0  0  0  0  0  0
  -31.8486  -18.7329   22.5739 C   0  0  0  0  0  0  0  0  0  0  0  0
  -30.0953  -19.6135   21.1641 C   0  0  0  0  0  0  0  0  0  0  0  0
  -30.3156  -17.2270   21.4695 C   0  0  0  0  0  0  0  0  0  0  0  0
  -22.3114   -8.2122   21.9221 C   0  0  0  0  0  0  0  0  0  0  0  0
  -28.1876  -25.2620   20.0643 C   0  0  0  0  0  0  0  0  0  0  0  0
  -22.1652   -6.2613   23.2240 C   0  0  0  0  0  0  0  0  0  0  0  0
  -23.3224   -4.5266   25.0772 C   0  0  0  0  0  0  0  0  0  0  0  0
  -21.5386   -6.0299   24.4485 C   0  0  0  0  0  0  0  0  0  0  0  0
  -31.4110  -17.4355   22.3076 C   0  0  0  0  0  0  0  0  0  0  0  0
  -29.6577  -18.3161   20.8978 C   0  0  0  0  0  0  0  0  0  0  0  0
  -24.5489  -11.6027   20.7408 C   0  0  0  0  0  0  0  0  0  0  0  0
  -25.1870  -13.6388   20.2092 C   0  0  0  0  0  0  0  0  0  0  0  0
  -22.7760  -13.4630   20.8455 C   0  0  0  0  0  0  0  0  0  0  0  0
  -26.2237  -30.2203   19.0529 C   0  0  0  0  0  0  0  0  0  0  0  0
  -25.9720  -30.6616   22.2567 C   0  0  0  0  0  0  0  0  0  0  0  0
  -29.7868  -22.0818   20.7818 C   0  0  0  0  0  0  0  0  0  0  0  0
  -26.4373  -29.4130   25.3986 C   0  0  0  0  0  0  0  0  0  0  0  0
  -30.6008  -14.8800   20.5998 C   0  0  0  0  0  0  0  0  0  0  0  0
  -24.5806  -34.0573   16.1144 C   0  0  0  0  0  0  0  0  0  0  0  0
  -24.9958  -28.1328   19.7535 C   0  0  0  0  0  0  0  0  0  0  0  0
  -27.3245  -28.6729   21.4942 C   0  0  0  0  0  0  0  0  0  0  0  0
  -25.2437  -33.9379   17.4841 C   0  0  0  0  0  0  0  0  0  0  0  0
  -29.7226  -12.0630   18.6072 C   0  0  0  0  0  0  0  0  0  0  0  0
  -26.4587  -33.0185   17.4107 C   0  0  0  0  0  0  0  0  0  0  0  0
  -28.2602  -11.8010   18.9743 C   0  0  0  0  0  0  0  0  0  0  0  0
  -30.5369  -12.5231   19.8150 C   0  0  0  0  0  0  0  0  0  0  0  0
  -28.5143  -13.4080   20.9082 C   0  0  0  0  0  0  0  0  0  0  0  0
  -26.0531  -31.6008   16.9899 C   0  0  1  0  0  0  0  0  0  0  0  0
  -25.4085  -29.5538   20.1248 C   0  0  1  0  0  0  0  0  0  0  0  0
  -27.6395  -13.0048   19.7100 C   0  0  2  0  0  0  0  0  0  0  0  0
  -33.0190  -19.0058   23.4632 C   0  0  0  0  0  0  0  0  0  0  0  0
  -26.1735  -30.0211   27.8190 C   0  0  0  0  0  0  0  0  0  0  0  0
  -28.4604  -32.4189   22.0839 C   0  0  0  0  0  0  0  0  0  0  0  0
  -28.6949  -32.2106   24.5678 C   0  0  0  0  0  0  0  0  0  0  0  0
  -26.6690  -33.2927   23.5944 C   0  0  0  0  0  0  0  0  0  0  0  0
  -24.5298  -27.1991   25.8668 C   0  0  0  0  0  0  0  0  0  0  0  0
  -28.8443  -22.9772   19.9992 C   0  0  0  0  0  0  0  0  0  1  0  0
  -26.9513  -30.7879   23.3986 C   0  0  1  0  0  0  0  0  0  0  0  0
  -25.5232  -29.3670   26.6098 C   0  0  2  0  0  0  0  0  0  0  0  0
  -27.6931  -32.1544   23.3947 C   0  0  0  0  0  0  0  0  0  0  0  0
  -25.8441  -11.4793   20.4386 N   0  0  0  0  0  0  0  0  0  0  0  0
  -26.2037  -12.7342   20.1192 N   0  0  0  0  0  0  0  0  0  0  0  0
  -26.1969  -29.6095   21.3575 N   0  0  0  0  0  0  0  0  0  0  0  0
  -29.8908  -13.6689   20.4588 N   0  0  0  0  0  0  0  0  0  0  0  0
  -25.3754  -14.9447   19.9238 N   0  0  0  0  0  0  0  0  0  0  0  0
  -21.7596  -12.5913   21.2594 N   0  0  0  0  0  0  0  0  0  0  0  0
  -29.4549  -20.7433   20.6021 N   0  0  0  0  0  0  0  0  0  0  0  0
  -29.8733  -15.9087   21.1974 N   0  0  0  0  0  0  0  0  0  0  0  0
  -25.4702  -30.8892   18.1072 N   0  0  0  0  0  0  0  0  0  0  0  0
  -26.1940  -30.5227   24.6170 N   0  0  0  0  0  0  0  0  0  0  0  0
  -25.1958  -27.9555   26.9582 N   0  3  0  0  0  0  0  0  0  0  0  0
  -22.5111  -14.6769   20.6729 O   0  0  0  0  0  0  0  0  0  0  0  0
  -27.4458  -30.1352   19.0825 O   0  0  0  0  0  0  0  0  0  0  0  0
  -25.0377  -31.4623   22.1698 O   0  0  0  0  0  0  0  0  0  0  0  0
  -30.6973  -22.5450   21.4610 O   0  0  0  0  0  0  0  0  0  0  0  0
  -27.2849  -28.5528   25.1708 O   0  0  0  0  0  0  0  0  0  0  0  0
  -31.7591  -15.0042   20.1937 O   0  0  0  0  0  0  0  0  0  0  0  0
  -21.5916   -7.1215   22.3027 O   0  0  0  0  0  0  0  0  0  0  0  0
  -29.1933  -24.3509   20.1654 O   0  0  0  0  0  0  0  0  0  1  0  0
  -23.8773   -3.6925   25.9663 F   0  0  0  0  0  0  0  0  0  0  0  0
  -20.3800   -6.6371   24.7399 F   0  0  0  0  0  0  0  0  0  0  0  0
  -32.2392  -16.0894   23.0228 Cl  0  0  0  0  0  0  0  0  0  0  0  0
  -28.2935  -18.0635   19.8529 Cl  0  0  0  0  0  0  0  0  0  0  0  0
  1  2  1  0  0  0  0
  1  5  2  0  0  0  0
  2  6  2  0  0  0  0
  3  8  2  0  0  0  0
  3 16  1  0  0  0  0
  4  9  1  0  0  0  0
  4 16  2  0  0  0  0
  5 18  1  0  0  0  0
  6 20  1  0  0  0  0
  7 10  2  0  0  0  0
  7 19  1  0  0  0  0
  8 25  1  0  0  0  0
  9 25  2  0  0  0  0
 10 26  1  0  0  0  0
 11 12  2  0  0  0  0
 11 27  1  0  0  0  0
 12 28  1  0  0  0  0
 13 21  1  0  0  0  0
 13 26  2  0  0  0  0
 14 22  2  0  0  0  0
 14 23  1  0  0  0  0
 15 28  2  0  0  0  0
 15 29  1  0  0  0  0
 16 32  1  0  0  0  0
 17 32  1  0  0  0  0
 17 33  2  0  0  0  0
 17 34  1  0  0  0  0
 18 20  2  0  0  0  0
 18 40  1  0  0  0  0
 19 21  2  0  0  0  0
 19 41  1  0  0  0  0
 20 49  1  0  0  0  0
 21 42  1  0  0  0  0
 22 30  1  0  0  0  0
 22 52  1  0  0  0  0
 23 31  2  0  0  0  0
 23 68  1  0  0  0  0
 24 30  2  0  0  0  0
 24 31  1  0  0  0  0
 24 69  1  0  0  0  0
 25 79  1  0  0  0  0
 26 80  1  0  0  0  0
 27 29  2  0  0  0  0
 27 79  1  0  0  0  0
 28 81  1  0  0  0  0
 29 82  1  0  0  0  0
 30 83  1  0  0  0  0
 31 84  1  0  0  0  0
 32 62  2  0  0  0  0
 33 63  1  0  0  0  0
 33 66  1  0  0  0  0
 34 67  1  0  0  0  0
 34 73  2  0  0  0  0
 35 50  1  0  0  0  0
 35 70  1  0  0  0  0
 35 74  2  0  0  0  0
 36 59  1  0  0  0  0
 36 64  1  0  0  0  0
 36 75  2  0  0  0  0
 37 58  1  0  0  0  0
 37 68  1  0  0  0  0
 37 76  2  0  0  0  0
 38 60  1  0  0  0  0
 38 71  1  0  0  0  0
 38 77  2  0  0  0  0
 39 65  1  0  0  0  0
 39 69  1  0  0  0  0
 39 78  2  0  0  0  0
 40 43  1  0  0  0  0
 41 50  1  0  0  0  0
 42 64  1  0  0  0  0
 43 45  1  0  0  0  0
 44 46  1  0  0  0  0
 44 47  1  0  0  0  0
 45 49  1  0  0  0  0
 46 51  1  0  0  0  0
 47 65  1  0  0  0  0
 48 51  1  0  0  0  0
 48 65  1  0  0  0  0
 49 70  1  0  0  0  0
 50 64  1  0  0  0  0
 51 63  1  0  0  0  0
 53 60  1  0  0  0  0
 54 61  1  0  0  0  0
 55 61  1  0  0  0  0
 56 61  1  0  0  0  0
 57 72  1  0  0  0  0
 58 80  1  0  0  0  0
 59 61  1  0  0  0  0
 59 71  1  0  0  0  0
 60 72  1  0  0  0  0
 62 63  1  0  0  0  0
M  CHG  1  72   1
M  ISO  4  39 100  58 101  69 100  80 101
M  END
> <Batch ID>
0013

> <Smiles>
CNC(C)C(=O)NC(C(=O)N1Cc2cc([101O:1][101CH2:1]C(=O)Nc3cc(C)c(Cl)c([100NH:0][100C:0](=O)N4CCCC(n5nc(-c6ccc(Oc7ccc(F)cc7F)cc6)c(C(N)=O)c5N)C4)c3Cl)ccc2CC1C(=O)NC1CCCc2ccccc21)C(C)(C)C

> <Shape>
0.335

> <Color>
0.193

> <Negative vol penalty>
0.000

$$$$

  -OEChem-04052315503D

 84 92  0     1  0  0  0  0  0999 V2000
  -32.1064  -14.8535   18.8944 C   0  0  0  0  0  0  0  0  0  0  0  0
  -31.1218  -15.8058   18.6512 C   0  0  0  0  0  0  0  0  0  0  0  0
  -28.6636  -28.3234   20.8069 C   0  0  0  0  0  0  0  0  0  0  0  0
  -27.2141  -26.8492   19.5568 C   0  0  0  0  0  0  0  0  0  0  0  0
  -31.7517  -13.5908   19.3674 C   0  0  0  0  0  0  0  0  0  0  0  0
  -29.7817  -15.4955   18.8799 C   0  0  0  0  0  0  0  0  0  0  0  0
  -25.4169  -19.2882   20.8974 C   0  0  0  0  0  0  0  0  0  0  0  0
  -29.7620  -27.5358   20.4621 C   0  0  0  0  0  0  0  0  0  0  0  0
  -28.3125  -26.0616   19.2119 C   0  0  0  0  0  0  0  0  0  0  0  0
  -24.4226  -20.0093   20.2378 C   0  0  0  0  0  0  0  0  0  0  0  0
  -30.2258  -23.6821   20.6637 C   0  0  0  0  0  0  0  0  0  0  0  0
  -30.0893  -22.2979   20.7688 C   0  0  0  0  0  0  0  0  0  0  0  0
  -22.8454  -18.2426   20.6967 C   0  0  0  0  0  0  0  0  0  0  0  0
  -18.4748  -25.9017   21.1406 C   0  0  0  0  0  0  0  0  0  0  0  0
  -30.5454  -22.0737   18.4068 C   0  0  0  0  0  0  0  0  0  0  0  0
  -27.3897  -27.9801   20.3543 C   0  0  0  0  0  0  0  0  0  0  0  0
  -25.7432  -29.8965   20.0017 C   0  0  0  0  0  0  0  0  0  0  0  0
  -30.4074  -13.2681   19.6112 C   0  0  0  0  0  0  0  0  0  0  0  0
  -25.1352  -18.0318   21.4530 C   0  0  0  0  0  0  0  0  0  0  0  0
  -29.4085  -14.2268   19.3553 C   0  0  0  0  0  0  0  0  0  0  0  0
  -23.8373  -17.5087   21.3651 C   0  0  0  0  0  0  0  0  0  0  0  0
  -19.3264  -25.3677   22.1076 C   0  0  0  0  0  0  0  0  0  0  0  0
  -19.8797  -23.5492   20.6162 C   0  0  0  0  0  0  0  0  0  0  0  0
  -29.5865  -26.4050   19.6646 C   0  0  0  0  0  0  0  0  0  0  0  0
  -23.1373  -19.4852   20.1349 C   0  0  0  0  0  0  0  0  0  0  0  0
  -30.5221  -24.2621   19.4302 C   0  0  0  0  0  0  0  0  0  0  0  0
  -30.2491  -21.4937   19.6403 C   0  0  0  0  0  0  0  0  0  0  0  0
  -18.3256  -25.2594   19.9113 C   0  0  0  0  0  0  0  0  0  0  0  0
  -30.6819  -23.4579   18.3018 C   0  0  0  0  0  0  0  0  0  0  0  0
  -20.0289  -24.1915   21.8454 C   0  0  0  0  0  0  0  0  0  0  0  0
  -19.0281  -24.0832   19.6492 C   0  0  0  0  0  0  0  0  0  0  0  0
  -26.2546  -28.7929   20.7106 C   0  0  0  0  0  0  0  0  0  0  0  0
  -24.6700  -30.3170   20.7487 C   0  0  0  0  0  0  0  0  0  0  0  0
  -26.1977  -30.4885   18.7775 C   0  0  0  0  0  0  0  0  0  0  0  0
  -26.1906  -15.0741   20.9615 C   0  0  0  0  0  0  0  0  0  0  0  0
  -24.3397  -14.4025   23.5393 C   0  0  0  0  0  0  0  0  0  0  0  0
  -21.6826  -15.2618   25.5011 C   0  0  0  0  0  0  0  0  0  0  0  0
  -21.0660  -27.5325   24.6356 C   0  0  0  0  0  0  0  0  0  0  0  0
  -30.0685  -11.8744   20.0775 C   0  0  0  0  0  0  0  0  0  0  0  0
  -26.2122  -17.2785   22.1845 C   0  0  0  0  0  0  0  0  0  0  0  0
  -23.4783  -16.1734   21.9622 C   0  0  0  0  0  0  0  0  0  0  0  0
  -28.6589  -11.7496   20.6500 C   0  0  0  0  0  0  0  0  0  0  0  0
  -23.0522  -30.4228   25.2500 C   0  0  0  0  0  0  0  0  0  0  0  0
  -27.6489  -12.4368   19.7366 C   0  0  0  0  0  0  0  0  0  0  0  0
  -24.0520  -30.4324   24.0924 C   0  0  0  0  0  0  0  0  0  0  0  0
  -22.7421  -29.0020   25.7161 C   0  0  0  0  0  0  0  0  0  0  0  0
  -23.2968  -28.0937   23.4933 C   0  0  0  0  0  0  0  0  0  0  0  0
  -27.9462  -13.9363   19.6146 C   0  0  1  0  0  0  0  0  0  0  0  0
  -25.9431  -15.7790   22.2651 C   0  0  1  0  0  0  0  0  0  0  0  0
  -23.5982  -29.5016   22.9518 C   0  0  2  0  0  0  0  0  0  0  0  0
  -20.3909  -14.4988   27.5127 C   0  0  0  0  0  0  0  0  0  0  0  0
  -22.9917  -12.2464   21.8529 C   0  0  0  0  0  0  0  0  0  0  0  0
  -21.1387  -12.1871   23.5355 C   0  0  0  0  0  0  0  0  0  0  0  0
  -23.4602  -11.5803   24.2175 C   0  0  0  0  0  0  0  0  0  0  0  0
  -22.3259  -17.7338   26.9960 C   0  0  0  0  0  0  0  0  0  0  0  0
  -19.4826  -26.0573   23.4208 C   0  0  0  0  0  0  0  0  0  0  0  0
  -20.0129  -21.2507   19.6547 C   0  0  0  0  0  0  0  0  0  0  0  0
  -20.8231  -19.9967   19.9377 C   0  0  0  0  0  0  0  0  0  1  0  0
  -22.8994  -14.0000   23.7456 C   0  0  1  0  0  0  0  0  0  0  0  0
  -21.5350  -15.3646   27.0084 C   0  0  2  0  0  0  0  0  0  0  0  0
  -22.6294  -12.5277   23.3249 C   0  0  0  0  0  0  0  0  0  0  0  0
  -25.5632  -28.5290   21.8225 N   0  0  0  0  0  0  0  0  0  0  0  0
  -24.6065  -29.4728   21.8180 N   0  0  0  0  0  0  0  0  0  0  0  0
  -24.5674  -15.4722   22.6620 N   0  0  0  0  0  0  0  0  0  0  0  0
  -22.3160  -28.1714   24.5873 N   0  0  0  0  0  0  0  0  0  0  0  0
  -23.7840  -31.3228   20.5885 N   0  0  0  0  0  0  0  0  0  0  0  0
  -27.3148  -29.9315   18.1404 N   0  0  0  0  0  0  0  0  0  0  0  0
  -20.5773  -22.3814   20.3554 N   0  0  0  0  0  0  0  0  0  0  0  0
  -27.4916  -14.6393   20.7951 N   0  0  0  0  0  0  0  0  0  0  0  0
  -22.5909  -14.2885   25.1420 N   0  0  0  0  0  0  0  0  0  0  0  0
  -20.7369  -26.7696   23.5219 N   0  0  0  0  0  0  0  0  0  0  0  0
  -21.2681  -16.7753   27.4078 N   0  3  0  0  0  0  0  0  0  0  0  0
  -25.6398  -31.4921   18.2725 O   0  0  0  0  0  0  0  0  0  0  0  0
  -25.2690  -14.9336   20.1661 O   0  0  0  0  0  0  0  0  0  0  0  0
  -25.2294  -13.7950   24.1402 O   0  0  0  0  0  0  0  0  0  0  0  0
  -21.0523  -15.9713   24.7202 O   0  0  0  0  0  0  0  0  0  0  0  0
  -20.2978  -27.6386   25.5977 O   0  0  0  0  0  0  0  0  0  0  0  0
  -30.6581  -25.6364   19.3277 O   0  0  0  0  0  0  0  0  0  0  0  0
  -22.1650  -20.1867   19.4911 O   0  0  0  0  0  0  0  0  0  1  0  0
  -30.1195  -20.1644   19.7417 F   0  0  0  0  0  0  0  0  0  0  0  0
  -17.5069  -25.7717   18.9832 F   0  0  0  0  0  0  0  0  0  0  0  0
  -30.9677  -24.0093   17.1143 F   0  0  0  0  0  0  0  0  0  0  0  0
  -20.8479  -23.6792   22.7764 F   0  0  0  0  0  0  0  0  0  0  0  0
  -18.8763  -23.4740   18.4647 F   0  0  0  0  0  0  0  0  0  0  0  0
  1  2  1  0  0  0  0
  1  5  2  0  0  0  0
  2  6  2  0  0  0  0
  3  8  2  0  0  0  0
  3 16  1  0  0  0  0
  4  9  1  0  0  0  0
  4 16  2  0  0  0  0
  5 18  1  0  0  0  0
  6 20  1  0  0  0  0
  7 10  2  0  0  0  0
  7 19  1  0  0  0  0
  8 24  1  0  0  0  0
  9 24  2  0  0  0  0
 10 25  1  0  0  0  0
 11 12  2  0  0  0  0
 11 26  1  0  0  0  0
 12 27  1  0  0  0  0
 13 21  1  0  0  0  0
 13 25  2  0  0  0  0
 14 22  2  0  0  0  0
 14 28  1  0  0  0  0
 15 27  2  0  0  0  0
 15 29  1  0  0  0  0
 16 32  1  0  0  0  0
 17 32  1  0  0  0  0
 17 33  2  0  0  0  0
 17 34  1  0  0  0  0
 18 20  2  0  0  0  0
 18 39  1  0  0  0  0
 19 21  2  0  0  0  0
 19 40  1  0  0  0  0
 20 48  1  0  0  0  0
 21 41  1  0  0  0  0
 22 30  1  0  0  0  0
 22 56  1  0  0  0  0
 23 30  2  0  0  0  0
 23 31  1  0  0  0  0
 23 68  1  0  0  0  0
 24 78  1  0  0  0  0
 25 79  1  0  0  0  0
 26 29  2  0  0  0  0
 26 78  1  0  0  0  0
 27 80  1  0  0  0  0
 28 31  2  0  0  0  0
 28 81  1  0  0  0  0
 29 82  1  0  0  0  0
 30 83  1  0  0  0  0
 31 84  1  0  0  0  0
 32 62  2  0  0  0  0
 33 63  1  0  0  0  0
 33 66  1  0  0  0  0
 34 67  1  0  0  0  0
 34 73  2  0  0  0  0
 35 49  1  0  0  0  0
 35 69  1  0  0  0  0
 35 74  2  0  0  0  0
 36 59  1  0  0  0  0
 36 64  1  0  0  0  0
 36 75  2  0  0  0  0
 37 60  1  0  0  0  0
 37 70  1  0  0  0  0
 37 76  2  0  0  0  0
 38 65  1  0  0  0  0
 38 71  1  0  0  0  0
 38 77  2  0  0  0  0
 39 42  1  0  0  0  0
 40 49  1  0  0  0  0
 41 64  1  0  0  0  0
 42 44  1  0  0  0  0
 43 45  1  0  0  0  0
 43 46  1  0  0  0  0
 44 48  1  0  0  0  0
 45 50  1  0  0  0  0
 46 65  1  0  0  0  0
 47 50  1  0  0  0  0
 47 65  1  0  0  0  0
 48 69  1  0  0  0  0
 49 64  1  0  0  0  0
 50 63  1  0  0  0  0
 51 60  1  0  0  0  0
 52 61  1  0  0  0  0
 53 61  1  0  0  0  0
 54 61  1  0  0  0  0
 55 72  1  0  0  0  0
 56 71  1  0  0  0  0
 57 58  1  0  0  0  0
 57 68  1  0  0  0  0
 58 79  1  0  0  0  0
 59 61  1  0  0  0  0
 59 70  1  0  0  0  0
 60 72  1  0  0  0  0
 62 63  1  0  0  0  0
M  CHG  1  72   1
M  ISO  4  38 100  58 101  71 100  79 101
M  END
> <Batch ID>
0013

> <Smiles>
CNC(C)C(=O)NC(C(=O)N1Cc2cc([101O:1][101CH2:1]CNc3c(F)c(F)cc(C[100NH:0][100C:0](=O)N4CCCC(n5nc(-c6ccc(Oc7ccc(F)cc7F)cc6)c(C(N)=O)c5N)C4)c3F)ccc2CC1C(=O)NC1CCCc2ccccc21)C(C)(C)C

> <Shape>
0.213

> <Color>
0.061

> <Negative vol penalty>
0.000

$$$$

  -OEChem-04052315503D

 85 92  0     1  0  0  0  0  0999 V2000
  -22.7651  -20.8751   19.6419 C   0  0  0  0  0  0  0  0  0  0  0  0
  -23.9308  -20.3284   19.1148 C   0  0  0  0  0  0  0  0  0  0  0  0
  -25.0439  -25.4392   20.2097 C   0  0  0  0  0  0  0  0  0  0  0  0
  -25.0124  -23.5052   21.6574 C   0  0  0  0  0  0  0  0  0  0  0  0
  -22.2088  -20.3402   20.8031 C   0  0  0  0  0  0  0  0  0  0  0  0
  -24.5414  -19.2472   19.7492 C   0  0  0  0  0  0  0  0  0  0  0  0
  -28.3450  -13.3502   18.3086 C   0  0  0  0  0  0  0  0  0  0  0  0
  -23.8425  -25.8763   20.7675 C   0  0  0  0  0  0  0  0  0  0  0  0
  -23.8110  -23.9423   22.2152 C   0  0  0  0  0  0  0  0  0  0  0  0
  -29.5303  -12.7160   18.6784 C   0  0  0  0  0  0  0  0  0  0  0  0
  -20.5534  -25.1543   20.4767 C   0  0  0  0  0  0  0  0  0  0  0  0
  -19.5631  -25.6093   19.6061 C   0  0  0  0  0  0  0  0  0  0  0  0
  -28.4358  -11.8241   20.6343 C   0  0  0  0  0  0  0  0  0  0  0  0
  -19.6066  -27.7702   20.6859 C   0  0  0  0  0  0  0  0  0  0  0  0
  -25.6288  -24.2536   20.6546 C   0  0  0  0  0  0  0  0  0  0  0  0
  -28.1030  -24.4797   20.0757 C   0  0  0  0  0  0  0  0  0  0  0  0
  -22.8076  -19.2457   21.4467 C   0  0  0  0  0  0  0  0  0  0  0  0
  -27.1973  -13.2349   19.1060 C   0  0  0  0  0  0  0  0  0  0  0  0
  -23.9933  -18.6980   20.9208 C   0  0  0  0  0  0  0  0  0  0  0  0
  -27.2365  -12.4557   20.2712 C   0  0  0  0  0  0  0  0  0  0  0  0
  -23.2261  -25.1279   21.7703 C   0  0  0  0  0  0  0  0  0  0  0  0
  -29.5766  -11.9552   19.8429 C   0  0  0  0  0  0  0  0  0  0  0  0
  -21.0702  -26.0073   21.4520 C   0  0  0  0  0  0  0  0  0  0  0  0
  -19.0897  -26.9172   19.7106 C   0  0  0  0  0  0  0  0  0  0  0  0
  -20.5968  -27.3152   21.5565 C   0  0  0  0  0  0  0  0  0  0  0  0
  -26.8695  -23.8012   20.0783 C   0  0  0  0  0  0  0  0  0  0  0  0
  -28.9578  -23.6357   19.4098 C   0  0  0  0  0  0  0  0  0  0  0  0
  -28.4454  -25.7586   20.6261 C   0  0  0  0  0  0  0  0  0  0  0  0
  -25.3743  -15.2765   20.7222 C   0  0  0  0  0  0  0  0  0  0  0  0
  -23.5306  -12.6502   21.1967 C   0  0  0  0  0  0  0  0  0  0  0  0
  -23.3209   -9.2475   21.3544 C   0  0  0  0  0  0  0  0  0  0  0  0
  -32.0128  -14.6519   21.3809 C   0  0  0  0  0  0  0  0  0  0  0  0
  -28.9841  -17.7113   18.5427 C   0  0  0  0  0  0  0  0  0  0  0  0
  -22.1956  -18.7319   22.7258 C   0  0  0  0  0  0  0  0  0  0  0  0
  -25.9192  -13.9033   18.6793 C   0  0  0  0  0  0  0  0  0  0  0  0
  -26.0264  -12.2837   21.1512 C   0  0  0  0  0  0  0  0  0  0  0  0
  -22.6976  -17.3475   23.1281 C   0  0  0  0  0  0  0  0  0  0  0  0
  -28.9963  -20.2417   16.0379 C   0  0  0  0  0  0  0  0  0  0  0  0
  -24.2169  -17.2761   23.0122 C   0  0  0  0  0  0  0  0  0  0  0  0
  -28.5639  -21.5021   16.7892 C   0  0  0  0  0  0  0  0  0  0  0  0
  -28.2695  -19.0009   16.5521 C   0  0  0  0  0  0  0  0  0  0  0  0
  -27.9344  -20.0454   18.7591 C   0  0  0  0  0  0  0  0  0  0  0  0
  -24.6715  -17.5091   21.5663 C   0  0  1  0  0  0  0  0  0  0  0  0
  -24.9529  -14.1386   19.8361 C   0  0  1  0  0  0  0  0  0  0  0  0
  -28.6813  -21.3142   18.3137 C   0  0  2  0  0  0  0  0  0  0  0  0
  -21.6899   -7.3929   21.7987 C   0  0  0  0  0  0  0  0  0  0  0  0
  -23.6733  -13.2441   24.1862 C   0  0  0  0  0  0  0  0  0  0  0  0
  -22.8729  -10.9113   24.6170 C   0  0  0  0  0  0  0  0  0  0  0  0
  -21.4231  -12.5158   23.3736 C   0  0  0  0  0  0  0  0  0  0  0  0
  -32.7212  -13.5923   23.5541 C   0  0  0  0  0  0  0  0  0  0  0  0
  -23.6926   -8.1153   18.6454 C   0  0  0  0  0  0  0  0  0  0  0  0
  -32.4601  -11.1423   21.8605 C   0  0  0  0  0  0  0  0  0  0  0  0
  -33.1427  -12.4312   21.4228 C   0  0  0  0  0  0  0  0  0  0  0  0
  -29.6624  -16.5496   20.6283 C   0  0  0  0  0  0  0  0  0  0  0  0
  -30.9582  -11.1498   21.6031 C   0  0  0  0  0  0  0  0  0  1  0  0
  -23.4707  -11.5602   22.2395 C   0  0  1  0  0  0  0  0  0  0  0  0
  -22.3374   -8.2693   20.7379 C   0  0  2  0  0  0  0  0  0  0  0  0
  -31.5254  -15.8241   22.2276 C   0  0  0  0  0  0  0  0  0  0  0  0
  -22.8835  -12.0625   23.5887 C   0  0  0  0  0  0  0  0  0  0  0  0
  -30.8873  -16.9568   21.4328 C   0  0  0  0  0  0  0  0  0  0  0  0
  -26.9310  -22.6174   19.4628 N   0  0  0  0  0  0  0  0  0  0  0  0
  -28.2133  -22.5456   19.0671 N   0  0  0  0  0  0  0  0  0  0  0  0
  -24.8020  -12.9621   20.6948 N   0  0  0  0  0  0  0  0  0  0  0  0
  -28.4213  -18.8801   18.0041 N   0  0  0  0  0  0  0  0  0  0  0  0
  -30.2661  -23.7272   19.0898 N   0  0  0  0  0  0  0  0  0  0  0  0
  -28.9038  -25.8155   21.9493 N   0  0  0  0  0  0  0  0  0  0  0  0
  -24.4654  -16.3162   20.7733 N   0  0  0  0  0  0  0  0  0  0  0  0
  -22.7268  -10.4593   21.6370 N   0  0  0  0  0  0  0  0  0  0  0  0
  -29.0977  -17.6811   19.9273 N   0  0  0  0  0  0  0  0  0  0  0  0
  -32.6092  -13.5862   22.0904 N   0  0  0  0  0  0  0  0  0  0  0  0
  -23.0306   -7.3862   19.7577 N   0  3  0  0  0  0  0  0  0  0  0  0
  -28.3322  -26.8214   19.9694 O   0  0  0  0  0  0  0  0  0  0  0  0
  -26.4441  -15.2152   21.3167 O   0  0  0  0  0  0  0  0  0  0  0  0
  -22.4869  -13.1995   20.8355 O   0  0  0  0  0  0  0  0  0  0  0  0
  -24.4976   -8.9637   21.5677 O   0  0  0  0  0  0  0  0  0  0  0  0
  -31.9019  -14.6800   20.1522 O   0  0  0  0  0  0  0  0  0  0  0  0
  -29.3627  -16.7670   17.8413 O   0  0  0  0  0  0  0  0  0  0  0  0
  -22.0539  -25.5543   22.3150 O   0  0  0  0  0  0  0  0  0  0  0  0
  -30.7324  -11.3356   20.2064 O   0  0  0  0  0  0  0  0  0  1  0  0
  -18.1399  -27.3544   18.8735 F   0  0  0  0  0  0  0  0  0  0  0  0
  -21.0904  -28.1396   22.4906 F   0  0  0  0  0  0  0  0  0  0  0  0
  -30.6231  -15.4197   23.1656 F   0  0  0  0  0  0  0  0  0  0  0  0
  -32.5780  -16.3599   22.9113 F   0  0  0  0  0  0  0  0  0  0  0  0
  -31.8142  -17.5179   20.6156 F   0  0  0  0  0  0  0  0  0  0  0  0
  -30.5180  -17.9272   22.3159 F   0  0  0  0  0  0  0  0  0  0  0  0
  1  2  1  0  0  0  0
  1  5  2  0  0  0  0
  2  6  2  0  0  0  0
  3  8  2  0  0  0  0
  3 15  1  0  0  0  0
  4  9  1  0  0  0  0
  4 15  2  0  0  0  0
  5 17  1  0  0  0  0
  6 19  1  0  0  0  0
  7 10  2  0  0  0  0
  7 18  1  0  0  0  0
  8 21  1  0  0  0  0
  9 21  2  0  0  0  0
 10 22  1  0  0  0  0
 11 12  2  0  0  0  0
 11 23  1  0  0  0  0
 12 24  1  0  0  0  0
 13 20  1  0  0  0  0
 13 22  2  0  0  0  0
 14 24  2  0  0  0  0
 14 25  1  0  0  0  0
 15 26  1  0  0  0  0
 16 26  1  0  0  0  0
 16 27  2  0  0  0  0
 16 28  1  0  0  0  0
 17 19  2  0  0  0  0
 17 34  1  0  0  0  0
 18 20  2  0  0  0  0
 18 35  1  0  0  0  0
 19 43  1  0  0  0  0
 20 36  1  0  0  0  0
 21 78  1  0  0  0  0
 22 79  1  0  0  0  0
 23 25  2  0  0  0  0
 23 78  1  0  0  0  0
 24 80  1  0  0  0  0
 25 81  1  0  0  0  0
 26 61  2  0  0  0  0
 27 62  1  0  0  0  0
 27 65  1  0  0  0  0
 28 66  1  0  0  0  0
 28 72  2  0  0  0  0
 29 44  1  0  0  0  0
 29 67  1  0  0  0  0
 29 73  2  0  0  0  0
 30 56  1  0  0  0  0
 30 63  1  0  0  0  0
 30 74  2  0  0  0  0
 31 57  1  0  0  0  0
 31 68  1  0  0  0  0
 31 75  2  0  0  0  0
 32 58  1  0  0  0  0
 32 70  1  0  0  0  0
 32 76  2  0  0  0  0
 33 64  1  0  0  0  0
 33 69  1  0  0  0  0
 33 77  2  0  0  0  0
 34 37  1  0  0  0  0
 35 44  1  0  0  0  0
 36 63  1  0  0  0  0
 37 39  1  0  0  0  0
 38 40  1  0  0  0  0
 38 41  1  0  0  0  0
 39 43  1  0  0  0  0
 40 45  1  0  0  0  0
 41 64  1  0  0  0  0
 42 45  1  0  0  0  0
 42 64  1  0  0  0  0
 43 67  1  0  0  0  0
 44 63  1  0  0  0  0
 45 62  1  0  0  0  0
 46 57  1  0  0  0  0
 47 59  1  0  0  0  0
 48 59  1  0  0  0  0
 49 59  1  0  0  0  0
 50 70  1  0  0  0  0
 51 71  1  0  0  0  0
 52 53  1  0  0  0  0
 52 55  1  0  0  0  0
 53 70  1  0  0  0  0
 54 60  1  0  0  0  0
 54 69  1  0  0  0  0
 55 79  1  0  0  0  0
 56 59  1  0  0  0  0
 56 68  1  0  0  0  0
 57 71  1  0  0  0  0
 58 60  1  0  0  0  0
 58 82  1  0  0  0  0
 58 83  1  0  0  0  0
 60 84  1  0  0  0  0
 60 85  1  0  0  0  0
 61 62  1  0  0  0  0
M  CHG  1  71   1
M  ISO  4  33 100  55 101  69 100  79 101
M  END
> <Batch ID>
0013

> <Smiles>
CNC(C)C(=O)NC(C(=O)N1Cc2cc([101O:1][101CH2:1]CCN(C)C(=O)C(F)(F)C(F)(F)C[100NH:0][100C:0](=O)N3CCCC(n4nc(-c5ccc(Oc6ccc(F)cc6F)cc5)c(C(N)=O)c4N)C3)ccc2CC1C(=O)NC1CCCc2ccccc21)C(C)(C)C

> <Shape>
0.244

> <Color>
0.068

> <Negative vol penalty>
0.000

$$$$

  -OEChem-04052315503D

 85 93  0     1  0  0  0  0  0999 V2000
  -30.3472  -33.7266   17.5883 C   0  0  0  0  0  0  0  0  0  0  0  0
  -30.7215  -32.7089   18.4597 C   0  0  0  0  0  0  0  0  0  0  0  0
  -22.9777   -9.9195   19.9825 C   0  0  0  0  0  0  0  0  0  0  0  0
  -23.7159   -9.9445   22.2828 C   0  0  0  0  0  0  0  0  0  0  0  0
  -29.0592  -33.7475   17.0549 C   0  0  0  0  0  0  0  0  0  0  0  0
  -29.8076  -31.7119   18.7992 C   0  0  0  0  0  0  0  0  0  0  0  0
  -31.0333  -25.8126   19.8956 C   0  0  0  0  0  0  0  0  0  0  0  0
  -22.2014   -8.7906   20.2439 C   0  0  0  0  0  0  0  0  0  0  0  0
  -22.9395   -8.8155   22.5442 C   0  0  0  0  0  0  0  0  0  0  0  0
  -31.2073  -25.0948   21.0781 C   0  0  0  0  0  0  0  0  0  0  0  0
  -23.1481   -5.4783   22.0438 C   0  0  0  0  0  0  0  0  0  0  0  0
  -23.7296   -4.4492   22.7844 C   0  0  0  0  0  0  0  0  0  0  0  0
  -28.8954  -24.4112   20.9963 C   0  0  0  0  0  0  0  0  0  0  0  0
  -32.1167  -16.4362   22.5427 C   0  0  0  0  0  0  0  0  0  0  0  0
  -22.0174   -4.6954   24.4710 C   0  0  0  0  0  0  0  0  0  0  0  0
  -23.7350  -10.4965   21.0020 C   0  0  0  0  0  0  0  0  0  0  0  0
  -24.1443  -13.0095   20.8443 C   0  0  0  0  0  0  0  0  0  0  0  0
  -28.1321  -32.7449   17.3804 C   0  0  0  0  0  0  0  0  0  0  0  0
  -29.7841  -25.8440   19.2594 C   0  0  0  0  0  0  0  0  0  0  0  0
  -28.5056  -31.7201   18.2707 C   0  0  0  0  0  0  0  0  0  0  0  0
  -28.7087  -25.1280   19.8045 C   0  0  0  0  0  0  0  0  0  0  0  0
  -30.6189  -18.2658   24.0233 C   0  0  0  0  0  0  0  0  0  0  0  0
  -30.7301  -16.4814   22.3982 C   0  0  0  0  0  0  0  0  0  0  0  0
  -22.1823   -8.2385   21.5247 C   0  0  0  0  0  0  0  0  0  0  0  0
  -30.1376  -24.3963   21.6301 C   0  0  0  0  0  0  0  0  0  0  0  0
  -22.0012   -6.1160   22.5169 C   0  0  0  0  0  0  0  0  0  0  0  0
  -23.1642   -4.0578   23.9980 C   0  0  0  0  0  0  0  0  0  0  0  0
  -32.7544  -17.3058   23.4275 C   0  0  0  0  0  0  0  0  0  0  0  0
  -21.4359   -5.7246   23.7305 C   0  0  0  0  0  0  0  0  0  0  0  0
  -32.0055  -18.2206   24.1677 C   0  0  0  0  0  0  0  0  0  0  0  0
  -29.9812  -17.3962   23.1385 C   0  0  0  0  0  0  0  0  0  0  0  0
  -24.5376  -11.6624   20.7325 C   0  0  0  0  0  0  0  0  0  0  0  0
  -25.2592  -13.7240   20.4797 C   0  0  0  0  0  0  0  0  0  0  0  0
  -22.8840  -13.5653   21.2423 C   0  0  0  0  0  0  0  0  0  0  0  0
  -27.6925  -28.1254   18.5350 C   0  0  0  0  0  0  0  0  0  0  0  0
  -26.1749  -25.7051   16.9982 C   0  0  0  0  0  0  0  0  0  0  0  0
  -30.1960  -21.5188   23.8358 C   0  0  0  0  0  0  0  0  0  0  0  0
  -25.6325  -22.3486   16.7046 C   0  0  0  0  0  0  0  0  0  0  0  0
  -30.7492  -14.6289   20.6911 C   0  0  0  0  0  0  0  0  0  0  0  0
  -26.7364  -32.8358   16.8160 C   0  0  0  0  0  0  0  0  0  0  0  0
  -29.6196  -26.6012   17.9701 C   0  0  0  0  0  0  0  0  0  0  0  0
  -27.3525  -25.1132   19.1495 C   0  0  0  0  0  0  0  0  0  0  0  0
  -25.9464  -31.5348   16.9324 C   0  0  0  0  0  0  0  0  0  0  0  0
  -29.5939  -12.2063   18.3515 C   0  0  0  0  0  0  0  0  0  0  0  0
  -26.0878  -30.9479   18.3332 C   0  0  0  0  0  0  0  0  0  0  0  0
  -28.1431  -11.9597   18.7716 C   0  0  0  0  0  0  0  0  0  0  0  0
  -30.5033  -12.4309   19.5583 C   0  0  0  0  0  0  0  0  0  0  0  0
  -28.6032  -13.2277   20.9087 C   0  0  0  0  0  0  0  0  0  0  0  0
  -27.5504  -30.6071   18.6435 C   0  0  1  0  0  0  0  0  0  0  0  0
  -28.1711  -26.9842   17.6827 C   0  0  1  0  0  0  0  0  0  0  0  0
  -27.6373  -13.0606   19.7244 C   0  0  2  0  0  0  0  0  0  0  0  0
  -24.3106  -20.6750   15.3821 C   0  0  0  0  0  0  0  0  0  0  0  0
  -23.6686  -26.4429   18.5742 C   0  0  0  0  0  0  0  0  0  0  0  0
  -22.7051  -24.2183   17.9492 C   0  0  0  0  0  0  0  0  0  0  0  0
  -23.2619  -25.8781   16.1722 C   0  0  0  0  0  0  0  0  0  0  0  0
  -28.0853  -21.0440   15.6845 C   0  0  0  0  0  0  0  0  0  0  0  0
  -29.8521  -19.2681   24.8366 C   0  0  0  0  0  0  0  0  0  0  0  0
  -29.4916  -22.5364   22.9641 C   0  0  0  0  0  0  0  0  0  1  0  0
  -25.1327  -24.6824   17.3814 C   0  0  1  0  0  0  0  0  0  0  0  0
  -25.6250  -21.4314   15.4950 C   0  0  2  0  0  0  0  0  0  0  0  0
  -23.7170  -25.3071   17.5329 C   0  0  0  0  0  0  0  0  0  0  0  0
  -25.8033  -11.5266   20.3283 N   0  0  0  0  0  0  0  0  0  0  0  0
  -26.2151  -12.7976   20.1828 N   0  0  0  0  0  0  0  0  0  0  0  0
  -27.2403  -25.8738   17.8940 N   0  0  0  0  0  0  0  0  0  0  0  0
  -29.9635  -13.4904   20.4132 N   0  0  0  0  0  0  0  0  0  0  0  0
  -25.5053  -15.0482   20.3871 N   0  0  0  0  0  0  0  0  0  0  0  0
  -21.8453  -12.6886   21.5843 N   0  0  0  0  0  0  0  0  0  0  0  0
  -30.1187  -15.5840   21.4880 N   0  0  0  0  0  0  0  0  0  0  0  0
  -27.9312  -29.3728   17.9907 N   0  0  0  0  0  0  0  0  0  0  0  0
  -29.4161  -20.3912   24.0394 N   0  0  0  0  0  0  0  0  0  0  0  0
  -25.2144  -23.6224   16.3823 N   0  0  0  0  0  0  0  0  0  0  0  0
  -26.7320  -20.4383   15.5912 N   0  3  0  0  0  0  0  0  0  0  0  0
  -22.6797  -14.8024   21.2773 O   0  0  0  0  0  0  0  0  0  0  0  0
  -27.1457  -27.8913   19.6064 O   0  0  0  0  0  0  0  0  0  0  0  0
  -26.0522  -26.3262   15.9395 O   0  0  0  0  0  0  0  0  0  0  0  0
  -31.3212  -21.7008   24.2927 O   0  0  0  0  0  0  0  0  0  0  0  0
  -25.9714  -21.9717   17.8243 O   0  0  0  0  0  0  0  0  0  0  0  0
  -31.8866  -14.7603   20.2319 O   0  0  0  0  0  0  0  0  0  0  0  0
  -21.4247   -7.1370   21.7801 O   0  0  0  0  0  0  0  0  0  0  0  0
  -30.3045  -23.6954   22.7846 O   0  0  0  0  0  0  0  0  0  1  0  0
  -23.7218   -3.0685   24.7083 F   0  0  0  0  0  0  0  0  0  0  0  0
  -34.0861  -17.2640   23.5650 F   0  0  0  0  0  0  0  0  0  0  0  0
  -20.3335   -6.3327   24.1895 F   0  0  0  0  0  0  0  0  0  0  0  0
  -32.6290  -19.0523   25.0142 F   0  0  0  0  0  0  0  0  0  0  0  0
  -28.2576  -17.4573   22.9613 Cl  0  0  0  0  0  0  0  0  0  0  0  0
  1  2  1  0  0  0  0
  1  5  2  0  0  0  0
  2  6  2  0  0  0  0
  3  8  2  0  0  0  0
  3 16  1  0  0  0  0
  4  9  1  0  0  0  0
  4 16  2  0  0  0  0
  5 18  1  0  0  0  0
  6 20  1  0  0  0  0
  7 10  2  0  0  0  0
  7 19  1  0  0  0  0
  8 24  1  0  0  0  0
  9 24  2  0  0  0  0
 10 25  1  0  0  0  0
 11 12  2  0  0  0  0
 11 26  1  0  0  0  0
 12 27  1  0  0  0  0
 13 21  1  0  0  0  0
 13 25  2  0  0  0  0
 14 23  2  0  0  0  0
 14 28  1  0  0  0  0
 15 27  2  0  0  0  0
 15 29  1  0  0  0  0
 16 32  1  0  0  0  0
 17 32  1  0  0  0  0
 17 33  2  0  0  0  0
 17 34  1  0  0  0  0
 18 20  2  0  0  0  0
 18 40  1  0  0  0  0
 19 21  2  0  0  0  0
 19 41  1  0  0  0  0
 20 49  1  0  0  0  0
 21 42  1  0  0  0  0
 22 30  1  0  0  0  0
 22 31  2  0  0  0  0
 22 57  1  0  0  0  0
 23 31  1  0  0  0  0
 23 68  1  0  0  0  0
 24 79  1  0  0  0  0
 25 80  1  0  0  0  0
 26 29  2  0  0  0  0
 26 79  1  0  0  0  0
 27 81  1  0  0  0  0
 28 30  2  0  0  0  0
 28 82  1  0  0  0  0
 29 83  1  0  0  0  0
 30 84  1  0  0  0  0
 31 85  1  0  0  0  0
 32 62  2  0  0  0  0
 33 63  1  0  0  0  0
 33 66  1  0  0  0  0
 34 67  1  0  0  0  0
 34 73  2  0  0  0  0
 35 50  1  0  0  0  0
 35 69  1  0  0  0  0
 35 74  2  0  0  0  0
 36 59  1  0  0  0  0
 36 64  1  0  0  0  0
 36 75  2  0  0  0  0
 37 58  1  0  0  0  0
 37 70  1  0  0  0  0
 37 76  2  0  0  0  0
 38 60  1  0  0  0  0
 38 71  1  0  0  0  0
 38 77  2  0  0  0  0
 39 65  1  0  0  0  0
 39 68  1  0  0  0  0
 39 78  2  0  0  0  0
 40 43  1  0  0  0  0
 41 50  1  0  0  0  0
 42 64  1  0  0  0  0
 43 45  1  0  0  0  0
 44 46  1  0  0  0  0
 44 47  1  0  0  0  0
 45 49  1  0  0  0  0
 46 51  1  0  0  0  0
 47 65  1  0  0  0  0
 48 51  1  0  0  0  0
 48 65  1  0  0  0  0
 49 69  1  0  0  0  0
 50 64  1  0  0  0  0
 51 63  1  0  0  0  0
 52 60  1  0  0  0  0
 53 61  1  0  0  0  0
 54 61  1  0  0  0  0
 55 61  1  0  0  0  0
 56 72  1  0  0  0  0
 57 70  1  0  0  0  0
 58 80  1  0  0  0  0
 59 61  1  0  0  0  0
 59 71  1  0  0  0  0
 60 72  1  0  0  0  0
 62 63  1  0  0  0  0
M  CHG  1  72   1
M  ISO  4  39 100  58 101  68 100  80 101
M  END
> <Batch ID>
0013

> <Smiles>
CNC(C)C(=O)NC(C(=O)N1Cc2cc([101O:1][101CH2:1]C(=O)NCc3c(F)c(F)cc([100NH:0][100C:0](=O)N4CCCC(n5nc(-c6ccc(Oc7ccc(F)cc7F)cc6)c(C(N)=O)c5N)C4)c3Cl)ccc2CC1C(=O)NC1CCCc2ccccc21)C(C)(C)C

> <Shape>
0.222

> <Color>
0.198

> <Negative vol penalty>
0.000

$$$$

  -OEChem-04052315503D

 84 92  0     1  0  0  0  0  0999 V2000
  -30.3428  -33.7548   17.6521 C   0  0  0  0  0  0  0  0  0  0  0  0
  -30.7173  -32.7333   18.5191 C   0  0  0  0  0  0  0  0  0  0  0  0
  -22.9782   -9.9182   19.9828 C   0  0  0  0  0  0  0  0  0  0  0  0
  -23.7154   -9.9453   22.2834 C   0  0  0  0  0  0  0  0  0  0  0  0
  -29.0546  -33.7782   17.1194 C   0  0  0  0  0  0  0  0  0  0  0  0
  -29.8033  -31.7351   18.8548 C   0  0  0  0  0  0  0  0  0  0  0  0
  -31.0279  -25.8310   19.9262 C   0  0  0  0  0  0  0  0  0  0  0  0
  -22.2021   -8.7892   20.2448 C   0  0  0  0  0  0  0  0  0  0  0  0
  -22.9392   -8.8163   22.5454 C   0  0  0  0  0  0  0  0  0  0  0  0
  -31.2023  -25.1083   21.1056 C   0  0  0  0  0  0  0  0  0  0  0  0
  -23.1490   -5.4787   22.0480 C   0  0  0  0  0  0  0  0  0  0  0  0
  -23.7304   -4.4504   22.7897 C   0  0  0  0  0  0  0  0  0  0  0  0
  -28.8901  -24.4256   21.0221 C   0  0  0  0  0  0  0  0  0  0  0  0
  -32.0000  -18.2233   24.1684 C   0  0  0  0  0  0  0  0  0  0  0  0
  -32.1142  -16.4403   22.5421 C   0  0  0  0  0  0  0  0  0  0  0  0
  -22.0173   -4.6977   24.4754 C   0  0  0  0  0  0  0  0  0  0  0  0
  -23.7349  -10.4962   21.0021 C   0  0  0  0  0  0  0  0  0  0  0  0
  -24.1436  -13.0092   20.8425 C   0  0  0  0  0  0  0  0  0  0  0  0
  -28.1274  -32.7745   17.4412 C   0  0  0  0  0  0  0  0  0  0  0  0
  -29.7784  -25.8655   19.2907 C   0  0  0  0  0  0  0  0  0  0  0  0
  -28.5010  -31.7459   18.3270 C   0  0  0  0  0  0  0  0  0  0  0  0
  -28.7032  -25.1475   19.8333 C   0  0  0  0  0  0  0  0  0  0  0  0
  -32.7504  -17.3098   23.4281 C   0  0  0  0  0  0  0  0  0  0  0  0
  -30.6135  -18.2673   24.0228 C   0  0  0  0  0  0  0  0  0  0  0  0
  -30.7277  -16.4843   22.3965 C   0  0  0  0  0  0  0  0  0  0  0  0
  -22.1826   -8.2383   21.5261 C   0  0  0  0  0  0  0  0  0  0  0  0
  -30.1326  -24.4078   21.6553 C   0  0  0  0  0  0  0  0  0  0  0  0
  -22.0017   -6.1166   22.5200 C   0  0  0  0  0  0  0  0  0  0  0  0
  -23.1646   -4.0599   24.0034 C   0  0  0  0  0  0  0  0  0  0  0  0
  -21.4359   -5.7260   23.7337 C   0  0  0  0  0  0  0  0  0  0  0  0
  -29.9773  -17.3978   23.1368 C   0  0  0  0  0  0  0  0  0  0  0  0
  -24.5373  -11.6621   20.7320 C   0  0  0  0  0  0  0  0  0  0  0  0
  -25.2585  -13.7237   20.4777 C   0  0  0  0  0  0  0  0  0  0  0  0
  -22.8829  -13.5649   21.2394 C   0  0  0  0  0  0  0  0  0  0  0  0
  -27.6871  -28.1503   18.5768 C   0  0  0  0  0  0  0  0  0  0  0  0
  -26.1682  -25.7369   17.0306 C   0  0  0  0  0  0  0  0  0  0  0  0
  -30.1913  -21.5212   23.8490 C   0  0  0  0  0  0  0  0  0  0  0  0
  -25.6247  -22.3817   16.7234 C   0  0  0  0  0  0  0  0  0  0  0  0
  -30.7480  -14.6304   20.6909 C   0  0  0  0  0  0  0  0  0  0  0  0
  -26.7315  -32.8681   16.8778 C   0  0  0  0  0  0  0  0  0  0  0  0
  -29.6136  -26.6280   18.0047 C   0  0  0  0  0  0  0  0  0  0  0  0
  -27.3467  -25.1357   19.1790 C   0  0  0  0  0  0  0  0  0  0  0  0
  -25.9412  -31.5668   16.9891 C   0  0  0  0  0  0  0  0  0  0  0  0
  -29.5945  -12.2054   18.3529 C   0  0  0  0  0  0  0  0  0  0  0  0
  -26.0831  -30.9740   18.3874 C   0  0  0  0  0  0  0  0  0  0  0  0
  -28.1436  -11.9587   18.7725 C   0  0  0  0  0  0  0  0  0  0  0  0
  -30.5034  -12.4313   19.5598 C   0  0  0  0  0  0  0  0  0  0  0  0
  -28.6024  -13.2288   20.9088 C   0  0  0  0  0  0  0  0  0  0  0  0
  -27.5457  -30.6316   18.6956 C   0  0  1  0  0  0  0  0  0  0  0  0
  -28.1651  -27.0126   17.7196 C   0  0  1  0  0  0  0  0  0  0  0  0
  -27.6371  -13.0603   19.7241 C   0  0  2  0  0  0  0  0  0  0  0  0
  -34.2328  -17.2639   23.5835 C   0  0  0  0  0  0  0  0  0  0  0  0
  -24.3018  -20.7140   15.3945 C   0  0  0  0  0  0  0  0  0  0  0  0
  -23.6628  -26.4688   18.6109 C   0  0  0  0  0  0  0  0  0  0  0  0
  -22.6985  -24.2469   17.9770 C   0  0  0  0  0  0  0  0  0  0  0  0
  -23.2548  -25.9140   16.2067 C   0  0  0  0  0  0  0  0  0  0  0  0
  -28.0768  -21.0807   15.6967 C   0  0  0  0  0  0  0  0  0  0  0  0
  -29.8473  -19.2664   24.8406 C   0  0  0  0  0  0  0  0  0  0  0  0
  -29.4867  -22.5426   22.9818 C   0  0  0  0  0  0  0  0  0  1  0  0
  -25.1259  -24.7128   17.4101 C   0  0  1  0  0  0  0  0  0  0  0  0
  -25.6165  -21.4696   15.5100 C   0  0  2  0  0  0  0  0  0  0  0  0
  -23.7104  -25.3372   17.5648 C   0  0  0  0  0  0  0  0  0  0  0  0
  -25.8033  -11.5263   20.3285 N   0  0  0  0  0  0  0  0  0  0  0  0
  -26.2148  -12.7973   20.1821 N   0  0  0  0  0  0  0  0  0  0  0  0
  -27.2340  -25.9015   17.9266 N   0  0  0  0  0  0  0  0  0  0  0  0
  -29.9628  -13.4913   20.4136 N   0  0  0  0  0  0  0  0  0  0  0  0
  -25.5042  -15.0478   20.3841 N   0  0  0  0  0  0  0  0  0  0  0  0
  -21.8444  -12.6883   21.5817 N   0  0  0  0  0  0  0  0  0  0  0  0
  -30.1170  -15.5859   21.4867 N   0  0  0  0  0  0  0  0  0  0  0  0
  -27.9259  -29.4000   18.0376 N   0  0  0  0  0  0  0  0  0  0  0  0
  -29.4112  -20.3929   24.0482 N   0  0  0  0  0  0  0  0  0  0  0  0
  -25.2068  -23.6569   16.4066 N   0  0  0  0  0  0  0  0  0  0  0  0
  -26.7233  -20.4757   15.6015 N   0  3  0  0  0  0  0  0  0  0  0  0
  -22.6783  -14.8021   21.2732 O   0  0  0  0  0  0  0  0  0  0  0  0
  -27.1407  -27.9120   19.6475 O   0  0  0  0  0  0  0  0  0  0  0  0
  -26.0452  -26.3623   15.9746 O   0  0  0  0  0  0  0  0  0  0  0  0
  -31.3167  -21.7010   24.3061 O   0  0  0  0  0  0  0  0  0  0  0  0
  -25.9641  -22.0001   17.8413 O   0  0  0  0  0  0  0  0  0  0  0  0
  -31.8857  -14.7616   20.2321 O   0  0  0  0  0  0  0  0  0  0  0  0
  -21.4252   -7.1367   21.7821 O   0  0  0  0  0  0  0  0  0  0  0  0
  -30.2999  -23.7020   22.8067 O   0  0  0  0  0  0  0  0  0  1  0  0
  -23.7222   -3.0714   24.7148 F   0  0  0  0  0  0  0  0  0  0  0  0
  -20.3331   -6.3342   24.1917 F   0  0  0  0  0  0  0  0  0  0  0  0
  -28.2537  -17.4571   22.9608 Cl  0  0  0  0  0  0  0  0  0  0  0  0
  1  2  1  0  0  0  0
  1  5  2  0  0  0  0
  2  6  2  0  0  0  0
  3  8  2  0  0  0  0
  3 17  1  0  0  0  0
  4  9  1  0  0  0  0
  4 17  2  0  0  0  0
  5 19  1  0  0  0  0
  6 21  1  0  0  0  0
  7 10  2  0  0  0  0
  7 20  1  0  0  0  0
  8 26  1  0  0  0  0
  9 26  2  0  0  0  0
 10 27  1  0  0  0  0
 11 12  2  0  0  0  0
 11 28  1  0  0  0  0
 12 29  1  0  0  0  0
 13 22  1  0  0  0  0
 13 27  2  0  0  0  0
 14 23  2  0  0  0  0
 14 24  1  0  0  0  0
 15 23  1  0  0  0  0
 15 25  2  0  0  0  0
 16 29  2  0  0  0  0
 16 30  1  0  0  0  0
 17 32  1  0  0  0  0
 18 32  1  0  0  0  0
 18 33  2  0  0  0  0
 18 34  1  0  0  0  0
 19 21  2  0  0  0  0
 19 40  1  0  0  0  0
 20 22  2  0  0  0  0
 20 41  1  0  0  0  0
 21 49  1  0  0  0  0
 22 42  1  0  0  0  0
 23 52  1  0  0  0  0
 24 31  2  0  0  0  0
 24 58  1  0  0  0  0
 25 31  1  0  0  0  0
 25 69  1  0  0  0  0
 26 80  1  0  0  0  0
 27 81  1  0  0  0  0
 28 30  2  0  0  0  0
 28 80  1  0  0  0  0
 29 82  1  0  0  0  0
 30 83  1  0  0  0  0
 31 84  1  0  0  0  0
 32 63  2  0  0  0  0
 33 64  1  0  0  0  0
 33 67  1  0  0  0  0
 34 68  1  0  0  0  0
 34 74  2  0  0  0  0
 35 50  1  0  0  0  0
 35 70  1  0  0  0  0
 35 75  2  0  0  0  0
 36 60  1  0  0  0  0
 36 65  1  0  0  0  0
 36 76  2  0  0  0  0
 37 59  1  0  0  0  0
 37 71  1  0  0  0  0
 37 77  2  0  0  0  0
 38 61  1  0  0  0  0
 38 72  1  0  0  0  0
 38 78  2  0  0  0  0
 39 66  1  0  0  0  0
 39 69  1  0  0  0  0
 39 79  2  0  0  0  0
 40 43  1  0  0  0  0
 41 50  1  0  0  0  0
 42 65  1  0  0  0  0
 43 45  1  0  0  0  0
 44 46  1  0  0  0  0
 44 47  1  0  0  0  0
 45 49  1  0  0  0  0
 46 51  1  0  0  0  0
 47 66  1  0  0  0  0
 48 51  1  0  0  0  0
 48 66  1  0  0  0  0
 49 70  1  0  0  0  0
 50 65  1  0  0  0  0
 51 64  1  0  0  0  0
 53 61  1  0  0  0  0
 54 62  1  0  0  0  0
 55 62  1  0  0  0  0
 56 62  1  0  0  0  0
 57 73  1  0  0  0  0
 58 71  1  0  0  0  0
 59 81  1  0  0  0  0
 60 62  1  0  0  0  0
 60 72  1  0  0  0  0
 61 73  1  0  0  0  0
 63 64  1  0  0  0  0
M  CHG  1  73   1
M  ISO  4  39 100  59 101  69 100  81 101
M  END
> <Batch ID>
0013

> <Smiles>
CNC(C)C(=O)NC(C(=O)N1Cc2cc([101O:1][101CH2:1]C(=O)NCc3cc(C)cc([100NH:0][100C:0](=O)N4CCCC(n5nc(-c6ccc(Oc7ccc(F)cc7F)cc6)c(C(N)=O)c5N)C4)c3Cl)ccc2CC1C(=O)NC1CCCc2ccccc21)C(C)(C)C

> <Shape>
0.224

> <Color>
0.198

> <Negative vol penalty>
0.000

$$$$

  -OEChem-04052315503D

 85 93  0     1  0  0  0  0  0999 V2000
  -29.0493  -33.2699   23.1283 C   0  0  0  0  0  0  0  0  0  0  0  0
  -30.0132  -32.4709   23.7349 C   0  0  0  0  0  0  0  0  0  0  0  0
  -23.0784   -9.8636   19.9384 C   0  0  0  0  0  0  0  0  0  0  0  0
  -23.8368   -9.8703   22.2322 C   0  0  0  0  0  0  0  0  0  0  0  0
  -28.1678  -32.7146   22.2017 C   0  0  0  0  0  0  0  0  0  0  0  0
  -30.0955  -31.1160   23.4160 C   0  0  0  0  0  0  0  0  0  0  0  0
  -34.8732  -25.8229   22.7276 C   0  0  0  0  0  0  0  0  0  0  0  0
  -22.3360   -8.7092   20.1872 C   0  0  0  0  0  0  0  0  0  0  0  0
  -23.0943   -8.7160   22.4811 C   0  0  0  0  0  0  0  0  0  0  0  0
  -35.1085  -24.5206   23.1662 C   0  0  0  0  0  0  0  0  0  0  0  0
  -19.8669   -7.9133   23.0811 C   0  0  0  0  0  0  0  0  0  0  0  0
  -19.1093   -7.8717   24.2514 C   0  0  0  0  0  0  0  0  0  0  0  0
  -33.5844  -23.6878   21.4921 C   0  0  0  0  0  0  0  0  0  0  0  0
  -32.0574  -16.5877   22.5296 C   0  0  0  0  0  0  0  0  0  0  0  0
  -20.3529   -5.9356   24.9876 C   0  0  0  0  0  0  0  0  0  0  0  0
  -23.8289  -10.4441   20.9609 C   0  0  0  0  0  0  0  0  0  0  0  0
  -24.1672  -12.9698   20.8424 C   0  0  0  0  0  0  0  0  0  0  0  0
  -28.2456  -31.3543   21.8641 C   0  0  0  0  0  0  0  0  0  0  0  0
  -33.9818  -26.0687   21.6733 C   0  0  0  0  0  0  0  0  0  0  0  0
  -29.2134  -30.5417   22.4850 C   0  0  0  0  0  0  0  0  0  0  0  0
  -33.3414  -24.9939   21.0403 C   0  0  0  0  0  0  0  0  0  0  0  0
  -32.6783  -17.4578   23.4256 C   0  0  0  0  0  0  0  0  0  0  0  0
  -30.5221  -18.3453   24.0582 C   0  0  0  0  0  0  0  0  0  0  0  0
  -30.6687  -16.5965   22.3977 C   0  0  0  0  0  0  0  0  0  0  0  0
  -31.9107  -18.3366   24.1899 C   0  0  0  0  0  0  0  0  0  0  0  0
  -22.3439   -8.1355   21.4586 C   0  0  0  0  0  0  0  0  0  0  0  0
  -34.4619  -23.4530   22.5504 C   0  0  0  0  0  0  0  0  0  0  0  0
  -20.8675   -6.9661   22.8639 C   0  0  0  0  0  0  0  0  0  0  0  0
  -19.3523   -6.8829   25.2047 C   0  0  0  0  0  0  0  0  0  0  0  0
  -21.1105   -5.9772   23.8172 C   0  0  0  0  0  0  0  0  0  0  0  0
  -29.9011  -17.4752   23.1621 C   0  0  0  0  0  0  0  0  0  0  0  0
  -24.5965  -11.6362   20.7043 C   0  0  0  0  0  0  0  0  0  0  0  0
  -25.2586  -13.7210   20.4803 C   0  0  0  0  0  0  0  0  0  0  0  0
  -22.8958  -13.4836   21.2608 C   0  0  0  0  0  0  0  0  0  0  0  0
  -31.2516  -27.6681   21.3709 C   0  0  0  0  0  0  0  0  0  0  0  0
  -31.6263  -26.9427   18.2316 C   0  0  0  0  0  0  0  0  0  0  0  0
  -32.9931  -24.8854   15.8765 C   0  0  0  0  0  0  0  0  0  0  0  0
  -30.7232  -14.7742   20.6592 C   0  0  0  0  0  0  0  0  0  0  0  0
  -27.2405  -30.7889   20.8921 C   0  0  0  0  0  0  0  0  0  0  0  0
  -33.7592  -27.4771   21.1944 C   0  0  0  0  0  0  0  0  0  0  0  0
  -32.3907  -25.2027   19.8909 C   0  0  0  0  0  0  0  0  0  0  0  0
  -27.6365  -29.4259   20.3302 C   0  0  0  0  0  0  0  0  0  0  0  0
  -29.6137  -12.3601   18.2889 C   0  0  0  0  0  0  0  0  0  0  0  0
  -28.1087  -28.5037   21.4497 C   0  0  0  0  0  0  0  0  0  0  0  0
  -28.1742  -12.0663   18.7173 C   0  0  0  0  0  0  0  0  0  0  0  0
  -30.5277  -12.5895   19.4912 C   0  0  0  0  0  0  0  0  0  0  0  0
  -28.6188  -13.3106   20.8716 C   0  0  0  0  0  0  0  0  0  0  0  0
  -29.3502  -29.0730   22.1468 C   0  0  1  0  0  0  0  0  0  0  0  0
  -32.4391  -27.6536   20.4504 C   0  0  1  0  0  0  0  0  0  0  0  0
  -27.6470  -13.1366   19.6931 C   0  0  2  0  0  0  0  0  0  0  0  0
  -34.1676  -17.4256   23.5447 C   0  0  0  0  0  0  0  0  0  0  0  0
  -29.7117  -19.2958   24.8864 C   0  0  0  0  0  0  0  0  0  0  0  0
  -33.0901  -24.5223   13.3953 C   0  0  0  0  0  0  0  0  0  0  0  0
  -28.8117  -25.7664   18.2962 C   0  0  0  0  0  0  0  0  0  0  0  0
  -29.3237  -24.6026   16.1394 C   0  0  0  0  0  0  0  0  0  0  0  0
  -29.3403  -27.0949   16.2443 C   0  0  0  0  0  0  0  0  0  0  0  0
  -32.7740  -18.7900   26.4723 C   0  0  0  0  0  0  0  0  0  0  0  0
  -35.9264  -25.2749   15.8172 C   0  0  0  0  0  0  0  0  0  0  0  0
  -34.4900  -20.6516   24.8156 C   0  0  0  0  0  0  0  0  0  0  0  0
  -32.9774  -20.5229   24.6824 C   0  0  0  0  0  0  0  0  0  0  0  0
  -35.0147  -22.0066   24.3554 C   0  0  0  0  0  0  0  0  0  1  0  0
  -31.2107  -25.7957   17.3423 C   0  0  1  0  0  0  0  0  0  0  0  0
  -33.7499  -25.1843   14.5950 C   0  0  2  0  0  0  0  0  0  0  0  0
  -29.6880  -25.8108   17.0285 C   0  0  0  0  0  0  0  0  0  0  0  0
  -25.8617  -11.5424   20.2868 N   0  0  0  0  0  0  0  0  0  0  0  0
  -26.2369  -12.8265   20.1594 N   0  0  0  0  0  0  0  0  0  0  0  0
  -32.2012  -26.5986   19.4632 N   0  0  0  0  0  0  0  0  0  0  0  0
  -29.9667  -13.6191   20.3688 N   0  0  0  0  0  0  0  0  0  0  0  0
  -25.4672  -15.0528   20.4082 N   0  0  0  0  0  0  0  0  0  0  0  0
  -21.8849  -12.5728   21.5969 N   0  0  0  0  0  0  0  0  0  0  0  0
  -30.0740  -15.6979   21.4777 N   0  0  0  0  0  0  0  0  0  0  0  0
  -30.5308  -28.8467   21.3408 N   0  0  0  0  0  0  0  0  0  0  0  0
  -32.0649  -25.8643   16.1616 N   0  0  0  0  0  0  0  0  0  0  0  0
  -32.5387  -19.2099   25.0896 N   0  0  3  0  0  0  0  0  0  0  0  0
  -35.1517  -24.6882   14.6935 N   0  3  0  0  0  0  0  0  0  0  0  0
  -22.6577  -14.7139   21.3187 O   0  0  0  0  0  0  0  0  0  0  0  0
  -31.0065  -26.6824   22.0565 O   0  0  0  0  0  0  0  0  0  0  0  0
  -31.4540  -28.1012   17.8445 O   0  0  0  0  0  0  0  0  0  0  0  0
  -33.2018  -23.8819   16.5547 O   0  0  0  0  0  0  0  0  0  0  0  0
  -31.8523  -14.9447   20.1924 O   0  0  0  0  0  0  0  0  0  0  0  0
  -21.6194   -7.0092   21.7018 O   0  0  0  0  0  0  0  0  0  0  0  0
  -34.6893  -22.1809   22.9770 O   0  0  0  0  0  0  0  0  0  1  0  0
  -18.6256   -6.8439   26.3293 F   0  0  0  0  0  0  0  0  0  0  0  0
  -22.0713   -5.0652   23.6147 F   0  0  0  0  0  0  0  0  0  0  0  0
  -28.1743  -17.4868   22.9999 Cl  0  0  0  0  0  0  0  0  0  0  0  0
  1  2  1  0  0  0  0
  1  5  2  0  0  0  0
  2  6  2  0  0  0  0
  3  8  2  0  0  0  0
  3 16  1  0  0  0  0
  4  9  1  0  0  0  0
  4 16  2  0  0  0  0
  5 18  1  0  0  0  0
  6 20  1  0  0  0  0
  7 10  2  0  0  0  0
  7 19  1  0  0  0  0
  8 26  1  0  0  0  0
  9 26  2  0  0  0  0
 10 27  1  0  0  0  0
 11 12  2  0  0  0  0
 11 28  1  0  0  0  0
 12 29  1  0  0  0  0
 13 21  1  0  0  0  0
 13 27  2  0  0  0  0
 14 22  2  0  0  0  0
 14 24  1  0  0  0  0
 15 29  2  0  0  0  0
 15 30  1  0  0  0  0
 16 32  1  0  0  0  0
 17 32  1  0  0  0  0
 17 33  2  0  0  0  0
 17 34  1  0  0  0  0
 18 20  2  0  0  0  0
 18 39  1  0  0  0  0
 19 21  2  0  0  0  0
 19 40  1  0  0  0  0
 20 48  1  0  0  0  0
 21 41  1  0  0  0  0
 22 25  1  0  0  0  0
 22 51  1  0  0  0  0
 23 25  2  0  0  0  0
 23 31  1  0  0  0  0
 23 52  1  0  0  0  0
 24 31  2  0  0  0  0
 24 71  1  0  0  0  0
 25 74  1  0  0  0  0
 26 81  1  0  0  0  0
 27 82  1  0  0  0  0
 28 30  2  0  0  0  0
 28 81  1  0  0  0  0
 29 83  1  0  0  0  0
 30 84  1  0  0  0  0
 31 85  1  0  0  0  0
 32 65  2  0  0  0  0
 33 66  1  0  0  0  0
 33 69  1  0  0  0  0
 34 70  1  0  0  0  0
 34 76  2  0  0  0  0
 35 49  1  0  0  0  0
 35 72  1  0  0  0  0
 35 77  2  0  0  0  0
 36 62  1  0  0  0  0
 36 67  1  0  0  0  0
 36 78  2  0  0  0  0
 37 63  1  0  0  0  0
 37 73  1  0  0  0  0
 37 79  2  0  0  0  0
 38 68  1  0  0  0  0
 38 71  1  0  0  0  0
 38 80  2  0  0  0  0
 39 42  1  0  0  0  0
 40 49  1  0  0  0  0
 41 67  1  0  0  0  0
 42 44  1  0  0  0  0
 43 45  1  0  0  0  0
 43 46  1  0  0  0  0
 44 48  1  0  0  0  0
 45 50  1  0  0  0  0
 46 68  1  0  0  0  0
 47 50  1  0  0  0  0
 47 68  1  0  0  0  0
 48 72  1  0  0  0  0
 49 67  1  0  0  0  0
 50 66  1  0  0  0  0
 53 63  1  0  0  0  0
 54 64  1  0  0  0  0
 55 64  1  0  0  0  0
 56 64  1  0  0  0  0
 57 74  1  0  0  0  0
 58 75  1  0  0  0  0
 59 60  1  0  0  0  0
 59 61  1  0  0  0  0
 60 74  1  0  0  0  0
 61 82  1  0  0  0  0
 62 64  1  0  0  0  0
 62 73  1  0  0  0  0
 63 75  1  0  0  0  0
 65 66  1  0  0  0  0
M  CHG  1  75   1
M  ISO  4  38 100  61 101  71 100  82 101
M  END
> <Batch ID>
0013

> <Smiles>
CNC(C)C(=O)NC(C(=O)N1Cc2cc([101O:1][101CH2:1]CCN(C)c3c(C)cc([100NH:0][100C:0](=O)N4CCCC(n5nc(-c6ccc(Oc7ccc(F)cc7F)cc6)c(C(N)=O)c5N)C4)c(Cl)c3C)ccc2CC1C(=O)NC1CCCc2ccccc21)C(C)(C)C

> <Shape>
0.228

> <Color>
0.200

> <Negative vol penalty>
0.000

$$$$

  -OEChem-04052315503D

 86 94  0     1  0  0  0  0  0999 V2000
  -19.2500  -24.2652   24.0991 C   0  0  0  0  0  0  0  0  0  0  0  0
  -20.4699  -24.1949   23.4360 C   0  0  0  0  0  0  0  0  0  0  0  0
  -23.8948   -9.8207   22.0832 C   0  0  0  0  0  0  0  0  0  0  0  0
  -22.2923  -10.3305   20.3485 C   0  0  0  0  0  0  0  0  0  0  0  0
  -18.4983  -25.4371   24.0453 C   0  0  0  0  0  0  0  0  0  0  0  0
  -20.9441  -25.3002   22.7287 C   0  0  0  0  0  0  0  0  0  0  0  0
  -25.5050  -25.0003   20.9088 C   0  0  0  0  0  0  0  0  0  0  0  0
  -23.4447   -8.5008   22.1110 C   0  0  0  0  0  0  0  0  0  0  0  0
  -21.8422   -9.0106   20.3763 C   0  0  0  0  0  0  0  0  0  0  0  0
  -25.8309  -24.1906   19.8217 C   0  0  0  0  0  0  0  0  0  0  0  0
  -20.8316   -6.7873   23.3995 C   0  0  0  0  0  0  0  0  0  0  0  0
  -20.6113   -6.2047   24.6475 C   0  0  0  0  0  0  0  0  0  0  0  0
  -25.8935  -26.1371   18.3982 C   0  0  0  0  0  0  0  0  0  0  0  0
  -21.8068  -20.9386   19.8826 C   0  0  0  0  0  0  0  0  0  0  0  0
  -22.2500   -4.5028   24.1423 C   0  0  0  0  0  0  0  0  0  0  0  0
  -23.3185  -10.7356   21.2019 C   0  0  0  0  0  0  0  0  0  0  0  0
  -24.8144  -12.6295   20.3755 C   0  0  0  0  0  0  0  0  0  0  0  0
  -18.9584  -26.5526   23.3264 C   0  0  0  0  0  0  0  0  0  0  0  0
  -25.3599  -26.3856   20.7462 C   0  0  0  0  0  0  0  0  0  0  0  0
  -20.2113  -26.5000   22.6824 C   0  0  0  0  0  0  0  0  0  0  0  0
  -25.5681  -26.9625   19.4854 C   0  0  0  0  0  0  0  0  0  0  0  0
  -21.5690  -21.9364   18.9374 C   0  0  0  0  0  0  0  0  0  0  0  0
  -22.6646  -19.8811   19.5798 C   0  0  0  0  0  0  0  0  0  0  0  0
  -23.0466  -20.8191   17.3864 C   0  0  0  0  0  0  0  0  0  0  0  0
  -22.4184   -8.0957   21.2576 C   0  0  0  0  0  0  0  0  0  0  0  0
  -26.0224  -24.7585   18.5656 C   0  0  0  0  0  0  0  0  0  0  0  0
  -21.7610   -6.2277   22.5227 C   0  0  0  0  0  0  0  0  0  0  0  0
  -23.2844  -19.8214   18.3317 C   0  0  0  0  0  0  0  0  0  0  0  0
  -21.3205   -5.0625   25.0189 C   0  0  0  0  0  0  0  0  0  0  0  0
  -22.4703   -5.0854   22.8942 C   0  0  0  0  0  0  0  0  0  0  0  0
  -22.1889  -21.8767   17.6892 C   0  0  0  0  0  0  0  0  0  0  0  0
  -23.7826  -12.0994   21.1731 C   0  0  0  0  0  0  0  0  0  0  0  0
  -24.8650  -13.9586   20.7182 C   0  0  0  0  0  0  0  0  0  0  0  0
  -25.6522  -11.9788   19.4109 C   0  0  0  0  0  0  0  0  0  0  0  0
  -22.9723  -28.4502   21.1215 C   0  0  0  0  0  0  0  0  0  0  0  0
  -25.2845  -30.6390   20.5009 C   0  0  0  0  0  0  0  0  0  0  0  0
  -28.3068  -31.3364   19.0775 C   0  0  0  0  0  0  0  0  0  0  0  0
  -22.3515  -18.8002   21.8336 C   0  0  0  0  0  0  0  0  0  0  0  0
  -18.1080  -27.7983   23.3078 C   0  0  0  0  0  0  0  0  0  0  0  0
  -25.0342  -27.2485   21.9344 C   0  0  0  0  0  0  0  0  0  0  0  0
  -25.4441  -28.4469   19.2622 C   0  0  0  0  0  0  0  0  0  0  0  0
  -18.4772  -28.7533   22.1773 C   0  0  0  0  0  0  0  0  0  0  0  0
  -22.6415  -16.4694   24.5095 C   0  0  0  0  0  0  0  0  0  0  0  0
  -19.9806  -28.9860   22.1636 C   0  0  0  0  0  0  0  0  0  0  0  0
  -23.0491  -15.1683   23.8144 C   0  0  0  0  0  0  0  0  0  0  0  0
  -21.6540  -17.2764   23.6685 C   0  0  0  0  0  0  0  0  0  0  0  0
  -22.4934  -16.2431   21.5956 C   0  0  0  0  0  0  0  0  0  0  0  0
  -20.7329  -27.6793   21.8815 C   0  0  1  0  0  0  0  0  0  0  0  0
  -24.4067  -28.5844   21.5485 C   0  0  1  0  0  0  0  0  0  0  0  0
  -23.5372  -15.4271   22.3756 C   0  0  2  0  0  0  0  0  0  0  0  0
  -20.6423  -23.0502   19.3064 C   0  0  0  0  0  0  0  0  0  0  0  0
  -29.9186  -33.2226   18.7009 C   0  0  0  0  0  0  0  0  0  0  0  0
  -25.4409  -20.1129   14.6312 C   0  0  0  0  0  0  0  0  0  0  0  0
  -23.4740  -31.7452   18.3081 C   0  0  0  0  0  0  0  0  0  0  0  0
  -25.4598  -32.9489   17.3722 C   0  0  0  0  0  0  0  0  0  0  0  0
  -24.6470  -33.4850   19.6689 C   0  0  0  0  0  0  0  0  0  0  0  0
  -30.4458  -29.9656   20.5956 C   0  0  0  0  0  0  0  0  0  0  0  0
  -23.5385  -17.6300   17.4433 C   0  0  0  0  0  0  0  0  0  0  0  0
  -25.6547  -22.1639   16.0779 C   0  0  0  0  0  0  0  0  0  0  0  0
  -25.8477  -22.6311   17.5171 C   0  0  0  0  0  0  0  0  0  1  0  0
  -25.8328  -31.2909   19.2545 C   0  0  1  0  0  0  0  0  0  0  0  0
  -29.5260  -32.0680   19.6095 C   0  0  2  0  0  0  0  0  0  0  0  0
  -25.1082  -20.7359   15.9833 C   0  0  1  0  0  0  0  0  0  0  0  0
  -24.8539  -32.3393   18.6544 C   0  0  0  0  0  0  0  0  0  0  0  0
  -23.2185  -13.0167   21.9632 N   0  0  0  0  0  0  0  0  0  0  0  0
  -23.8983  -14.1367   21.6638 N   0  0  0  0  0  0  0  0  0  0  0  0
  -25.1178  -29.2477   20.4537 N   0  0  0  0  0  0  0  0  0  0  0  0
  -22.1854  -17.4862   22.3200 N   0  0  0  0  0  0  0  0  0  0  0  0
  -25.6416  -14.9806   20.3002 N   0  0  0  0  0  0  0  0  0  0  0  0
  -25.4665  -10.6088   19.1808 N   0  0  0  0  0  0  0  0  0  0  0  0
  -22.8950  -18.8761   20.5517 N   0  0  0  0  0  0  0  0  0  0  0  0
  -23.6703  -20.7433   16.1539 N   0  0  0  0  0  0  0  0  0  0  0  0
  -22.1485  -27.8967   22.0830 N   0  0  0  0  0  0  0  0  0  0  0  0
  -27.1384  -31.8314   19.6171 N   0  0  0  0  0  0  0  0  0  0  0  0
  -30.6847  -31.1365   19.7131 N   0  3  0  0  0  0  0  0  0  0  0  0
  -26.5501  -12.5905   18.7839 O   0  0  0  0  0  0  0  0  0  0  0  0
  -22.6375  -28.8226   20.0031 O   0  0  0  0  0  0  0  0  0  0  0  0
  -25.0208  -31.3377   21.4827 O   0  0  0  0  0  0  0  0  0  0  0  0
  -28.3831  -30.4202   18.2619 O   0  0  0  0  0  0  0  0  0  0  0  0
  -22.0602  -19.7862   22.5155 O   0  0  0  0  0  0  0  0  0  0  0  0
  -21.9791   -6.8077   21.2843 O   0  0  0  0  0  0  0  0  0  0  0  0
  -24.1237  -18.7852   18.0377 O   0  0  0  0  0  0  0  0  0  0  0  0
  -26.3400  -23.9704   17.5027 O   0  0  0  0  0  0  0  0  0  1  0  0
  -21.1100   -4.5040   26.2181 F   0  0  0  0  0  0  0  0  0  0  0  0
  -23.3653   -4.5439   22.0567 F   0  0  0  0  0  0  0  0  0  0  0  0
  -21.8879  -23.1212   16.5200 Cl  0  0  0  0  0  0  0  0  0  0  0  0
  1  2  1  0  0  0  0
  1  5  2  0  0  0  0
  2  6  2  0  0  0  0
  3  8  2  0  0  0  0
  3 16  1  0  0  0  0
  4  9  1  0  0  0  0
  4 16  2  0  0  0  0
  5 18  1  0  0  0  0
  6 20  1  0  0  0  0
  7 10  2  0  0  0  0
  7 19  1  0  0  0  0
  8 25  1  0  0  0  0
  9 25  2  0  0  0  0
 10 26  1  0  0  0  0
 11 12  2  0  0  0  0
 11 27  1  0  0  0  0
 12 29  1  0  0  0  0
 13 21  1  0  0  0  0
 13 26  2  0  0  0  0
 14 22  1  0  0  0  0
 14 23  2  0  0  0  0
 15 29  2  0  0  0  0
 15 30  1  0  0  0  0
 16 32  1  0  0  0  0
 17 32  1  0  0  0  0
 17 33  2  0  0  0  0
 17 34  1  0  0  0  0
 18 20  2  0  0  0  0
 18 39  1  0  0  0  0
 19 21  2  0  0  0  0
 19 40  1  0  0  0  0
 20 48  1  0  0  0  0
 21 41  1  0  0  0  0
 22 31  2  0  0  0  0
 22 51  1  0  0  0  0
 23 28  1  0  0  0  0
 23 71  1  0  0  0  0
 24 28  2  0  0  0  0
 24 31  1  0  0  0  0
 24 72  1  0  0  0  0
 25 81  1  0  0  0  0
 26 83  1  0  0  0  0
 27 30  2  0  0  0  0
 27 81  1  0  0  0  0
 28 82  1  0  0  0  0
 29 84  1  0  0  0  0
 30 85  1  0  0  0  0
 31 86  1  0  0  0  0
 32 65  2  0  0  0  0
 33 66  1  0  0  0  0
 33 69  1  0  0  0  0
 34 70  1  0  0  0  0
 34 76  2  0  0  0  0
 35 49  1  0  0  0  0
 35 73  1  0  0  0  0
 35 77  2  0  0  0  0
 36 61  1  0  0  0  0
 36 67  1  0  0  0  0
 36 78  2  0  0  0  0
 37 62  1  0  0  0  0
 37 74  1  0  0  0  0
 37 79  2  0  0  0  0
 38 68  1  0  0  0  0
 38 71  1  0  0  0  0
 38 80  2  0  0  0  0
 39 42  1  0  0  0  0
 40 49  1  0  0  0  0
 41 67  1  0  0  0  0
 42 44  1  0  0  0  0
 43 45  1  0  0  0  0
 43 46  1  0  0  0  0
 44 48  1  0  0  0  0
 45 50  1  0  0  0  0
 46 68  1  0  0  0  0
 47 50  1  0  0  0  0
 47 68  1  0  0  0  0
 48 73  1  0  0  0  0
 49 67  1  0  0  0  0
 50 66  1  0  0  0  0
 52 62  1  0  0  0  0
 53 63  1  0  0  0  0
 54 64  1  0  0  0  0
 55 64  1  0  0  0  0
 56 64  1  0  0  0  0
 57 75  1  0  0  0  0
 58 82  1  0  0  0  0
 59 60  1  0  0  0  0
 59 63  1  0  0  0  0
 60 83  1  0  0  0  0
 61 64  1  0  0  0  0
 61 74  1  0  0  0  0
 62 75  1  0  0  0  0
 63 72  1  0  0  0  0
 65 66  1  0  0  0  0
M  CHG  1  75   1
M  ISO  4  38 100  60 101  71 100  83 101
M  END
> <Batch ID>
0013

> <Smiles>
CNC(C)C(=O)NC(C(=O)N1Cc2cc([101O:1][101CH2:1]CC(C)Nc3c(Cl)c(C)cc([100NH:0][100C:0](=O)N4CCCC(n5nc(-c6ccc(Oc7ccc(F)cc7F)cc6)c(C(N)=O)c5N)C4)c3OC)ccc2CC1C(=O)NC1CCCc2ccccc21)C(C)(C)C

> <Shape>
0.205

> <Color>
0.118

> <Negative vol penalty>
0.000

$$$$

  -OEChem-04052315503D

 84 92  0     1  0  0  0  0  0999 V2000
  -37.3608  -31.6215   15.2957 C   0  0  0  0  0  0  0  0  0  0  0  0
  -37.1194  -30.7836   16.3797 C   0  0  0  0  0  0  0  0  0  0  0  0
  -23.0761   -9.8677   19.9398 C   0  0  0  0  0  0  0  0  0  0  0  0
  -23.8363   -9.8738   22.2331 C   0  0  0  0  0  0  0  0  0  0  0  0
  -36.3550  -31.8546   14.3587 C   0  0  0  0  0  0  0  0  0  0  0  0
  -35.8716  -30.1791   16.5279 C   0  0  0  0  0  0  0  0  0  0  0  0
  -34.7248  -24.6150   18.8153 C   0  0  0  0  0  0  0  0  0  0  0  0
  -31.9048  -18.3124   24.2133 C   0  0  0  0  0  0  0  0  0  0  0  0
  -22.3326   -8.7142   20.1893 C   0  0  0  0  0  0  0  0  0  0  0  0
  -23.0928   -8.7203   22.4826 C   0  0  0  0  0  0  0  0  0  0  0  0
  -34.3149  -24.1857   20.0769 C   0  0  0  0  0  0  0  0  0  0  0  0
  -21.1088   -5.9820   23.8181 C   0  0  0  0  0  0  0  0  0  0  0  0
  -32.4856  -17.0792   23.9178 C   0  0  0  0  0  0  0  0  0  0  0  0
  -20.3527   -5.9376   24.9894 C   0  0  0  0  0  0  0  0  0  0  0  0
  -32.0272  -24.1437   19.3127 C   0  0  0  0  0  0  0  0  0  0  0  0
  -19.1075   -7.8748   24.2589 C   0  0  0  0  0  0  0  0  0  0  0  0
  -23.8280  -10.4475   20.9617 C   0  0  0  0  0  0  0  0  0  0  0  0
  -24.1691  -12.9728   20.8429 C   0  0  0  0  0  0  0  0  0  0  0  0
  -35.0973  -31.2450   14.4903 C   0  0  0  0  0  0  0  0  0  0  0  0
  -33.7861  -24.8228   17.7944 C   0  0  0  0  0  0  0  0  0  0  0  0
  -34.8476  -30.4053   15.5926 C   0  0  0  0  0  0  0  0  0  0  0  0
  -32.4280  -24.5732   18.0383 C   0  0  0  0  0  0  0  0  0  0  0  0
  -30.7094  -18.6856   23.5988 C   0  0  0  0  0  0  0  0  0  0  0  0
  -30.6758  -16.5923   22.3930 C   0  0  0  0  0  0  0  0  0  0  0  0
  -22.3409   -8.1405   21.4607 C   0  0  0  0  0  0  0  0  0  0  0  0
  -32.9656  -23.9528   20.3266 C   0  0  0  0  0  0  0  0  0  0  0  0
  -20.8643   -6.9728   22.8672 C   0  0  0  0  0  0  0  0  0  0  0  0
  -19.3520   -6.8840   25.2098 C   0  0  0  0  0  0  0  0  0  0  0  0
  -31.8712  -16.2192   23.0076 C   0  0  0  0  0  0  0  0  0  0  0  0
  -19.8636   -7.9192   23.0876 C   0  0  0  0  0  0  0  0  0  0  0  0
  -30.0950  -17.8255   22.6886 C   0  0  0  0  0  0  0  0  0  0  0  0
  -24.5967  -11.6387   20.7045 C   0  0  0  0  0  0  0  0  0  0  0  0
  -25.2610  -13.7228   20.4799 C   0  0  0  0  0  0  0  0  0  0  0  0
  -22.8985  -13.4880   21.2622 C   0  0  0  0  0  0  0  0  0  0  0  0
  -32.8546  -27.3323   16.0803 C   0  0  0  0  0  0  0  0  0  0  0  0
  -31.1166  -25.1059   14.4852 C   0  0  0  0  0  0  0  0  0  0  0  0
  -31.4535  -21.7875   22.8112 C   0  0  0  0  0  0  0  0  0  0  0  0
  -29.6019  -22.0478   14.5123 C   0  0  0  0  0  0  0  0  0  0  0  0
  -30.7269  -14.7699   20.6545 C   0  0  0  0  0  0  0  0  0  0  0  0
  -34.0262  -31.5646   13.4778 C   0  0  0  0  0  0  0  0  0  0  0  0
  -34.2474  -25.2603   16.4313 C   0  0  0  0  0  0  0  0  0  0  0  0
  -31.3829  -24.7617   16.9703 C   0  0  0  0  0  0  0  0  0  0  0  0
  -32.8521  -30.5894   13.5048 C   0  0  0  0  0  0  0  0  0  0  0  0
  -29.6129  -12.3569   18.2851 C   0  0  0  0  0  0  0  0  0  0  0  0
  -32.3950  -30.3437   14.9392 C   0  0  0  0  0  0  0  0  0  0  0  0
  -28.1734  -12.0647   18.7147 C   0  0  0  0  0  0  0  0  0  0  0  0
  -30.5281  -12.5854   19.4868 C   0  0  0  0  0  0  0  0  0  0  0  0
  -28.6211  -13.3086   20.8686 C   0  0  0  0  0  0  0  0  0  0  0  0
  -33.5149  -29.7117   15.7745 C   0  0  1  0  0  0  0  0  0  0  0  0
  -33.1477  -25.9337   15.6160 C   0  0  1  0  0  0  0  0  0  0  0  0
  -27.6482  -13.1357   19.6908 C   0  0  2  0  0  0  0  0  0  0  0  0
  -28.2268  -20.5178   13.0751 C   0  0  0  0  0  0  0  0  0  0  0  0
  -28.6599  -26.8436   14.9901 C   0  0  0  0  0  0  0  0  0  0  0  0
  -27.2315  -24.8731   14.4025 C   0  0  0  0  0  0  0  0  0  0  0  0
  -28.7771  -25.8426   12.7013 C   0  0  0  0  0  0  0  0  0  0  0  0
  -31.6683  -19.9303   14.5875 C   0  0  0  0  0  0  0  0  0  0  0  0
  -30.1216  -20.0220   23.9489 C   0  0  0  0  0  0  0  0  0  0  0  0
  -31.3972  -22.7131   21.6146 C   0  0  0  0  0  0  0  0  0  1  0  0
  -29.7323  -24.5221   14.6341 C   0  0  1  0  0  0  0  0  0  0  0  0
  -29.6303  -20.9008   13.5182 C   0  0  2  0  0  0  0  0  0  0  0  0
  -28.6194  -25.5186   14.2029 C   0  0  0  0  0  0  0  0  0  0  0  0
  -25.8616  -11.5435   20.2860 N   0  0  0  0  0  0  0  0  0  0  0  0
  -26.2381  -12.8272   20.1583 N   0  0  0  0  0  0  0  0  0  0  0  0
  -31.8829  -25.1968   15.6558 N   0  0  0  0  0  0  0  0  0  0  0  0
  -29.9689  -13.6156   20.3648 N   0  0  0  0  0  0  0  0  0  0  0  0
  -25.4710  -15.0543   20.4075 N   0  0  0  0  0  0  0  0  0  0  0  0
  -21.8869  -12.5784   21.5992 N   0  0  0  0  0  0  0  0  0  0  0  0
  -30.0794  -15.6943   21.4734 N   0  0  0  0  0  0  0  0  0  0  0  0
  -33.6334  -28.3006   15.4757 N   0  0  0  0  0  0  0  0  0  0  0  0
  -30.3214  -20.9926   22.8977 N   0  0  0  0  0  0  0  0  0  0  0  0
  -29.7350  -23.2693   13.8866 N   0  0  0  0  0  0  0  0  0  0  0  0
  -30.2741  -19.7029   14.1277 N   0  3  0  0  0  0  0  0  0  0  0  0
  -22.6619  -14.7186   21.3202 O   0  0  0  0  0  0  0  0  0  0  0  0
  -31.9853  -27.5193   16.9235 O   0  0  0  0  0  0  0  0  0  0  0  0
  -31.5062  -25.4613   13.3701 O   0  0  0  0  0  0  0  0  0  0  0  0
  -32.4007  -21.7685   23.5924 O   0  0  0  0  0  0  0  0  0  0  0  0
  -29.4708  -21.8774   15.7224 O   0  0  0  0  0  0  0  0  0  0  0  0
  -31.8559  -14.9392   20.1868 O   0  0  0  0  0  0  0  0  0  0  0  0
  -21.6153   -7.0151   21.7045 O   0  0  0  0  0  0  0  0  0  0  0  0
  -32.5628  -23.5343   21.5572 O   0  0  0  0  0  0  0  0  0  1  0  0
  -18.6249   -6.8403   26.3339 F   0  0  0  0  0  0  0  0  0  0  0  0
  -32.4408  -15.0372   22.7315 F   0  0  0  0  0  0  0  0  0  0  0  0
  -19.6233   -8.8728   22.1773 F   0  0  0  0  0  0  0  0  0  0  0  0
  -28.6092  -18.2955   21.9283 Cl  0  0  0  0  0  0  0  0  0  0  0  0
  1  2  1  0  0  0  0
  1  5  2  0  0  0  0
  2  6  2  0  0  0  0
  3  9  2  0  0  0  0
  3 17  1  0  0  0  0
  4 10  1  0  0  0  0
  4 17  2  0  0  0  0
  5 19  1  0  0  0  0
  6 21  1  0  0  0  0
  7 11  2  0  0  0  0
  7 20  1  0  0  0  0
  8 13  2  0  0  0  0
  8 23  1  0  0  0  0
  9 25  1  0  0  0  0
 10 25  2  0  0  0  0
 11 26  1  0  0  0  0
 12 14  2  0  0  0  0
 12 27  1  0  0  0  0
 13 29  1  0  0  0  0
 14 28  1  0  0  0  0
 15 22  1  0  0  0  0
 15 26  2  0  0  0  0
 16 28  2  0  0  0  0
 16 30  1  0  0  0  0
 17 32  1  0  0  0  0
 18 32  1  0  0  0  0
 18 33  2  0  0  0  0
 18 34  1  0  0  0  0
 19 21  2  0  0  0  0
 19 40  1  0  0  0  0
 20 22  2  0  0  0  0
 20 41  1  0  0  0  0
 21 49  1  0  0  0  0
 22 42  1  0  0  0  0
 23 31  2  0  0  0  0
 23 57  1  0  0  0  0
 24 29  2  0  0  0  0
 24 31  1  0  0  0  0
 24 68  1  0  0  0  0
 25 79  1  0  0  0  0
 26 80  1  0  0  0  0
 27 30  2  0  0  0  0
 27 79  1  0  0  0  0
 28 81  1  0  0  0  0
 29 82  1  0  0  0  0
 30 83  1  0  0  0  0
 31 84  1  0  0  0  0
 32 62  2  0  0  0  0
 33 63  1  0  0  0  0
 33 66  1  0  0  0  0
 34 67  1  0  0  0  0
 34 73  2  0  0  0  0
 35 50  1  0  0  0  0
 35 69  1  0  0  0  0
 35 74  2  0  0  0  0
 36 59  1  0  0  0  0
 36 64  1  0  0  0  0
 36 75  2  0  0  0  0
 37 58  1  0  0  0  0
 37 70  1  0  0  0  0
 37 76  2  0  0  0  0
 38 60  1  0  0  0  0
 38 71  1  0  0  0  0
 38 77  2  0  0  0  0
 39 65  1  0  0  0  0
 39 68  1  0  0  0  0
 39 78  2  0  0  0  0
 40 43  1  0  0  0  0
 41 50  1  0  0  0  0
 42 64  1  0  0  0  0
 43 45  1  0  0  0  0
 44 46  1  0  0  0  0
 44 47  1  0  0  0  0
 45 49  1  0  0  0  0
 46 51  1  0  0  0  0
 47 65  1  0  0  0  0
 48 51  1  0  0  0  0
 48 65  1  0  0  0  0
 49 69  1  0  0  0  0
 50 64  1  0  0  0  0
 51 63  1  0  0  0  0
 52 60  1  0  0  0  0
 53 61  1  0  0  0  0
 54 61  1  0  0  0  0
 55 61  1  0  0  0  0
 56 72  1  0  0  0  0
 57 70  1  0  0  0  0
 58 80  1  0  0  0  0
 59 61  1  0  0  0  0
 59 71  1  0  0  0  0
 60 72  1  0  0  0  0
 62 63  1  0  0  0  0
M  CHG  1  72   1
M  ISO  4  39 100  58 101  68 100  80 101
M  END
> <Batch ID>
0013

> <Smiles>
CNC(C)C(=O)NC(C(=O)N1Cc2cc([101O:1][101CH2:1]C(=O)NCc3ccc(F)c([100NH:0][100C:0](=O)N4CCCC(n5nc(-c6ccc(Oc7ccc(F)cc7F)cc6)c(C(N)=O)c5N)C4)c3Cl)ccc2CC1C(=O)NC1CCCc2ccccc21)C(C)(C)C

> <Shape>
0.178

> <Color>
0.191

> <Negative vol penalty>
0.000

$$$$

  -OEChem-04052315503D

 85 93  0     1  0  0  0  0  0999 V2000
  -28.1930  -33.9565   25.3702 C   0  0  0  0  0  0  0  0  0  0  0  0
  -28.3044  -32.6784   24.8322 C   0  0  0  0  0  0  0  0  0  0  0  0
  -21.3434  -10.4988   21.9455 C   0  0  0  0  0  0  0  0  0  0  0  0
  -23.6039  -10.2036   21.1457 C   0  0  0  0  0  0  0  0  0  0  0  0
  -26.9430  -34.4476   25.7445 C   0  0  0  0  0  0  0  0  0  0  0  0
  -27.1657  -31.8902   24.6690 C   0  0  0  0  0  0  0  0  0  0  0  0
  -27.0279  -29.5853   20.1620 C   0  0  0  0  0  0  0  0  0  0  0  0
  -21.1300   -9.1237   21.8502 C   0  0  0  0  0  0  0  0  0  0  0  0
  -23.3906   -8.8284   21.0504 C   0  0  0  0  0  0  0  0  0  0  0  0
  -27.8257  -28.4534   20.0011 C   0  0  0  0  0  0  0  0  0  0  0  0
  -23.3058   -6.1721   23.1378 C   0  0  0  0  0  0  0  0  0  0  0  0
  -24.3021   -5.3277   23.6277 C   0  0  0  0  0  0  0  0  0  0  0  0
  -25.8974  -27.0501   20.3637 C   0  0  0  0  0  0  0  0  0  0  0  0
  -28.7624  -19.8204   20.5712 C   0  0  0  0  0  0  0  0  0  0  0  0
  -26.9961  -19.8983   18.4133 C   0  0  0  0  0  0  0  0  0  0  0  0
  -24.5563   -4.3535   21.4315 C   0  0  0  0  0  0  0  0  0  0  0  0
  -22.5803  -11.0388   21.5932 C   0  0  0  0  0  0  0  0  0  0  0  0
  -23.2882  -13.1693   22.8047 C   0  0  0  0  0  0  0  0  0  0  0  0
  -25.7872  -33.6687   25.5769 C   0  0  0  0  0  0  0  0  0  0  0  0
  -25.6586  -29.4578   20.4363 C   0  0  0  0  0  0  0  0  0  0  0  0
  -25.8992  -32.3708   25.0426 C   0  0  0  0  0  0  0  0  0  0  0  0
  -25.0839  -28.1819   20.5252 C   0  0  0  0  0  0  0  0  0  0  0  0
  -27.5676  -19.1025   20.6218 C   0  0  0  0  0  0  0  0  0  0  0  0
  -29.0741  -20.5773   19.4418 C   0  0  0  0  0  0  0  0  0  0  0  0
  -26.6844  -19.1414   19.5428 C   0  0  0  0  0  0  0  0  0  0  0  0
  -22.1536   -8.2885   21.4027 C   0  0  0  0  0  0  0  0  0  0  0  0
  -27.2611  -27.1855   20.1048 C   0  0  0  0  0  0  0  0  0  0  0  0
  -22.9346   -6.1071   21.7948 C   0  0  0  0  0  0  0  0  0  0  0  0
  -24.9274   -4.4185   22.7745 C   0  0  0  0  0  0  0  0  0  0  0  0
  -28.1909  -20.6162   18.3628 C   0  0  0  0  0  0  0  0  0  0  0  0
  -23.5599   -5.1978   20.9416 C   0  0  0  0  0  0  0  0  0  0  0  0
  -22.8012  -12.4593   21.6909 C   0  0  0  0  0  0  0  0  0  0  0  0
  -23.3143  -14.4791   22.3923 C   0  0  0  0  0  0  0  0  0  0  0  0
  -23.6819  -12.6878   24.0966 C   0  0  0  0  0  0  0  0  0  0  0  0
  -23.7649  -30.3056   22.8444 C   0  0  0  0  0  0  0  0  0  0  0  0
  -21.4247  -29.2414   20.8662 C   0  0  0  0  0  0  0  0  0  0  0  0
  -29.8463  -23.7628   19.7331 C   0  0  0  0  0  0  0  0  0  0  0  0
  -20.5313  -27.2458   18.2458 C   0  0  0  0  0  0  0  0  0  0  0  0
  -24.4906  -18.3629   18.5798 C   0  0  0  0  0  0  0  0  0  0  0  0
  -24.4638  -34.2244   26.0400 C   0  0  0  0  0  0  0  0  0  0  0  0
  -24.8064  -30.6889   20.5807 C   0  0  0  0  0  0  0  0  0  0  0  0
  -23.6150  -27.9911   20.7981 C   0  0  0  0  0  0  0  0  0  0  0  0
  -23.2585  -33.4682   25.4869 C   0  0  0  0  0  0  0  0  0  0  0  0
  -21.3732  -16.6719   18.2637 C   0  0  0  0  0  0  0  0  0  0  0  0
  -23.4624  -31.9630   25.6271 C   0  0  0  0  0  0  0  0  0  0  0  0
  -21.5069  -15.4836   19.2188 C   0  0  0  0  0  0  0  0  0  0  0  0
  -22.6923  -16.9846   17.5593 C   0  0  0  0  0  0  0  0  0  0  0  0
  -23.9774  -15.9820   19.4066 C   0  0  0  0  0  0  0  0  0  0  0  0
  -24.6841  -31.4949   24.8271 C   0  0  1  0  0  0  0  0  0  0  0  0
  -23.5235  -30.4386   21.3673 C   0  0  1  0  0  0  0  0  0  0  0  0
  -22.6907  -15.6700   20.1881 C   0  0  2  0  0  0  0  0  0  0  0  0
  -27.2594  -18.3000   21.8443 C   0  0  0  0  0  0  0  0  0  0  0  0
  -18.5398  -26.5596   16.8817 C   0  0  0  0  0  0  0  0  0  0  0  0
  -20.4775  -27.4556   23.1518 C   0  0  0  0  0  0  0  0  0  0  0  0
  -19.1470  -26.1453   21.4841 C   0  0  0  0  0  0  0  0  0  0  0  0
  -18.6419  -28.5590   21.8605 C   0  0  0  0  0  0  0  0  0  0  0  0
  -21.7274  -28.3044   15.7543 C   0  0  0  0  0  0  0  0  0  0  0  0
  -30.3610  -21.3488   19.3902 C   0  0  0  0  0  0  0  0  0  0  0  0
  -29.9086  -24.8346   20.8101 C   0  0  0  0  0  0  0  0  0  0  0  0
  -29.4084  -26.1884   20.3303 C   0  0  0  0  0  0  0  0  0  1  0  0
  -20.7509  -27.9121   20.6253 C   0  0  1  0  0  0  0  0  0  0  0  0
  -19.7082  -27.5257   17.0014 C   0  0  2  0  0  0  0  0  0  0  0  0
  -19.7824  -27.5213   21.7772 C   0  0  0  0  0  0  0  0  0  0  0  0
  -22.5368  -13.2524   20.6493 N   0  0  0  0  0  0  0  0  0  0  0  0
  -22.8587  -14.4743   21.1068 N   0  0  0  0  0  0  0  0  0  0  0  0
  -22.8248  -29.2254   20.9379 N   0  0  0  0  0  0  0  0  0  0  0  0
  -23.7667  -17.1524   18.5403 N   0  0  0  0  0  0  0  0  0  0  0  0
  -23.6822  -15.6230   23.0076 N   0  0  0  0  0  0  0  0  0  0  0  0
  -23.5922  -11.3128   24.3530 N   0  0  0  0  0  0  0  0  0  0  0  0
  -25.4657  -18.4193   19.5751 N   0  0  0  0  0  0  0  0  0  0  0  0
  -24.3637  -31.4108   23.4183 N   0  0  0  0  0  0  0  0  0  0  0  0
  -30.3091  -22.5423   20.2036 N   0  0  0  0  0  0  0  0  0  0  0  0
  -20.1143  -28.0084   19.3162 N   0  0  0  0  0  0  0  0  0  0  0  0
  -20.5534  -27.3945   15.7809 N   0  3  0  0  0  0  0  0  0  0  0  0
  -24.0852  -13.4561   25.0023 O   0  0  0  0  0  0  0  0  0  0  0  0
  -23.4311  -29.2771   23.4209 O   0  0  0  0  0  0  0  0  0  0  0  0
  -20.7345  -30.2575   20.9792 O   0  0  0  0  0  0  0  0  0  0  0  0
  -29.4340  -23.9737   18.5959 O   0  0  0  0  0  0  0  0  0  0  0  0
  -21.4498  -26.4294   18.2672 O   0  0  0  0  0  0  0  0  0  0  0  0
  -24.2441  -19.2920   17.8065 O   0  0  0  0  0  0  0  0  0  0  0  0
  -21.9458   -6.9466   21.3098 O   0  0  0  0  0  0  0  0  0  0  0  0
  -28.0377  -26.0789   19.9488 O   0  0  0  0  0  0  0  0  0  1  0  0
  -25.8852   -3.6088   23.2447 F   0  0  0  0  0  0  0  0  0  0  0  0
  -28.4818  -21.3408   17.2734 F   0  0  0  0  0  0  0  0  0  0  0  0
  -23.2084   -5.1316   19.6501 F   0  0  0  0  0  0  0  0  0  0  0  0
  1  2  1  0  0  0  0
  1  5  2  0  0  0  0
  2  6  2  0  0  0  0
  3  8  2  0  0  0  0
  3 17  1  0  0  0  0
  4  9  1  0  0  0  0
  4 17  2  0  0  0  0
  5 19  1  0  0  0  0
  6 21  1  0  0  0  0
  7 10  2  0  0  0  0
  7 20  1  0  0  0  0
  8 26  1  0  0  0  0
  9 26  2  0  0  0  0
 10 27  1  0  0  0  0
 11 12  2  0  0  0  0
 11 28  1  0  0  0  0
 12 29  1  0  0  0  0
 13 22  1  0  0  0  0
 13 27  2  0  0  0  0
 14 23  2  0  0  0  0
 14 24  1  0  0  0  0
 15 25  2  0  0  0  0
 15 30  1  0  0  0  0
 16 29  2  0  0  0  0
 16 31  1  0  0  0  0
 17 32  1  0  0  0  0
 18 32  1  0  0  0  0
 18 33  2  0  0  0  0
 18 34  1  0  0  0  0
 19 21  2  0  0  0  0
 19 40  1  0  0  0  0
 20 22  2  0  0  0  0
 20 41  1  0  0  0  0
 21 49  1  0  0  0  0
 22 42  1  0  0  0  0
 23 25  1  0  0  0  0
 23 52  1  0  0  0  0
 24 30  2  0  0  0  0
 24 58  1  0  0  0  0
 25 70  1  0  0  0  0
 26 81  1  0  0  0  0
 27 82  1  0  0  0  0
 28 31  2  0  0  0  0
 28 81  1  0  0  0  0
 29 83  1  0  0  0  0
 30 84  1  0  0  0  0
 31 85  1  0  0  0  0
 32 64  2  0  0  0  0
 33 65  1  0  0  0  0
 33 68  1  0  0  0  0
 34 69  1  0  0  0  0
 34 75  2  0  0  0  0
 35 50  1  0  0  0  0
 35 71  1  0  0  0  0
 35 76  2  0  0  0  0
 36 61  1  0  0  0  0
 36 66  1  0  0  0  0
 36 77  2  0  0  0  0
 37 59  1  0  0  0  0
 37 72  1  0  0  0  0
 37 78  2  0  0  0  0
 38 62  1  0  0  0  0
 38 73  1  0  0  0  0
 38 79  2  0  0  0  0
 39 67  1  0  0  0  0
 39 70  1  0  0  0  0
 39 80  2  0  0  0  0
 40 43  1  0  0  0  0
 41 50  1  0  0  0  0
 42 66  1  0  0  0  0
 43 45  1  0  0  0  0
 44 46  1  0  0  0  0
 44 47  1  0  0  0  0
 45 49  1  0  0  0  0
 46 51  1  0  0  0  0
 47 67  1  0  0  0  0
 48 51  1  0  0  0  0
 48 67  1  0  0  0  0
 49 71  1  0  0  0  0
 50 66  1  0  0  0  0
 51 65  1  0  0  0  0
 53 62  1  0  0  0  0
 54 63  1  0  0  0  0
 55 63  1  0  0  0  0
 56 63  1  0  0  0  0
 57 74  1  0  0  0  0
 58 72  1  0  0  0  0
 59 60  1  0  0  0  0
 60 82  1  0  0  0  0
 61 63  1  0  0  0  0
 61 73  1  0  0  0  0
 62 74  1  0  0  0  0
 64 65  1  0  0  0  0
M  CHG  1  74   1
M  ISO  4  39 100  60 101  70 100  82 101
M  END
> <Batch ID>
0013

> <Smiles>
CNC(C)C(=O)NC(C(=O)N1Cc2cc([101O:1][101CH2:1]CC(=O)NCc3cc(C)c([100NH:0][100C:0](=O)N4CCCC(n5nc(-c6ccc(Oc7ccc(F)cc7F)cc6)c(C(N)=O)c5N)C4)cc3F)ccc2CC1C(=O)NC1CCCc2ccccc21)C(C)(C)C

> <Shape>
0.271

> <Color>
0.085

> <Negative vol penalty>
0.000

$$$$

  -OEChem-04052315503D

 82 90  0     1  0  0  0  0  0999 V2000
  -23.4118  -17.3033   33.7351 C   0  0  0  0  0  0  0  0  0  0  0  0
  -24.6406  -16.8739   33.2440 C   0  0  0  0  0  0  0  0  0  0  0  0
  -23.1907   -9.8196   19.9320 C   0  0  0  0  0  0  0  0  0  0  0  0
  -23.5710   -9.9995   22.3111 C   0  0  0  0  0  0  0  0  0  0  0  0
  -22.5028  -16.3760   34.2428 C   0  0  0  0  0  0  0  0  0  0  0  0
  -24.9614  -15.5170   33.2612 C   0  0  0  0  0  0  0  0  0  0  0  0
  -27.0367  -13.9562   28.9135 C   0  0  0  0  0  0  0  0  0  0  0  0
  -22.4251   -8.6725   20.1411 C   0  0  0  0  0  0  0  0  0  0  0  0
  -22.8053   -8.8524   22.5202 C   0  0  0  0  0  0  0  0  0  0  0  0
  -28.3801  -14.2638   28.7027 C   0  0  0  0  0  0  0  0  0  0  0  0
  -23.2076   -5.5060   22.2549 C   0  0  0  0  0  0  0  0  0  0  0  0
  -23.7071   -4.5446   23.1334 C   0  0  0  0  0  0  0  0  0  0  0  0
  -28.9905  -12.0268   29.3680 C   0  0  0  0  0  0  0  0  0  0  0  0
  -32.0234  -15.0965   26.0961 C   0  0  0  0  0  0  0  0  0  0  0  0
  -21.7516   -4.8034   24.5285 C   0  0  0  0  0  0  0  0  0  0  0  0
  -23.7637  -10.4830   21.0170 C   0  0  0  0  0  0  0  0  0  0  0  0
  -24.1011  -12.9999   20.7737 C   0  0  0  0  0  0  0  0  0  0  0  0
  -22.8087  -15.0060   34.2573 C   0  0  0  0  0  0  0  0  0  0  0  0
  -26.6604  -12.6828   29.3644 C   0  0  0  0  0  0  0  0  0  0  0  0
  -24.0562  -14.5707   33.7707 C   0  0  0  0  0  0  0  0  0  0  0  0
  -27.6415  -11.7048   29.5813 C   0  0  0  0  0  0  0  0  0  0  0  0
  -32.0579  -13.7041   26.1699 C   0  0  0  0  0  0  0  0  0  0  0  0
  -31.5780  -12.9373   25.1081 C   0  0  0  0  0  0  0  0  0  0  0  0
  -31.0292  -14.9554   23.8986 C   0  0  0  0  0  0  0  0  0  0  0  0
  -31.5090  -15.7222   24.9604 C   0  0  0  0  0  0  0  0  0  0  0  0
  -31.0637  -13.5630   23.9725 C   0  0  0  0  0  0  0  0  0  0  0  0
  -22.2324   -8.1890   21.4352 C   0  0  0  0  0  0  0  0  0  0  0  0
  -29.3575  -13.3000   28.9327 C   0  0  0  0  0  0  0  0  0  0  0  0
  -21.9801   -6.1162   22.5132 C   0  0  0  0  0  0  0  0  0  0  0  0
  -22.9792   -4.1933   24.2702 C   0  0  0  0  0  0  0  0  0  0  0  0
  -21.2521   -5.7648   23.6500 C   0  0  0  0  0  0  0  0  0  0  0  0
  -24.5552  -11.6676   20.8016 C   0  0  0  0  0  0  0  0  0  0  0  0
  -25.2318  -13.7431   20.5376 C   0  0  0  0  0  0  0  0  0  0  0  0
  -22.7758  -13.5192   20.9458 C   0  0  0  0  0  0  0  0  0  0  0  0
  -25.1958  -11.5621   31.9533 C   0  0  0  0  0  0  0  0  0  0  0  0
  -25.3290   -8.7533   30.3361 C   0  0  0  0  0  0  0  0  0  0  0  0
  -26.8515   -6.8591   27.9402 C   0  0  0  0  0  0  0  0  0  0  0  0
  -31.0376  -12.7846   21.5767 C   0  0  0  0  0  0  0  0  0  0  0  0
  -21.8133  -14.0463   34.8594 C   0  0  0  0  0  0  0  0  0  0  0  0
  -25.2049  -12.3585   29.5613 C   0  0  0  0  0  0  0  0  0  0  0  0
  -27.2880  -10.3165   30.0462 C   0  0  0  0  0  0  0  0  0  0  0  0
  -22.0781  -12.5872   34.4972 C   0  0  0  0  0  0  0  0  0  0  0  0
  -29.5221  -13.4664   18.4278 C   0  0  0  0  0  0  0  0  0  0  0  0
  -23.5555  -12.2523   34.6764 C   0  0  0  0  0  0  0  0  0  0  0  0
  -28.0343  -13.2096   18.6783 C   0  0  0  0  0  0  0  0  0  0  0  0
  -30.4043  -12.4816   19.1929 C   0  0  0  0  0  0  0  0  0  0  0  0
  -28.6461  -12.1389   20.8842 C   0  0  0  0  0  0  0  0  0  0  0  0
  -24.4307  -13.1046   33.7495 C   0  0  1  0  0  0  0  0  0  0  0  0
  -24.9769  -11.1893   30.5143 C   0  0  1  0  0  0  0  0  0  0  0  0
  -27.7192  -13.1472   20.1857 C   0  0  2  0  0  0  0  0  0  0  0  0
  -31.6153  -11.4433   25.1961 C   0  0  0  0  0  0  0  0  0  0  0  0
  -30.4794  -15.6302   22.6799 C   0  0  0  0  0  0  0  0  0  0  0  0
  -27.2324   -4.9091   26.4072 C   0  0  0  0  0  0  0  0  0  0  0  0
  -26.6612   -7.5422   32.7995 C   0  0  0  0  0  0  0  0  0  0  0  0
  -27.3914   -5.6187   31.3729 C   0  0  0  0  0  0  0  0  0  0  0  0
  -24.9608   -6.0716   31.7039 C   0  0  0  0  0  0  0  0  0  0  0  0
  -25.1242   -8.0250   25.8388 C   0  0  0  0  0  0  0  0  0  0  0  0
  -32.6185  -13.0526   27.4107 C   0  0  0  0  0  0  0  0  0  0  0  0
  -31.5250  -12.5259   28.3337 C   0  0  0  0  0  0  0  0  0  1  0  0
  -26.3222   -7.6204   30.2412 C   0  0  1  0  0  0  0  0  0  0  0  0
  -26.2859   -6.0332   26.7990 C   0  0  2  0  0  0  0  0  0  0  0  0
  -26.3410   -6.7399   31.5225 C   0  0  0  0  0  0  0  0  0  0  0  0
  -25.8716  -11.5672   20.5993 N   0  0  0  0  0  0  0  0  0  0  0  0
  -26.2544  -12.8457   20.4419 N   0  0  0  0  0  0  0  0  0  0  0  0
  -25.8519  -10.0500   30.2306 N   0  0  0  0  0  0  0  0  0  0  0  0
  -30.0518  -12.4796   20.6144 N   0  0  0  0  0  0  0  0  0  0  0  0
  -31.4844  -17.1335   24.9047 N   0  0  0  0  0  0  0  0  0  0  0  0
  -25.4411  -15.0700   20.4045 N   0  0  0  0  0  0  0  0  0  0  0  0
  -21.7298  -12.6164   21.1805 N   0  0  0  0  0  0  0  0  0  0  0  0
  -30.5779  -12.7838   22.8932 N   0  0  0  0  0  0  0  0  0  0  0  0
  -24.3859  -12.5898   32.3977 N   0  0  0  0  0  0  0  0  0  0  0  0
  -25.9950   -6.8920   29.0203 N   0  0  0  0  0  0  0  0  0  0  0  0
  -26.0554   -6.8918   25.6029 N   0  3  0  0  0  0  0  0  0  0  0  0
  -22.5241  -14.7461   20.8767 O   0  0  0  0  0  0  0  0  0  0  0  0
  -26.0361  -10.9609   32.6121 O   0  0  0  0  0  0  0  0  0  0  0  0
  -24.1323   -8.4971   30.4909 O   0  0  0  0  0  0  0  0  0  0  0  0
  -27.9455   -7.4161   27.8810 O   0  0  0  0  0  0  0  0  0  0  0  0
  -32.1972  -13.0553   21.2544 O   0  0  0  0  0  0  0  0  0  0  0  0
  -21.4851   -7.0699   21.6396 O   0  0  0  0  0  0  0  0  0  0  0  0
  -30.6695  -13.5978   28.7284 O   0  0  0  0  0  0  0  0  0  1  0  0
  -23.4583   -3.2690   25.1130 F   0  0  0  0  0  0  0  0  0  0  0  0
  -20.0717   -6.3467   23.9028 F   0  0  0  0  0  0  0  0  0  0  0  0
  1  2  1  0  0  0  0
  1  5  2  0  0  0  0
  2  6  2  0  0  0  0
  3  8  2  0  0  0  0
  3 16  1  0  0  0  0
  4  9  1  0  0  0  0
  4 16  2  0  0  0  0
  5 18  1  0  0  0  0
  6 20  1  0  0  0  0
  7 10  2  0  0  0  0
  7 19  1  0  0  0  0
  8 27  1  0  0  0  0
  9 27  2  0  0  0  0
 10 28  1  0  0  0  0
 11 12  2  0  0  0  0
 11 29  1  0  0  0  0
 12 30  1  0  0  0  0
 13 21  1  0  0  0  0
 13 28  2  0  0  0  0
 14 22  1  0  0  0  0
 14 25  2  0  0  0  0
 15 30  2  0  0  0  0
 15 31  1  0  0  0  0
 16 32  1  0  0  0  0
 17 32  1  0  0  0  0
 17 33  2  0  0  0  0
 17 34  1  0  0  0  0
 18 20  2  0  0  0  0
 18 39  1  0  0  0  0
 19 21  2  0  0  0  0
 19 40  1  0  0  0  0
 20 48  1  0  0  0  0
 21 41  1  0  0  0  0
 22 23  2  0  0  0  0
 22 58  1  0  0  0  0
 23 26  1  0  0  0  0
 23 51  1  0  0  0  0
 24 25  1  0  0  0  0
 24 26  2  0  0  0  0
 24 52  1  0  0  0  0
 25 67  1  0  0  0  0
 26 70  1  0  0  0  0
 27 79  1  0  0  0  0
 28 80  1  0  0  0  0
 29 31  2  0  0  0  0
 29 79  1  0  0  0  0
 30 81  1  0  0  0  0
 31 82  1  0  0  0  0
 32 63  2  0  0  0  0
 33 64  1  0  0  0  0
 33 68  1  0  0  0  0
 34 69  1  0  0  0  0
 34 74  2  0  0  0  0
 35 49  1  0  0  0  0
 35 71  1  0  0  0  0
 35 75  2  0  0  0  0
 36 60  1  0  0  0  0
 36 65  1  0  0  0  0
 36 76  2  0  0  0  0
 37 61  1  0  0  0  0
 37 72  1  0  0  0  0
 37 77  2  0  0  0  0
 38 66  1  0  0  0  0
 38 70  1  0  0  0  0
 38 78  2  0  0  0  0
 39 42  1  0  0  0  0
 40 49  1  0  0  0  0
 41 65  1  0  0  0  0
 42 44  1  0  0  0  0
 43 45  1  0  0  0  0
 43 46  1  0  0  0  0
 44 48  1  0  0  0  0
 45 50  1  0  0  0  0
 46 66  1  0  0  0  0
 47 50  1  0  0  0  0
 47 66  1  0  0  0  0
 48 71  1  0  0  0  0
 49 65  1  0  0  0  0
 50 64  1  0  0  0  0
 53 61  1  0  0  0  0
 54 62  1  0  0  0  0
 55 62  1  0  0  0  0
 56 62  1  0  0  0  0
 57 73  1  0  0  0  0
 58 59  1  0  0  0  0
 59 80  1  0  0  0  0
 60 62  1  0  0  0  0
 60 72  1  0  0  0  0
 61 73  1  0  0  0  0
 63 64  1  0  0  0  0
M  CHG  1  73   1
M  ISO  4  38 100  59 101  70 100  80 101
M  END
> <Batch ID>
0013

> <Smiles>
CNC(C)C(=O)NC(C(=O)N1Cc2cc([101O:1][101CH2:1]Cc3cc(N)c(C)c([100NH:0][100C:0](=O)N4CCCC(n5nc(-c6ccc(Oc7ccc(F)cc7F)cc6)c(C(N)=O)c5N)C4)c3C)ccc2CC1C(=O)NC1CCCc2ccccc21)C(C)(C)C

> <Shape>
0.148

> <Color>
0.182

> <Negative vol penalty>
0.000

$$$$

  -OEChem-04052315503D

 84 92  0     1  0  0  0  0  0999 V2000
  -28.4288  -33.7552   28.9678 C   0  0  0  0  0  0  0  0  0  0  0  0
  -28.9591  -32.4694   28.9405 C   0  0  0  0  0  0  0  0  0  0  0  0
  -22.9976   -9.8958   19.9880 C   0  0  0  0  0  0  0  0  0  0  0  0
  -23.7153   -9.9609   22.2940 C   0  0  0  0  0  0  0  0  0  0  0  0
  -27.2225  -34.0243   28.3225 C   0  0  0  0  0  0  0  0  0  0  0  0
  -28.2829  -31.4516   28.2687 C   0  0  0  0  0  0  0  0  0  0  0  0
  -30.7775  -26.7763   25.1988 C   0  0  0  0  0  0  0  0  0  0  0  0
  -22.2284   -8.7643   20.2592 C   0  0  0  0  0  0  0  0  0  0  0  0
  -22.9461   -8.8294   22.5653 C   0  0  0  0  0  0  0  0  0  0  0  0
  -31.0164  -25.4473   25.5458 C   0  0  0  0  0  0  0  0  0  0  0  0
  -23.1867   -5.4870   22.1162 C   0  0  0  0  0  0  0  0  0  0  0  0
  -23.7702   -4.4739   22.8769 C   0  0  0  0  0  0  0  0  0  0  0  0
  -28.9484  -24.8043   24.4832 C   0  0  0  0  0  0  0  0  0  0  0  0
  -31.9008  -18.3113   24.1628 C   0  0  0  0  0  0  0  0  0  0  0  0
  -22.0412   -4.7305   24.5448 C   0  0  0  0  0  0  0  0  0  0  0  0
  -23.7411  -10.4941   21.0053 C   0  0  0  0  0  0  0  0  0  0  0  0
  -24.1309  -13.0079   20.8140 C   0  0  0  0  0  0  0  0  0  0  0  0
  -26.5360  -33.0115   27.6344 C   0  0  0  0  0  0  0  0  0  0  0  0
  -29.6149  -27.1314   24.4997 C   0  0  0  0  0  0  0  0  0  0  0  0
  -27.0656  -31.7071   27.6148 C   0  0  0  0  0  0  0  0  0  0  0  0
  -28.6983  -26.1382   24.1263 C   0  0  0  0  0  0  0  0  0  0  0  0
  -30.7242  -18.6867   23.5145 C   0  0  0  0  0  0  0  0  0  0  0  0
  -30.6737  -16.5576   22.3735 C   0  0  0  0  0  0  0  0  0  0  0  0
  -22.2026   -8.2311   21.5479 C   0  0  0  0  0  0  0  0  0  0  0  0
  -30.1005  -24.4615   25.1905 C   0  0  0  0  0  0  0  0  0  0  0  0
  -22.0305   -6.1220   22.5698 C   0  0  0  0  0  0  0  0  0  0  0  0
  -23.1974   -4.0956   24.0912 C   0  0  0  0  0  0  0  0  0  0  0  0
  -32.4639  -17.0592   23.9165 C   0  0  0  0  0  0  0  0  0  0  0  0
  -21.4577   -5.7437   23.7841 C   0  0  0  0  0  0  0  0  0  0  0  0
  -31.8504  -16.1823   23.0219 C   0  0  0  0  0  0  0  0  0  0  0  0
  -30.1106  -17.8098   22.6199 C   0  0  0  0  0  0  0  0  0  0  0  0
  -24.5363  -11.6627   20.7256 C   0  0  0  0  0  0  0  0  0  0  0  0
  -25.2430  -13.7263   20.4485 C   0  0  0  0  0  0  0  0  0  0  0  0
  -22.8626  -13.5588   21.1928 C   0  0  0  0  0  0  0  0  0  0  0  0
  -27.1102  -28.9910   25.1101 C   0  0  0  0  0  0  0  0  0  0  0  0
  -26.3465  -28.3089   22.0322 C   0  0  0  0  0  0  0  0  0  0  0  0
  -30.6902  -20.9306   24.6537 C   0  0  0  0  0  0  0  0  0  0  0  0
  -26.6436  -26.1879   19.3751 C   0  0  0  0  0  0  0  0  0  0  0  0
  -30.7232  -14.6805   20.6942 C   0  0  0  0  0  0  0  0  0  0  0  0
  -25.2115  -33.3397   26.9919 C   0  0  0  0  0  0  0  0  0  0  0  0
  -29.3849  -28.5657   24.1096 C   0  0  0  0  0  0  0  0  0  0  0  0
  -27.4448  -26.4644   23.3577 C   0  0  0  0  0  0  0  0  0  0  0  0
  -24.7462  -32.2905   25.9854 C   0  0  0  0  0  0  0  0  0  0  0  0
  -29.6087  -12.2140   18.3808 C   0  0  0  0  0  0  0  0  0  0  0  0
  -24.9041  -30.8882   26.5646 C   0  0  0  0  0  0  0  0  0  0  0  0
  -28.1563  -11.9614   18.7919 C   0  0  0  0  0  0  0  0  0  0  0  0
  -30.5056  -12.4640   19.5919 C   0  0  0  0  0  0  0  0  0  0  0  0
  -28.5871  -13.2646   20.9139 C   0  0  0  0  0  0  0  0  0  0  0  0
  -26.3741  -30.5821   26.8757 C   0  0  1  0  0  0  0  0  0  0  0  0
  -27.9165  -28.8853   23.8466 C   0  0  1  0  0  0  0  0  0  0  0  0
  -27.6331  -13.0719   19.7238 C   0  0  2  0  0  0  0  0  0  0  0  0
  -25.8737  -25.8771   17.0070 C   0  0  0  0  0  0  0  0  0  0  0  0
  -23.6127  -27.4055   23.0421 C   0  0  0  0  0  0  0  0  0  0  0  0
  -23.2615  -26.2504   20.8487 C   0  0  0  0  0  0  0  0  0  0  0  0
  -23.5562  -28.7265   20.9193 C   0  0  0  0  0  0  0  0  0  0  0  0
  -29.4133  -26.2970   18.3379 C   0  0  0  0  0  0  0  0  0  0  0  0
  -29.8043  -22.1625   24.6585 C   0  0  0  0  0  0  0  0  0  1  0  0
  -25.5485  -27.2286   21.3429 C   0  0  1  0  0  0  0  0  0  0  0  0
  -26.9565  -26.4440   17.9119 C   0  0  2  0  0  0  0  0  0  0  0  0
  -24.0173  -27.3966   21.5544 C   0  0  0  0  0  0  0  0  0  0  0  0
  -25.8067  -11.5316   20.3345 N   0  0  0  0  0  0  0  0  0  0  0  0
  -26.2091  -12.8037   20.1738 N   0  0  0  0  0  0  0  0  0  0  0  0
  -27.2616  -27.8820   23.0048 N   0  0  0  0  0  0  0  0  0  0  0  0
  -29.9495  -13.5313   20.4264 N   0  0  0  0  0  0  0  0  0  0  0  0
  -25.4789  -15.0510   20.3385 N   0  0  0  0  0  0  0  0  0  0  0  0
  -21.8283  -12.6785   21.5387 N   0  0  0  0  0  0  0  0  0  0  0  0
  -30.1836  -19.9650   23.7905 N   0  0  0  0  0  0  0  0  0  0  0  0
  -30.0778  -15.6418   21.4714 N   0  0  0  0  0  0  0  0  0  0  0  0
  -27.0910  -30.2581   25.6610 N   0  0  0  0  0  0  0  0  0  0  0  0
  -25.9637  -27.2438   19.9444 N   0  0  0  0  0  0  0  0  0  0  0  0
  -28.2555  -25.8141   17.5421 N   0  3  0  0  0  0  0  0  0  0  0  0
  -22.6477  -14.7946   21.2077 O   0  0  0  0  0  0  0  0  0  0  0  0
  -26.5461  -27.9968   25.5518 O   0  0  0  0  0  0  0  0  0  0  0  0
  -26.1697  -29.4876   21.7141 O   0  0  0  0  0  0  0  0  0  0  0  0
  -31.7022  -20.8642   25.3437 O   0  0  0  0  0  0  0  0  0  0  0  0
  -26.9665  -25.1530   19.9541 O   0  0  0  0  0  0  0  0  0  0  0  0
  -31.8635  -14.8146   20.2430 O   0  0  0  0  0  0  0  0  0  0  0  0
  -21.4520   -7.1271   21.8130 O   0  0  0  0  0  0  0  0  0  0  0  0
  -30.3310  -23.1636   25.5285 O   0  0  0  0  0  0  0  0  0  1  0  0
  -23.7569   -3.1216   24.8209 F   0  0  0  0  0  0  0  0  0  0  0  0
  -33.5938  -16.6988   24.5390 F   0  0  0  0  0  0  0  0  0  0  0  0
  -20.3463   -6.3492   24.2245 F   0  0  0  0  0  0  0  0  0  0  0  0
  -32.4021  -14.9817   22.7941 F   0  0  0  0  0  0  0  0  0  0  0  0
  -28.6465  -18.2774   21.8134 Cl  0  0  0  0  0  0  0  0  0  0  0  0
  1  2  1  0  0  0  0
  1  5  2  0  0  0  0
  2  6  2  0  0  0  0
  3  8  2  0  0  0  0
  3 16  1  0  0  0  0
  4  9  1  0  0  0  0
  4 16  2  0  0  0  0
  5 18  1  0  0  0  0
  6 20  1  0  0  0  0
  7 10  2  0  0  0  0
  7 19  1  0  0  0  0
  8 24  1  0  0  0  0
  9 24  2  0  0  0  0
 10 25  1  0  0  0  0
 11 12  2  0  0  0  0
 11 26  1  0  0  0  0
 12 27  1  0  0  0  0
 13 21  1  0  0  0  0
 13 25  2  0  0  0  0
 14 22  1  0  0  0  0
 14 28  2  0  0  0  0
 15 27  2  0  0  0  0
 15 29  1  0  0  0  0
 16 32  1  0  0  0  0
 17 32  1  0  0  0  0
 17 33  2  0  0  0  0
 17 34  1  0  0  0  0
 18 20  2  0  0  0  0
 18 40  1  0  0  0  0
 19 21  2  0  0  0  0
 19 41  1  0  0  0  0
 20 49  1  0  0  0  0
 21 42  1  0  0  0  0
 22 31  2  0  0  0  0
 22 67  1  0  0  0  0
 23 30  2  0  0  0  0
 23 31  1  0  0  0  0
 23 68  1  0  0  0  0
 24 78  1  0  0  0  0
 25 79  1  0  0  0  0
 26 29  2  0  0  0  0
 26 78  1  0  0  0  0
 27 80  1  0  0  0  0
 28 30  1  0  0  0  0
 28 81  1  0  0  0  0
 29 82  1  0  0  0  0
 30 83  1  0  0  0  0
 31 84  1  0  0  0  0
 32 61  2  0  0  0  0
 33 62  1  0  0  0  0
 33 65  1  0  0  0  0
 34 66  1  0  0  0  0
 34 72  2  0  0  0  0
 35 50  1  0  0  0  0
 35 69  1  0  0  0  0
 35 73  2  0  0  0  0
 36 58  1  0  0  0  0
 36 63  1  0  0  0  0
 36 74  2  0  0  0  0
 37 57  1  0  0  0  0
 37 67  1  0  0  0  0
 37 75  2  0  0  0  0
 38 59  1  0  0  0  0
 38 70  1  0  0  0  0
 38 76  2  0  0  0  0
 39 64  1  0  0  0  0
 39 68  1  0  0  0  0
 39 77  2  0  0  0  0
 40 43  1  0  0  0  0
 41 50  1  0  0  0  0
 42 63  1  0  0  0  0
 43 45  1  0  0  0  0
 44 46  1  0  0  0  0
 44 47  1  0  0  0  0
 45 49  1  0  0  0  0
 46 51  1  0  0  0  0
 47 64  1  0  0  0  0
 48 51  1  0  0  0  0
 48 64  1  0  0  0  0
 49 69  1  0  0  0  0
 50 63  1  0  0  0  0
 51 62  1  0  0  0  0
 52 59  1  0  0  0  0
 53 60  1  0  0  0  0
 54 60  1  0  0  0  0
 55 60  1  0  0  0  0
 56 71  1  0  0  0  0
 57 79  1  0  0  0  0
 58 60  1  0  0  0  0
 58 70  1  0  0  0  0
 59 71  1  0  0  0  0
 61 62  1  0  0  0  0
M  CHG  1  71   1
M  ISO  4  39 100  57 101  68 100  79 101
M  END
> <Batch ID>
0013

> <Smiles>
CNC(C)C(=O)NC(C(=O)N1Cc2cc([101O:1][101CH2:1]C(=O)Nc3cc(F)c(F)c([100NH:0][100C:0](=O)N4CCCC(n5nc(-c6ccc(Oc7ccc(F)cc7F)cc6)c(C(N)=O)c5N)C4)c3Cl)ccc2CC1C(=O)NC1CCCc2ccccc21)C(C)(C)C

> <Shape>
0.270

> <Color>
0.198

> <Negative vol penalty>
0.000

$$$$

  -OEChem-04052315503D

 84 92  0     1  0  0  0  0  0999 V2000
  -27.8167  -24.4500   16.6160 C   0  0  0  0  0  0  0  0  0  0  0  0
  -26.6508  -24.6657   17.3437 C   0  0  0  0  0  0  0  0  0  0  0  0
  -25.3882  -14.9206   19.9856 C   0  0  0  0  0  0  0  0  0  0  0  0
  -23.0553  -14.5698   20.5068 C   0  0  0  0  0  0  0  0  0  0  0  0
  -29.0341  -24.9347   17.0924 C   0  0  0  0  0  0  0  0  0  0  0  0
  -26.7018  -25.3654   18.5488 C   0  0  0  0  0  0  0  0  0  0  0  0
  -23.0005  -28.7970   18.9609 C   0  0  0  0  0  0  0  0  0  0  0  0
  -25.7031  -13.6934   20.5691 C   0  0  0  0  0  0  0  0  0  0  0  0
  -23.3702  -13.3426   21.0903 C   0  0  0  0  0  0  0  0  0  0  0  0
  -21.7312  -28.3273   19.2956 C   0  0  0  0  0  0  0  0  0  0  0  0
  -23.5124   -9.9524   22.3958 C   0  0  0  0  0  0  0  0  0  0  0  0
  -22.7027   -8.8595   22.0864 C   0  0  0  0  0  0  0  0  0  0  0  0
  -22.0966  -28.9900   21.5862 C   0  0  0  0  0  0  0  0  0  0  0  0
  -16.5868  -22.6569   23.1422 C   0  0  0  0  0  0  0  0  0  0  0  0
  -23.2621   -9.1067   19.7491 C   0  0  0  0  0  0  0  0  0  0  0  0
  -24.0643  -15.3588   19.9545 C   0  0  0  0  0  0  0  0  0  0  0  0
  -23.4015  -16.8672   18.0069 C   0  0  0  0  0  0  0  0  0  0  0  0
  -29.0986  -25.6490   18.2992 C   0  0  0  0  0  0  0  0  0  0  0  0
  -23.8330  -29.3577   19.9402 C   0  0  0  0  0  0  0  0  0  0  0  0
  -27.9214  -25.8589   19.0425 C   0  0  0  0  0  0  0  0  0  0  0  0
  -23.3750  -29.4684   21.2608 C   0  0  0  0  0  0  0  0  0  0  0  0
  -16.7992  -21.3444   22.7352 C   0  0  0  0  0  0  0  0  0  0  0  0
  -24.6941  -12.9044   21.1214 C   0  0  0  0  0  0  0  0  0  0  0  0
  -21.2801  -28.4212   20.6089 C   0  0  0  0  0  0  0  0  0  0  0  0
  -24.1969  -10.6225   21.3818 C   0  0  0  0  0  0  0  0  0  0  0  0
  -22.5776   -8.4367   20.7631 C   0  0  0  0  0  0  0  0  0  0  0  0
  -24.0718  -10.1996   20.0585 C   0  0  0  0  0  0  0  0  0  0  0  0
  -18.0740  -20.9370   22.3582 C   0  0  0  0  0  0  0  0  0  0  0  0
  -23.7384  -16.6266   19.3524 C   0  0  0  0  0  0  0  0  0  0  0  0
  -17.6738  -23.5160   23.1543 C   0  0  0  0  0  0  0  0  0  0  0  0
  -19.0943  -21.8732   22.4052 C   0  0  0  0  0  0  0  0  0  0  0  0
  -23.1830  -18.2217   17.9445 C   0  0  0  0  0  0  0  0  0  0  0  0
  -23.2954  -15.9483   16.9114 C   0  0  0  0  0  0  0  0  0  0  0  0
  -26.6769  -28.6230   21.1553 C   0  0  0  0  0  0  0  0  0  0  0  0
  -26.3109  -31.4491   22.7050 C   0  0  0  0  0  0  0  0  0  0  0  0
  -24.1943  -33.8392   23.9109 C   0  0  0  0  0  0  0  0  0  0  0  0
  -21.5481  -22.2844   22.0098 C   0  0  0  0  0  0  0  0  0  0  0  0
  -30.4446  -26.1125   18.7973 C   0  0  0  0  0  0  0  0  0  0  0  0
  -25.1892  -29.8840   19.5577 C   0  0  0  0  0  0  0  0  0  0  0  0
  -24.2221  -30.0805   22.3453 C   0  0  0  0  0  0  0  0  0  0  0  0
  -30.3567  -27.1685   19.8962 C   0  0  0  0  0  0  0  0  0  0  0  0
  -24.5040  -22.3277   20.0254 C   0  0  0  0  0  0  0  0  0  0  0  0
  -29.3341  -26.7577   20.9509 C   0  0  0  0  0  0  0  0  0  0  0  0
  -24.6091  -20.8941   19.5002 C   0  0  0  0  0  0  0  0  0  0  0  0
  -23.9690  -22.3700   21.4557 C   0  0  0  0  0  0  0  0  0  0  0  0
  -22.8107  -20.2184   21.1422 C   0  0  0  0  0  0  0  0  0  0  0  0
  -27.9322  -26.6348   20.3417 C   0  0  1  0  0  0  0  0  0  0  0  0
  -26.1523  -29.9677   20.7378 C   0  0  1  0  0  0  0  0  0  0  0  0
  -23.2837  -20.1287   19.6821 C   0  0  2  0  0  0  0  0  0  0  0  0
  -15.6329  -20.4101   22.7180 C   0  0  0  0  0  0  0  0  0  0  0  0
  -24.1871  -36.0134   25.1639 C   0  0  0  0  0  0  0  0  0  0  0  0
  -26.8450  -29.9483   25.3073 C   0  0  0  0  0  0  0  0  0  0  0  0
  -25.9038  -31.9078   26.5492 C   0  0  0  0  0  0  0  0  0  0  0  0
  -27.9490  -32.1867   25.1485 C   0  0  0  0  0  0  0  0  0  0  0  0
  -16.0979  -25.2547   23.9630 C   0  0  0  0  0  0  0  0  0  0  0  0
  -22.9423  -35.2741   21.6454 C   0  0  0  0  0  0  0  0  0  0  0  0
  -18.7712  -26.4084   22.2530 C   0  0  0  0  0  0  0  0  0  0  0  0
  -18.5135  -25.8032   23.6276 C   0  0  0  0  0  0  0  0  0  0  0  0
  -19.8632  -27.4717   22.2663 C   0  0  0  0  0  0  0  0  0  1  0  0
  -25.7074  -31.8764   24.0211 C   0  0  1  0  0  0  0  0  0  0  0  0
  -24.2128  -35.3526   23.7944 C   0  0  2  0  0  0  0  0  0  0  0  0
  -26.5859  -31.4664   25.2367 C   0  0  0  0  0  0  0  0  0  0  0  0
  -23.7357  -17.7392   20.0914 N   0  0  0  0  0  0  0  0  0  0  0  0
  -18.9265  -23.1567   22.7950 N   0  0  0  0  0  0  0  0  0  0  0  0
  -23.3944  -18.6919   19.2072 N   0  0  0  0  0  0  0  0  0  0  0  0
  -25.5429  -30.5749   21.9227 N   0  0  0  0  0  0  0  0  0  0  0  0
  -22.7098  -21.6282   21.5509 N   0  0  0  0  0  0  0  0  0  0  0  0
  -22.8326  -19.0446   16.9333 N   0  0  0  0  0  0  0  0  0  0  0  0
  -23.5534  -14.5915   17.1500 N   0  0  0  0  0  0  0  0  0  0  0  0
  -20.4041  -21.4872   22.0268 N   0  0  0  0  0  0  0  0  0  0  0  0
  -27.3459  -27.9446   20.1545 N   0  0  0  0  0  0  0  0  0  0  0  0
  -25.4682  -33.3115   23.9137 N   0  0  0  0  0  0  0  0  0  0  0  0
  -17.4441  -24.8362   23.5676 N   0  0  3  0  0  0  0  0  0  0  0  0
  -23.0304  -35.8272   23.0214 N   0  3  0  0  0  0  0  0  0  0  0  0
  -22.9970  -16.3218   15.7516 O   0  0  0  0  0  0  0  0  0  0  0  0
  -26.4899  -28.2306   22.3011 O   0  0  0  0  0  0  0  0  0  0  0  0
  -27.4197  -31.8809   22.3795 O   0  0  0  0  0  0  0  0  0  0  0  0
  -23.1539  -33.1903   23.9949 O   0  0  0  0  0  0  0  0  0  0  0  0
  -21.5608  -23.4742   22.3359 O   0  0  0  0  0  0  0  0  0  0  0  0
  -25.0010  -11.7068   21.6907 O   0  0  0  0  0  0  0  0  0  0  0  0
  -20.0419  -27.9629   20.9385 O   0  0  0  0  0  0  0  0  0  1  0  0
  -21.8012   -7.3863   20.4663 F   0  0  0  0  0  0  0  0  0  0  0  0
  -24.7279  -10.8387   19.0802 F   0  0  0  0  0  0  0  0  0  0  0  0
  -18.3577  -19.3093   21.8496 Cl  0  0  0  0  0  0  0  0  0  0  0  0
  1  2  1  0  0  0  0
  1  5  2  0  0  0  0
  2  6  2  0  0  0  0
  3  8  2  0  0  0  0
  3 16  1  0  0  0  0
  4  9  1  0  0  0  0
  4 16  2  0  0  0  0
  5 18  1  0  0  0  0
  6 20  1  0  0  0  0
  7 10  2  0  0  0  0
  7 19  1  0  0  0  0
  8 23  1  0  0  0  0
  9 23  2  0  0  0  0
 10 24  1  0  0  0  0
 11 12  2  0  0  0  0
 11 25  1  0  0  0  0
 12 26  1  0  0  0  0
 13 21  1  0  0  0  0
 13 24  2  0  0  0  0
 14 22  2  0  0  0  0
 14 30  1  0  0  0  0
 15 26  2  0  0  0  0
 15 27  1  0  0  0  0
 16 29  1  0  0  0  0
 17 29  1  0  0  0  0
 17 32  2  0  0  0  0
 17 33  1  0  0  0  0
 18 20  2  0  0  0  0
 18 38  1  0  0  0  0
 19 21  2  0  0  0  0
 19 39  1  0  0  0  0
 20 47  1  0  0  0  0
 21 40  1  0  0  0  0
 22 28  1  0  0  0  0
 22 50  1  0  0  0  0
 23 80  1  0  0  0  0
 24 81  1  0  0  0  0
 25 27  2  0  0  0  0
 25 80  1  0  0  0  0
 26 82  1  0  0  0  0
 27 83  1  0  0  0  0
 28 31  2  0  0  0  0
 28 84  1  0  0  0  0
 29 63  2  0  0  0  0
 30 64  2  0  0  0  0
 30 73  1  0  0  0  0
 31 64  1  0  0  0  0
 31 70  1  0  0  0  0
 32 65  1  0  0  0  0
 32 68  1  0  0  0  0
 33 69  1  0  0  0  0
 33 75  2  0  0  0  0
 34 48  1  0  0  0  0
 34 71  1  0  0  0  0
 34 76  2  0  0  0  0
 35 60  1  0  0  0  0
 35 66  1  0  0  0  0
 35 77  2  0  0  0  0
 36 61  1  0  0  0  0
 36 72  1  0  0  0  0
 36 78  2  0  0  0  0
 37 67  1  0  0  0  0
 37 70  1  0  0  0  0
 37 79  2  0  0  0  0
 38 41  1  0  0  0  0
 39 48  1  0  0  0  0
 40 66  1  0  0  0  0
 41 43  1  0  0  0  0
 42 44  1  0  0  0  0
 42 45  1  0  0  0  0
 43 47  1  0  0  0  0
 44 49  1  0  0  0  0
 45 67  1  0  0  0  0
 46 49  1  0  0  0  0
 46 67  1  0  0  0  0
 47 71  1  0  0  0  0
 48 66  1  0  0  0  0
 49 65  1  0  0  0  0
 51 61  1  0  0  0  0
 52 62  1  0  0  0  0
 53 62  1  0  0  0  0
 54 62  1  0  0  0  0
 55 73  1  0  0  0  0
 56 74  1  0  0  0  0
 57 58  1  0  0  0  0
 57 59  1  0  0  0  0
 58 73  1  0  0  0  0
 59 81  1  0  0  0  0
 60 62  1  0  0  0  0
 60 72  1  0  0  0  0
 61 74  1  0  0  0  0
 63 65  1  0  0  0  0
M  CHG  1  74   1
M  ISO  4  37 100  59 101  70 100  81 101
M  END
> <Batch ID>
0013

> <Smiles>
CNC(C)C(=O)NC(C(=O)N1Cc2cc([101O:1][101CH2:1]CCN(C)c3cc(C)c(Cl)c([100NH:0][100C:0](=O)N4CCCC(n5nc(-c6ccc(Oc7ccc(F)cc7F)cc6)c(C(N)=O)c5N)C4)n3)ccc2CC1C(=O)NC1CCCc2ccccc21)C(C)(C)C

> <Shape>
0.262

> <Color>
0.075

> <Negative vol penalty>
0.000

$$$$

  -OEChem-04052315503D

 81 88  0     1  0  0  0  0  0999 V2000
  -27.8415  -22.5454   28.8245 C   0  0  0  0  0  0  0  0  0  0  0  0
  -28.4416  -23.1362   27.7171 C   0  0  0  0  0  0  0  0  0  0  0  0
  -24.7298  -13.0695   21.6835 C   0  0  0  0  0  0  0  0  0  0  0  0
  -25.7786  -13.0722   19.5070 C   0  0  0  0  0  0  0  0  0  0  0  0
  -26.4745  -22.2713   28.8118 C   0  0  0  0  0  0  0  0  0  0  0  0
  -27.6751  -23.4523   26.5959 C   0  0  0  0  0  0  0  0  0  0  0  0
  -28.4213  -28.2462   22.8586 C   0  0  0  0  0  0  0  0  0  0  0  0
  -23.9465  -11.9793   21.3047 C   0  0  0  0  0  0  0  0  0  0  0  0
  -24.9953  -11.9820   19.1282 C   0  0  0  0  0  0  0  0  0  0  0  0
  -29.0422  -28.3804   21.6176 C   0  0  0  0  0  0  0  0  0  0  0  0
  -24.3215   -8.6343   20.9839 C   0  0  0  0  0  0  0  0  0  0  0  0
  -24.1953   -7.5809   21.8894 C   0  0  0  0  0  0  0  0  0  0  0  0
  -26.9100  -28.0930   20.5265 C   0  0  0  0  0  0  0  0  0  0  0  0
  -21.8026   -7.9119   21.9409 C   0  0  0  0  0  0  0  0  0  0  0  0
  -25.6458  -13.6160   20.7846 C   0  0  0  0  0  0  0  0  0  0  0  0
  -27.7227  -14.7076   21.7859 C   0  0  0  0  0  0  0  0  0  0  0  0
  -25.6891  -22.5930   27.6936 C   0  0  0  0  0  0  0  0  0  0  0  0
  -27.0394  -28.0233   22.9427 C   0  0  0  0  0  0  0  0  0  0  0  0
  -26.2966  -23.1810   26.5677 C   0  0  0  0  0  0  0  0  0  0  0  0
  -26.2736  -27.9590   21.7699 C   0  0  0  0  0  0  0  0  0  0  0  0
  -24.0793  -11.4355   20.0270 C   0  0  0  0  0  0  0  0  0  0  0  0
  -28.2870  -28.3009   20.4512 C   0  0  0  0  0  0  0  0  0  0  0  0
  -23.1883   -9.3265   20.5568 C   0  0  0  0  0  0  0  0  0  0  0  0
  -22.9359   -7.2197   22.3680 C   0  0  0  0  0  0  0  0  0  0  0  0
  -21.9289   -8.9653   21.0353 C   0  0  0  0  0  0  0  0  0  0  0  0
  -26.4548  -14.7425   21.1752 C   0  0  0  0  0  0  0  0  0  0  0  0
  -28.0614  -16.0285   21.9499 C   0  0  0  0  0  0  0  0  0  0  0  0
  -28.5228  -13.5817   22.1706 C   0  0  0  0  0  0  0  0  0  0  0  0
  -25.2095  -25.6849   24.0774 C   0  0  0  0  0  0  0  0  0  0  0  0
  -22.8091  -27.7513   23.3770 C   0  0  0  0  0  0  0  0  0  0  0  0
  -28.8208  -24.6165   18.9895 C   0  0  0  0  0  0  0  0  0  0  0  0
  -21.7190  -30.4081   21.5331 C   0  0  0  0  0  0  0  0  0  0  0  0
  -28.4895  -21.1108   19.9665 C   0  0  0  0  0  0  0  0  0  0  0  0
  -24.2242  -22.2345   27.7080 C   0  0  0  0  0  0  0  0  0  0  0  0
  -26.3806  -27.9074   24.2899 C   0  0  0  0  0  0  0  0  0  0  0  0
  -24.7837  -27.7412   21.8066 C   0  0  0  0  0  0  0  0  0  0  0  0
  -23.4131  -22.9430   26.6262 C   0  0  0  0  0  0  0  0  0  0  0  0
  -25.2939  -20.2297   21.4187 C   0  0  0  0  0  0  0  0  0  0  0  0
  -24.1304  -22.8626   25.2824 C   0  0  0  0  0  0  0  0  0  0  0  0
  -25.4211  -18.7096   21.5344 C   0  0  0  0  0  0  0  0  0  0  0  0
  -25.9543  -20.7442   20.1431 C   0  0  0  0  0  0  0  0  0  0  0  0
  -27.5142  -18.8366   20.1051 C   0  0  0  0  0  0  0  0  0  0  0  0
  -25.4941  -23.5613   25.3423 C   0  0  1  0  0  0  0  0  0  0  0  0
  -25.0462  -27.1696   24.2411 C   0  0  1  0  0  0  0  0  0  0  0  0
  -26.8857  -18.2570   21.3854 C   0  0  2  0  0  0  0  0  0  0  0  0
  -19.6980  -31.8468   21.1550 C   0  0  0  0  0  0  0  0  0  0  0  0
  -28.7424  -24.1985   22.2187 C   0  0  0  0  0  0  0  0  0  0  0  0
  -30.8273  -22.8731   21.7900 C   0  0  0  0  0  0  0  0  0  0  0  0
  -21.5162  -25.5069   21.7642 C   0  0  0  0  0  0  0  0  0  0  0  0
  -20.0639  -27.2262   20.6673 C   0  0  0  0  0  0  0  0  0  0  0  0
  -19.9198  -26.8626   23.1310 C   0  0  0  0  0  0  0  0  0  0  0  0
  -23.1543  -32.8508   22.3887 C   0  0  0  0  0  0  0  0  0  0  0  0
  -30.4969  -27.4910   17.7235 C   0  0  0  0  0  0  0  0  0  0  0  0
  -29.6106  -26.3096   17.3525 C   0  0  0  0  0  0  0  0  0  0  0  0
  -30.2470  -27.9984   19.1385 C   0  0  0  0  0  0  0  0  0  1  0  0
  -21.9495  -28.0203   22.1655 C   0  0  1  0  0  0  0  0  0  0  0  0
  -29.3192  -23.4456   19.8340 C   0  0  1  0  0  0  0  0  0  0  0  0
  -20.9951  -31.6815   21.9316 C   0  0  2  0  0  0  0  0  0  0  0  0
  -29.8549  -23.9035   21.2071 C   0  0  0  0  0  0  0  0  0  0  0  0
  -20.8907  -26.9062   21.9309 C   0  0  0  0  0  0  0  0  0  0  0  0
  -26.0176  -15.9871   20.9655 N   0  0  0  0  0  0  0  0  0  0  0  0
  -27.0164  -16.7464   21.4473 N   0  0  0  0  0  0  0  0  0  0  0  0
  -24.1868  -27.6277   23.1476 N   0  0  0  0  0  0  0  0  0  0  0  0
  -27.3515  -20.2939   20.0716 N   0  0  0  0  0  0  0  0  0  0  0  0
  -29.1482  -16.6343   22.4736 N   0  0  0  0  0  0  0  0  0  0  0  0
  -28.0243  -12.2942   21.9295 N   0  0  0  0  0  0  0  0  0  0  0  0
  -25.3298  -24.9973   25.2700 N   0  0  0  0  0  0  0  0  0  0  0  0
  -29.8268  -25.1746   18.2066 N   0  0  0  0  0  0  0  0  0  0  0  0
  -21.3840  -29.3519   22.3538 N   0  0  0  0  0  0  0  0  0  0  0  0
  -28.2485  -22.4788   19.9340 N   0  0  0  0  0  0  0  0  0  0  0  0
  -21.8549  -32.8700   21.6689 N   0  3  0  0  0  0  0  0  0  0  0  0
  -29.6393  -13.7135   22.7269 O   0  0  0  0  0  0  0  0  0  0  0  0
  -25.2238  -25.1990   22.9525 O   0  0  0  0  0  0  0  0  0  0  0  0
  -22.2786  -27.6614   24.4870 O   0  0  0  0  0  0  0  0  0  0  0  0
  -27.6630  -25.0278   19.0323 O   0  0  0  0  0  0  0  0  0  0  0  0
  -22.5005  -30.3547   20.5860 O   0  0  0  0  0  0  0  0  0  0  0  0
  -29.6367  -20.6548   19.9111 O   0  0  0  0  0  0  0  0  0  0  0  0
  -23.3153  -10.3715   19.6571 O   0  0  0  0  0  0  0  0  0  0  0  0
  -28.8907  -28.4308   19.2385 O   0  0  0  0  0  0  0  0  0  1  0  0
  -22.8146   -6.2072   23.2364 F   0  0  0  0  0  0  0  0  0  0  0  0
  -20.8365   -9.6259   20.6278 F   0  0  0  0  0  0  0  0  0  0  0  0
  1  2  1  0  0  0  0
  1  5  2  0  0  0  0
  2  6  2  0  0  0  0
  3  8  2  0  0  0  0
  3 15  1  0  0  0  0
  4  9  1  0  0  0  0
  4 15  2  0  0  0  0
  5 17  1  0  0  0  0
  6 19  1  0  0  0  0
  7 10  2  0  0  0  0
  7 18  1  0  0  0  0
  8 21  1  0  0  0  0
  9 21  2  0  0  0  0
 10 22  1  0  0  0  0
 11 12  2  0  0  0  0
 11 23  1  0  0  0  0
 12 24  1  0  0  0  0
 13 20  1  0  0  0  0
 13 22  2  0  0  0  0
 14 24  2  0  0  0  0
 14 25  1  0  0  0  0
 15 26  1  0  0  0  0
 16 26  1  0  0  0  0
 16 27  2  0  0  0  0
 16 28  1  0  0  0  0
 17 19  2  0  0  0  0
 17 34  1  0  0  0  0
 18 20  2  0  0  0  0
 18 35  1  0  0  0  0
 19 43  1  0  0  0  0
 20 36  1  0  0  0  0
 21 78  1  0  0  0  0
 22 79  1  0  0  0  0
 23 25  2  0  0  0  0
 23 78  1  0  0  0  0
 24 80  1  0  0  0  0
 25 81  1  0  0  0  0
 26 61  2  0  0  0  0
 27 62  1  0  0  0  0
 27 65  1  0  0  0  0
 28 66  1  0  0  0  0
 28 72  2  0  0  0  0
 29 44  1  0  0  0  0
 29 67  1  0  0  0  0
 29 73  2  0  0  0  0
 30 56  1  0  0  0  0
 30 63  1  0  0  0  0
 30 74  2  0  0  0  0
 31 57  1  0  0  0  0
 31 68  1  0  0  0  0
 31 75  2  0  0  0  0
 32 58  1  0  0  0  0
 32 69  1  0  0  0  0
 32 76  2  0  0  0  0
 33 64  1  0  0  0  0
 33 70  1  0  0  0  0
 33 77  2  0  0  0  0
 34 37  1  0  0  0  0
 35 44  1  0  0  0  0
 36 63  1  0  0  0  0
 37 39  1  0  0  0  0
 38 40  1  0  0  0  0
 38 41  1  0  0  0  0
 39 43  1  0  0  0  0
 40 45  1  0  0  0  0
 41 64  1  0  0  0  0
 42 45  1  0  0  0  0
 42 64  1  0  0  0  0
 43 67  1  0  0  0  0
 44 63  1  0  0  0  0
 45 62  1  0  0  0  0
 46 58  1  0  0  0  0
 47 59  1  0  0  0  0
 48 59  1  0  0  0  0
 49 60  1  0  0  0  0
 50 60  1  0  0  0  0
 51 60  1  0  0  0  0
 52 71  1  0  0  0  0
 53 54  1  0  0  0  0
 53 55  1  0  0  0  0
 54 68  1  0  0  0  0
 55 79  1  0  0  0  0
 56 60  1  0  0  0  0
 56 69  1  0  0  0  0
 57 59  1  0  0  0  0
 57 70  1  0  0  0  0
 58 71  1  0  0  0  0
 61 62  1  0  0  0  0
M  CHG  1  71   1
M  ISO  4  33 100  55 101  70 100  79 101
M  END
> <Batch ID>
0013

> <Smiles>
CNC(C)C(=O)NC(C(=O)N1Cc2cc([101O:1][101CH2:1]CCNC(=O)C([100NH:0][100C:0](=O)N3CCCC(n4nc(-c5ccc(Oc6ccc(F)cc6F)cc5)c(C(N)=O)c4N)C3)C(C)C)ccc2CC1C(=O)NC1CCCc2ccccc21)C(C)(C)C

> <Shape>
0.235

> <Color>
0.064

> <Negative vol penalty>
0.000

$$$$

  -OEChem-04052315503D

 84 92  0     1  0  0  0  0  0999 V2000
  -17.7172  -17.4450   18.3964 C   0  0  0  0  0  0  0  0  0  0  0  0
  -18.8908  -17.7479   19.0793 C   0  0  0  0  0  0  0  0  0  0  0  0
  -22.6326  -10.2793   20.2302 C   0  0  0  0  0  0  0  0  0  0  0  0
  -24.2514   -9.5325   21.8608 C   0  0  0  0  0  0  0  0  0  0  0  0
  -17.7660  -16.6690   17.2391 C   0  0  0  0  0  0  0  0  0  0  0  0
  -20.1138  -17.2740   18.6059 C   0  0  0  0  0  0  0  0  0  0  0  0
  -23.7268  -20.8218   18.6657 C   0  0  0  0  0  0  0  0  0  0  0  0
  -31.2428  -17.6071   20.6817 C   0  0  0  0  0  0  0  0  0  0  0  0
  -21.8766   -9.1286   20.4536 C   0  0  0  0  0  0  0  0  0  0  0  0
  -23.4954   -8.3817   22.0842 C   0  0  0  0  0  0  0  0  0  0  0  0
  -24.3206  -21.1052   19.8949 C   0  0  0  0  0  0  0  0  0  0  0  0
  -19.6893   -7.9958   22.7699 C   0  0  0  0  0  0  0  0  0  0  0  0
  -31.4555  -18.9856   20.6996 C   0  0  0  0  0  0  0  0  0  0  0  0
  -18.3101   -8.1444   22.9154 C   0  0  0  0  0  0  0  0  0  0  0  0
  -26.2047  -19.7225   19.2966 C   0  0  0  0  0  0  0  0  0  0  0  0
  -17.9539   -6.7094   21.0047 C   0  0  0  0  0  0  0  0  0  0  0  0
  -23.8200  -10.4813   20.9338 C   0  0  0  0  0  0  0  0  0  0  0  0
  -24.1942  -13.0043   20.8879 C   0  0  0  0  0  0  0  0  0  0  0  0
  -18.9912  -16.1934   16.7458 C   0  0  0  0  0  0  0  0  0  0  0  0
  -24.3635  -19.9765   17.7457 C   0  0  0  0  0  0  0  0  0  0  0  0
  -20.1788  -16.4897   17.4416 C   0  0  0  0  0  0  0  0  0  0  0  0
  -25.6180  -19.4321   18.0554 C   0  0  0  0  0  0  0  0  0  0  0  0
  -30.3385  -17.0293   21.5727 C   0  0  0  0  0  0  0  0  0  0  0  0
  -29.8595  -19.2084   22.4997 C   0  0  0  0  0  0  0  0  0  0  0  0
  -22.3080   -8.1798   21.3806 C   0  0  0  0  0  0  0  0  0  0  0  0
  -25.5584  -20.5532   20.2117 C   0  0  0  0  0  0  0  0  0  0  0  0
  -20.2009   -7.2041   21.7417 C   0  0  0  0  0  0  0  0  0  0  0  0
  -17.4424   -7.5012   22.0329 C   0  0  0  0  0  0  0  0  0  0  0  0
  -30.7639  -19.7862   21.6086 C   0  0  0  0  0  0  0  0  0  0  0  0
  -19.3331   -6.5609   20.8591 C   0  0  0  0  0  0  0  0  0  0  0  0
  -29.6468  -17.8299   22.4817 C   0  0  0  0  0  0  0  0  0  0  0  0
  -24.6017  -11.6695   20.7031 C   0  0  0  0  0  0  0  0  0  0  0  0
  -25.2916  -13.7504   20.5337 C   0  0  0  0  0  0  0  0  0  0  0  0
  -22.9363  -13.5232   21.3396 C   0  0  0  0  0  0  0  0  0  0  0  0
  -23.6575  -17.1819   16.4058 C   0  0  0  0  0  0  0  0  0  0  0  0
  -26.3485  -17.7656   14.6913 C   0  0  0  0  0  0  0  0  0  0  0  0
  -27.9212  -20.6291   23.0457 C   0  0  0  0  0  0  0  0  0  0  0  0
  -29.7450  -18.9291   14.3342 C   0  0  0  0  0  0  0  0  0  0  0  0
  -30.7732  -14.7186   20.6682 C   0  0  0  0  0  0  0  0  0  0  0  0
  -18.9888  -15.3187   15.5172 C   0  0  0  0  0  0  0  0  0  0  0  0
  -23.7220  -19.7021   16.4131 C   0  0  0  0  0  0  0  0  0  0  0  0
  -26.3523  -18.5348   17.0941 C   0  0  0  0  0  0  0  0  0  0  0  0
  -20.3648  -15.1689   14.8734 C   0  0  0  0  0  0  0  0  0  0  0  0
  -29.5960  -12.3949   18.2409 C   0  0  0  0  0  0  0  0  0  0  0  0
  -21.4201  -14.8683   15.9331 C   0  0  0  0  0  0  0  0  0  0  0  0
  -28.1582  -12.1088   18.6803 C   0  0  0  0  0  0  0  0  0  0  0  0
  -30.5295  -12.5740   19.4368 C   0  0  0  0  0  0  0  0  0  0  0  0
  -28.6504  -13.2797   20.8652 C   0  0  0  0  0  0  0  0  0  0  0  0
  -21.5274  -16.0148   16.9457 C   0  0  1  0  0  0  0  0  0  0  0  0
  -24.2228  -18.4164   15.7624 C   0  0  1  0  0  0  0  0  0  0  0  0
  -27.6602  -13.1561   19.6956 C   0  0  2  0  0  0  0  0  0  0  0  0
  -31.2127  -19.0809   12.3044 C   0  0  0  0  0  0  0  0  0  0  0  0
  -27.3529  -15.0214   15.5691 C   0  0  0  0  0  0  0  0  0  0  0  0
  -29.6522  -15.7133   14.8602 C   0  0  0  0  0  0  0  0  0  0  0  0
  -27.8156  -15.5854   13.1770 C   0  0  0  0  0  0  0  0  0  0  0  0
  -29.7604  -20.3384   24.7454 C   0  0  0  0  0  0  0  0  0  0  0  0
  -30.2457  -21.8134   14.7691 C   0  0  0  0  0  0  0  0  0  0  0  0
  -27.4088  -20.2283   21.6698 C   0  0  0  0  0  0  0  0  0  1  0  0
  -27.8167  -17.4631   14.8700 C   0  0  1  0  0  0  0  0  0  0  0  0
  -30.2850  -19.8362   13.2433 C   0  0  2  0  0  0  0  0  0  0  0  0
  -28.1448  -15.9611   14.6382 C   0  0  0  0  0  0  0  0  0  0  0  0
  -25.8596  -11.5703   20.2652 N   0  0  0  0  0  0  0  0  0  0  0  0
  -26.2521  -12.8522   20.1719 N   0  0  0  0  0  0  0  0  0  0  0  0
  -25.6811  -18.2913   15.8066 N   0  0  0  0  0  0  0  0  0  0  0  0
  -29.9958  -13.5841   20.3532 N   0  0  0  0  0  0  0  0  0  0  0  0
  -25.5189  -15.0807   20.4994 N   0  0  0  0  0  0  0  0  0  0  0  0
  -22.7521  -13.7266   22.7140 N   0  0  0  0  0  0  0  0  0  0  0  0
  -30.1489  -15.6260   21.5236 N   0  0  0  0  0  0  0  0  0  0  0  0
  -22.2773  -17.1174   16.3833 N   0  0  0  0  0  0  0  0  0  0  0  0
  -28.5321  -18.3748   13.9837 N   0  0  0  0  0  0  0  0  0  0  0  0
  -29.1592  -20.0710   23.4297 N   0  0  0  0  0  0  0  0  0  0  0  0
  -31.0437  -20.9708   13.8415 N   0  3  0  0  0  0  0  0  0  0  0  0
  -21.9974  -13.7830   20.5493 O   0  0  0  0  0  0  0  0  0  0  0  0
  -24.4172  -16.3488   16.8859 O   0  0  0  0  0  0  0  0  0  0  0  0
  -25.8152  -17.5503   13.6000 O   0  0  0  0  0  0  0  0  0  0  0  0
  -27.2291  -21.3756   23.7424 O   0  0  0  0  0  0  0  0  0  0  0  0
  -30.3415  -18.7291   15.3901 O   0  0  0  0  0  0  0  0  0  0  0  0
  -31.8983  -14.8872   20.1911 O   0  0  0  0  0  0  0  0  0  0  0  0
  -21.5704   -7.0569   21.5990 O   0  0  0  0  0  0  0  0  0  0  0  0
  -26.1399  -20.8276   21.4110 O   0  0  0  0  0  0  0  0  0  1  0  0
  -16.1179   -7.6428   22.1737 F   0  0  0  0  0  0  0  0  0  0  0  0
  -30.9781  -21.1098   21.6155 F   0  0  0  0  0  0  0  0  0  0  0  0
  -19.8186   -5.7980   19.8701 F   0  0  0  0  0  0  0  0  0  0  0  0
  -28.5214  -17.1095   23.5893 Cl  0  0  0  0  0  0  0  0  0  0  0  0
  1  2  1  0  0  0  0
  1  5  2  0  0  0  0
  2  6  2  0  0  0  0
  3  9  2  0  0  0  0
  3 17  1  0  0  0  0
  4 10  1  0  0  0  0
  4 17  2  0  0  0  0
  5 19  1  0  0  0  0
  6 21  1  0  0  0  0
  7 11  2  0  0  0  0
  7 20  1  0  0  0  0
  8 13  1  0  0  0  0
  8 23  2  0  0  0  0
  9 25  1  0  0  0  0
 10 25  2  0  0  0  0
 11 26  1  0  0  0  0
 12 14  2  0  0  0  0
 12 27  1  0  0  0  0
 13 29  2  0  0  0  0
 14 28  1  0  0  0  0
 15 22  1  0  0  0  0
 15 26  2  0  0  0  0
 16 28  2  0  0  0  0
 16 30  1  0  0  0  0
 17 32  1  0  0  0  0
 18 32  1  0  0  0  0
 18 33  2  0  0  0  0
 18 34  1  0  0  0  0
 19 21  2  0  0  0  0
 19 40  1  0  0  0  0
 20 22  2  0  0  0  0
 20 41  1  0  0  0  0
 21 49  1  0  0  0  0
 22 42  1  0  0  0  0
 23 31  1  0  0  0  0
 23 68  1  0  0  0  0
 24 29  1  0  0  0  0
 24 31  2  0  0  0  0
 24 71  1  0  0  0  0
 25 79  1  0  0  0  0
 26 80  1  0  0  0  0
 27 30  2  0  0  0  0
 27 79  1  0  0  0  0
 28 81  1  0  0  0  0
 29 82  1  0  0  0  0
 30 83  1  0  0  0  0
 31 84  1  0  0  0  0
 32 62  2  0  0  0  0
 33 63  1  0  0  0  0
 33 66  1  0  0  0  0
 34 67  1  0  0  0  0
 34 73  2  0  0  0  0
 35 50  1  0  0  0  0
 35 69  1  0  0  0  0
 35 74  2  0  0  0  0
 36 59  1  0  0  0  0
 36 64  1  0  0  0  0
 36 75  2  0  0  0  0
 37 58  1  0  0  0  0
 37 71  1  0  0  0  0
 37 76  2  0  0  0  0
 38 60  1  0  0  0  0
 38 70  1  0  0  0  0
 38 77  2  0  0  0  0
 39 65  1  0  0  0  0
 39 68  1  0  0  0  0
 39 78  2  0  0  0  0
 40 43  1  0  0  0  0
 41 50  1  0  0  0  0
 42 64  1  0  0  0  0
 43 45  1  0  0  0  0
 44 46  1  0  0  0  0
 44 47  1  0  0  0  0
 45 49  1  0  0  0  0
 46 51  1  0  0  0  0
 47 65  1  0  0  0  0
 48 51  1  0  0  0  0
 48 65  1  0  0  0  0
 49 69  1  0  0  0  0
 50 64  1  0  0  0  0
 51 63  1  0  0  0  0
 52 60  1  0  0  0  0
 53 61  1  0  0  0  0
 54 61  1  0  0  0  0
 55 61  1  0  0  0  0
 56 71  1  0  0  0  0
 57 72  1  0  0  0  0
 58 80  1  0  0  0  0
 59 61  1  0  0  0  0
 59 70  1  0  0  0  0
 60 72  1  0  0  0  0
 62 63  1  0  0  0  0
M  CHG  1  72   1
M  ISO  4  39 100  58 101  68 100  80 101
M  END
> <Batch ID>
0013

> <Smiles>
CNC(C)C(=O)NC(C(=O)N1Cc2cc([101O:1][101CH2:1]C(=O)N(C)c3c(F)ccc([100NH:0][100C:0](=O)N4CCCC(n5nc(-c6ccc(Oc7ccc(F)cc7F)cc6)c(C(N)=O)c5N)C4)c3Cl)ccc2CC1C(=O)NC1CCCc2ccccc21)C(C)(C)C

> <Shape>
0.164

> <Color>
0.177

> <Negative vol penalty>
0.000

$$$$

  -OEChem-04052315503D

 85 93  0     1  0  0  0  0  0999 V2000
  -30.1291  -11.7333   16.1963 C   0  0  0  0  0  0  0  0  0  0  0  0
  -28.8908  -12.3066   15.9257 C   0  0  0  0  0  0  0  0  0  0  0  0
  -25.0563  -30.5684   20.3179 C   0  0  0  0  0  0  0  0  0  0  0  0
  -24.0555  -28.9237   21.7775 C   0  0  0  0  0  0  0  0  0  0  0  0
  -30.5984  -11.6772   17.5080 C   0  0  0  0  0  0  0  0  0  0  0  0
  -28.1205  -12.8233   16.9669 C   0  0  0  0  0  0  0  0  0  0  0  0
  -23.4373  -18.0560   18.3821 C   0  0  0  0  0  0  0  0  0  0  0  0
  -24.8114  -31.5602   21.2676 C   0  0  0  0  0  0  0  0  0  0  0  0
  -23.8107  -29.9155   22.7273 C   0  0  0  0  0  0  0  0  0  0  0  0
  -22.1686  -18.2475   18.9275 C   0  0  0  0  0  0  0  0  0  0  0  0
  -26.1911  -32.6318   24.1627 C   0  0  0  0  0  0  0  0  0  0  0  0
  -27.2198  -33.5323   24.4395 C   0  0  0  0  0  0  0  0  0  0  0  0
  -17.2559  -22.0184   18.4960 C   0  0  0  0  0  0  0  0  0  0  0  0
  -23.1159  -18.1669   21.1445 C   0  0  0  0  0  0  0  0  0  0  0  0
  -25.8070  -35.3621   23.7373 C   0  0  0  0  0  0  0  0  0  0  0  0
  -24.6783  -29.2501   20.5729 C   0  0  0  0  0  0  0  0  0  0  0  0
  -18.5199  -21.6551   18.9608 C   0  0  0  0  0  0  0  0  0  0  0  0
  -26.0814  -27.4229   19.4774 C   0  0  0  0  0  0  0  0  0  0  0  0
  -29.8377  -12.2022   18.5646 C   0  0  0  0  0  0  0  0  0  0  0  0
  -24.5552  -17.9073   19.2155 C   0  0  0  0  0  0  0  0  0  0  0  0
  -28.5794  -12.7730   18.2941 C   0  0  0  0  0  0  0  0  0  0  0  0
  -24.3981  -17.9762   20.6072 C   0  0  0  0  0  0  0  0  0  0  0  0
  -17.1241  -23.0538   17.5707 C   0  0  0  0  0  0  0  0  0  0  0  0
  -19.5203  -23.3628   17.5752 C   0  0  0  0  0  0  0  0  0  0  0  0
  -24.1887  -31.2338   22.4723 C   0  0  0  0  0  0  0  0  0  0  0  0
  -22.0073  -18.3001   20.3089 C   0  0  0  0  0  0  0  0  0  0  0  0
  -24.9704  -33.0965   23.6730 C   0  0  0  0  0  0  0  0  0  0  0  0
  -27.0277  -34.8974   24.2269 C   0  0  0  0  0  0  0  0  0  0  0  0
  -24.7784  -34.4616   23.4604 C   0  0  0  0  0  0  0  0  0  0  0  0
  -18.2563  -23.7261   17.1103 C   0  0  0  0  0  0  0  0  0  0  0  0
  -19.6520  -22.3273   18.5004 C   0  0  0  0  0  0  0  0  0  0  0  0
  -24.9304  -28.2253   19.5920 C   0  0  0  0  0  0  0  0  0  0  0  0
  -25.8302  -26.6146   18.3957 C   0  0  0  0  0  0  0  0  0  0  0  0
  -18.6042  -20.5441   19.9436 C   0  0  0  0  0  0  0  0  0  0  0  0
  -27.2713  -27.4095   20.2773 C   0  0  0  0  0  0  0  0  0  0  0  0
  -26.6799  -15.5994   19.7281 C   0  0  0  0  0  0  0  0  0  0  0  0
  -28.0916  -17.8477   21.5921 C   0  0  0  0  0  0  0  0  0  0  0  0
  -27.7671  -20.6946   23.4459 C   0  0  0  0  0  0  0  0  0  0  0  0
  -20.7938  -24.6676   15.8368 C   0  0  0  0  0  0  0  0  0  0  0  0
  -30.3657  -12.0762   19.9717 C   0  0  0  0  0  0  0  0  0  0  0  0
  -25.9209  -17.7282   18.6111 C   0  0  0  0  0  0  0  0  0  0  0  0
  -25.5691  -17.8425   21.5450 C   0  0  0  0  0  0  0  0  0  0  0  0
  -29.6546  -12.9833   20.9726 C   0  0  0  0  0  0  0  0  0  0  0  0
  -23.3968  -26.5259   14.2720 C   0  0  0  0  0  0  0  0  0  0  0  0
  -28.1425  -12.8955   20.7921 C   0  0  0  0  0  0  0  0  0  0  0  0
  -24.1938  -27.0945   15.4483 C   0  0  0  0  0  0  0  0  0  0  0  0
  -21.8978  -26.4947   14.5649 C   0  0  0  0  0  0  0  0  0  0  0  0
  -22.3200  -26.3872   16.9896 C   0  0  0  0  0  0  0  0  0  0  0  0
  -27.7256  -13.3666   19.3936 C   0  0  1  0  0  0  0  0  0  0  0  0
  -26.9155  -17.0743   19.5652 C   0  0  1  0  0  0  0  0  0  0  0  0
  -23.8412  -26.3783   16.7667 C   0  0  2  0  0  0  0  0  0  0  0  0
  -29.0894  -22.2719   24.8815 C   0  0  0  0  0  0  0  0  0  0  0  0
  -28.0524  -15.8099   23.8628 C   0  0  0  0  0  0  0  0  0  0  0  0
  -28.4795  -17.6880   25.4624 C   0  0  0  0  0  0  0  0  0  0  0  0
  -30.1587  -17.1482   23.6984 C   0  0  0  0  0  0  0  0  0  0  0  0
  -27.2149  -22.9789   21.6469 C   0  0  0  0  0  0  0  0  0  0  0  0
  -19.3644  -19.8788   22.2097 C   0  0  0  0  0  0  0  0  0  0  0  0
  -20.6996  -19.1649   22.0971 C   0  0  0  0  0  0  0  0  0  1  0  0
  -27.9834  -18.2566   23.0413 C   0  0  1  0  0  0  0  0  0  0  0  0
  -28.5837  -21.9739   23.4786 C   0  0  2  0  0  0  0  0  0  0  0  0
  -28.6460  -17.2263   23.9989 C   0  0  0  0  0  0  0  0  0  0  0  0
  -24.0160  -27.9516   18.6576 N   0  0  0  0  0  0  0  0  0  0  0  0
  -24.5924  -26.9684   17.9455 N   0  0  0  0  0  0  0  0  0  0  0  0
  -26.8831  -17.6626   20.9058 N   0  0  0  0  0  0  0  0  0  0  0  0
  -21.6393  -25.7971   15.8264 N   0  0  0  0  0  0  0  0  0  0  0  0
  -15.8451  -23.4188   17.1013 N   0  0  0  0  0  0  0  0  0  0  0  0
  -26.5497  -25.6429   17.7953 N   0  0  0  0  0  0  0  0  0  0  0  0
  -27.3650  -28.3059   21.3505 N   0  0  0  0  0  0  0  0  0  0  0  0
  -20.6485  -24.0676   17.0872 N   0  0  0  0  0  0  0  0  0  0  0  0
  -19.1889  -20.8529   21.1653 N   0  0  0  0  0  0  0  0  0  0  0  0
  -27.7403  -14.8119   19.3219 N   0  0  0  0  0  0  0  0  0  0  0  0
  -28.5442  -19.6006   23.1291 N   0  0  0  0  0  0  0  0  0  0  0  0
  -27.7580  -23.1273   23.0217 N   0  3  0  0  0  0  0  0  0  0  0  0
  -18.1841  -19.4332   19.6307 O   0  0  0  0  0  0  0  0  0  0  0  0
  -28.2299  -26.6369   20.0371 O   0  0  0  0  0  0  0  0  0  0  0  0
  -25.6154  -15.2049   20.1897 O   0  0  0  0  0  0  0  0  0  0  0  0
  -29.2073  -17.7049   21.0857 O   0  0  0  0  0  0  0  0  0  0  0  0
  -26.5612  -20.6680   23.6816 O   0  0  0  0  0  0  0  0  0  0  0  0
  -20.2612  -24.2461   14.8069 O   0  0  0  0  0  0  0  0  0  0  0  0
  -23.9499  -32.2013   23.3994 O   0  0  0  0  0  0  0  0  0  0  0  0
  -20.7699  -18.4862   20.8438 O   0  0  0  0  0  0  0  0  0  1  0  0
  -28.0151  -35.7621   24.4943 F   0  0  0  0  0  0  0  0  0  0  0  0
  -23.6074  -34.9141   22.9913 F   0  0  0  0  0  0  0  0  0  0  0  0
  -18.1268  -24.7219   16.2200 F   0  0  0  0  0  0  0  0  0  0  0  0
  -21.2235  -21.8741   19.0795 Cl  0  0  0  0  0  0  0  0  0  0  0  0
  1  2  1  0  0  0  0
  1  5  2  0  0  0  0
  2  6  2  0  0  0  0
  3  8  2  0  0  0  0
  3 16  1  0  0  0  0
  4  9  1  0  0  0  0
  4 16  2  0  0  0  0
  5 19  1  0  0  0  0
  6 21  1  0  0  0  0
  7 10  2  0  0  0  0
  7 20  1  0  0  0  0
  8 25  1  0  0  0  0
  9 25  2  0  0  0  0
 10 26  1  0  0  0  0
 11 12  2  0  0  0  0
 11 27  1  0  0  0  0
 12 28  1  0  0  0  0
 13 17  1  0  0  0  0
 13 23  2  0  0  0  0
 14 22  1  0  0  0  0
 14 26  2  0  0  0  0
 15 28  2  0  0  0  0
 15 29  1  0  0  0  0
 16 32  1  0  0  0  0
 17 31  2  0  0  0  0
 17 34  1  0  0  0  0
 18 32  1  0  0  0  0
 18 33  2  0  0  0  0
 18 35  1  0  0  0  0
 19 21  2  0  0  0  0
 19 40  1  0  0  0  0
 20 22  2  0  0  0  0
 20 41  1  0  0  0  0
 21 49  1  0  0  0  0
 22 42  1  0  0  0  0
 23 30  1  0  0  0  0
 23 66  1  0  0  0  0
 24 30  2  0  0  0  0
 24 31  1  0  0  0  0
 24 69  1  0  0  0  0
 25 80  1  0  0  0  0
 26 81  1  0  0  0  0
 27 29  2  0  0  0  0
 27 80  1  0  0  0  0
 28 82  1  0  0  0  0
 29 83  1  0  0  0  0
 30 84  1  0  0  0  0
 31 85  1  0  0  0  0
 32 62  2  0  0  0  0
 33 63  1  0  0  0  0
 33 67  1  0  0  0  0
 34 70  1  0  0  0  0
 34 74  2  0  0  0  0
 35 68  1  0  0  0  0
 35 75  2  0  0  0  0
 36 50  1  0  0  0  0
 36 71  1  0  0  0  0
 36 76  2  0  0  0  0
 37 59  1  0  0  0  0
 37 64  1  0  0  0  0
 37 77  2  0  0  0  0
 38 60  1  0  0  0  0
 38 72  1  0  0  0  0
 38 78  2  0  0  0  0
 39 65  1  0  0  0  0
 39 69  1  0  0  0  0
 39 79  2  0  0  0  0
 40 43  1  0  0  0  0
 41 50  1  0  0  0  0
 42 64  1  0  0  0  0
 43 45  1  0  0  0  0
 44 46  1  0  0  0  0
 44 47  1  0  0  0  0
 45 49  1  0  0  0  0
 46 51  1  0  0  0  0
 47 65  1  0  0  0  0
 48 51  1  0  0  0  0
 48 65  1  0  0  0  0
 49 71  1  0  0  0  0
 50 64  1  0  0  0  0
 51 63  1  0  0  0  0
 52 60  1  0  0  0  0
 53 61  1  0  0  0  0
 54 61  1  0  0  0  0
 55 61  1  0  0  0  0
 56 73  1  0  0  0  0
 57 58  1  0  0  0  0
 57 70  1  0  0  0  0
 58 81  1  0  0  0  0
 59 61  1  0  0  0  0
 59 72  1  0  0  0  0
 60 73  1  0  0  0  0
 62 63  1  0  0  0  0
M  CHG  1  73   1
M  ISO  4  39 100  58 101  69 100  81 101
M  END
> <Batch ID>
0013

> <Smiles>
CNC(C)C(=O)NC(C(=O)N1Cc2cc([101O:1][101CH2:1]CNC(=O)c3cc(N)c(F)c([100NH:0][100C:0](=O)N4CCCC(n5nc(-c6ccc(Oc7ccc(F)cc7F)cc6)c(C(N)=O)c5N)C4)c3Cl)ccc2CC1C(=O)NC1CCCc2ccccc21)C(C)(C)C

> <Shape>
0.187

> <Color>
0.082

> <Negative vol penalty>
0.000

$$$$

  -OEChem-04052315503D

 86 94  0     1  0  0  0  0  0999 V2000
  -29.7712  -23.4952   18.1614 C   0  0  0  0  0  0  0  0  0  0  0  0
  -28.6169  -23.5671   18.9346 C   0  0  0  0  0  0  0  0  0  0  0  0
  -27.0998  -12.8320   20.0713 C   0  0  0  0  0  0  0  0  0  0  0  0
  -24.9372  -13.6936   20.7180 C   0  0  0  0  0  0  0  0  0  0  0  0
  -30.8222  -24.3808   18.3959 C   0  0  0  0  0  0  0  0  0  0  0  0
  -28.5135  -24.5240   19.9436 C   0  0  0  0  0  0  0  0  0  0  0  0
  -24.0227  -26.8646   19.9485 C   0  0  0  0  0  0  0  0  0  0  0  0
  -26.7588  -11.5843   20.5933 C   0  0  0  0  0  0  0  0  0  0  0  0
  -24.5962  -12.4458   21.2399 C   0  0  0  0  0  0  0  0  0  0  0  0
  -22.9455  -26.1743   20.5026 C   0  0  0  0  0  0  0  0  0  0  0  0
  -23.5507   -9.4560   20.0616 C   0  0  0  0  0  0  0  0  0  0  0  0
  -22.2848   -8.9533   19.7607 C   0  0  0  0  0  0  0  0  0  0  0  0
  -23.1916  -27.4394   22.5417 C   0  0  0  0  0  0  0  0  0  0  0  0
  -25.9684  -22.2762   24.5788 C   0  0  0  0  0  0  0  0  0  0  0  0
  -21.7516   -8.8865   22.1162 C   0  0  0  0  0  0  0  0  0  0  0  0
  -26.1890  -13.8867   20.1337 C   0  0  0  0  0  0  0  0  0  0  0  0
  -26.3303  -15.6346   18.2809 C   0  0  0  0  0  0  0  0  0  0  0  0
  -30.7277  -25.3553   19.4019 C   0  0  0  0  0  0  0  0  0  0  0  0
  -24.7005  -27.8414   20.6920 C   0  0  0  0  0  0  0  0  0  0  0  0
  -29.5648  -25.4226   20.1927 C   0  0  0  0  0  0  0  0  0  0  0  0
  -24.2755  -28.1425   21.9938 C   0  0  0  0  0  0  0  0  0  0  0  0
  -25.1492  -22.8837   25.5304 C   0  0  0  0  0  0  0  0  0  0  0  0
  -23.2038  -21.9176   24.4724 C   0  0  0  0  0  0  0  0  0  0  0  0
  -25.4053  -21.4895   23.5740 C   0  0  0  0  0  0  0  0  0  0  0  0
  -25.5070  -11.3912   21.1776 C   0  0  0  0  0  0  0  0  0  0  0  0
  -22.5317  -26.4597   21.8004 C   0  0  0  0  0  0  0  0  0  0  0  0
  -23.9170   -9.6739   21.3898 C   0  0  0  0  0  0  0  0  0  0  0  0
  -21.3853   -8.6686   20.7880 C   0  0  0  0  0  0  0  0  0  0  0  0
  -23.0175   -9.3891   22.4171 C   0  0  0  0  0  0  0  0  0  0  0  0
  -23.7670  -22.7044   25.4772 C   0  0  0  0  0  0  0  0  0  0  0  0
  -24.0231  -21.3102   23.5208 C   0  0  0  0  0  0  0  0  0  0  0  0
  -26.5408  -15.1760   19.5952 C   0  0  0  0  0  0  0  0  0  0  0  0
  -26.8370  -16.9112   18.2774 C   0  0  0  0  0  0  0  0  0  0  0  0
  -25.7304  -14.9663   17.1633 C   0  0  0  0  0  0  0  0  0  0  0  0
  -27.6766  -28.1892   21.7527 C   0  0  0  0  0  0  0  0  0  0  0  0
  -26.5954  -31.1080   22.6659 C   0  0  0  0  0  0  0  0  0  0  0  0
  -20.1741  -23.5051   23.6008 C   0  0  0  0  0  0  0  0  0  0  0  0
  -23.9422  -33.0793   23.5151 C   0  0  0  0  0  0  0  0  0  0  0  0
  -27.6597  -20.9883   22.5676 C   0  0  0  0  0  0  0  0  0  0  0  0
  -31.9089  -26.2599   19.6495 C   0  0  0  0  0  0  0  0  0  0  0  0
  -25.8436  -28.5958   20.0703 C   0  0  0  0  0  0  0  0  0  0  0  0
  -24.9566  -29.1965   22.8266 C   0  0  0  0  0  0  0  0  0  0  0  0
  -31.5697  -27.4881   20.4902 C   0  0  0  0  0  0  0  0  0  0  0  0
  -30.1491  -19.6315   20.4137 C   0  0  0  0  0  0  0  0  0  0  0  0
  -30.7380  -27.0902   21.7054 C   0  0  0  0  0  0  0  0  0  0  0  0
  -29.4849  -18.3800   19.8351 C   0  0  0  0  0  0  0  0  0  0  0  0
  -29.7603  -19.8564   21.8739 C   0  0  0  0  0  0  0  0  0  0  0  0
  -27.6513  -18.6230   21.5573 C   0  0  0  0  0  0  0  0  0  0  0  0
  -29.4050  -26.4628   21.2801 C   0  0  1  0  0  0  0  0  0  0  0  0
  -26.7859  -29.2091   21.1015 C   0  0  1  0  0  0  0  0  0  0  0  0
  -27.9616  -18.3910   20.0695 C   0  0  2  0  0  0  0  0  0  0  0  0
  -25.7972  -23.7179   26.5885 C   0  0  0  0  0  0  0  0  0  0  0  0
  -23.3760  -35.4111   24.2496 C   0  0  0  0  0  0  0  0  0  0  0  0
  -27.6139  -30.4693   25.4703 C   0  0  0  0  0  0  0  0  0  0  0  0
  -26.2098  -32.3538   26.3338 C   0  0  0  0  0  0  0  0  0  0  0  0
  -28.0482  -32.8123   24.7112 C   0  0  0  0  0  0  0  0  0  0  0  0
  -22.2644  -33.5498   21.1229 C   0  0  0  0  0  0  0  0  0  0  0  0
  -21.7159  -21.7251   24.4159 C   0  0  0  0  0  0  0  0  0  0  0  0
  -19.7126  -24.1555   22.3060 C   0  0  0  0  0  0  0  0  0  0  0  0
  -20.8486  -24.8017   21.5281 C   0  0  0  0  0  0  0  0  0  1  0  0
  -25.9429  -31.6659   23.9076 C   0  0  1  0  0  0  0  0  0  0  0  0
  -23.5366  -34.4712   23.0649 C   0  0  2  0  0  0  0  0  0  0  0  0
  -26.9419  -31.8041   25.0910 C   0  0  0  0  0  0  0  0  0  0  0  0
  -27.1350  -16.0872   20.3702 N   0  0  0  0  0  0  0  0  0  0  0  0
  -27.3023  -17.1310   19.5405 N   0  0  0  0  0  0  0  0  0  0  0  0
  -26.0733  -29.9023   22.1766 N   0  0  0  0  0  0  0  0  0  0  0  0
  -28.3029  -19.8589   22.0186 N   0  0  0  0  0  0  0  0  0  0  0  0
  -26.9254  -17.8559   17.3172 N   0  0  0  0  0  0  0  0  0  0  0  0
  -25.2625  -13.6571   17.3401 N   0  0  0  0  0  0  0  0  0  0  0  0
  -26.2700  -20.8890   22.6255 N   0  0  0  0  0  0  0  0  0  0  0  0
  -28.4726  -27.4893   20.8661 N   0  0  0  0  0  0  0  0  0  0  0  0
  -21.1090  -22.5076   23.3633 N   0  0  0  0  0  0  0  0  0  0  0  0
  -25.3118  -32.9194   23.5090 N   0  0  0  0  0  0  0  0  0  0  0  0
  -22.2431  -34.4203   22.3265 N   0  3  0  0  0  0  0  0  0  0  0  0
  -25.6276  -15.5081   16.0366 O   0  0  0  0  0  0  0  0  0  0  0  0
  -27.6452  -28.0487   22.9697 O   0  0  0  0  0  0  0  0  0  0  0  0
  -27.5292  -31.7231   22.1450 O   0  0  0  0  0  0  0  0  0  0  0  0
  -19.7579  -23.8374   24.7072 O   0  0  0  0  0  0  0  0  0  0  0  0
  -23.1259  -32.2211   23.8432 O   0  0  0  0  0  0  0  0  0  0  0  0
  -28.2929  -21.9823   22.9324 O   0  0  0  0  0  0  0  0  0  0  0  0
  -25.1738  -10.1737   21.6868 O   0  0  0  0  0  0  0  0  0  0  0  0
  -21.4810  -25.7870   22.3439 O   0  0  0  0  0  0  0  0  0  1  0  0
  -20.1691   -8.1873   20.4989 F   0  0  0  0  0  0  0  0  0  0  0  0
  -23.3633   -9.5975   23.6949 F   0  0  0  0  0  0  0  0  0  0  0  0
  -22.7557  -23.4624   26.6630 Cl  0  0  0  0  0  0  0  0  0  0  0  0
  -23.3238  -20.3314   22.2706 Cl  0  0  0  0  0  0  0  0  0  0  0  0
  1  2  1  0  0  0  0
  1  5  2  0  0  0  0
  2  6  2  0  0  0  0
  3  8  2  0  0  0  0
  3 16  1  0  0  0  0
  4  9  1  0  0  0  0
  4 16  2  0  0  0  0
  5 18  1  0  0  0  0
  6 20  1  0  0  0  0
  7 10  2  0  0  0  0
  7 19  1  0  0  0  0
  8 25  1  0  0  0  0
  9 25  2  0  0  0  0
 10 26  1  0  0  0  0
 11 12  2  0  0  0  0
 11 27  1  0  0  0  0
 12 28  1  0  0  0  0
 13 21  1  0  0  0  0
 13 26  2  0  0  0  0
 14 22  1  0  0  0  0
 14 24  2  0  0  0  0
 15 28  2  0  0  0  0
 15 29  1  0  0  0  0
 16 32  1  0  0  0  0
 17 32  1  0  0  0  0
 17 33  2  0  0  0  0
 17 34  1  0  0  0  0
 18 20  2  0  0  0  0
 18 40  1  0  0  0  0
 19 21  2  0  0  0  0
 19 41  1  0  0  0  0
 20 49  1  0  0  0  0
 21 42  1  0  0  0  0
 22 30  2  0  0  0  0
 22 52  1  0  0  0  0
 23 30  1  0  0  0  0
 23 31  2  0  0  0  0
 23 58  1  0  0  0  0
 24 31  1  0  0  0  0
 24 70  1  0  0  0  0
 25 81  1  0  0  0  0
 26 82  1  0  0  0  0
 27 29  2  0  0  0  0
 27 81  1  0  0  0  0
 28 83  1  0  0  0  0
 29 84  1  0  0  0  0
 30 85  1  0  0  0  0
 31 86  1  0  0  0  0
 32 64  2  0  0  0  0
 33 65  1  0  0  0  0
 33 68  1  0  0  0  0
 34 69  1  0  0  0  0
 34 75  2  0  0  0  0
 35 50  1  0  0  0  0
 35 71  1  0  0  0  0
 35 76  2  0  0  0  0
 36 61  1  0  0  0  0
 36 66  1  0  0  0  0
 36 77  2  0  0  0  0
 37 59  1  0  0  0  0
 37 72  1  0  0  0  0
 37 78  2  0  0  0  0
 38 62  1  0  0  0  0
 38 73  1  0  0  0  0
 38 79  2  0  0  0  0
 39 67  1  0  0  0  0
 39 70  1  0  0  0  0
 39 80  2  0  0  0  0
 40 43  1  0  0  0  0
 41 50  1  0  0  0  0
 42 66  1  0  0  0  0
 43 45  1  0  0  0  0
 44 46  1  0  0  0  0
 44 47  1  0  0  0  0
 45 49  1  0  0  0  0
 46 51  1  0  0  0  0
 47 67  1  0  0  0  0
 48 51  1  0  0  0  0
 48 67  1  0  0  0  0
 49 71  1  0  0  0  0
 50 66  1  0  0  0  0
 51 65  1  0  0  0  0
 53 62  1  0  0  0  0
 54 63  1  0  0  0  0
 55 63  1  0  0  0  0
 56 63  1  0  0  0  0
 57 74  1  0  0  0  0
 58 72  1  0  0  0  0
 59 60  1  0  0  0  0
 60 82  1  0  0  0  0
 61 63  1  0  0  0  0
 61 73  1  0  0  0  0
 62 74  1  0  0  0  0
 64 65  1  0  0  0  0
M  CHG  1  74   1
M  ISO  4  39 100  60 101  70 100  82 101
M  END
> <Batch ID>
0013

> <Smiles>
CNC(C)C(=O)NC(C(=O)N1Cc2cc([101O:1][101CH2:1]CC(=O)NCc3c(Cl)c(C)cc([100NH:0][100C:0](=O)N4CCCC(n5nc(-c6ccc(Oc7ccc(F)cc7F)cc6)c(C(N)=O)c5N)C4)c3Cl)ccc2CC1C(=O)NC1CCCc2ccccc21)C(C)(C)C

> <Shape>
0.263

> <Color>
0.063

> <Negative vol penalty>
0.000

$$$$

  -OEChem-04052315503D

 83 91  0     1  0  0  0  0  0999 V2000
  -25.6077   -9.8956   36.9149 C   0  0  0  0  0  0  0  0  0  0  0  0
  -26.2591  -10.9893   36.3537 C   0  0  0  0  0  0  0  0  0  0  0  0
  -23.1992   -9.8519   19.9530 C   0  0  0  0  0  0  0  0  0  0  0  0
  -23.9124   -9.9294   22.2600 C   0  0  0  0  0  0  0  0  0  0  0  0
  -24.8833   -9.0247   36.1021 C   0  0  0  0  0  0  0  0  0  0  0  0
  -26.1873  -11.2121   34.9790 C   0  0  0  0  0  0  0  0  0  0  0  0
  -26.0233  -16.6315   32.1315 C   0  0  0  0  0  0  0  0  0  0  0  0
  -31.7281  -16.6445   22.1332 C   0  0  0  0  0  0  0  0  0  0  0  0
  -22.5069   -8.6679   20.2067 C   0  0  0  0  0  0  0  0  0  0  0  0
  -23.2200   -8.7453   22.5138 C   0  0  0  0  0  0  0  0  0  0  0  0
  -27.0099  -17.3929   31.5065 C   0  0  0  0  0  0  0  0  0  0  0  0
  -21.3431   -5.9352   23.8550 C   0  0  0  0  0  0  0  0  0  0  0  0
  -32.0954  -17.8612   22.7081 C   0  0  0  0  0  0  0  0  0  0  0  0
  -20.5668   -5.8723   25.0121 C   0  0  0  0  0  0  0  0  0  0  0  0
  -26.3725  -16.4588   29.3757 C   0  0  0  0  0  0  0  0  0  0  0  0
  -19.2451   -7.7361   24.2268 C   0  0  0  0  0  0  0  0  0  0  0  0
  -23.9020  -10.4826   20.9796 C   0  0  0  0  0  0  0  0  0  0  0  0
  -24.1242  -13.0193   20.8266 C   0  0  0  0  0  0  0  0  0  0  0  0
  -24.7946   -9.2423   34.7181 C   0  0  0  0  0  0  0  0  0  0  0  0
  -25.2097  -15.7684   31.3834 C   0  0  0  0  0  0  0  0  0  0  0  0
  -25.4621  -10.3425   34.1468 C   0  0  0  0  0  0  0  0  0  0  0  0
  -25.3746  -15.6894   29.9932 C   0  0  0  0  0  0  0  0  0  0  0  0
  -30.8187  -15.8115   22.7850 C   0  0  0  0  0  0  0  0  0  0  0  0
  -22.5173   -8.1146   21.4871 C   0  0  0  0  0  0  0  0  0  0  0  0
  -27.1865  -17.3045   30.1288 C   0  0  0  0  0  0  0  0  0  0  0  0
  -21.0705   -6.8987   22.8837 C   0  0  0  0  0  0  0  0  0  0  0  0
  -30.6441  -17.4117   24.5866 C   0  0  0  0  0  0  0  0  0  0  0  0
  -19.5178   -6.7727   25.1980 C   0  0  0  0  0  0  0  0  0  0  0  0
  -31.5535  -18.2447   23.9348 C   0  0  0  0  0  0  0  0  0  0  0  0
  -20.0215   -7.7990   23.0696 C   0  0  0  0  0  0  0  0  0  0  0  0
  -30.2767  -16.1951   24.0117 C   0  0  0  0  0  0  0  0  0  0  0  0
  -24.6178  -11.7054   20.7180 C   0  0  0  0  0  0  0  0  0  0  0  0
  -25.1860  -13.8154   20.4726 C   0  0  0  0  0  0  0  0  0  0  0  0
  -22.8223  -13.4791   21.2132 C   0  0  0  0  0  0  0  0  0  0  0  0
  -24.7101  -12.6295   31.3437 C   0  0  0  0  0  0  0  0  0  0  0  0
  -22.3999  -13.4174   29.2073 C   0  0  0  0  0  0  0  0  0  0  0  0
  -21.2184  -15.6449   26.9074 C   0  0  0  0  0  0  0  0  0  0  0  0
  -30.9353  -14.0836   20.9556 C   0  0  0  0  0  0  0  0  0  0  0  0
  -24.0390   -8.2470   33.8737 C   0  0  0  0  0  0  0  0  0  0  0  0
  -24.1322  -14.9738   32.0691 C   0  0  0  0  0  0  0  0  0  0  0  0
  -24.5138  -14.7931   29.1422 C   0  0  0  0  0  0  0  0  0  0  0  0
  -23.7020   -8.7643   32.4776 C   0  0  0  0  0  0  0  0  0  0  0  0
  -29.3616  -13.1192   17.9108 C   0  0  0  0  0  0  0  0  0  0  0  0
  -24.9231   -9.4221   31.8428 C   0  0  0  0  0  0  0  0  0  0  0  0
  -27.9292  -12.7845   18.3332 C   0  0  0  0  0  0  0  0  0  0  0  0
  -30.3785  -12.6972   18.9698 C   0  0  0  0  0  0  0  0  0  0  0  0
  -28.6790  -12.8669   20.7453 C   0  0  0  0  0  0  0  0  0  0  0  0
  -25.3872  -10.6317   32.6632 C   0  0  1  0  0  0  0  0  0  0  0  0
  -23.7027  -13.7423   31.2777 C   0  0  1  0  0  0  0  0  0  0  0  0
  -27.6137  -13.3320   19.7390 C   0  0  2  0  0  0  0  0  0  0  0  0
  -19.3261  -15.9968   25.2972 C   0  0  0  0  0  0  0  0  0  0  0  0
  -23.6556  -11.3992   27.2943 C   0  0  0  0  0  0  0  0  0  0  0  0
  -22.3581  -12.4599   25.4342 C   0  0  0  0  0  0  0  0  0  0  0  0
  -21.1551  -11.3818   27.3351 C   0  0  0  0  0  0  0  0  0  0  0  0
  -20.3482  -18.1131   28.2894 C   0  0  0  0  0  0  0  0  0  0  0  0
  -30.1652  -18.0011   28.1913 C   0  0  0  0  0  0  0  0  0  0  0  0
  -28.7367  -17.5004   28.3358 C   0  0  0  0  0  0  0  0  0  1  0  0
  -30.8454  -17.4319   26.9562 C   0  0  0  0  0  0  0  0  0  0  0  0
  -22.3418  -13.5829   27.7079 C   0  0  1  0  0  0  0  0  0  0  0  0
  -19.8405  -16.2493   26.7059 C   0  0  2  0  0  0  0  0  0  0  0  0
  -22.3953  -12.2215   26.9589 C   0  0  0  0  0  0  0  0  0  0  0  0
  -25.8938  -11.6648   20.3254 N   0  0  0  0  0  0  0  0  0  0  0  0
  -26.2110  -12.9631   20.1842 N   0  0  0  0  0  0  0  0  0  0  0  0
  -23.4782  -14.0315   29.8599 N   0  0  0  0  0  0  0  0  0  0  0  0
  -30.0175  -13.2562   20.2745 N   0  0  0  0  0  0  0  0  0  0  0  0
  -25.3334  -15.1543   20.3828 N   0  0  0  0  0  0  0  0  0  0  0  0
  -21.8489  -12.5270   21.5453 N   0  0  0  0  0  0  0  0  0  0  0  0
  -30.4693  -14.5831   22.1712 N   0  0  0  0  0  0  0  0  0  0  0  0
  -24.5313  -11.7712   32.4118 N   0  0  0  0  0  0  0  0  0  0  0  0
  -21.1459  -14.3710   27.4302 N   0  0  0  0  0  0  0  0  0  0  0  0
  -19.8822  -17.7214   26.9342 N   0  3  0  0  0  0  0  0  0  0  0  0
  -22.5260  -14.6975   21.2468 O   0  0  0  0  0  0  0  0  0  0  0  0
  -25.5841  -12.5542   30.4880 O   0  0  0  0  0  0  0  0  0  0  0  0
  -21.5170  -12.7732   29.7793 O   0  0  0  0  0  0  0  0  0  0  0  0
  -22.2552  -16.2416   26.6255 O   0  0  0  0  0  0  0  0  0  0  0  0
  -32.0421  -14.3527   20.4816 O   0  0  0  0  0  0  0  0  0  0  0  0
  -21.8416   -6.9594   21.7351 O   0  0  0  0  0  0  0  0  0  0  0  0
  -28.1492  -18.0461   29.5163 O   0  0  0  0  0  0  0  0  0  1  0  0
  -30.1289  -17.8163   25.7906 O   0  0  0  0  0  0  0  0  0  0  0  0
  -18.7714   -6.7111   26.3085 F   0  0  0  0  0  0  0  0  0  0  0  0
  -31.9112  -19.4150   24.4812 F   0  0  0  0  0  0  0  0  0  0  0  0
  -19.7541   -8.7260   22.1396 F   0  0  0  0  0  0  0  0  0  0  0  0
  -29.1464  -15.1709   24.8333 Cl  0  0  0  0  0  0  0  0  0  0  0  0
  1  2  1  0  0  0  0
  1  5  2  0  0  0  0
  2  6  2  0  0  0  0
  3  9  2  0  0  0  0
  3 17  1  0  0  0  0
  4 10  1  0  0  0  0
  4 17  2  0  0  0  0
  5 19  1  0  0  0  0
  6 21  1  0  0  0  0
  7 11  2  0  0  0  0
  7 20  1  0  0  0  0
  8 13  1  0  0  0  0
  8 23  2  0  0  0  0
  9 24  1  0  0  0  0
 10 24  2  0  0  0  0
 11 25  1  0  0  0  0
 12 14  2  0  0  0  0
 12 26  1  0  0  0  0
 13 29  2  0  0  0  0
 14 28  1  0  0  0  0
 15 22  1  0  0  0  0
 15 25  2  0  0  0  0
 16 28  2  0  0  0  0
 16 30  1  0  0  0  0
 17 32  1  0  0  0  0
 18 32  1  0  0  0  0
 18 33  2  0  0  0  0
 18 34  1  0  0  0  0
 19 21  2  0  0  0  0
 19 39  1  0  0  0  0
 20 22  2  0  0  0  0
 20 40  1  0  0  0  0
 21 48  1  0  0  0  0
 22 41  1  0  0  0  0
 23 31  1  0  0  0  0
 23 68  1  0  0  0  0
 24 77  1  0  0  0  0
 25 78  1  0  0  0  0
 26 30  2  0  0  0  0
 26 77  1  0  0  0  0
 27 29  1  0  0  0  0
 27 31  2  0  0  0  0
 27 79  1  0  0  0  0
 28 80  1  0  0  0  0
 29 81  1  0  0  0  0
 30 82  1  0  0  0  0
 31 83  1  0  0  0  0
 32 62  2  0  0  0  0
 33 63  1  0  0  0  0
 33 66  1  0  0  0  0
 34 67  1  0  0  0  0
 34 72  2  0  0  0  0
 35 49  1  0  0  0  0
 35 69  1  0  0  0  0
 35 73  2  0  0  0  0
 36 59  1  0  0  0  0
 36 64  1  0  0  0  0
 36 74  2  0  0  0  0
 37 60  1  0  0  0  0
 37 70  1  0  0  0  0
 37 75  2  0  0  0  0
 38 65  1  0  0  0  0
 38 68  1  0  0  0  0
 38 76  2  0  0  0  0
 39 42  1  0  0  0  0
 40 49  1  0  0  0  0
 41 64  1  0  0  0  0
 42 44  1  0  0  0  0
 43 45  1  0  0  0  0
 43 46  1  0  0  0  0
 44 48  1  0  0  0  0
 45 50  1  0  0  0  0
 46 65  1  0  0  0  0
 47 50  1  0  0  0  0
 47 65  1  0  0  0  0
 48 69  1  0  0  0  0
 49 64  1  0  0  0  0
 50 63  1  0  0  0  0
 51 60  1  0  0  0  0
 52 61  1  0  0  0  0
 53 61  1  0  0  0  0
 54 61  1  0  0  0  0
 55 71  1  0  0  0  0
 56 57  1  0  0  0  0
 56 58  1  0  0  0  0
 57 78  1  0  0  0  0
 58 79  1  0  0  0  0
 59 61  1  0  0  0  0
 59 70  1  0  0  0  0
 60 71  1  0  0  0  0
 62 63  1  0  0  0  0
M  CHG  1  71   1
M  ISO  4  38 100  57 101  68 100  78 101
M  END
> <Batch ID>
0013

> <Smiles>
CNC(C)C(=O)NC(C(=O)N1Cc2cc([101O:1][101CH2:1]CCOc3c(F)ccc([100NH:0][100C:0](=O)N4CCCC(n5nc(-c6ccc(Oc7ccc(F)cc7F)cc6)c(C(N)=O)c5N)C4)c3Cl)ccc2CC1C(=O)NC1CCCc2ccccc21)C(C)(C)C

> <Shape>
0.160

> <Color>
0.189

> <Negative vol penalty>
0.000

$$$$

  -OEChem-04052315503D

 85 93  0     1  0  0  0  0  0999 V2000
  -40.6031  -23.4417   12.1278 C   0  0  0  0  0  0  0  0  0  0  0  0
  -40.2273  -22.7661   13.2844 C   0  0  0  0  0  0  0  0  0  0  0  0
  -23.0762   -9.8672   19.9414 C   0  0  0  0  0  0  0  0  0  0  0  0
  -23.8351   -9.8755   22.2350 C   0  0  0  0  0  0  0  0  0  0  0  0
  -40.8776  -24.8078   12.1778 C   0  0  0  0  0  0  0  0  0  0  0  0
  -40.1270  -23.4559   14.4920 C   0  0  0  0  0  0  0  0  0  0  0  0
  -35.9301  -22.2679   17.0650 C   0  0  0  0  0  0  0  0  0  0  0  0
  -22.3321   -8.7142   20.1917 C   0  0  0  0  0  0  0  0  0  0  0  0
  -23.0911   -8.7225   22.4854 C   0  0  0  0  0  0  0  0  0  0  0  0
  -35.9314  -21.0609   17.7628 C   0  0  0  0  0  0  0  0  0  0  0  0
  -19.8626   -7.9252   23.0871 C   0  0  0  0  0  0  0  0  0  0  0  0
  -19.1052   -7.8860   24.2577 C   0  0  0  0  0  0  0  0  0  0  0  0
  -36.4036  -22.2506   19.8076 C   0  0  0  0  0  0  0  0  0  0  0  0
  -32.0643  -16.5950   22.5359 C   0  0  0  0  0  0  0  0  0  0  0  0
  -30.5008  -18.3472   24.0419 C   0  0  0  0  0  0  0  0  0  0  0  0
  -20.3462   -5.9489   24.9957 C   0  0  0  0  0  0  0  0  0  0  0  0
  -23.8277  -10.4478   20.9630 C   0  0  0  0  0  0  0  0  0  0  0  0
  -24.1698  -12.9729   20.8417 C   0  0  0  0  0  0  0  0  0  0  0  0
  -40.7712  -25.5166   13.3848 C   0  0  0  0  0  0  0  0  0  0  0  0
  -36.1768  -23.4762   17.7324 C   0  0  0  0  0  0  0  0  0  0  0  0
  -40.4016  -24.8325   14.5586 C   0  0  0  0  0  0  0  0  0  0  0  0
  -36.4024  -23.4718   19.1163 C   0  0  0  0  0  0  0  0  0  0  0  0
  -32.6699  -17.4744   23.4334 C   0  0  0  0  0  0  0  0  0  0  0  0
  -29.8952  -17.4678   23.1443 C   0  0  0  0  0  0  0  0  0  0  0  0
  -30.6769  -16.5918   22.3913 C   0  0  0  0  0  0  0  0  0  0  0  0
  -22.3395   -8.1419   21.4637 C   0  0  0  0  0  0  0  0  0  0  0  0
  -36.1710  -21.0518   19.1338 C   0  0  0  0  0  0  0  0  0  0  0  0
  -20.8618   -6.9762   22.8707 C   0  0  0  0  0  0  0  0  0  0  0  0
  -19.3470   -6.8979   25.2120 C   0  0  0  0  0  0  0  0  0  0  0  0
  -31.8882  -18.3504   24.1864 C   0  0  0  0  0  0  0  0  0  0  0  0
  -21.1036   -5.9881   23.8251 C   0  0  0  0  0  0  0  0  0  0  0  0
  -24.5970  -11.6385   20.7049 C   0  0  0  0  0  0  0  0  0  0  0  0
  -25.2621  -13.7221   20.4784 C   0  0  0  0  0  0  0  0  0  0  0  0
  -22.8991  -13.4890   21.2598 C   0  0  0  0  0  0  0  0  0  0  0  0
  -38.4069  -25.7327   17.5357 C   0  0  0  0  0  0  0  0  0  0  0  0
  -36.5032  -27.2538   19.6768 C   0  0  0  0  0  0  0  0  0  0  0  0
  -35.1568  -18.5981   21.6034 C   0  0  0  0  0  0  0  0  0  0  0  0
  -34.1183  -27.0263   22.1073 C   0  0  0  0  0  0  0  0  0  0  0  0
  -30.7283  -14.7674   20.6548 C   0  0  0  0  0  0  0  0  0  0  0  0
  -41.1239  -26.9830   13.3990 C   0  0  0  0  0  0  0  0  0  0  0  0
  -36.1456  -24.7724   16.9699 C   0  0  0  0  0  0  0  0  0  0  0  0
  -36.6525  -24.7438   19.8831 C   0  0  0  0  0  0  0  0  0  0  0  0
  -40.6307  -27.7160   14.6439 C   0  0  0  0  0  0  0  0  0  0  0  0
  -29.6147  -12.3523   18.2874 C   0  0  0  0  0  0  0  0  0  0  0  0
  -40.9582  -26.9149   15.9000 C   0  0  0  0  0  0  0  0  0  0  0  0
  -28.1749  -12.0611   18.7166 C   0  0  0  0  0  0  0  0  0  0  0  0
  -30.5293  -12.5818   19.4893 C   0  0  0  0  0  0  0  0  0  0  0  0
  -28.6219  -13.3071   20.8694 C   0  0  0  0  0  0  0  0  0  0  0  0
  -40.2576  -25.5509   15.8826 C   0  0  1  0  0  0  0  0  0  0  0  0
  -36.9181  -25.8913   17.6617 C   0  0  1  0  0  0  0  0  0  0  0  0
  -27.6495  -13.1333   19.6913 C   0  0  2  0  0  0  0  0  0  0  0  0
  -27.9521  -18.2090   21.7437 C   0  0  0  0  0  0  0  0  0  0  0  0
  -32.7885  -28.4372   23.7006 C   0  0  0  0  0  0  0  0  0  0  0  0
  -38.9589  -27.5458   21.4640 C   0  0  0  0  0  0  0  0  0  0  0  0
  -37.4232  -28.0742   23.3694 C   0  0  0  0  0  0  0  0  0  0  0  0
  -37.4893  -29.5672   21.3722 C   0  0  0  0  0  0  0  0  0  0  0  0
  -31.5537  -26.1897   20.8898 C   0  0  0  0  0  0  0  0  0  0  0  0
  -28.4072  -17.4881   23.0087 C   0  0  0  0  0  0  0  0  0  0  0  0
  -34.1634  -17.4749   23.5876 C   0  0  0  0  0  0  0  0  0  0  0  0
  -35.7695  -19.9177   21.1853 C   0  0  0  0  0  0  0  0  0  1  0  0
  -36.4051  -27.2911   21.1828 C   0  0  1  0  0  0  0  0  0  0  0  0
  -32.8251  -27.7912   22.3243 C   0  0  2  0  0  0  0  0  0  0  0  0
  -37.5664  -28.0953   21.8326 C   0  0  0  0  0  0  0  0  0  0  0  0
  -25.8620  -11.5423   20.2872 N   0  0  0  0  0  0  0  0  0  0  0  0
  -26.2391  -12.8258   20.1583 N   0  0  0  0  0  0  0  0  0  0  0  0
  -36.6181  -25.9848   19.0919 N   0  0  0  0  0  0  0  0  0  0  0  0
  -29.9701  -13.6131   20.3659 N   0  0  0  0  0  0  0  0  0  0  0  0
  -25.4726  -15.0535   20.4047 N   0  0  0  0  0  0  0  0  0  0  0  0
  -21.8870  -12.5801   21.5972 N   0  0  0  0  0  0  0  0  0  0  0  0
  -30.0806  -15.6930   21.4724 N   0  0  0  0  0  0  0  0  0  0  0  0
  -38.8604  -25.6959   16.2310 N   0  0  0  0  0  0  0  0  0  0  0  0
  -34.7738  -18.6102   22.9354 N   0  0  0  0  0  0  0  0  0  0  0  0
  -35.0755  -27.8055   21.4927 N   0  0  0  0  0  0  0  0  0  0  0  0
  -31.6553  -26.8757   22.2036 N   0  3  0  0  0  0  0  0  0  0  0  0
  -22.6629  -14.7197   21.3163 O   0  0  0  0  0  0  0  0  0  0  0  0
  -39.0936  -25.6513   18.5475 O   0  0  0  0  0  0  0  0  0  0  0  0
  -36.4716  -28.3113   19.0424 O   0  0  0  0  0  0  0  0  0  0  0  0
  -35.0300  -17.6506   20.8326 O   0  0  0  0  0  0  0  0  0  0  0  0
  -34.2658  -25.8559   22.4521 O   0  0  0  0  0  0  0  0  0  0  0  0
  -31.8576  -14.9358   20.1875 O   0  0  0  0  0  0  0  0  0  0  0  0
  -21.6134   -7.0170   21.7084 O   0  0  0  0  0  0  0  0  0  0  0  0
  -36.1733  -19.8751   19.8173 O   0  0  0  0  0  0  0  0  0  1  0  0
  -18.6205   -6.8613   26.3368 F   0  0  0  0  0  0  0  0  0  0  0  0
  -32.4614  -19.1989   25.0513 F   0  0  0  0  0  0  0  0  0  0  0  0
  -22.0629   -5.0745   23.6234 F   0  0  0  0  0  0  0  0  0  0  0  0
  1  2  1  0  0  0  0
  1  5  2  0  0  0  0
  2  6  2  0  0  0  0
  3  8  2  0  0  0  0
  3 17  1  0  0  0  0
  4  9  1  0  0  0  0
  4 17  2  0  0  0  0
  5 19  1  0  0  0  0
  6 21  1  0  0  0  0
  7 10  2  0  0  0  0
  7 20  1  0  0  0  0
  8 26  1  0  0  0  0
  9 26  2  0  0  0  0
 10 27  1  0  0  0  0
 11 12  2  0  0  0  0
 11 28  1  0  0  0  0
 12 29  1  0  0  0  0
 13 22  1  0  0  0  0
 13 27  2  0  0  0  0
 14 23  2  0  0  0  0
 14 25  1  0  0  0  0
 15 24  1  0  0  0  0
 15 30  2  0  0  0  0
 16 29  2  0  0  0  0
 16 31  1  0  0  0  0
 17 32  1  0  0  0  0
 18 32  1  0  0  0  0
 18 33  2  0  0  0  0
 18 34  1  0  0  0  0
 19 21  2  0  0  0  0
 19 40  1  0  0  0  0
 20 22  2  0  0  0  0
 20 41  1  0  0  0  0
 21 49  1  0  0  0  0
 22 42  1  0  0  0  0
 23 30  1  0  0  0  0
 23 59  1  0  0  0  0
 24 25  2  0  0  0  0
 24 58  1  0  0  0  0
 25 70  1  0  0  0  0
 26 81  1  0  0  0  0
 27 82  1  0  0  0  0
 28 31  2  0  0  0  0
 28 81  1  0  0  0  0
 29 83  1  0  0  0  0
 30 84  1  0  0  0  0
 31 85  1  0  0  0  0
 32 64  2  0  0  0  0
 33 65  1  0  0  0  0
 33 68  1  0  0  0  0
 34 69  1  0  0  0  0
 34 75  2  0  0  0  0
 35 50  1  0  0  0  0
 35 71  1  0  0  0  0
 35 76  2  0  0  0  0
 36 61  1  0  0  0  0
 36 66  1  0  0  0  0
 36 77  2  0  0  0  0
 37 60  1  0  0  0  0
 37 72  1  0  0  0  0
 37 78  2  0  0  0  0
 38 62  1  0  0  0  0
 38 73  1  0  0  0  0
 38 79  2  0  0  0  0
 39 67  1  0  0  0  0
 39 70  1  0  0  0  0
 39 80  2  0  0  0  0
 40 43  1  0  0  0  0
 41 50  1  0  0  0  0
 42 66  1  0  0  0  0
 43 45  1  0  0  0  0
 44 46  1  0  0  0  0
 44 47  1  0  0  0  0
 45 49  1  0  0  0  0
 46 51  1  0  0  0  0
 47 67  1  0  0  0  0
 48 51  1  0  0  0  0
 48 67  1  0  0  0  0
 49 71  1  0  0  0  0
 50 66  1  0  0  0  0
 51 65  1  0  0  0  0
 52 58  1  0  0  0  0
 53 62  1  0  0  0  0
 54 63  1  0  0  0  0
 55 63  1  0  0  0  0
 56 63  1  0  0  0  0
 57 74  1  0  0  0  0
 59 72  1  0  0  0  0
 60 82  1  0  0  0  0
 61 63  1  0  0  0  0
 61 73  1  0  0  0  0
 62 74  1  0  0  0  0
 64 65  1  0  0  0  0
M  CHG  1  74   1
M  ISO  4  39 100  60 101  70 100  82 101
M  END
> <Batch ID>
0013

> <Smiles>
CCc1cc(F)c(CNC(=O)[101CH2:1][101O:1]c2ccc3c(c2)CN(C(=O)C(NC(=O)C(C)NC)C(C)(C)C)C(C(=O)NC2CCCc4ccccc42)C3)cc1[100NH:0][100C:0](=O)N1CCCC(n2nc(-c3ccc(Oc4ccc(F)cc4F)cc3)c(C(N)=O)c2N)C1

> <Shape>
0.175

> <Color>
0.188

> <Negative vol penalty>
0.000

$$$$

  -OEChem-04052315503D

 84 92  0     1  0  0  0  0  0999 V2000
  -23.9065  -21.1323   21.3616 C   0  0  0  0  0  0  0  0  0  0  0  0
  -24.9049  -20.1974   21.6156 C   0  0  0  0  0  0  0  0  0  0  0  0
  -22.9992   -9.8946   19.9811 C   0  0  0  0  0  0  0  0  0  0  0  0
  -23.7241   -9.9458   22.2852 C   0  0  0  0  0  0  0  0  0  0  0  0
  -23.7735  -22.2496   22.1850 C   0  0  0  0  0  0  0  0  0  0  0  0
  -25.7716  -20.3798   22.6927 C   0  0  0  0  0  0  0  0  0  0  0  0
  -28.2189  -16.0191   26.2283 C   0  0  0  0  0  0  0  0  0  0  0  0
  -22.2322   -8.7604   20.2476 C   0  0  0  0  0  0  0  0  0  0  0  0
  -22.9571   -8.8116   22.5517 C   0  0  0  0  0  0  0  0  0  0  0  0
  -29.4655  -15.3949   26.2202 C   0  0  0  0  0  0  0  0  0  0  0  0
  -21.4742   -5.7194   23.7556 C   0  0  0  0  0  0  0  0  0  0  0  0
  -22.0598   -4.7036   24.5111 C   0  0  0  0  0  0  0  0  0  0  0  0
  -30.2433  -16.9401   27.9015 C   0  0  0  0  0  0  0  0  0  0  0  0
  -23.7862   -4.4553   22.8393 C   0  0  0  0  0  0  0  0  0  0  0  0
  -30.6702  -18.6880   23.5095 C   0  0  0  0  0  0  0  0  0  0  0  0
  -23.7452  -10.4872   20.9999 C   0  0  0  0  0  0  0  0  0  0  0  0
  -24.1316  -13.0026   20.8233 C   0  0  0  0  0  0  0  0  0  0  0  0
  -24.6328  -22.4408   23.2784 C   0  0  0  0  0  0  0  0  0  0  0  0
  -27.9781  -17.1172   27.0665 C   0  0  0  0  0  0  0  0  0  0  0  0
  -25.6508  -21.5014   23.5306 C   0  0  0  0  0  0  0  0  0  0  0  0
  -28.9920  -17.5749   27.9201 C   0  0  0  0  0  0  0  0  0  0  0  0
  -30.6752  -16.5500   22.3845 C   0  0  0  0  0  0  0  0  0  0  0  0
  -32.4405  -17.1010   23.9393 C   0  0  0  0  0  0  0  0  0  0  0  0
  -22.2111   -8.2190   21.5329 C   0  0  0  0  0  0  0  0  0  0  0  0
  -30.4789  -15.8572   27.0548 C   0  0  0  0  0  0  0  0  0  0  0  0
  -22.0446   -6.1032   22.5419 C   0  0  0  0  0  0  0  0  0  0  0  0
  -23.2157   -4.0716   24.0530 C   0  0  0  0  0  0  0  0  0  0  0  0
  -30.0835  -17.7917   22.6163 C   0  0  0  0  0  0  0  0  0  0  0  0
  -31.8487  -18.3427   24.1710 C   0  0  0  0  0  0  0  0  0  0  0  0
  -23.2006   -5.4712   22.0838 C   0  0  0  0  0  0  0  0  0  0  0  0
  -31.8537  -16.2046   23.0460 C   0  0  0  0  0  0  0  0  0  0  0  0
  -24.5382  -11.6584   20.7250 C   0  0  0  0  0  0  0  0  0  0  0  0
  -25.2417  -13.7247   20.4589 C   0  0  0  0  0  0  0  0  0  0  0  0
  -22.8638  -13.5496   21.2096 C   0  0  0  0  0  0  0  0  0  0  0  0
  -27.2092  -20.1665   26.6034 C   0  0  0  0  0  0  0  0  0  0  0  0
  -26.9667  -20.1918   29.8381 C   0  0  0  0  0  0  0  0  0  0  0  0
  -27.8691  -18.8030   32.8220 C   0  0  0  0  0  0  0  0  0  0  0  0
  -30.7215  -14.6836   20.6931 C   0  0  0  0  0  0  0  0  0  0  0  0
  -24.4803  -23.6883   24.1121 C   0  0  0  0  0  0  0  0  0  0  0  0
  -26.6196  -17.7626   27.0827 C   0  0  0  0  0  0  0  0  0  0  0  0
  -28.7780  -18.7374   28.8535 C   0  0  0  0  0  0  0  0  0  0  0  0
  -25.2014  -23.6151   25.4555 C   0  0  0  0  0  0  0  0  0  0  0  0
  -29.6025  -12.2306   18.3677 C   0  0  0  0  0  0  0  0  0  0  0  0
  -26.6164  -23.0753   25.2731 C   0  0  0  0  0  0  0  0  0  0  0  0
  -28.1517  -11.9736   18.7817 C   0  0  0  0  0  0  0  0  0  0  0  0
  -30.5029  -12.4739   19.5775 C   0  0  0  0  0  0  0  0  0  0  0  0
  -28.5878  -13.2639   20.9106 C   0  0  0  0  0  0  0  0  0  0  0  0
  -26.5946  -21.6515   24.7040 C   0  0  1  0  0  0  0  0  0  0  0  0
  -26.6455  -19.1965   27.6029 C   0  0  1  0  0  0  0  0  0  0  0  0
  -27.6302  -13.0776   19.7224 C   0  0  2  0  0  0  0  0  0  0  0  0
  -27.5407  -19.0647   35.2961 C   0  0  0  0  0  0  0  0  0  0  0  0
  -28.8778  -22.5703   29.8378 C   0  0  0  0  0  0  0  0  0  0  0  0
  -29.2521  -22.1809   32.2825 C   0  0  0  0  0  0  0  0  0  0  0  0
  -26.9741  -22.7619   31.4483 C   0  0  0  0  0  0  0  0  0  0  0  0
  -26.6514  -16.1163   33.0618 C   0  0  0  0  0  0  0  0  0  0  0  0
  -34.0487  -15.4943   26.6383 C   0  0  0  0  0  0  0  0  0  0  0  0
  -33.8797  -15.4430   25.1246 C   0  0  0  0  0  0  0  0  0  0  0  0
  -32.8292  -16.0630   27.3542 C   0  0  0  0  0  0  0  0  0  1  0  0
  -27.9169  -20.4633   30.9793 C   0  0  1  0  0  0  0  0  0  0  0  0
  -27.0474  -18.3852   34.0281 C   0  0  2  0  0  0  0  0  0  0  0  0
  -28.2602  -21.9734   31.1181 C   0  0  0  0  0  0  0  0  0  0  0  0
  -25.8075  -11.5313   20.3290 N   0  0  0  0  0  0  0  0  0  0  0  0
  -26.2080  -12.8049   20.1751 N   0  0  0  0  0  0  0  0  0  0  0  0
  -27.4346  -19.3391   28.8282 N   0  0  0  0  0  0  0  0  0  0  0  0
  -29.9483  -13.5353   20.4205 N   0  0  0  0  0  0  0  0  0  0  0  0
  -25.4757  -15.0502   20.3565 N   0  0  0  0  0  0  0  0  0  0  0  0
  -21.8316  -12.6660   21.5532 N   0  0  0  0  0  0  0  0  0  0  0  0
  -30.0775  -15.6392   21.4784 N   0  0  0  0  0  0  0  0  0  0  0  0
  -33.6124  -16.7586   24.5957 N   0  0  0  0  0  0  0  0  0  0  0  0
  -26.2682  -20.6972   25.7420 N   0  0  0  0  0  0  0  0  0  0  0  0
  -27.3055  -19.8779   32.1676 N   0  0  0  0  0  0  0  0  0  0  0  0
  -27.1277  -16.9100   34.2237 N   0  3  0  0  0  0  0  0  0  0  0  0
  -22.6476  -14.7850   21.2330 O   0  0  0  0  0  0  0  0  0  0  0  0
  -28.4089  -20.4161   26.6141 O   0  0  0  0  0  0  0  0  0  0  0  0
  -25.8479  -20.7112   29.8460 O   0  0  0  0  0  0  0  0  0  0  0  0
  -28.9090  -18.2352   32.4955 O   0  0  0  0  0  0  0  0  0  0  0  0
  -31.8603  -14.8219   20.2392 O   0  0  0  0  0  0  0  0  0  0  0  0
  -21.4625   -7.1125   21.7934 O   0  0  0  0  0  0  0  0  0  0  0  0
  -31.6968  -15.2502   27.0485 O   0  0  0  0  0  0  0  0  0  1  0  0
  -23.7788   -3.0971   24.7794 F   0  0  0  0  0  0  0  0  0  0  0  0
  -28.9510  -18.1344   21.9859 F   0  0  0  0  0  0  0  0  0  0  0  0
  -32.4037  -19.2115   25.0280 F   0  0  0  0  0  0  0  0  0  0  0  0
  -23.7538   -5.8364   20.9191 F   0  0  0  0  0  0  0  0  0  0  0  0
  -32.4231  -15.0101   22.8237 F   0  0  0  0  0  0  0  0  0  0  0  0
  1  2  1  0  0  0  0
  1  5  2  0  0  0  0
  2  6  2  0  0  0  0
  3  8  2  0  0  0  0
  3 16  1  0  0  0  0
  4  9  1  0  0  0  0
  4 16  2  0  0  0  0
  5 18  1  0  0  0  0
  6 20  1  0  0  0  0
  7 10  2  0  0  0  0
  7 19  1  0  0  0  0
  8 24  1  0  0  0  0
  9 24  2  0  0  0  0
 10 25  1  0  0  0  0
 11 12  2  0  0  0  0
 11 26  1  0  0  0  0
 12 27  1  0  0  0  0
 13 21  1  0  0  0  0
 13 25  2  0  0  0  0
 14 27  2  0  0  0  0
 14 30  1  0  0  0  0
 15 28  1  0  0  0  0
 15 29  2  0  0  0  0
 16 32  1  0  0  0  0
 17 32  1  0  0  0  0
 17 33  2  0  0  0  0
 17 34  1  0  0  0  0
 18 20  2  0  0  0  0
 18 39  1  0  0  0  0
 19 21  2  0  0  0  0
 19 40  1  0  0  0  0
 20 48  1  0  0  0  0
 21 41  1  0  0  0  0
 22 28  2  0  0  0  0
 22 31  1  0  0  0  0
 22 68  1  0  0  0  0
 23 29  1  0  0  0  0
 23 31  2  0  0  0  0
 23 69  1  0  0  0  0
 24 78  1  0  0  0  0
 25 79  1  0  0  0  0
 26 30  2  0  0  0  0
 26 78  1  0  0  0  0
 27 80  1  0  0  0  0
 28 81  1  0  0  0  0
 29 82  1  0  0  0  0
 30 83  1  0  0  0  0
 31 84  1  0  0  0  0
 32 62  2  0  0  0  0
 33 63  1  0  0  0  0
 33 66  1  0  0  0  0
 34 67  1  0  0  0  0
 34 73  2  0  0  0  0
 35 49  1  0  0  0  0
 35 70  1  0  0  0  0
 35 74  2  0  0  0  0
 36 59  1  0  0  0  0
 36 64  1  0  0  0  0
 36 75  2  0  0  0  0
 37 60  1  0  0  0  0
 37 71  1  0  0  0  0
 37 76  2  0  0  0  0
 38 65  1  0  0  0  0
 38 68  1  0  0  0  0
 38 77  2  0  0  0  0
 39 42  1  0  0  0  0
 40 49  1  0  0  0  0
 41 64  1  0  0  0  0
 42 44  1  0  0  0  0
 43 45  1  0  0  0  0
 43 46  1  0  0  0  0
 44 48  1  0  0  0  0
 45 50  1  0  0  0  0
 46 65  1  0  0  0  0
 47 50  1  0  0  0  0
 47 65  1  0  0  0  0
 48 70  1  0  0  0  0
 49 64  1  0  0  0  0
 50 63  1  0  0  0  0
 51 60  1  0  0  0  0
 52 61  1  0  0  0  0
 53 61  1  0  0  0  0
 54 61  1  0  0  0  0
 55 72  1  0  0  0  0
 56 57  1  0  0  0  0
 56 58  1  0  0  0  0
 57 69  1  0  0  0  0
 58 79  1  0  0  0  0
 59 61  1  0  0  0  0
 59 71  1  0  0  0  0
 60 72  1  0  0  0  0
 62 63  1  0  0  0  0
M  CHG  1  72   1
M  ISO  4  38 100  58 101  68 100  79 101
M  END
> <Batch ID>
0013

> <Smiles>
CNC(C)C(=O)NC(C(=O)N1Cc2cc([101O:1][101CH2:1]CCNc3c(F)cc(F)c([100NH:0][100C:0](=O)N4CCCC(n5nc(-c6ccc(Oc7ccc(F)cc7F)cc6)c(C(N)=O)c5N)C4)c3F)ccc2CC1C(=O)NC1CCCc2ccccc21)C(C)(C)C

> <Shape>
0.175

> <Color>
0.202

> <Negative vol penalty>
0.000

$$$$

  -OEChem-04052315503D

 79 87  0     1  0  0  0  0  0999 V2000
  -35.9295  -23.5719   11.7713 C   0  0  0  0  0  0  0  0  0  0  0  0
  -34.9018  -23.4201   12.6967 C   0  0  0  0  0  0  0  0  0  0  0  0
  -23.0767   -9.8636   19.9427 C   0  0  0  0  0  0  0  0  0  0  0  0
  -23.8345   -9.8756   22.2368 C   0  0  0  0  0  0  0  0  0  0  0  0
  -37.1333  -22.8916   11.9503 C   0  0  0  0  0  0  0  0  0  0  0  0
  -35.0770  -22.5871   13.8011 C   0  0  0  0  0  0  0  0  0  0  0  0
  -32.8043  -23.4074   19.4285 C   0  0  0  0  0  0  0  0  0  0  0  0
  -22.3335   -8.7104   20.1942 C   0  0  0  0  0  0  0  0  0  0  0  0
  -23.0912   -8.7224   22.4883 C   0  0  0  0  0  0  0  0  0  0  0  0
  -31.6874  -22.8799   20.0751 C   0  0  0  0  0  0  0  0  0  0  0  0
  -19.8631   -7.9234   23.0894 C   0  0  0  0  0  0  0  0  0  0  0  0
  -19.1051   -7.8852   24.2597 C   0  0  0  0  0  0  0  0  0  0  0  0
  -33.0780  -21.1847   21.0810 C   0  0  0  0  0  0  0  0  0  0  0  0
  -30.2214  -19.1973   22.6802 C   0  0  0  0  0  0  0  0  0  0  0  0
  -30.7600  -19.1658   20.3253 C   0  0  0  0  0  0  0  0  0  0  0  0
  -20.3472   -5.9501   25.0010 C   0  0  0  0  0  0  0  0  0  0  0  0
  -23.8273  -10.4462   20.9640 C   0  0  0  0  0  0  0  0  0  0  0  0
  -24.1674  -12.9714   20.8394 C   0  0  0  0  0  0  0  0  0  0  0  0
  -37.3268  -22.0573   13.0626 C   0  0  0  0  0  0  0  0  0  0  0  0
  -34.0666  -22.8199   19.5949 C   0  0  0  0  0  0  0  0  0  0  0  0
  -36.2840  -21.8940   13.9945 C   0  0  0  0  0  0  0  0  0  0  0  0
  -34.2097  -21.7082   20.4374 C   0  0  0  0  0  0  0  0  0  0  0  0
  -30.0578  -17.8122   22.6613 C   0  0  0  0  0  0  0  0  0  0  0  0
  -30.2452  -17.1039   21.4744 C   0  0  0  0  0  0  0  0  0  0  0  0
  -22.3407   -8.1398   21.4670 C   0  0  0  0  0  0  0  0  0  0  0  0
  -31.8237  -21.7666   20.8992 C   0  0  0  0  0  0  0  0  0  0  0  0
  -20.8631   -6.9749   22.8749 C   0  0  0  0  0  0  0  0  0  0  0  0
  -30.5726  -19.8741   21.5122 C   0  0  0  0  0  0  0  0  0  1  0  0
  -19.3471   -6.8986   25.2155 C   0  0  0  0  0  0  0  0  0  0  0  0
  -21.1052   -5.9883   23.8307 C   0  0  0  0  0  0  0  0  0  0  0  0
  -30.5964  -17.7807   20.3064 C   0  0  0  0  0  0  0  0  0  0  0  0
  -24.5957  -11.6372   20.7046 C   0  0  0  0  0  0  0  0  0  0  0  0
  -25.2593  -13.7210   20.4756 C   0  0  0  0  0  0  0  0  0  0  0  0
  -22.8961  -13.4871   21.2561 C   0  0  0  0  0  0  0  0  0  0  0  0
  -36.1637  -21.4229   17.6573 C   0  0  0  0  0  0  0  0  0  0  0  0
  -38.0205  -21.4045   20.3171 C   0  0  0  0  0  0  0  0  0  0  0  0
  -38.2016  -21.4674   23.7245 C   0  0  0  0  0  0  0  0  0  0  0  0
  -30.7245  -14.7710   20.6534 C   0  0  0  0  0  0  0  0  0  0  0  0
  -38.6283  -21.3057   13.1886 C   0  0  0  0  0  0  0  0  0  0  0  0
  -35.2661  -23.4172   18.9115 C   0  0  0  0  0  0  0  0  0  0  0  0
  -35.5465  -21.0529   20.6654 C   0  0  0  0  0  0  0  0  0  0  0  0
  -38.8694  -20.7348   14.5836 C   0  0  0  0  0  0  0  0  0  0  0  0
  -29.6141  -12.3517   18.2888 C   0  0  0  0  0  0  0  0  0  0  0  0
  -37.6154  -20.0352   15.0982 C   0  0  0  0  0  0  0  0  0  0  0  0
  -28.1743  -12.0599   18.7176 C   0  0  0  0  0  0  0  0  0  0  0  0
  -30.5279  -12.5836   19.4908 C   0  0  0  0  0  0  0  0  0  0  0  0
  -28.6192  -13.3093   20.8689 C   0  0  0  0  0  0  0  0  0  0  0  0
  -36.4450  -21.0186   15.2184 C   0  0  1  0  0  0  0  0  0  0  0  0
  -36.4147  -22.4268   18.7468 C   0  0  1  0  0  0  0  0  0  0  0  0
  -27.6476  -13.1330   19.6905 C   0  0  2  0  0  0  0  0  0  0  0  0
  -29.6813  -17.1170   23.9298 C   0  0  0  0  0  0  0  0  0  0  0  0
  -39.8554  -21.4017   25.6108 C   0  0  0  0  0  0  0  0  0  0  0  0
  -38.3855  -18.4055   19.8895 C   0  0  0  0  0  0  0  0  0  0  0  0
  -39.2108  -18.2404   22.2474 C   0  0  0  0  0  0  0  0  0  0  0  0
  -40.4581  -19.6200   20.5850 C   0  0  0  0  0  0  0  0  0  0  0  0
  -37.3678  -24.1334   24.7021 C   0  0  0  0  0  0  0  0  0  0  0  0
  -38.2362  -20.4465   21.4637 C   0  0  1  0  0  0  0  0  0  0  0  0
  -39.0540  -22.2910   24.6728 C   0  0  2  0  0  0  0  0  0  0  0  0
  -39.0470  -19.1891   21.0408 C   0  0  0  0  0  0  0  0  0  0  0  0
  -25.8610  -11.5415   20.2877 N   0  0  0  0  0  0  0  0  0  0  0  0
  -26.2371  -12.8251   20.1572 N   0  0  0  0  0  0  0  0  0  0  0  0
  -36.6882  -21.6699   19.9701 N   0  0  0  0  0  0  0  0  0  0  0  0
  -29.9674  -13.6157   20.3657 N   0  0  0  0  0  0  0  0  0  0  0  0
  -25.4688  -15.0525   20.4002 N   0  0  0  0  0  0  0  0  0  0  0  0
  -21.8845  -12.5778   21.5942 N   0  0  0  0  0  0  0  0  0  0  0  0
  -30.0757  -15.6971   21.4694 N   0  0  0  0  0  0  0  0  0  0  0  0
  -36.5878  -21.8315   16.4073 N   0  0  0  0  0  0  0  0  0  0  0  0
  -38.8528  -21.2230   22.5339 N   0  0  0  0  0  0  0  0  0  0  0  0
  -38.1942  -23.1879   25.4958 N   0  3  0  0  0  0  0  0  0  0  0  0
  -22.6589  -14.7176   21.3108 O   0  0  0  0  0  0  0  0  0  0  0  0
  -35.6265  -20.3561   17.9309 O   0  0  0  0  0  0  0  0  0  0  0  0
  -38.9979  -21.9046   19.7549 O   0  0  0  0  0  0  0  0  0  0  0  0
  -37.0726  -21.0765   24.0126 O   0  0  0  0  0  0  0  0  0  0  0  0
  -31.8539  -14.9396   20.1865 O   0  0  0  0  0  0  0  0  0  0  0  0
  -21.6153   -7.0147   21.7129 O   0  0  0  0  0  0  0  0  0  0  0  0
  -30.7351  -21.2493   21.5311 O   0  0  0  0  0  0  0  0  0  1  0  0
  -18.6202   -6.8629   26.3400 F   0  0  0  0  0  0  0  0  0  0  0  0
  -22.0654   -5.0751   23.6308 F   0  0  0  0  0  0  0  0  0  0  0  0
  -30.8391  -16.9458   18.8129 Cl  0  0  0  0  0  0  0  0  0  0  0  0
  1  2  1  0  0  0  0
  1  5  2  0  0  0  0
  2  6  2  0  0  0  0
  3  8  2  0  0  0  0
  3 17  1  0  0  0  0
  4  9  1  0  0  0  0
  4 17  2  0  0  0  0
  5 19  1  0  0  0  0
  6 21  1  0  0  0  0
  7 10  2  0  0  0  0
  7 20  1  0  0  0  0
  8 25  1  0  0  0  0
  9 25  2  0  0  0  0
 10 26  1  0  0  0  0
 11 12  2  0  0  0  0
 11 27  1  0  0  0  0
 12 29  1  0  0  0  0
 13 22  1  0  0  0  0
 13 26  2  0  0  0  0
 14 23  2  0  0  0  0
 14 28  1  0  0  0  0
 15 28  2  0  0  0  0
 15 31  1  0  0  0  0
 16 29  2  0  0  0  0
 16 30  1  0  0  0  0
 17 32  1  0  0  0  0
 18 32  1  0  0  0  0
 18 33  2  0  0  0  0
 18 34  1  0  0  0  0
 19 21  2  0  0  0  0
 19 39  1  0  0  0  0
 20 22  2  0  0  0  0
 20 40  1  0  0  0  0
 21 48  1  0  0  0  0
 22 41  1  0  0  0  0
 23 24  1  0  0  0  0
 23 51  1  0  0  0  0
 24 31  2  0  0  0  0
 24 66  1  0  0  0  0
 25 75  1  0  0  0  0
 26 76  1  0  0  0  0
 27 30  2  0  0  0  0
 27 75  1  0  0  0  0
 28 76  1  0  0  0  0
 29 77  1  0  0  0  0
 30 78  1  0  0  0  0
 31 79  1  0  0  0  0
 32 60  2  0  0  0  0
 33 61  1  0  0  0  0
 33 64  1  0  0  0  0
 34 65  1  0  0  0  0
 34 70  2  0  0  0  0
 35 49  1  0  0  0  0
 35 67  1  0  0  0  0
 35 71  2  0  0  0  0
 36 57  1  0  0  0  0
 36 62  1  0  0  0  0
 36 72  2  0  0  0  0
 37 58  1  0  0  0  0
 37 68  1  0  0  0  0
 37 73  2  0  0  0  0
 38 63  1  0  0  0  0
 38 66  1  0  0  0  0
 38 74  2  0  0  0  0
 39 42  1  0  0  0  0
 40 49  1  0  0  0  0
 41 62  1  0  0  0  0
 42 44  1  0  0  0  0
 43 45  1  0  0  0  0
 43 46  1  0  0  0  0
 44 48  1  0  0  0  0
 45 50  1  0  0  0  0
 46 63  1  0  0  0  0
 47 50  1  0  0  0  0
 47 63  1  0  0  0  0
 48 67  1  0  0  0  0
 49 62  1  0  0  0  0
 50 61  1  0  0  0  0
 52 58  1  0  0  0  0
 53 59  1  0  0  0  0
 54 59  1  0  0  0  0
 55 59  1  0  0  0  0
 56 69  1  0  0  0  0
 57 59  1  0  0  0  0
 57 68  1  0  0  0  0
 58 69  1  0  0  0  0
 60 61  1  0  0  0  0
M  CHG  1  69   1
M  ISO  4  28 101  38 100  66 100  76 101
M  END
> <Batch ID>
0013

> <Smiles>
CNC(C)C(=O)NC(C(=O)N1Cc2cc([101O:1][101c:1]3cc(C)c([100NH:0][100C:0](=O)N4CCCC(n5nc(-c6ccc(Oc7ccc(F)cc7F)cc6)c(C(N)=O)c5N)C4)c(Cl)c3)ccc2CC1C(=O)NC1CCCc2ccccc21)C(C)(C)C

> <Shape>
0.188

> <Color>
0.200

> <Negative vol penalty>
0.000

$$$$

  -OEChem-04052315503D

 87 95  0     1  0  0  0  0  0999 V2000
  -17.2267  -12.6074   21.2623 C   0  0  0  0  0  0  0  0  0  0  0  0
  -17.9677  -13.7751   21.4127 C   0  0  0  0  0  0  0  0  0  0  0  0
  -27.5322  -25.7821   21.8630 C   0  0  0  0  0  0  0  0  0  0  0  0
  -26.8284  -25.6714   19.5544 C   0  0  0  0  0  0  0  0  0  0  0  0
  -22.3197  -25.8382   23.9428 C   0  0  0  0  0  0  0  0  0  0  0  0
  -17.7678  -11.3842   21.6557 C   0  0  0  0  0  0  0  0  0  0  0  0
  -19.2500  -13.7204   21.9578 C   0  0  0  0  0  0  0  0  0  0  0  0
  -24.0415  -17.2262   20.4556 C   0  0  0  0  0  0  0  0  0  0  0  0
  -23.2543  -24.8160   24.1080 C   0  0  0  0  0  0  0  0  0  0  0  0
  -27.4338  -24.3941   21.9596 C   0  0  0  0  0  0  0  0  0  0  0  0
  -26.7301  -24.2834   19.6510 C   0  0  0  0  0  0  0  0  0  0  0  0
  -24.5887  -18.3675   21.0404 C   0  0  0  0  0  0  0  0  0  0  0  0
  -26.6410  -20.6788   19.1848 C   0  0  0  0  0  0  0  0  0  0  0  0
  -27.1727  -19.9163   18.1448 C   0  0  0  0  0  0  0  0  0  0  0  0
  -22.9533  -26.0422   21.6203 C   0  0  0  0  0  0  0  0  0  0  0  0
  -26.1915  -16.9935   22.2077 C   0  0  0  0  0  0  0  0  0  0  0  0
  -29.3546  -20.8651   18.5648 C   0  0  0  0  0  0  0  0  0  0  0  0
  -27.2295  -26.4208   20.6604 C   0  0  0  0  0  0  0  0  0  0  0  0
  -22.1691  -26.4512   22.6989 C   0  0  0  0  0  0  0  0  0  0  0  0
  -28.4605  -28.6027   20.1796 C   0  0  0  0  0  0  0  0  0  0  0  0
  -19.0611  -11.3132   22.1970 C   0  0  0  0  0  0  0  0  0  0  0  0
  -24.5591  -15.9570   20.7515 C   0  0  0  0  0  0  0  0  0  0  0  0
  -19.8085  -12.4953   22.3602 C   0  0  0  0  0  0  0  0  0  0  0  0
  -25.6507  -15.8380   21.6235 C   0  0  0  0  0  0  0  0  0  0  0  0
  -24.0385  -24.4070   23.0294 C   0  0  0  0  0  0  0  0  0  0  0  0
  -27.0327  -23.6447   20.8536 C   0  0  0  0  0  0  0  0  0  0  0  0
  -25.6620  -18.2510   21.9188 C   0  0  0  0  0  0  0  0  0  0  0  0
  -27.4661  -21.5345   19.9147 C   0  0  0  0  0  0  0  0  0  0  0  0
  -28.5295  -20.0094   17.8348 C   0  0  0  0  0  0  0  0  0  0  0  0
  -23.8880  -25.0200   21.7855 C   0  0  0  0  0  0  0  0  0  0  0  0
  -28.8229  -21.6276   19.6047 C   0  0  0  0  0  0  0  0  0  0  0  0
  -27.3304  -27.8546   20.5602 C   0  0  0  0  0  0  0  0  0  0  0  0
  -28.0441  -29.9101   20.2430 C   0  0  0  0  0  0  0  0  0  0  0  0
  -21.1820  -27.5309   22.5233 C   0  0  0  0  0  0  0  0  0  0  0  0
  -29.7696  -28.1559   19.8024 C   0  0  0  0  0  0  0  0  0  0  0  0
  -23.4006  -13.3196   22.0953 C   0  0  0  0  0  0  0  0  0  0  0  0
  -26.2725  -12.0848   21.2294 C   0  0  0  0  0  0  0  0  0  0  0  0
  -29.5475  -12.6399   20.4467 C   0  0  0  0  0  0  0  0  0  0  0  0
  -22.9323  -29.2575   22.4713 C   0  0  0  0  0  0  0  0  0  0  0  0
  -19.5853   -9.9741   22.6516 C   0  0  0  0  0  0  0  0  0  0  0  0
  -23.9748  -14.7380   20.0918 C   0  0  0  0  0  0  0  0  0  0  0  0
  -26.2561  -14.5001   21.9583 C   0  0  0  0  0  0  0  0  0  0  0  0
  -21.0955   -9.9547   22.8737 C   0  0  0  0  0  0  0  0  0  0  0  0
  -23.9706  -30.6317   19.1540 C   0  0  0  0  0  0  0  0  0  0  0  0
  -21.5329  -11.1760   23.6761 C   0  0  0  0  0  0  0  0  0  0  0  0
  -25.1474  -31.5171   19.5561 C   0  0  0  0  0  0  0  0  0  0  0  0
  -22.9513  -30.5386   20.2805 C   0  0  0  0  0  0  0  0  0  0  0  0
  -24.7381  -30.8773   21.9699 C   0  0  0  0  0  0  0  0  0  0  0  0
  -21.2125  -12.4736   22.9244 C   0  0  1  0  0  0  0  0  0  0  0  0
  -24.2504  -13.4511   20.8632 C   0  0  1  0  0  0  0  0  0  0  0  0
  -25.8060  -31.0507   20.8699 C   0  0  1  0  0  0  0  0  0  0  0  0
  -31.6555  -11.4309   19.8204 C   0  0  0  0  0  0  0  0  0  0  0  0
  -19.9581  -29.3376   20.4133 C   0  0  0  0  0  0  0  0  0  0  0  0
  -19.7271  -30.1777   22.7722 C   0  0  0  0  0  0  0  0  0  0  0  0
  -26.6316  -11.2126   24.1312 C   0  0  0  0  0  0  0  0  0  0  0  0
  -29.0692  -10.8901   23.6597 C   0  0  0  0  0  0  0  0  0  0  0  0
  -27.3734   -9.5296   22.4366 C   0  0  0  0  0  0  0  0  0  0  0  0
  -29.7107  -14.0341   17.8413 C   0  0  0  0  0  0  0  0  0  0  0  0
  -25.7878  -21.2208   23.9547 C   0  0  0  0  0  0  0  0  0  0  0  0
  -24.9223  -22.4336   24.2744 C   0  0  0  0  0  0  0  0  0  0  0  0
  -25.3189  -20.4649   22.7170 C   0  0  0  0  0  0  0  0  0  1  0  0
  -27.6315  -11.9819   21.8786 C   0  0  1  0  0  0  0  0  0  0  0  0
  -30.4098  -12.1342   19.3042 C   0  0  2  0  0  0  0  0  0  0  0  0
  -20.6984  -29.8170   21.6556 C   0  0  0  0  0  0  0  0  0  0  0  0
  -27.6640  -10.9287   23.0219 C   0  0  0  0  0  0  0  0  0  0  0  0
  -26.2753  -28.6228   20.8445 N   0  0  0  0  0  0  0  0  0  0  0  0
  -26.7408  -29.8672   20.6424 N   0  0  0  0  0  0  0  0  0  0  0  0
  -25.6457  -13.3374   21.2928 N   0  0  0  0  0  0  0  0  0  0  0  0
  -23.5711  -30.0993   21.5368 N   0  0  0  0  0  0  0  0  0  0  0  0
  -28.6694  -31.0806   19.9955 N   0  0  0  0  0  0  0  0  0  0  0  0
  -30.0278  -26.7784   19.7906 N   0  0  0  0  0  0  0  0  0  0  0  0
  -24.9671  -23.3915   23.1962 N   0  0  0  0  0  0  0  0  0  0  0  0
  -22.1834  -12.7033   21.8761 N   0  0  0  0  0  0  0  0  0  0  0  0
  -28.5802  -11.7233   20.8009 N   0  0  0  0  0  0  0  0  0  0  0  0
  -21.6454  -28.7991   22.1141 N   0  0  0  0  0  0  0  0  0  0  0  0
  -30.8360  -13.2679   18.4359 N   0  3  0  0  0  0  0  0  0  0  0  0
  -20.0068  -27.2369   22.7384 O   0  0  0  0  0  0  0  0  0  0  0  0
  -30.6882  -28.9553   19.5012 O   0  0  0  0  0  0  0  0  0  0  0  0
  -23.8189  -13.7444   23.1660 O   0  0  0  0  0  0  0  0  0  0  0  0
  -25.7881  -11.0923   20.6800 O   0  0  0  0  0  0  0  0  0  0  0  0
  -29.7177  -13.7366   20.9748 O   0  0  0  0  0  0  0  0  0  0  0  0
  -23.4755  -28.9009   23.5233 O   0  0  0  0  0  0  0  0  0  0  0  0
  -26.9369  -22.2902   20.9474 O   0  0  0  0  0  0  0  0  0  0  0  0
  -26.1975  -19.3633   22.4914 O   0  0  0  0  0  0  0  0  0  1  0  0
  -29.0402  -19.2760   16.8372 F   0  0  0  0  0  0  0  0  0  0  0  0
  -24.6364  -24.6351   20.7419 F   0  0  0  0  0  0  0  0  0  0  0  0
  -29.6207  -22.4470   20.3032 F   0  0  0  0  0  0  0  0  0  0  0  0
  1  2  1  0  0  0  0
  1  6  2  0  0  0  0
  2  7  2  0  0  0  0
  3 10  2  0  0  0  0
  3 18  1  0  0  0  0
  4 11  1  0  0  0  0
  4 18  2  0  0  0  0
  5  9  2  0  0  0  0
  5 19  1  0  0  0  0
  6 21  1  0  0  0  0
  7 23  1  0  0  0  0
  8 12  2  0  0  0  0
  8 22  1  0  0  0  0
  9 25  1  0  0  0  0
 10 26  1  0  0  0  0
 11 26  2  0  0  0  0
 12 27  1  0  0  0  0
 13 14  2  0  0  0  0
 13 28  1  0  0  0  0
 14 29  1  0  0  0  0
 15 19  2  0  0  0  0
 15 30  1  0  0  0  0
 16 24  1  0  0  0  0
 16 27  2  0  0  0  0
 17 29  2  0  0  0  0
 17 31  1  0  0  0  0
 18 32  1  0  0  0  0
 19 34  1  0  0  0  0
 20 32  1  0  0  0  0
 20 33  2  0  0  0  0
 20 35  1  0  0  0  0
 21 23  2  0  0  0  0
 21 40  1  0  0  0  0
 22 24  2  0  0  0  0
 22 41  1  0  0  0  0
 23 49  1  0  0  0  0
 24 42  1  0  0  0  0
 25 30  2  0  0  0  0
 25 72  1  0  0  0  0
 26 83  1  0  0  0  0
 27 84  1  0  0  0  0
 28 31  2  0  0  0  0
 28 83  1  0  0  0  0
 29 85  1  0  0  0  0
 30 86  1  0  0  0  0
 31 87  1  0  0  0  0
 32 66  2  0  0  0  0
 33 67  1  0  0  0  0
 33 70  1  0  0  0  0
 34 75  1  0  0  0  0
 34 77  2  0  0  0  0
 35 71  1  0  0  0  0
 35 78  2  0  0  0  0
 36 50  1  0  0  0  0
 36 73  1  0  0  0  0
 36 79  2  0  0  0  0
 37 62  1  0  0  0  0
 37 68  1  0  0  0  0
 37 80  2  0  0  0  0
 38 63  1  0  0  0  0
 38 74  1  0  0  0  0
 38 81  2  0  0  0  0
 39 69  1  0  0  0  0
 39 75  1  0  0  0  0
 39 82  2  0  0  0  0
 40 43  1  0  0  0  0
 41 50  1  0  0  0  0
 42 68  1  0  0  0  0
 43 45  1  0  0  0  0
 44 46  1  0  0  0  0
 44 47  1  0  0  0  0
 45 49  1  0  0  0  0
 46 51  1  0  0  0  0
 47 69  1  0  0  0  0
 48 51  1  0  0  0  0
 48 69  1  0  0  0  0
 49 73  1  0  0  0  0
 50 68  1  0  0  0  0
 51 67  1  0  0  0  0
 52 63  1  0  0  0  0
 53 64  1  0  0  0  0
 54 64  1  0  0  0  0
 55 65  1  0  0  0  0
 56 65  1  0  0  0  0
 57 65  1  0  0  0  0
 58 76  1  0  0  0  0
 59 60  1  0  0  0  0
 59 61  1  0  0  0  0
 60 72  1  0  0  0  0
 61 84  1  0  0  0  0
 62 65  1  0  0  0  0
 62 74  1  0  0  0  0
 63 76  1  0  0  0  0
 64 75  1  0  0  0  0
 66 67  1  0  0  0  0
M  CHG  1  76   1
M  ISO  4  39 100  61 101  75 100  84 101
M  END
> <Batch ID>
0013

> <Smiles>
CNC(C)C(=O)NC(C(=O)N1Cc2cc([101O:1][101CH2:1]CCNc3ccc(C(=O)[100N:0](C(C)C)[100C:0](=O)N4CCCC(n5nc(-c6ccc(Oc7ccc(F)cc7F)cc6)c(C(N)=O)c5N)C4)cc3F)ccc2CC1C(=O)NC1CCCc2ccccc21)C(C)(C)C

> <Shape>
0.242

> <Color>
0.060

> <Negative vol penalty>
0.000

$$$$

  -OEChem-04052315503D

 84 92  0     1  0  0  0  0  0999 V2000
  -28.4288  -33.7552   28.9678 C   0  0  0  0  0  0  0  0  0  0  0  0
  -28.9591  -32.4694   28.9405 C   0  0  0  0  0  0  0  0  0  0  0  0
  -22.9976   -9.8958   19.9880 C   0  0  0  0  0  0  0  0  0  0  0  0
  -23.7153   -9.9609   22.2940 C   0  0  0  0  0  0  0  0  0  0  0  0
  -27.2225  -34.0243   28.3225 C   0  0  0  0  0  0  0  0  0  0  0  0
  -28.2829  -31.4516   28.2687 C   0  0  0  0  0  0  0  0  0  0  0  0
  -30.7775  -26.7763   25.1988 C   0  0  0  0  0  0  0  0  0  0  0  0
  -22.2284   -8.7643   20.2592 C   0  0  0  0  0  0  0  0  0  0  0  0
  -22.9461   -8.8294   22.5653 C   0  0  0  0  0  0  0  0  0  0  0  0
  -31.0164  -25.4473   25.5458 C   0  0  0  0  0  0  0  0  0  0  0  0
  -23.1867   -5.4870   22.1162 C   0  0  0  0  0  0  0  0  0  0  0  0
  -23.7702   -4.4739   22.8769 C   0  0  0  0  0  0  0  0  0  0  0  0
  -28.9484  -24.8043   24.4832 C   0  0  0  0  0  0  0  0  0  0  0  0
  -31.9008  -18.3113   24.1628 C   0  0  0  0  0  0  0  0  0  0  0  0
  -22.0412   -4.7305   24.5448 C   0  0  0  0  0  0  0  0  0  0  0  0
  -23.7411  -10.4941   21.0053 C   0  0  0  0  0  0  0  0  0  0  0  0
  -24.1309  -13.0079   20.8140 C   0  0  0  0  0  0  0  0  0  0  0  0
  -26.5360  -33.0115   27.6344 C   0  0  0  0  0  0  0  0  0  0  0  0
  -29.6149  -27.1314   24.4997 C   0  0  0  0  0  0  0  0  0  0  0  0
  -27.0656  -31.7071   27.6148 C   0  0  0  0  0  0  0  0  0  0  0  0
  -28.6983  -26.1382   24.1263 C   0  0  0  0  0  0  0  0  0  0  0  0
  -30.7242  -18.6867   23.5145 C   0  0  0  0  0  0  0  0  0  0  0  0
  -30.6737  -16.5576   22.3735 C   0  0  0  0  0  0  0  0  0  0  0  0
  -22.2026   -8.2311   21.5479 C   0  0  0  0  0  0  0  0  0  0  0  0
  -30.1005  -24.4615   25.1905 C   0  0  0  0  0  0  0  0  0  0  0  0
  -22.0305   -6.1220   22.5698 C   0  0  0  0  0  0  0  0  0  0  0  0
  -23.1974   -4.0956   24.0912 C   0  0  0  0  0  0  0  0  0  0  0  0
  -32.4639  -17.0592   23.9165 C   0  0  0  0  0  0  0  0  0  0  0  0
  -21.4577   -5.7437   23.7841 C   0  0  0  0  0  0  0  0  0  0  0  0
  -31.8504  -16.1823   23.0219 C   0  0  0  0  0  0  0  0  0  0  0  0
  -30.1106  -17.8098   22.6199 C   0  0  0  0  0  0  0  0  0  0  0  0
  -24.5363  -11.6627   20.7256 C   0  0  0  0  0  0  0  0  0  0  0  0
  -25.2430  -13.7263   20.4485 C   0  0  0  0  0  0  0  0  0  0  0  0
  -22.8626  -13.5588   21.1928 C   0  0  0  0  0  0  0  0  0  0  0  0
  -27.1102  -28.9910   25.1101 C   0  0  0  0  0  0  0  0  0  0  0  0
  -26.3465  -28.3089   22.0322 C   0  0  0  0  0  0  0  0  0  0  0  0
  -30.6902  -20.9306   24.6537 C   0  0  0  0  0  0  0  0  0  0  0  0
  -26.6436  -26.1879   19.3751 C   0  0  0  0  0  0  0  0  0  0  0  0
  -30.7232  -14.6805   20.6942 C   0  0  0  0  0  0  0  0  0  0  0  0
  -25.2115  -33.3397   26.9919 C   0  0  0  0  0  0  0  0  0  0  0  0
  -29.3849  -28.5657   24.1096 C   0  0  0  0  0  0  0  0  0  0  0  0
  -27.4448  -26.4644   23.3577 C   0  0  0  0  0  0  0  0  0  0  0  0
  -24.7462  -32.2905   25.9854 C   0  0  0  0  0  0  0  0  0  0  0  0
  -29.6087  -12.2140   18.3808 C   0  0  0  0  0  0  0  0  0  0  0  0
  -24.9041  -30.8882   26.5646 C   0  0  0  0  0  0  0  0  0  0  0  0
  -28.1563  -11.9614   18.7919 C   0  0  0  0  0  0  0  0  0  0  0  0
  -30.5056  -12.4640   19.5919 C   0  0  0  0  0  0  0  0  0  0  0  0
  -28.5871  -13.2646   20.9139 C   0  0  0  0  0  0  0  0  0  0  0  0
  -26.3741  -30.5821   26.8757 C   0  0  1  0  0  0  0  0  0  0  0  0
  -27.9165  -28.8853   23.8466 C   0  0  1  0  0  0  0  0  0  0  0  0
  -27.6331  -13.0719   19.7238 C   0  0  2  0  0  0  0  0  0  0  0  0
  -25.8737  -25.8771   17.0070 C   0  0  0  0  0  0  0  0  0  0  0  0
  -23.6127  -27.4055   23.0421 C   0  0  0  0  0  0  0  0  0  0  0  0
  -23.2615  -26.2504   20.8487 C   0  0  0  0  0  0  0  0  0  0  0  0
  -23.5562  -28.7265   20.9193 C   0  0  0  0  0  0  0  0  0  0  0  0
  -29.4133  -26.2970   18.3379 C   0  0  0  0  0  0  0  0  0  0  0  0
  -29.8043  -22.1625   24.6585 C   0  0  0  0  0  0  0  0  0  1  0  0
  -25.5485  -27.2286   21.3429 C   0  0  1  0  0  0  0  0  0  0  0  0
  -26.9565  -26.4440   17.9119 C   0  0  2  0  0  0  0  0  0  0  0  0
  -24.0173  -27.3966   21.5544 C   0  0  0  0  0  0  0  0  0  0  0  0
  -25.8067  -11.5316   20.3345 N   0  0  0  0  0  0  0  0  0  0  0  0
  -26.2091  -12.8037   20.1738 N   0  0  0  0  0  0  0  0  0  0  0  0
  -27.2616  -27.8820   23.0048 N   0  0  0  0  0  0  0  0  0  0  0  0
  -29.9495  -13.5313   20.4264 N   0  0  0  0  0  0  0  0  0  0  0  0
  -25.4789  -15.0510   20.3385 N   0  0  0  0  0  0  0  0  0  0  0  0
  -21.8283  -12.6785   21.5387 N   0  0  0  0  0  0  0  0  0  0  0  0
  -30.1836  -19.9650   23.7905 N   0  0  0  0  0  0  0  0  0  0  0  0
  -30.0778  -15.6418   21.4714 N   0  0  0  0  0  0  0  0  0  0  0  0
  -27.0910  -30.2581   25.6610 N   0  0  0  0  0  0  0  0  0  0  0  0
  -25.9637  -27.2438   19.9444 N   0  0  0  0  0  0  0  0  0  0  0  0
  -28.2555  -25.8141   17.5421 N   0  3  0  0  0  0  0  0  0  0  0  0
  -22.6477  -14.7946   21.2077 O   0  0  0  0  0  0  0  0  0  0  0  0
  -26.5461  -27.9968   25.5518 O   0  0  0  0  0  0  0  0  0  0  0  0
  -26.1697  -29.4876   21.7141 O   0  0  0  0  0  0  0  0  0  0  0  0
  -31.7022  -20.8642   25.3437 O   0  0  0  0  0  0  0  0  0  0  0  0
  -26.9665  -25.1530   19.9541 O   0  0  0  0  0  0  0  0  0  0  0  0
  -31.8635  -14.8146   20.2430 O   0  0  0  0  0  0  0  0  0  0  0  0
  -21.4520   -7.1271   21.8130 O   0  0  0  0  0  0  0  0  0  0  0  0
  -30.3310  -23.1636   25.5285 O   0  0  0  0  0  0  0  0  0  1  0  0
  -23.7569   -3.1216   24.8209 F   0  0  0  0  0  0  0  0  0  0  0  0
  -33.5938  -16.6988   24.5390 F   0  0  0  0  0  0  0  0  0  0  0  0
  -20.3463   -6.3492   24.2245 F   0  0  0  0  0  0  0  0  0  0  0  0
  -32.4021  -14.9817   22.7941 F   0  0  0  0  0  0  0  0  0  0  0  0
  -28.6465  -18.2774   21.8134 Cl  0  0  0  0  0  0  0  0  0  0  0  0
  1  2  1  0  0  0  0
  1  5  2  0  0  0  0
  2  6  2  0  0  0  0
  3  8  2  0  0  0  0
  3 16  1  0  0  0  0
  4  9  1  0  0  0  0
  4 16  2  0  0  0  0
  5 18  1  0  0  0  0
  6 20  1  0  0  0  0
  7 10  2  0  0  0  0
  7 19  1  0  0  0  0
  8 24  1  0  0  0  0
  9 24  2  0  0  0  0
 10 25  1  0  0  0  0
 11 12  2  0  0  0  0
 11 26  1  0  0  0  0
 12 27  1  0  0  0  0
 13 21  1  0  0  0  0
 13 25  2  0  0  0  0
 14 22  1  0  0  0  0
 14 28  2  0  0  0  0
 15 27  2  0  0  0  0
 15 29  1  0  0  0  0
 16 32  1  0  0  0  0
 17 32  1  0  0  0  0
 17 33  2  0  0  0  0
 17 34  1  0  0  0  0
 18 20  2  0  0  0  0
 18 40  1  0  0  0  0
 19 21  2  0  0  0  0
 19 41  1  0  0  0  0
 20 49  1  0  0  0  0
 21 42  1  0  0  0  0
 22 31  2  0  0  0  0
 22 67  1  0  0  0  0
 23 30  2  0  0  0  0
 23 31  1  0  0  0  0
 23 68  1  0  0  0  0
 24 78  1  0  0  0  0
 25 79  1  0  0  0  0
 26 29  2  0  0  0  0
 26 78  1  0  0  0  0
 27 80  1  0  0  0  0
 28 30  1  0  0  0  0
 28 81  1  0  0  0  0
 29 82  1  0  0  0  0
 30 83  1  0  0  0  0
 31 84  1  0  0  0  0
 32 61  2  0  0  0  0
 33 62  1  0  0  0  0
 33 65  1  0  0  0  0
 34 66  1  0  0  0  0
 34 72  2  0  0  0  0
 35 50  1  0  0  0  0
 35 69  1  0  0  0  0
 35 73  2  0  0  0  0
 36 58  1  0  0  0  0
 36 63  1  0  0  0  0
 36 74  2  0  0  0  0
 37 57  1  0  0  0  0
 37 67  1  0  0  0  0
 37 75  2  0  0  0  0
 38 59  1  0  0  0  0
 38 70  1  0  0  0  0
 38 76  2  0  0  0  0
 39 64  1  0  0  0  0
 39 68  1  0  0  0  0
 39 77  2  0  0  0  0
 40 43  1  0  0  0  0
 41 50  1  0  0  0  0
 42 63  1  0  0  0  0
 43 45  1  0  0  0  0
 44 46  1  0  0  0  0
 44 47  1  0  0  0  0
 45 49  1  0  0  0  0
 46 51  1  0  0  0  0
 47 64  1  0  0  0  0
 48 51  1  0  0  0  0
 48 64  1  0  0  0  0
 49 69  1  0  0  0  0
 50 63  1  0  0  0  0
 51 62  1  0  0  0  0
 52 59  1  0  0  0  0
 53 60  1  0  0  0  0
 54 60  1  0  0  0  0
 55 60  1  0  0  0  0
 56 71  1  0  0  0  0
 57 79  1  0  0  0  0
 58 60  1  0  0  0  0
 58 70  1  0  0  0  0
 59 71  1  0  0  0  0
 61 62  1  0  0  0  0
M  CHG  1  71   1
M  ISO  4  39 100  57 101  68 100  79 101
M  END
> <Batch ID>
0013

> <Smiles>
CNC(C)C(=O)NC(C(=O)N1Cc2cc([101O:1][101CH2:1]C(=O)Nc3cc(F)c(F)c([100NH:0][100C:0](=O)N4CCCC(n5nc(-c6ccc(Oc7ccc(F)cc7F)cc6)c(C(N)=O)c5N)C4)c3Cl)ccc2CC1C(=O)NC1CCCc2ccccc21)C(C)(C)C

> <Shape>
0.270

> <Color>
0.198

> <Negative vol penalty>
0.000

$$$$

  -OEChem-04052315503D

 86 94  0     1  0  0  0  0  0999 V2000
  -16.8774  -29.9847   23.1451 C   0  0  0  0  0  0  0  0  0  0  0  0
  -18.1384  -30.5567   23.0104 C   0  0  0  0  0  0  0  0  0  0  0  0
  -27.8667  -13.0192   22.2401 C   0  0  0  0  0  0  0  0  0  0  0  0
  -26.5363  -13.3489   20.2505 C   0  0  0  0  0  0  0  0  0  0  0  0
  -16.7463  -28.5987   23.2196 C   0  0  0  0  0  0  0  0  0  0  0  0
  -19.2692  -29.7428   22.9512 C   0  0  0  0  0  0  0  0  0  0  0  0
  -25.7678  -29.4245   19.9541 C   0  0  0  0  0  0  0  0  0  0  0  0
  -30.2887  -23.2603   16.9676 C   0  0  0  0  0  0  0  0  0  0  0  0
  -30.5908  -24.4444   17.6401 C   0  0  0  0  0  0  0  0  0  0  0  0
  -27.3128  -11.7491   22.4000 C   0  0  0  0  0  0  0  0  0  0  0  0
  -25.9825  -12.0788   20.4104 C   0  0  0  0  0  0  0  0  0  0  0  0
  -27.1054  -29.2377   20.3000 C   0  0  0  0  0  0  0  0  0  0  0  0
  -23.5937  -10.6236   22.3096 C   0  0  0  0  0  0  0  0  0  0  0  0
  -22.2139  -10.4936   22.1516 C   0  0  0  0  0  0  0  0  0  0  0  0
  -26.7509  -26.8524   20.3587 C   0  0  0  0  0  0  0  0  0  0  0  0
  -29.0365  -23.8468   19.3905 C   0  0  0  0  0  0  0  0  0  0  0  0
  -22.5681   -8.9363   20.3387 C   0  0  0  0  0  0  0  0  0  0  0  0
  -27.4784  -13.8192   21.1654 C   0  0  0  0  0  0  0  0  0  0  0  0
  -29.2110  -15.4685   20.2791 C   0  0  0  0  0  0  0  0  0  0  0  0
  -17.8751  -27.7670   23.1516 C   0  0  0  0  0  0  0  0  0  0  0  0
  -24.9076  -28.3254   19.8184 C   0  0  0  0  0  0  0  0  0  0  0  0
  -19.1531  -28.3444   23.0262 C   0  0  0  0  0  0  0  0  0  0  0  0
  -25.4034  -27.0277   20.0085 C   0  0  0  0  0  0  0  0  0  0  0  0
  -29.3604  -22.3695   17.5065 C   0  0  0  0  0  0  0  0  0  0  0  0
  -29.9647  -24.7377   18.8516 C   0  0  0  0  0  0  0  0  0  0  0  0
  -28.7343  -22.6627   18.7180 C   0  0  0  0  0  0  0  0  0  0  0  0
  -26.3708  -11.2788   21.4851 C   0  0  0  0  0  0  0  0  0  0  0  0
  -27.5965  -27.9517   20.5052 C   0  0  0  0  0  0  0  0  0  0  0  0
  -24.4607   -9.9099   21.4821 C   0  0  0  0  0  0  0  0  0  0  0  0
  -21.7011   -9.6500   21.1662 C   0  0  0  0  0  0  0  0  0  0  0  0
  -23.9479   -9.0663   20.4967 C   0  0  0  0  0  0  0  0  0  0  0  0
  -28.0497  -15.1316   21.0000 C   0  0  0  0  0  0  0  0  0  0  0  0
  -29.3246  -16.8292   20.4275 C   0  0  0  0  0  0  0  0  0  0  0  0
  -30.1068  -14.6267   19.5411 C   0  0  0  0  0  0  0  0  0  0  0  0
  -22.2573  -27.3572   21.2820 C   0  0  0  0  0  0  0  0  0  0  0  0
  -22.2793  -25.0799   18.9720 C   0  0  0  0  0  0  0  0  0  0  0  0
  -31.1655  -26.9325   19.1427 C   0  0  0  0  0  0  0  0  0  0  0  0
  -24.0796  -23.2590   16.7159 C   0  0  0  0  0  0  0  0  0  0  0  0
  -27.0867  -21.9274   20.4761 C   0  0  0  0  0  0  0  0  0  0  0  0
  -17.6876  -26.2763   23.2839 C   0  0  0  0  0  0  0  0  0  0  0  0
  -23.4738  -28.5421   19.4186 C   0  0  0  0  0  0  0  0  0  0  0  0
  -24.5260  -25.8132   19.8553 C   0  0  0  0  0  0  0  0  0  0  0  0
  -18.9027  -25.4676   22.8369 C   0  0  0  0  0  0  0  0  0  0  0  0
  -26.8575  -20.0272   23.4784 C   0  0  0  0  0  0  0  0  0  0  0  0
  -20.1815  -26.0573   23.4229 C   0  0  0  0  0  0  0  0  0  0  0  0
  -27.2428  -18.6119   23.0419 C   0  0  0  0  0  0  0  0  0  0  0  0
  -26.0489  -20.7518   22.4037 C   0  0  0  0  0  0  0  0  0  0  0  0
  -27.0527  -19.3605   20.6356 C   0  0  0  0  0  0  0  0  0  0  0  0
  -20.4014  -27.4939   22.9336 C   0  0  1  0  0  0  0  0  0  0  0  0
  -22.5625  -27.3832   19.8110 C   0  0  1  0  0  0  0  0  0  0  0  0
  -27.9238  -18.6143   21.6593 C   0  0  2  0  0  0  0  0  0  0  0  0
  -23.8280  -21.4478   14.9972 C   0  0  0  0  0  0  0  0  0  0  0  0
  -22.0850  -22.9998   21.1959 C   0  0  0  0  0  0  0  0  0  0  0  0
  -22.7874  -21.2617   19.5363 C   0  0  0  0  0  0  0  0  0  0  0  0
  -20.6627  -22.5235   19.1948 C   0  0  0  0  0  0  0  0  0  0  0  0
  -25.0080  -25.0358   14.5388 C   0  0  0  0  0  0  0  0  0  0  0  0
  -31.1934  -28.0591   20.1693 C   0  0  0  0  0  0  0  0  0  0  0  0
  -29.8402  -28.7269   20.3606 C   0  0  0  0  0  0  0  0  0  1  0  0
  -22.8729  -23.6983   18.8385 C   0  0  1  0  0  0  0  0  0  0  0  0
  -23.8370  -22.9474   15.2501 C   0  0  2  0  0  0  0  0  0  0  0  0
  -29.0563  -21.1088   16.7643 C   0  0  0  0  0  0  0  0  0  0  0  0
  -22.1183  -22.6436   19.6962 C   0  0  0  0  0  0  0  0  0  0  0  0
  -27.4673  -16.1927   21.5646 N   0  0  0  0  0  0  0  0  0  0  0  0
  -28.2660  -17.2097   21.1986 N   0  0  0  0  0  0  0  0  0  0  0  0
  -23.1300  -26.0773   19.4694 N   0  0  0  0  0  0  0  0  0  0  0  0
  -26.7577  -20.7172   21.1226 N   0  0  0  0  0  0  0  0  0  0  0  0
  -30.2259  -17.7253   19.9725 N   0  0  0  0  0  0  0  0  0  0  0  0
  -29.8424  -13.2513   19.4909 N   0  0  0  0  0  0  0  0  0  0  0  0
  -30.2716  -25.9392   19.5335 N   0  0  0  0  0  0  0  0  0  0  0  0
  -27.7886  -21.7706   19.2814 N   0  0  0  0  0  0  0  0  0  0  0  0
  -20.9150  -27.4938   21.5806 N   0  0  0  0  0  0  0  0  0  0  0  0
  -22.8969  -23.4006   17.4104 N   0  0  0  0  0  0  0  0  0  0  0  0
  -24.9025  -23.5598   14.4071 N   0  3  0  0  0  0  0  0  0  0  0  0
  -31.1212  -15.0786   18.9575 O   0  0  0  0  0  0  0  0  0  0  0  0
  -23.1717  -27.2215   22.0864 O   0  0  0  0  0  0  0  0  0  0  0  0
  -21.1063  -25.2688   18.6403 O   0  0  0  0  0  0  0  0  0  0  0  0
  -31.8586  -26.9539   18.1310 O   0  0  0  0  0  0  0  0  0  0  0  0
  -25.2056  -23.3624   17.1974 O   0  0  0  0  0  0  0  0  0  0  0  0
  -26.7930  -23.0231   20.9612 O   0  0  0  0  0  0  0  0  0  0  0  0
  -25.8303  -10.0394   21.6407 O   0  0  0  0  0  0  0  0  0  0  0  0
  -28.9015  -27.7666   20.8435 O   0  0  0  0  0  0  0  0  0  1  0  0
  -20.3761   -9.5241   21.0156 F   0  0  0  0  0  0  0  0  0  0  0  0
  -24.7759   -8.3772   19.6996 F   0  0  0  0  0  0  0  0  0  0  0  0
  -29.7560  -20.9802   15.5995 F   0  0  0  0  0  0  0  0  0  0  0  0
  -29.3342  -19.9780   17.4761 F   0  0  0  0  0  0  0  0  0  0  0  0
  -27.7411  -21.0116   16.4167 F   0  0  0  0  0  0  0  0  0  0  0  0
  1  2  1  0  0  0  0
  1  5  2  0  0  0  0
  2  6  2  0  0  0  0
  3 10  2  0  0  0  0
  3 18  1  0  0  0  0
  4 11  1  0  0  0  0
  4 18  2  0  0  0  0
  5 20  1  0  0  0  0
  6 22  1  0  0  0  0
  7 12  2  0  0  0  0
  7 21  1  0  0  0  0
  8  9  2  0  0  0  0
  8 24  1  0  0  0  0
  9 25  1  0  0  0  0
 10 27  1  0  0  0  0
 11 27  2  0  0  0  0
 12 28  1  0  0  0  0
 13 14  2  0  0  0  0
 13 29  1  0  0  0  0
 14 30  1  0  0  0  0
 15 23  1  0  0  0  0
 15 28  2  0  0  0  0
 16 25  2  0  0  0  0
 16 26  1  0  0  0  0
 17 30  2  0  0  0  0
 17 31  1  0  0  0  0
 18 32  1  0  0  0  0
 19 32  1  0  0  0  0
 19 33  2  0  0  0  0
 19 34  1  0  0  0  0
 20 22  2  0  0  0  0
 20 40  1  0  0  0  0
 21 23  2  0  0  0  0
 21 41  1  0  0  0  0
 22 49  1  0  0  0  0
 23 42  1  0  0  0  0
 24 26  2  0  0  0  0
 24 61  1  0  0  0  0
 25 69  1  0  0  0  0
 26 70  1  0  0  0  0
 27 80  1  0  0  0  0
 28 81  1  0  0  0  0
 29 31  2  0  0  0  0
 29 80  1  0  0  0  0
 30 82  1  0  0  0  0
 31 83  1  0  0  0  0
 32 63  2  0  0  0  0
 33 64  1  0  0  0  0
 33 67  1  0  0  0  0
 34 68  1  0  0  0  0
 34 74  2  0  0  0  0
 35 50  1  0  0  0  0
 35 71  1  0  0  0  0
 35 75  2  0  0  0  0
 36 59  1  0  0  0  0
 36 65  1  0  0  0  0
 36 76  2  0  0  0  0
 37 57  1  0  0  0  0
 37 69  1  0  0  0  0
 37 77  2  0  0  0  0
 38 60  1  0  0  0  0
 38 72  1  0  0  0  0
 38 78  2  0  0  0  0
 39 66  1  0  0  0  0
 39 70  1  0  0  0  0
 39 79  2  0  0  0  0
 40 43  1  0  0  0  0
 41 50  1  0  0  0  0
 42 65  1  0  0  0  0
 43 45  1  0  0  0  0
 44 46  1  0  0  0  0
 44 47  1  0  0  0  0
 45 49  1  0  0  0  0
 46 51  1  0  0  0  0
 47 66  1  0  0  0  0
 48 51  1  0  0  0  0
 48 66  1  0  0  0  0
 49 71  1  0  0  0  0
 50 65  1  0  0  0  0
 51 64  1  0  0  0  0
 52 60  1  0  0  0  0
 53 62  1  0  0  0  0
 54 62  1  0  0  0  0
 55 62  1  0  0  0  0
 56 73  1  0  0  0  0
 57 58  1  0  0  0  0
 58 81  1  0  0  0  0
 59 62  1  0  0  0  0
 59 72  1  0  0  0  0
 60 73  1  0  0  0  0
 61 84  1  0  0  0  0
 61 85  1  0  0  0  0
 61 86  1  0  0  0  0
 63 64  1  0  0  0  0
M  CHG  1  73   1
M  ISO  4  39 100  58 101  70 100  81 101
M  END
> <Batch ID>
0013

> <Smiles>
CNC(C)C(=O)NC(C(=O)N1Cc2cc([101O:1][101CH2:1]CC(=O)Nc3ccc(C(F)(F)F)c([100NH:0][100C:0](=O)N4CCCC(n5nc(-c6ccc(Oc7ccc(F)cc7F)cc6)c(C(N)=O)c5N)C4)c3)ccc2CC1C(=O)NC1CCCc2ccccc21)C(C)(C)C

> <Shape>
0.273

> <Color>
0.082

> <Negative vol penalty>
0.000

$$$$

  -OEChem-04052315503D

 86 94  0     1  0  0  0  0  0999 V2000
  -19.9473  -25.9619   25.2893 C   0  0  0  0  0  0  0  0  0  0  0  0
  -21.0261  -25.7681   24.4326 C   0  0  0  0  0  0  0  0  0  0  0  0
  -20.0068  -15.2664   22.9879 C   0  0  0  0  0  0  0  0  0  0  0  0
  -21.0778  -17.2940   22.2271 C   0  0  0  0  0  0  0  0  0  0  0  0
  -19.0031  -26.9483   25.0073 C   0  0  0  0  0  0  0  0  0  0  0  0
  -21.1608  -26.5600   23.2928 C   0  0  0  0  0  0  0  0  0  0  0  0
  -25.8982  -28.2226   22.6312 C   0  0  0  0  0  0  0  0  0  0  0  0
  -19.4160  -15.9718   24.0361 C   0  0  0  0  0  0  0  0  0  0  0  0
  -20.4869  -17.9995   23.2754 C   0  0  0  0  0  0  0  0  0  0  0  0
  -26.8219  -27.3206   22.1049 C   0  0  0  0  0  0  0  0  0  0  0  0
  -18.9730  -20.4073   25.5400 C   0  0  0  0  0  0  0  0  0  0  0  0
  -18.3964  -21.6432   25.2473 C   0  0  0  0  0  0  0  0  0  0  0  0
  -26.5581  -28.3289   19.9294 C   0  0  0  0  0  0  0  0  0  0  0  0
  -30.0702  -15.4537   19.9057 C   0  0  0  0  0  0  0  0  0  0  0  0
  -16.8866  -20.5712   23.6953 C   0  0  0  0  0  0  0  0  0  0  0  0
  -20.8378  -15.9275   22.0833 C   0  0  0  0  0  0  0  0  0  0  0  0
  -20.9230  -14.9935   19.7110 C   0  0  0  0  0  0  0  0  0  0  0  0
  -19.1315  -27.7591   23.8686 C   0  0  0  0  0  0  0  0  0  0  0  0
  -25.2883  -29.1791   21.8068 C   0  0  0  0  0  0  0  0  0  0  0  0
  -20.2168  -27.5573   22.9946 C   0  0  0  0  0  0  0  0  0  0  0  0
  -25.6289  -29.2436   20.4481 C   0  0  0  0  0  0  0  0  0  0  0  0
  -31.1530  -16.3322   19.9432 C   0  0  0  0  0  0  0  0  0  0  0  0
  -28.8140  -15.9117   19.5083 C   0  0  0  0  0  0  0  0  0  0  0  0
  -19.6560  -17.3383   24.1799 C   0  0  0  0  0  0  0  0  0  0  0  0
  -27.1498  -27.3718   20.7533 C   0  0  0  0  0  0  0  0  0  0  0  0
  -18.5064  -19.2533   24.9103 C   0  0  0  0  0  0  0  0  0  0  0  0
  -29.7234  -18.1266   19.1859 C   0  0  0  0  0  0  0  0  0  0  0  0
  -17.3531  -21.7251   24.3250 C   0  0  0  0  0  0  0  0  0  0  0  0
  -17.4632  -19.3353   23.9880 C   0  0  0  0  0  0  0  0  0  0  0  0
  -30.9796  -17.6686   19.5833 C   0  0  0  0  0  0  0  0  0  0  0  0
  -28.6406  -17.2481   19.1484 C   0  0  0  0  0  0  0  0  0  0  0  0
  -21.4488  -15.1993   21.0006 C   0  0  0  0  0  0  0  0  0  0  0  0
  -21.8787  -14.2475   19.0656 C   0  0  0  0  0  0  0  0  0  0  0  0
  -19.6817  -15.4370   19.1470 C   0  0  0  0  0  0  0  0  0  0  0  0
  -22.2986  -29.8008   20.9244 C   0  0  0  0  0  0  0  0  0  0  0  0
  -23.6620  -32.3925   19.5292 C   0  0  0  0  0  0  0  0  0  0  0  0
  -26.4605  -33.8411   18.2190 C   0  0  0  0  0  0  0  0  0  0  0  0
  -27.7754  -13.6372   19.8154 C   0  0  0  0  0  0  0  0  0  0  0  0
  -18.0602  -28.7808   23.5803 C   0  0  0  0  0  0  0  0  0  0  0  0
  -24.3139  -30.1623   22.3953 C   0  0  0  0  0  0  0  0  0  0  0  0
  -25.0175  -30.2646   19.5249 C   0  0  0  0  0  0  0  0  0  0  0  0
  -18.4782  -29.8278   22.5510 C   0  0  0  0  0  0  0  0  0  0  0  0
  -25.3363  -11.0453   19.9175 C   0  0  0  0  0  0  0  0  0  0  0  0
  -19.1375  -29.1604   21.3482 C   0  0  0  0  0  0  0  0  0  0  0  0
  -24.0142  -11.7980   20.0834 C   0  0  0  0  0  0  0  0  0  0  0  0
  -26.4704  -11.7132   20.6931 C   0  0  0  0  0  0  0  0  0  0  0  0
  -25.3332  -13.8958   20.5800 C   0  0  0  0  0  0  0  0  0  0  0  0
  -20.4109  -28.4127   21.7614 C   0  0  1  0  0  0  0  0  0  0  0  0
  -23.3695  -30.7615   21.3578 C   0  0  1  0  0  0  0  0  0  0  0  0
  -24.1754  -13.2973   19.7645 C   0  0  2  0  0  0  0  0  0  0  0  0
  -32.4808  -15.7981   20.3755 C   0  0  0  0  0  0  0  0  0  0  0  0
  -27.2555  -35.9529   17.1209 C   0  0  0  0  0  0  0  0  0  0  0  0
  -22.3190  -31.5411   16.9251 C   0  0  0  0  0  0  0  0  0  0  0  0
  -23.8715  -33.0788   15.7030 C   0  0  0  0  0  0  0  0  0  0  0  0
  -22.2632  -34.0011   17.3720 C   0  0  0  0  0  0  0  0  0  0  0  0
  -28.3953  -34.3803   20.3926 C   0  0  0  0  0  0  0  0  0  0  0  0
  -28.6713  -22.7630   20.3458 C   0  0  0  0  0  0  0  0  0  0  0  0
  -28.5316  -24.1842   19.8001 C   0  0  0  0  0  0  0  0  0  0  0  0
  -29.0384  -21.7367   19.2753 C   0  0  0  0  0  0  0  0  0  0  0  0
  -28.1314  -25.2079   20.8539 C   0  0  0  0  0  0  0  0  0  1  0  0
  -29.1996  -20.3435   19.8690 C   0  0  0  0  0  0  0  0  0  0  0  0
  -24.2660  -32.6848   18.1769 C   0  0  1  0  0  0  0  0  0  0  0  0
  -27.0825  -35.2088   18.4359 C   0  0  2  0  0  0  0  0  0  0  0  0
  -23.1902  -32.8059   17.0610 C   0  0  0  0  0  0  0  0  0  0  0  0
  -22.6457  -14.6299   21.1664 N   0  0  0  0  0  0  0  0  0  0  0  0
  -22.8798  -14.0589   19.9726 N   0  0  0  0  0  0  0  0  0  0  0  0
  -24.0655  -31.2000   20.1464 N   0  0  0  0  0  0  0  0  0  0  0  0
  -26.5661  -13.1305   20.3366 N   0  0  0  0  0  0  0  0  0  0  0  0
  -21.9521  -13.7409   17.8164 N   0  0  0  0  0  0  0  0  0  0  0  0
  -18.8163  -16.1939   19.9485 N   0  0  0  0  0  0  0  0  0  0  0  0
  -27.7374  -14.9908   19.4824 N   0  0  0  0  0  0  0  0  0  0  0  0
  -21.5023  -29.3428   21.9567 N   0  0  0  0  0  0  0  0  0  0  0  0
  -25.0880  -33.8781   18.3464 N   0  0  0  0  0  0  0  0  0  0  0  0
  -28.4201  -35.0734   19.0788 N   0  3  0  0  0  0  0  0  0  0  0  0
  -19.3425  -15.1560   17.9725 O   0  0  0  0  0  0  0  0  0  0  0  0
  -22.2009  -29.4987   19.7408 O   0  0  0  0  0  0  0  0  0  0  0  0
  -22.8671  -33.1962   20.0230 O   0  0  0  0  0  0  0  0  0  0  0  0
  -27.1253  -32.8407   17.9586 O   0  0  0  0  0  0  0  0  0  0  0  0
  -28.7629  -12.9166   19.6495 O   0  0  0  0  0  0  0  0  0  0  0  0
  -19.0794  -18.0270   25.2026 O   0  0  0  0  0  0  0  0  0  0  0  0
  -28.0506  -26.4921   20.2369 O   0  0  0  0  0  0  0  0  0  1  0  0
  -29.5540  -19.4399   18.8314 O   0  0  0  0  0  0  0  0  0  0  0  0
  -16.7985  -22.9118   24.0451 F   0  0  0  0  0  0  0  0  0  0  0  0
  -17.0100  -18.2300   23.3808 F   0  0  0  0  0  0  0  0  0  0  0  0
  -32.3214  -18.7622   19.6277 Cl  0  0  0  0  0  0  0  0  0  0  0  0
  -27.0841  -17.8281   18.6526 Cl  0  0  0  0  0  0  0  0  0  0  0  0
  1  2  1  0  0  0  0
  1  5  2  0  0  0  0
  2  6  2  0  0  0  0
  3  8  2  0  0  0  0
  3 16  1  0  0  0  0
  4  9  1  0  0  0  0
  4 16  2  0  0  0  0
  5 18  1  0  0  0  0
  6 20  1  0  0  0  0
  7 10  2  0  0  0  0
  7 19  1  0  0  0  0
  8 24  1  0  0  0  0
  9 24  2  0  0  0  0
 10 25  1  0  0  0  0
 11 12  2  0  0  0  0
 11 26  1  0  0  0  0
 12 28  1  0  0  0  0
 13 21  1  0  0  0  0
 13 25  2  0  0  0  0
 14 22  1  0  0  0  0
 14 23  2  0  0  0  0
 15 28  2  0  0  0  0
 15 29  1  0  0  0  0
 16 32  1  0  0  0  0
 17 32  1  0  0  0  0
 17 33  2  0  0  0  0
 17 34  1  0  0  0  0
 18 20  2  0  0  0  0
 18 39  1  0  0  0  0
 19 21  2  0  0  0  0
 19 40  1  0  0  0  0
 20 48  1  0  0  0  0
 21 41  1  0  0  0  0
 22 30  2  0  0  0  0
 22 51  1  0  0  0  0
 23 31  1  0  0  0  0
 23 71  1  0  0  0  0
 24 80  1  0  0  0  0
 25 81  1  0  0  0  0
 26 29  2  0  0  0  0
 26 80  1  0  0  0  0
 27 30  1  0  0  0  0
 27 31  2  0  0  0  0
 27 82  1  0  0  0  0
 28 83  1  0  0  0  0
 29 84  1  0  0  0  0
 30 85  1  0  0  0  0
 31 86  1  0  0  0  0
 32 65  2  0  0  0  0
 33 66  1  0  0  0  0
 33 69  1  0  0  0  0
 34 70  1  0  0  0  0
 34 75  2  0  0  0  0
 35 49  1  0  0  0  0
 35 72  1  0  0  0  0
 35 76  2  0  0  0  0
 36 62  1  0  0  0  0
 36 67  1  0  0  0  0
 36 77  2  0  0  0  0
 37 63  1  0  0  0  0
 37 73  1  0  0  0  0
 37 78  2  0  0  0  0
 38 68  1  0  0  0  0
 38 71  1  0  0  0  0
 38 79  2  0  0  0  0
 39 42  1  0  0  0  0
 40 49  1  0  0  0  0
 41 67  1  0  0  0  0
 42 44  1  0  0  0  0
 43 45  1  0  0  0  0
 43 46  1  0  0  0  0
 44 48  1  0  0  0  0
 45 50  1  0  0  0  0
 46 68  1  0  0  0  0
 47 50  1  0  0  0  0
 47 68  1  0  0  0  0
 48 72  1  0  0  0  0
 49 67  1  0  0  0  0
 50 66  1  0  0  0  0
 52 63  1  0  0  0  0
 53 64  1  0  0  0  0
 54 64  1  0  0  0  0
 55 64  1  0  0  0  0
 56 74  1  0  0  0  0
 57 58  1  0  0  0  0
 57 59  1  0  0  0  0
 58 60  1  0  0  0  0
 59 61  1  0  0  0  0
 60 81  1  0  0  0  0
 61 82  1  0  0  0  0
 62 64  1  0  0  0  0
 62 73  1  0  0  0  0
 63 74  1  0  0  0  0
 65 66  1  0  0  0  0
M  CHG  1  74   1
M  ISO  4  38 100  60 101  71 100  81 101
M  END
> <Batch ID>
0013

> <Smiles>
CNC(C)C(=O)NC(C(=O)N1Cc2cc([101O:1][101CH2:1]CCCCOc3c(Cl)c(C)cc([100NH:0][100C:0](=O)N4CCCC(n5nc(-c6ccc(Oc7ccc(F)cc7F)cc6)c(C(N)=O)c5N)C4)c3Cl)ccc2CC1C(=O)NC1CCCc2ccccc21)C(C)(C)C

> <Shape>
0.207

> <Color>
0.099

> <Negative vol penalty>
0.000

$$$$

  -OEChem-04052315503D

 90 98  0     1  0  0  0  0  0999 V2000
  -27.3433  -35.2878   16.6943 C   0  0  0  0  0  0  0  0  0  0  0  0
  -27.7422  -34.2041   17.4702 C   0  0  0  0  0  0  0  0  0  0  0  0
  -24.5255   -8.7085   21.3969 C   0  0  0  0  0  0  0  0  0  0  0  0
  -23.4323  -10.7510   22.0825 C   0  0  0  0  0  0  0  0  0  0  0  0
  -26.1833  -35.9886   17.0215 C   0  0  0  0  0  0  0  0  0  0  0  0
  -26.9817  -33.8213   18.5745 C   0  0  0  0  0  0  0  0  0  0  0  0
  -26.3051  -28.8088   18.8241 C   0  0  0  0  0  0  0  0  0  0  0  0
  -23.8992   -8.0237   22.4382 C   0  0  0  0  0  0  0  0  0  0  0  0
  -22.8059  -10.0662   23.1239 C   0  0  0  0  0  0  0  0  0  0  0  0
  -27.3696  -28.0456   19.3017 C   0  0  0  0  0  0  0  0  0  0  0  0
  -20.8504   -6.7079   23.0757 C   0  0  0  0  0  0  0  0  0  0  0  0
  -20.2797   -5.4686   22.7858 C   0  0  0  0  0  0  0  0  0  0  0  0
  -26.3053  -27.9247   21.4632 C   0  0  0  0  0  0  0  0  0  0  0  0
  -27.1865  -19.1269   22.4554 C   0  0  0  0  0  0  0  0  0  0  0  0
  -29.6214  -17.9151   21.8344 C   0  0  0  0  0  0  0  0  0  0  0  0
  -21.7339   -4.4201   24.4055 C   0  0  0  0  0  0  0  0  0  0  0  0
  -24.2921  -10.0722   21.2191 C   0  0  0  0  0  0  0  0  0  0  0  0
  -24.4569  -10.9620   18.8340 C   0  0  0  0  0  0  0  0  0  0  0  0
  -25.4031  -35.6082   18.1248 C   0  0  0  0  0  0  0  0  0  0  0  0
  -25.2361  -29.1455   19.6670 C   0  0  0  0  0  0  0  0  0  0  0  0
  -25.8109  -34.5185   18.9177 C   0  0  0  0  0  0  0  0  0  0  0  0
  -25.2272  -28.6901   20.9931 C   0  0  0  0  0  0  0  0  0  0  0  0
  -28.3797  -19.6814   22.9186 C   0  0  0  0  0  0  0  0  0  0  0  0
  -27.2108  -17.9664   21.6818 C   0  0  0  0  0  0  0  0  0  0  0  0
  -28.4282  -17.3606   21.3712 C   0  0  0  0  0  0  0  0  0  0  0  0
  -23.0393   -8.7025   23.3017 C   0  0  0  0  0  0  0  0  0  0  0  0
  -27.3713  -27.6059   20.6222 C   0  0  0  0  0  0  0  0  0  0  0  0
  -21.8628   -6.8033   24.0305 C   0  0  0  0  0  0  0  0  0  0  0  0
  -20.7215   -4.3247   23.4507 C   0  0  0  0  0  0  0  0  0  0  0  0
  -29.5971  -19.0755   22.6081 C   0  0  0  0  0  0  0  0  0  0  0  0
  -22.3045   -5.6595   24.6954 C   0  0  0  0  0  0  0  0  0  0  0  0
  -24.9393  -10.7802   20.1440 C   0  0  0  0  0  0  0  0  0  0  0  0
  -25.4338  -11.6962   18.2071 C   0  0  0  0  0  0  0  0  0  0  0  0
  -23.2349  -10.5077   18.2372 C   0  0  0  0  0  0  0  0  0  0  0  0
  -24.0128  -31.8680   20.7601 C   0  0  0  0  0  0  0  0  0  0  0  0
  -21.7358  -29.9035   21.9758 C   0  0  0  0  0  0  0  0  0  0  0  0
  -29.1002  -22.8263   22.3412 C   0  0  0  0  0  0  0  0  0  0  0  0
  -20.8694  -26.7744   23.0271 C   0  0  0  0  0  0  0  0  0  0  0  0
  -29.6145  -15.4716   20.2004 C   0  0  0  0  0  0  0  0  0  0  0  0
  -24.1827  -36.4256   18.4672 C   0  0  0  0  0  0  0  0  0  0  0  0
  -24.0825  -29.9469   19.1291 C   0  0  0  0  0  0  0  0  0  0  0  0
  -24.0938  -29.0072   21.9329 C   0  0  0  0  0  0  0  0  0  0  0  0
  -23.2309  -35.7239   19.4326 C   0  0  0  0  0  0  0  0  0  0  0  0
  -30.1528  -12.5061   18.3049 C   0  0  0  0  0  0  0  0  0  0  0  0
  -24.0048  -35.1170   20.5986 C   0  0  0  0  0  0  0  0  0  0  0  0
  -28.8309  -11.7463   18.4371 C   0  0  0  0  0  0  0  0  0  0  0  0
  -30.5182  -13.2373   19.5954 C   0  0  0  0  0  0  0  0  0  0  0  0
  -28.1491  -13.3587   20.2599 C   0  0  0  0  0  0  0  0  0  0  0  0
  -24.9992  -34.0575   20.1088 C   0  0  1  0  0  0  0  0  0  0  0  0
  -23.2935  -30.6646   20.2198 C   0  0  1  0  0  0  0  0  0  0  0  0
  -27.7065  -12.6593   18.9643 C   0  0  2  0  0  0  0  0  0  0  0  0
  -18.9504  -25.4853   24.0034 C   0  0  0  0  0  0  0  0  0  0  0  0
  -24.0692  -18.4778   20.1976 C   0  0  0  0  0  0  0  0  0  0  0  0
  -25.3354  -16.6370   19.0339 C   0  0  0  0  0  0  0  0  0  0  0  0
  -22.2696  -31.1749   24.6977 C   0  0  0  0  0  0  0  0  0  0  0  0
  -21.0648  -29.2515   25.7546 C   0  0  0  0  0  0  0  0  0  0  0  0
  -19.8542  -30.7715   24.1904 C   0  0  0  0  0  0  0  0  0  0  0  0
  -25.2779  -16.4474   22.0234 C   0  0  0  0  0  0  0  0  0  0  0  0
  -20.7563  -24.9531   20.6971 C   0  0  0  0  0  0  0  0  0  0  0  0
  -28.3500  -20.9300   23.7518 C   0  0  0  0  0  0  0  0  0  0  0  0
  -28.5529  -24.0117   21.5663 C   0  0  0  0  0  0  0  0  0  0  0  0
  -29.6510  -24.8188   20.8831 C   0  0  0  0  0  0  0  0  0  0  0  0
  -29.0878  -26.0285   20.1516 C   0  0  0  0  0  0  0  0  0  1  0  0
  -21.5571  -29.1457   23.2692 C   0  0  1  0  0  0  0  0  0  0  0  0
  -19.6582  -25.9101   22.7262 C   0  0  2  0  0  0  0  0  0  0  0  0
  -25.4314  -17.8438   19.9558 C   0  0  0  0  0  0  0  0  0  0  0  0
  -21.2089  -30.0814   24.4611 C   0  0  0  0  0  0  0  0  0  0  0  0
  -26.1302  -11.3528   20.3390 N   0  0  0  0  0  0  0  0  0  0  0  0
  -26.4043  -11.9014   19.1431 N   0  0  0  0  0  0  0  0  0  0  0  0
  -22.9918  -29.7990   21.3617 N   0  0  0  0  0  0  0  0  0  0  0  0
  -29.4076  -14.0861   20.0324 N   0  0  0  0  0  0  0  0  0  0  0  0
  -25.5487  -12.1799   16.9520 N   0  0  0  0  0  0  0  0  0  0  0  0
  -22.3429   -9.7656   19.0233 N   0  0  0  0  0  0  0  0  0  0  0  0
  -28.4782  -16.1816   20.5869 N   0  0  0  0  0  0  0  0  0  0  0  0
  -24.3114  -32.8209   19.8050 N   0  0  0  0  0  0  0  0  0  0  0  0
  -28.0867  -22.1049   22.9552 N   0  0  0  0  0  0  0  0  0  0  0  0
  -20.5567  -28.1172   23.0049 N   0  0  0  0  0  0  0  0  0  0  0  0
  -25.9900  -17.4221   21.2236 N   0  0  3  0  0  0  0  0  0  0  0  0
  -20.0684  -24.6834   21.9859 N   0  3  0  0  0  0  0  0  0  0  0  0
  -22.9502  -10.7387   17.0376 O   0  0  0  0  0  0  0  0  0  0  0  0
  -24.2761  -31.9283   21.9554 O   0  0  0  0  0  0  0  0  0  0  0  0
  -20.7932  -30.5581   21.5233 O   0  0  0  0  0  0  0  0  0  0  0  0
  -30.2963  -22.5554   22.4041 O   0  0  0  0  0  0  0  0  0  0  0  0
  -21.9807  -26.3053   23.2623 O   0  0  0  0  0  0  0  0  0  0  0  0
  -30.7117  -15.9943   19.9886 O   0  0  0  0  0  0  0  0  0  0  0  0
  -22.4278   -8.0346   24.3178 O   0  0  0  0  0  0  0  0  0  0  0  0
  -28.4094  -26.8613   21.0911 O   0  0  0  0  0  0  0  0  0  1  0  0
  -20.1723   -3.1349   23.1732 F   0  0  0  0  0  0  0  0  0  0  0  0
  -30.7487  -19.6004   23.0498 F   0  0  0  0  0  0  0  0  0  0  0  0
  -23.2760   -5.7451   25.6144 F   0  0  0  0  0  0  0  0  0  0  0  0
  1  2  1  0  0  0  0
  1  5  2  0  0  0  0
  2  6  2  0  0  0  0
  3  8  2  0  0  0  0
  3 17  1  0  0  0  0
  4  9  1  0  0  0  0
  4 17  2  0  0  0  0
  5 19  1  0  0  0  0
  6 21  1  0  0  0  0
  7 10  2  0  0  0  0
  7 20  1  0  0  0  0
  8 26  1  0  0  0  0
  9 26  2  0  0  0  0
 10 27  1  0  0  0  0
 11 12  2  0  0  0  0
 11 28  1  0  0  0  0
 12 29  1  0  0  0  0
 13 22  1  0  0  0  0
 13 27  2  0  0  0  0
 14 23  1  0  0  0  0
 14 24  2  0  0  0  0
 15 25  2  0  0  0  0
 15 30  1  0  0  0  0
 16 29  2  0  0  0  0
 16 31  1  0  0  0  0
 17 32  1  0  0  0  0
 18 32  1  0  0  0  0
 18 33  2  0  0  0  0
 18 34  1  0  0  0  0
 19 21  2  0  0  0  0
 19 40  1  0  0  0  0
 20 22  2  0  0  0  0
 20 41  1  0  0  0  0
 21 49  1  0  0  0  0
 22 42  1  0  0  0  0
 23 30  2  0  0  0  0
 23 60  1  0  0  0  0
 24 25  1  0  0  0  0
 24 78  1  0  0  0  0
 25 74  1  0  0  0  0
 26 86  1  0  0  0  0
 27 87  1  0  0  0  0
 28 31  2  0  0  0  0
 28 86  1  0  0  0  0
 29 88  1  0  0  0  0
 30 89  1  0  0  0  0
 31 90  1  0  0  0  0
 32 68  2  0  0  0  0
 33 69  1  0  0  0  0
 33 72  1  0  0  0  0
 34 73  1  0  0  0  0
 34 80  2  0  0  0  0
 35 50  1  0  0  0  0
 35 75  1  0  0  0  0
 35 81  2  0  0  0  0
 36 64  1  0  0  0  0
 36 70  1  0  0  0  0
 36 82  2  0  0  0  0
 37 61  1  0  0  0  0
 37 76  1  0  0  0  0
 37 83  2  0  0  0  0
 38 65  1  0  0  0  0
 38 77  1  0  0  0  0
 38 84  2  0  0  0  0
 39 71  1  0  0  0  0
 39 74  1  0  0  0  0
 39 85  2  0  0  0  0
 40 43  1  0  0  0  0
 41 50  1  0  0  0  0
 42 70  1  0  0  0  0
 43 45  1  0  0  0  0
 44 46  1  0  0  0  0
 44 47  1  0  0  0  0
 45 49  1  0  0  0  0
 46 51  1  0  0  0  0
 47 71  1  0  0  0  0
 48 51  1  0  0  0  0
 48 71  1  0  0  0  0
 49 75  1  0  0  0  0
 50 70  1  0  0  0  0
 51 69  1  0  0  0  0
 52 65  1  0  0  0  0
 53 66  1  0  0  0  0
 54 66  1  0  0  0  0
 55 67  1  0  0  0  0
 56 67  1  0  0  0  0
 57 67  1  0  0  0  0
 58 78  1  0  0  0  0
 59 79  1  0  0  0  0
 60 76  1  0  0  0  0
 61 62  1  0  0  0  0
 62 63  1  0  0  0  0
 63 87  1  0  0  0  0
 64 67  1  0  0  0  0
 64 77  1  0  0  0  0
 65 79  1  0  0  0  0
 66 78  1  0  0  0  0
 68 69  1  0  0  0  0
M  CHG  1  79   1
M  ISO  4  39 100  63 101  74 100  87 101
M  END
> <Batch ID>
0013

> <Smiles>
CNC(C)C(=O)NC(C(=O)N1Cc2cc([101O:1][101CH2:1]CCC(=O)NCc3cc(N(C)C(C)C)c([100NH:0][100C:0](=O)N4CCCC(n5nc(-c6ccc(Oc7ccc(F)cc7F)cc6)c(C(N)=O)c5N)C4)cc3F)ccc2CC1C(=O)NC1CCCc2ccccc21)C(C)(C)C

> <Shape>
0.267

> <Color>
0.087

> <Negative vol penalty>
0.000

$$$$

  -OEChem-04052315503D

 84 92  0     1  0  0  0  0  0999 V2000
  -27.9603  -23.7030   18.2371 C   0  0  0  0  0  0  0  0  0  0  0  0
  -26.8480  -23.9855   19.0235 C   0  0  0  0  0  0  0  0  0  0  0  0
  -26.5329  -13.0727   20.0706 C   0  0  0  0  0  0  0  0  0  0  0  0
  -24.2800  -13.5052   20.8287 C   0  0  0  0  0  0  0  0  0  0  0  0
  -29.1634  -24.3685   18.4684 C   0  0  0  0  0  0  0  0  0  0  0  0
  -26.9386  -24.9330   20.0426 C   0  0  0  0  0  0  0  0  0  0  0  0
  -22.9789  -28.0889   20.1186 C   0  0  0  0  0  0  0  0  0  0  0  0
  -26.4248  -11.7511   20.5036 C   0  0  0  0  0  0  0  0  0  0  0  0
  -24.1720  -12.1837   21.2617 C   0  0  0  0  0  0  0  0  0  0  0  0
  -21.7945  -27.6111   20.6780 C   0  0  0  0  0  0  0  0  0  0  0  0
  -23.6037   -9.1511   19.8827 C   0  0  0  0  0  0  0  0  0  0  0  0
  -22.4307   -8.4630   19.5726 C   0  0  0  0  0  0  0  0  0  0  0  0
  -20.5089  -22.7102   22.1311 C   0  0  0  0  0  0  0  0  0  0  0  0
  -22.2963  -28.7826   22.7262 C   0  0  0  0  0  0  0  0  0  0  0  0
  -22.9974  -23.0981   23.3310 C   0  0  0  0  0  0  0  0  0  0  0  0
  -21.9984   -8.1388   21.9275 C   0  0  0  0  0  0  0  0  0  0  0  0
  -25.4605  -13.9497   20.2332 C   0  0  0  0  0  0  0  0  0  0  0  0
  -20.6421  -23.6158   23.1836 C   0  0  0  0  0  0  0  0  0  0  0  0
  -25.2415  -15.8236   18.5162 C   0  0  0  0  0  0  0  0  0  0  0  0
  -29.2661  -25.3316   19.4845 C   0  0  0  0  0  0  0  0  0  0  0  0
  -23.8376  -28.9096   20.8639 C   0  0  0  0  0  0  0  0  0  0  0  0
  -28.1446  -25.6111   20.2886 C   0  0  0  0  0  0  0  0  0  0  0  0
  -23.4897  -29.2715   22.1731 C   0  0  0  0  0  0  0  0  0  0  0  0
  -21.6200  -21.9985   21.6786 C   0  0  0  0  0  0  0  0  0  0  0  0
  -21.8863  -23.8098   23.7835 C   0  0  0  0  0  0  0  0  0  0  0  0
  -22.8642  -22.1925   22.2785 C   0  0  0  0  0  0  0  0  0  0  0  0
  -25.2444  -11.3066   21.0991 C   0  0  0  0  0  0  0  0  0  0  0  0
  -21.4545  -27.9556   21.9829 C   0  0  0  0  0  0  0  0  0  0  0  0
  -23.9741   -9.3330   21.2152 C   0  0  0  0  0  0  0  0  0  0  0  0
  -21.6280   -7.9569   20.5950 C   0  0  0  0  0  0  0  0  0  0  0  0
  -23.1715   -8.8268   22.2375 C   0  0  0  0  0  0  0  0  0  0  0  0
  -25.5716  -15.3152   19.7867 C   0  0  0  0  0  0  0  0  0  0  0  0
  -25.5259  -17.1648   18.5986 C   0  0  0  0  0  0  0  0  0  0  0  0
  -19.4563  -24.3486   23.6368 C   0  0  0  0  0  0  0  0  0  0  0  0
  -24.7240  -15.1443   17.3645 C   0  0  0  0  0  0  0  0  0  0  0  0
  -19.0442  -25.5452   23.1721 C   0  0  0  0  0  0  0  0  0  0  0  0
  -26.8347  -28.6698   21.8952 C   0  0  0  0  0  0  0  0  0  0  0  0
  -26.3401  -31.7309   22.8477 C   0  0  0  0  0  0  0  0  0  0  0  0
  -24.1208  -34.1634   23.7444 C   0  0  0  0  0  0  0  0  0  0  0  0
  -25.3036  -21.5657   22.3326 C   0  0  0  0  0  0  0  0  0  0  0  0
  -30.6006  -25.9908   19.7277 C   0  0  0  0  0  0  0  0  0  0  0  0
  -25.0984  -29.4385   20.2369 C   0  0  0  0  0  0  0  0  0  0  0  0
  -24.3673  -30.1664   23.0083 C   0  0  0  0  0  0  0  0  0  0  0  0
  -30.5103  -27.2516   20.5836 C   0  0  0  0  0  0  0  0  0  0  0  0
  -28.3739  -19.9494   21.5342 C   0  0  0  0  0  0  0  0  0  0  0  0
  -29.6287  -27.0063   21.8040 C   0  0  0  0  0  0  0  0  0  0  0  0
  -27.9338  -18.6389   20.8777 C   0  0  0  0  0  0  0  0  0  0  0  0
  -27.4439  -20.3513   22.6776 C   0  0  0  0  0  0  0  0  0  0  0  0
  -25.5784  -19.0951   21.6721 C   0  0  0  0  0  0  0  0  0  0  0  0
  -28.1965  -26.6503   21.3875 C   0  0  1  0  0  0  0  0  0  0  0  0
  -26.1498  -29.8485   21.2634 C   0  0  1  0  0  0  0  0  0  0  0  0
  -26.4473  -18.6830   20.4726 C   0  0  2  0  0  0  0  0  0  0  0  0
  -21.4477  -21.0341   20.5501 C   0  0  0  0  0  0  0  0  0  0  0  0
  -22.0656  -24.7720   24.9138 C   0  0  0  0  0  0  0  0  0  0  0  0
  -16.5588  -25.9113   22.8783 C   0  0  0  0  0  0  0  0  0  0  0  0
  -24.0177  -36.5520   24.5070 C   0  0  0  0  0  0  0  0  0  0  0  0
  -27.2425  -30.8775   25.6346 C   0  0  0  0  0  0  0  0  0  0  0  0
  -26.2328  -32.9858   26.5312 C   0  0  0  0  0  0  0  0  0  0  0  0
  -28.1103  -33.1026   24.8929 C   0  0  0  0  0  0  0  0  0  0  0  0
  -22.5426  -34.9732   21.3753 C   0  0  0  0  0  0  0  0  0  0  0  0
  -17.8104  -26.2748   23.6654 C   0  0  0  0  0  0  0  0  0  0  0  0
  -19.8271  -26.2238   22.0736 C   0  0  0  0  0  0  0  0  0  1  0  0
  -25.8175  -32.3892   24.1017 C   0  0  1  0  0  0  0  0  0  0  0  0
  -23.9849  -35.6122   23.3119 C   0  0  2  0  0  0  0  0  0  0  0  0
  -26.8350  -32.3203   25.2753 C   0  0  0  0  0  0  0  0  0  0  0  0
  -26.0308  -16.2566   20.6155 N   0  0  0  0  0  0  0  0  0  0  0  0
  -25.9912  -17.3701   19.8641 N   0  0  0  0  0  0  0  0  0  0  0  0
  -25.5926  -30.6529   22.3528 N   0  0  0  0  0  0  0  0  0  0  0  0
  -26.0533  -20.3759   22.2188 N   0  0  0  0  0  0  0  0  0  0  0  0
  -25.4208  -18.1768   17.7112 N   0  0  0  0  0  0  0  0  0  0  0  0
  -24.4893  -13.7653   17.4515 N   0  0  0  0  0  0  0  0  0  0  0  0
  -24.0043  -21.4785   21.8336 N   0  0  0  0  0  0  0  0  0  0  0  0
  -27.4740  -27.8407   20.9934 N   0  0  0  0  0  0  0  0  0  0  0  0
  -25.4343  -33.7447   23.7218 N   0  0  0  0  0  0  0  0  0  0  0  0
  -22.6990  -35.8180   22.5873 N   0  3  0  0  0  0  0  0  0  0  0  0
  -24.4924  -15.7395   16.2848 O   0  0  0  0  0  0  0  0  0  0  0  0
  -26.7879  -28.5241   23.1111 O   0  0  0  0  0  0  0  0  0  0  0  0
  -27.3696  -32.1620   22.3224 O   0  0  0  0  0  0  0  0  0  0  0  0
  -23.1583  -33.4734   24.0733 O   0  0  0  0  0  0  0  0  0  0  0  0
  -25.7878  -22.5947   22.8108 O   0  0  0  0  0  0  0  0  0  0  0  0
  -25.1386  -10.0170   21.5214 O   0  0  0  0  0  0  0  0  0  0  0  0
  -20.2994  -27.4901   22.5315 O   0  0  0  0  0  0  0  0  0  1  0  0
  -20.5008   -7.2975   20.2971 F   0  0  0  0  0  0  0  0  0  0  0  0
  -23.5215   -8.9994   23.5195 F   0  0  0  0  0  0  0  0  0  0  0  0
  1  2  1  0  0  0  0
  1  5  2  0  0  0  0
  2  6  2  0  0  0  0
  3  8  2  0  0  0  0
  3 17  1  0  0  0  0
  4  9  1  0  0  0  0
  4 17  2  0  0  0  0
  5 20  1  0  0  0  0
  6 22  1  0  0  0  0
  7 10  2  0  0  0  0
  7 21  1  0  0  0  0
  8 27  1  0  0  0  0
  9 27  2  0  0  0  0
 10 28  1  0  0  0  0
 11 12  2  0  0  0  0
 11 29  1  0  0  0  0
 12 30  1  0  0  0  0
 13 18  1  0  0  0  0
 13 24  2  0  0  0  0
 14 23  1  0  0  0  0
 14 28  2  0  0  0  0
 15 25  1  0  0  0  0
 15 26  2  0  0  0  0
 16 30  2  0  0  0  0
 16 31  1  0  0  0  0
 17 32  1  0  0  0  0
 18 25  2  0  0  0  0
 18 34  1  0  0  0  0
 19 32  1  0  0  0  0
 19 33  2  0  0  0  0
 19 35  1  0  0  0  0
 20 22  2  0  0  0  0
 20 41  1  0  0  0  0
 21 23  2  0  0  0  0
 21 42  1  0  0  0  0
 22 50  1  0  0  0  0
 23 43  1  0  0  0  0
 24 26  1  0  0  0  0
 24 53  1  0  0  0  0
 25 54  1  0  0  0  0
 26 72  1  0  0  0  0
 27 81  1  0  0  0  0
 28 82  1  0  0  0  0
 29 31  2  0  0  0  0
 29 81  1  0  0  0  0
 30 83  1  0  0  0  0
 31 84  1  0  0  0  0
 32 66  2  0  0  0  0
 33 67  1  0  0  0  0
 33 70  1  0  0  0  0
 34 36  2  0  0  0  0
 35 71  1  0  0  0  0
 35 76  2  0  0  0  0
 36 61  1  0  0  0  0
 36 62  1  0  0  0  0
 37 51  1  0  0  0  0
 37 73  1  0  0  0  0
 37 77  2  0  0  0  0
 38 63  1  0  0  0  0
 38 68  1  0  0  0  0
 38 78  2  0  0  0  0
 39 64  1  0  0  0  0
 39 74  1  0  0  0  0
 39 79  2  0  0  0  0
 40 69  1  0  0  0  0
 40 72  1  0  0  0  0
 40 80  2  0  0  0  0
 41 44  1  0  0  0  0
 42 51  1  0  0  0  0
 43 68  1  0  0  0  0
 44 46  1  0  0  0  0
 45 47  1  0  0  0  0
 45 48  1  0  0  0  0
 46 50  1  0  0  0  0
 47 52  1  0  0  0  0
 48 69  1  0  0  0  0
 49 52  1  0  0  0  0
 49 69  1  0  0  0  0
 50 73  1  0  0  0  0
 51 68  1  0  0  0  0
 52 67  1  0  0  0  0
 55 61  1  0  0  0  0
 56 64  1  0  0  0  0
 57 65  1  0  0  0  0
 58 65  1  0  0  0  0
 59 65  1  0  0  0  0
 60 75  1  0  0  0  0
 62 82  1  0  0  0  0
 63 65  1  0  0  0  0
 63 74  1  0  0  0  0
 64 75  1  0  0  0  0
 66 67  1  0  0  0  0
M  CHG  1  75   1
M  ISO  4  40 100  62 101  72 100  82 101
M  END
> <Batch ID>
0013

> <Smiles>
CCC(=Cc1cc(C)c([100NH:0][100C:0](=O)N2CCCC(n3nc(-c4ccc(Oc5ccc(F)cc5F)cc4)c(C(N)=O)c3N)C2)cc1C)[101CH2:1][101O:1]c1ccc2c(c1)CN(C(=O)C(NC(=O)C(C)NC)C(C)(C)C)C(C(=O)NC1CCCc3ccccc31)C2

> <Shape>
0.285

> <Color>
0.069

> <Negative vol penalty>
0.000

$$$$

  -OEChem-04052315503D

 75 82  0     1  0  0  0  0  0999 V2000
  -32.6757  -26.9307   24.1935 C   0  0  0  0  0  0  0  0  0  0  0  0
  -33.2702  -25.6961   23.9527 C   0  0  0  0  0  0  0  0  0  0  0  0
  -23.1714   -9.8811   19.9137 C   0  0  0  0  0  0  0  0  0  0  0  0
  -23.5557  -10.0089   22.2955 C   0  0  0  0  0  0  0  0  0  0  0  0
  -31.2939  -27.0727   24.0744 C   0  0  0  0  0  0  0  0  0  0  0  0
  -32.4830  -24.6026   23.5938 C   0  0  0  0  0  0  0  0  0  0  0  0
  -34.0021  -20.0717   19.7637 C   0  0  0  0  0  0  0  0  0  0  0  0
  -22.3855   -8.7442   20.1014 C   0  0  0  0  0  0  0  0  0  0  0  0
  -22.7697   -8.8720   22.4833 C   0  0  0  0  0  0  0  0  0  0  0  0
  -34.4800  -18.7802   19.9813 C   0  0  0  0  0  0  0  0  0  0  0  0
  -21.1601   -5.7946   23.5550 C   0  0  0  0  0  0  0  0  0  0  0  0
  -21.6407   -4.8094   24.4175 C   0  0  0  0  0  0  0  0  0  0  0  0
  -32.2307  -17.9255   19.8106 C   0  0  0  0  0  0  0  0  0  0  0  0
  -23.5927   -4.5381   23.0199 C   0  0  0  0  0  0  0  0  0  0  0  0
  -23.7566  -10.5135   21.0107 C   0  0  0  0  0  0  0  0  0  0  0  0
  -24.1389  -13.0281   20.8149 C   0  0  0  0  0  0  0  0  0  0  0  0
  -30.4903  -25.9827   23.7044 C   0  0  0  0  0  0  0  0  0  0  0  0
  -32.6312  -20.3016   19.5785 C   0  0  0  0  0  0  0  0  0  0  0  0
  -31.0889  -24.7299   23.4710 C   0  0  0  0  0  0  0  0  0  0  0  0
  -31.7382  -19.2206   19.5883 C   0  0  0  0  0  0  0  0  0  0  0  0
  -22.1846   -8.2396   21.3862 C   0  0  0  0  0  0  0  0  0  0  0  0
  -33.5940  -17.7072   20.0076 C   0  0  0  0  0  0  0  0  0  0  0  0
  -21.8957   -6.1515   22.4248 C   0  0  0  0  0  0  0  0  0  0  0  0
  -22.8571   -4.1812   24.1500 C   0  0  0  0  0  0  0  0  0  0  0  0
  -23.1120   -5.5233   22.1573 C   0  0  0  0  0  0  0  0  0  0  0  0
  -24.5690  -11.6876   20.8173 C   0  0  0  0  0  0  0  0  0  0  0  0
  -25.2825  -13.7553   20.5922 C   0  0  0  0  0  0  0  0  0  0  0  0
  -22.8231  -13.5676   20.9979 C   0  0  0  0  0  0  0  0  0  0  0  0
  -30.4033  -21.9519   21.1331 C   0  0  0  0  0  0  0  0  0  0  0  0
  -28.5643  -21.1105   18.5969 C   0  0  0  0  0  0  0  0  0  0  0  0
  -27.9950  -18.9426   16.0234 C   0  0  0  0  0  0  0  0  0  0  0  0
  -30.8946  -12.8120   21.6977 C   0  0  0  0  0  0  0  0  0  0  0  0
  -28.9959  -26.1732   23.6345 C   0  0  0  0  0  0  0  0  0  0  0  0
  -32.1347  -21.6974   19.3183 C   0  0  0  0  0  0  0  0  0  0  0  0
  -30.2595  -19.4115   19.3746 C   0  0  0  0  0  0  0  0  0  0  0  0
  -28.2739  -25.0566   22.8848 C   0  0  0  0  0  0  0  0  0  0  0  0
  -29.5634  -13.4701   18.4935 C   0  0  0  0  0  0  0  0  0  0  0  0
  -28.7751  -23.6921   23.3473 C   0  0  0  0  0  0  0  0  0  0  0  0
  -28.0758  -13.2078   18.7242 C   0  0  0  0  0  0  0  0  0  0  0  0
  -30.4457  -12.4569   19.2251 C   0  0  0  0  0  0  0  0  0  0  0  0
  -28.6659  -12.0818   20.9026 C   0  0  0  0  0  0  0  0  0  0  0  0
  -30.2714  -23.5261   23.0554 C   0  0  1  0  0  0  0  0  0  0  0  0
  -30.6576  -21.8785   19.6540 C   0  0  1  0  0  0  0  0  0  0  0  0
  -27.7589  -13.1219   20.2273 C   0  0  2  0  0  0  0  0  0  0  0  0
  -26.3932  -18.4922   14.1448 C   0  0  0  0  0  0  0  0  0  0  0  0
  -26.5394  -20.0021   20.5923 C   0  0  0  0  0  0  0  0  0  0  0  0
  -25.4680  -18.7534   18.7052 C   0  0  0  0  0  0  0  0  0  0  0  0
  -25.5353  -21.2467   18.6695 C   0  0  0  0  0  0  0  0  0  0  0  0
  -32.9464  -11.7573   20.6572 C   0  0  0  0  0  0  0  0  0  0  0  0
  -30.1157  -19.2623   13.9840 C   0  0  0  0  0  0  0  0  0  0  0  0
  -34.0098  -14.5134   21.6426 C   0  0  0  0  0  0  0  0  0  0  0  0
  -33.1585  -13.4978   22.3926 C   0  0  0  0  0  0  0  0  0  0  0  0
  -33.1773  -15.5314   20.8726 C   0  0  0  0  0  0  0  0  0  1  0  0
  -27.6645  -19.9435   18.2691 C   0  0  1  0  0  0  0  0  0  0  0  0
  -27.6858  -19.1798   14.5562 C   0  0  2  0  0  0  0  0  0  0  0  0
  -26.3294  -19.9827   19.0650 C   0  0  0  0  0  0  0  0  0  0  0  0
  -25.8833  -11.5675   20.6121 N   0  0  0  0  0  0  0  0  0  0  0  0
  -26.2889  -12.8418   20.4787 N   0  0  0  0  0  0  0  0  0  0  0  0
  -29.8221  -20.7959   19.1303 N   0  0  0  0  0  0  0  0  0  0  0  0
  -30.0786  -12.3718   20.6452 N   0  0  0  0  0  0  0  0  0  0  0  0
  -25.5154  -15.0806   20.4843 N   0  0  0  0  0  0  0  0  0  0  0  0
  -21.7612  -12.6794   21.2161 N   0  0  0  0  0  0  0  0  0  0  0  0
  -30.4832  -23.2289   21.6549 N   0  0  0  0  0  0  0  0  0  0  0  0
  -27.4967  -19.9518   16.8199 N   0  0  0  0  0  0  0  0  0  0  0  0
  -32.2827  -12.7457   21.5051 N   0  0  0  0  0  0  0  0  0  0  0  0
  -28.7893  -18.6552   13.7029 N   0  3  0  0  0  0  0  0  0  0  0  0
  -22.5933  -14.7999   20.9523 O   0  0  0  0  0  0  0  0  0  0  0  0
  -30.1517  -20.9261   21.7545 O   0  0  0  0  0  0  0  0  0  0  0  0
  -28.1685  -22.2586   18.3806 O   0  0  0  0  0  0  0  0  0  0  0  0
  -28.6131  -17.9585   16.4232 O   0  0  0  0  0  0  0  0  0  0  0  0
  -30.4107  -13.2342   22.7559 O   0  0  0  0  0  0  0  0  0  0  0  0
  -21.4176   -7.1304   21.5699 O   0  0  0  0  0  0  0  0  0  0  0  0
  -34.0578  -16.4457   20.2205 O   0  0  0  0  0  0  0  0  0  1  0  0
  -23.3193   -3.2362   24.9792 F   0  0  0  0  0  0  0  0  0  0  0  0
  -23.8238   -5.8629   21.0738 F   0  0  0  0  0  0  0  0  0  0  0  0
  1  2  1  0  0  0  0
  1  5  2  0  0  0  0
  2  6  2  0  0  0  0
  3  8  2  0  0  0  0
  3 15  1  0  0  0  0
  4  9  1  0  0  0  0
  4 15  2  0  0  0  0
  5 17  1  0  0  0  0
  6 19  1  0  0  0  0
  7 10  2  0  0  0  0
  7 18  1  0  0  0  0
  8 21  1  0  0  0  0
  9 21  2  0  0  0  0
 10 22  1  0  0  0  0
 11 12  2  0  0  0  0
 11 23  1  0  0  0  0
 12 24  1  0  0  0  0
 13 20  1  0  0  0  0
 13 22  2  0  0  0  0
 14 24  2  0  0  0  0
 14 25  1  0  0  0  0
 15 26  1  0  0  0  0
 16 26  1  0  0  0  0
 16 27  2  0  0  0  0
 16 28  1  0  0  0  0
 17 19  2  0  0  0  0
 17 33  1  0  0  0  0
 18 20  2  0  0  0  0
 18 34  1  0  0  0  0
 19 42  1  0  0  0  0
 20 35  1  0  0  0  0
 21 72  1  0  0  0  0
 22 73  1  0  0  0  0
 23 25  2  0  0  0  0
 23 72  1  0  0  0  0
 24 74  1  0  0  0  0
 25 75  1  0  0  0  0
 26 57  2  0  0  0  0
 27 58  1  0  0  0  0
 27 61  1  0  0  0  0
 28 62  1  0  0  0  0
 28 67  2  0  0  0  0
 29 43  1  0  0  0  0
 29 63  1  0  0  0  0
 29 68  2  0  0  0  0
 30 54  1  0  0  0  0
 30 59  1  0  0  0  0
 30 69  2  0  0  0  0
 31 55  1  0  0  0  0
 31 64  1  0  0  0  0
 31 70  2  0  0  0  0
 32 60  1  0  0  0  0
 32 65  1  0  0  0  0
 32 71  2  0  0  0  0
 33 36  1  0  0  0  0
 34 43  1  0  0  0  0
 35 59  1  0  0  0  0
 36 38  1  0  0  0  0
 37 39  1  0  0  0  0
 37 40  1  0  0  0  0
 38 42  1  0  0  0  0
 39 44  1  0  0  0  0
 40 60  1  0  0  0  0
 41 44  1  0  0  0  0
 41 60  1  0  0  0  0
 42 63  1  0  0  0  0
 43 59  1  0  0  0  0
 44 58  1  0  0  0  0
 45 55  1  0  0  0  0
 46 56  1  0  0  0  0
 47 56  1  0  0  0  0
 48 56  1  0  0  0  0
 49 65  1  0  0  0  0
 50 66  1  0  0  0  0
 51 52  1  0  0  0  0
 51 53  1  0  0  0  0
 52 65  1  0  0  0  0
 53 73  1  0  0  0  0
 54 56  1  0  0  0  0
 54 64  1  0  0  0  0
 55 66  1  0  0  0  0
 57 58  1  0  0  0  0
M  CHG  1  66   1
M  ISO  4  32 100  53 101  65 100  73 101
M  END
> <Batch ID>
0013

> <Smiles>
CNC(C)C(=O)NC(C(=O)N1Cc2cc([101O:1][101CH2:1]CC[100N:0](C)[100C:0](=O)N3CCCC(n4nc(-c5ccc(Oc6ccc(F)cc6F)cc5)c(C(N)=O)c4N)C3)ccc2CC1C(=O)NC1CCCc2ccccc21)C(C)(C)C

> <Shape>
0.188

> <Color>
0.204

> <Negative vol penalty>
0.000

$$$$

  -OEChem-04052315503D

 87 95  0     1  0  0  0  0  0999 V2000
  -33.5978  -16.4619   16.4411 C   0  0  0  0  0  0  0  0  0  0  0  0
  -33.7912  -16.7294   17.7925 C   0  0  0  0  0  0  0  0  0  0  0  0
  -23.4328   -9.7546   20.1648 C   0  0  0  0  0  0  0  0  0  0  0  0
  -23.9909  -10.1174   22.4873 C   0  0  0  0  0  0  0  0  0  0  0  0
  -33.5338  -17.5119   15.5260 C   0  0  0  0  0  0  0  0  0  0  0  0
  -33.9219  -18.0471   18.2296 C   0  0  0  0  0  0  0  0  0  0  0  0
  -31.2010  -18.9912   22.3950 C   0  0  0  0  0  0  0  0  0  0  0  0
  -22.8078   -8.5543   20.5025 C   0  0  0  0  0  0  0  0  0  0  0  0
  -23.3659   -8.9171   22.8250 C   0  0  0  0  0  0  0  0  0  0  0  0
  -31.7200  -18.5445   23.6094 C   0  0  0  0  0  0  0  0  0  0  0  0
  -22.2319   -5.7726   24.2520 C   0  0  0  0  0  0  0  0  0  0  0  0
  -22.8963   -4.9217   25.1352 C   0  0  0  0  0  0  0  0  0  0  0  0
  -32.5235  -20.7703   24.0777 C   0  0  0  0  0  0  0  0  0  0  0  0
  -32.9196  -13.1928   23.1601 C   0  0  0  0  0  0  0  0  0  0  0  0
  -24.7469   -4.7632   23.5900 C   0  0  0  0  0  0  0  0  0  0  0  0
  -24.0245  -10.5362   21.1572 C   0  0  0  0  0  0  0  0  0  0  0  0
  -24.0832  -13.0540   20.7507 C   0  0  0  0  0  0  0  0  0  0  0  0
  -33.6541  -18.8436   15.9533 C   0  0  0  0  0  0  0  0  0  0  0  0
  -31.3491  -20.3306   22.0072 C   0  0  0  0  0  0  0  0  0  0  0  0
  -33.8608  -19.1158   17.3192 C   0  0  0  0  0  0  0  0  0  0  0  0
  -32.0032  -21.2320   22.8590 C   0  0  0  0  0  0  0  0  0  0  0  0
  -31.9717  -13.3173   25.7809 C   0  0  0  0  0  0  0  0  0  0  0  0
  -31.5656  -13.4251   23.4017 C   0  0  0  0  0  0  0  0  0  0  0  0
  -22.7743   -8.1355   21.8326 C   0  0  0  0  0  0  0  0  0  0  0  0
  -32.3840  -19.4334   24.4496 C   0  0  0  0  0  0  0  0  0  0  0  0
  -22.8249   -6.1188   23.0378 C   0  0  0  0  0  0  0  0  0  0  0  0
  -24.1539   -4.4170   24.8042 C   0  0  0  0  0  0  0  0  0  0  0  0
  -33.7996  -13.0227   24.2289 C   0  0  0  0  0  0  0  0  0  0  0  0
  -24.0824   -5.6141   22.7069 C   0  0  0  0  0  0  0  0  0  0  0  0
  -33.3257  -13.0850   25.5392 C   0  0  0  0  0  0  0  0  0  0  0  0
  -31.0916  -13.4873   24.7120 C   0  0  0  0  0  0  0  0  0  0  0  0
  -24.6708  -11.7760   20.8089 C   0  0  0  0  0  0  0  0  0  0  0  0
  -25.1088  -13.8867   20.3751 C   0  0  0  0  0  0  0  0  0  0  0  0
  -22.7312  -13.4527   21.0129 C   0  0  0  0  0  0  0  0  0  0  0  0
  -32.7785  -21.8214   19.5910 C   0  0  0  0  0  0  0  0  0  0  0  0
  -31.3591  -24.4392   20.8773 C   0  0  0  0  0  0  0  0  0  0  0  0
  -32.2325  -15.5460   28.1699 C   0  0  0  0  0  0  0  0  0  0  0  0
  -30.0169  -25.9503   23.6271 C   0  0  0  0  0  0  0  0  0  0  0  0
  -31.0484  -13.5589   20.9398 C   0  0  0  0  0  0  0  0  0  0  0  0
  -33.6258  -19.9427   14.9209 C   0  0  0  0  0  0  0  0  0  0  0  0
  -30.7600  -20.8026   20.7062 C   0  0  0  0  0  0  0  0  0  0  0  0
  -32.1710  -22.6847   22.4983 C   0  0  0  0  0  0  0  0  0  0  0  0
  -33.3986  -21.3305   15.5147 C   0  0  0  0  0  0  0  0  0  0  0  0
  -29.2130  -13.8949   17.9073 C   0  0  0  0  0  0  0  0  0  0  0  0
  -34.2979  -21.5458   16.7279 C   0  0  0  0  0  0  0  0  0  0  0  0
  -27.7853  -13.5119   18.3034 C   0  0  0  0  0  0  0  0  0  0  0  0
  -30.2516  -13.0491   18.6419 C   0  0  0  0  0  0  0  0  0  0  0  0
  -28.6852  -12.6439   20.4997 C   0  0  0  0  0  0  0  0  0  0  0  0
  -33.9822  -20.5332   17.8353 C   0  0  1  0  0  0  0  0  0  0  0  0
  -31.4186  -22.0734   20.1782 C   0  0  1  0  0  0  0  0  0  0  0  0
  -27.6056  -13.5128   19.8341 C   0  0  2  0  0  0  0  0  0  0  0  0
  -28.9724  -28.1050   24.3781 C   0  0  0  0  0  0  0  0  0  0  0  0
  -34.1118  -25.7546   20.9237 C   0  0  0  0  0  0  0  0  0  0  0  0
  -33.1937  -27.4590   22.5113 C   0  0  0  0  0  0  0  0  0  0  0  0
  -32.2474  -27.2617   20.2116 C   0  0  0  0  0  0  0  0  0  0  0  0
  -27.4805  -24.6051   24.3458 C   0  0  0  0  0  0  0  0  0  0  0  0
  -31.5049  -13.3802   27.2065 C   0  0  0  0  0  0  0  0  0  0  0  0
  -31.6948  -16.9195   28.5300 C   0  0  0  0  0  0  0  0  0  0  0  0
  -32.4068  -18.0394   27.7797 C   0  0  0  0  0  0  0  0  0  0  0  0
  -32.2164  -17.9179   26.2748 C   0  0  0  0  0  0  0  0  0  1  0  0
  -31.7464  -25.4633   21.9166 C   0  0  1  0  0  0  0  0  0  0  0  0
  -28.7183  -26.7112   23.8253 C   0  0  2  0  0  0  0  0  0  0  0  0
  -32.8235  -26.4569   21.3970 C   0  0  0  0  0  0  0  0  0  0  0  0
  -25.9690  -11.7906   20.4952 N   0  0  0  0  0  0  0  0  0  0  0  0
  -26.2056  -13.0879   20.2362 N   0  0  0  0  0  0  0  0  0  0  0  0
  -31.5831  -23.0965   21.2128 N   0  0  0  0  0  0  0  0  0  0  0  0
  -30.0215  -13.1012   20.0873 N   0  0  0  0  0  0  0  0  0  0  0  0
  -25.1705  -15.2168   20.1532 N   0  0  0  0  0  0  0  0  0  0  0  0
  -21.8054  -12.4695   21.3881 N   0  0  0  0  0  0  0  0  0  0  0  0
  -30.7032  -13.5953   22.2903 N   0  0  0  0  0  0  0  0  0  0  0  0
  -32.7812  -20.9184   18.5450 N   0  0  0  0  0  0  0  0  0  0  0  0
  -31.2444  -14.7355   27.6303 N   0  0  0  0  0  0  0  0  0  0  0  0
  -30.5052  -26.0985   22.3462 N   0  0  0  0  0  0  0  0  0  0  0  0
  -27.8312  -25.9831   24.7760 N   0  3  0  0  0  0  0  0  0  0  0  0
  -22.3513  -14.6430   20.9012 O   0  0  0  0  0  0  0  0  0  0  0  0
  -33.7531  -22.4043   20.0518 O   0  0  0  0  0  0  0  0  0  0  0  0
  -30.8690  -24.8164   19.8099 O   0  0  0  0  0  0  0  0  0  0  0  0
  -33.4018  -15.2128   28.3422 O   0  0  0  0  0  0  0  0  0  0  0  0
  -30.5470  -25.2935   24.5205 O   0  0  0  0  0  0  0  0  0  0  0  0
  -32.1435  -13.9196   20.5009 O   0  0  0  0  0  0  0  0  0  0  0  0
  -22.1642   -6.9644   22.1625 O   0  0  0  0  0  0  0  0  0  0  0  0
  -32.8922  -19.0000   25.6352 O   0  0  0  0  0  0  0  0  0  1  0  0
  -24.7925   -3.6011   25.6530 F   0  0  0  0  0  0  0  0  0  0  0  0
  -35.1002  -12.8015   23.9972 F   0  0  0  0  0  0  0  0  0  0  0  0
  -24.6577   -5.9441   21.5424 F   0  0  0  0  0  0  0  0  0  0  0  0
  -34.1806  -12.9212   26.5587 F   0  0  0  0  0  0  0  0  0  0  0  0
  -29.4098  -13.7775   25.0176 Cl  0  0  0  0  0  0  0  0  0  0  0  0
  1  2  1  0  0  0  0
  1  5  2  0  0  0  0
  2  6  2  0  0  0  0
  3  8  2  0  0  0  0
  3 16  1  0  0  0  0
  4  9  1  0  0  0  0
  4 16  2  0  0  0  0
  5 18  1  0  0  0  0
  6 20  1  0  0  0  0
  7 10  2  0  0  0  0
  7 19  1  0  0  0  0
  8 24  1  0  0  0  0
  9 24  2  0  0  0  0
 10 25  1  0  0  0  0
 11 12  2  0  0  0  0
 11 26  1  0  0  0  0
 12 27  1  0  0  0  0
 13 21  1  0  0  0  0
 13 25  2  0  0  0  0
 14 23  2  0  0  0  0
 14 28  1  0  0  0  0
 15 27  2  0  0  0  0
 15 29  1  0  0  0  0
 16 32  1  0  0  0  0
 17 32  1  0  0  0  0
 17 33  2  0  0  0  0
 17 34  1  0  0  0  0
 18 20  2  0  0  0  0
 18 40  1  0  0  0  0
 19 21  2  0  0  0  0
 19 41  1  0  0  0  0
 20 49  1  0  0  0  0
 21 42  1  0  0  0  0
 22 30  1  0  0  0  0
 22 31  2  0  0  0  0
 22 57  1  0  0  0  0
 23 31  1  0  0  0  0
 23 70  1  0  0  0  0
 24 81  1  0  0  0  0
 25 82  1  0  0  0  0
 26 29  2  0  0  0  0
 26 81  1  0  0  0  0
 27 83  1  0  0  0  0
 28 30  2  0  0  0  0
 28 84  1  0  0  0  0
 29 85  1  0  0  0  0
 30 86  1  0  0  0  0
 31 87  1  0  0  0  0
 32 64  2  0  0  0  0
 33 65  1  0  0  0  0
 33 68  1  0  0  0  0
 34 69  1  0  0  0  0
 34 75  2  0  0  0  0
 35 50  1  0  0  0  0
 35 71  1  0  0  0  0
 35 76  2  0  0  0  0
 36 61  1  0  0  0  0
 36 66  1  0  0  0  0
 36 77  2  0  0  0  0
 37 58  1  0  0  0  0
 37 72  1  0  0  0  0
 37 78  2  0  0  0  0
 38 62  1  0  0  0  0
 38 73  1  0  0  0  0
 38 79  2  0  0  0  0
 39 67  1  0  0  0  0
 39 70  1  0  0  0  0
 39 80  2  0  0  0  0
 40 43  1  0  0  0  0
 41 50  1  0  0  0  0
 42 66  1  0  0  0  0
 43 45  1  0  0  0  0
 44 46  1  0  0  0  0
 44 47  1  0  0  0  0
 45 49  1  0  0  0  0
 46 51  1  0  0  0  0
 47 67  1  0  0  0  0
 48 51  1  0  0  0  0
 48 67  1  0  0  0  0
 49 71  1  0  0  0  0
 50 66  1  0  0  0  0
 51 65  1  0  0  0  0
 52 62  1  0  0  0  0
 53 63  1  0  0  0  0
 54 63  1  0  0  0  0
 55 63  1  0  0  0  0
 56 74  1  0  0  0  0
 57 72  1  0  0  0  0
 58 59  1  0  0  0  0
 59 60  1  0  0  0  0
 60 82  1  0  0  0  0
 61 63  1  0  0  0  0
 61 73  1  0  0  0  0
 62 74  1  0  0  0  0
 64 65  1  0  0  0  0
M  CHG  1  74   1
M  ISO  4  39 100  60 101  70 100  82 101
M  END
> <Batch ID>
0013

> <Smiles>
CNC(C)C(=O)NC(C(=O)N1Cc2cc([101O:1][101CH2:1]CCC(=O)NCc3c(F)c(F)cc([100NH:0][100C:0](=O)N4CCCC(n5nc(-c6ccc(Oc7ccc(F)cc7F)cc6)c(C(N)=O)c5N)C4)c3Cl)ccc2CC1C(=O)NC1CCCc2ccccc21)C(C)(C)C

> <Shape>
0.151

> <Color>
0.174

> <Negative vol penalty>
0.000

$$$$

  -OEChem-04052315503D

 86 94  0     1  0  0  0  0  0999 V2000
  -26.5082  -33.1715   28.1268 C   0  0  0  0  0  0  0  0  0  0  0  0
  -26.8919  -31.9818   27.5162 C   0  0  0  0  0  0  0  0  0  0  0  0
  -23.1503   -9.7499   19.8919 C   0  0  0  0  0  0  0  0  0  0  0  0
  -23.8917   -9.7561   22.1914 C   0  0  0  0  0  0  0  0  0  0  0  0
  -25.2867  -33.7591   27.8001 C   0  0  0  0  0  0  0  0  0  0  0  0
  -26.0537  -31.3784   26.5793 C   0  0  0  0  0  0  0  0  0  0  0  0
  -28.5552  -29.7915   22.4721 C   0  0  0  0  0  0  0  0  0  0  0  0
  -22.4620   -8.5578   20.1171 C   0  0  0  0  0  0  0  0  0  0  0  0
  -23.2033   -8.5640   22.4165 C   0  0  0  0  0  0  0  0  0  0  0  0
  -29.2740  -28.6022   22.5844 C   0  0  0  0  0  0  0  0  0  0  0  0
  -23.6608   -5.2698   21.8081 C   0  0  0  0  0  0  0  0  0  0  0  0
  -24.3204   -4.2641   22.5145 C   0  0  0  0  0  0  0  0  0  0  0  0
  -27.4770  -27.4200   21.4924 C   0  0  0  0  0  0  0  0  0  0  0  0
  -31.5394  -18.5655   24.3412 C   0  0  0  0  0  0  0  0  0  0  0  0
  -31.7810  -16.8509   22.6564 C   0  0  0  0  0  0  0  0  0  0  0  0
  -22.5998   -4.3262   24.2094 C   0  0  0  0  0  0  0  0  0  0  0  0
  -23.8652  -10.3490   20.9291 C   0  0  0  0  0  0  0  0  0  0  0  0
  -24.0838  -12.8895   20.8527 C   0  0  0  0  0  0  0  0  0  0  0  0
  -24.4375  -33.1676   26.8517 C   0  0  0  0  0  0  0  0  0  0  0  0
  -27.2851  -29.8021   21.8779 C   0  0  0  0  0  0  0  0  0  0  0  0
  -24.8191  -31.9578   26.2407 C   0  0  0  0  0  0  0  0  0  0  0  0
  -26.7452  -28.6112   21.3715 C   0  0  0  0  0  0  0  0  0  0  0  0
  -32.3534  -17.7358   23.5701 C   0  0  0  0  0  0  0  0  0  0  0  0
  -30.1529  -18.5101   24.1987 C   0  0  0  0  0  0  0  0  0  0  0  0
  -30.3945  -16.7955   22.5139 C   0  0  0  0  0  0  0  0  0  0  0  0
  -22.4884   -7.9648   21.3794 C   0  0  0  0  0  0  0  0  0  0  0  0
  -28.7338  -27.4157   22.0971 C   0  0  0  0  0  0  0  0  0  0  0  0
  -22.4707   -5.8038   22.3024 C   0  0  0  0  0  0  0  0  0  0  0  0
  -23.7899   -3.7922   23.7151 C   0  0  0  0  0  0  0  0  0  0  0  0
  -21.9402   -5.3319   23.5030 C   0  0  0  0  0  0  0  0  0  0  0  0
  -29.5804  -17.6251   23.2850 C   0  0  0  0  0  0  0  0  0  0  0  0
  -24.5769  -11.5801   20.6970 C   0  0  0  0  0  0  0  0  0  0  0  0
  -25.1406  -13.6973   20.5106 C   0  0  0  0  0  0  0  0  0  0  0  0
  -22.7865  -13.3356   21.2693 C   0  0  0  0  0  0  0  0  0  0  0  0
  -24.3521  -30.5258   22.8667 C   0  0  0  0  0  0  0  0  0  0  0  0
  -23.6073  -30.0700   19.7426 C   0  0  0  0  0  0  0  0  0  0  0  0
  -29.5001  -21.7216   24.1427 C   0  0  0  0  0  0  0  0  0  0  0  0
  -24.3927  -28.6086   16.7603 C   0  0  0  0  0  0  0  0  0  0  0  0
  -30.5475  -15.0058   20.7475 C   0  0  0  0  0  0  0  0  0  0  0  0
  -23.1056  -33.8150   26.5660 C   0  0  0  0  0  0  0  0  0  0  0  0
  -26.5339  -31.0979   21.7405 C   0  0  0  0  0  0  0  0  0  0  0  0
  -25.3943  -28.5726   20.7068 C   0  0  0  0  0  0  0  0  0  0  0  0
  -22.4439  -33.3083   25.2870 C   0  0  0  0  0  0  0  0  0  0  0  0
  -29.5706  -12.5798   18.3315 C   0  0  0  0  0  0  0  0  0  0  0  0
  -22.4987  -31.7852   25.2249 C   0  0  0  0  0  0  0  0  0  0  0  0
  -28.1437  -12.2112   18.7443 C   0  0  0  0  0  0  0  0  0  0  0  0
  -30.4643  -12.8332   19.5442 C   0  0  0  0  0  0  0  0  0  0  0  0
  -28.5138  -13.4407   20.9211 C   0  0  0  0  0  0  0  0  0  0  0  0
  -23.9484  -31.2858   25.2012 C   0  0  1  0  0  0  0  0  0  0  0  0
  -25.0295  -30.9023   21.5794 C   0  0  1  0  0  0  0  0  0  0  0  0
  -27.5595  -13.2396   19.7326 C   0  0  2  0  0  0  0  0  0  0  0  0
  -33.8356  -17.7962   23.7222 C   0  0  0  0  0  0  0  0  0  0  0  0
  -23.5748  -28.3896   14.3980 C   0  0  0  0  0  0  0  0  0  0  0  0
  -21.4633  -28.1068   20.6695 C   0  0  0  0  0  0  0  0  0  0  0  0
  -21.3470  -27.2349   18.3255 C   0  0  0  0  0  0  0  0  0  0  0  0
  -20.7609  -29.6127   18.8005 C   0  0  0  0  0  0  0  0  0  0  0  0
  -26.8459  -29.8566   15.6723 C   0  0  0  0  0  0  0  0  0  0  0  0
  -29.3169  -19.4213   25.0502 C   0  0  0  0  0  0  0  0  0  0  0  0
  -28.7282  -22.7275   23.3075 C   0  0  0  0  0  0  0  0  0  0  0  0
  -29.4858  -24.0378   23.1257 C   0  0  0  0  0  0  0  0  0  0  0  0
  -28.6767  -25.0493   22.3268 C   0  0  0  0  0  0  0  0  0  1  0  0
  -23.1806  -28.8875   18.9067 C   0  0  1  0  0  0  0  0  0  0  0  0
  -24.4658  -29.1700   15.3517 C   0  0  2  0  0  0  0  0  0  0  0  0
  -21.7126  -28.4605   19.1898 C   0  0  0  0  0  0  0  0  0  0  0  0
  -25.8481  -11.5532   20.2877 N   0  0  0  0  0  0  0  0  0  0  0  0
  -26.1626  -12.8556   20.1833 N   0  0  0  0  0  0  0  0  0  0  0  0
  -24.6959  -29.8644   20.6019 N   0  0  0  0  0  0  0  0  0  0  0  0
  -29.8489  -13.8209   20.4334 N   0  0  0  0  0  0  0  0  0  0  0  0
  -25.2861  -15.0385   20.4608 N   0  0  0  0  0  0  0  0  0  0  0  0
  -21.8178  -12.3726   21.5834 N   0  0  0  0  0  0  0  0  0  0  0  0
  -29.8495  -15.8844   21.5754 N   0  0  0  0  0  0  0  0  0  0  0  0
  -24.5179  -31.4495   23.8809 N   0  0  0  0  0  0  0  0  0  0  0  0
  -28.7951  -20.5368   24.2967 N   0  0  0  0  0  0  0  0  0  0  0  0
  -23.4392  -29.2543   17.5186 N   0  0  0  0  0  0  0  0  0  0  0  0
  -25.8651  -29.1107   14.8424 N   0  3  0  0  0  0  0  0  0  0  0  0
  -22.4898  -14.5521   21.3445 O   0  0  0  0  0  0  0  0  0  0  0  0
  -23.7241  -29.4756   22.9342 O   0  0  0  0  0  0  0  0  0  0  0  0
  -23.0016  -31.1389   19.6318 O   0  0  0  0  0  0  0  0  0  0  0  0
  -30.6112  -21.9475   24.6145 O   0  0  0  0  0  0  0  0  0  0  0  0
  -25.1073  -27.6868   17.1478 O   0  0  0  0  0  0  0  0  0  0  0  0
  -31.6705  -15.2372   20.2921 O   0  0  0  0  0  0  0  0  0  0  0  0
  -21.8167   -6.8017   21.5995 O   0  0  0  0  0  0  0  0  0  0  0  0
  -29.4330  -26.2533   22.2060 O   0  0  0  0  0  0  0  0  0  1  0  0
  -24.4226   -2.8254   24.3926 F   0  0  0  0  0  0  0  0  0  0  0  0
  -20.7966   -5.8402   23.9822 F   0  0  0  0  0  0  0  0  0  0  0  0
  -27.8566  -17.5608   23.1131 Cl  0  0  0  0  0  0  0  0  0  0  0  0
  1  2  1  0  0  0  0
  1  5  2  0  0  0  0
  2  6  2  0  0  0  0
  3  8  2  0  0  0  0
  3 17  1  0  0  0  0
  4  9  1  0  0  0  0
  4 17  2  0  0  0  0
  5 19  1  0  0  0  0
  6 21  1  0  0  0  0
  7 10  2  0  0  0  0
  7 20  1  0  0  0  0
  8 26  1  0  0  0  0
  9 26  2  0  0  0  0
 10 27  1  0  0  0  0
 11 12  2  0  0  0  0
 11 28  1  0  0  0  0
 12 29  1  0  0  0  0
 13 22  1  0  0  0  0
 13 27  2  0  0  0  0
 14 23  2  0  0  0  0
 14 24  1  0  0  0  0
 15 23  1  0  0  0  0
 15 25  2  0  0  0  0
 16 29  2  0  0  0  0
 16 30  1  0  0  0  0
 17 32  1  0  0  0  0
 18 32  1  0  0  0  0
 18 33  2  0  0  0  0
 18 34  1  0  0  0  0
 19 21  2  0  0  0  0
 19 40  1  0  0  0  0
 20 22  2  0  0  0  0
 20 41  1  0  0  0  0
 21 49  1  0  0  0  0
 22 42  1  0  0  0  0
 23 52  1  0  0  0  0
 24 31  2  0  0  0  0
 24 58  1  0  0  0  0
 25 31  1  0  0  0  0
 25 71  1  0  0  0  0
 26 82  1  0  0  0  0
 27 83  1  0  0  0  0
 28 30  2  0  0  0  0
 28 82  1  0  0  0  0
 29 84  1  0  0  0  0
 30 85  1  0  0  0  0
 31 86  1  0  0  0  0
 32 65  2  0  0  0  0
 33 66  1  0  0  0  0
 33 69  1  0  0  0  0
 34 70  1  0  0  0  0
 34 76  2  0  0  0  0
 35 50  1  0  0  0  0
 35 72  1  0  0  0  0
 35 77  2  0  0  0  0
 36 62  1  0  0  0  0
 36 67  1  0  0  0  0
 36 78  2  0  0  0  0
 37 59  1  0  0  0  0
 37 73  1  0  0  0  0
 37 79  2  0  0  0  0
 38 63  1  0  0  0  0
 38 74  1  0  0  0  0
 38 80  2  0  0  0  0
 39 68  1  0  0  0  0
 39 71  1  0  0  0  0
 39 81  2  0  0  0  0
 40 43  1  0  0  0  0
 41 50  1  0  0  0  0
 42 67  1  0  0  0  0
 43 45  1  0  0  0  0
 44 46  1  0  0  0  0
 44 47  1  0  0  0  0
 45 49  1  0  0  0  0
 46 51  1  0  0  0  0
 47 68  1  0  0  0  0
 48 51  1  0  0  0  0
 48 68  1  0  0  0  0
 49 72  1  0  0  0  0
 50 67  1  0  0  0  0
 51 66  1  0  0  0  0
 53 63  1  0  0  0  0
 54 64  1  0  0  0  0
 55 64  1  0  0  0  0
 56 64  1  0  0  0  0
 57 75  1  0  0  0  0
 58 73  1  0  0  0  0
 59 60  1  0  0  0  0
 60 61  1  0  0  0  0
 61 83  1  0  0  0  0
 62 64  1  0  0  0  0
 62 74  1  0  0  0  0
 63 75  1  0  0  0  0
 65 66  1  0  0  0  0
M  CHG  1  75   1
M  ISO  4  39 100  61 101  71 100  83 101
M  END
> <Batch ID>
0013

> <Smiles>
CNC(C)C(=O)NC(C(=O)N1Cc2cc([101O:1][101CH2:1]CCC(=O)NCc3cc(C)cc([100NH:0][100C:0](=O)N4CCCC(n5nc(-c6ccc(Oc7ccc(F)cc7F)cc6)c(C(N)=O)c5N)C4)c3Cl)ccc2CC1C(=O)NC1CCCc2ccccc21)C(C)(C)C

> <Shape>
0.294

> <Color>
0.202

> <Negative vol penalty>
0.000

$$$$

  -OEChem-04052315503D

 84 92  0     1  0  0  0  0  0999 V2000
  -34.2327  -30.3806   17.6232 C   0  0  0  0  0  0  0  0  0  0  0  0
  -33.6473  -29.1865   18.0318 C   0  0  0  0  0  0  0  0  0  0  0  0
  -23.5956   -9.7018   21.7220 C   0  0  0  0  0  0  0  0  0  0  0  0
  -23.4422  -11.8575   22.8020 C   0  0  0  0  0  0  0  0  0  0  0  0
  -34.0198  -31.5469   18.3569 C   0  0  0  0  0  0  0  0  0  0  0  0
  -32.8494  -29.1580   19.1750 C   0  0  0  0  0  0  0  0  0  0  0  0
  -27.8815  -25.7013   20.1116 C   0  0  0  0  0  0  0  0  0  0  0  0
  -31.8279  -16.2291   22.3588 C   0  0  0  0  0  0  0  0  0  0  0  0
  -22.8718   -9.1269   22.7666 C   0  0  0  0  0  0  0  0  0  0  0  0
  -22.7184  -11.2826   23.8466 C   0  0  0  0  0  0  0  0  0  0  0  0
  -27.6908  -24.4962   20.7864 C   0  0  0  0  0  0  0  0  0  0  0  0
  -19.6395   -8.9135   23.7356 C   0  0  0  0  0  0  0  0  0  0  0  0
  -18.6127   -8.0297   23.4034 C   0  0  0  0  0  0  0  0  0  0  0  0
  -32.3454  -17.1700   23.2490 C   0  0  0  0  0  0  0  0  0  0  0  0
  -26.9911  -25.7126   22.7485 C   0  0  0  0  0  0  0  0  0  0  0  0
  -19.7238   -6.2749   24.6375 C   0  0  0  0  0  0  0  0  0  0  0  0
  -23.8808  -11.0671   21.7397 C   0  0  0  0  0  0  0  0  0  0  0  0
  -24.1140  -12.2190   19.4755 C   0  0  0  0  0  0  0  0  0  0  0  0
  -33.2110  -31.5346   19.5042 C   0  0  0  0  0  0  0  0  0  0  0  0
  -27.6383  -26.9234   20.7548 C   0  0  0  0  0  0  0  0  0  0  0  0
  -32.6265  -30.3250   19.9255 C   0  0  0  0  0  0  0  0  0  0  0  0
  -27.1769  -26.9317   22.0788 C   0  0  0  0  0  0  0  0  0  0  0  0
  -30.1448  -18.1321   23.5113 C   0  0  0  0  0  0  0  0  0  0  0  0
  -30.4688  -16.2398   22.0447 C   0  0  0  0  0  0  0  0  0  0  0  0
  -22.4332   -9.9173   23.8289 C   0  0  0  0  0  0  0  0  0  0  0  0
  -27.2483  -24.5019   22.1059 C   0  0  0  0  0  0  0  0  0  0  0  0
  -20.7085   -8.4779   24.5187 C   0  0  0  0  0  0  0  0  0  0  0  0
  -18.6548   -6.7104   23.8544 C   0  0  0  0  0  0  0  0  0  0  0  0
  -20.7507   -7.1586   24.9696 C   0  0  0  0  0  0  0  0  0  0  0  0
  -31.5038  -18.1215   23.8253 C   0  0  0  0  0  0  0  0  0  0  0  0
  -29.6273  -17.1912   22.6210 C   0  0  0  0  0  0  0  0  0  0  0  0
  -24.6289  -11.6614   20.6611 C   0  0  0  0  0  0  0  0  0  0  0  0
  -25.2231  -12.6443   18.7861 C   0  0  0  0  0  0  0  0  0  0  0  0
  -22.7545  -12.3416   19.0367 C   0  0  0  0  0  0  0  0  0  0  0  0
  -29.4136  -29.4453   21.5244 C   0  0  0  0  0  0  0  0  0  0  0  0
  -26.5581  -30.6897   22.4300 C   0  0  0  0  0  0  0  0  0  0  0  0
  -28.1023  -21.2902   23.5565 C   0  0  0  0  0  0  0  0  0  0  0  0
  -23.3488  -30.1354   23.4499 C   0  0  0  0  0  0  0  0  0  0  0  0
  -30.7139  -14.2717   20.4913 C   0  0  0  0  0  0  0  0  0  0  0  0
  -33.0483  -32.8107   20.2914 C   0  0  0  0  0  0  0  0  0  0  0  0
  -27.8232  -28.2138   20.0045 C   0  0  0  0  0  0  0  0  0  0  0  0
  -26.8821  -28.2163   22.8078 C   0  0  0  0  0  0  0  0  0  0  0  0
  -31.8852  -32.7729   21.2793 C   0  0  0  0  0  0  0  0  0  0  0  0
  -29.8763  -11.6692   18.2104 C   0  0  0  0  0  0  0  0  0  0  0  0
  -31.9003  -31.4697   22.0721 C   0  0  0  0  0  0  0  0  0  0  0  0
  -28.3873  -11.4268   18.4679 C   0  0  0  0  0  0  0  0  0  0  0  0
  -30.6290  -11.9950   19.4992 C   0  0  0  0  0  0  0  0  0  0  0  0
  -28.5706  -12.8511   20.5475 C   0  0  0  0  0  0  0  0  0  0  0  0
  -31.7344  -30.2587   21.1461 C   0  0  1  0  0  0  0  0  0  0  0  0
  -28.0373  -29.4134   20.9224 C   0  0  1  0  0  0  0  0  0  0  0  0
  -27.7585  -12.5831   19.2698 C   0  0  2  0  0  0  0  0  0  0  0  0
  -21.2672  -31.3491   24.1509 C   0  0  0  0  0  0  0  0  0  0  0  0
  -27.8145  -31.2687   25.1495 C   0  0  0  0  0  0  0  0  0  0  0  0
  -25.5075  -31.5774   26.0718 C   0  0  0  0  0  0  0  0  0  0  0  0
  -26.3419  -33.0895   24.2718 C   0  0  0  0  0  0  0  0  0  0  0  0
  -21.7898  -28.9959   21.2071 C   0  0  0  0  0  0  0  0  0  0  0  0
  -29.2437  -19.1579   24.1359 C   0  0  0  0  0  0  0  0  0  0  0  0
  -27.8923  -22.2300   22.3885 C   0  0  0  0  0  0  0  0  0  1  0  0
  -25.7516  -30.6971   23.7061 C   0  0  1  0  0  0  0  0  0  0  0  0
  -22.0292  -30.7285   22.9902 C   0  0  2  0  0  0  0  0  0  0  0  0
  -26.3612  -31.6339   24.7870 C   0  0  0  0  0  0  0  0  0  0  0  0
  -25.9616  -11.7251   20.7245 N   0  0  0  0  0  0  0  0  0  0  0  0
  -26.2934  -12.3276   19.5700 N   0  0  0  0  0  0  0  0  0  0  0  0
  -27.0843  -29.4520   22.0335 N   0  0  0  0  0  0  0  0  0  0  0  0
  -29.9788  -13.1024   20.2032 N   0  0  0  0  0  0  0  0  0  0  0  0
  -25.3776  -13.2544   17.5918 N   0  0  0  0  0  0  0  0  0  0  0  0
  -21.7375  -11.8521   19.8675 N   0  0  0  0  0  0  0  0  0  0  0  0
  -29.9819  -15.2693   21.1343 N   0  0  0  0  0  0  0  0  0  0  0  0
  -30.3495  -30.1085   20.7538 N   0  0  0  0  0  0  0  0  0  0  0  0
  -28.8915  -20.2059   23.2062 N   0  0  0  0  0  0  0  0  0  0  0  0
  -24.3852  -31.0361   23.3234 N   0  0  0  0  0  0  0  0  0  0  0  0
  -21.1733  -29.6743   22.3763 N   0  3  0  0  0  0  0  0  0  0  0  0
  -22.4518  -12.8548   17.9328 O   0  0  0  0  0  0  0  0  0  0  0  0
  -29.6115  -28.9093   22.6085 O   0  0  0  0  0  0  0  0  0  0  0  0
  -26.7095  -31.7418   21.8041 O   0  0  0  0  0  0  0  0  0  0  0  0
  -27.6176  -21.4915   24.6667 O   0  0  0  0  0  0  0  0  0  0  0  0
  -23.4495  -28.9892   23.8816 O   0  0  0  0  0  0  0  0  0  0  0  0
  -31.8979  -14.3907   20.1654 O   0  0  0  0  0  0  0  0  0  0  0  0
  -21.7267   -9.3567   24.8483 O   0  0  0  0  0  0  0  0  0  0  0  0
  -27.0621  -23.3271   22.7671 O   0  0  0  0  0  0  0  0  0  1  0  0
  -17.6680   -5.8623   23.5366 F   0  0  0  0  0  0  0  0  0  0  0  0
  -21.7745   -6.7347   25.7232 F   0  0  0  0  0  0  0  0  0  0  0  0
  -32.1879  -19.2683   24.9204 Cl  0  0  0  0  0  0  0  0  0  0  0  0
  -27.9366  -17.2018   22.2318 Cl  0  0  0  0  0  0  0  0  0  0  0  0
  1  2  1  0  0  0  0
  1  5  2  0  0  0  0
  2  6  2  0  0  0  0
  3  9  2  0  0  0  0
  3 17  1  0  0  0  0
  4 10  1  0  0  0  0
  4 17  2  0  0  0  0
  5 19  1  0  0  0  0
  6 21  1  0  0  0  0
  7 11  2  0  0  0  0
  7 20  1  0  0  0  0
  8 14  1  0  0  0  0
  8 24  2  0  0  0  0
  9 25  1  0  0  0  0
 10 25  2  0  0  0  0
 11 26  1  0  0  0  0
 12 13  2  0  0  0  0
 12 27  1  0  0  0  0
 13 28  1  0  0  0  0
 14 30  2  0  0  0  0
 15 22  1  0  0  0  0
 15 26  2  0  0  0  0
 16 28  2  0  0  0  0
 16 29  1  0  0  0  0
 17 32  1  0  0  0  0
 18 32  1  0  0  0  0
 18 33  2  0  0  0  0
 18 34  1  0  0  0  0
 19 21  2  0  0  0  0
 19 40  1  0  0  0  0
 20 22  2  0  0  0  0
 20 41  1  0  0  0  0
 21 49  1  0  0  0  0
 22 42  1  0  0  0  0
 23 30  1  0  0  0  0
 23 31  2  0  0  0  0
 23 57  1  0  0  0  0
 24 31  1  0  0  0  0
 24 68  1  0  0  0  0
 25 79  1  0  0  0  0
 26 80  1  0  0  0  0
 27 29  2  0  0  0  0
 27 79  1  0  0  0  0
 28 81  1  0  0  0  0
 29 82  1  0  0  0  0
 30 83  1  0  0  0  0
 31 84  1  0  0  0  0
 32 62  2  0  0  0  0
 33 63  1  0  0  0  0
 33 66  1  0  0  0  0
 34 67  1  0  0  0  0
 34 73  2  0  0  0  0
 35 50  1  0  0  0  0
 35 69  1  0  0  0  0
 35 74  2  0  0  0  0
 36 59  1  0  0  0  0
 36 64  1  0  0  0  0
 36 75  2  0  0  0  0
 37 58  1  0  0  0  0
 37 70  1  0  0  0  0
 37 76  2  0  0  0  0
 38 60  1  0  0  0  0
 38 71  1  0  0  0  0
 38 77  2  0  0  0  0
 39 65  1  0  0  0  0
 39 68  1  0  0  0  0
 39 78  2  0  0  0  0
 40 43  1  0  0  0  0
 41 50  1  0  0  0  0
 42 64  1  0  0  0  0
 43 45  1  0  0  0  0
 44 46  1  0  0  0  0
 44 47  1  0  0  0  0
 45 49  1  0  0  0  0
 46 51  1  0  0  0  0
 47 65  1  0  0  0  0
 48 51  1  0  0  0  0
 48 65  1  0  0  0  0
 49 69  1  0  0  0  0
 50 64  1  0  0  0  0
 51 63  1  0  0  0  0
 52 60  1  0  0  0  0
 53 61  1  0  0  0  0
 54 61  1  0  0  0  0
 55 61  1  0  0  0  0
 56 72  1  0  0  0  0
 57 70  1  0  0  0  0
 58 80  1  0  0  0  0
 59 61  1  0  0  0  0
 59 71  1  0  0  0  0
 60 72  1  0  0  0  0
 62 63  1  0  0  0  0
M  CHG  1  72   1
M  ISO  4  39 100  58 101  68 100  80 101
M  END
> <Batch ID>
0013

> <Smiles>
CNC(C)C(=O)NC(C(=O)N1Cc2cc([101O:1][101CH2:1]C(=O)NCc3c(Cl)ccc([100NH:0][100C:0](=O)N4CCCC(n5nc(-c6ccc(Oc7ccc(F)cc7F)cc6)c(C(N)=O)c5N)C4)c3Cl)ccc2CC1C(=O)NC1CCCc2ccccc21)C(C)(C)C

> <Shape>
0.232

> <Color>
0.104

> <Negative vol penalty>
0.000

$$$$

  -OEChem-04052315503D

 84 92  0     1  0  0  0  0  0999 V2000
  -30.3428  -33.7548   17.6521 C   0  0  0  0  0  0  0  0  0  0  0  0
  -30.7173  -32.7333   18.5191 C   0  0  0  0  0  0  0  0  0  0  0  0
  -22.9782   -9.9182   19.9828 C   0  0  0  0  0  0  0  0  0  0  0  0
  -23.7154   -9.9453   22.2834 C   0  0  0  0  0  0  0  0  0  0  0  0
  -29.0546  -33.7782   17.1194 C   0  0  0  0  0  0  0  0  0  0  0  0
  -29.8033  -31.7351   18.8548 C   0  0  0  0  0  0  0  0  0  0  0  0
  -31.0279  -25.8310   19.9262 C   0  0  0  0  0  0  0  0  0  0  0  0
  -22.2021   -8.7892   20.2448 C   0  0  0  0  0  0  0  0  0  0  0  0
  -22.9392   -8.8163   22.5454 C   0  0  0  0  0  0  0  0  0  0  0  0
  -31.2023  -25.1083   21.1056 C   0  0  0  0  0  0  0  0  0  0  0  0
  -23.1490   -5.4787   22.0480 C   0  0  0  0  0  0  0  0  0  0  0  0
  -23.7304   -4.4504   22.7897 C   0  0  0  0  0  0  0  0  0  0  0  0
  -28.8901  -24.4256   21.0221 C   0  0  0  0  0  0  0  0  0  0  0  0
  -32.0000  -18.2233   24.1684 C   0  0  0  0  0  0  0  0  0  0  0  0
  -32.1142  -16.4403   22.5421 C   0  0  0  0  0  0  0  0  0  0  0  0
  -22.0173   -4.6977   24.4754 C   0  0  0  0  0  0  0  0  0  0  0  0
  -23.7349  -10.4962   21.0021 C   0  0  0  0  0  0  0  0  0  0  0  0
  -24.1436  -13.0092   20.8425 C   0  0  0  0  0  0  0  0  0  0  0  0
  -28.1274  -32.7745   17.4412 C   0  0  0  0  0  0  0  0  0  0  0  0
  -29.7784  -25.8655   19.2907 C   0  0  0  0  0  0  0  0  0  0  0  0
  -28.5010  -31.7459   18.3270 C   0  0  0  0  0  0  0  0  0  0  0  0
  -28.7032  -25.1475   19.8333 C   0  0  0  0  0  0  0  0  0  0  0  0
  -32.7504  -17.3098   23.4281 C   0  0  0  0  0  0  0  0  0  0  0  0
  -30.6135  -18.2673   24.0228 C   0  0  0  0  0  0  0  0  0  0  0  0
  -30.7277  -16.4843   22.3965 C   0  0  0  0  0  0  0  0  0  0  0  0
  -22.1826   -8.2383   21.5261 C   0  0  0  0  0  0  0  0  0  0  0  0
  -30.1326  -24.4078   21.6553 C   0  0  0  0  0  0  0  0  0  0  0  0
  -22.0017   -6.1166   22.5200 C   0  0  0  0  0  0  0  0  0  0  0  0
  -23.1646   -4.0599   24.0034 C   0  0  0  0  0  0  0  0  0  0  0  0
  -21.4359   -5.7260   23.7337 C   0  0  0  0  0  0  0  0  0  0  0  0
  -29.9773  -17.3978   23.1368 C   0  0  0  0  0  0  0  0  0  0  0  0
  -24.5373  -11.6621   20.7320 C   0  0  0  0  0  0  0  0  0  0  0  0
  -25.2585  -13.7237   20.4777 C   0  0  0  0  0  0  0  0  0  0  0  0
  -22.8829  -13.5649   21.2394 C   0  0  0  0  0  0  0  0  0  0  0  0
  -27.6871  -28.1503   18.5768 C   0  0  0  0  0  0  0  0  0  0  0  0
  -26.1682  -25.7369   17.0306 C   0  0  0  0  0  0  0  0  0  0  0  0
  -30.1913  -21.5212   23.8490 C   0  0  0  0  0  0  0  0  0  0  0  0
  -25.6247  -22.3817   16.7234 C   0  0  0  0  0  0  0  0  0  0  0  0
  -30.7480  -14.6304   20.6909 C   0  0  0  0  0  0  0  0  0  0  0  0
  -26.7315  -32.8681   16.8778 C   0  0  0  0  0  0  0  0  0  0  0  0
  -29.6136  -26.6280   18.0047 C   0  0  0  0  0  0  0  0  0  0  0  0
  -27.3467  -25.1357   19.1790 C   0  0  0  0  0  0  0  0  0  0  0  0
  -25.9412  -31.5668   16.9891 C   0  0  0  0  0  0  0  0  0  0  0  0
  -29.5945  -12.2054   18.3529 C   0  0  0  0  0  0  0  0  0  0  0  0
  -26.0831  -30.9740   18.3874 C   0  0  0  0  0  0  0  0  0  0  0  0
  -28.1436  -11.9587   18.7725 C   0  0  0  0  0  0  0  0  0  0  0  0
  -30.5034  -12.4313   19.5598 C   0  0  0  0  0  0  0  0  0  0  0  0
  -28.6024  -13.2288   20.9088 C   0  0  0  0  0  0  0  0  0  0  0  0
  -27.5457  -30.6316   18.6956 C   0  0  1  0  0  0  0  0  0  0  0  0
  -28.1651  -27.0126   17.7196 C   0  0  1  0  0  0  0  0  0  0  0  0
  -27.6371  -13.0603   19.7241 C   0  0  2  0  0  0  0  0  0  0  0  0
  -34.2328  -17.2639   23.5835 C   0  0  0  0  0  0  0  0  0  0  0  0
  -24.3018  -20.7140   15.3945 C   0  0  0  0  0  0  0  0  0  0  0  0
  -23.6628  -26.4688   18.6109 C   0  0  0  0  0  0  0  0  0  0  0  0
  -22.6985  -24.2469   17.9770 C   0  0  0  0  0  0  0  0  0  0  0  0
  -23.2548  -25.9140   16.2067 C   0  0  0  0  0  0  0  0  0  0  0  0
  -28.0768  -21.0807   15.6967 C   0  0  0  0  0  0  0  0  0  0  0  0
  -29.8473  -19.2664   24.8406 C   0  0  0  0  0  0  0  0  0  0  0  0
  -29.4867  -22.5426   22.9818 C   0  0  0  0  0  0  0  0  0  1  0  0
  -25.1259  -24.7128   17.4101 C   0  0  1  0  0  0  0  0  0  0  0  0
  -25.6165  -21.4696   15.5100 C   0  0  2  0  0  0  0  0  0  0  0  0
  -23.7104  -25.3372   17.5648 C   0  0  0  0  0  0  0  0  0  0  0  0
  -25.8033  -11.5263   20.3285 N   0  0  0  0  0  0  0  0  0  0  0  0
  -26.2148  -12.7973   20.1821 N   0  0  0  0  0  0  0  0  0  0  0  0
  -27.2340  -25.9015   17.9266 N   0  0  0  0  0  0  0  0  0  0  0  0
  -29.9628  -13.4913   20.4136 N   0  0  0  0  0  0  0  0  0  0  0  0
  -25.5042  -15.0478   20.3841 N   0  0  0  0  0  0  0  0  0  0  0  0
  -21.8444  -12.6883   21.5817 N   0  0  0  0  0  0  0  0  0  0  0  0
  -30.1170  -15.5859   21.4867 N   0  0  0  0  0  0  0  0  0  0  0  0
  -27.9259  -29.4000   18.0376 N   0  0  0  0  0  0  0  0  0  0  0  0
  -29.4112  -20.3929   24.0482 N   0  0  0  0  0  0  0  0  0  0  0  0
  -25.2068  -23.6569   16.4066 N   0  0  0  0  0  0  0  0  0  0  0  0
  -26.7233  -20.4757   15.6015 N   0  3  0  0  0  0  0  0  0  0  0  0
  -22.6783  -14.8021   21.2732 O   0  0  0  0  0  0  0  0  0  0  0  0
  -27.1407  -27.9120   19.6475 O   0  0  0  0  0  0  0  0  0  0  0  0
  -26.0452  -26.3623   15.9746 O   0  0  0  0  0  0  0  0  0  0  0  0
  -31.3167  -21.7010   24.3061 O   0  0  0  0  0  0  0  0  0  0  0  0
  -25.9641  -22.0001   17.8413 O   0  0  0  0  0  0  0  0  0  0  0  0
  -31.8857  -14.7616   20.2321 O   0  0  0  0  0  0  0  0  0  0  0  0
  -21.4252   -7.1367   21.7821 O   0  0  0  0  0  0  0  0  0  0  0  0
  -30.2999  -23.7020   22.8067 O   0  0  0  0  0  0  0  0  0  1  0  0
  -23.7222   -3.0714   24.7148 F   0  0  0  0  0  0  0  0  0  0  0  0
  -20.3331   -6.3342   24.1917 F   0  0  0  0  0  0  0  0  0  0  0  0
  -28.2537  -17.4571   22.9608 Cl  0  0  0  0  0  0  0  0  0  0  0  0
  1  2  1  0  0  0  0
  1  5  2  0  0  0  0
  2  6  2  0  0  0  0
  3  8  2  0  0  0  0
  3 17  1  0  0  0  0
  4  9  1  0  0  0  0
  4 17  2  0  0  0  0
  5 19  1  0  0  0  0
  6 21  1  0  0  0  0
  7 10  2  0  0  0  0
  7 20  1  0  0  0  0
  8 26  1  0  0  0  0
  9 26  2  0  0  0  0
 10 27  1  0  0  0  0
 11 12  2  0  0  0  0
 11 28  1  0  0  0  0
 12 29  1  0  0  0  0
 13 22  1  0  0  0  0
 13 27  2  0  0  0  0
 14 23  2  0  0  0  0
 14 24  1  0  0  0  0
 15 23  1  0  0  0  0
 15 25  2  0  0  0  0
 16 29  2  0  0  0  0
 16 30  1  0  0  0  0
 17 32  1  0  0  0  0
 18 32  1  0  0  0  0
 18 33  2  0  0  0  0
 18 34  1  0  0  0  0
 19 21  2  0  0  0  0
 19 40  1  0  0  0  0
 20 22  2  0  0  0  0
 20 41  1  0  0  0  0
 21 49  1  0  0  0  0
 22 42  1  0  0  0  0
 23 52  1  0  0  0  0
 24 31  2  0  0  0  0
 24 58  1  0  0  0  0
 25 31  1  0  0  0  0
 25 69  1  0  0  0  0
 26 80  1  0  0  0  0
 27 81  1  0  0  0  0
 28 30  2  0  0  0  0
 28 80  1  0  0  0  0
 29 82  1  0  0  0  0
 30 83  1  0  0  0  0
 31 84  1  0  0  0  0
 32 63  2  0  0  0  0
 33 64  1  0  0  0  0
 33 67  1  0  0  0  0
 34 68  1  0  0  0  0
 34 74  2  0  0  0  0
 35 50  1  0  0  0  0
 35 70  1  0  0  0  0
 35 75  2  0  0  0  0
 36 60  1  0  0  0  0
 36 65  1  0  0  0  0
 36 76  2  0  0  0  0
 37 59  1  0  0  0  0
 37 71  1  0  0  0  0
 37 77  2  0  0  0  0
 38 61  1  0  0  0  0
 38 72  1  0  0  0  0
 38 78  2  0  0  0  0
 39 66  1  0  0  0  0
 39 69  1  0  0  0  0
 39 79  2  0  0  0  0
 40 43  1  0  0  0  0
 41 50  1  0  0  0  0
 42 65  1  0  0  0  0
 43 45  1  0  0  0  0
 44 46  1  0  0  0  0
 44 47  1  0  0  0  0
 45 49  1  0  0  0  0
 46 51  1  0  0  0  0
 47 66  1  0  0  0  0
 48 51  1  0  0  0  0
 48 66  1  0  0  0  0
 49 70  1  0  0  0  0
 50 65  1  0  0  0  0
 51 64  1  0  0  0  0
 53 61  1  0  0  0  0
 54 62  1  0  0  0  0
 55 62  1  0  0  0  0
 56 62  1  0  0  0  0
 57 73  1  0  0  0  0
 58 71  1  0  0  0  0
 59 81  1  0  0  0  0
 60 62  1  0  0  0  0
 60 72  1  0  0  0  0
 61 73  1  0  0  0  0
 63 64  1  0  0  0  0
M  CHG  1  73   1
M  ISO  4  39 100  59 101  69 100  81 101
M  END
> <Batch ID>
0013

> <Smiles>
CNC(C)C(=O)NC(C(=O)N1Cc2cc([101O:1][101CH2:1]C(=O)NCc3cc(C)cc([100NH:0][100C:0](=O)N4CCCC(n5nc(-c6ccc(Oc7ccc(F)cc7F)cc6)c(C(N)=O)c5N)C4)c3Cl)ccc2CC1C(=O)NC1CCCc2ccccc21)C(C)(C)C

> <Shape>
0.224

> <Color>
0.198

> <Negative vol penalty>
0.000

$$$$

  -OEChem-04052315503D

 80 88  0     1  0  0  0  0  0999 V2000
  -21.1269  -27.5298   23.6825 C   0  0  0  0  0  0  0  0  0  0  0  0
  -21.9679  -26.4368   23.8655 C   0  0  0  0  0  0  0  0  0  0  0  0
  -23.0749   -9.8682   19.9458 C   0  0  0  0  0  0  0  0  0  0  0  0
  -23.8306   -9.8839   22.2405 C   0  0  0  0  0  0  0  0  0  0  0  0
  -21.2906  -28.3556   22.5712 C   0  0  0  0  0  0  0  0  0  0  0  0
  -22.9727  -26.1684   22.9366 C   0  0  0  0  0  0  0  0  0  0  0  0
  -28.5206  -23.8421   24.0831 C   0  0  0  0  0  0  0  0  0  0  0  0
  -31.8552  -18.3666   24.1861 C   0  0  0  0  0  0  0  0  0  0  0  0
  -22.3292   -8.7170   20.1992 C   0  0  0  0  0  0  0  0  0  0  0  0
  -23.0848   -8.7328   22.4940 C   0  0  0  0  0  0  0  0  0  0  0  0
  -29.0353  -22.5504   23.9817 C   0  0  0  0  0  0  0  0  0  0  0  0
  -19.8546   -7.9415   23.0940 C   0  0  0  0  0  0  0  0  0  0  0  0
  -32.4613  -17.1388   23.9202 C   0  0  0  0  0  0  0  0  0  0  0  0
  -19.0954   -7.9075   24.2636 C   0  0  0  0  0  0  0  0  0  0  0  0
  -29.9075  -23.0760   21.7949 C   0  0  0  0  0  0  0  0  0  0  0  0
  -20.3331   -5.9717   25.0105 C   0  0  0  0  0  0  0  0  0  0  0  0
  -23.8257  -10.4516   20.9664 C   0  0  0  0  0  0  0  0  0  0  0  0
  -24.1709  -12.9758   20.8363 C   0  0  0  0  0  0  0  0  0  0  0  0
  -22.3040  -28.1028   21.6332 C   0  0  0  0  0  0  0  0  0  0  0  0
  -28.6863  -24.7586   23.0347 C   0  0  0  0  0  0  0  0  0  0  0  0
  -23.1493  -26.9909   21.8109 C   0  0  0  0  0  0  0  0  0  0  0  0
  -29.3962  -24.3795   21.8865 C   0  0  0  0  0  0  0  0  0  0  0  0
  -30.6615  -18.7074   23.5500 C   0  0  0  0  0  0  0  0  0  0  0  0
  -30.6801  -16.5927   22.3819 C   0  0  0  0  0  0  0  0  0  0  0  0
  -22.3341   -8.1493   21.4733 C   0  0  0  0  0  0  0  0  0  0  0  0
  -29.7264  -22.1662   22.8364 C   0  0  0  0  0  0  0  0  0  0  0  0
  -20.8530   -6.9906   22.8825 C   0  0  0  0  0  0  0  0  0  0  0  0
  -19.3347   -6.9226   25.2219 C   0  0  0  0  0  0  0  0  0  0  0  0
  -31.8738  -16.2518   23.0180 C   0  0  0  0  0  0  0  0  0  0  0  0
  -21.0922   -6.0057   23.8408 C   0  0  0  0  0  0  0  0  0  0  0  0
  -30.0740  -17.8205   22.6479 C   0  0  0  0  0  0  0  0  0  0  0  0
  -24.5968  -11.6404   20.7050 C   0  0  0  0  0  0  0  0  0  0  0  0
  -25.2647  -13.7224   20.4718 C   0  0  0  0  0  0  0  0  0  0  0  0
  -22.9003  -13.4950   21.2507 C   0  0  0  0  0  0  0  0  0  0  0  0
  -26.7166  -26.3378   21.1034 C   0  0  0  0  0  0  0  0  0  0  0  0
  -29.4554  -27.7725   20.1222 C   0  0  0  0  0  0  0  0  0  0  0  0
  -32.8505  -27.6266   19.8075 C   0  0  0  0  0  0  0  0  0  0  0  0
  -30.7318  -14.7620   20.6521 C   0  0  0  0  0  0  0  0  0  0  0  0
  -22.4122  -28.9960   20.4228 C   0  0  0  0  0  0  0  0  0  0  0  0
  -28.1482  -26.1566   23.1707 C   0  0  0  0  0  0  0  0  0  0  0  0
  -29.6190  -25.3321   20.7413 C   0  0  0  0  0  0  0  0  0  0  0  0
  -23.7401  -28.8602   19.6823 C   0  0  0  0  0  0  0  0  0  0  0  0
  -29.6187  -12.3395   18.2921 C   0  0  0  0  0  0  0  0  0  0  0  0
  -24.0956  -27.3895   19.4890 C   0  0  0  0  0  0  0  0  0  0  0  0
  -28.1780  -12.0515   18.7202 C   0  0  0  0  0  0  0  0  0  0  0  0
  -30.5319  -12.5723   19.4944 C   0  0  0  0  0  0  0  0  0  0  0  0
  -28.6234  -13.3049   20.8691 C   0  0  0  0  0  0  0  0  0  0  0  0
  -24.2666  -26.6813   20.8384 C   0  0  1  0  0  0  0  0  0  0  0  0
  -27.9310  -26.8465   21.8274 C   0  0  1  0  0  0  0  0  0  0  0  0
  -27.6525  -13.1279   19.6902 C   0  0  2  0  0  0  0  0  0  0  0  0
  -34.8056  -28.9331   18.9311 C   0  0  0  0  0  0  0  0  0  0  0  0
  -28.6927  -26.9971   17.2714 C   0  0  0  0  0  0  0  0  0  0  0  0
  -31.0565  -27.4584   16.5877 C   0  0  0  0  0  0  0  0  0  0  0  0
  -29.6445  -29.2976   17.5075 C   0  0  0  0  0  0  0  0  0  0  0  0
  -34.0921  -27.7894   22.4891 C   0  0  0  0  0  0  0  0  0  0  0  0
  -30.0120  -20.0287   23.8391 C   0  0  0  0  0  0  0  0  0  1  0  0
  -30.4893  -27.4891   19.0592 C   0  0  1  0  0  0  0  0  0  0  0  0
  -33.9373  -28.6320   20.1428 C   0  0  2  0  0  0  0  0  0  0  0  0
  -29.9650  -27.7918   17.6270 C   0  0  0  0  0  0  0  0  0  0  0  0
  -25.8623  -11.5413   20.2894 N   0  0  0  0  0  0  0  0  0  0  0  0
  -26.2410  -12.8238   20.1564 N   0  0  0  0  0  0  0  0  0  0  0  0
  -29.0682  -26.6858   20.9191 N   0  0  0  0  0  0  0  0  0  0  0  0
  -29.9726  -13.6075   20.3664 N   0  0  0  0  0  0  0  0  0  0  0  0
  -25.4769  -15.0533   20.3935 N   0  0  0  0  0  0  0  0  0  0  0  0
  -21.8867  -12.5885   21.5899 N   0  0  0  0  0  0  0  0  0  0  0  0
  -30.0841  -15.6913   21.4654 N   0  0  0  0  0  0  0  0  0  0  0  0
  -25.5504  -27.0075   21.4212 N   0  0  0  0  0  0  0  0  0  0  0  0
  -31.6779  -28.2479   19.4332 N   0  0  0  0  0  0  0  0  0  0  0  0
  -34.8121  -28.1063   21.2288 N   0  3  0  0  0  0  0  0  0  0  0  0
  -22.6655  -14.7261   21.3023 O   0  0  0  0  0  0  0  0  0  0  0  0
  -26.8295  -25.4076   20.3137 O   0  0  0  0  0  0  0  0  0  0  0  0
  -29.0132  -28.9174   20.2457 O   0  0  0  0  0  0  0  0  0  0  0  0
  -33.0255  -26.4116   19.8677 O   0  0  0  0  0  0  0  0  0  0  0  0
  -31.8620  -14.9273   20.1858 O   0  0  0  0  0  0  0  0  0  0  0  0
  -21.6063   -7.0262   21.7211 O   0  0  0  0  0  0  0  0  0  0  0  0
  -30.2293  -20.9058   22.7346 O   0  0  0  0  0  0  0  0  0  1  0  0
  -18.6067   -6.8910   26.3458 F   0  0  0  0  0  0  0  0  0  0  0  0
  -32.4652  -15.0746   22.7697 F   0  0  0  0  0  0  0  0  0  0  0  0
  -22.0508   -5.0901   23.6438 F   0  0  0  0  0  0  0  0  0  0  0  0
  -28.9258  -18.1502   22.0375 F   0  0  0  0  0  0  0  0  0  0  0  0
  1  2  1  0  0  0  0
  1  5  2  0  0  0  0
  2  6  2  0  0  0  0
  3  9  2  0  0  0  0
  3 17  1  0  0  0  0
  4 10  1  0  0  0  0
  4 17  2  0  0  0  0
  5 19  1  0  0  0  0
  6 21  1  0  0  0  0
  7 11  2  0  0  0  0
  7 20  1  0  0  0  0
  8 13  2  0  0  0  0
  8 23  1  0  0  0  0
  9 25  1  0  0  0  0
 10 25  2  0  0  0  0
 11 26  1  0  0  0  0
 12 14  2  0  0  0  0
 12 27  1  0  0  0  0
 13 29  1  0  0  0  0
 14 28  1  0  0  0  0
 15 22  1  0  0  0  0
 15 26  2  0  0  0  0
 16 28  2  0  0  0  0
 16 30  1  0  0  0  0
 17 32  1  0  0  0  0
 18 32  1  0  0  0  0
 18 33  2  0  0  0  0
 18 34  1  0  0  0  0
 19 21  2  0  0  0  0
 19 39  1  0  0  0  0
 20 22  2  0  0  0  0
 20 40  1  0  0  0  0
 21 48  1  0  0  0  0
 22 41  1  0  0  0  0
 23 31  2  0  0  0  0
 23 56  1  0  0  0  0
 24 29  2  0  0  0  0
 24 31  1  0  0  0  0
 24 66  1  0  0  0  0
 25 75  1  0  0  0  0
 26 76  1  0  0  0  0
 27 30  2  0  0  0  0
 27 75  1  0  0  0  0
 28 77  1  0  0  0  0
 29 78  1  0  0  0  0
 30 79  1  0  0  0  0
 31 80  1  0  0  0  0
 32 60  2  0  0  0  0
 33 61  1  0  0  0  0
 33 64  1  0  0  0  0
 34 65  1  0  0  0  0
 34 70  2  0  0  0  0
 35 49  1  0  0  0  0
 35 67  1  0  0  0  0
 35 71  2  0  0  0  0
 36 57  1  0  0  0  0
 36 62  1  0  0  0  0
 36 72  2  0  0  0  0
 37 58  1  0  0  0  0
 37 68  1  0  0  0  0
 37 73  2  0  0  0  0
 38 63  1  0  0  0  0
 38 66  1  0  0  0  0
 38 74  2  0  0  0  0
 39 42  1  0  0  0  0
 40 49  1  0  0  0  0
 41 62  1  0  0  0  0
 42 44  1  0  0  0  0
 43 45  1  0  0  0  0
 43 46  1  0  0  0  0
 44 48  1  0  0  0  0
 45 50  1  0  0  0  0
 46 63  1  0  0  0  0
 47 50  1  0  0  0  0
 47 63  1  0  0  0  0
 48 67  1  0  0  0  0
 49 62  1  0  0  0  0
 50 61  1  0  0  0  0
 51 58  1  0  0  0  0
 52 59  1  0  0  0  0
 53 59  1  0  0  0  0
 54 59  1  0  0  0  0
 55 69  1  0  0  0  0
 56 76  1  0  0  0  0
 57 59  1  0  0  0  0
 57 68  1  0  0  0  0
 58 69  1  0  0  0  0
 60 61  1  0  0  0  0
M  CHG  1  69   1
M  ISO  4  38 100  56 101  66 100  76 101
M  END
> <Batch ID>
0013

> <Smiles>
CNC(C)C(=O)NC(C(=O)N1Cc2cc([101O:1][101CH2:1]c3ccc(F)c([100NH:0][100C:0](=O)N4CCCC(n5nc(-c6ccc(Oc7ccc(F)cc7F)cc6)c(C(N)=O)c5N)C4)c3F)ccc2CC1C(=O)NC1CCCc2ccccc21)C(C)(C)C

> <Shape>
0.278

> <Color>
0.201

> <Negative vol penalty>
0.000

$$$$

  -OEChem-04052315503D

 84 92  0     1  0  0  0  0  0999 V2000
  -17.6565  -22.8430   20.4605 C   0  0  0  0  0  0  0  0  0  0  0  0
  -18.8919  -22.7223   19.8323 C   0  0  0  0  0  0  0  0  0  0  0  0
  -25.5868  -13.3189   22.0354 C   0  0  0  0  0  0  0  0  0  0  0  0
  -25.6344  -14.0425   19.7308 C   0  0  0  0  0  0  0  0  0  0  0  0
  -17.2257  -24.0886   20.9153 C   0  0  0  0  0  0  0  0  0  0  0  0
  -19.6969  -23.8475   19.6576 C   0  0  0  0  0  0  0  0  0  0  0  0
  -25.8146  -24.0613   19.8387 C   0  0  0  0  0  0  0  0  0  0  0  0
  -24.5563  -12.4283   21.7346 C   0  0  0  0  0  0  0  0  0  0  0  0
  -24.6039  -13.1518   19.4299 C   0  0  0  0  0  0  0  0  0  0  0  0
  -26.7832  -24.0641   18.8359 C   0  0  0  0  0  0  0  0  0  0  0  0
  -24.2354   -9.3824   20.3019 C   0  0  0  0  0  0  0  0  0  0  0  0
  -24.3287   -8.0872   20.8111 C   0  0  0  0  0  0  0  0  0  0  0  0
  -26.8772  -26.4722   18.9417 C   0  0  0  0  0  0  0  0  0  0  0  0
  -33.0973  -23.1041   18.1015 C   0  0  0  0  0  0  0  0  0  0  0  0
  -31.2421  -23.0696   19.6488 C   0  0  0  0  0  0  0  0  0  0  0  0
  -22.2534   -8.4075   22.0060 C   0  0  0  0  0  0  0  0  0  0  0  0
  -26.1258  -14.1260   21.0335 C   0  0  0  0  0  0  0  0  0  0  0  0
  -28.5740  -14.7945   21.2930 C   0  0  0  0  0  0  0  0  0  0  0  0
  -18.0300  -25.2279   20.7547 C   0  0  0  0  0  0  0  0  0  0  0  0
  -25.3614  -25.2666   20.3939 C   0  0  0  0  0  0  0  0  0  0  0  0
  -19.2759  -25.1097   20.1095 C   0  0  0  0  0  0  0  0  0  0  0  0
  -25.9047  -26.4819   19.9533 C   0  0  0  0  0  0  0  0  0  0  0  0
  -33.2659  -21.7302   18.2729 C   0  0  0  0  0  0  0  0  0  0  0  0
  -32.4226  -21.0259   19.1322 C   0  0  0  0  0  0  0  0  0  0  0  0
  -32.0854  -23.7739   18.7895 C   0  0  0  0  0  0  0  0  0  0  0  0
  -31.4107  -21.6956   19.8202 C   0  0  0  0  0  0  0  0  0  0  0  0
  -24.0649  -12.3447   20.4318 C   0  0  0  0  0  0  0  0  0  0  0  0
  -27.3125  -25.2698   18.3852 C   0  0  0  0  0  0  0  0  0  0  0  0
  -23.1511  -10.1902   20.6448 C   0  0  0  0  0  0  0  0  0  0  0  0
  -23.3377   -7.5997   21.6631 C   0  0  0  0  0  0  0  0  0  0  0  0
  -22.1601   -9.7027   21.4968 C   0  0  0  0  0  0  0  0  0  0  0  0
  -27.1899  -15.0466   21.3438 C   0  0  0  0  0  0  0  0  0  0  0  0
  -29.1532  -15.9795   21.6762 C   0  0  0  0  0  0  0  0  0  0  0  0
  -29.2735  -13.5963   20.9317 C   0  0  0  0  0  0  0  0  0  0  0  0
  -22.5564  -26.7548   20.5389 C   0  0  0  0  0  0  0  0  0  0  0  0
  -31.1283  -25.5994   17.6825 C   0  0  0  0  0  0  0  0  0  0  0  0
  -24.1824  -28.8031   22.4580 C   0  0  0  0  0  0  0  0  0  0  0  0
  -27.1836  -30.1282   23.3981 C   0  0  0  0  0  0  0  0  0  0  0  0
  -29.4944  -21.5323   21.4473 C   0  0  0  0  0  0  0  0  0  0  0  0
  -17.5012  -26.5613   21.2205 C   0  0  0  0  0  0  0  0  0  0  0  0
  -24.3355  -25.2451   21.4936 C   0  0  0  0  0  0  0  0  0  0  0  0
  -25.4667  -27.8021   20.5309 C   0  0  0  0  0  0  0  0  0  0  0  0
  -18.5774  -27.6383   21.3315 C   0  0  0  0  0  0  0  0  0  0  0  0
  -27.1057  -20.1457   23.6941 C   0  0  0  0  0  0  0  0  0  0  0  0
  -19.4595  -27.6418   20.0871 C   0  0  0  0  0  0  0  0  0  0  0  0
  -27.0285  -18.6748   23.2788 C   0  0  0  0  0  0  0  0  0  0  0  0
  -27.2868  -21.0666   22.4888 C   0  0  0  0  0  0  0  0  0  0  0  0
  -28.3331  -19.2516   21.1926 C   0  0  0  0  0  0  0  0  0  0  0  0
  -20.1884  -26.3026   19.9237 C   0  0  1  0  0  0  0  0  0  0  0  0
  -23.5745  -26.5606   21.6267 C   0  0  1  0  0  0  0  0  0  0  0  0
  -28.2158  -18.2803   22.3786 C   0  0  2  0  0  0  0  0  0  0  0  0
  -34.3572  -21.0373   17.5243 C   0  0  0  0  0  0  0  0  0  0  0  0
  -32.6074  -19.5517   19.3128 C   0  0  0  0  0  0  0  0  0  0  0  0
  -30.8625  -27.0609   17.3964 C   0  0  0  0  0  0  0  0  0  0  0  0
  -28.1903  -31.8091   24.9660 C   0  0  0  0  0  0  0  0  0  0  0  0
  -23.2259  -31.0634   20.6453 C   0  0  0  0  0  0  0  0  0  0  0  0
  -24.9848  -32.5279   21.6600 C   0  0  0  0  0  0  0  0  0  0  0  0
  -23.1678  -31.5907   23.0892 C   0  0  0  0  0  0  0  0  0  0  0  0
  -28.7817  -28.0552   24.7792 C   0  0  0  0  0  0  0  0  0  0  0  0
  -30.4702  -24.5748   16.7737 C   0  0  0  0  0  0  0  0  0  0  0  0
  -29.1236  -24.1436   17.3327 C   0  0  0  0  0  0  0  0  0  1  0  0
  -24.9910  -30.0591   22.2395 C   0  0  1  0  0  0  0  0  0  0  0  0
  -27.8013  -30.3525   24.7665 C   0  0  2  0  0  0  0  0  0  0  0  0
  -24.0994  -31.2857   21.8961 C   0  0  0  0  0  0  0  0  0  0  0  0
  -26.9068  -16.2938   21.7291 N   0  0  0  0  0  0  0  0  0  0  0  0
  -31.9159  -25.1562   18.6170 N   0  0  0  0  0  0  0  0  0  0  0  0
  -28.1210  -16.8359   21.9239 N   0  0  0  0  0  0  0  0  0  0  0  0
  -24.4567  -27.7291   21.5996 N   0  0  0  0  0  0  0  0  0  0  0  0
  -28.4322  -20.6345   21.6849 N   0  0  0  0  0  0  0  0  0  0  0  0
  -30.4396  -16.3620   21.8220 N   0  0  0  0  0  0  0  0  0  0  0  0
  -28.5244  -12.4704   20.5635 N   0  0  0  0  0  0  0  0  0  0  0  0
  -30.5429  -20.9997   20.6979 N   0  0  0  0  0  0  0  0  0  0  0  0
  -21.3137  -26.2257   20.8304 N   0  0  0  0  0  0  0  0  0  0  0  0
  -25.8090  -30.2310   23.4352 N   0  0  0  0  0  0  0  0  0  0  0  0
  -29.0226  -29.5137   24.9272 N   0  3  0  0  0  0  0  0  0  0  0  0
  -30.5255  -13.5211   20.9510 O   0  0  0  0  0  0  0  0  0  0  0  0
  -22.8744  -27.3426   19.5117 O   0  0  0  0  0  0  0  0  0  0  0  0
  -23.3434  -28.7737   23.3619 O   0  0  0  0  0  0  0  0  0  0  0  0
  -27.8536  -29.8897   22.3957 O   0  0  0  0  0  0  0  0  0  0  0  0
  -29.4877  -22.6799   21.9000 O   0  0  0  0  0  0  0  0  0  0  0  0
  -23.0595  -11.4756   20.1378 O   0  0  0  0  0  0  0  0  0  0  0  0
  -28.2576  -25.2754   17.4060 O   0  0  0  0  0  0  0  0  0  1  0  0
  -23.4266   -6.3553   22.1508 F   0  0  0  0  0  0  0  0  0  0  0  0
  -21.1155  -10.4737   21.8288 F   0  0  0  0  0  0  0  0  0  0  0  0
  1  2  1  0  0  0  0
  1  5  2  0  0  0  0
  2  6  2  0  0  0  0
  3  8  2  0  0  0  0
  3 17  1  0  0  0  0
  4  9  1  0  0  0  0
  4 17  2  0  0  0  0
  5 19  1  0  0  0  0
  6 21  1  0  0  0  0
  7 10  2  0  0  0  0
  7 20  1  0  0  0  0
  8 27  1  0  0  0  0
  9 27  2  0  0  0  0
 10 28  1  0  0  0  0
 11 12  2  0  0  0  0
 11 29  1  0  0  0  0
 12 30  1  0  0  0  0
 13 22  1  0  0  0  0
 13 28  2  0  0  0  0
 14 23  2  0  0  0  0
 14 25  1  0  0  0  0
 15 25  2  0  0  0  0
 15 26  1  0  0  0  0
 16 30  2  0  0  0  0
 16 31  1  0  0  0  0
 17 32  1  0  0  0  0
 18 32  1  0  0  0  0
 18 33  2  0  0  0  0
 18 34  1  0  0  0  0
 19 21  2  0  0  0  0
 19 40  1  0  0  0  0
 20 22  2  0  0  0  0
 20 41  1  0  0  0  0
 21 49  1  0  0  0  0
 22 42  1  0  0  0  0
 23 24  1  0  0  0  0
 23 52  1  0  0  0  0
 24 26  2  0  0  0  0
 24 53  1  0  0  0  0
 25 66  1  0  0  0  0
 26 72  1  0  0  0  0
 27 81  1  0  0  0  0
 28 82  1  0  0  0  0
 29 31  2  0  0  0  0
 29 81  1  0  0  0  0
 30 83  1  0  0  0  0
 31 84  1  0  0  0  0
 32 65  2  0  0  0  0
 33 67  1  0  0  0  0
 33 70  1  0  0  0  0
 34 71  1  0  0  0  0
 34 76  2  0  0  0  0
 35 50  1  0  0  0  0
 35 73  1  0  0  0  0
 35 77  2  0  0  0  0
 36 54  1  0  0  0  0
 36 60  1  0  0  0  0
 36 66  2  0  0  0  0
 37 62  1  0  0  0  0
 37 68  1  0  0  0  0
 37 78  2  0  0  0  0
 38 63  1  0  0  0  0
 38 74  1  0  0  0  0
 38 79  2  0  0  0  0
 39 69  1  0  0  0  0
 39 72  1  0  0  0  0
 39 80  2  0  0  0  0
 40 43  1  0  0  0  0
 41 50  1  0  0  0  0
 42 68  1  0  0  0  0
 43 45  1  0  0  0  0
 44 46  1  0  0  0  0
 44 47  1  0  0  0  0
 45 49  1  0  0  0  0
 46 51  1  0  0  0  0
 47 69  1  0  0  0  0
 48 51  1  0  0  0  0
 48 69  1  0  0  0  0
 49 73  1  0  0  0  0
 50 68  1  0  0  0  0
 51 67  1  0  0  0  0
 55 63  1  0  0  0  0
 56 64  1  0  0  0  0
 57 64  1  0  0  0  0
 58 64  1  0  0  0  0
 59 75  1  0  0  0  0
 60 61  1  0  0  0  0
 61 82  1  0  0  0  0
 62 64  1  0  0  0  0
 62 74  1  0  0  0  0
 63 75  1  0  0  0  0
 65 67  1  0  0  0  0
M  CHG  1  75   1
M  ISO  4  39 100  61 101  72 100  82 101
M  END
> <Batch ID>
0013

> <Smiles>
CNC(C)C(=O)NC(C(=O)N1Cc2cc([101O:1][101CH2:1]C=C(C)Nc3cc(C)c(C)c([100NH:0][100C:0](=O)N4CCCC(n5nc(-c6ccc(Oc7ccc(F)cc7F)cc6)c(C(N)=O)c5N)C4)c3)ccc2CC1C(=O)NC1CCCc2ccccc21)C(C)(C)C

> <Shape>
0.258

> <Color>
0.052

> <Negative vol penalty>
0.000

$$$$

  -OEChem-04052315503D

 83 91  0     1  0  0  0  0  0999 V2000
  -28.7188  -25.8587   15.7913 C   0  0  0  0  0  0  0  0  0  0  0  0
  -27.5108  -25.8773   16.4811 C   0  0  0  0  0  0  0  0  0  0  0  0
  -25.3210  -12.1494   20.5827 C   0  0  0  0  0  0  0  0  0  0  0  0
  -25.5282  -13.2589   22.7188 C   0  0  0  0  0  0  0  0  0  0  0  0
  -29.8720  -26.3598   16.3936 C   0  0  0  0  0  0  0  0  0  0  0  0
  -27.4557  -26.3960   17.7743 C   0  0  0  0  0  0  0  0  0  0  0  0
  -23.4707  -29.4406   18.4780 C   0  0  0  0  0  0  0  0  0  0  0  0
  -25.9743  -11.0310   21.1002 C   0  0  0  0  0  0  0  0  0  0  0  0
  -26.1814  -12.1404   23.2364 C   0  0  0  0  0  0  0  0  0  0  0  0
  -22.2320  -28.8324   18.6768 C   0  0  0  0  0  0  0  0  0  0  0  0
  -25.2077   -8.3821   23.0569 C   0  0  0  0  0  0  0  0  0  0  0  0
  -24.6672   -7.1276   22.7749 C   0  0  0  0  0  0  0  0  0  0  0  0
  -22.4495  -29.1805   21.0540 C   0  0  0  0  0  0  0  0  0  0  0  0
  -20.9682  -23.9153   19.5361 C   0  0  0  0  0  0  0  0  0  0  0  0
  -21.3693  -23.8141   21.9165 C   0  0  0  0  0  0  0  0  0  0  0  0
  -26.7241   -6.4873   21.6811 C   0  0  0  0  0  0  0  0  0  0  0  0
  -25.0980  -13.2634   21.3920 C   0  0  0  0  0  0  0  0  0  0  0  0
  -23.0389  -14.6726   20.8608 C   0  0  0  0  0  0  0  0  0  0  0  0
  -29.8290  -26.8938   17.6912 C   0  0  0  0  0  0  0  0  0  0  0  0
  -24.2143  -29.9143   19.5684 C   0  0  0  0  0  0  0  0  0  0  0  0
  -28.6097  -26.9035   18.3951 C   0  0  0  0  0  0  0  0  0  0  0  0
  -23.6962  -29.7966   20.8660 C   0  0  0  0  0  0  0  0  0  0  0  0
  -21.8414  -22.8447   19.3435 C   0  0  0  0  0  0  0  0  0  0  0  0
  -22.2425  -22.7435   21.7239 C   0  0  0  0  0  0  0  0  0  0  0  0
  -20.7322  -24.4000   20.8226 C   0  0  0  0  0  0  0  0  0  0  0  0
  -22.4785  -22.2588   20.4373 C   0  0  0  0  0  0  0  0  0  0  0  0
  -26.4045  -11.0264   22.4270 C   0  0  0  0  0  0  0  0  0  0  0  0
  -21.7225  -28.6997   19.9652 C   0  0  0  0  0  0  0  0  0  0  0  0
  -26.5063   -8.6894   22.6510 C   0  0  0  0  0  0  0  0  0  0  0  0
  -25.4254   -6.1802   22.0870 C   0  0  0  0  0  0  0  0  0  0  0  0
  -27.2645   -7.7419   21.9631 C   0  0  0  0  0  0  0  0  0  0  0  0
  -24.4237  -14.4193   20.8578 C   0  0  0  0  0  0  0  0  0  0  0  0
  -22.9115  -15.8917   20.2410 C   0  0  0  0  0  0  0  0  0  0  0  0
  -21.9639  -13.8771   21.3778 C   0  0  0  0  0  0  0  0  0  0  0  0
  -27.0581  -29.2284   20.8118 C   0  0  0  0  0  0  0  0  0  0  0  0
  -26.3986  -31.7630   22.7257 C   0  0  0  0  0  0  0  0  0  0  0  0
  -24.0456  -33.7848   24.1479 C   0  0  0  0  0  0  0  0  0  0  0  0
  -24.5356  -21.1631   19.4812 C   0  0  0  0  0  0  0  0  0  0  0  0
  -31.1112  -27.3806   18.3187 C   0  0  0  0  0  0  0  0  0  0  0  0
  -25.5366  -30.5920   19.3347 C   0  0  0  0  0  0  0  0  0  0  0  0
  -24.4458  -30.3069   22.0685 C   0  0  0  0  0  0  0  0  0  0  0  0
  -30.8927  -28.2558   19.5502 C   0  0  0  0  0  0  0  0  0  0  0  0
  -26.2893  -18.6489   17.6700 C   0  0  0  0  0  0  0  0  0  0  0  0
  -29.8661  -27.6195   20.4819 C   0  0  0  0  0  0  0  0  0  0  0  0
  -25.8463  -17.3452   18.3381 C   0  0  0  0  0  0  0  0  0  0  0  0
  -26.4411  -19.7822   18.6830 C   0  0  0  0  0  0  0  0  0  0  0  0
  -24.8248  -18.7113   20.2029 C   0  0  0  0  0  0  0  0  0  0  0  0
  -28.5046  -27.4806   19.7901 C   0  0  1  0  0  0  0  0  0  0  0  0
  -26.4416  -30.5758   20.5628 C   0  0  1  0  0  0  0  0  0  0  0  0
  -24.5955  -17.5572   19.2134 C   0  0  2  0  0  0  0  0  0  0  0  0
  -22.0742  -22.3483   17.9532 C   0  0  0  0  0  0  0  0  0  0  0  0
  -22.9110  -22.1371   22.9151 C   0  0  0  0  0  0  0  0  0  0  0  0
  -23.8091  -35.7467   25.6946 C   0  0  0  0  0  0  0  0  0  0  0  0
  -26.9501  -29.9444   25.1129 C   0  0  0  0  0  0  0  0  0  0  0  0
  -25.8016  -31.6253   26.5701 C   0  0  0  0  0  0  0  0  0  0  0  0
  -27.8712  -32.2592   25.3302 C   0  0  0  0  0  0  0  0  0  0  0  0
  -19.6067  -25.9847   22.3660 C   0  0  0  0  0  0  0  0  0  0  0  0
  -22.7713  -35.4350   22.0474 C   0  0  0  0  0  0  0  0  0  0  0  0
  -19.1891  -26.1137   19.9048 C   0  0  0  0  0  0  0  0  0  0  0  0
  -20.1237  -27.1014   19.2267 C   0  0  0  0  0  0  0  0  0  1  0  0
  -25.7098  -31.9472   24.0563 C   0  0  1  0  0  0  0  0  0  0  0  0
  -23.9440  -35.2961   24.2484 C   0  0  2  0  0  0  0  0  0  0  0  0
  -26.5697  -31.4326   25.2451 C   0  0  0  0  0  0  0  0  0  0  0  0
  -25.1258  -15.3987   20.2817 N   0  0  0  0  0  0  0  0  0  0  0  0
  -24.1783  -16.2792   19.9168 N   0  0  0  0  0  0  0  0  0  0  0  0
  -25.7372  -30.9563   21.7889 N   0  0  0  0  0  0  0  0  0  0  0  0
  -25.2164  -19.9273   19.4729 N   0  0  0  0  0  0  0  0  0  0  0  0
  -21.8405  -16.6591   19.9471 N   0  0  0  0  0  0  0  0  0  0  0  0
  -22.2713  -12.6513   21.9837 N   0  0  0  0  0  0  0  0  0  0  0  0
  -23.3665  -21.1722   20.2412 N   0  0  0  0  0  0  0  0  0  0  0  0
  -27.8202  -28.7555   19.7606 N   0  0  0  0  0  0  0  0  0  0  0  0
  -25.3575  -33.3604   24.1414 N   0  0  0  0  0  0  0  0  0  0  0  0
  -19.8551  -25.4753   21.0170 N   0  0  3  0  0  0  0  0  0  0  0  0
  -22.7584  -35.7870   23.4906 N   0  3  0  0  0  0  0  0  0  0  0  0
  -20.7648  -14.2349   21.2898 O   0  0  0  0  0  0  0  0  0  0  0  0
  -26.8583  -28.6605   21.8791 O   0  0  0  0  0  0  0  0  0  0  0  0
  -27.4801  -32.3203   22.5223 O   0  0  0  0  0  0  0  0  0  0  0  0
  -23.0597  -33.0536   24.0853 O   0  0  0  0  0  0  0  0  0  0  0  0
  -24.9439  -22.1333   18.8378 O   0  0  0  0  0  0  0  0  0  0  0  0
  -27.0418   -9.9351   22.9324 O   0  0  0  0  0  0  0  0  0  0  0  0
  -20.5140  -28.1058   20.1622 O   0  0  0  0  0  0  0  0  0  1  0  0
  -24.9068   -4.9749   21.8176 F   0  0  0  0  0  0  0  0  0  0  0  0
  -28.5132   -8.0309   21.5716 F   0  0  0  0  0  0  0  0  0  0  0  0
  1  2  1  0  0  0  0
  1  5  2  0  0  0  0
  2  6  2  0  0  0  0
  3  8  2  0  0  0  0
  3 17  1  0  0  0  0
  4  9  1  0  0  0  0
  4 17  2  0  0  0  0
  5 19  1  0  0  0  0
  6 21  1  0  0  0  0
  7 10  2  0  0  0  0
  7 20  1  0  0  0  0
  8 27  1  0  0  0  0
  9 27  2  0  0  0  0
 10 28  1  0  0  0  0
 11 12  2  0  0  0  0
 11 29  1  0  0  0  0
 12 30  1  0  0  0  0
 13 22  1  0  0  0  0
 13 28  2  0  0  0  0
 14 23  2  0  0  0  0
 14 25  1  0  0  0  0
 15 24  1  0  0  0  0
 15 25  2  0  0  0  0
 16 30  2  0  0  0  0
 16 31  1  0  0  0  0
 17 32  1  0  0  0  0
 18 32  1  0  0  0  0
 18 33  2  0  0  0  0
 18 34  1  0  0  0  0
 19 21  2  0  0  0  0
 19 39  1  0  0  0  0
 20 22  2  0  0  0  0
 20 40  1  0  0  0  0
 21 48  1  0  0  0  0
 22 41  1  0  0  0  0
 23 26  1  0  0  0  0
 23 51  1  0  0  0  0
 24 26  2  0  0  0  0
 24 52  1  0  0  0  0
 25 73  1  0  0  0  0
 26 70  1  0  0  0  0
 27 80  1  0  0  0  0
 28 81  1  0  0  0  0
 29 31  2  0  0  0  0
 29 80  1  0  0  0  0
 30 82  1  0  0  0  0
 31 83  1  0  0  0  0
 32 64  2  0  0  0  0
 33 65  1  0  0  0  0
 33 68  1  0  0  0  0
 34 69  1  0  0  0  0
 34 75  2  0  0  0  0
 35 49  1  0  0  0  0
 35 71  1  0  0  0  0
 35 76  2  0  0  0  0
 36 61  1  0  0  0  0
 36 66  1  0  0  0  0
 36 77  2  0  0  0  0
 37 62  1  0  0  0  0
 37 72  1  0  0  0  0
 37 78  2  0  0  0  0
 38 67  1  0  0  0  0
 38 70  1  0  0  0  0
 38 79  2  0  0  0  0
 39 42  1  0  0  0  0
 40 49  1  0  0  0  0
 41 66  1  0  0  0  0
 42 44  1  0  0  0  0
 43 45  1  0  0  0  0
 43 46  1  0  0  0  0
 44 48  1  0  0  0  0
 45 50  1  0  0  0  0
 46 67  1  0  0  0  0
 47 50  1  0  0  0  0
 47 67  1  0  0  0  0
 48 71  1  0  0  0  0
 49 66  1  0  0  0  0
 50 65  1  0  0  0  0
 53 62  1  0  0  0  0
 54 63  1  0  0  0  0
 55 63  1  0  0  0  0
 56 63  1  0  0  0  0
 57 73  1  0  0  0  0
 58 74  1  0  0  0  0
 59 60  1  0  0  0  0
 59 73  1  0  0  0  0
 60 81  1  0  0  0  0
 61 63  1  0  0  0  0
 61 72  1  0  0  0  0
 62 74  1  0  0  0  0
 64 65  1  0  0  0  0
M  CHG  1  74   1
M  ISO  4  38 100  60 101  70 100  81 101
M  END
> <Batch ID>
0013

> <Smiles>
CNC(C)C(=O)NC(C(=O)N1Cc2cc([101O:1][101CH2:1]CN(C)c3cc(C)c([100NH:0][100C:0](=O)N4CCCC(n5nc(-c6ccc(Oc7ccc(F)cc7F)cc6)c(C(N)=O)c5N)C4)c(C)c3)ccc2CC1C(=O)NC1CCCc2ccccc21)C(C)(C)C

> <Shape>
0.225

> <Color>
0.096

> <Negative vol penalty>
0.000

$$$$

  -OEChem-04052315503D

 83 91  0     1  0  0  0  0  0999 V2000
  -23.9379   -3.2217   23.6703 C   0  0  0  0  0  0  0  0  0  0  0  0
  -25.0007   -4.1095   23.5366 C   0  0  0  0  0  0  0  0  0  0  0  0
  -23.2831   -9.7984   19.9082 C   0  0  0  0  0  0  0  0  0  0  0  0
  -23.7164   -9.9401   22.2808 C   0  0  0  0  0  0  0  0  0  0  0  0
  -23.0086   -3.3980   24.6946 C   0  0  0  0  0  0  0  0  0  0  0  0
  -25.1340   -5.1748   24.4264 C   0  0  0  0  0  0  0  0  0  0  0  0
  -30.1354   -9.1553   27.6602 C   0  0  0  0  0  0  0  0  0  0  0  0
  -22.5501   -8.6293   20.1118 C   0  0  0  0  0  0  0  0  0  0  0  0
  -22.9834   -8.7709   22.4845 C   0  0  0  0  0  0  0  0  0  0  0  0
  -30.4886  -10.4895   27.8577 C   0  0  0  0  0  0  0  0  0  0  0  0
  -20.8665   -5.4095   19.9648 C   0  0  0  0  0  0  0  0  0  0  0  0
  -21.0934   -4.3407   19.0977 C   0  0  0  0  0  0  0  0  0  0  0  0
  -28.8672  -10.6490   29.6367 C   0  0  0  0  0  0  0  0  0  0  0  0
  -30.7004  -14.5329   24.7625 C   0  0  0  0  0  0  0  0  0  0  0  0
  -23.4111   -4.2813   19.7775 C   0  0  0  0  0  0  0  0  0  0  0  0
  -33.4149  -14.2566   24.7366 C   0  0  0  0  0  0  0  0  0  0  0  0
  -23.8663  -10.4538   20.9927 C   0  0  0  0  0  0  0  0  0  0  0  0
  -24.1381  -12.9824   20.7930 C   0  0  0  0  0  0  0  0  0  0  0  0
  -23.1360   -4.4603   25.6033 C   0  0  0  0  0  0  0  0  0  0  0  0
  -29.1362   -8.5601   28.4435 C   0  0  0  0  0  0  0  0  0  0  0  0
  -24.2047   -5.3662   25.4630 C   0  0  0  0  0  0  0  0  0  0  0  0
  -28.5051   -9.3064   29.4489 C   0  0  0  0  0  0  0  0  0  0  0  0
  -31.4416  -14.9763   25.8522 C   0  0  0  0  0  0  0  0  0  0  0  0
  -22.4002   -8.1156   21.4000 C   0  0  0  0  0  0  0  0  0  0  0  0
  -29.8524  -11.2374   28.8441 C   0  0  0  0  0  0  0  0  0  0  0  0
  -21.9119   -5.9142   20.7382 C   0  0  0  0  0  0  0  0  0  0  0  0
  -22.3657   -3.7765   19.0041 C   0  0  0  0  0  0  0  0  0  0  0  0
  -23.1842   -5.3501   20.6445 C   0  0  0  0  0  0  0  0  0  0  0  0
  -32.8252  -14.8392   25.8468 C   0  0  0  0  0  0  0  0  0  0  0  0
  -24.6240  -11.6613   20.7830 C   0  0  0  0  0  0  0  0  0  0  0  0
  -31.3852  -13.9642   23.7007 C   0  0  0  0  0  0  0  0  0  0  0  0
  -25.2448  -13.7573   20.5455 C   0  0  0  0  0  0  0  0  0  0  0  0
  -22.8054  -13.4660   21.0071 C   0  0  0  0  0  0  0  0  0  0  0  0
  -26.2985   -7.2570   27.8491 C   0  0  0  0  0  0  0  0  0  0  0  0
  -26.4207   -6.5002   31.0011 C   0  0  0  0  0  0  0  0  0  0  0  0
  -30.3095  -14.7427   28.0287 C   0  0  0  0  0  0  0  0  0  0  0  0
  -27.6823   -7.1829   34.0977 C   0  0  0  0  0  0  0  0  0  0  0  0
  -31.0950  -12.9189   21.4271 C   0  0  0  0  0  0  0  0  0  0  0  0
  -22.0801   -4.6376   26.6656 C   0  0  0  0  0  0  0  0  0  0  0  0
  -28.7856   -7.1122   28.2359 C   0  0  0  0  0  0  0  0  0  0  0  0
  -27.4402   -8.7084   30.3303 C   0  0  0  0  0  0  0  0  0  0  0  0
  -22.5030   -5.5741   27.7945 C   0  0  0  0  0  0  0  0  0  0  0  0
  -29.4882  -13.6264   18.3295 C   0  0  0  0  0  0  0  0  0  0  0  0
  -23.1323   -6.8428   27.2280 C   0  0  0  0  0  0  0  0  0  0  0  0
  -28.0134  -13.3288   18.6099 C   0  0  0  0  0  0  0  0  0  0  0  0
  -30.4117  -12.6481   19.0533 C   0  0  0  0  0  0  0  0  0  0  0  0
  -28.7035  -12.2295   20.7784 C   0  0  0  0  0  0  0  0  0  0  0  0
  -24.3972   -6.5195   26.4236 C   0  0  1  0  0  0  0  0  0  0  0  0
  -27.3934   -6.7552   28.7475 C   0  0  1  0  0  0  0  0  0  0  0  0
  -27.7364  -13.2288   20.1227 C   0  0  2  0  0  0  0  0  0  0  0  0
  -27.5682   -6.4156   36.4843 C   0  0  0  0  0  0  0  0  0  0  0  0
  -23.7002   -7.8486   31.3020 C   0  0  0  0  0  0  0  0  0  0  0  0
  -24.0772   -7.8998   33.7766 C   0  0  0  0  0  0  0  0  0  0  0  0
  -23.9538   -5.7142   32.5805 C   0  0  0  0  0  0  0  0  0  0  0  0
  -30.5136  -17.0257   26.9786 C   0  0  0  0  0  0  0  0  0  0  0  0
  -30.5683   -6.5294   34.1471 C   0  0  0  0  0  0  0  0  0  0  0  0
  -30.6576  -13.2667   27.9009 C   0  0  0  0  0  0  0  0  0  1  0  0
  -25.9934   -7.1778   32.2806 C   0  0  1  0  0  0  0  0  0  0  0  0
  -28.2965   -6.2841   35.1557 C   0  0  2  0  0  0  0  0  0  0  0  0
  -24.4498   -7.1723   32.4672 C   0  0  0  0  0  0  0  0  0  0  0  0
  -32.7281  -13.8139   23.6595 N   0  0  0  0  0  0  0  0  0  0  0  0
  -25.9372  -11.5967   20.5475 N   0  0  0  0  0  0  0  0  0  0  0  0
  -26.2858  -12.8870   20.4073 N   0  0  0  0  0  0  0  0  0  0  0  0
  -27.1280   -7.2909   30.0843 N   0  0  0  0  0  0  0  0  0  0  0  0
  -30.0938  -12.6093   20.4824 N   0  0  0  0  0  0  0  0  0  0  0  0
  -25.4193  -15.0913   20.4348 N   0  0  0  0  0  0  0  0  0  0  0  0
  -21.7870  -12.5338   21.2479 N   0  0  0  0  0  0  0  0  0  0  0  0
  -30.6213  -13.5167   22.5944 N   0  0  0  0  0  0  0  0  0  0  0  0
  -25.5086   -6.2580   27.3129 N   0  0  0  0  0  0  0  0  0  0  0  0
  -26.7276   -6.5198   33.3559 N   0  0  0  0  0  0  0  0  0  0  0  0
  -30.7451  -15.5730   26.9739 N   0  0  0  0  0  0  0  0  0  0  0  0
  -29.7286   -6.6376   35.3678 N   0  3  0  0  0  0  0  0  0  0  0  0
  -22.5230  -14.6877   20.9691 O   0  0  0  0  0  0  0  0  0  0  0  0
  -26.1783   -8.4614   27.6578 O   0  0  0  0  0  0  0  0  0  0  0  0
  -26.1437   -5.3112   30.8247 O   0  0  0  0  0  0  0  0  0  0  0  0
  -29.7084  -15.1257   29.0355 O   0  0  0  0  0  0  0  0  0  0  0  0
  -28.0134   -8.3569   33.9470 O   0  0  0  0  0  0  0  0  0  0  0  0
  -32.2880  -12.6967   21.2047 O   0  0  0  0  0  0  0  0  0  0  0  0
  -21.6849   -6.9749   21.5991 O   0  0  0  0  0  0  0  0  0  0  0  0
  -30.1947  -12.5401   29.0385 O   0  0  0  0  0  0  0  0  0  1  0  0
  -22.5831   -2.7492   18.1726 F   0  0  0  0  0  0  0  0  0  0  0  0
  -24.1921   -5.8300   21.3859 F   0  0  0  0  0  0  0  0  0  0  0  0
  -33.8124  -15.3615   27.1565 Cl  0  0  0  0  0  0  0  0  0  0  0  0
  1  2  1  0  0  0  0
  1  5  2  0  0  0  0
  2  6  2  0  0  0  0
  3  8  2  0  0  0  0
  3 17  1  0  0  0  0
  4  9  1  0  0  0  0
  4 17  2  0  0  0  0
  5 19  1  0  0  0  0
  6 21  1  0  0  0  0
  7 10  2  0  0  0  0
  7 20  1  0  0  0  0
  8 24  1  0  0  0  0
  9 24  2  0  0  0  0
 10 25  1  0  0  0  0
 11 12  2  0  0  0  0
 11 26  1  0  0  0  0
 12 27  1  0  0  0  0
 13 22  1  0  0  0  0
 13 25  2  0  0  0  0
 14 23  1  0  0  0  0
 14 31  2  0  0  0  0
 15 27  2  0  0  0  0
 15 28  1  0  0  0  0
 16 29  1  0  0  0  0
 16 61  2  0  0  0  0
 17 30  1  0  0  0  0
 18 30  1  0  0  0  0
 18 32  2  0  0  0  0
 18 33  1  0  0  0  0
 19 21  2  0  0  0  0
 19 39  1  0  0  0  0
 20 22  2  0  0  0  0
 20 40  1  0  0  0  0
 21 48  1  0  0  0  0
 22 41  1  0  0  0  0
 23 29  2  0  0  0  0
 23 71  1  0  0  0  0
 24 79  1  0  0  0  0
 25 80  1  0  0  0  0
 26 28  2  0  0  0  0
 26 79  1  0  0  0  0
 27 81  1  0  0  0  0
 28 82  1  0  0  0  0
 29 83  1  0  0  0  0
 30 62  2  0  0  0  0
 31 61  1  0  0  0  0
 31 68  1  0  0  0  0
 32 63  1  0  0  0  0
 32 66  1  0  0  0  0
 33 67  1  0  0  0  0
 33 73  2  0  0  0  0
 34 49  1  0  0  0  0
 34 69  1  0  0  0  0
 34 74  2  0  0  0  0
 35 58  1  0  0  0  0
 35 64  1  0  0  0  0
 35 75  2  0  0  0  0
 36 57  1  0  0  0  0
 36 71  1  0  0  0  0
 36 76  2  0  0  0  0
 37 59  1  0  0  0  0
 37 70  1  0  0  0  0
 37 77  2  0  0  0  0
 38 65  1  0  0  0  0
 38 68  1  0  0  0  0
 38 78  2  0  0  0  0
 39 42  1  0  0  0  0
 40 49  1  0  0  0  0
 41 64  1  0  0  0  0
 42 44  1  0  0  0  0
 43 45  1  0  0  0  0
 43 46  1  0  0  0  0
 44 48  1  0  0  0  0
 45 50  1  0  0  0  0
 46 65  1  0  0  0  0
 47 50  1  0  0  0  0
 47 65  1  0  0  0  0
 48 69  1  0  0  0  0
 49 64  1  0  0  0  0
 50 63  1  0  0  0  0
 51 59  1  0  0  0  0
 52 60  1  0  0  0  0
 53 60  1  0  0  0  0
 54 60  1  0  0  0  0
 55 71  1  0  0  0  0
 56 72  1  0  0  0  0
 57 80  1  0  0  0  0
 58 60  1  0  0  0  0
 58 70  1  0  0  0  0
 59 72  1  0  0  0  0
 62 63  1  0  0  0  0
M  CHG  1  72   1
M  ISO  4  38 100  57 101  68 100  80 101
M  END
> <Batch ID>
0013

> <Smiles>
CNC(C)C(=O)NC(C(=O)N1Cc2cc([101O:1][101CH2:1]C(=O)N(C)c3cc([100NH:0][100C:0](=O)N4CCCC(n5nc(-c6ccc(Oc7ccc(F)cc7F)cc6)c(C(N)=O)c5N)C4)ncc3Cl)ccc2CC1C(=O)NC1CCCc2ccccc21)C(C)(C)C

> <Shape>
0.129

> <Color>
0.173

> <Negative vol penalty>
0.000

$$$$

  -OEChem-04052315503D

 88 96  0     1  0  0  0  0  0999 V2000
  -29.3058  -30.9220   26.6084 C   0  0  0  0  0  0  0  0  0  0  0  0
  -29.1873  -29.9346   25.6356 C   0  0  0  0  0  0  0  0  0  0  0  0
  -23.0306  -10.1184   19.8725 C   0  0  0  0  0  0  0  0  0  0  0  0
  -24.0449   -9.6322   22.0108 C   0  0  0  0  0  0  0  0  0  0  0  0
  -28.1613  -31.4848   27.1718 C   0  0  0  0  0  0  0  0  0  0  0  0
  -27.9241  -29.5086   25.2264 C   0  0  0  0  0  0  0  0  0  0  0  0
  -27.5517  -29.0877   20.1936 C   0  0  0  0  0  0  0  0  0  0  0  0
  -22.3281   -8.9149   19.9321 C   0  0  0  0  0  0  0  0  0  0  0  0
  -23.3423   -8.4287   22.0704 C   0  0  0  0  0  0  0  0  0  0  0  0
  -28.1158  -27.9563   19.6058 C   0  0  0  0  0  0  0  0  0  0  0  0
  -20.2087   -7.4103   22.8216 C   0  0  0  0  0  0  0  0  0  0  0  0
  -19.5893   -7.0823   24.0275 C   0  0  0  0  0  0  0  0  0  0  0  0
  -25.9319  -26.9393   19.4817 C   0  0  0  0  0  0  0  0  0  0  0  0
  -30.5965  -19.7507   22.8429 C   0  0  0  0  0  0  0  0  0  0  0  0
  -20.9198   -5.0703   24.1637 C   0  0  0  0  0  0  0  0  0  0  0  0
  -23.8891  -10.4770   20.9118 C   0  0  0  0  0  0  0  0  0  0  0  0
  -24.1971  -12.9739   21.3344 C   0  0  0  0  0  0  0  0  0  0  0  0
  -26.8835  -31.0723   26.7624 C   0  0  0  0  0  0  0  0  0  0  0  0
  -26.1727  -29.1491   20.4403 C   0  0  0  0  0  0  0  0  0  0  0  0
  -26.7615  -30.0654   25.7859 C   0  0  0  0  0  0  0  0  0  0  0  0
  -25.3524  -28.0737   20.0704 C   0  0  0  0  0  0  0  0  0  0  0  0
  -30.6502  -19.3245   21.5159 C   0  0  0  0  0  0  0  0  0  0  0  0
  -30.2820  -17.0468   22.2326 C   0  0  0  0  0  0  0  0  0  0  0  0
  -22.4838   -8.0700   21.0310 C   0  0  0  0  0  0  0  0  0  0  0  0
  -27.3063  -26.8807   19.2524 C   0  0  0  0  0  0  0  0  0  0  0  0
  -21.1836   -6.5683   22.2866 C   0  0  0  0  0  0  0  0  0  0  0  0
  -19.9448   -5.9123   24.6986 C   0  0  0  0  0  0  0  0  0  0  0  0
  -30.3856  -18.8250   23.8648 C   0  0  0  0  0  0  0  0  0  0  0  0
  -21.5392   -5.3983   22.9577 C   0  0  0  0  0  0  0  0  0  0  0  0
  -30.4929  -17.9725   21.2107 C   0  0  0  0  0  0  0  0  0  0  0  0
  -30.2283  -17.4731   23.5597 C   0  0  0  0  0  0  0  0  0  0  0  0
  -24.6156  -11.7199   20.8506 C   0  0  0  0  0  0  0  0  0  0  0  0
  -25.2358  -13.8213   21.0354 C   0  0  0  0  0  0  0  0  0  0  0  0
  -22.9784  -13.3400   21.9952 C   0  0  0  0  0  0  0  0  0  0  0  0
  -24.3696  -29.4238   23.0436 C   0  0  0  0  0  0  0  0  0  0  0  0
  -21.9642  -29.6530   20.8794 C   0  0  0  0  0  0  0  0  0  0  0  0
  -31.0408  -21.6416   20.6087 C   0  0  0  0  0  0  0  0  0  0  0  0
  -29.4405  -23.9662   18.9381 C   0  0  0  0  0  0  0  0  0  0  0  0
  -20.8215  -28.9775   17.7354 C   0  0  0  0  0  0  0  0  0  0  0  0
  -30.6790  -14.9787   20.8500 C   0  0  0  0  0  0  0  0  0  0  0  0
  -25.6758  -31.6763   27.4342 C   0  0  0  0  0  0  0  0  0  0  0  0
  -25.5759  -30.3876   21.0506 C   0  0  0  0  0  0  0  0  0  0  0  0
  -23.8633  -28.0982   20.2953 C   0  0  0  0  0  0  0  0  0  0  0  0
  -24.3729  -31.4353   26.6761 C   0  0  0  0  0  0  0  0  0  0  0  0
  -29.3213  -13.1268   18.1289 C   0  0  0  0  0  0  0  0  0  0  0  0
  -24.2667  -29.9751   26.2479 C   0  0  0  0  0  0  0  0  0  0  0  0
  -27.9416  -12.6988   18.6342 C   0  0  0  0  0  0  0  0  0  0  0  0
  -30.3648  -13.1082   19.2446 C   0  0  0  0  0  0  0  0  0  0  0  0
  -28.6211  -13.4393   20.9531 C   0  0  0  0  0  0  0  0  0  0  0  0
  -25.4087  -29.5944   25.2979 C   0  0  1  0  0  0  0  0  0  0  0  0
  -24.2319  -30.1328   21.7260 C   0  0  1  0  0  0  0  0  0  0  0  0
  -27.5226  -13.5047   19.8794 C   0  0  2  0  0  0  0  0  0  0  0  0
  -18.8026  -29.2554   16.2712 C   0  0  0  0  0  0  0  0  0  0  0  0
  -20.5708  -27.3878   22.3750 C   0  0  0  0  0  0  0  0  0  0  0  0
  -19.0897  -27.0756   20.3806 C   0  0  0  0  0  0  0  0  0  0  0  0
  -19.0561  -29.2337   21.6313 C   0  0  0  0  0  0  0  0  0  0  0  0
  -22.3244  -30.6068   15.7743 C   0  0  0  0  0  0  0  0  0  0  0  0
  -31.2413  -22.2789   19.2474 C   0  0  0  0  0  0  0  0  0  0  0  0
  -29.1992  -25.4574   19.0355 C   0  0  0  0  0  0  0  0  0  1  0  0
  -21.0525  -28.6696   20.1861 C   0  0  1  0  0  0  0  0  0  0  0  0
  -20.1323  -29.8529   16.7044 C   0  0  2  0  0  0  0  0  0  0  0  0
  -19.9706  -28.0901   21.1407 C   0  0  0  0  0  0  0  0  0  0  0  0
  -25.8257  -11.7624   20.2868 N   0  0  0  0  0  0  0  0  0  0  0  0
  -26.1765  -13.0534   20.4144 N   0  0  0  0  0  0  0  0  0  0  0  0
  -23.3281  -29.3288   20.9009 N   0  0  0  0  0  0  0  0  0  0  0  0
  -29.9012  -13.8954   20.3892 N   0  0  0  0  0  0  0  0  0  0  0  0
  -25.4270  -15.1411   21.2455 N   0  0  0  0  0  0  0  0  0  0  0  0
  -22.0177  -12.3455   22.2239 N   0  0  0  0  0  0  0  0  0  0  0  0
  -30.8647  -20.2662   20.4815 N   0  0  0  0  0  0  0  0  0  0  0  0
  -30.1217  -15.6734   21.9230 N   0  0  0  0  0  0  0  0  0  0  0  0
  -25.1472  -30.0971   23.9663 N   0  0  0  0  0  0  0  0  0  0  0  0
  -30.7472  -23.6363   19.2621 N   0  0  0  0  0  0  0  0  0  0  0  0
  -20.5124  -29.3641   19.0223 N   0  0  0  0  0  0  0  0  0  0  0  0
  -20.9932  -30.0080   15.4978 N   0  3  0  0  0  0  0  0  0  0  0  0
  -22.7414  -14.5175   22.3569 O   0  0  0  0  0  0  0  0  0  0  0  0
  -23.8105  -28.3463   23.2112 O   0  0  0  0  0  0  0  0  0  0  0  0
  -21.4849  -30.6749   21.3770 O   0  0  0  0  0  0  0  0  0  0  0  0
  -31.0529  -22.2970   21.6457 O   0  0  0  0  0  0  0  0  0  0  0  0
  -28.5644  -23.1716   18.6078 O   0  0  0  0  0  0  0  0  0  0  0  0
  -21.5574  -28.0418   17.4296 O   0  0  0  0  0  0  0  0  0  0  0  0
  -31.7468  -15.2855   20.3135 O   0  0  0  0  0  0  0  0  0  0  0  0
  -21.7982   -6.8957   21.0896 O   0  0  0  0  0  0  0  0  0  0  0  0
  -27.8544  -25.7749   18.6791 O   0  0  0  0  0  0  0  0  0  1  0  0
  -19.3510   -5.5983   25.8574 F   0  0  0  0  0  0  0  0  0  0  0  0
  -30.3333  -19.2342   25.1390 F   0  0  0  0  0  0  0  0  0  0  0  0
  -22.4760   -4.5860   22.4493 F   0  0  0  0  0  0  0  0  0  0  0  0
  -30.5437  -17.5626   19.9340 F   0  0  0  0  0  0  0  0  0  0  0  0
  -30.0272  -16.5923   24.5501 F   0  0  0  0  0  0  0  0  0  0  0  0
  1  2  1  0  0  0  0
  1  5  2  0  0  0  0
  2  6  2  0  0  0  0
  3  8  2  0  0  0  0
  3 16  1  0  0  0  0
  4  9  1  0  0  0  0
  4 16  2  0  0  0  0
  5 18  1  0  0  0  0
  6 20  1  0  0  0  0
  7 10  2  0  0  0  0
  7 19  1  0  0  0  0
  8 24  1  0  0  0  0
  9 24  2  0  0  0  0
 10 25  1  0  0  0  0
 11 12  2  0  0  0  0
 11 26  1  0  0  0  0
 12 27  1  0  0  0  0
 13 21  1  0  0  0  0
 13 25  2  0  0  0  0
 14 22  1  0  0  0  0
 14 28  2  0  0  0  0
 15 27  2  0  0  0  0
 15 29  1  0  0  0  0
 16 32  1  0  0  0  0
 17 32  1  0  0  0  0
 17 33  2  0  0  0  0
 17 34  1  0  0  0  0
 18 20  2  0  0  0  0
 18 41  1  0  0  0  0
 19 21  2  0  0  0  0
 19 42  1  0  0  0  0
 20 50  1  0  0  0  0
 21 43  1  0  0  0  0
 22 30  2  0  0  0  0
 22 69  1  0  0  0  0
 23 30  1  0  0  0  0
 23 31  2  0  0  0  0
 23 70  1  0  0  0  0
 24 82  1  0  0  0  0
 25 83  1  0  0  0  0
 26 29  2  0  0  0  0
 26 82  1  0  0  0  0
 27 84  1  0  0  0  0
 28 31  1  0  0  0  0
 28 85  1  0  0  0  0
 29 86  1  0  0  0  0
 30 87  1  0  0  0  0
 31 88  1  0  0  0  0
 32 63  2  0  0  0  0
 33 64  1  0  0  0  0
 33 67  1  0  0  0  0
 34 68  1  0  0  0  0
 34 75  2  0  0  0  0
 35 51  1  0  0  0  0
 35 71  1  0  0  0  0
 35 76  2  0  0  0  0
 36 60  1  0  0  0  0
 36 65  1  0  0  0  0
 36 77  2  0  0  0  0
 37 58  1  0  0  0  0
 37 69  1  0  0  0  0
 37 78  2  0  0  0  0
 38 59  1  0  0  0  0
 38 72  1  0  0  0  0
 38 79  2  0  0  0  0
 39 61  1  0  0  0  0
 39 73  1  0  0  0  0
 39 80  2  0  0  0  0
 40 66  1  0  0  0  0
 40 70  1  0  0  0  0
 40 81  2  0  0  0  0
 41 44  1  0  0  0  0
 42 51  1  0  0  0  0
 43 65  1  0  0  0  0
 44 46  1  0  0  0  0
 45 47  1  0  0  0  0
 45 48  1  0  0  0  0
 46 50  1  0  0  0  0
 47 52  1  0  0  0  0
 48 66  1  0  0  0  0
 49 52  1  0  0  0  0
 49 66  1  0  0  0  0
 50 71  1  0  0  0  0
 51 65  1  0  0  0  0
 52 64  1  0  0  0  0
 53 61  1  0  0  0  0
 54 62  1  0  0  0  0
 55 62  1  0  0  0  0
 56 62  1  0  0  0  0
 57 74  1  0  0  0  0
 58 72  1  0  0  0  0
 59 83  1  0  0  0  0
 60 62  1  0  0  0  0
 60 73  1  0  0  0  0
 61 74  1  0  0  0  0
 63 64  1  0  0  0  0
M  CHG  1  74   1
M  ISO  4  40 100  59 101  70 100  83 101
M  END
> <Batch ID>
0013

> <Smiles>
CNC(C)C(=O)NC(C(=O)N1Cc2cc([101O:1][101CH2:1]C(=O)NCC(=O)Nc3cc(F)c(F)c([100NH:0][100C:0](=O)N4CCCC(n5nc(-c6ccc(Oc7ccc(F)cc7F)cc6)c(C(N)=O)c5N)C4)c3F)ccc2CC1C(=O)NC1CCCc2ccccc21)C(C)(C)C

> <Shape>
0.378

> <Color>
0.196

> <Negative vol penalty>
0.000

$$$$

  -OEChem-04052315503D

 84 92  0     1  0  0  0  0  0999 V2000
  -18.9028  -20.6812   27.6288 C   0  0  0  0  0  0  0  0  0  0  0  0
  -20.2731  -20.8126   27.4273 C   0  0  0  0  0  0  0  0  0  0  0  0
  -23.0707   -9.8735   19.9389 C   0  0  0  0  0  0  0  0  0  0  0  0
  -23.8334   -9.8732   22.2314 C   0  0  0  0  0  0  0  0  0  0  0  0
  -18.0166  -20.9600   26.5891 C   0  0  0  0  0  0  0  0  0  0  0  0
  -20.7580  -21.2218   26.1856 C   0  0  0  0  0  0  0  0  0  0  0  0
  -25.6817  -24.7049   25.1221 C   0  0  0  0  0  0  0  0  0  0  0  0
  -22.3258   -8.7205   20.1866 C   0  0  0  0  0  0  0  0  0  0  0  0
  -23.0885   -8.7203   22.4791 C   0  0  0  0  0  0  0  0  0  0  0  0
  -26.9910  -24.3924   24.7589 C   0  0  0  0  0  0  0  0  0  0  0  0
  -19.3784   -7.9234   21.6393 C   0  0  0  0  0  0  0  0  0  0  0  0
  -18.0709   -7.8800   21.1555 C   0  0  0  0  0  0  0  0  0  0  0  0
  -26.4370  -24.7875   22.4446 C   0  0  0  0  0  0  0  0  0  0  0  0
  -31.2181  -18.3844   23.7599 C   0  0  0  0  0  0  0  0  0  0  0  0
  -31.4577  -19.1344   21.4759 C   0  0  0  0  0  0  0  0  0  0  0  0
  -18.6267   -5.9400   19.8272 C   0  0  0  0  0  0  0  0  0  0  0  0
  -23.8246  -10.4498   20.9613 C   0  0  0  0  0  0  0  0  0  0  0  0
  -24.1693  -12.9749   20.8478 C   0  0  0  0  0  0  0  0  0  0  0  0
  -18.4905  -21.3822   25.3370 C   0  0  0  0  0  0  0  0  0  0  0  0
  -24.7358  -25.0510   24.1465 C   0  0  0  0  0  0  0  0  0  0  0  0
  -19.8774  -21.5052   25.1278 C   0  0  0  0  0  0  0  0  0  0  0  0
  -25.1170  -25.1064   22.7983 C   0  0  0  0  0  0  0  0  0  0  0  0
  -31.5870  -19.3701   22.8446 C   0  0  0  0  0  0  0  0  0  0  0  0
  -30.5908  -16.9271   21.9379 C   0  0  0  0  0  0  0  0  0  0  0  0
  -22.3346   -8.1439   21.4567 C   0  0  0  0  0  0  0  0  0  0  0  0
  -27.3681  -24.4308   23.4198 C   0  0  0  0  0  0  0  0  0  0  0  0
  -20.3101   -6.9751   21.2170 C   0  0  0  0  0  0  0  0  0  0  0  0
  -17.6950   -6.8883   20.2495 C   0  0  0  0  0  0  0  0  0  0  0  0
  -19.9343   -5.9834   20.3110 C   0  0  0  0  0  0  0  0  0  0  0  0
  -30.7201  -17.1628   23.3066 C   0  0  0  0  0  0  0  0  0  0  0  0
  -30.9596  -17.9128   21.0225 C   0  0  0  0  0  0  0  0  0  0  0  0
  -24.5948  -11.6405   20.7059 C   0  0  0  0  0  0  0  0  0  0  0  0
  -25.2619  -13.7241   20.4853 C   0  0  0  0  0  0  0  0  0  0  0  0
  -22.8999  -13.4910   21.2697 C   0  0  0  0  0  0  0  0  0  0  0  0
  -21.9819  -23.8128   23.1532 C   0  0  0  0  0  0  0  0  0  0  0  0
  -21.8648  -26.5112   21.3567 C   0  0  0  0  0  0  0  0  0  0  0  0
  -30.3752  -22.4341   23.0754 C   0  0  0  0  0  0  0  0  0  0  0  0
  -23.5562  -29.0597   19.8432 C   0  0  0  0  0  0  0  0  0  0  0  0
  -30.7295  -14.7628   20.6562 C   0  0  0  0  0  0  0  0  0  0  0  0
  -17.4964  -21.6264   24.2293 C   0  0  0  0  0  0  0  0  0  0  0  0
  -23.3344  -25.4113   24.5573 C   0  0  0  0  0  0  0  0  0  0  0  0
  -24.1447  -25.4917   21.7145 C   0  0  0  0  0  0  0  0  0  0  0  0
  -18.0729  -22.4157   23.0567 C   0  0  0  0  0  0  0  0  0  0  0  0
  -29.6094  -12.3568   18.2826 C   0  0  0  0  0  0  0  0  0  0  0  0
  -19.4327  -21.8549   22.6528 C   0  0  0  0  0  0  0  0  0  0  0  0
  -28.1699  -12.0657   18.7131 C   0  0  0  0  0  0  0  0  0  0  0  0
  -30.5262  -12.5812   19.4838 C   0  0  0  0  0  0  0  0  0  0  0  0
  -28.6218  -13.3041   20.8694 C   0  0  0  0  0  0  0  0  0  0  0  0
  -20.4407  -21.9705   23.8026 C   0  0  1  0  0  0  0  0  0  0  0  0
  -22.3209  -25.2505   23.4285 C   0  0  1  0  0  0  0  0  0  0  0  0
  -27.6473  -13.1352   19.6923 C   0  0  2  0  0  0  0  0  0  0  0  0
  -23.1924  -31.0912   18.4154 C   0  0  0  0  0  0  0  0  0  0  0  0
  -21.4477  -24.7216   18.9209 C   0  0  0  0  0  0  0  0  0  0  0  0
  -22.0390  -26.6753   17.4712 C   0  0  0  0  0  0  0  0  0  0  0  0
  -20.0354  -26.7853   18.9533 C   0  0  0  0  0  0  0  0  0  0  0  0
  -24.6782  -30.8563   21.9102 C   0  0  0  0  0  0  0  0  0  0  0  0
  -32.1239  -20.6845   23.3327 C   0  0  0  0  0  0  0  0  0  0  0  0
  -29.3440  -23.1916   23.8844 C   0  0  0  0  0  0  0  0  0  1  0  0
  -22.3435  -26.8998   19.9788 C   0  0  1  0  0  0  0  0  0  0  0  0
  -23.3211  -30.5594   19.8344 C   0  0  2  0  0  0  0  0  0  0  0  0
  -21.4845  -26.2613   18.8510 C   0  0  0  0  0  0  0  0  0  0  0  0
  -25.8590  -11.5443   20.2858 N   0  0  0  0  0  0  0  0  0  0  0  0
  -26.2373  -12.8278   20.1606 N   0  0  0  0  0  0  0  0  0  0  0  0
  -22.7846  -25.8292   22.1658 N   0  0  0  0  0  0  0  0  0  0  0  0
  -29.9695  -13.6103   20.3647 N   0  0  0  0  0  0  0  0  0  0  0  0
  -25.4738  -15.0555   20.4157 N   0  0  0  0  0  0  0  0  0  0  0  0
  -21.8873  -12.5821   21.6057 N   0  0  0  0  0  0  0  0  0  0  0  0
  -30.0842  -15.6863   21.4779 N   0  0  0  0  0  0  0  0  0  0  0  0
  -20.9320  -23.3276   23.9095 N   0  0  0  0  0  0  0  0  0  0  0  0
  -31.0799  -21.5333   23.8584 N   0  0  0  0  0  0  0  0  0  0  0  0
  -22.3743  -28.3581   19.9535 N   0  0  0  0  0  0  0  0  0  0  0  0
  -24.4526  -31.2650   20.4999 N   0  3  0  0  0  0  0  0  0  0  0  0
  -22.6652  -14.7218   21.3307 O   0  0  0  0  0  0  0  0  0  0  0  0
  -22.6242  -23.1903   22.3157 O   0  0  0  0  0  0  0  0  0  0  0  0
  -20.7194  -26.8084   21.7051 O   0  0  0  0  0  0  0  0  0  0  0  0
  -30.5434  -22.6193   21.8732 O   0  0  0  0  0  0  0  0  0  0  0  0
  -24.6759  -28.5605   19.7567 O   0  0  0  0  0  0  0  0  0  0  0  0
  -31.8582  -14.9314   20.1876 O   0  0  0  0  0  0  0  0  0  0  0  0
  -21.6077   -7.0190   21.6988 O   0  0  0  0  0  0  0  0  0  0  0  0
  -28.6452  -24.1256   23.0625 O   0  0  0  0  0  0  0  0  0  1  0  0
  -16.4389   -6.8459   19.7862 F   0  0  0  0  0  0  0  0  0  0  0  0
  -20.8246   -5.0689   19.9026 F   0  0  0  0  0  0  0  0  0  0  0  0
  -30.2759  -15.9735   24.4796 Cl  0  0  0  0  0  0  0  0  0  0  0  0
  -30.8176  -17.6689   19.3171 Cl  0  0  0  0  0  0  0  0  0  0  0  0
  1  2  1  0  0  0  0
  1  5  2  0  0  0  0
  2  6  2  0  0  0  0
  3  8  2  0  0  0  0
  3 17  1  0  0  0  0
  4  9  1  0  0  0  0
  4 17  2  0  0  0  0
  5 19  1  0  0  0  0
  6 21  1  0  0  0  0
  7 10  2  0  0  0  0
  7 20  1  0  0  0  0
  8 25  1  0  0  0  0
  9 25  2  0  0  0  0
 10 26  1  0  0  0  0
 11 12  2  0  0  0  0
 11 27  1  0  0  0  0
 12 28  1  0  0  0  0
 13 22  1  0  0  0  0
 13 26  2  0  0  0  0
 14 23  1  0  0  0  0
 14 30  2  0  0  0  0
 15 23  2  0  0  0  0
 15 31  1  0  0  0  0
 16 28  2  0  0  0  0
 16 29  1  0  0  0  0
 17 32  1  0  0  0  0
 18 32  1  0  0  0  0
 18 33  2  0  0  0  0
 18 34  1  0  0  0  0
 19 21  2  0  0  0  0
 19 40  1  0  0  0  0
 20 22  2  0  0  0  0
 20 41  1  0  0  0  0
 21 49  1  0  0  0  0
 22 42  1  0  0  0  0
 23 57  1  0  0  0  0
 24 30  1  0  0  0  0
 24 31  2  0  0  0  0
 24 68  1  0  0  0  0
 25 79  1  0  0  0  0
 26 80  1  0  0  0  0
 27 29  2  0  0  0  0
 27 79  1  0  0  0  0
 28 81  1  0  0  0  0
 29 82  1  0  0  0  0
 30 83  1  0  0  0  0
 31 84  1  0  0  0  0
 32 62  2  0  0  0  0
 33 63  1  0  0  0  0
 33 66  1  0  0  0  0
 34 67  1  0  0  0  0
 34 73  2  0  0  0  0
 35 50  1  0  0  0  0
 35 69  1  0  0  0  0
 35 74  2  0  0  0  0
 36 59  1  0  0  0  0
 36 64  1  0  0  0  0
 36 75  2  0  0  0  0
 37 58  1  0  0  0  0
 37 70  1  0  0  0  0
 37 76  2  0  0  0  0
 38 60  1  0  0  0  0
 38 71  1  0  0  0  0
 38 77  2  0  0  0  0
 39 65  1  0  0  0  0
 39 68  1  0  0  0  0
 39 78  2  0  0  0  0
 40 43  1  0  0  0  0
 41 50  1  0  0  0  0
 42 64  1  0  0  0  0
 43 45  1  0  0  0  0
 44 46  1  0  0  0  0
 44 47  1  0  0  0  0
 45 49  1  0  0  0  0
 46 51  1  0  0  0  0
 47 65  1  0  0  0  0
 48 51  1  0  0  0  0
 48 65  1  0  0  0  0
 49 69  1  0  0  0  0
 50 64  1  0  0  0  0
 51 63  1  0  0  0  0
 52 60  1  0  0  0  0
 53 61  1  0  0  0  0
 54 61  1  0  0  0  0
 55 61  1  0  0  0  0
 56 72  1  0  0  0  0
 57 70  1  0  0  0  0
 58 80  1  0  0  0  0
 59 61  1  0  0  0  0
 59 71  1  0  0  0  0
 60 72  1  0  0  0  0
 62 63  1  0  0  0  0
M  CHG  1  72   1
M  ISO  4  39 100  58 101  68 100  80 101
M  END
> <Batch ID>
0013

> <Smiles>
CNC(C)C(=O)NC(C(=O)N1Cc2cc([101O:1][101CH2:1]C(=O)NCc3cc(Cl)c([100NH:0][100C:0](=O)N4CCCC(n5nc(-c6ccc(Oc7ccc(F)cc7F)cc6)c(C(N)=O)c5N)C4)c(Cl)c3)ccc2CC1C(=O)NC1CCCc2ccccc21)C(C)(C)C

> <Shape>
0.212

> <Color>
0.191

> <Negative vol penalty>
0.000

$$$$

  -OEChem-04052315503D

 83 91  0     1  0  0  0  0  0999 V2000
  -35.5123  -32.1837   15.9813 C   0  0  0  0  0  0  0  0  0  0  0  0
  -35.1564  -30.8490   16.1467 C   0  0  0  0  0  0  0  0  0  0  0  0
  -23.0480   -9.7885   20.0013 C   0  0  0  0  0  0  0  0  0  0  0  0
  -23.7549   -9.9167   22.3080 C   0  0  0  0  0  0  0  0  0  0  0  0
  -31.3636  -19.5475   22.6217 C   0  0  0  0  0  0  0  0  0  0  0  0
  -34.9426  -33.1619   16.7953 C   0  0  0  0  0  0  0  0  0  0  0  0
  -34.2314  -30.4916   17.1271 C   0  0  0  0  0  0  0  0  0  0  0  0
  -30.0795  -26.0009   16.8088 C   0  0  0  0  0  0  0  0  0  0  0  0
  -22.3142   -8.6380   20.2901 C   0  0  0  0  0  0  0  0  0  0  0  0
  -23.0210   -8.7662   22.5968 C   0  0  0  0  0  0  0  0  0  0  0  0
  -30.0692  -24.6964   17.3007 C   0  0  0  0  0  0  0  0  0  0  0  0
  -23.3692   -5.4258   22.2073 C   0  0  0  0  0  0  0  0  0  0  0  0
  -23.9818   -4.4452   22.9875 C   0  0  0  0  0  0  0  0  0  0  0  0
  -32.0306  -18.3869   23.0139 C   0  0  0  0  0  0  0  0  0  0  0  0
  -28.8450  -25.4437   19.2403 C   0  0  0  0  0  0  0  0  0  0  0  0
  -22.2395   -4.6759   24.6453 C   0  0  0  0  0  0  0  0  0  0  0  0
  -23.7685  -10.4278   21.0103 C   0  0  0  0  0  0  0  0  0  0  0  0
  -30.2218  -19.4604   21.8251 C   0  0  0  0  0  0  0  0  0  0  0  0
  -24.0790  -12.9490   20.7759 C   0  0  0  0  0  0  0  0  0  0  0  0
  -34.0030  -32.8174   17.7797 C   0  0  0  0  0  0  0  0  0  0  0  0
  -29.4811  -27.0403   17.5355 C   0  0  0  0  0  0  0  0  0  0  0  0
  -33.6497  -31.4659   17.9559 C   0  0  0  0  0  0  0  0  0  0  0  0
  -28.8469  -26.7601   18.7542 C   0  0  0  0  0  0  0  0  0  0  0  0
  -30.4141  -17.0521   21.8128 C   0  0  0  0  0  0  0  0  0  0  0  0
  -22.3006   -8.1269   21.5878 C   0  0  0  0  0  0  0  0  0  0  0  0
  -29.4545  -24.4181   18.5179 C   0  0  0  0  0  0  0  0  0  0  0  0
  -22.1918   -6.0315   22.6461 C   0  0  0  0  0  0  0  0  0  0  0  0
  -23.4169   -4.0702   24.2065 C   0  0  0  0  0  0  0  0  0  0  0  0
  -21.6269   -5.6565   23.8651 C   0  0  0  0  0  0  0  0  0  0  0  0
  -31.5559  -17.1392   22.6094 C   0  0  0  0  0  0  0  0  0  0  0  0
  -29.7471  -18.2127   21.4207 C   0  0  0  0  0  0  0  0  0  0  0  0
  -24.5272  -11.6160   20.7125 C   0  0  0  0  0  0  0  0  0  0  0  0
  -25.1691  -13.6959   20.4013 C   0  0  0  0  0  0  0  0  0  0  0  0
  -29.5632  -20.7189   21.4451 C   0  0  0  0  0  0  0  0  0  0  0  0
  -22.7925  -13.4658   21.1410 C   0  0  0  0  0  0  0  0  0  0  0  0
  -30.1417  -21.7231   20.7677 C   0  0  0  0  0  0  0  0  0  0  0  0
  -30.5212  -29.7283   18.8758 C   0  0  0  0  0  0  0  0  0  0  0  0
  -27.3613  -30.2214   19.4180 C   0  0  0  0  0  0  0  0  0  0  0  0
  -24.2456  -28.8848   19.8085 C   0  0  0  0  0  0  0  0  0  0  0  0
  -30.6153  -14.8280   20.6470 C   0  0  0  0  0  0  0  0  0  0  0  0
  -33.4497  -33.9042   18.6671 C   0  0  0  0  0  0  0  0  0  0  0  0
  -29.4775  -28.4374   16.9784 C   0  0  0  0  0  0  0  0  0  0  0  0
  -28.1725  -27.8369   19.5631 C   0  0  0  0  0  0  0  0  0  0  0  0
  -32.1966  -33.4866   19.4323 C   0  0  0  0  0  0  0  0  0  0  0  0
  -29.5881  -12.2873   18.3740 C   0  0  0  0  0  0  0  0  0  0  0  0
  -32.3899  -32.1115   20.0635 C   0  0  0  0  0  0  0  0  0  0  0  0
  -28.1430  -11.9958   18.7850 C   0  0  0  0  0  0  0  0  0  0  0  0
  -30.4722  -12.5868   19.5833 C   0  0  0  0  0  0  0  0  0  0  0  0
  -28.5245  -13.3490   20.8850 C   0  0  0  0  0  0  0  0  0  0  0  0
  -32.6313  -31.0416   18.9918 C   0  0  1  0  0  0  0  0  0  0  0  0
  -29.2862  -29.5071   18.0491 C   0  0  1  0  0  0  0  0  0  0  0  0
  -27.5814  -13.1053   19.6956 C   0  0  2  0  0  0  0  0  0  0  0  0
  -21.8678  -29.5350   20.2785 C   0  0  0  0  0  0  0  0  0  0  0  0
  -28.0587  -30.6367   22.3593 C   0  0  0  0  0  0  0  0  0  0  0  0
  -25.6343  -30.3326   22.9051 C   0  0  0  0  0  0  0  0  0  0  0  0
  -26.3562  -32.2303   21.4559 C   0  0  0  0  0  0  0  0  0  0  0  0
  -23.3139  -27.7955   17.2192 C   0  0  0  0  0  0  0  0  0  0  0  0
  -29.4300  -22.9893   20.4190 C   0  0  0  0  0  0  0  0  0  1  0  0
  -26.4011  -29.8776   20.5311 C   0  0  1  0  0  0  0  0  0  0  0  0
  -22.9055  -29.2593   19.2015 C   0  0  2  0  0  0  0  0  0  0  0  0
  -26.6269  -30.7491   21.7988 C   0  0  0  0  0  0  0  0  0  0  0  0
  -25.8025  -11.5185   20.3276 N   0  0  0  0  0  0  0  0  0  0  0  0
  -26.1650  -12.7998   20.1458 N   0  0  0  0  0  0  0  0  0  0  0  0
  -28.2012  -29.1881   18.9793 N   0  0  0  0  0  0  0  0  0  0  0  0
  -29.8794  -13.6503   20.3971 N   0  0  0  0  0  0  0  0  0  0  0  0
  -25.3632  -15.0253   20.2687 N   0  0  0  0  0  0  0  0  0  0  0  0
  -21.7854  -12.5593   21.4992 N   0  0  0  0  0  0  0  0  0  0  0  0
  -29.9369  -15.7818   21.4051 N   0  0  0  0  0  0  0  0  0  0  0  0
  -31.3848  -30.6733   18.3555 N   0  0  0  0  0  0  0  0  0  0  0  0
  -25.0618  -29.9853   19.9627 N   0  0  0  0  0  0  0  0  0  0  0  0
  -22.4024  -28.1555   18.3358 N   0  3  0  0  0  0  0  0  0  0  0  0
  -22.5384  -14.6942   21.1335 O   0  0  0  0  0  0  0  0  0  0  0  0
  -30.6783  -29.0900   19.9100 O   0  0  0  0  0  0  0  0  0  0  0  0
  -27.3609  -31.3628   18.9501 O   0  0  0  0  0  0  0  0  0  0  0  0
  -24.5375  -27.7319   20.1186 O   0  0  0  0  0  0  0  0  0  0  0  0
  -31.7524  -14.9904   20.1971 O   0  0  0  0  0  0  0  0  0  0  0  0
  -21.5844   -7.0044   21.8700 O   0  0  0  0  0  0  0  0  0  0  0  0
  -29.4435  -23.1458   19.0006 O   0  0  0  0  0  0  0  0  0  1  0  0
  -24.0044   -3.1274   24.9550 F   0  0  0  0  0  0  0  0  0  0  0  0
  -20.4953   -6.2340   24.2914 F   0  0  0  0  0  0  0  0  0  0  0  0
  -31.4413  -21.6203   20.4024 F   0  0  0  0  0  0  0  0  0  0  0  0
  -32.4180  -15.7314   23.1221 Cl  0  0  0  0  0  0  0  0  0  0  0  0
  -28.3247  -18.1002   20.4276 Cl  0  0  0  0  0  0  0  0  0  0  0  0
  1  2  1  0  0  0  0
  1  6  2  0  0  0  0
  2  7  2  0  0  0  0
  3  9  2  0  0  0  0
  3 17  1  0  0  0  0
  4 10  1  0  0  0  0
  4 17  2  0  0  0  0
  5 14  2  0  0  0  0
  5 18  1  0  0  0  0
  6 20  1  0  0  0  0
  7 22  1  0  0  0  0
  8 11  2  0  0  0  0
  8 21  1  0  0  0  0
  9 25  1  0  0  0  0
 10 25  2  0  0  0  0
 11 26  1  0  0  0  0
 12 13  2  0  0  0  0
 12 27  1  0  0  0  0
 13 28  1  0  0  0  0
 14 30  1  0  0  0  0
 15 23  1  0  0  0  0
 15 26  2  0  0  0  0
 16 28  2  0  0  0  0
 16 29  1  0  0  0  0
 17 32  1  0  0  0  0
 18 31  2  0  0  0  0
 18 34  1  0  0  0  0
 19 32  1  0  0  0  0
 19 33  2  0  0  0  0
 19 35  1  0  0  0  0
 20 22  2  0  0  0  0
 20 41  1  0  0  0  0
 21 23  2  0  0  0  0
 21 42  1  0  0  0  0
 22 50  1  0  0  0  0
 23 43  1  0  0  0  0
 24 30  2  0  0  0  0
 24 31  1  0  0  0  0
 24 68  1  0  0  0  0
 25 77  1  0  0  0  0
 26 78  1  0  0  0  0
 27 29  2  0  0  0  0
 27 77  1  0  0  0  0
 28 79  1  0  0  0  0
 29 80  1  0  0  0  0
 30 82  1  0  0  0  0
 31 83  1  0  0  0  0
 32 62  2  0  0  0  0
 33 63  1  0  0  0  0
 33 66  1  0  0  0  0
 34 36  2  0  0  0  0
 35 67  1  0  0  0  0
 35 72  2  0  0  0  0
 36 58  1  0  0  0  0
 36 81  1  0  0  0  0
 37 51  1  0  0  0  0
 37 69  1  0  0  0  0
 37 73  2  0  0  0  0
 38 59  1  0  0  0  0
 38 64  1  0  0  0  0
 38 74  2  0  0  0  0
 39 60  1  0  0  0  0
 39 70  1  0  0  0  0
 39 75  2  0  0  0  0
 40 65  1  0  0  0  0
 40 68  1  0  0  0  0
 40 76  2  0  0  0  0
 41 44  1  0  0  0  0
 42 51  1  0  0  0  0
 43 64  1  0  0  0  0
 44 46  1  0  0  0  0
 45 47  1  0  0  0  0
 45 48  1  0  0  0  0
 46 50  1  0  0  0  0
 47 52  1  0  0  0  0
 48 65  1  0  0  0  0
 49 52  1  0  0  0  0
 49 65  1  0  0  0  0
 50 69  1  0  0  0  0
 51 64  1  0  0  0  0
 52 63  1  0  0  0  0
 53 60  1  0  0  0  0
 54 61  1  0  0  0  0
 55 61  1  0  0  0  0
 56 61  1  0  0  0  0
 57 71  1  0  0  0  0
 58 78  1  0  0  0  0
 59 61  1  0  0  0  0
 59 70  1  0  0  0  0
 60 71  1  0  0  0  0
 62 63  1  0  0  0  0
M  CHG  1  71   1
M  ISO  4  40 100  58 101  68 100  78 101
M  END
> <Batch ID>
0013

> <Smiles>
CNC(C)C(=O)NC(C(=O)N1Cc2cc([101O:1][101CH2:1]C(F)=Cc3ccc(Cl)c([100NH:0][100C:0](=O)N4CCCC(n5nc(-c6ccc(Oc7ccc(F)cc7F)cc6)c(C(N)=O)c5N)C4)c3Cl)ccc2CC1C(=O)NC1CCCc2ccccc21)C(C)(C)C

> <Shape>
0.319

> <Color>
0.224

> <Negative vol penalty>
0.000

$$$$

  -OEChem-04052315503D

 82 90  0     1  0  0  0  0  0999 V2000
  -28.0372  -20.7217   27.1523 C   0  0  0  0  0  0  0  0  0  0  0  0
  -28.2132  -21.3640   25.9308 C   0  0  0  0  0  0  0  0  0  0  0  0
  -22.5175  -13.0246   20.3823 C   0  0  0  0  0  0  0  0  0  0  0  0
  -22.6750  -14.1823   22.4970 C   0  0  0  0  0  0  0  0  0  0  0  0
  -26.7570  -20.5802   27.6861 C   0  0  0  0  0  0  0  0  0  0  0  0
  -27.1088  -21.8642   25.2420 C   0  0  0  0  0  0  0  0  0  0  0  0
  -27.9016  -26.5227   23.4212 C   0  0  0  0  0  0  0  0  0  0  0  0
  -21.7690  -12.0166   20.9899 C   0  0  0  0  0  0  0  0  0  0  0  0
  -21.9264  -13.1743   23.1046 C   0  0  0  0  0  0  0  0  0  0  0  0
  -28.6658  -26.6310   22.2601 C   0  0  0  0  0  0  0  0  0  0  0  0
  -20.1216   -8.9571   22.0620 C   0  0  0  0  0  0  0  0  0  0  0  0
  -20.4493   -7.6345   21.7638 C   0  0  0  0  0  0  0  0  0  0  0  0
  -26.6472  -26.8672   20.9607 C   0  0  0  0  0  0  0  0  0  0  0  0
  -29.9443  -21.3443   18.9029 C   0  0  0  0  0  0  0  0  0  0  0  0
  -28.0658  -23.3635   19.3233 C   0  0  0  0  0  0  0  0  0  0  0  0
  -22.6737   -7.9886   22.6378 C   0  0  0  0  0  0  0  0  0  0  0  0
  -22.9706  -14.1075   21.1359 C   0  0  0  0  0  0  0  0  0  0  0  0
  -23.2570  -16.3223   19.9030 C   0  0  0  0  0  0  0  0  0  0  0  0
  -25.6374  -21.0875   27.0081 C   0  0  0  0  0  0  0  0  0  0  0  0
  -26.5017  -26.5750   23.3593 C   0  0  0  0  0  0  0  0  0  0  0  0
  -25.8123  -21.7282   25.7666 C   0  0  0  0  0  0  0  0  0  0  0  0
  -25.8676  -26.7619   22.1227 C   0  0  0  0  0  0  0  0  0  0  0  0
  -30.0914  -22.5771   18.2671 C   0  0  0  0  0  0  0  0  0  0  0  0
  -29.1522  -23.5867   18.4773 C   0  0  0  0  0  0  0  0  0  0  0  0
  -28.8579  -21.1211   19.7488 C   0  0  0  0  0  0  0  0  0  0  0  0
  -21.4734  -12.0914   22.3510 C   0  0  0  0  0  0  0  0  0  0  0  0
  -28.0385  -26.8003   21.0293 C   0  0  0  0  0  0  0  0  0  0  0  0
  -21.0700   -9.7955   22.6480 C   0  0  0  0  0  0  0  0  0  0  0  0
  -21.7253   -7.1502   22.0517 C   0  0  0  0  0  0  0  0  0  0  0  0
  -22.3460   -9.3112   22.9360 C   0  0  0  0  0  0  0  0  0  0  0  0
  -27.9186  -22.1307   19.9590 C   0  0  0  0  0  0  0  0  0  0  0  0
  -23.7443  -15.1488   20.5089 C   0  0  0  0  0  0  0  0  0  0  0  0
  -24.3829  -16.9745   19.4630 C   0  0  0  0  0  0  0  0  0  0  0  0
  -21.9074  -16.7818   19.7514 C   0  0  0  0  0  0  0  0  0  0  0  0
  -24.1477  -24.5657   24.0842 C   0  0  0  0  0  0  0  0  0  0  0  0
  -22.2758  -27.1215   23.3868 C   0  0  0  0  0  0  0  0  0  0  0  0
  -21.9175  -30.0849   21.7325 C   0  0  0  0  0  0  0  0  0  0  0  0
  -29.5958  -18.7654   20.2514 C   0  0  0  0  0  0  0  0  0  0  0  0
  -24.2684  -20.8688   27.6021 C   0  0  0  0  0  0  0  0  0  0  0  0
  -25.6927  -26.4834   24.6241 C   0  0  0  0  0  0  0  0  0  0  0  0
  -24.3684  -26.8448   22.0048 C   0  0  0  0  0  0  0  0  0  0  0  0
  -23.1894  -21.7578   26.9891 C   0  0  0  0  0  0  0  0  0  0  0  0
  -29.1851  -15.4065   19.1441 C   0  0  0  0  0  0  0  0  0  0  0  0
  -23.2912  -21.7487   25.4672 C   0  0  0  0  0  0  0  0  0  0  0  0
  -27.6929  -15.1365   19.3506 C   0  0  0  0  0  0  0  0  0  0  0  0
  -29.7611  -16.2859   20.2525 C   0  0  0  0  0  0  0  0  0  0  0  0
  -27.5473  -17.2736   20.6918 C   0  0  0  0  0  0  0  0  0  0  0  0
  -24.6417  -22.3061   25.0012 C   0  0  1  0  0  0  0  0  0  0  0  0
  -24.2548  -26.0345   24.3824 C   0  0  1  0  0  0  0  0  0  0  0  0
  -26.9079  -16.4454   19.5653 C   0  0  2  0  0  0  0  0  0  0  0  0
  -31.2608  -22.7914   17.3630 C   0  0  0  0  0  0  0  0  0  0  0  0
  -20.2613  -31.9255   21.3245 C   0  0  0  0  0  0  0  0  0  0  0  0
  -20.7574  -25.3217   21.4463 C   0  0  0  0  0  0  0  0  0  0  0  0
  -19.7866  -27.3811   20.4050 C   0  0  0  0  0  0  0  0  0  0  0  0
  -19.3130  -26.8530   22.7966 C   0  0  0  0  0  0  0  0  0  0  0  0
  -23.6937  -32.1119   22.9554 C   0  0  0  0  0  0  0  0  0  0  0  0
  -29.2900  -24.9272   17.8008 C   0  0  0  0  0  0  0  0  0  0  0  0
  -30.3516  -25.8299   18.4330 C   0  0  0  0  0  0  0  0  0  0  0  0
  -30.0333  -26.2200   19.8717 C   0  0  0  0  0  0  0  0  0  1  0  0
  -21.6181  -27.6557   22.1374 C   0  0  1  0  0  0  0  0  0  0  0  0
  -21.4121  -31.4405   22.1923 C   0  0  2  0  0  0  0  0  0  0  0  0
  -20.3970  -26.7994   21.6980 C   0  0  0  0  0  0  0  0  0  0  0  0
  -25.0760  -15.0579   20.4600 N   0  0  0  0  0  0  0  0  0  0  0  0
  -25.4351  -16.1827   19.8180 N   0  0  0  0  0  0  0  0  0  0  0  0
  -23.6208  -26.7436   23.2691 N   0  0  0  0  0  0  0  0  0  0  0  0
  -28.9691  -17.5095   20.3956 N   0  0  0  0  0  0  0  0  0  0  0  0
  -24.5656  -18.1423   18.8109 N   0  0  0  0  0  0  0  0  0  0  0  0
  -20.8704  -15.9890   20.2618 N   0  0  0  0  0  0  0  0  0  0  0  0
  -28.7362  -19.8564   20.3761 N   0  0  0  0  0  0  0  0  0  0  0  0
  -24.6471  -23.7510   25.0824 N   0  0  0  0  0  0  0  0  0  0  0  0
  -21.3009  -29.0536   22.4089 N   0  0  0  0  0  0  0  0  0  0  0  0
  -22.5065  -32.4501   22.1289 N   0  3  0  0  0  0  0  0  0  0  0  0
  -21.6281  -17.8554   19.1658 O   0  0  0  0  0  0  0  0  0  0  0  0
  -23.6476  -24.1987   23.0273 O   0  0  0  0  0  0  0  0  0  0  0  0
  -21.6223  -27.0490   24.4305 O   0  0  0  0  0  0  0  0  0  0  0  0
  -22.7711  -29.9538   20.8580 O   0  0  0  0  0  0  0  0  0  0  0  0
  -30.8007  -18.8650   20.0062 O   0  0  0  0  0  0  0  0  0  0  0  0
  -20.7428  -11.1081   22.9442 O   0  0  0  0  0  0  0  0  0  0  0  0
  -28.7820  -26.9057   19.8944 O   0  0  0  0  0  0  0  0  0  1  0  0
  -22.0394   -5.8797   21.7667 F   0  0  0  0  0  0  0  0  0  0  0  0
  -23.2609  -10.1116   23.5000 F   0  0  0  0  0  0  0  0  0  0  0  0
  -26.5587  -21.8968   20.9990 Cl  0  0  0  0  0  0  0  0  0  0  0  0
  1  2  1  0  0  0  0
  1  5  2  0  0  0  0
  2  6  2  0  0  0  0
  3  8  2  0  0  0  0
  3 17  1  0  0  0  0
  4  9  1  0  0  0  0
  4 17  2  0  0  0  0
  5 19  1  0  0  0  0
  6 21  1  0  0  0  0
  7 10  2  0  0  0  0
  7 20  1  0  0  0  0
  8 26  1  0  0  0  0
  9 26  2  0  0  0  0
 10 27  1  0  0  0  0
 11 12  2  0  0  0  0
 11 28  1  0  0  0  0
 12 29  1  0  0  0  0
 13 22  1  0  0  0  0
 13 27  2  0  0  0  0
 14 23  1  0  0  0  0
 14 25  2  0  0  0  0
 15 24  1  0  0  0  0
 15 31  2  0  0  0  0
 16 29  2  0  0  0  0
 16 30  1  0  0  0  0
 17 32  1  0  0  0  0
 18 32  1  0  0  0  0
 18 33  2  0  0  0  0
 18 34  1  0  0  0  0
 19 21  2  0  0  0  0
 19 39  1  0  0  0  0
 20 22  2  0  0  0  0
 20 40  1  0  0  0  0
 21 48  1  0  0  0  0
 22 41  1  0  0  0  0
 23 24  2  0  0  0  0
 23 51  1  0  0  0  0
 24 57  1  0  0  0  0
 25 31  1  0  0  0  0
 25 69  1  0  0  0  0
 26 78  1  0  0  0  0
 27 79  1  0  0  0  0
 28 30  2  0  0  0  0
 28 78  1  0  0  0  0
 29 80  1  0  0  0  0
 30 81  1  0  0  0  0
 31 82  1  0  0  0  0
 32 63  2  0  0  0  0
 33 64  1  0  0  0  0
 33 67  1  0  0  0  0
 34 68  1  0  0  0  0
 34 73  2  0  0  0  0
 35 49  1  0  0  0  0
 35 70  1  0  0  0  0
 35 74  2  0  0  0  0
 36 60  1  0  0  0  0
 36 65  1  0  0  0  0
 36 75  2  0  0  0  0
 37 61  1  0  0  0  0
 37 71  1  0  0  0  0
 37 76  2  0  0  0  0
 38 66  1  0  0  0  0
 38 69  1  0  0  0  0
 38 77  2  0  0  0  0
 39 42  1  0  0  0  0
 40 49  1  0  0  0  0
 41 65  1  0  0  0  0
 42 44  1  0  0  0  0
 43 45  1  0  0  0  0
 43 46  1  0  0  0  0
 44 48  1  0  0  0  0
 45 50  1  0  0  0  0
 46 66  1  0  0  0  0
 47 50  1  0  0  0  0
 47 66  1  0  0  0  0
 48 70  1  0  0  0  0
 49 65  1  0  0  0  0
 50 64  1  0  0  0  0
 52 61  1  0  0  0  0
 53 62  1  0  0  0  0
 54 62  1  0  0  0  0
 55 62  1  0  0  0  0
 56 72  1  0  0  0  0
 57 58  1  0  0  0  0
 58 59  1  0  0  0  0
 59 79  1  0  0  0  0
 60 62  1  0  0  0  0
 60 71  1  0  0  0  0
 61 72  1  0  0  0  0
 63 64  1  0  0  0  0
M  CHG  1  72   1
M  ISO  4  38 100  59 101  69 100  79 101
M  END
> <Batch ID>
0013

> <Smiles>
CNC(C)C(=O)NC(C(=O)N1Cc2cc([101O:1][101CH2:1]CCc3cc(Cl)c([100NH:0][100C:0](=O)N4CCCC(n5nc(-c6ccc(Oc7ccc(F)cc7F)cc6)c(C(N)=O)c5N)C4)cc3C)ccc2CC1C(=O)NC1CCCc2ccccc21)C(C)(C)C

> <Shape>
0.222

> <Color>
0.055

> <Negative vol penalty>
0.000

$$$$

  -OEChem-04052315503D

 85 93  0     1  0  0  0  0  0999 V2000
  -30.2128  -31.5748   26.0263 C   0  0  0  0  0  0  0  0  0  0  0  0
  -29.7438  -30.5175   25.2533 C   0  0  0  0  0  0  0  0  0  0  0  0
  -24.3745   -9.4581   21.5483 C   0  0  0  0  0  0  0  0  0  0  0  0
  -24.7478  -10.6501   23.6163 C   0  0  0  0  0  0  0  0  0  0  0  0
  -29.3112  -32.4655   26.6076 C   0  0  0  0  0  0  0  0  0  0  0  0
  -28.3727  -30.3496   25.0621 C   0  0  0  0  0  0  0  0  0  0  0  0
  -27.1939  -29.3298   20.2438 C   0  0  0  0  0  0  0  0  0  0  0  0
  -24.0084   -8.3216   22.2694 C   0  0  0  0  0  0  0  0  0  0  0  0
  -24.3816   -9.5136   24.3375 C   0  0  0  0  0  0  0  0  0  0  0  0
  -27.4084  -28.0264   19.7980 C   0  0  0  0  0  0  0  0  0  0  0  0
  -22.6285   -5.2177   23.5642 C   0  0  0  0  0  0  0  0  0  0  0  0
  -21.4926   -4.5236   23.1480 C   0  0  0  0  0  0  0  0  0  0  0  0
  -25.0616  -27.5480   20.0862 C   0  0  0  0  0  0  0  0  0  0  0  0
  -27.7803  -21.0116   20.5737 C   0  0  0  0  0  0  0  0  0  0  0  0
  -30.0161  -20.8966   19.6656 C   0  0  0  0  0  0  0  0  0  0  0  0
  -20.1510   -6.4992   23.5143 C   0  0  0  0  0  0  0  0  0  0  0  0
  -24.7442  -10.6223   22.2218 C   0  0  0  0  0  0  0  0  0  0  0  0
  -24.2778  -12.8312   21.0338 C   0  0  0  0  0  0  0  0  0  0  0  0
  -27.9289  -32.3140   26.4154 C   0  0  0  0  0  0  0  0  0  0  0  0
  -25.9114  -29.7496   20.6252 C   0  0  0  0  0  0  0  0  0  0  0  0
  -27.4518  -31.2383   25.6424 C   0  0  0  0  0  0  0  0  0  0  0  0
  -24.8330  -28.8581   20.5341 C   0  0  0  0  0  0  0  0  0  0  0  0
  -28.9093  -21.6488   20.0592 C   0  0  0  0  0  0  0  0  0  0  0  0
  -28.8649  -18.8699   20.3013 C   0  0  0  0  0  0  0  0  0  0  0  0
  -24.0120   -8.3494   23.6640 C   0  0  0  0  0  0  0  0  0  0  0  0
  -26.3427  -27.1344   19.7219 C   0  0  0  0  0  0  0  0  0  0  0  0
  -22.5257   -6.5526   23.9557 C   0  0  0  0  0  0  0  0  0  0  0  0
  -27.7581  -19.6221   20.6948 C   0  0  0  0  0  0  0  0  0  0  0  0
  -20.2538   -5.1643   23.1230 C   0  0  0  0  0  0  0  0  0  0  0  0
  -29.9939  -19.5072   19.7867 C   0  0  0  0  0  0  0  0  0  0  0  0
  -21.2870   -7.1934   23.9306 C   0  0  0  0  0  0  0  0  0  0  0  0
  -25.1230  -11.7965   21.4774 C   0  0  0  0  0  0  0  0  0  0  0  0
  -25.1152  -13.7027   20.3813 C   0  0  0  0  0  0  0  0  0  0  0  0
  -22.8623  -12.9903   21.1970 C   0  0  0  0  0  0  0  0  0  0  0  0
  -24.6067  -30.8041   23.3251 C   0  0  0  0  0  0  0  0  0  0  0  0
  -22.0209  -31.2914   21.4281 C   0  0  0  0  0  0  0  0  0  0  0  0
  -27.7205  -23.7784   19.7057 C   0  0  0  0  0  0  0  0  0  0  0  0
  -20.3165  -30.4729   18.5871 C   0  0  0  0  0  0  0  0  0  0  0  0
  -29.8759  -16.5738   20.0729 C   0  0  0  0  0  0  0  0  0  0  0  0
  -26.9909  -33.2744   27.1028 C   0  0  0  0  0  0  0  0  0  0  0  0
  -25.6918  -31.1669   21.0785 C   0  0  0  0  0  0  0  0  0  0  0  0
  -23.4332  -29.2654   20.9123 C   0  0  0  0  0  0  0  0  0  0  0  0
  -25.5711  -33.2450   26.5428 C   0  0  0  0  0  0  0  0  0  0  0  0
  -29.9481  -13.1905   18.9661 C   0  0  0  0  0  0  0  0  0  0  0  0
  -25.0904  -31.8063   26.3818 C   0  0  0  0  0  0  0  0  0  0  0  0
  -28.6297  -12.6113   19.4843 C   0  0  0  0  0  0  0  0  0  0  0  0
  -30.5561  -14.1869   19.9516 C   0  0  0  0  0  0  0  0  0  0  0  0
  -28.3370  -14.6854   20.8983 C   0  0  0  0  0  0  0  0  0  0  0  0
  -25.9730  -31.0373   25.3914 C   0  0  1  0  0  0  0  0  0  0  0  0
  -24.4367  -31.3344   21.9295 C   0  0  1  0  0  0  0  0  0  0  0  0
  -27.6537  -13.7254   19.9108 C   0  0  2  0  0  0  0  0  0  0  0  0
  -18.2155  -31.0132   17.3255 C   0  0  0  0  0  0  0  0  0  0  0  0
  -20.4013  -29.6520   23.4280 C   0  0  0  0  0  0  0  0  0  0  0  0
  -18.6153  -29.4236   21.6884 C   0  0  0  0  0  0  0  0  0  0  0  0
  -19.2312  -31.6813   22.5522 C   0  0  0  0  0  0  0  0  0  0  0  0
  -30.2185  -23.7973   20.0459 C   0  0  0  0  0  0  0  0  0  0  0  0
  -21.8365  -31.4098   16.2269 C   0  0  0  0  0  0  0  0  0  0  0  0
  -25.6353  -18.6388   20.2674 C   0  0  0  0  0  0  0  0  0  0  0  0
  -27.8307  -25.2877   19.5441 C   0  0  0  0  0  0  0  0  0  1  0  0
  -20.8273  -30.4647   21.0147 C   0  0  1  0  0  0  0  0  0  0  0  0
  -19.6914  -31.3337   17.5041 C   0  0  2  0  0  0  0  0  0  0  0  0
  -19.7954  -30.2969   22.1655 C   0  0  0  0  0  0  0  0  0  0  0  0
  -26.3994  -11.9910   21.1355 N   0  0  0  0  0  0  0  0  0  0  0  0
  -26.3625  -13.1580   20.4700 N   0  0  0  0  0  0  0  0  0  0  0  0
  -23.2706  -30.6598   21.3556 N   0  0  0  0  0  0  0  0  0  0  0  0
  -29.5757  -15.2152   20.3069 N   0  0  0  0  0  0  0  0  0  0  0  0
  -24.8989  -14.8740   19.7460 N   0  0  0  0  0  0  0  0  0  0  0  0
  -22.1547  -12.0014   21.8939 N   0  0  0  0  0  0  0  0  0  0  0  0
  -28.8550  -17.4580   20.4203 N   0  0  0  0  0  0  0  0  0  0  0  0
  -25.6369  -31.3965   24.0304 N   0  0  0  0  0  0  0  0  0  0  0  0
  -20.2879  -31.0976   19.8160 N   0  0  0  0  0  0  0  0  0  0  0  0
  -28.9324  -23.0921   19.9331 N   0  0  0  0  0  0  0  0  0  0  0  0
  -20.3816  -31.1105   16.2023 N   0  3  0  0  0  0  0  0  0  0  0  0
  -22.2407  -13.9720   20.7243 O   0  0  0  0  0  0  0  0  0  0  0  0
  -23.8578  -29.9239   23.7324 O   0  0  0  0  0  0  0  0  0  0  0  0
  -21.8515  -32.4569   21.7949 O   0  0  0  0  0  0  0  0  0  0  0  0
  -26.6108  -23.2498   19.6012 O   0  0  0  0  0  0  0  0  0  0  0  0
  -20.7800  -29.3563   18.3657 O   0  0  0  0  0  0  0  0  0  0  0  0
  -30.9481  -16.9249   19.5739 O   0  0  0  0  0  0  0  0  0  0  0  0
  -23.6546   -7.2407   24.3679 O   0  0  0  0  0  0  0  0  0  0  0  0
  -26.6448  -19.0192   21.1998 O   0  0  0  0  0  0  0  0  0  0  0  0
  -26.5495  -25.8613   19.2877 O   0  0  0  0  0  0  0  0  0  1  0  0
  -19.1633   -4.4980   22.7217 F   0  0  0  0  0  0  0  0  0  0  0  0
  -31.0642  -18.7954   19.4048 F   0  0  0  0  0  0  0  0  0  0  0  0
  -21.1822   -8.4760   24.3043 F   0  0  0  0  0  0  0  0  0  0  0  0
  1  2  1  0  0  0  0
  1  5  2  0  0  0  0
  2  6  2  0  0  0  0
  3  8  2  0  0  0  0
  3 17  1  0  0  0  0
  4  9  1  0  0  0  0
  4 17  2  0  0  0  0
  5 19  1  0  0  0  0
  6 21  1  0  0  0  0
  7 10  2  0  0  0  0
  7 20  1  0  0  0  0
  8 25  1  0  0  0  0
  9 25  2  0  0  0  0
 10 26  1  0  0  0  0
 11 12  2  0  0  0  0
 11 27  1  0  0  0  0
 12 29  1  0  0  0  0
 13 22  1  0  0  0  0
 13 26  2  0  0  0  0
 14 23  2  0  0  0  0
 14 28  1  0  0  0  0
 15 23  1  0  0  0  0
 15 30  2  0  0  0  0
 16 29  2  0  0  0  0
 16 31  1  0  0  0  0
 17 32  1  0  0  0  0
 18 32  1  0  0  0  0
 18 33  2  0  0  0  0
 18 34  1  0  0  0  0
 19 21  2  0  0  0  0
 19 40  1  0  0  0  0
 20 22  2  0  0  0  0
 20 41  1  0  0  0  0
 21 49  1  0  0  0  0
 22 42  1  0  0  0  0
 23 72  1  0  0  0  0
 24 28  2  0  0  0  0
 24 30  1  0  0  0  0
 24 69  1  0  0  0  0
 25 80  1  0  0  0  0
 26 82  1  0  0  0  0
 27 31  2  0  0  0  0
 27 80  1  0  0  0  0
 28 81  1  0  0  0  0
 29 83  1  0  0  0  0
 30 84  1  0  0  0  0
 31 85  1  0  0  0  0
 32 63  2  0  0  0  0
 33 64  1  0  0  0  0
 33 67  1  0  0  0  0
 34 68  1  0  0  0  0
 34 74  2  0  0  0  0
 35 50  1  0  0  0  0
 35 70  1  0  0  0  0
 35 75  2  0  0  0  0
 36 60  1  0  0  0  0
 36 65  1  0  0  0  0
 36 76  2  0  0  0  0
 37 59  1  0  0  0  0
 37 72  1  0  0  0  0
 37 77  2  0  0  0  0
 38 61  1  0  0  0  0
 38 71  1  0  0  0  0
 38 78  2  0  0  0  0
 39 66  1  0  0  0  0
 39 69  1  0  0  0  0
 39 79  2  0  0  0  0
 40 43  1  0  0  0  0
 41 50  1  0  0  0  0
 42 65  1  0  0  0  0
 43 45  1  0  0  0  0
 44 46  1  0  0  0  0
 44 47  1  0  0  0  0
 45 49  1  0  0  0  0
 46 51  1  0  0  0  0
 47 66  1  0  0  0  0
 48 51  1  0  0  0  0
 48 66  1  0  0  0  0
 49 70  1  0  0  0  0
 50 65  1  0  0  0  0
 51 64  1  0  0  0  0
 52 61  1  0  0  0  0
 53 62  1  0  0  0  0
 54 62  1  0  0  0  0
 55 62  1  0  0  0  0
 56 72  1  0  0  0  0
 57 73  1  0  0  0  0
 58 81  1  0  0  0  0
 59 82  1  0  0  0  0
 60 62  1  0  0  0  0
 60 71  1  0  0  0  0
 61 73  1  0  0  0  0
 63 64  1  0  0  0  0
M  CHG  1  73   1
M  ISO  4  39 100  59 101  69 100  82 101
M  END
> <Batch ID>
0013

> <Smiles>
CNC(C)C(=O)NC(C(=O)N1Cc2cc([101O:1][101CH2:1]C(=O)N(C)c3cc(F)c([100NH:0][100C:0](=O)N4CCCC(n5nc(-c6ccc(Oc7ccc(F)cc7F)cc6)c(C(N)=O)c5N)C4)c(OC)c3)ccc2CC1C(=O)NC1CCCc2ccccc21)C(C)(C)C

> <Shape>
0.356

> <Color>
0.140

> <Negative vol penalty>
0.000

$$$$

  -OEChem-04052315503D

 85 93  0     1  0  0  0  0  0999 V2000
  -19.6890  -14.8679   38.5644 C   0  0  0  0  0  0  0  0  0  0  0  0
  -20.7344  -14.1937   37.9415 C   0  0  0  0  0  0  0  0  0  0  0  0
  -23.1906   -9.8194   19.9318 C   0  0  0  0  0  0  0  0  0  0  0  0
  -23.5701   -9.9992   22.3110 C   0  0  0  0  0  0  0  0  0  0  0  0
  -18.9661  -15.8315   37.8625 C   0  0  0  0  0  0  0  0  0  0  0  0
  -21.0568  -14.4820   36.6159 C   0  0  0  0  0  0  0  0  0  0  0  0
  -26.6388  -14.4615   34.0966 C   0  0  0  0  0  0  0  0  0  0  0  0
  -22.4248   -8.6724   20.1406 C   0  0  0  0  0  0  0  0  0  0  0  0
  -22.8042   -8.8522   22.5198 C   0  0  0  0  0  0  0  0  0  0  0  0
  -27.3201  -13.5141   33.3336 C   0  0  0  0  0  0  0  0  0  0  0  0
  -23.2063   -5.5058   22.2546 C   0  0  0  0  0  0  0  0  0  0  0  0
  -23.7055   -4.5443   23.1332 C   0  0  0  0  0  0  0  0  0  0  0  0
  -26.6137  -14.6375   31.3190 C   0  0  0  0  0  0  0  0  0  0  0  0
  -32.4132  -13.9229   23.9923 C   0  0  0  0  0  0  0  0  0  0  0  0
  -21.7496   -4.8033   24.5277 C   0  0  0  0  0  0  0  0  0  0  0  0
  -23.7633  -10.4828   21.0170 C   0  0  0  0  0  0  0  0  0  0  0  0
  -24.1010  -12.9996   20.7738 C   0  0  0  0  0  0  0  0  0  0  0  0
  -19.2861  -16.1387   36.5306 C   0  0  0  0  0  0  0  0  0  0  0  0
  -25.9296  -15.4994   33.4752 C   0  0  0  0  0  0  0  0  0  0  0  0
  -20.3367  -15.4497   35.8950 C   0  0  0  0  0  0  0  0  0  0  0  0
  -25.9264  -15.5982   32.0765 C   0  0  0  0  0  0  0  0  0  0  0  0
  -31.7463  -12.7321   26.4254 C   0  0  0  0  0  0  0  0  0  0  0  0
  -30.9940  -12.4551   25.2838 C   0  0  0  0  0  0  0  0  0  0  0  0
  -32.8320  -13.6046   26.3503 C   0  0  0  0  0  0  0  0  0  0  0  0
  -31.3275  -13.0504   24.0673 C   0  0  0  0  0  0  0  0  0  0  0  0
  -22.2316   -8.1888   21.4346 C   0  0  0  0  0  0  0  0  0  0  0  0
  -27.3052  -13.6003   31.9445 C   0  0  0  0  0  0  0  0  0  0  0  0
  -21.9788   -6.1160   22.5125 C   0  0  0  0  0  0  0  0  0  0  0  0
  -22.9771   -4.1931   24.2698 C   0  0  0  0  0  0  0  0  0  0  0  0
  -21.2504   -5.7647   23.6490 C   0  0  0  0  0  0  0  0  0  0  0  0
  -33.1655  -14.1999   25.1338 C   0  0  0  0  0  0  0  0  0  0  0  0
  -24.5549  -11.6673   20.8019 C   0  0  0  0  0  0  0  0  0  0  0  0
  -25.2318  -13.7427   20.5381 C   0  0  0  0  0  0  0  0  0  0  0  0
  -22.7757  -13.5190   20.9455 C   0  0  0  0  0  0  0  0  0  0  0  0
  -22.8809  -16.3944   33.3876 C   0  0  0  0  0  0  0  0  0  0  0  0
  -24.0771  -18.9309   31.7573 C   0  0  0  0  0  0  0  0  0  0  0  0
  -29.7113  -12.3071   29.5599 C   0  0  0  0  0  0  0  0  0  0  0  0
  -26.5785  -20.2118   29.8210 C   0  0  0  0  0  0  0  0  0  0  0  0
  -31.0371  -12.7838   21.5792 C   0  0  0  0  0  0  0  0  0  0  0  0
  -18.4457  -17.1543   35.7978 C   0  0  0  0  0  0  0  0  0  0  0  0
  -25.2221  -16.5288   34.3131 C   0  0  0  0  0  0  0  0  0  0  0  0
  -25.1970  -16.7050   31.3613 C   0  0  0  0  0  0  0  0  0  0  0  0
  -19.0924  -17.6676   34.5138 C   0  0  0  0  0  0  0  0  0  0  0  0
  -29.5228  -13.4658   18.4298 C   0  0  0  0  0  0  0  0  0  0  0  0
  -19.6442  -16.5064   33.6928 C   0  0  0  0  0  0  0  0  0  0  0  0
  -28.0349  -13.2091   18.6797 C   0  0  0  0  0  0  0  0  0  0  0  0
  -30.4046  -12.4809   19.1952 C   0  0  0  0  0  0  0  0  0  0  0  0
  -28.6458  -12.1383   20.8859 C   0  0  0  0  0  0  0  0  0  0  0  0
  -20.7326  -15.7521   34.4661 C   0  0  1  0  0  0  0  0  0  0  0  0
  -24.1059  -17.2470   33.5609 C   0  0  1  0  0  0  0  0  0  0  0  0
  -27.7193  -13.1467   20.1871 C   0  0  2  0  0  0  0  0  0  0  0  0
  -29.8292  -11.5185   25.3663 C   0  0  0  0  0  0  0  0  0  0  0  0
  -33.6308  -13.8930   27.5835 C   0  0  0  0  0  0  0  0  0  0  0  0
  -27.2581  -22.3018   28.6095 C   0  0  0  0  0  0  0  0  0  0  0  0
  -22.0601  -18.3069   29.5545 C   0  0  0  0  0  0  0  0  0  0  0  0
  -23.3893  -19.7709   28.0188 C   0  0  0  0  0  0  0  0  0  0  0  0
  -22.3331  -20.7408   30.0600 C   0  0  0  0  0  0  0  0  0  0  0  0
  -29.0322  -20.4977   31.4510 C   0  0  0  0  0  0  0  0  0  0  0  0
  -31.3862  -12.0906   27.7342 C   0  0  0  0  0  0  0  0  0  0  0  0
  -28.4837  -13.1079   29.9384 C   0  0  0  0  0  0  0  0  0  1  0  0
  -24.3496  -19.2355   30.3040 C   0  0  1  0  0  0  0  0  0  0  0  0
  -27.3524  -21.5149   29.9075 C   0  0  2  0  0  0  0  0  0  0  0  0
  -23.0453  -19.4914   29.4974 C   0  0  0  0  0  0  0  0  0  0  0  0
  -25.8714  -11.5668   20.6000 N   0  0  0  0  0  0  0  0  0  0  0  0
  -26.2544  -12.8453   20.4427 N   0  0  0  0  0  0  0  0  0  0  0  0
  -24.5150  -17.6835   32.2244 N   0  0  0  0  0  0  0  0  0  0  0  0
  -30.0516  -12.4789   20.6166 N   0  0  0  0  0  0  0  0  0  0  0  0
  -25.4412  -15.0697   20.4052 N   0  0  0  0  0  0  0  0  0  0  0  0
  -21.7294  -12.6164   21.1798 N   0  0  0  0  0  0  0  0  0  0  0  0
  -30.5770  -12.7830   22.8956 N   0  0  0  0  0  0  0  0  0  0  0  0
  -21.9790  -16.4867   34.4304 N   0  0  0  0  0  0  0  0  0  0  0  0
  -30.2181  -12.6968   28.3301 N   0  0  0  0  0  0  0  0  0  0  0  0
  -25.2894  -20.3513   30.2901 N   0  0  0  0  0  0  0  0  0  0  0  0
  -28.7906  -21.2455   30.1903 N   0  3  0  0  0  0  0  0  0  0  0  0
  -22.5240  -14.7460   20.8763 O   0  0  0  0  0  0  0  0  0  0  0  0
  -22.7619  -15.7051   32.3814 O   0  0  0  0  0  0  0  0  0  0  0  0
  -23.5035  -19.7716   32.4541 O   0  0  0  0  0  0  0  0  0  0  0  0
  -30.1760  -11.4249   30.2767 O   0  0  0  0  0  0  0  0  0  0  0  0
  -27.0674  -19.1749   29.3780 O   0  0  0  0  0  0  0  0  0  0  0  0
  -32.1969  -13.0544   21.2573 O   0  0  0  0  0  0  0  0  0  0  0  0
  -21.4842   -7.0698   21.6387 O   0  0  0  0  0  0  0  0  0  0  0  0
  -27.9688  -12.6765   31.1974 O   0  0  0  0  0  0  0  0  0  1  0  0
  -23.4559   -3.2687   25.1126 F   0  0  0  0  0  0  0  0  0  0  0  0
  -20.0700   -6.3467   23.9014 F   0  0  0  0  0  0  0  0  0  0  0  0
  -34.5017  -15.2853   24.9988 Cl  0  0  0  0  0  0  0  0  0  0  0  0
  1  2  1  0  0  0  0
  1  5  2  0  0  0  0
  2  6  2  0  0  0  0
  3  8  2  0  0  0  0
  3 16  1  0  0  0  0
  4  9  1  0  0  0  0
  4 16  2  0  0  0  0
  5 18  1  0  0  0  0
  6 20  1  0  0  0  0
  7 10  2  0  0  0  0
  7 19  1  0  0  0  0
  8 26  1  0  0  0  0
  9 26  2  0  0  0  0
 10 27  1  0  0  0  0
 11 12  2  0  0  0  0
 11 28  1  0  0  0  0
 12 29  1  0  0  0  0
 13 21  1  0  0  0  0
 13 27  2  0  0  0  0
 14 25  2  0  0  0  0
 14 31  1  0  0  0  0
 15 29  2  0  0  0  0
 15 30  1  0  0  0  0
 16 32  1  0  0  0  0
 17 32  1  0  0  0  0
 17 33  2  0  0  0  0
 17 34  1  0  0  0  0
 18 20  2  0  0  0  0
 18 40  1  0  0  0  0
 19 21  2  0  0  0  0
 19 41  1  0  0  0  0
 20 49  1  0  0  0  0
 21 42  1  0  0  0  0
 22 23  2  0  0  0  0
 22 24  1  0  0  0  0
 22 59  1  0  0  0  0
 23 25  1  0  0  0  0
 23 52  1  0  0  0  0
 24 31  2  0  0  0  0
 24 53  1  0  0  0  0
 25 70  1  0  0  0  0
 26 81  1  0  0  0  0
 27 82  1  0  0  0  0
 28 30  2  0  0  0  0
 28 81  1  0  0  0  0
 29 83  1  0  0  0  0
 30 84  1  0  0  0  0
 31 85  1  0  0  0  0
 32 64  2  0  0  0  0
 33 65  1  0  0  0  0
 33 68  1  0  0  0  0
 34 69  1  0  0  0  0
 34 75  2  0  0  0  0
 35 50  1  0  0  0  0
 35 71  1  0  0  0  0
 35 76  2  0  0  0  0
 36 61  1  0  0  0  0
 36 66  1  0  0  0  0
 36 77  2  0  0  0  0
 37 60  1  0  0  0  0
 37 72  1  0  0  0  0
 37 78  2  0  0  0  0
 38 62  1  0  0  0  0
 38 73  1  0  0  0  0
 38 79  2  0  0  0  0
 39 67  1  0  0  0  0
 39 70  1  0  0  0  0
 39 80  2  0  0  0  0
 40 43  1  0  0  0  0
 41 50  1  0  0  0  0
 42 66  1  0  0  0  0
 43 45  1  0  0  0  0
 44 46  1  0  0  0  0
 44 47  1  0  0  0  0
 45 49  1  0  0  0  0
 46 51  1  0  0  0  0
 47 67  1  0  0  0  0
 48 51  1  0  0  0  0
 48 67  1  0  0  0  0
 49 71  1  0  0  0  0
 50 66  1  0  0  0  0
 51 65  1  0  0  0  0
 54 62  1  0  0  0  0
 55 63  1  0  0  0  0
 56 63  1  0  0  0  0
 57 63  1  0  0  0  0
 58 74  1  0  0  0  0
 59 72  1  0  0  0  0
 60 82  1  0  0  0  0
 61 63  1  0  0  0  0
 61 73  1  0  0  0  0
 62 74  1  0  0  0  0
 64 65  1  0  0  0  0
M  CHG  1  74   1
M  ISO  4  39 100  60 101  70 100  82 101
M  END
> <Batch ID>
0013

> <Smiles>
CNC(C)C(=O)NC(C(=O)N1Cc2cc([101O:1][101CH2:1]C(=O)NCc3c(C)c(Cl)cc([100NH:0][100C:0](=O)N4CCCC(n5nc(-c6ccc(Oc7ccc(F)cc7F)cc6)c(C(N)=O)c5N)C4)c3C)ccc2CC1C(=O)NC1CCCc2ccccc21)C(C)(C)C

> <Shape>
0.139

> <Color>
0.182

> <Negative vol penalty>
0.000

$$$$

  -OEChem-04052315503D

 88 96  0     1  0  0  0  0  0999 V2000
  -21.7710  -35.1953   21.1784 C   0  0  0  0  0  0  0  0  0  0  0  0
  -22.8968  -34.4014   20.9842 C   0  0  0  0  0  0  0  0  0  0  0  0
  -26.5401  -12.3338   21.7068 C   0  0  0  0  0  0  0  0  0  0  0  0
  -25.9821  -13.6277   19.7443 C   0  0  0  0  0  0  0  0  0  0  0  0
  -27.7784  -23.6599   18.9906 C   0  0  0  0  0  0  0  0  0  0  0  0
  -20.7957  -34.8073   22.0961 C   0  0  0  0  0  0  0  0  0  0  0  0
  -23.0484  -33.2195   21.7084 C   0  0  0  0  0  0  0  0  0  0  0  0
  -24.5806  -29.3535   18.8186 C   0  0  0  0  0  0  0  0  0  0  0  0
  -25.2853  -11.7263   21.6632 C   0  0  0  0  0  0  0  0  0  0  0  0
  -24.7273  -13.0202   19.7006 C   0  0  0  0  0  0  0  0  0  0  0  0
  -25.9319  -29.3096   18.4779 C   0  0  0  0  0  0  0  0  0  0  0  0
  -23.7716   -9.2591   19.9154 C   0  0  0  0  0  0  0  0  0  0  0  0
  -27.6692  -23.4804   20.3695 C   0  0  0  0  0  0  0  0  0  0  0  0
  -23.7140   -7.8769   20.0938 C   0  0  0  0  0  0  0  0  0  0  0  0
  -26.3106  -27.6788   20.2147 C   0  0  0  0  0  0  0  0  0  0  0  0
  -22.3065   -8.1860   22.0330 C   0  0  0  0  0  0  0  0  0  0  0  0
  -26.8885  -13.2845   20.7474 C   0  0  0  0  0  0  0  0  0  0  0  0
  -28.4447  -22.7116   18.2144 C   0  0  0  0  0  0  0  0  0  0  0  0
  -29.3652  -13.4716   20.1656 C   0  0  0  0  0  0  0  0  0  0  0  0
  -20.9307  -33.6151   22.8248 C   0  0  0  0  0  0  0  0  0  0  0  0
  -24.0855  -28.5671   19.8688 C   0  0  0  0  0  0  0  0  0  0  0  0
  -22.0746  -32.8158   22.6376 C   0  0  0  0  0  0  0  0  0  0  0  0
  -24.9522  -27.7126   20.5650 C   0  0  0  0  0  0  0  0  0  0  0  0
  -28.8926  -21.4043   20.1962 C   0  0  0  0  0  0  0  0  0  0  0  0
  -24.3788  -12.0695   20.6600 C   0  0  0  0  0  0  0  0  0  0  0  0
  -26.7976  -28.4744   19.1779 C   0  0  0  0  0  0  0  0  0  0  0  0
  -23.0968  -10.1048   20.7959 C   0  0  0  0  0  0  0  0  0  0  0  0
  -22.9814   -7.3403   21.1526 C   0  0  0  0  0  0  0  0  0  0  0  0
  -28.2263  -22.3527   20.9723 C   0  0  0  0  0  0  0  0  0  0  0  0
  -22.3642   -9.5682   21.8546 C   0  0  0  0  0  0  0  0  0  0  0  0
  -29.0018  -21.5838   18.8172 C   0  0  0  0  0  0  0  0  0  0  0  0
  -28.1844  -13.9128   20.7924 C   0  0  0  0  0  0  0  0  0  0  0  0
  -30.3087  -14.4073   20.5132 C   0  0  0  0  0  0  0  0  0  0  0  0
  -28.5578  -22.9052   16.7601 C   0  0  0  0  0  0  0  0  0  0  0  0
  -29.5892  -12.3191   19.3426 C   0  0  0  0  0  0  0  0  0  0  0  0
  -22.6941  -29.1732   22.6617 C   0  0  0  0  0  0  0  0  0  0  0  0
  -22.3575  -25.9482   22.7520 C   0  0  0  0  0  0  0  0  0  0  0  0
  -23.5242  -22.5768   22.2132 C   0  0  0  0  0  0  0  0  0  0  0  0
  -29.9632  -20.1565   22.1049 C   0  0  0  0  0  0  0  0  0  0  0  0
  -19.8731  -33.2611   23.8401 C   0  0  0  0  0  0  0  0  0  0  0  0
  -22.6202  -28.6060   20.2063 C   0  0  0  0  0  0  0  0  0  0  0  0
  -24.4666  -26.8333   21.6873 C   0  0  0  0  0  0  0  0  0  0  0  0
  -19.9280  -31.8047   24.2943 C   0  0  0  0  0  0  0  0  0  0  0  0
  -31.4036  -17.5061   23.9964 C   0  0  0  0  0  0  0  0  0  0  0  0
  -21.3621  -31.4015   24.6220 C   0  0  0  0  0  0  0  0  0  0  0  0
  -30.8539  -16.2436   23.3286 C   0  0  0  0  0  0  0  0  0  0  0  0
  -30.3692  -18.6299   24.0232 C   0  0  0  0  0  0  0  0  0  0  0  0
  -29.2233  -17.6936   22.0536 C   0  0  0  0  0  0  0  0  0  0  0  0
  -22.2630  -31.5142   23.3862 C   0  0  1  0  0  0  0  0  0  0  0  0
  -22.3227  -28.1458   21.6301 C   0  0  1  0  0  0  0  0  0  0  0  0
  -30.2507  -16.5551   21.9448 C   0  0  2  0  0  0  0  0  0  0  0  0
  -22.3725  -20.3756   22.5680 C   0  0  0  0  0  0  0  0  0  0  0  0
  -23.7129  -26.0086   25.4850 C   0  0  0  0  0  0  0  0  0  0  0  0
  -24.0906  -23.5426   25.2747 C   0  0  0  0  0  0  0  0  0  0  0  0
  -21.7663  -24.4472   25.3202 C   0  0  0  0  0  0  0  0  0  0  0  0
  -29.8078  -23.7938   14.8309 C   0  0  0  0  0  0  0  0  0  0  0  0
  -24.0125  -21.7389   19.4171 C   0  0  0  0  0  0  0  0  0  0  0  0
  -29.5789  -26.4292   17.3216 C   0  0  0  0  0  0  0  0  0  0  0  0
  -30.8532  -25.6833   16.9149 C   0  0  0  0  0  0  0  0  0  0  0  0
  -29.7313  -27.9359   17.1217 C   0  0  0  0  0  0  0  0  0  0  0  0
  -30.7299  -24.1733   17.0902 C   0  0  0  0  0  0  0  0  0  0  0  0
  -28.4544  -28.6825   17.4845 C   0  0  0  0  0  0  0  0  0  1  0  0
  -23.1936  -24.7999   23.2634 C   0  0  1  0  0  0  0  0  0  0  0  0
  -22.7568  -21.4438   21.5560 C   0  0  2  0  0  0  0  0  0  0  0  0
  -23.2007  -24.7175   24.8160 C   0  0  0  0  0  0  0  0  0  0  0  0
  -28.3592  -15.0409   21.4858 N   0  0  0  0  0  0  0  0  0  0  0  0
  -29.6610  -15.3165   21.2968 N   0  0  0  0  0  0  0  0  0  0  0  0
  -23.0267  -26.9116   21.9839 N   0  0  0  0  0  0  0  0  0  0  0  0
  -29.8450  -18.8723   22.6773 N   0  0  0  0  0  0  0  0  0  0  0  0
  -31.6209  -14.5329   20.2220 N   0  0  0  0  0  0  0  0  0  0  0  0
  -28.5105  -11.4621   19.0852 N   0  0  0  0  0  0  0  0  0  0  0  0
  -29.4582  -20.2588   20.8091 N   0  0  0  0  0  0  0  0  0  0  0  0
  -22.0529  -30.3870   22.5031 N   0  0  0  0  0  0  0  0  0  0  0  0
  -22.6877  -23.6011   22.6037 N   0  0  0  0  0  0  0  0  0  0  0  0
  -29.6842  -23.6111   16.2812 N   0  0  0  0  0  0  0  0  0  0  0  0
  -23.5835  -20.8073   20.4918 N   0  3  0  0  0  0  0  0  0  0  0  0
  -27.6576  -22.4214   16.0748 O   0  0  0  0  0  0  0  0  0  0  0  0
  -30.7165  -12.0482   18.8636 O   0  0  0  0  0  0  0  0  0  0  0  0
  -23.5014  -28.8855   23.5376 O   0  0  0  0  0  0  0  0  0  0  0  0
  -21.1536  -25.9851   23.0180 O   0  0  0  0  0  0  0  0  0  0  0  0
  -24.7431  -22.5538   22.3683 O   0  0  0  0  0  0  0  0  0  0  0  0
  -30.4993  -21.0893   22.7086 O   0  0  0  0  0  0  0  0  0  0  0  0
  -23.1544  -11.4767   20.6170 O   0  0  0  0  0  0  0  0  0  0  0  0
  -28.1171  -28.4301   18.8479 O   0  0  0  0  0  0  0  0  0  1  0  0
  -22.9248   -6.0129   21.3229 F   0  0  0  0  0  0  0  0  0  0  0  0
  -28.1151  -22.1909   22.2985 F   0  0  0  0  0  0  0  0  0  0  0  0
  -21.7128  -10.3755   22.7030 F   0  0  0  0  0  0  0  0  0  0  0  0
  -29.6428  -20.6717   18.0703 F   0  0  0  0  0  0  0  0  0  0  0  0
  1  2  1  0  0  0  0
  1  6  2  0  0  0  0
  2  7  2  0  0  0  0
  3  9  2  0  0  0  0
  3 17  1  0  0  0  0
  4 10  1  0  0  0  0
  4 17  2  0  0  0  0
  5 13  2  0  0  0  0
  5 18  1  0  0  0  0
  6 20  1  0  0  0  0
  7 22  1  0  0  0  0
  8 11  2  0  0  0  0
  8 21  1  0  0  0  0
  9 25  1  0  0  0  0
 10 25  2  0  0  0  0
 11 26  1  0  0  0  0
 12 14  2  0  0  0  0
 12 27  1  0  0  0  0
 13 29  1  0  0  0  0
 14 28  1  0  0  0  0
 15 23  1  0  0  0  0
 15 26  2  0  0  0  0
 16 28  2  0  0  0  0
 16 30  1  0  0  0  0
 17 32  1  0  0  0  0
 18 31  2  0  0  0  0
 18 34  1  0  0  0  0
 19 32  1  0  0  0  0
 19 33  2  0  0  0  0
 19 35  1  0  0  0  0
 20 22  2  0  0  0  0
 20 40  1  0  0  0  0
 21 23  2  0  0  0  0
 21 41  1  0  0  0  0
 22 49  1  0  0  0  0
 23 42  1  0  0  0  0
 24 29  2  0  0  0  0
 24 31  1  0  0  0  0
 24 72  1  0  0  0  0
 25 83  1  0  0  0  0
 26 84  1  0  0  0  0
 27 30  2  0  0  0  0
 27 83  1  0  0  0  0
 28 85  1  0  0  0  0
 29 86  1  0  0  0  0
 30 87  1  0  0  0  0
 31 88  1  0  0  0  0
 32 66  2  0  0  0  0
 33 67  1  0  0  0  0
 33 70  1  0  0  0  0
 34 75  1  0  0  0  0
 34 77  2  0  0  0  0
 35 71  1  0  0  0  0
 35 78  2  0  0  0  0
 36 50  1  0  0  0  0
 36 73  1  0  0  0  0
 36 79  2  0  0  0  0
 37 63  1  0  0  0  0
 37 68  1  0  0  0  0
 37 80  2  0  0  0  0
 38 64  1  0  0  0  0
 38 74  1  0  0  0  0
 38 81  2  0  0  0  0
 39 69  1  0  0  0  0
 39 72  1  0  0  0  0
 39 82  2  0  0  0  0
 40 43  1  0  0  0  0
 41 50  1  0  0  0  0
 42 68  1  0  0  0  0
 43 45  1  0  0  0  0
 44 46  1  0  0  0  0
 44 47  1  0  0  0  0
 45 49  1  0  0  0  0
 46 51  1  0  0  0  0
 47 69  1  0  0  0  0
 48 51  1  0  0  0  0
 48 69  1  0  0  0  0
 49 73  1  0  0  0  0
 50 68  1  0  0  0  0
 51 67  1  0  0  0  0
 52 64  1  0  0  0  0
 53 65  1  0  0  0  0
 54 65  1  0  0  0  0
 55 65  1  0  0  0  0
 56 75  1  0  0  0  0
 57 76  1  0  0  0  0
 58 59  1  0  0  0  0
 58 60  1  0  0  0  0
 59 61  1  0  0  0  0
 60 62  1  0  0  0  0
 61 75  1  0  0  0  0
 62 84  1  0  0  0  0
 63 65  1  0  0  0  0
 63 74  1  0  0  0  0
 64 76  1  0  0  0  0
 66 67  1  0  0  0  0
M  CHG  1  76   1
M  ISO  4  39 100  62 101  72 100  84 101
M  END
> <Batch ID>
0013

> <Smiles>
CNC(C)C(=O)NC(C(=O)N1Cc2cc([101O:1][101CH2:1]CCCCN(C)C(=O)c3ccc(F)c([100NH:0][100C:0](=O)N4CCCC(n5nc(-c6ccc(Oc7ccc(F)cc7F)cc6)c(C(N)=O)c5N)C4)c3F)ccc2CC1C(=O)NC1CCCc2ccccc21)C(C)(C)C

> <Shape>
0.244

> <Color>
0.082

> <Negative vol penalty>
0.000

$$$$

  -OEChem-04052315503D

 90 98  0     1  0  0  0  0  0999 V2000
  -26.8824  -37.2087   22.5211 C   0  0  0  0  0  0  0  0  0  0  0  0
  -27.4516  -36.0500   22.0026 C   0  0  0  0  0  0  0  0  0  0  0  0
  -27.2799  -16.2165   25.6339 C   0  0  0  0  0  0  0  0  0  0  0  0
  -29.4796  -16.5223   24.6827 C   0  0  0  0  0  0  0  0  0  0  0  0
  -25.9169  -37.1217   23.5231 C   0  0  0  0  0  0  0  0  0  0  0  0
  -27.0564  -34.8035   22.4868 C   0  0  0  0  0  0  0  0  0  0  0  0
  -26.5847  -29.5962   19.2982 C   0  0  0  0  0  0  0  0  0  0  0  0
  -27.7642  -16.6114   26.8809 C   0  0  0  0  0  0  0  0  0  0  0  0
  -29.9639  -16.9172   25.9298 C   0  0  0  0  0  0  0  0  0  0  0  0
  -27.4375  -28.5023   19.1568 C   0  0  0  0  0  0  0  0  0  0  0  0
  -28.5333  -19.5049   28.4521 C   0  0  0  0  0  0  0  0  0  0  0  0
  -27.7681  -20.4097   29.1878 C   0  0  0  0  0  0  0  0  0  0  0  0
  -26.2233  -27.3398   20.8870 C   0  0  0  0  0  0  0  0  0  0  0  0
  -27.5734  -18.7935   30.9731 C   0  0  0  0  0  0  0  0  0  0  0  0
  -28.1376  -16.1719   24.5347 C   0  0  0  0  0  0  0  0  0  0  0  0
  -26.6139  -16.3752   22.4989 C   0  0  0  0  0  0  0  0  0  0  0  0
  -25.5026  -35.8731   24.0130 C   0  0  0  0  0  0  0  0  0  0  0  0
  -25.5498  -29.5743   20.2442 C   0  0  0  0  0  0  0  0  0  0  0  0
  -26.0854  -34.6997   23.4973 C   0  0  0  0  0  0  0  0  0  0  0  0
  -25.3572  -28.4337   21.0366 C   0  0  0  0  0  0  0  0  0  0  0  0
  -29.1062  -16.9618   27.0289 C   0  0  0  0  0  0  0  0  0  0  0  0
  -27.2587  -27.3751   19.9533 C   0  0  0  0  0  0  0  0  0  0  0  0
  -28.8185  -18.2443   28.9768 C   0  0  0  0  0  0  0  0  0  0  0  0
  -27.2882  -20.0541   30.4483 C   0  0  0  0  0  0  0  0  0  0  0  0
  -28.3386  -17.8887   30.2373 C   0  0  0  0  0  0  0  0  0  0  0  0
  -27.6381  -15.7635   23.2464 C   0  0  0  0  0  0  0  0  0  0  0  0
  -26.5188  -15.6138   21.3597 C   0  0  0  0  0  0  0  0  0  0  0  0
  -25.8196  -17.5284   22.8068 C   0  0  0  0  0  0  0  0  0  0  0  0
  -24.8283  -31.2919   22.8196 C   0  0  0  0  0  0  0  0  0  0  0  0
  -27.0355  -11.6667   11.8622 C   0  0  0  0  0  0  0  0  0  0  0  0
  -22.1228  -29.5028   22.7757 C   0  0  0  0  0  0  0  0  0  0  0  0
  -19.7054  -27.6373   22.0098 C   0  0  0  0  0  0  0  0  0  0  0  0
  -28.7393  -12.8211   17.1790 C   0  0  0  0  0  0  0  0  0  0  0  0
  -24.4900  -35.8312   25.1300 C   0  0  0  0  0  0  0  0  0  0  0  0
  -24.6219  -30.7518   20.3657 C   0  0  0  0  0  0  0  0  0  0  0  0
  -24.2486  -28.3521   22.0529 C   0  0  0  0  0  0  0  0  0  0  0  0
  -23.8548  -34.4569   25.3250 C   0  0  0  0  0  0  0  0  0  0  0  0
  -28.5403  -11.1339   20.2022 C   0  0  0  0  0  0  0  0  0  0  0  0
  -24.9241  -33.3691   25.3212 C   0  0  0  0  0  0  0  0  0  0  0  0
  -28.2067  -12.2299   21.2134 C   0  0  0  0  0  0  0  0  0  0  0  0
  -27.0796  -13.7571   14.8449 C   0  0  0  0  0  0  0  0  0  0  0  0
  -29.3965  -12.9617   14.2393 C   0  0  0  0  0  0  0  0  0  0  0  0
  -29.5621  -11.6255   19.1839 C   0  0  0  0  0  0  0  0  0  0  0  0
  -26.6945  -13.6863   13.3678 C   0  0  0  0  0  0  0  0  0  0  0  0
  -28.9674  -12.9108   12.7747 C   0  0  0  0  0  0  0  0  0  0  0  0
  -28.7958  -13.9633   19.4456 C   0  0  0  0  0  0  0  0  0  0  0  0
  -25.6648  -33.3282   23.9791 C   0  0  1  0  0  0  0  0  0  0  0  0
  -23.9201  -30.8224   21.7185 C   0  0  1  0  0  0  0  0  0  0  0  0
  -27.7626  -13.5198   20.5017 C   0  0  2  0  0  0  0  0  0  0  0  0
  -28.5815  -13.9976   15.0182 C   0  0  0  0  0  0  0  0  0  0  0  0
  -25.5365  -11.5519   11.7436 C   0  0  0  0  0  0  0  0  0  0  0  0
  -17.6401  -29.0078   22.4017 C   0  0  0  0  0  0  0  0  0  0  0  0
  -23.6976  -28.1561   25.0154 C   0  0  0  0  0  0  0  0  0  0  0  0
  -21.7366  -26.6458   25.3916 C   0  0  0  0  0  0  0  0  0  0  0  0
  -21.4933  -29.1071   25.7160 C   0  0  0  0  0  0  0  0  0  0  0  0
  -18.1645  -25.2724   22.8997 C   0  0  0  0  0  0  0  0  0  0  0  0
  -29.8592  -20.0919   17.8466 C   0  0  0  0  0  0  0  0  0  0  0  0
  -29.0348  -21.3800   17.9048 C   0  0  0  0  0  0  0  0  0  0  0  0
  -28.9954  -18.8967   17.4401 C   0  0  0  0  0  0  0  0  0  0  0  0
  -29.8938  -22.5679   18.3428 C   0  0  0  0  0  0  0  0  0  0  0  0
  -29.8119  -17.6029   17.4144 C   0  0  0  0  0  0  0  0  0  0  0  0
  -29.1156  -23.8845   18.4256 C   0  0  0  0  0  0  0  0  0  0  0  0
  -28.9547  -16.4145   16.9691 C   0  0  0  0  0  0  0  0  0  0  0  0
  -29.9359  -25.1184   18.8045 C   0  0  0  0  0  0  0  0  0  0  0  0
  -29.7551  -15.1192   16.8760 C   0  0  0  0  0  0  0  0  0  0  0  0
  -29.1244  -26.4072   18.8405 C   0  0  0  0  0  0  0  0  0  1  0  0
  -21.7055  -28.1807   23.3731 C   0  0  1  0  0  0  0  0  0  0  0  0
  -18.1886  -27.6285   22.0708 C   0  0  2  0  0  0  0  0  0  0  0  0
  -22.1707  -28.0239   24.8485 C   0  0  0  0  0  0  0  0  0  0  0  0
  -28.1564  -14.6959   22.6337 N   0  0  0  0  0  0  0  0  0  0  0  0
  -27.4550  -14.6306   21.4892 N   0  0  0  0  0  0  0  0  0  0  0  0
  -23.3715  -29.5314   22.1387 N   0  0  0  0  0  0  0  0  0  0  0  0
  -27.5227  -12.7069   12.6540 N   0  0  0  0  0  0  0  0  0  0  0  0
  -29.1103  -12.8546   18.5313 N   0  0  0  0  0  0  0  0  0  0  0  0
  -25.7263  -15.6962   20.2699 N   0  0  0  0  0  0  0  0  0  0  0  0
  -26.0479  -18.1925   24.0197 N   0  0  0  0  0  0  0  0  0  0  0  0
  -24.8588  -32.6643   22.9771 N   0  0  0  0  0  0  0  0  0  0  0  0
  -20.2614  -28.0871   23.1888 N   0  0  0  0  0  0  0  0  0  0  0  0
  -28.9436  -13.9888   16.4284 N   0  0  0  0  0  0  0  0  0  0  0  0
  -17.7176  -26.6731   23.1131 N   0  3  0  0  0  0  0  0  0  0  0  0
  -24.9225  -17.9476   22.0368 O   0  0  0  0  0  0  0  0  0  0  0  0
  -25.4538  -30.4696   23.4787 O   0  0  0  0  0  0  0  0  0  0  0  0
  -27.7503  -10.8537   11.2703 O   0  0  0  0  0  0  0  0  0  0  0  0
  -21.3655  -30.4724   22.8644 O   0  0  0  0  0  0  0  0  0  0  0  0
  -20.3342  -27.2774   21.0171 O   0  0  0  0  0  0  0  0  0  0  0  0
  -28.2586  -11.8018   16.6669 O   0  0  0  0  0  0  0  0  0  0  0  0
  -29.5790  -17.3474   28.2455 O   0  0  0  0  0  0  0  0  0  0  0  0
  -28.0958  -26.2989   19.8169 O   0  0  0  0  0  0  0  0  0  1  0  0
  -26.5547  -20.9237   31.1554 F   0  0  0  0  0  0  0  0  0  0  0  0
  -28.6103  -16.6795   30.7472 F   0  0  0  0  0  0  0  0  0  0  0  0
  1  2  1  0  0  0  0
  1  5  2  0  0  0  0
  2  6  2  0  0  0  0
  3  8  2  0  0  0  0
  3 15  1  0  0  0  0
  4  9  1  0  0  0  0
  4 15  2  0  0  0  0
  5 17  1  0  0  0  0
  6 19  1  0  0  0  0
  7 10  2  0  0  0  0
  7 18  1  0  0  0  0
  8 21  1  0  0  0  0
  9 21  2  0  0  0  0
 10 22  1  0  0  0  0
 11 12  2  0  0  0  0
 11 23  1  0  0  0  0
 12 24  1  0  0  0  0
 13 20  1  0  0  0  0
 13 22  2  0  0  0  0
 14 24  2  0  0  0  0
 14 25  1  0  0  0  0
 15 26  1  0  0  0  0
 16 26  1  0  0  0  0
 16 27  2  0  0  0  0
 16 28  1  0  0  0  0
 17 19  2  0  0  0  0
 17 34  1  0  0  0  0
 18 20  2  0  0  0  0
 18 35  1  0  0  0  0
 19 47  1  0  0  0  0
 20 36  1  0  0  0  0
 21 87  1  0  0  0  0
 22 88  1  0  0  0  0
 23 25  2  0  0  0  0
 23 87  1  0  0  0  0
 24 89  1  0  0  0  0
 25 90  1  0  0  0  0
 26 70  2  0  0  0  0
 27 71  1  0  0  0  0
 27 75  1  0  0  0  0
 28 76  1  0  0  0  0
 28 81  2  0  0  0  0
 29 48  1  0  0  0  0
 29 77  1  0  0  0  0
 29 82  2  0  0  0  0
 30 51  1  0  0  0  0
 30 73  1  0  0  0  0
 30 83  2  0  0  0  0
 31 67  1  0  0  0  0
 31 72  1  0  0  0  0
 31 84  2  0  0  0  0
 32 68  1  0  0  0  0
 32 78  1  0  0  0  0
 32 85  2  0  0  0  0
 33 74  1  0  0  0  0
 33 79  1  0  0  0  0
 33 86  2  0  0  0  0
 34 37  1  0  0  0  0
 35 48  1  0  0  0  0
 36 72  1  0  0  0  0
 37 39  1  0  0  0  0
 38 40  1  0  0  0  0
 38 43  1  0  0  0  0
 39 47  1  0  0  0  0
 40 49  1  0  0  0  0
 41 44  1  0  0  0  0
 41 50  1  0  0  0  0
 42 45  1  0  0  0  0
 42 50  1  0  0  0  0
 43 74  1  0  0  0  0
 44 73  1  0  0  0  0
 45 73  1  0  0  0  0
 46 49  1  0  0  0  0
 46 74  1  0  0  0  0
 47 77  1  0  0  0  0
 48 72  1  0  0  0  0
 49 71  1  0  0  0  0
 50 79  1  0  0  0  0
 52 68  1  0  0  0  0
 53 69  1  0  0  0  0
 54 69  1  0  0  0  0
 55 69  1  0  0  0  0
 56 80  1  0  0  0  0
 57 58  1  0  0  0  0
 57 59  1  0  0  0  0
 58 60  1  0  0  0  0
 59 61  1  0  0  0  0
 60 62  1  0  0  0  0
 61 63  1  0  0  0  0
 62 64  1  0  0  0  0
 63 65  1  0  0  0  0
 64 66  1  0  0  0  0
 65 79  1  0  0  0  0
 66 88  1  0  0  0  0
 67 69  1  0  0  0  0
 67 78  1  0  0  0  0
 68 80  1  0  0  0  0
 70 71  1  0  0  0  0
M  CHG  1  80   1
M  ISO  4  33 100  66 101  79 100  88 101
M  END
> <Batch ID>
0013

> <Smiles>
CNC(C)C(=O)NC(C(=O)N1Cc2cc([101O:1][101CH2:1]CCCCCCCCC[100N:0](C3CCN(C(C)=O)CC3)[100C:0](=O)N3CCCC(n4nc(-c5ccc(Oc6ccc(F)cc6F)cc5)c(C(N)=O)c4N)C3)ccc2CC1C(=O)NC1CCCc2ccccc21)C(C)(C)C

> <Shape>
0.255

> <Color>
0.089

> <Negative vol penalty>
0.000

$$$$

  -OEChem-04052315503D

 85 93  0     1  0  0  0  0  0999 V2000
  -26.0676  -11.8261   40.5868 C   0  0  0  0  0  0  0  0  0  0  0  0
  -26.9898  -12.4764   39.7731 C   0  0  0  0  0  0  0  0  0  0  0  0
  -23.1908   -9.8195   19.9317 C   0  0  0  0  0  0  0  0  0  0  0  0
  -23.5702   -9.9993   22.3109 C   0  0  0  0  0  0  0  0  0  0  0  0
  -25.2728  -10.8078   40.0621 C   0  0  0  0  0  0  0  0  0  0  0  0
  -27.1184  -12.1081   38.4344 C   0  0  0  0  0  0  0  0  0  0  0  0
  -28.3987  -15.7890   33.7102 C   0  0  0  0  0  0  0  0  0  0  0  0
  -22.4250   -8.6725   20.1404 C   0  0  0  0  0  0  0  0  0  0  0  0
  -22.8044   -8.8523   22.5197 C   0  0  0  0  0  0  0  0  0  0  0  0
  -29.5847  -16.0668   33.0321 C   0  0  0  0  0  0  0  0  0  0  0  0
  -23.2065   -5.5058   22.2544 C   0  0  0  0  0  0  0  0  0  0  0  0
  -23.7057   -4.5444   23.1331 C   0  0  0  0  0  0  0  0  0  0  0  0
  -29.0072  -14.4250   31.3616 C   0  0  0  0  0  0  0  0  0  0  0  0
  -32.8325  -11.8318   26.3165 C   0  0  0  0  0  0  0  0  0  0  0  0
  -32.6572  -12.1118   23.9231 C   0  0  0  0  0  0  0  0  0  0  0  0
  -21.7497   -4.8033   24.5275 C   0  0  0  0  0  0  0  0  0  0  0  0
  -23.7634  -10.4828   21.0169 C   0  0  0  0  0  0  0  0  0  0  0  0
  -24.1011  -12.9997   20.7737 C   0  0  0  0  0  0  0  0  0  0  0  0
  -25.3849  -10.4334   38.7138 C   0  0  0  0  0  0  0  0  0  0  0  0
  -27.5116  -14.8177   33.2241 C   0  0  0  0  0  0  0  0  0  0  0  0
  -26.3252  -11.0830   37.8915 C   0  0  0  0  0  0  0  0  0  0  0  0
  -27.8093  -14.1386   32.0340 C   0  0  0  0  0  0  0  0  0  0  0  0
  -31.4910  -12.1873   26.4563 C   0  0  0  0  0  0  0  0  0  0  0  0
  -31.3156  -12.4672   24.0630 C   0  0  0  0  0  0  0  0  0  0  0  0
  -22.2318   -8.1889   21.4344 C   0  0  0  0  0  0  0  0  0  0  0  0
  -29.8906  -15.3827   31.8592 C   0  0  0  0  0  0  0  0  0  0  0  0
  -21.9790   -6.1161   22.5123 C   0  0  0  0  0  0  0  0  0  0  0  0
  -22.9773   -4.1931   24.2696 C   0  0  0  0  0  0  0  0  0  0  0  0
  -21.2506   -5.7648   23.6488 C   0  0  0  0  0  0  0  0  0  0  0  0
  -33.4156  -11.7941   25.0498 C   0  0  0  0  0  0  0  0  0  0  0  0
  -30.7325  -12.5049   25.3296 C   0  0  0  0  0  0  0  0  0  0  0  0
  -24.5551  -11.6674   20.8018 C   0  0  0  0  0  0  0  0  0  0  0  0
  -25.2319  -13.7428   20.5381 C   0  0  0  0  0  0  0  0  0  0  0  0
  -22.7758  -13.5191   20.9453 C   0  0  0  0  0  0  0  0  0  0  0  0
  -26.3791  -12.0606   34.3286 C   0  0  0  0  0  0  0  0  0  0  0  0
  -24.5336  -12.1991   31.6645 C   0  0  0  0  0  0  0  0  0  0  0  0
  -24.1020  -13.3966   28.4980 C   0  0  0  0  0  0  0  0  0  0  0  0
  -31.4002  -14.0335   29.4548 C   0  0  0  0  0  0  0  0  0  0  0  0
  -31.0372  -12.7840   21.5794 C   0  0  0  0  0  0  0  0  0  0  0  0
  -24.5375   -9.2949   38.2037 C   0  0  0  0  0  0  0  0  0  0  0  0
  -26.2236  -14.5487   33.9529 C   0  0  0  0  0  0  0  0  0  0  0  0
  -26.8809  -13.1012   31.4594 C   0  0  0  0  0  0  0  0  0  0  0  0
  -24.4717   -9.2195   36.6804 C   0  0  0  0  0  0  0  0  0  0  0  0
  -29.5230  -13.4660   18.4299 C   0  0  0  0  0  0  0  0  0  0  0  0
  -25.8654   -9.3667   36.0780 C   0  0  0  0  0  0  0  0  0  0  0  0
  -28.0351  -13.2093   18.6798 C   0  0  0  0  0  0  0  0  0  0  0  0
  -30.4049  -12.4810   19.1954 C   0  0  0  0  0  0  0  0  0  0  0  0
  -28.6460  -12.1385   20.8860 C   0  0  0  0  0  0  0  0  0  0  0  0
  -26.4766  -10.7288   36.4280 C   0  0  1  0  0  0  0  0  0  0  0  0
  -25.6381  -13.1742   33.6441 C   0  0  1  0  0  0  0  0  0  0  0  0
  -27.7194  -13.1468   20.1871 C   0  0  2  0  0  0  0  0  0  0  0  0
  -22.5140  -13.3059   26.5571 C   0  0  0  0  0  0  0  0  0  0  0  0
  -32.0150  -16.4567   29.1446 C   0  0  0  0  0  0  0  0  0  0  0  0
  -25.5471   -9.4064   30.9690 C   0  0  0  0  0  0  0  0  0  0  0  0
  -24.7120   -9.7603   28.6355 C   0  0  0  0  0  0  0  0  0  0  0  0
  -23.1086   -9.7665   30.5465 C   0  0  0  0  0  0  0  0  0  0  0  0
  -23.6154  -16.3137   28.6103 C   0  0  0  0  0  0  0  0  0  0  0  0
  -30.9063  -12.2141   27.8389 C   0  0  0  0  0  0  0  0  0  0  0  0
  -24.6775  -11.7251   30.2385 C   0  0  1  0  0  0  0  0  0  0  0  0
  -22.9105  -14.0508   27.8222 C   0  0  2  0  0  0  0  0  0  0  0  0
  -31.0403  -15.4766   29.7795 C   0  0  2  0  0  0  0  0  0  1  0  0
  -24.5299  -10.1827   30.1090 C   0  0  0  0  0  0  0  0  0  0  0  0
  -25.8716  -11.5669   20.6000 N   0  0  0  0  0  0  0  0  0  0  0  0
  -26.2546  -12.8454   20.4428 N   0  0  0  0  0  0  0  0  0  0  0  0
  -25.6369  -12.8692   32.2119 N   0  0  0  0  0  0  0  0  0  0  0  0
  -30.0518  -12.4790   20.6167 N   0  0  0  0  0  0  0  0  0  0  0  0
  -25.4413  -15.0698   20.4051 N   0  0  0  0  0  0  0  0  0  0  0  0
  -21.7296  -12.6164   21.1796 N   0  0  0  0  0  0  0  0  0  0  0  0
  -30.5771  -12.7832   22.8957 N   0  0  0  0  0  0  0  0  0  0  0  0
  -25.9090  -11.7667   35.5943 N   0  0  0  0  0  0  0  0  0  0  0  0
  -30.7412  -13.5622   28.3298 N   0  0  0  0  0  0  0  0  0  0  0  0
  -23.7094  -12.4857   29.4558 N   0  0  0  0  0  0  0  0  0  0  0  0
  -23.2312  -15.4597   27.4571 N   0  3  0  0  0  0  0  0  0  0  0  0
  -22.5241  -14.7460   20.8762 O   0  0  0  0  0  0  0  0  0  0  0  0
  -27.3077  -11.5080   33.7506 O   0  0  0  0  0  0  0  0  0  0  0  0
  -23.4785  -11.9891   32.2681 O   0  0  0  0  0  0  0  0  0  0  0  0
  -25.2648  -13.6640   28.2030 O   0  0  0  0  0  0  0  0  0  0  0  0
  -32.1780  -13.3764   30.1433 O   0  0  0  0  0  0  0  0  0  0  0  0
  -32.1971  -13.0546   21.2575 O   0  0  0  0  0  0  0  0  0  0  0  0
  -21.4844   -7.0698   21.6385 O   0  0  0  0  0  0  0  0  0  0  0  0
  -31.0479  -15.6515   31.1958 O   0  0  0  0  0  0  0  0  0  1  0  0
  -23.4560   -3.2687   25.1125 F   0  0  0  0  0  0  0  0  0  0  0  0
  -20.0701   -6.3467   23.9012 F   0  0  0  0  0  0  0  0  0  0  0  0
  -35.0710  -11.3557   24.8774 Cl  0  0  0  0  0  0  0  0  0  0  0  0
  -29.0656  -12.9459   25.5099 Cl  0  0  0  0  0  0  0  0  0  0  0  0
  1  2  1  0  0  0  0
  1  5  2  0  0  0  0
  2  6  2  0  0  0  0
  3  8  2  0  0  0  0
  3 17  1  0  0  0  0
  4  9  1  0  0  0  0
  4 17  2  0  0  0  0
  5 19  1  0  0  0  0
  6 21  1  0  0  0  0
  7 10  2  0  0  0  0
  7 20  1  0  0  0  0
  8 25  1  0  0  0  0
  9 25  2  0  0  0  0
 10 26  1  0  0  0  0
 11 12  2  0  0  0  0
 11 27  1  0  0  0  0
 12 28  1  0  0  0  0
 13 22  1  0  0  0  0
 13 26  2  0  0  0  0
 14 23  1  0  0  0  0
 14 30  2  0  0  0  0
 15 24  2  0  0  0  0
 15 30  1  0  0  0  0
 16 28  2  0  0  0  0
 16 29  1  0  0  0  0
 17 32  1  0  0  0  0
 18 32  1  0  0  0  0
 18 33  2  0  0  0  0
 18 34  1  0  0  0  0
 19 21  2  0  0  0  0
 19 40  1  0  0  0  0
 20 22  2  0  0  0  0
 20 41  1  0  0  0  0
 21 49  1  0  0  0  0
 22 42  1  0  0  0  0
 23 31  2  0  0  0  0
 23 58  1  0  0  0  0
 24 31  1  0  0  0  0
 24 69  1  0  0  0  0
 25 80  1  0  0  0  0
 26 81  1  0  0  0  0
 27 29  2  0  0  0  0
 27 80  1  0  0  0  0
 28 82  1  0  0  0  0
 29 83  1  0  0  0  0
 30 84  1  0  0  0  0
 31 85  1  0  0  0  0
 32 63  2  0  0  0  0
 33 64  1  0  0  0  0
 33 67  1  0  0  0  0
 34 68  1  0  0  0  0
 34 74  2  0  0  0  0
 35 50  1  0  0  0  0
 35 70  1  0  0  0  0
 35 75  2  0  0  0  0
 36 59  1  0  0  0  0
 36 65  1  0  0  0  0
 36 76  2  0  0  0  0
 37 60  1  0  0  0  0
 37 72  1  0  0  0  0
 37 77  2  0  0  0  0
 38 61  1  0  0  0  0
 38 71  1  0  0  0  0
 38 78  2  0  0  0  0
 39 66  1  0  0  0  0
 39 69  1  0  0  0  0
 39 79  2  0  0  0  0
 40 43  1  0  0  0  0
 41 50  1  0  0  0  0
 42 65  1  0  0  0  0
 43 45  1  0  0  0  0
 44 46  1  0  0  0  0
 44 47  1  0  0  0  0
 45 49  1  0  0  0  0
 46 51  1  0  0  0  0
 47 66  1  0  0  0  0
 48 51  1  0  0  0  0
 48 66  1  0  0  0  0
 49 70  1  0  0  0  0
 50 65  1  0  0  0  0
 51 64  1  0  0  0  0
 52 60  1  0  0  0  0
 53 61  1  0  0  0  0
 54 62  1  0  0  0  0
 55 62  1  0  0  0  0
 56 62  1  0  0  0  0
 57 73  1  0  0  0  0
 58 71  1  0  0  0  0
 59 62  1  0  0  0  0
 59 72  1  0  0  0  0
 60 73  1  0  0  0  0
 61 81  1  0  0  0  0
 63 64  1  0  0  0  0
M  CHG  1  73   1
M  ISO  4  39 100  61 101  69 100  81 101
M  END
> <Batch ID>
0013

> <Smiles>
CNC(C)C(=O)NC(C(=O)N1Cc2cc([101O:1][101CH:1](C)C(=O)NCc3cc(Cl)cc([100NH:0][100C:0](=O)N4CCCC(n5nc(-c6ccc(Oc7ccc(F)cc7F)cc6)c(C(N)=O)c5N)C4)c3Cl)ccc2CC1C(=O)NC1CCCc2ccccc21)C(C)(C)C

> <Shape>
0.139

> <Color>
0.182

> <Negative vol penalty>
0.000

$$$$

  -OEChem-04052315503D

 79 87  0     1  0  0  0  0  0999 V2000
  -23.4677  -28.5327   30.9135 C   0  0  0  0  0  0  0  0  0  0  0  0
  -24.4622  -27.5638   30.8267 C   0  0  0  0  0  0  0  0  0  0  0  0
  -22.9813   -9.9505   19.9504 C   0  0  0  0  0  0  0  0  0  0  0  0
  -23.7565   -9.8945   22.2380 C   0  0  0  0  0  0  0  0  0  0  0  0
  -22.6446  -28.7853   29.8169 C   0  0  0  0  0  0  0  0  0  0  0  0
  -24.6334  -26.8460   29.6435 C   0  0  0  0  0  0  0  0  0  0  0  0
  -29.7350  -23.7508   25.6800 C   0  0  0  0  0  0  0  0  0  0  0  0
  -22.2093   -8.8125   20.1841 C   0  0  0  0  0  0  0  0  0  0  0  0
  -22.9844   -8.7566   22.4718 C   0  0  0  0  0  0  0  0  0  0  0  0
  -30.0368  -22.5324   25.0733 C   0  0  0  0  0  0  0  0  0  0  0  0
  -23.1848   -5.4392   21.8505 C   0  0  0  0  0  0  0  0  0  0  0  0
  -23.7781   -4.3849   22.5447 C   0  0  0  0  0  0  0  0  0  0  0  0
  -28.6078  -23.1094   23.2175 C   0  0  0  0  0  0  0  0  0  0  0  0
  -22.0933   -4.5705   24.2664 C   0  0  0  0  0  0  0  0  0  0  0  0
  -23.7550  -10.4915   20.9773 C   0  0  0  0  0  0  0  0  0  0  0  0
  -24.1618  -13.0087   20.9019 C   0  0  0  0  0  0  0  0  0  0  0  0
  -22.8121  -28.0771   28.6165 C   0  0  0  0  0  0  0  0  0  0  0  0
  -28.8573  -24.6545   25.0641 C   0  0  0  0  0  0  0  0  0  0  0  0
  -23.8109  -27.0884   28.5303 C   0  0  0  0  0  0  0  0  0  0  0  0
  -28.2985  -24.3398   23.8172 C   0  0  0  0  0  0  0  0  0  0  0  0
  -22.2108   -8.2156   21.4448 C   0  0  0  0  0  0  0  0  0  0  0  0
  -29.4709  -22.2103   23.8432 C   0  0  0  0  0  0  0  0  0  0  0  0
  -22.0458   -6.0593   22.3642 C   0  0  0  0  0  0  0  0  0  0  0  0
  -23.2324   -3.9506   23.7526 C   0  0  0  0  0  0  0  0  0  0  0  0
  -21.5000   -5.6249   23.5721 C   0  0  0  0  0  0  0  0  0  0  0  0
  -24.5531  -11.6666   20.7363 C   0  0  0  0  0  0  0  0  0  0  0  0
  -31.9614  -18.5335   22.3603 C   0  0  0  0  0  0  0  0  0  0  0  0
  -30.8749  -18.9162   23.1187 C   0  0  0  0  0  0  0  0  0  0  0  0
  -25.2706  -13.7363   20.5448 C   0  0  0  0  0  0  0  0  0  0  0  0
  -30.6742  -16.7963   21.9924 C   0  0  0  0  0  0  0  0  0  0  0  0
  -22.9080  -13.5493   21.3395 C   0  0  0  0  0  0  0  0  0  0  0  0
  -26.0447  -25.9236   25.8273 C   0  0  0  0  0  0  0  0  0  0  0  0
  -26.5409  -27.6681   23.1379 C   0  0  0  0  0  0  0  0  0  0  0  0
  -28.0872  -27.9447   20.1081 C   0  0  0  0  0  0  0  0  0  0  0  0
  -30.7633  -14.6360   20.6996 C   0  0  0  0  0  0  0  0  0  0  0  0
  -21.8674  -28.3520   27.4734 C   0  0  0  0  0  0  0  0  0  0  0  0
  -28.5630  -25.9762   25.7190 C   0  0  0  0  0  0  0  0  0  0  0  0
  -27.3662  -25.2842   23.1049 C   0  0  0  0  0  0  0  0  0  0  0  0
  -22.3583  -27.8098   26.1336 C   0  0  0  0  0  0  0  0  0  0  0  0
  -29.5703  -12.2971   18.2947 C   0  0  0  0  0  0  0  0  0  0  0  0
  -22.8565  -26.3764   26.2880 C   0  0  0  0  0  0  0  0  0  0  0  0
  -28.1265  -12.0350   18.7291 C   0  0  0  0  0  0  0  0  0  0  0  0
  -30.4992  -12.4793   19.4938 C   0  0  0  0  0  0  0  0  0  0  0  0
  -28.6212  -13.2269   20.9021 C   0  0  0  0  0  0  0  0  0  0  0  0
  -24.0439  -26.3063   27.2558 C   0  0  1  0  0  0  0  0  0  0  0  0
  -27.2537  -26.5995   25.2449 C   0  0  1  0  0  0  0  0  0  0  0  0
  -27.6362  -13.1012   19.7283 C   0  0  2  0  0  0  0  0  0  0  0  0
  -33.0611  -20.4698   21.2078 C   0  0  0  0  0  0  0  0  0  0  0  0
  -28.2679  -29.4657   18.1203 C   0  0  0  0  0  0  0  0  0  0  0  0
  -23.8010  -26.7319   22.1754 C   0  0  0  0  0  0  0  0  0  0  0  0
  -24.4358  -27.4712   19.8692 C   0  0  0  0  0  0  0  0  0  0  0  0
  -24.3005  -29.1395   21.7188 C   0  0  0  0  0  0  0  0  0  0  0  0
  -30.9924  -28.3298   20.5210 C   0  0  0  0  0  0  0  0  0  0  0  0
  -33.2122  -19.2993   22.1846 C   0  0  0  0  0  0  0  0  0  0  0  0
  -30.6574  -20.1516   23.9420 C   0  0  0  0  0  0  0  0  0  1  0  0
  -26.2172  -27.4914   21.6740 C   0  0  1  0  0  0  0  0  0  0  0  0
  -28.8567  -29.0874   19.4705 C   0  0  2  0  0  0  0  0  0  0  0  0
  -24.7046  -27.6897   21.3734 C   0  0  0  0  0  0  0  0  0  0  0  0
  -25.8122  -11.5459   20.3072 N   0  0  0  0  0  0  0  0  0  0  0  0
  -31.8483  -17.3180   21.7140 N   0  0  0  0  0  0  0  0  0  0  0  0
  -26.2216  -12.8214   20.2001 N   0  0  0  0  0  0  0  0  0  0  0  0
  -27.1043  -26.5614   23.7887 N   0  0  0  0  0  0  0  0  0  0  0  0
  -29.9732  -13.5076   20.3943 N   0  0  0  0  0  0  0  0  0  0  0  0
  -25.5152  -15.0630   20.4951 N   0  0  0  0  0  0  0  0  0  0  0  0
  -21.8750  -12.6606   21.6671 N   0  0  0  0  0  0  0  0  0  0  0  0
  -30.1459  -15.5619   21.5399 N   0  0  0  0  0  0  0  0  0  0  0  0
  -25.2557  -26.7521   26.6022 N   0  0  0  0  0  0  0  0  0  0  0  0
  -27.0951  -28.4033   20.9488 N   0  0  0  0  0  0  0  0  0  0  0  0
  -30.2827  -28.7036   19.2705 N   0  3  0  0  0  0  0  0  0  0  0  0
  -22.7043  -14.7844   21.4215 O   0  0  0  0  0  0  0  0  0  0  0  0
  -25.8420  -24.7386   25.5898 O   0  0  0  0  0  0  0  0  0  0  0  0
  -26.3094  -28.7507   23.6820 O   0  0  0  0  0  0  0  0  0  0  0  0
  -28.3384  -26.7634   19.8801 O   0  0  0  0  0  0  0  0  0  0  0  0
  -31.8933  -14.7841   20.2271 O   0  0  0  0  0  0  0  0  0  0  0  0
  -21.4574   -7.1053   21.6734 O   0  0  0  0  0  0  0  0  0  0  0  0
  -29.7632  -21.0214   23.2491 O   0  0  0  0  0  0  0  0  0  1  0  0
  -23.8014   -2.9371   24.4185 F   0  0  0  0  0  0  0  0  0  0  0  0
  -20.4052   -6.2158   24.0701 F   0  0  0  0  0  0  0  0  0  0  0  0
  -29.6555  -17.7138   23.0247 S   0  0  0  0  0  0  0  0  0  0  0  0
  1  2  1  0  0  0  0
  1  5  2  0  0  0  0
  2  6  2  0  0  0  0
  3  8  2  0  0  0  0
  3 15  1  0  0  0  0
  4  9  1  0  0  0  0
  4 15  2  0  0  0  0
  5 17  1  0  0  0  0
  6 19  1  0  0  0  0
  7 10  2  0  0  0  0
  7 18  1  0  0  0  0
  8 21  1  0  0  0  0
  9 21  2  0  0  0  0
 10 22  1  0  0  0  0
 11 12  2  0  0  0  0
 11 23  1  0  0  0  0
 12 24  1  0  0  0  0
 13 20  1  0  0  0  0
 13 22  2  0  0  0  0
 14 24  2  0  0  0  0
 14 25  1  0  0  0  0
 15 26  1  0  0  0  0
 16 26  1  0  0  0  0
 16 29  2  0  0  0  0
 16 31  1  0  0  0  0
 17 19  2  0  0  0  0
 17 36  1  0  0  0  0
 18 20  2  0  0  0  0
 18 37  1  0  0  0  0
 19 45  1  0  0  0  0
 20 38  1  0  0  0  0
 21 75  1  0  0  0  0
 22 76  1  0  0  0  0
 23 25  2  0  0  0  0
 23 75  1  0  0  0  0
 24 77  1  0  0  0  0
 25 78  1  0  0  0  0
 26 59  2  0  0  0  0
 27 28  2  0  0  0  0
 27 54  1  0  0  0  0
 27 60  1  0  0  0  0
 28 55  1  0  0  0  0
 28 79  1  0  0  0  0
 29 61  1  0  0  0  0
 29 64  1  0  0  0  0
 30 60  2  0  0  0  0
 30 66  1  0  0  0  0
 30 79  1  0  0  0  0
 31 65  1  0  0  0  0
 31 70  2  0  0  0  0
 32 46  1  0  0  0  0
 32 67  1  0  0  0  0
 32 71  2  0  0  0  0
 33 56  1  0  0  0  0
 33 62  1  0  0  0  0
 33 72  2  0  0  0  0
 34 57  1  0  0  0  0
 34 68  1  0  0  0  0
 34 73  2  0  0  0  0
 35 63  1  0  0  0  0
 35 66  1  0  0  0  0
 35 74  2  0  0  0  0
 36 39  1  0  0  0  0
 37 46  1  0  0  0  0
 38 62  1  0  0  0  0
 39 41  1  0  0  0  0
 40 42  1  0  0  0  0
 40 43  1  0  0  0  0
 41 45  1  0  0  0  0
 42 47  1  0  0  0  0
 43 63  1  0  0  0  0
 44 47  1  0  0  0  0
 44 63  1  0  0  0  0
 45 67  1  0  0  0  0
 46 62  1  0  0  0  0
 47 61  1  0  0  0  0
 48 54  1  0  0  0  0
 49 57  1  0  0  0  0
 50 58  1  0  0  0  0
 51 58  1  0  0  0  0
 52 58  1  0  0  0  0
 53 69  1  0  0  0  0
 55 76  1  0  0  0  0
 56 58  1  0  0  0  0
 56 68  1  0  0  0  0
 57 69  1  0  0  0  0
 59 61  1  0  0  0  0
M  CHG  1  69   1
M  ISO  4  35 100  55 101  66 100  76 101
M  END
> <Batch ID>
0013

> <Smiles>
CCc1nc([100NH:0][100C:0](=O)N2CCCC(n3nc(-c4ccc(Oc5ccc(F)cc5F)cc4)c(C(N)=O)c3N)C2)sc1[101CH2:1][101O:1]c1ccc2c(c1)CN(C(=O)C(NC(=O)C(C)NC)C(C)(C)C)C(C(=O)NC1CCCc3ccccc31)C2

> <Shape>
0.229

> <Color>
0.221

> <Negative vol penalty>
0.000

$$$$

  -OEChem-04052315503D

 84 92  0     1  0  0  0  0  0999 V2000
  -34.2327  -30.3806   17.6232 C   0  0  0  0  0  0  0  0  0  0  0  0
  -33.6473  -29.1865   18.0318 C   0  0  0  0  0  0  0  0  0  0  0  0
  -23.5956   -9.7018   21.7220 C   0  0  0  0  0  0  0  0  0  0  0  0
  -23.4422  -11.8575   22.8020 C   0  0  0  0  0  0  0  0  0  0  0  0
  -34.0198  -31.5469   18.3569 C   0  0  0  0  0  0  0  0  0  0  0  0
  -32.8494  -29.1580   19.1750 C   0  0  0  0  0  0  0  0  0  0  0  0
  -27.8815  -25.7013   20.1116 C   0  0  0  0  0  0  0  0  0  0  0  0
  -31.8279  -16.2291   22.3588 C   0  0  0  0  0  0  0  0  0  0  0  0
  -22.8718   -9.1269   22.7666 C   0  0  0  0  0  0  0  0  0  0  0  0
  -22.7184  -11.2826   23.8466 C   0  0  0  0  0  0  0  0  0  0  0  0
  -27.6908  -24.4962   20.7864 C   0  0  0  0  0  0  0  0  0  0  0  0
  -19.6395   -8.9135   23.7356 C   0  0  0  0  0  0  0  0  0  0  0  0
  -18.6127   -8.0297   23.4034 C   0  0  0  0  0  0  0  0  0  0  0  0
  -32.3454  -17.1700   23.2490 C   0  0  0  0  0  0  0  0  0  0  0  0
  -26.9911  -25.7126   22.7485 C   0  0  0  0  0  0  0  0  0  0  0  0
  -19.7238   -6.2749   24.6375 C   0  0  0  0  0  0  0  0  0  0  0  0
  -23.8808  -11.0671   21.7397 C   0  0  0  0  0  0  0  0  0  0  0  0
  -24.1140  -12.2190   19.4755 C   0  0  0  0  0  0  0  0  0  0  0  0
  -33.2110  -31.5346   19.5042 C   0  0  0  0  0  0  0  0  0  0  0  0
  -27.6383  -26.9234   20.7548 C   0  0  0  0  0  0  0  0  0  0  0  0
  -32.6265  -30.3250   19.9255 C   0  0  0  0  0  0  0  0  0  0  0  0
  -27.1769  -26.9317   22.0788 C   0  0  0  0  0  0  0  0  0  0  0  0
  -30.1448  -18.1321   23.5113 C   0  0  0  0  0  0  0  0  0  0  0  0
  -30.4688  -16.2398   22.0447 C   0  0  0  0  0  0  0  0  0  0  0  0
  -22.4332   -9.9173   23.8289 C   0  0  0  0  0  0  0  0  0  0  0  0
  -27.2483  -24.5019   22.1059 C   0  0  0  0  0  0  0  0  0  0  0  0
  -20.7085   -8.4779   24.5187 C   0  0  0  0  0  0  0  0  0  0  0  0
  -18.6548   -6.7104   23.8544 C   0  0  0  0  0  0  0  0  0  0  0  0
  -20.7507   -7.1586   24.9696 C   0  0  0  0  0  0  0  0  0  0  0  0
  -31.5038  -18.1215   23.8253 C   0  0  0  0  0  0  0  0  0  0  0  0
  -29.6273  -17.1912   22.6210 C   0  0  0  0  0  0  0  0  0  0  0  0
  -24.6289  -11.6614   20.6611 C   0  0  0  0  0  0  0  0  0  0  0  0
  -25.2231  -12.6443   18.7861 C   0  0  0  0  0  0  0  0  0  0  0  0
  -22.7545  -12.3416   19.0367 C   0  0  0  0  0  0  0  0  0  0  0  0
  -29.4136  -29.4453   21.5244 C   0  0  0  0  0  0  0  0  0  0  0  0
  -26.5581  -30.6897   22.4300 C   0  0  0  0  0  0  0  0  0  0  0  0
  -28.1023  -21.2902   23.5565 C   0  0  0  0  0  0  0  0  0  0  0  0
  -23.3488  -30.1354   23.4499 C   0  0  0  0  0  0  0  0  0  0  0  0
  -30.7139  -14.2717   20.4913 C   0  0  0  0  0  0  0  0  0  0  0  0
  -33.0483  -32.8107   20.2914 C   0  0  0  0  0  0  0  0  0  0  0  0
  -27.8232  -28.2138   20.0045 C   0  0  0  0  0  0  0  0  0  0  0  0
  -26.8821  -28.2163   22.8078 C   0  0  0  0  0  0  0  0  0  0  0  0
  -31.8852  -32.7729   21.2793 C   0  0  0  0  0  0  0  0  0  0  0  0
  -29.8763  -11.6692   18.2104 C   0  0  0  0  0  0  0  0  0  0  0  0
  -31.9003  -31.4697   22.0721 C   0  0  0  0  0  0  0  0  0  0  0  0
  -28.3873  -11.4268   18.4679 C   0  0  0  0  0  0  0  0  0  0  0  0
  -30.6290  -11.9950   19.4992 C   0  0  0  0  0  0  0  0  0  0  0  0
  -28.5706  -12.8511   20.5475 C   0  0  0  0  0  0  0  0  0  0  0  0
  -31.7344  -30.2587   21.1461 C   0  0  1  0  0  0  0  0  0  0  0  0
  -28.0373  -29.4134   20.9224 C   0  0  1  0  0  0  0  0  0  0  0  0
  -27.7585  -12.5831   19.2698 C   0  0  2  0  0  0  0  0  0  0  0  0
  -21.2672  -31.3491   24.1509 C   0  0  0  0  0  0  0  0  0  0  0  0
  -27.8145  -31.2687   25.1495 C   0  0  0  0  0  0  0  0  0  0  0  0
  -25.5075  -31.5774   26.0718 C   0  0  0  0  0  0  0  0  0  0  0  0
  -26.3419  -33.0895   24.2718 C   0  0  0  0  0  0  0  0  0  0  0  0
  -21.7898  -28.9959   21.2071 C   0  0  0  0  0  0  0  0  0  0  0  0
  -29.2437  -19.1579   24.1359 C   0  0  0  0  0  0  0  0  0  0  0  0
  -27.8923  -22.2300   22.3885 C   0  0  0  0  0  0  0  0  0  1  0  0
  -25.7516  -30.6971   23.7061 C   0  0  1  0  0  0  0  0  0  0  0  0
  -22.0292  -30.7285   22.9902 C   0  0  2  0  0  0  0  0  0  0  0  0
  -26.3612  -31.6339   24.7870 C   0  0  0  0  0  0  0  0  0  0  0  0
  -25.9616  -11.7251   20.7245 N   0  0  0  0  0  0  0  0  0  0  0  0
  -26.2934  -12.3276   19.5700 N   0  0  0  0  0  0  0  0  0  0  0  0
  -27.0843  -29.4520   22.0335 N   0  0  0  0  0  0  0  0  0  0  0  0
  -29.9788  -13.1024   20.2032 N   0  0  0  0  0  0  0  0  0  0  0  0
  -25.3776  -13.2544   17.5918 N   0  0  0  0  0  0  0  0  0  0  0  0
  -21.7375  -11.8521   19.8675 N   0  0  0  0  0  0  0  0  0  0  0  0
  -29.9819  -15.2693   21.1343 N   0  0  0  0  0  0  0  0  0  0  0  0
  -30.3495  -30.1085   20.7538 N   0  0  0  0  0  0  0  0  0  0  0  0
  -28.8915  -20.2059   23.2062 N   0  0  0  0  0  0  0  0  0  0  0  0
  -24.3852  -31.0361   23.3234 N   0  0  0  0  0  0  0  0  0  0  0  0
  -21.1733  -29.6743   22.3763 N   0  3  0  0  0  0  0  0  0  0  0  0
  -22.4518  -12.8548   17.9328 O   0  0  0  0  0  0  0  0  0  0  0  0
  -29.6115  -28.9093   22.6085 O   0  0  0  0  0  0  0  0  0  0  0  0
  -26.7095  -31.7418   21.8041 O   0  0  0  0  0  0  0  0  0  0  0  0
  -27.6176  -21.4915   24.6667 O   0  0  0  0  0  0  0  0  0  0  0  0
  -23.4495  -28.9892   23.8816 O   0  0  0  0  0  0  0  0  0  0  0  0
  -31.8979  -14.3907   20.1654 O   0  0  0  0  0  0  0  0  0  0  0  0
  -21.7267   -9.3567   24.8483 O   0  0  0  0  0  0  0  0  0  0  0  0
  -27.0621  -23.3271   22.7671 O   0  0  0  0  0  0  0  0  0  1  0  0
  -17.6680   -5.8623   23.5366 F   0  0  0  0  0  0  0  0  0  0  0  0
  -21.7745   -6.7347   25.7232 F   0  0  0  0  0  0  0  0  0  0  0  0
  -32.1879  -19.2683   24.9204 Cl  0  0  0  0  0  0  0  0  0  0  0  0
  -27.9366  -17.2018   22.2318 Cl  0  0  0  0  0  0  0  0  0  0  0  0
  1  2  1  0  0  0  0
  1  5  2  0  0  0  0
  2  6  2  0  0  0  0
  3  9  2  0  0  0  0
  3 17  1  0  0  0  0
  4 10  1  0  0  0  0
  4 17  2  0  0  0  0
  5 19  1  0  0  0  0
  6 21  1  0  0  0  0
  7 11  2  0  0  0  0
  7 20  1  0  0  0  0
  8 14  1  0  0  0  0
  8 24  2  0  0  0  0
  9 25  1  0  0  0  0
 10 25  2  0  0  0  0
 11 26  1  0  0  0  0
 12 13  2  0  0  0  0
 12 27  1  0  0  0  0
 13 28  1  0  0  0  0
 14 30  2  0  0  0  0
 15 22  1  0  0  0  0
 15 26  2  0  0  0  0
 16 28  2  0  0  0  0
 16 29  1  0  0  0  0
 17 32  1  0  0  0  0
 18 32  1  0  0  0  0
 18 33  2  0  0  0  0
 18 34  1  0  0  0  0
 19 21  2  0  0  0  0
 19 40  1  0  0  0  0
 20 22  2  0  0  0  0
 20 41  1  0  0  0  0
 21 49  1  0  0  0  0
 22 42  1  0  0  0  0
 23 30  1  0  0  0  0
 23 31  2  0  0  0  0
 23 57  1  0  0  0  0
 24 31  1  0  0  0  0
 24 68  1  0  0  0  0
 25 79  1  0  0  0  0
 26 80  1  0  0  0  0
 27 29  2  0  0  0  0
 27 79  1  0  0  0  0
 28 81  1  0  0  0  0
 29 82  1  0  0  0  0
 30 83  1  0  0  0  0
 31 84  1  0  0  0  0
 32 62  2  0  0  0  0
 33 63  1  0  0  0  0
 33 66  1  0  0  0  0
 34 67  1  0  0  0  0
 34 73  2  0  0  0  0
 35 50  1  0  0  0  0
 35 69  1  0  0  0  0
 35 74  2  0  0  0  0
 36 59  1  0  0  0  0
 36 64  1  0  0  0  0
 36 75  2  0  0  0  0
 37 58  1  0  0  0  0
 37 70  1  0  0  0  0
 37 76  2  0  0  0  0
 38 60  1  0  0  0  0
 38 71  1  0  0  0  0
 38 77  2  0  0  0  0
 39 65  1  0  0  0  0
 39 68  1  0  0  0  0
 39 78  2  0  0  0  0
 40 43  1  0  0  0  0
 41 50  1  0  0  0  0
 42 64  1  0  0  0  0
 43 45  1  0  0  0  0
 44 46  1  0  0  0  0
 44 47  1  0  0  0  0
 45 49  1  0  0  0  0
 46 51  1  0  0  0  0
 47 65  1  0  0  0  0
 48 51  1  0  0  0  0
 48 65  1  0  0  0  0
 49 69  1  0  0  0  0
 50 64  1  0  0  0  0
 51 63  1  0  0  0  0
 52 60  1  0  0  0  0
 53 61  1  0  0  0  0
 54 61  1  0  0  0  0
 55 61  1  0  0  0  0
 56 72  1  0  0  0  0
 57 70  1  0  0  0  0
 58 80  1  0  0  0  0
 59 61  1  0  0  0  0
 59 71  1  0  0  0  0
 60 72  1  0  0  0  0
 62 63  1  0  0  0  0
M  CHG  1  72   1
M  ISO  4  39 100  58 101  68 100  80 101
M  END
> <Batch ID>
0013

> <Smiles>
CNC(C)C(=O)NC(C(=O)N1Cc2cc([101O:1][101CH2:1]C(=O)NCc3c(Cl)ccc([100NH:0][100C:0](=O)N4CCCC(n5nc(-c6ccc(Oc7ccc(F)cc7F)cc6)c(C(N)=O)c5N)C4)c3Cl)ccc2CC1C(=O)NC1CCCc2ccccc21)C(C)(C)C

> <Shape>
0.232

> <Color>
0.104

> <Negative vol penalty>
0.000

$$$$

  -OEChem-04052315503D

 85 93  0     1  0  0  0  0  0999 V2000
  -32.6934  -21.8527   21.0809 C   0  0  0  0  0  0  0  0  0  0  0  0
  -31.3663  -22.2678   21.0368 C   0  0  0  0  0  0  0  0  0  0  0  0
  -29.7569  -27.2074   18.2606 C   0  0  0  0  0  0  0  0  0  0  0  0
  -29.7137  -26.2749   20.4889 C   0  0  0  0  0  0  0  0  0  0  0  0
  -33.0751  -20.6728   20.4437 C   0  0  0  0  0  0  0  0  0  0  0  0
  -30.4203  -21.5037   20.3545 C   0  0  0  0  0  0  0  0  0  0  0  0
  -24.5361  -20.7237   21.8627 C   0  0  0  0  0  0  0  0  0  0  0  0
  -31.1343  -26.9962   18.1989 C   0  0  0  0  0  0  0  0  0  0  0  0
  -31.0911  -26.0636   20.4272 C   0  0  0  0  0  0  0  0  0  0  0  0
  -23.3637  -21.3266   21.4091 C   0  0  0  0  0  0  0  0  0  0  0  0
  -34.6518  -25.6091   20.9974 C   0  0  0  0  0  0  0  0  0  0  0  0
  -35.4130  -25.9667   22.1101 C   0  0  0  0  0  0  0  0  0  0  0  0
  -23.0242  -19.4971   19.8738 C   0  0  0  0  0  0  0  0  0  0  0  0
  -17.8003  -27.4876   22.2961 C   0  0  0  0  0  0  0  0  0  0  0  0
  -19.4751  -29.2281   22.3492 C   0  0  0  0  0  0  0  0  0  0  0  0
  -34.6732  -28.2552   21.8807 C   0  0  0  0  0  0  0  0  0  0  0  0
  -29.0466  -26.8468   19.4057 C   0  0  0  0  0  0  0  0  0  0  0  0
  -26.6081  -26.1732   19.0775 C   0  0  0  0  0  0  0  0  0  0  0  0
  -32.1314  -19.8888   19.7615 C   0  0  0  0  0  0  0  0  0  0  0  0
  -24.9679  -19.5064   21.3166 C   0  0  0  0  0  0  0  0  0  0  0  0
  -30.7899  -20.3128   19.7065 C   0  0  0  0  0  0  0  0  0  0  0  0
  -24.2011  -18.8796   20.3240 C   0  0  0  0  0  0  0  0  0  0  0  0
  -18.1437  -28.8366   22.2079 C   0  0  0  0  0  0  0  0  0  0  0  0
  -18.7882  -26.5300   22.5258 C   0  0  0  0  0  0  0  0  0  0  0  0
  -20.4630  -28.2704   22.5789 C   0  0  0  0  0  0  0  0  0  0  0  0
  -31.8014  -26.4243   19.2821 C   0  0  0  0  0  0  0  0  0  0  0  0
  -22.6091  -20.7147   20.4125 C   0  0  0  0  0  0  0  0  0  0  0  0
  -33.9013  -26.5745   20.3262 C   0  0  0  0  0  0  0  0  0  0  0  0
  -35.4238  -27.2897   22.5518 C   0  0  0  0  0  0  0  0  0  0  0  0
  -33.9120  -27.8976   20.7680 C   0  0  0  0  0  0  0  0  0  0  0  0
  -20.1195  -26.9214   22.6672 C   0  0  0  0  0  0  0  0  0  0  0  0
  -27.6239  -27.0653   19.4703 C   0  0  0  0  0  0  0  0  0  0  0  0
  -25.4399  -26.8470   19.3377 C   0  0  0  0  0  0  0  0  0  0  0  0
  -26.7114  -24.8535   18.5267 C   0  0  0  0  0  0  0  0  0  0  0  0
  -27.5393  -18.5560   19.7079 C   0  0  0  0  0  0  0  0  0  0  0  0
  -26.1923  -15.6254   20.0532 C   0  0  0  0  0  0  0  0  0  0  0  0
  -23.3686  -13.7755   20.5548 C   0  0  0  0  0  0  0  0  0  0  0  0
  -22.2785  -30.0155   22.6496 C   0  0  0  0  0  0  0  0  0  0  0  0
  -32.6003  -18.6456   19.0479 C   0  0  0  0  0  0  0  0  0  0  0  0
  -26.2207  -18.8557   21.8356 C   0  0  0  0  0  0  0  0  0  0  0  0
  -24.6104  -17.5623   19.7194 C   0  0  0  0  0  0  0  0  0  0  0  0
  -31.4658  -17.6993   18.6636 C   0  0  0  0  0  0  0  0  0  0  0  0
  -24.6350  -31.6898   20.5709 C   0  0  0  0  0  0  0  0  0  0  0  0
  -30.3194  -18.4735   18.0208 C   0  0  0  0  0  0  0  0  0  0  0  0
  -25.5391  -30.5625   20.0670 C   0  0  0  0  0  0  0  0  0  0  0  0
  -24.1972  -31.4623   22.0167 C   0  0  0  0  0  0  0  0  0  0  0  0
  -24.4871  -29.0276   21.7770 C   0  0  0  0  0  0  0  0  0  0  0  0
  -29.7298  -19.4983   18.9974 C   0  0  1  0  0  0  0  0  0  0  0  0
  -26.8369  -17.8715   20.8461 C   0  0  1  0  0  0  0  0  0  0  0  0
  -24.9011  -29.1797   20.3042 C   0  0  2  0  0  0  0  0  0  0  0  0
  -17.0873  -29.8598   21.9613 C   0  0  0  0  0  0  0  0  0  0  0  0
  -22.5776  -11.4022   20.7516 C   0  0  0  0  0  0  0  0  0  0  0  0
  -16.8953  -22.7209   21.1267 C   0  0  0  0  0  0  0  0  0  0  0  0
  -26.4285  -15.2984   17.0287 C   0  0  0  0  0  0  0  0  0  0  0  0
  -24.8053  -13.3981   17.1774 C   0  0  0  0  0  0  0  0  0  0  0  0
  -27.0037  -13.2527   18.3472 C   0  0  0  0  0  0  0  0  0  0  0  0
  -22.3897  -14.2084   23.3141 C   0  0  0  0  0  0  0  0  0  0  0  0
  -18.3717  -25.0913   22.6137 C   0  0  0  0  0  0  0  0  0  0  0  0
  -19.2599  -22.0554   20.5384 C   0  0  0  0  0  0  0  0  0  0  0  0
  -20.7404  -22.1026   20.9001 C   0  0  0  0  0  0  0  0  0  1  0  0
  -25.2174  -14.7958   19.2528 C   0  0  1  0  0  0  0  0  0  0  0  0
  -23.0712  -12.6284   21.5036 C   0  0  2  0  0  0  0  0  0  0  0  0
  -18.3689  -22.8639   21.4835 C   0  0  1  0  0  0  0  0  0  0  0  0
  -25.8568  -14.2120   17.9614 C   0  0  0  0  0  0  0  0  0  0  0  0
  -27.1431  -28.2179   19.9438 N   0  0  0  0  0  0  0  0  0  0  0  0
  -25.8124  -28.0547   19.8503 N   0  0  0  0  0  0  0  0  0  0  0  0
  -25.8464  -16.9689   20.2558 N   0  0  0  0  0  0  0  0  0  0  0  0
  -23.5982  -30.1340   22.1649 N   0  0  0  0  0  0  0  0  0  0  0  0
  -24.1406  -26.5182   19.1757 N   0  0  0  0  0  0  0  0  0  0  0  0
  -27.9882  -24.3121   18.3241 N   0  0  0  0  0  0  0  0  0  0  0  0
  -21.8043  -28.7059   22.7167 N   0  0  0  0  0  0  0  0  0  0  0  0
  -28.8677  -18.8433   19.9577 N   0  0  0  0  0  0  0  0  0  0  0  0
  -24.6919  -13.7881   20.1676 N   0  0  0  0  0  0  0  0  0  0  0  0
  -22.0264  -13.0281   22.4882 N   0  3  0  0  0  0  0  0  0  0  0  0
  -18.7232  -24.3083   21.4008 N   0  3  0  0  0  0  0  0  0  0  0  0
  -25.7017  -24.1809   18.2080 O   0  0  0  0  0  0  0  0  0  0  0  0
  -26.9223  -18.8038   18.6785 O   0  0  0  0  0  0  0  0  0  0  0  0
  -27.2192  -15.0988   20.4887 O   0  0  0  0  0  0  0  0  0  0  0  0
  -22.5118  -14.5779   20.1906 O   0  0  0  0  0  0  0  0  0  0  0  0
  -21.6080  -31.0051   22.9550 O   0  0  0  0  0  0  0  0  0  0  0  0
  -33.1454  -26.2178   19.2222 O   0  0  0  0  0  0  0  0  0  0  0  0
  -21.4646  -21.3013   19.9675 O   0  0  0  0  0  0  0  0  0  1  0  0
  -36.1536  -27.6327   23.6213 F   0  0  0  0  0  0  0  0  0  0  0  0
  -33.1921  -28.8293   20.1280 F   0  0  0  0  0  0  0  0  0  0  0  0
  -21.3424  -25.7264   22.9530 Cl  0  0  0  0  0  0  0  0  0  0  0  0
  1  2  1  0  0  0  0
  1  5  2  0  0  0  0
  2  6  2  0  0  0  0
  3  8  2  0  0  0  0
  3 17  1  0  0  0  0
  4  9  1  0  0  0  0
  4 17  2  0  0  0  0
  5 19  1  0  0  0  0
  6 21  1  0  0  0  0
  7 10  2  0  0  0  0
  7 20  1  0  0  0  0
  8 26  1  0  0  0  0
  9 26  2  0  0  0  0
 10 27  1  0  0  0  0
 11 12  2  0  0  0  0
 11 28  1  0  0  0  0
 12 29  1  0  0  0  0
 13 22  1  0  0  0  0
 13 27  2  0  0  0  0
 14 23  2  0  0  0  0
 14 24  1  0  0  0  0
 15 23  1  0  0  0  0
 15 25  2  0  0  0  0
 16 29  2  0  0  0  0
 16 30  1  0  0  0  0
 17 32  1  0  0  0  0
 18 32  1  0  0  0  0
 18 33  2  0  0  0  0
 18 34  1  0  0  0  0
 19 21  2  0  0  0  0
 19 39  1  0  0  0  0
 20 22  2  0  0  0  0
 20 40  1  0  0  0  0
 21 48  1  0  0  0  0
 22 41  1  0  0  0  0
 23 51  1  0  0  0  0
 24 31  2  0  0  0  0
 24 58  1  0  0  0  0
 25 31  1  0  0  0  0
 25 71  1  0  0  0  0
 26 81  1  0  0  0  0
 27 82  1  0  0  0  0
 28 30  2  0  0  0  0
 28 81  1  0  0  0  0
 29 83  1  0  0  0  0
 30 84  1  0  0  0  0
 31 85  1  0  0  0  0
 32 65  2  0  0  0  0
 33 66  1  0  0  0  0
 33 69  1  0  0  0  0
 34 70  1  0  0  0  0
 34 76  2  0  0  0  0
 35 49  1  0  0  0  0
 35 72  1  0  0  0  0
 35 77  2  0  0  0  0
 36 61  1  0  0  0  0
 36 67  1  0  0  0  0
 36 78  2  0  0  0  0
 37 62  1  0  0  0  0
 37 73  1  0  0  0  0
 37 79  2  0  0  0  0
 38 68  1  0  0  0  0
 38 71  1  0  0  0  0
 38 80  2  0  0  0  0
 39 42  1  0  0  0  0
 40 49  1  0  0  0  0
 41 67  1  0  0  0  0
 42 44  1  0  0  0  0
 43 45  1  0  0  0  0
 43 46  1  0  0  0  0
 44 48  1  0  0  0  0
 45 50  1  0  0  0  0
 46 68  1  0  0  0  0
 47 50  1  0  0  0  0
 47 68  1  0  0  0  0
 48 72  1  0  0  0  0
 49 67  1  0  0  0  0
 50 66  1  0  0  0  0
 52 62  1  0  0  0  0
 53 63  1  0  0  0  0
 54 64  1  0  0  0  0
 55 64  1  0  0  0  0
 56 64  1  0  0  0  0
 57 74  1  0  0  0  0
 58 75  1  0  0  0  0
 59 60  1  0  0  0  0
 59 63  1  0  0  0  0
 60 82  1  0  0  0  0
 61 64  1  0  0  0  0
 61 73  1  0  0  0  0
 62 74  1  0  0  0  0
 63 75  1  0  0  0  0
 65 66  1  0  0  0  0
M  CHG  2  74   1  75   1
M  ISO  4  38 100  60 101  71 100  82 101
M  END
> <Batch ID>
0013

> <Smiles>
CNC(C)C(=O)NC(C(=O)N1Cc2cc([101O:1][101CH2:1]CC(C)NCc3cc(C)cc([100NH:0][100C:0](=O)N4CCCC(n5nc(-c6ccc(Oc7ccc(F)cc7F)cc6)c(C(N)=O)c5N)C4)c3Cl)ccc2CC1C(=O)NC1CCCc2ccccc21)C(C)(C)C

> <Shape>
0.233

> <Color>
0.081

> <Negative vol penalty>
0.000

$$$$

  -OEChem-04052315503D

 83 91  0     1  0  0  0  0  0999 V2000
  -21.6068  -22.7927   34.9834 C   0  0  0  0  0  0  0  0  0  0  0  0
  -22.8338  -22.5180   34.3879 C   0  0  0  0  0  0  0  0  0  0  0  0
  -23.1520   -9.8663   19.9617 C   0  0  0  0  0  0  0  0  0  0  0  0
  -23.8239   -9.9643   22.2803 C   0  0  0  0  0  0  0  0  0  0  0  0
  -20.7277  -21.7515   35.2782 C   0  0  0  0  0  0  0  0  0  0  0  0
  -23.1828  -21.2017   34.0879 C   0  0  0  0  0  0  0  0  0  0  0  0
  -26.4709  -19.2652   29.2979 C   0  0  0  0  0  0  0  0  0  0  0  0
  -22.4384   -8.6957   20.2179 C   0  0  0  0  0  0  0  0  0  0  0  0
  -23.1101   -8.7936   22.5366 C   0  0  0  0  0  0  0  0  0  0  0  0
  -27.8160  -18.9257   29.1593 C   0  0  0  0  0  0  0  0  0  0  0  0
  -21.7615   -5.6348   23.7253 C   0  0  0  0  0  0  0  0  0  0  0  0
  -22.3817   -4.6534   24.4984 C   0  0  0  0  0  0  0  0  0  0  0  0
  -27.2564  -16.6016   29.4832 C   0  0  0  0  0  0  0  0  0  0  0  0
  -32.5783  -14.6495   23.3804 C   0  0  0  0  0  0  0  0  0  0  0  0
  -24.1540   -4.4866   22.8649 C   0  0  0  0  0  0  0  0  0  0  0  0
  -23.8449  -10.5007   20.9929 C   0  0  0  0  0  0  0  0  0  0  0  0
  -24.1061  -13.0318   20.8112 C   0  0  0  0  0  0  0  0  0  0  0  0
  -21.0620  -20.4227   34.9729 C   0  0  0  0  0  0  0  0  0  0  0  0
  -25.5083  -18.2750   29.5415 C   0  0  0  0  0  0  0  0  0  0  0  0
  -22.3078  -20.1416   34.3802 C   0  0  0  0  0  0  0  0  0  0  0  0
  -25.8995  -16.9309   29.6220 C   0  0  0  0  0  0  0  0  0  0  0  0
  -31.1989  -14.8546   23.4072 C   0  0  0  0  0  0  0  0  0  0  0  0
  -31.3666  -15.6867   25.6692 C   0  0  0  0  0  0  0  0  0  0  0  0
  -22.4174   -8.1593   21.5054 C   0  0  0  0  0  0  0  0  0  0  0  0
  -28.2093  -17.5941   29.2548 C   0  0  0  0  0  0  0  0  0  0  0  0
  -22.3374   -6.0421   22.5219 C   0  0  0  0  0  0  0  0  0  0  0  0
  -23.5780   -4.0793   24.0683 C   0  0  0  0  0  0  0  0  0  0  0  0
  -33.3519  -14.9630   24.4980 C   0  0  0  0  0  0  0  0  0  0  0  0
  -23.5337   -5.4680   22.0917 C   0  0  0  0  0  0  0  0  0  0  0  0
  -32.7460  -15.4816   25.6424 C   0  0  0  0  0  0  0  0  0  0  0  0
  -30.5930  -15.3732   24.5516 C   0  0  0  0  0  0  0  0  0  0  0  0
  -24.5828  -11.7097   20.7287 C   0  0  0  0  0  0  0  0  0  0  0  0
  -25.1855  -13.8081   20.4665 C   0  0  0  0  0  0  0  0  0  0  0  0
  -22.8041  -13.5149   21.1676 C   0  0  0  0  0  0  0  0  0  0  0  0
  -23.4714  -17.6593   31.9028 C   0  0  0  0  0  0  0  0  0  0  0  0
  -22.4246  -15.3533   29.8759 C   0  0  0  0  0  0  0  0  0  0  0  0
  -23.0948  -13.2877   27.2432 C   0  0  0  0  0  0  0  0  0  0  0  0
  -30.9283  -14.0017   21.0523 C   0  0  0  0  0  0  0  0  0  0  0  0
  -20.0991  -19.3261   35.3535 C   0  0  0  0  0  0  0  0  0  0  0  0
  -24.0579  -18.6548   29.6620 C   0  0  0  0  0  0  0  0  0  0  0  0
  -24.9025  -15.8279   29.8622 C   0  0  0  0  0  0  0  0  0  0  0  0
  -20.3864  -17.9960   34.6617 C   0  0  0  0  0  0  0  0  0  0  0  0
  -29.3970  -13.0193   17.9917 C   0  0  0  0  0  0  0  0  0  0  0  0
  -21.8738  -17.6657   34.7365 C   0  0  0  0  0  0  0  0  0  0  0  0
  -27.9525  -12.7104   18.3918 C   0  0  0  0  0  0  0  0  0  0  0  0
  -30.3881  -12.5971   19.0748 C   0  0  0  0  0  0  0  0  0  0  0  0
  -28.6590  -12.8142   20.8161 C   0  0  0  0  0  0  0  0  0  0  0  0
  -22.7120  -18.7292   34.0169 C   0  0  1  0  0  0  0  0  0  0  0  0
  -23.2306  -17.6212   30.4202 C   0  0  1  0  0  0  0  0  0  0  0  0
  -27.6191  -13.2808   19.7843 C   0  0  2  0  0  0  0  0  0  0  0  0
  -22.0550  -11.4882   25.8368 C   0  0  0  0  0  0  0  0  0  0  0  0
  -22.8212  -13.3533   32.1459 C   0  0  0  0  0  0  0  0  0  0  0  0
  -22.6952  -11.5129   30.4532 C   0  0  0  0  0  0  0  0  0  0  0  0
  -20.7349  -13.0140   30.8092 C   0  0  0  0  0  0  0  0  0  0  0  0
  -23.3640  -14.8994   24.7757 C   0  0  0  0  0  0  0  0  0  0  0  0
  -31.3967  -17.2515   27.6124 C   0  0  0  0  0  0  0  0  0  0  0  0
  -30.3208  -18.0915   28.2801 C   0  0  0  0  0  0  0  0  0  1  0  0
  -22.7817  -13.9081   29.6247 C   0  0  1  0  0  0  0  0  0  0  0  0
  -22.3120  -12.9803   25.9794 C   0  0  2  0  0  0  0  0  0  0  0  0
  -22.2775  -12.9679   30.7557 C   0  0  0  0  0  0  0  0  0  0  0  0
  -25.8651  -11.6460   20.3604 N   0  0  0  0  0  0  0  0  0  0  0  0
  -26.2033  -12.9377   20.2083 N   0  0  0  0  0  0  0  0  0  0  0  0
  -23.4970  -16.2504   29.9795 N   0  0  0  0  0  0  0  0  0  0  0  0
  -30.0113  -13.1784   20.3651 N   0  0  0  0  0  0  0  0  0  0  0  0
  -25.3537  -15.1434   20.3621 N   0  0  0  0  0  0  0  0  0  0  0  0
  -21.8112  -12.5811   21.4939 N   0  0  0  0  0  0  0  0  0  0  0  0
  -30.4472  -14.5238   22.2525 N   0  0  0  0  0  0  0  0  0  0  0  0
  -30.7953  -16.2031   26.8205 N   0  0  0  0  0  0  0  0  0  0  0  0
  -22.6499  -18.5373   32.5838 N   0  0  0  0  0  0  0  0  0  0  0  0
  -22.2612  -13.5832   28.3011 N   0  0  0  0  0  0  0  0  0  0  0  0
  -23.0633  -13.4446   24.7790 N   0  3  0  0  0  0  0  0  0  0  0  0
  -22.5247  -14.7377   21.1799 O   0  0  0  0  0  0  0  0  0  0  0  0
  -24.3374  -16.9440   32.3929 O   0  0  0  0  0  0  0  0  0  0  0  0
  -21.2375  -15.6754   29.9695 O   0  0  0  0  0  0  0  0  0  0  0  0
  -24.3228  -13.2641   27.2885 O   0  0  0  0  0  0  0  0  0  0  0  0
  -32.0473  -14.2489   20.5954 O   0  0  0  0  0  0  0  0  0  0  0  0
  -21.7208   -7.0171   21.7558 O   0  0  0  0  0  0  0  0  0  0  0  0
  -29.5217  -17.2600   29.1205 O   0  0  0  0  0  0  0  0  0  1  0  0
  -24.1743   -3.1380   24.8116 F   0  0  0  0  0  0  0  0  0  0  0  0
  -34.6766  -14.7661   24.4722 F   0  0  0  0  0  0  0  0  0  0  0  0
  -24.0924   -5.8560   20.9371 F   0  0  0  0  0  0  0  0  0  0  0  0
  -33.5007  -15.7790   26.7099 F   0  0  0  0  0  0  0  0  0  0  0  0
  -28.8767  -15.6283   24.5849 Cl  0  0  0  0  0  0  0  0  0  0  0  0
  1  2  1  0  0  0  0
  1  5  2  0  0  0  0
  2  6  2  0  0  0  0
  3  8  2  0  0  0  0
  3 16  1  0  0  0  0
  4  9  1  0  0  0  0
  4 16  2  0  0  0  0
  5 18  1  0  0  0  0
  6 20  1  0  0  0  0
  7 10  2  0  0  0  0
  7 19  1  0  0  0  0
  8 24  1  0  0  0  0
  9 24  2  0  0  0  0
 10 25  1  0  0  0  0
 11 12  2  0  0  0  0
 11 26  1  0  0  0  0
 12 27  1  0  0  0  0
 13 21  1  0  0  0  0
 13 25  2  0  0  0  0
 14 22  2  0  0  0  0
 14 28  1  0  0  0  0
 15 27  2  0  0  0  0
 15 29  1  0  0  0  0
 16 32  1  0  0  0  0
 17 32  1  0  0  0  0
 17 33  2  0  0  0  0
 17 34  1  0  0  0  0
 18 20  2  0  0  0  0
 18 39  1  0  0  0  0
 19 21  2  0  0  0  0
 19 40  1  0  0  0  0
 20 48  1  0  0  0  0
 21 41  1  0  0  0  0
 22 31  1  0  0  0  0
 22 67  1  0  0  0  0
 23 30  1  0  0  0  0
 23 31  2  0  0  0  0
 23 68  1  0  0  0  0
 24 77  1  0  0  0  0
 25 78  1  0  0  0  0
 26 29  2  0  0  0  0
 26 77  1  0  0  0  0
 27 79  1  0  0  0  0
 28 30  2  0  0  0  0
 28 80  1  0  0  0  0
 29 81  1  0  0  0  0
 30 82  1  0  0  0  0
 31 83  1  0  0  0  0
 32 61  2  0  0  0  0
 33 62  1  0  0  0  0
 33 65  1  0  0  0  0
 34 66  1  0  0  0  0
 34 72  2  0  0  0  0
 35 49  1  0  0  0  0
 35 69  1  0  0  0  0
 35 73  2  0  0  0  0
 36 58  1  0  0  0  0
 36 63  1  0  0  0  0
 36 74  2  0  0  0  0
 37 59  1  0  0  0  0
 37 70  1  0  0  0  0
 37 75  2  0  0  0  0
 38 64  1  0  0  0  0
 38 67  1  0  0  0  0
 38 76  2  0  0  0  0
 39 42  1  0  0  0  0
 40 49  1  0  0  0  0
 41 63  1  0  0  0  0
 42 44  1  0  0  0  0
 43 45  1  0  0  0  0
 43 46  1  0  0  0  0
 44 48  1  0  0  0  0
 45 50  1  0  0  0  0
 46 64  1  0  0  0  0
 47 50  1  0  0  0  0
 47 64  1  0  0  0  0
 48 69  1  0  0  0  0
 49 63  1  0  0  0  0
 50 62  1  0  0  0  0
 51 59  1  0  0  0  0
 52 60  1  0  0  0  0
 53 60  1  0  0  0  0
 54 60  1  0  0  0  0
 55 71  1  0  0  0  0
 56 57  1  0  0  0  0
 56 68  1  0  0  0  0
 57 78  1  0  0  0  0
 58 60  1  0  0  0  0
 58 70  1  0  0  0  0
 59 71  1  0  0  0  0
 61 62  1  0  0  0  0
M  CHG  1  71   1
M  ISO  4  38 100  57 101  67 100  78 101
M  END
> <Batch ID>
0013

> <Smiles>
CNC(C)C(=O)NC(C(=O)N1Cc2cc([101O:1][101CH2:1]CNc3c(F)c(F)cc([100NH:0][100C:0](=O)N4CCCC(n5nc(-c6ccc(Oc7ccc(F)cc7F)cc6)c(C(N)=O)c5N)C4)c3Cl)ccc2CC1C(=O)NC1CCCc2ccccc21)C(C)(C)C

> <Shape>
0.149

> <Color>
0.192

> <Negative vol penalty>
0.000

$$$$

  -OEChem-04052315503D

 84 92  0     1  0  0  0  0  0999 V2000
  -23.2284  -31.2968   13.5883 C   0  0  0  0  0  0  0  0  0  0  0  0
  -23.9460  -30.1707   13.9786 C   0  0  0  0  0  0  0  0  0  0  0  0
  -23.1030   -9.7083   20.1661 C   0  0  0  0  0  0  0  0  0  0  0  0
  -23.6884  -10.1111   22.4752 C   0  0  0  0  0  0  0  0  0  0  0  0
  -23.3866  -32.4971   14.2797 C   0  0  0  0  0  0  0  0  0  0  0  0
  -24.8232  -30.2447   15.0601 C   0  0  0  0  0  0  0  0  0  0  0  0
  -26.0223  -25.8338   19.1359 C   0  0  0  0  0  0  0  0  0  0  0  0
  -22.3558   -8.5948   20.5497 C   0  0  0  0  0  0  0  0  0  0  0  0
  -22.9411   -8.9976   22.8589 C   0  0  0  0  0  0  0  0  0  0  0  0
  -27.0625  -24.9115   19.2411 C   0  0  0  0  0  0  0  0  0  0  0  0
  -23.3112   -5.6370   22.8835 C   0  0  0  0  0  0  0  0  0  0  0  0
  -23.8828   -4.7590   23.8042 C   0  0  0  0  0  0  0  0  0  0  0  0
  -28.2060  -26.3848   20.7712 C   0  0  0  0  0  0  0  0  0  0  0  0
  -31.2317  -19.7801   22.0216 C   0  0  0  0  0  0  0  0  0  0  0  0
  -22.0562   -5.1709   25.3310 C   0  0  0  0  0  0  0  0  0  0  0  0
  -23.7694  -10.4665   21.1288 C   0  0  0  0  0  0  0  0  0  0  0  0
  -24.0902  -12.9448   20.6161 C   0  0  0  0  0  0  0  0  0  0  0  0
  -24.2588  -32.5833   15.3762 C   0  0  0  0  0  0  0  0  0  0  0  0
  -26.0714  -27.0454   19.8403 C   0  0  0  0  0  0  0  0  0  0  0  0
  -24.9942  -31.4477   15.7661 C   0  0  0  0  0  0  0  0  0  0  0  0
  -27.1640  -27.3197   20.6753 C   0  0  0  0  0  0  0  0  0  0  0  0
  -31.8924  -18.6921   22.5919 C   0  0  0  0  0  0  0  0  0  0  0  0
  -29.6992  -18.2719   20.9197 C   0  0  0  0  0  0  0  0  0  0  0  0
  -30.1350  -19.5700   21.1856 C   0  0  0  0  0  0  0  0  0  0  0  0
  -30.3601  -17.1839   21.4899 C   0  0  0  0  0  0  0  0  0  0  0  0
  -22.2748   -8.2394   21.8961 C   0  0  0  0  0  0  0  0  0  0  0  0
  -28.1559  -25.1882   20.0566 C   0  0  0  0  0  0  0  0  0  0  0  0
  -22.1121   -6.2821   23.1864 C   0  0  0  0  0  0  0  0  0  0  0  0
  -23.2553   -4.5258   25.0280 C   0  0  0  0  0  0  0  0  0  0  0  0
  -21.4846   -6.0490   24.4102 C   0  0  0  0  0  0  0  0  0  0  0  0
  -31.4567  -17.3940   22.3260 C   0  0  0  0  0  0  0  0  0  0  0  0
  -24.5419  -11.6166   20.7331 C   0  0  0  0  0  0  0  0  0  0  0  0
  -25.1979  -13.6499   20.2131 C   0  0  0  0  0  0  0  0  0  0  0  0
  -22.7860  -13.4922   20.8507 C   0  0  0  0  0  0  0  0  0  0  0  0
  -26.1293  -30.1159   19.0204 C   0  0  0  0  0  0  0  0  0  0  0  0
  -25.8805  -30.5736   22.2221 C   0  0  0  0  0  0  0  0  0  0  0  0
  -29.7956  -22.0320   20.7892 C   0  0  0  0  0  0  0  0  0  0  0  0
  -26.3689  -29.3500   25.3703 C   0  0  0  0  0  0  0  0  0  0  0  0
  -30.6231  -14.8396   20.6057 C   0  0  0  0  0  0  0  0  0  0  0  0
  -24.4321  -33.9148   16.0631 C   0  0  0  0  0  0  0  0  0  0  0  0
  -24.9287  -28.0180   19.7369 C   0  0  0  0  0  0  0  0  0  0  0  0
  -27.2551  -28.5969   21.4682 C   0  0  0  0  0  0  0  0  0  0  0  0
  -25.1002  -33.8117   17.4318 C   0  0  0  0  0  0  0  0  0  0  0  0
  -29.7176  -12.0428   18.5971 C   0  0  0  0  0  0  0  0  0  0  0  0
  -26.3261  -32.9068   17.3607 C   0  0  0  0  0  0  0  0  0  0  0  0
  -28.2532  -11.7918   18.9641 C   0  0  0  0  0  0  0  0  0  0  0  0
  -30.5371  -12.4881   19.8069 C   0  0  0  0  0  0  0  0  0  0  0  0
  -28.5236  -13.3848   20.9074 C   0  0  0  0  0  0  0  0  0  0  0  0
  -25.9367  -31.4817   16.9496 C   0  0  1  0  0  0  0  0  0  0  0  0
  -25.3251  -29.4462   20.0985 C   0  0  1  0  0  0  0  0  0  0  0  0
  -27.6441  -12.9967   19.7076 C   0  0  2  0  0  0  0  0  0  0  0  0
  -33.0625  -18.9660   23.4815 C   0  0  0  0  0  0  0  0  0  0  0  0
  -28.5201  -18.0511   20.0222 C   0  0  0  0  0  0  0  0  0  0  0  0
  -26.1040  -29.9694   27.7876 C   0  0  0  0  0  0  0  0  0  0  0  0
  -28.3468  -32.3600   22.0321 C   0  0  0  0  0  0  0  0  0  0  0  0
  -28.5902  -32.1697   24.5166 C   0  0  0  0  0  0  0  0  0  0  0  0
  -26.5488  -33.2211   23.5421 C   0  0  0  0  0  0  0  0  0  0  0  0
  -24.4897  -27.1159   25.8569 C   0  0  0  0  0  0  0  0  0  0  0  0
  -28.8403  -22.9111   20.0037 C   0  0  0  0  0  0  0  0  0  1  0  0
  -26.8611  -30.7188   23.3607 C   0  0  1  0  0  0  0  0  0  0  0  0
  -25.4586  -29.3002   26.5841 C   0  0  2  0  0  0  0  0  0  0  0  0
  -27.5862  -32.0941   23.3466 C   0  0  0  0  0  0  0  0  0  0  0  0
  -25.8356  -11.4832   20.4289 N   0  0  0  0  0  0  0  0  0  0  0  0
  -26.2063  -12.7367   20.1167 N   0  0  0  0  0  0  0  0  0  0  0  0
  -26.1159  -29.5190   21.3288 N   0  0  0  0  0  0  0  0  0  0  0  0
  -29.9021  -13.6359   20.4583 N   0  0  0  0  0  0  0  0  0  0  0  0
  -25.3979  -14.9557   19.9354 N   0  0  0  0  0  0  0  0  0  0  0  0
  -21.7622  -12.6272   21.2604 N   0  0  0  0  0  0  0  0  0  0  0  0
  -29.4795  -20.6885   20.6184 N   0  0  0  0  0  0  0  0  0  0  0  0
  -29.9056  -15.8712   21.2103 N   0  0  0  0  0  0  0  0  0  0  0  0
  -25.3654  -30.7699   18.0727 N   0  0  0  0  0  0  0  0  0  0  0  0
  -26.1102  -30.4518   24.5827 N   0  0  0  0  0  0  0  0  0  0  0  0
  -25.1492  -27.8870   26.9420 N   0  3  0  0  0  0  0  0  0  0  0  0
  -22.5320  -14.7095   20.6857 O   0  0  0  0  0  0  0  0  0  0  0  0
  -27.3524  -30.0459   19.0473 O   0  0  0  0  0  0  0  0  0  0  0  0
  -24.9363  -31.3624   22.1329 O   0  0  0  0  0  0  0  0  0  0  0  0
  -30.7021  -22.5103   21.4631 O   0  0  0  0  0  0  0  0  0  0  0  0
  -27.2264  -28.4987   25.1454 O   0  0  0  0  0  0  0  0  0  0  0  0
  -31.7822  -14.9558   20.1993 O   0  0  0  0  0  0  0  0  0  0  0  0
  -21.5455   -7.1530   22.2709 O   0  0  0  0  0  0  0  0  0  0  0  0
  -29.1729  -24.2899   20.1606 O   0  0  0  0  0  0  0  0  0  1  0  0
  -23.8035   -3.6814   25.9115 F   0  0  0  0  0  0  0  0  0  0  0  0
  -20.3319   -6.6649   24.7064 F   0  0  0  0  0  0  0  0  0  0  0  0
  -32.2851  -16.0478   23.0400 Cl  0  0  0  0  0  0  0  0  0  0  0  0
  1  2  1  0  0  0  0
  1  5  2  0  0  0  0
  2  6  2  0  0  0  0
  3  8  2  0  0  0  0
  3 16  1  0  0  0  0
  4  9  1  0  0  0  0
  4 16  2  0  0  0  0
  5 18  1  0  0  0  0
  6 20  1  0  0  0  0
  7 10  2  0  0  0  0
  7 19  1  0  0  0  0
  8 26  1  0  0  0  0
  9 26  2  0  0  0  0
 10 27  1  0  0  0  0
 11 12  2  0  0  0  0
 11 28  1  0  0  0  0
 12 29  1  0  0  0  0
 13 21  1  0  0  0  0
 13 27  2  0  0  0  0
 14 22  2  0  0  0  0
 14 24  1  0  0  0  0
 15 29  2  0  0  0  0
 15 30  1  0  0  0  0
 16 32  1  0  0  0  0
 17 32  1  0  0  0  0
 17 33  2  0  0  0  0
 17 34  1  0  0  0  0
 18 20  2  0  0  0  0
 18 40  1  0  0  0  0
 19 21  2  0  0  0  0
 19 41  1  0  0  0  0
 20 49  1  0  0  0  0
 21 42  1  0  0  0  0
 22 31  1  0  0  0  0
 22 52  1  0  0  0  0
 23 24  2  0  0  0  0
 23 25  1  0  0  0  0
 23 53  1  0  0  0  0
 24 69  1  0  0  0  0
 25 31  2  0  0  0  0
 25 70  1  0  0  0  0
 26 80  1  0  0  0  0
 27 81  1  0  0  0  0
 28 30  2  0  0  0  0
 28 80  1  0  0  0  0
 29 82  1  0  0  0  0
 30 83  1  0  0  0  0
 31 84  1  0  0  0  0
 32 63  2  0  0  0  0
 33 64  1  0  0  0  0
 33 67  1  0  0  0  0
 34 68  1  0  0  0  0
 34 74  2  0  0  0  0
 35 50  1  0  0  0  0
 35 71  1  0  0  0  0
 35 75  2  0  0  0  0
 36 60  1  0  0  0  0
 36 65  1  0  0  0  0
 36 76  2  0  0  0  0
 37 59  1  0  0  0  0
 37 69  1  0  0  0  0
 37 77  2  0  0  0  0
 38 61  1  0  0  0  0
 38 72  1  0  0  0  0
 38 78  2  0  0  0  0
 39 66  1  0  0  0  0
 39 70  1  0  0  0  0
 39 79  2  0  0  0  0
 40 43  1  0  0  0  0
 41 50  1  0  0  0  0
 42 65  1  0  0  0  0
 43 45  1  0  0  0  0
 44 46  1  0  0  0  0
 44 47  1  0  0  0  0
 45 49  1  0  0  0  0
 46 51  1  0  0  0  0
 47 66  1  0  0  0  0
 48 51  1  0  0  0  0
 48 66  1  0  0  0  0
 49 71  1  0  0  0  0
 50 65  1  0  0  0  0
 51 64  1  0  0  0  0
 54 61  1  0  0  0  0
 55 62  1  0  0  0  0
 56 62  1  0  0  0  0
 57 62  1  0  0  0  0
 58 73  1  0  0  0  0
 59 81  1  0  0  0  0
 60 62  1  0  0  0  0
 60 72  1  0  0  0  0
 61 73  1  0  0  0  0
 63 64  1  0  0  0  0
M  CHG  1  73   1
M  ISO  4  39 100  59 101  70 100  81 101
M  END
> <Batch ID>
0013

> <Smiles>
CNC(C)C(=O)NC(C(=O)N1Cc2cc([101O:1][101CH2:1]C(=O)Nc3cc(C)c(Cl)c([100NH:0][100C:0](=O)N4CCCC(n5nc(-c6ccc(Oc7ccc(F)cc7F)cc6)c(C(N)=O)c5N)C4)c3C)ccc2CC1C(=O)NC1CCCc2ccccc21)C(C)(C)C

> <Shape>
0.335

> <Color>
0.197

> <Negative vol penalty>
0.000

$$$$

  -OEChem-04052315503D

 84 92  0     1  0  0  0  0  0999 V2000
  -38.4998  -25.3715   28.4835 C   0  0  0  0  0  0  0  0  0  0  0  0
  -37.8918  -24.3454   27.7674 C   0  0  0  0  0  0  0  0  0  0  0  0
  -22.9992   -9.8937   19.9836 C   0  0  0  0  0  0  0  0  0  0  0  0
  -23.7226   -9.9491   22.2881 C   0  0  0  0  0  0  0  0  0  0  0  0
  -37.7228  -26.3853   29.0425 C   0  0  0  0  0  0  0  0  0  0  0  0
  -36.5062  -24.3320   27.6107 C   0  0  0  0  0  0  0  0  0  0  0  0
  -35.0980  -23.2584   22.8663 C   0  0  0  0  0  0  0  0  0  0  0  0
  -22.2318   -8.7602   20.2517 C   0  0  0  0  0  0  0  0  0  0  0  0
  -22.9551   -8.8156   22.5562 C   0  0  0  0  0  0  0  0  0  0  0  0
  -35.1480  -21.9214   22.4744 C   0  0  0  0  0  0  0  0  0  0  0  0
  -23.1978   -5.4755   22.0916 C   0  0  0  0  0  0  0  0  0  0  0  0
  -23.7841   -4.4596   22.8463 C   0  0  0  0  0  0  0  0  0  0  0  0
  -32.7693  -21.7345   22.8294 C   0  0  0  0  0  0  0  0  0  0  0  0
  -29.8796  -17.4512   23.0903 C   0  0  0  0  0  0  0  0  0  0  0  0
  -32.0583  -16.5523   22.5586 C   0  0  0  0  0  0  0  0  0  0  0  0
  -22.0591   -4.7071   24.5197 C   0  0  0  0  0  0  0  0  0  0  0  0
  -23.7447  -10.4881   21.0017 C   0  0  0  0  0  0  0  0  0  0  0  0
  -24.1316  -13.0031   20.8207 C   0  0  0  0  0  0  0  0  0  0  0  0
  -36.3280  -26.3895   28.8844 C   0  0  0  0  0  0  0  0  0  0  0  0
  -33.8830  -23.8415   23.2538 C   0  0  0  0  0  0  0  0  0  0  0  0
  -35.7098  -25.3461   28.1692 C   0  0  0  0  0  0  0  0  0  0  0  0
  -32.7061  -23.0799   23.2234 C   0  0  0  0  0  0  0  0  0  0  0  0
  -30.4677  -18.3503   23.9799 C   0  0  0  0  0  0  0  0  0  0  0  0
  -31.8510  -18.3505   24.1588 C   0  0  0  0  0  0  0  0  0  0  0  0
  -30.6749  -16.5521   22.3797 C   0  0  0  0  0  0  0  0  0  0  0  0
  -32.6463  -17.4514   23.4482 C   0  0  0  0  0  0  0  0  0  0  0  0
  -22.2097   -8.2212   21.5380 C   0  0  0  0  0  0  0  0  0  0  0  0
  -33.9841  -21.1584   22.4586 C   0  0  0  0  0  0  0  0  0  0  0  0
  -22.0421   -6.1074   22.5509 C   0  0  0  0  0  0  0  0  0  0  0  0
  -23.2148   -4.0753   24.0603 C   0  0  0  0  0  0  0  0  0  0  0  0
  -21.4728   -5.7231   23.7649 C   0  0  0  0  0  0  0  0  0  0  0  0
  -24.5380  -11.6586   20.7253 C   0  0  0  0  0  0  0  0  0  0  0  0
  -25.2421  -13.7242   20.4557 C   0  0  0  0  0  0  0  0  0  0  0  0
  -22.8637  -13.5511   21.2051 C   0  0  0  0  0  0  0  0  0  0  0  0
  -32.7772  -25.1534   25.9296 C   0  0  0  0  0  0  0  0  0  0  0  0
  -30.2198  -25.8619   24.0641 C   0  0  0  0  0  0  0  0  0  0  0  0
  -28.3619  -25.1320   21.2960 C   0  0  0  0  0  0  0  0  0  0  0  0
  -30.7220  -14.6825   20.6919 C   0  0  0  0  0  0  0  0  0  0  0  0
  -35.5256  -27.4812   29.5470 C   0  0  0  0  0  0  0  0  0  0  0  0
  -33.8414  -25.2924   23.6483 C   0  0  0  0  0  0  0  0  0  0  0  0
  -31.3731  -23.6642   23.6107 C   0  0  0  0  0  0  0  0  0  0  0  0
  -34.0986  -27.5957   29.0168 C   0  0  0  0  0  0  0  0  0  0  0  0
  -29.6040  -12.2254   18.3703 C   0  0  0  0  0  0  0  0  0  0  0  0
  -33.4496  -26.2180   28.9290 C   0  0  0  0  0  0  0  0  0  0  0  0
  -28.1530  -11.9695   18.7838 C   0  0  0  0  0  0  0  0  0  0  0  0
  -30.5037  -12.4708   19.5802 C   0  0  0  0  0  0  0  0  0  0  0  0
  -28.5878  -13.2636   20.9106 C   0  0  0  0  0  0  0  0  0  0  0  0
  -34.2119  -25.3101   27.9564 C   0  0  1  0  0  0  0  0  0  0  0  0
  -32.6358  -25.6414   24.5156 C   0  0  1  0  0  0  0  0  0  0  0  0
  -27.6310  -13.0753   19.7220 C   0  0  2  0  0  0  0  0  0  0  0  0
  -29.5934  -19.3016   24.7293 C   0  0  0  0  0  0  0  0  0  0  0  0
  -32.4782  -19.3167   25.1142 C   0  0  0  0  0  0  0  0  0  0  0  0
  -34.6222  -15.7036   25.2299 C   0  0  0  0  0  0  0  0  0  0  0  0
  -26.3078  -25.8626   20.0533 C   0  0  0  0  0  0  0  0  0  0  0  0
  -28.4700  -24.5088   26.1659 C   0  0  0  0  0  0  0  0  0  0  0  0
  -26.6271  -24.4198   24.4735 C   0  0  0  0  0  0  0  0  0  0  0  0
  -27.5231  -26.6234   25.2244 C   0  0  0  0  0  0  0  0  0  0  0  0
  -29.9222  -25.7848   18.8673 C   0  0  0  0  0  0  0  0  0  0  0  0
  -34.6108  -17.1655   24.9379 C   0  0  0  0  0  0  0  0  0  0  0  0
  -34.9342  -17.6677   22.5107 C   0  0  0  0  0  0  0  0  0  0  0  0
  -35.2418  -19.1438   22.3334 C   0  0  0  0  0  0  0  0  0  1  0  0
  -28.9281  -25.1647   23.7111 C   0  0  1  0  0  0  0  0  0  0  0  0
  -27.8150  -26.0145   20.1885 C   0  0  2  0  0  0  0  0  0  0  0  0
  -27.9123  -25.1673   24.8882 C   0  0  0  0  0  0  0  0  0  0  0  0
  -25.8076  -11.5305   20.3303 N   0  0  0  0  0  0  0  0  0  0  0  0
  -26.2084  -12.8037   20.1744 N   0  0  0  0  0  0  0  0  0  0  0  0
  -31.3851  -25.0854   23.9950 N   0  0  0  0  0  0  0  0  0  0  0  0
  -29.9487  -13.5339   20.4209 N   0  0  0  0  0  0  0  0  0  0  0  0
  -25.4765  -15.0496   20.3510 N   0  0  0  0  0  0  0  0  0  0  0  0
  -21.8311  -12.6683   21.5497 N   0  0  0  0  0  0  0  0  0  0  0  0
  -30.0777  -15.6397   21.4749 N   0  0  0  0  0  0  0  0  0  0  0  0
  -33.8864  -25.6494   26.5877 N   0  0  0  0  0  0  0  0  0  0  0  0
  -28.4368  -25.8062   22.4964 N   0  0  0  0  0  0  0  0  0  0  0  0
  -34.0408  -17.4362   23.6145 N   0  0  3  0  0  0  0  0  0  0  0  0
  -28.4421  -25.6578   18.8845 N   0  3  0  0  0  0  0  0  0  0  0  0
  -22.6477  -14.7866   21.2261 O   0  0  0  0  0  0  0  0  0  0  0  0
  -31.9410  -24.3850   26.3900 O   0  0  0  0  0  0  0  0  0  0  0  0
  -30.1964  -27.0534   24.3823 O   0  0  0  0  0  0  0  0  0  0  0  0
  -28.6866  -23.9605   21.1151 O   0  0  0  0  0  0  0  0  0  0  0  0
  -31.8611  -14.8198   20.2385 O   0  0  0  0  0  0  0  0  0  0  0  0
  -21.4608   -7.1153   21.8001 O   0  0  0  0  0  0  0  0  0  0  0  0
  -34.0303  -19.8530   22.0772 O   0  0  0  0  0  0  0  0  0  1  0  0
  -23.7771   -3.0986   24.7842 F   0  0  0  0  0  0  0  0  0  0  0  0
  -20.3619   -6.3256   24.2108 F   0  0  0  0  0  0  0  0  0  0  0  0
  1  2  1  0  0  0  0
  1  5  2  0  0  0  0
  2  6  2  0  0  0  0
  3  8  2  0  0  0  0
  3 17  1  0  0  0  0
  4  9  1  0  0  0  0
  4 17  2  0  0  0  0
  5 19  1  0  0  0  0
  6 21  1  0  0  0  0
  7 10  2  0  0  0  0
  7 20  1  0  0  0  0
  8 27  1  0  0  0  0
  9 27  2  0  0  0  0
 10 28  1  0  0  0  0
 11 12  2  0  0  0  0
 11 29  1  0  0  0  0
 12 30  1  0  0  0  0
 13 22  1  0  0  0  0
 13 28  2  0  0  0  0
 14 23  2  0  0  0  0
 14 25  1  0  0  0  0
 15 25  2  0  0  0  0
 15 26  1  0  0  0  0
 16 30  2  0  0  0  0
 16 31  1  0  0  0  0
 17 32  1  0  0  0  0
 18 32  1  0  0  0  0
 18 33  2  0  0  0  0
 18 34  1  0  0  0  0
 19 21  2  0  0  0  0
 19 39  1  0  0  0  0
 20 22  2  0  0  0  0
 20 40  1  0  0  0  0
 21 48  1  0  0  0  0
 22 41  1  0  0  0  0
 23 24  1  0  0  0  0
 23 51  1  0  0  0  0
 24 26  2  0  0  0  0
 24 52  1  0  0  0  0
 25 71  1  0  0  0  0
 26 74  1  0  0  0  0
 27 81  1  0  0  0  0
 28 82  1  0  0  0  0
 29 31  2  0  0  0  0
 29 81  1  0  0  0  0
 30 83  1  0  0  0  0
 31 84  1  0  0  0  0
 32 65  2  0  0  0  0
 33 66  1  0  0  0  0
 33 69  1  0  0  0  0
 34 70  1  0  0  0  0
 34 76  2  0  0  0  0
 35 49  1  0  0  0  0
 35 72  1  0  0  0  0
 35 77  2  0  0  0  0
 36 62  1  0  0  0  0
 36 67  1  0  0  0  0
 36 78  2  0  0  0  0
 37 63  1  0  0  0  0
 37 73  1  0  0  0  0
 37 79  2  0  0  0  0
 38 68  1  0  0  0  0
 38 71  1  0  0  0  0
 38 80  2  0  0  0  0
 39 42  1  0  0  0  0
 40 49  1  0  0  0  0
 41 67  1  0  0  0  0
 42 44  1  0  0  0  0
 43 45  1  0  0  0  0
 43 46  1  0  0  0  0
 44 48  1  0  0  0  0
 45 50  1  0  0  0  0
 46 68  1  0  0  0  0
 47 50  1  0  0  0  0
 47 68  1  0  0  0  0
 48 72  1  0  0  0  0
 49 67  1  0  0  0  0
 50 66  1  0  0  0  0
 53 59  1  0  0  0  0
 54 63  1  0  0  0  0
 55 64  1  0  0  0  0
 56 64  1  0  0  0  0
 57 64  1  0  0  0  0
 58 75  1  0  0  0  0
 59 74  1  0  0  0  0
 60 61  1  0  0  0  0
 60 74  1  0  0  0  0
 61 82  1  0  0  0  0
 62 64  1  0  0  0  0
 62 73  1  0  0  0  0
 63 75  1  0  0  0  0
 65 66  1  0  0  0  0
M  CHG  1  75   1
M  ISO  4  38 100  61 101  71 100  82 101
M  END
> <Batch ID>
0013

> <Smiles>
CCN(C[101CH2:1][101O:1]c1ccc2c(c1)CN(C(=O)C(NC(=O)C(C)NC)C(C)(C)C)C(C(=O)NC1CCCc3ccccc31)C2)c1cc([100NH:0][100C:0](=O)N2CCCC(n3nc(-c4ccc(Oc5ccc(F)cc5F)cc4)c(C(N)=O)c3N)C2)cc(C)c1C

> <Shape>
0.198

> <Color>
0.206

> <Negative vol penalty>
0.000

$$$$

  -OEChem-04052315503D

 85 92  0     1  0  0  0  0  0999 V2000
  -25.5019  -35.6430   21.5648 C   0  0  0  0  0  0  0  0  0  0  0  0
  -26.1301  -34.4020   21.5888 C   0  0  0  0  0  0  0  0  0  0  0  0
  -21.2923  -12.2923   22.9690 C   0  0  0  0  0  0  0  0  0  0  0  0
  -20.3876  -12.7352   20.7730 C   0  0  0  0  0  0  0  0  0  0  0  0
  -24.2134  -35.7809   22.0792 C   0  0  0  0  0  0  0  0  0  0  0  0
  -25.4704  -33.2982   22.1283 C   0  0  0  0  0  0  0  0  0  0  0  0
  -25.9304  -29.1601   19.2457 C   0  0  0  0  0  0  0  0  0  0  0  0
  -20.2264  -11.4328   23.2348 C   0  0  0  0  0  0  0  0  0  0  0  0
  -19.3217  -11.8757   21.0388 C   0  0  0  0  0  0  0  0  0  0  0  0
  -27.1369  -28.4650   19.3175 C   0  0  0  0  0  0  0  0  0  0  0  0
  -17.9352   -8.8430   24.3564 C   0  0  0  0  0  0  0  0  0  0  0  0
  -18.2250   -7.6151   24.9513 C   0  0  0  0  0  0  0  0  0  0  0  0
  -26.1187  -26.8636   20.8068 C   0  0  0  0  0  0  0  0  0  0  0  0
  -19.6228   -7.0330   23.0686 C   0  0  0  0  0  0  0  0  0  0  0  0
  -21.3729  -12.9436   21.7381 C   0  0  0  0  0  0  0  0  0  0  0  0
  -23.7124  -13.4970   20.8849 C   0  0  0  0  0  0  0  0  0  0  0  0
  -23.5339  -34.6763   22.6165 C   0  0  0  0  0  0  0  0  0  0  0  0
  -24.8102  -28.7175   19.9638 C   0  0  0  0  0  0  0  0  0  0  0  0
  -24.1721  -33.4218   22.6516 C   0  0  0  0  0  0  0  0  0  0  0  0
  -24.8985  -27.5533   20.7404 C   0  0  0  0  0  0  0  0  0  0  0  0
  -19.2411  -11.2245   22.2697 C   0  0  0  0  0  0  0  0  0  0  0  0
  -27.2320  -27.3182   20.1004 C   0  0  0  0  0  0  0  0  0  0  0  0
  -18.4891   -9.1659   23.1176 C   0  0  0  0  0  0  0  0  0  0  0  0
  -19.0688   -6.7101   24.3074 C   0  0  0  0  0  0  0  0  0  0  0  0
  -19.3329   -8.2609   22.4737 C   0  0  0  0  0  0  0  0  0  0  0  0
  -22.4734  -13.8320   21.4631 C   0  0  0  0  0  0  0  0  0  0  0  0
  -24.4022  -14.6838   20.8392 C   0  0  0  0  0  0  0  0  0  0  0  0
  -24.1965  -12.2265   20.4297 C   0  0  0  0  0  0  0  0  0  0  0  0
  -23.0053  -29.9356   22.2794 C   0  0  0  0  0  0  0  0  0  0  0  0
  -21.2206  -27.2785   21.7532 C   0  0  0  0  0  0  0  0  0  0  0  0
  -27.5614  -20.1328   18.3543 C   0  0  0  0  0  0  0  0  0  0  0  0
  -21.0718  -24.0699   20.6001 C   0  0  0  0  0  0  0  0  0  0  0  0
  -24.6063  -20.1557   19.7612 C   0  0  0  0  0  0  0  0  0  0  0  0
  -22.1604  -34.8843   23.2038 C   0  0  0  0  0  0  0  0  0  0  0  0
  -23.5086  -29.4634   19.8546 C   0  0  0  0  0  0  0  0  0  0  0  0
  -23.7194  -27.0251   21.5145 C   0  0  0  0  0  0  0  0  0  0  0  0
  -21.3861  -33.5861   23.4168 C   0  0  0  0  0  0  0  0  0  0  0  0
  -23.3887  -19.1644   22.9567 C   0  0  0  0  0  0  0  0  0  0  0  0
  -22.2718  -32.5398   24.0857 C   0  0  0  0  0  0  0  0  0  0  0  0
  -23.1385  -17.6631   22.8032 C   0  0  0  0  0  0  0  0  0  0  0  0
  -23.0524  -19.9263   21.6767 C   0  0  0  0  0  0  0  0  0  0  0  0
  -23.4681  -17.9193   20.3083 C   0  0  0  0  0  0  0  0  0  0  0  0
  -23.4797  -32.1956   23.2059 C   0  0  1  0  0  0  0  0  0  0  0  0
  -22.5751  -29.2121   21.0348 C   0  0  1  0  0  0  0  0  0  0  0  0
  -23.8459  -17.1015   21.5552 C   0  0  2  0  0  0  0  0  0  0  0  0
  -19.4860  -22.1429   20.3368 C   0  0  0  0  0  0  0  0  0  0  0  0
  -21.4468  -26.6876   24.7381 C   0  0  0  0  0  0  0  0  0  0  0  0
  -20.6986  -24.3467   24.2604 C   0  0  0  0  0  0  0  0  0  0  0  0
  -19.1845  -26.2648   23.7595 C   0  0  0  0  0  0  0  0  0  0  0  0
  -30.8731  -21.7170   21.2887 C   0  0  0  0  0  0  0  0  0  0  0  0
  -28.9609  -20.1288   21.2095 C   0  0  0  0  0  0  0  0  0  0  0  0
  -28.5282  -22.5786   21.4362 C   0  0  0  0  0  0  0  0  0  0  0  0
  -21.3772  -24.0703   17.6564 C   0  0  0  0  0  0  0  0  0  0  0  0
  -30.5376  -22.7630   17.2526 C   0  0  0  0  0  0  0  0  0  0  0  0
  -26.1487  -20.2245   17.8182 C   0  0  0  0  0  0  0  0  0  0  0  0
  -30.0512  -25.3890   18.9428 C   0  0  0  0  0  0  0  0  0  0  0  0
  -29.1802  -24.1503   18.7961 C   0  0  0  0  0  0  0  0  0  0  0  0
  -29.2598  -26.6882   19.0293 C   0  0  0  0  0  0  0  0  0  1  0  0
  -21.2112  -25.8714   22.3000 C   0  0  1  0  0  0  0  0  0  0  0  0
  -20.0856  -23.3756   19.6783 C   0  0  2  0  0  0  0  0  0  0  0  0
  -29.4089  -21.6084   19.1962 C   0  0  1  0  0  0  0  0  0  0  0  0
  -20.6582  -25.8034   23.7516 C   0  0  0  0  0  0  0  0  0  0  0  0
  -29.4320  -21.5324   20.7618 C   0  0  0  0  0  0  0  0  0  0  0  0
  -22.3787  -15.1301   21.7634 N   0  0  0  0  0  0  0  0  0  0  0  0
  -23.5671  -15.6211   21.3724 N   0  0  0  0  0  0  0  0  0  0  0  0
  -22.4705  -27.7930   21.3805 N   0  0  0  0  0  0  0  0  0  0  0  0
  -23.7565  -19.3447   20.5313 N   0  0  0  0  0  0  0  0  0  0  0  0
  -25.6356  -15.0067   20.3954 N   0  0  0  0  0  0  0  0  0  0  0  0
  -23.3583  -11.1098   20.5506 N   0  0  0  0  0  0  0  0  0  0  0  0
  -23.0868  -31.3073   22.1331 N   0  0  0  0  0  0  0  0  0  0  0  0
  -20.4670  -25.0649   21.3387 N   0  0  0  0  0  0  0  0  0  0  0  0
  -28.0800  -21.3907   18.6296 N   0  0  0  0  0  0  0  0  0  0  0  0
  -25.2396  -19.5241   18.6979 N   0  0  0  0  0  0  0  0  0  0  0  0
  -20.7623  -22.9537   18.4193 N   0  3  0  0  0  0  0  0  0  0  0  0
  -30.0342  -22.9122   18.6674 N   0  3  1  0  0  0  0  0  0  0  0  0
  -25.3448  -12.0827   19.9456 O   0  0  0  0  0  0  0  0  0  0  0  0
  -23.2441  -29.2969   23.2976 O   0  0  0  0  0  0  0  0  0  0  0  0
  -20.1573  -27.8958   21.6536 O   0  0  0  0  0  0  0  0  0  0  0  0
  -28.1409  -19.0675   18.5479 O   0  0  0  0  0  0  0  0  0  0  0  0
  -22.2590  -23.7582   20.6618 O   0  0  0  0  0  0  0  0  0  0  0  0
  -24.7912  -21.3526   20.0065 O   0  0  0  0  0  0  0  0  0  0  0  0
  -18.2010  -10.3856   22.5287 O   0  0  0  0  0  0  0  0  0  0  0  0
  -28.4168  -26.6335   20.1732 O   0  0  0  0  0  0  0  0  0  1  0  0
  -19.3483   -5.5317   24.8795 F   0  0  0  0  0  0  0  0  0  0  0  0
  -19.8690   -8.5659   21.2840 F   0  0  0  0  0  0  0  0  0  0  0  0
  1  2  1  0  0  0  0
  1  5  2  0  0  0  0
  2  6  2  0  0  0  0
  3  8  2  0  0  0  0
  3 15  1  0  0  0  0
  4  9  1  0  0  0  0
  4 15  2  0  0  0  0
  5 17  1  0  0  0  0
  6 19  1  0  0  0  0
  7 10  2  0  0  0  0
  7 18  1  0  0  0  0
  8 21  1  0  0  0  0
  9 21  2  0  0  0  0
 10 22  1  0  0  0  0
 11 12  2  0  0  0  0
 11 23  1  0  0  0  0
 12 24  1  0  0  0  0
 13 20  1  0  0  0  0
 13 22  2  0  0  0  0
 14 24  2  0  0  0  0
 14 25  1  0  0  0  0
 15 26  1  0  0  0  0
 16 26  1  0  0  0  0
 16 27  2  0  0  0  0
 16 28  1  0  0  0  0
 17 19  2  0  0  0  0
 17 34  1  0  0  0  0
 18 20  2  0  0  0  0
 18 35  1  0  0  0  0
 19 43  1  0  0  0  0
 20 36  1  0  0  0  0
 21 82  1  0  0  0  0
 22 83  1  0  0  0  0
 23 25  2  0  0  0  0
 23 82  1  0  0  0  0
 24 84  1  0  0  0  0
 25 85  1  0  0  0  0
 26 64  2  0  0  0  0
 27 65  1  0  0  0  0
 27 68  1  0  0  0  0
 28 69  1  0  0  0  0
 28 76  2  0  0  0  0
 29 44  1  0  0  0  0
 29 70  1  0  0  0  0
 29 77  2  0  0  0  0
 30 59  1  0  0  0  0
 30 66  1  0  0  0  0
 30 78  2  0  0  0  0
 31 55  1  0  0  0  0
 31 72  1  0  0  0  0
 31 79  2  0  0  0  0
 32 60  1  0  0  0  0
 32 71  1  0  0  0  0
 32 80  2  0  0  0  0
 33 67  1  0  0  0  0
 33 73  1  0  0  0  0
 33 81  2  0  0  0  0
 34 37  1  0  0  0  0
 35 44  1  0  0  0  0
 36 66  1  0  0  0  0
 37 39  1  0  0  0  0
 38 40  1  0  0  0  0
 38 41  1  0  0  0  0
 39 43  1  0  0  0  0
 40 45  1  0  0  0  0
 41 67  1  0  0  0  0
 42 45  1  0  0  0  0
 42 67  1  0  0  0  0
 43 70  1  0  0  0  0
 44 66  1  0  0  0  0
 45 65  1  0  0  0  0
 46 60  1  0  0  0  0
 47 62  1  0  0  0  0
 48 62  1  0  0  0  0
 49 62  1  0  0  0  0
 50 63  1  0  0  0  0
 51 63  1  0  0  0  0
 52 63  1  0  0  0  0
 53 74  1  0  0  0  0
 54 75  1  0  0  0  0
 55 73  1  0  0  0  0
 56 57  1  0  0  0  0
 56 58  1  0  0  0  0
 57 75  1  0  0  0  0
 58 83  1  0  0  0  0
 59 62  1  0  0  0  0
 59 71  1  0  0  0  0
 60 74  1  0  0  0  0
 61 63  1  0  0  0  0
 61 72  1  0  0  0  0
 61 75  1  0  0  0  0
 64 65  1  0  0  0  0
M  CHG  2  74   1  75   1
M  ISO  4  33 100  58 101  73 100  83 101
M  END
> <Batch ID>
0013

> <Smiles>
CNC(C)C(=O)NC(C(=O)N1Cc2cc([101O:1][101CH2:1]CCN(C)C(NC(=O)C[100NH:0][100C:0](=O)N3CCCC(n4nc(-c5ccc(Oc6ccc(F)cc6F)cc5)c(C(N)=O)c4N)C3)C(C)(C)C)ccc2CC1C(=O)NC1CCCc2ccccc21)C(C)(C)C

> <Shape>
0.224

> <Color>
0.097

> <Negative vol penalty>
0.000

$$$$

  -OEChem-04052315503D

 88 96  0     1  0  0  0  0  0999 V2000
  -16.7321  -26.0850   22.8135 C   0  0  0  0  0  0  0  0  0  0  0  0
  -17.8541  -26.1184   21.9917 C   0  0  0  0  0  0  0  0  0  0  0  0
  -23.4087  -11.9650   23.5110 C   0  0  0  0  0  0  0  0  0  0  0  0
  -22.3672  -13.5625   22.0277 C   0  0  0  0  0  0  0  0  0  0  0  0
  -16.3242  -27.2386   23.4817 C   0  0  0  0  0  0  0  0  0  0  0  0
  -18.5683  -27.3060   21.8368 C   0  0  0  0  0  0  0  0  0  0  0  0
  -23.5763  -26.6134   22.1294 C   0  0  0  0  0  0  0  0  0  0  0  0
  -22.3168  -12.0547   24.3743 C   0  0  0  0  0  0  0  0  0  0  0  0
  -21.2752  -13.6521   22.8910 C   0  0  0  0  0  0  0  0  0  0  0  0
  -24.2137  -26.0918   21.0045 C   0  0  0  0  0  0  0  0  0  0  0  0
  -19.1676  -10.8351   24.5424 C   0  0  0  0  0  0  0  0  0  0  0  0
  -18.6435   -9.6464   25.0503 C   0  0  0  0  0  0  0  0  0  0  0  0
  -24.9293  -28.3115   20.3881 C   0  0  0  0  0  0  0  0  0  0  0  0
  -28.1234  -21.2169   19.0962 C   0  0  0  0  0  0  0  0  0  0  0  0
  -19.1138  -10.3991   27.2974 C   0  0  0  0  0  0  0  0  0  0  0  0
  -23.4339  -12.7190   22.3377 C   0  0  0  0  0  0  0  0  0  0  0  0
  -24.7243  -11.7342   20.3697 C   0  0  0  0  0  0  0  0  0  0  0  0
  -17.0394  -28.4385   23.3425 C   0  0  0  0  0  0  0  0  0  0  0  0
  -23.6014  -27.9916   22.3867 C   0  0  0  0  0  0  0  0  0  0  0  0
  -18.1689  -28.4771   22.5028 C   0  0  0  0  0  0  0  0  0  0  0  0
  -24.2936  -28.8478   21.5183 C   0  0  0  0  0  0  0  0  0  0  0  0
  -27.3942  -21.4621   17.9327 C   0  0  0  0  0  0  0  0  0  0  0  0
  -27.8908  -18.8385   18.7406 C   0  0  0  0  0  0  0  0  0  0  0  0
  -21.2500  -12.8982   24.0643 C   0  0  0  0  0  0  0  0  0  0  0  0
  -24.8879  -26.9412   20.1321 C   0  0  0  0  0  0  0  0  0  0  0  0
  -19.6650  -11.8058   25.4120 C   0  0  0  0  0  0  0  0  0  0  0  0
  -26.9133  -20.3956   17.1732 C   0  0  0  0  0  0  0  0  0  0  0  0
  -18.6166   -9.4284   26.4277 C   0  0  0  0  0  0  0  0  0  0  0  0
  -28.3717  -19.9051   19.5001 C   0  0  0  0  0  0  0  0  0  0  0  0
  -19.6380  -11.5878   26.7895 C   0  0  0  0  0  0  0  0  0  0  0  0
  -27.1616  -19.0838   17.5771 C   0  0  0  0  0  0  0  0  0  0  0  0
  -24.5619  -12.6272   21.4458 C   0  0  0  0  0  0  0  0  0  0  0  0
  -25.9537  -12.0494   19.8446 C   0  0  0  0  0  0  0  0  0  0  0  0
  -23.8427  -10.7113   19.8879 C   0  0  0  0  0  0  0  0  0  0  0  0
  -21.3975  -30.2701   22.6220 C   0  0  0  0  0  0  0  0  0  0  0  0
  -27.9232  -24.5023   15.9856 C   0  0  0  0  0  0  0  0  0  0  0  0
  -23.9306  -32.0857   23.5214 C   0  0  0  0  0  0  0  0  0  0  0  0
  -27.3055  -32.5879   23.4516 C   0  0  0  0  0  0  0  0  0  0  0  0
  -29.2449  -17.0367   19.8658 C   0  0  0  0  0  0  0  0  0  0  0  0
  -16.5326  -29.6717   24.0477 C   0  0  0  0  0  0  0  0  0  0  0  0
  -22.9315  -28.5353   23.6188 C   0  0  0  0  0  0  0  0  0  0  0  0
  -24.3674  -30.3325   21.7605 C   0  0  0  0  0  0  0  0  0  0  0  0
  -17.5625  -30.7958   24.1248 C   0  0  0  0  0  0  0  0  0  0  0  0
  -30.2143  -13.8404   21.0992 C   0  0  0  0  0  0  0  0  0  0  0  0
  -18.2311  -31.0012   22.7693 C   0  0  0  0  0  0  0  0  0  0  0  0
  -28.8902  -13.0833   21.2244 C   0  0  0  0  0  0  0  0  0  0  0  0
  -30.0602  -15.3162   21.4627 C   0  0  0  0  0  0  0  0  0  0  0  0
  -27.6699  -15.2676   20.8685 C   0  0  0  0  0  0  0  0  0  0  0  0
  -18.9842  -29.7401   22.3288 C   0  0  1  0  0  0  0  0  0  0  0  0
  -22.5856  -30.0169   23.5064 C   0  0  1  0  0  0  0  0  0  0  0  0
  -27.7609  -13.7910   20.4501 C   0  0  2  0  0  0  0  0  0  0  0  0
  -28.7556  -25.0698   14.8603 C   0  0  0  0  0  0  0  0  0  0  0  0
  -29.0773  -34.1780   24.2451 C   0  0  0  0  0  0  0  0  0  0  0  0
  -23.1227  -34.0675   21.3465 C   0  0  0  0  0  0  0  0  0  0  0  0
  -25.3949  -35.1008   21.5414 C   0  0  0  0  0  0  0  0  0  0  0  0
  -23.8471  -35.1174   23.4977 C   0  0  0  0  0  0  0  0  0  0  0  0
  -28.6435  -30.4839   25.0459 C   0  0  0  0  0  0  0  0  0  0  0  0
  -26.7347  -20.0955   14.8207 C   0  0  0  0  0  0  0  0  0  0  0  0
  -27.1364  -22.8822   17.5129 C   0  0  0  0  0  0  0  0  0  0  0  0
  -26.9559  -25.4395   16.6870 C   0  0  0  0  0  0  0  0  0  0  0  0
  -27.5961  -26.1299   17.8869 C   0  0  0  0  0  0  0  0  0  0  0  0
  -26.6651  -27.1290   18.5629 C   0  0  0  0  0  0  0  0  0  1  0  0
  -24.9390  -32.9466   22.7994 C   0  0  1  0  0  0  0  0  0  0  0  0
  -28.2992  -32.9083   24.5535 C   0  0  2  0  0  0  0  0  0  0  0  0
  -24.3231  -34.2803   22.2904 C   0  0  0  0  0  0  0  0  0  0  0  0
  -25.6047  -13.4480   21.5967 N   0  0  0  0  0  0  0  0  0  0  0  0
  -28.0040  -23.2895   16.4188 N   0  0  0  0  0  0  0  0  0  0  0  0
  -26.4343  -13.0720   20.6085 N   0  0  0  0  0  0  0  0  0  0  0  0
  -23.6913  -30.8167   22.9754 N   0  0  0  0  0  0  0  0  0  0  0  0
  -28.9754  -15.9216   20.6872 N   0  0  0  0  0  0  0  0  0  0  0  0
  -26.6597  -11.5488   18.8085 N   0  0  0  0  0  0  0  0  0  0  0  0
  -22.6187  -10.5209   20.5435 N   0  0  0  0  0  0  0  0  0  0  0  0
  -28.1432  -17.5061   19.1512 N   0  0  0  0  0  0  0  0  0  0  0  0
  -20.2434  -29.6313   23.0338 N   0  0  0  0  0  0  0  0  0  0  0  0
  -26.0605  -33.1180   23.7166 N   0  0  0  0  0  0  0  0  0  0  0  0
  -29.2705  -31.7898   24.7165 N   0  3  0  0  0  0  0  0  0  0  0  0
  -24.1390   -9.9767   18.9153 O   0  0  0  0  0  0  0  0  0  0  0  0
  -21.5185  -30.9927   21.6398 O   0  0  0  0  0  0  0  0  0  0  0  0
  -23.3811  -32.5204   24.5366 O   0  0  0  0  0  0  0  0  0  0  0  0
  -27.6048  -31.9361   22.4536 O   0  0  0  0  0  0  0  0  0  0  0  0
  -30.3761  -17.5213   19.7802 O   0  0  0  0  0  0  0  0  0  0  0  0
  -20.1843  -12.9857   24.9063 O   0  0  0  0  0  0  0  0  0  0  0  0
  -26.1994  -20.6194   16.0343 O   0  0  0  0  0  0  0  0  0  0  0  0
  -25.5104  -26.4347   19.0331 O   0  0  0  0  0  0  0  0  0  1  0  0
  -18.1118   -8.2876   26.9154 F   0  0  0  0  0  0  0  0  0  0  0  0
  -29.0738  -19.6813   20.6202 F   0  0  0  0  0  0  0  0  0  0  0  0
  -20.1132  -12.5171   27.6299 F   0  0  0  0  0  0  0  0  0  0  0  0
  -26.6970  -18.0614   16.8434 F   0  0  0  0  0  0  0  0  0  0  0  0
  1  2  1  0  0  0  0
  1  5  2  0  0  0  0
  2  6  2  0  0  0  0
  3  8  2  0  0  0  0
  3 16  1  0  0  0  0
  4  9  1  0  0  0  0
  4 16  2  0  0  0  0
  5 18  1  0  0  0  0
  6 20  1  0  0  0  0
  7 10  2  0  0  0  0
  7 19  1  0  0  0  0
  8 24  1  0  0  0  0
  9 24  2  0  0  0  0
 10 25  1  0  0  0  0
 11 12  2  0  0  0  0
 11 26  1  0  0  0  0
 12 28  1  0  0  0  0
 13 21  1  0  0  0  0
 13 25  2  0  0  0  0
 14 22  1  0  0  0  0
 14 29  2  0  0  0  0
 15 28  2  0  0  0  0
 15 30  1  0  0  0  0
 16 32  1  0  0  0  0
 17 32  1  0  0  0  0
 17 33  2  0  0  0  0
 17 34  1  0  0  0  0
 18 20  2  0  0  0  0
 18 40  1  0  0  0  0
 19 21  2  0  0  0  0
 19 41  1  0  0  0  0
 20 49  1  0  0  0  0
 21 42  1  0  0  0  0
 22 27  2  0  0  0  0
 22 59  1  0  0  0  0
 23 29  1  0  0  0  0
 23 31  2  0  0  0  0
 23 73  1  0  0  0  0
 24 82  1  0  0  0  0
 25 84  1  0  0  0  0
 26 30  2  0  0  0  0
 26 82  1  0  0  0  0
 27 31  1  0  0  0  0
 27 83  1  0  0  0  0
 28 85  1  0  0  0  0
 29 86  1  0  0  0  0
 30 87  1  0  0  0  0
 31 88  1  0  0  0  0
 32 66  2  0  0  0  0
 33 68  1  0  0  0  0
 33 71  1  0  0  0  0
 34 72  1  0  0  0  0
 34 77  2  0  0  0  0
 35 50  1  0  0  0  0
 35 74  1  0  0  0  0
 35 78  2  0  0  0  0
 36 52  1  0  0  0  0
 36 60  1  0  0  0  0
 36 67  2  0  0  0  0
 37 63  1  0  0  0  0
 37 69  1  0  0  0  0
 37 79  2  0  0  0  0
 38 64  1  0  0  0  0
 38 75  1  0  0  0  0
 38 80  2  0  0  0  0
 39 70  1  0  0  0  0
 39 73  1  0  0  0  0
 39 81  2  0  0  0  0
 40 43  1  0  0  0  0
 41 50  1  0  0  0  0
 42 69  1  0  0  0  0
 43 45  1  0  0  0  0
 44 46  1  0  0  0  0
 44 47  1  0  0  0  0
 45 49  1  0  0  0  0
 46 51  1  0  0  0  0
 47 70  1  0  0  0  0
 48 51  1  0  0  0  0
 48 70  1  0  0  0  0
 49 74  1  0  0  0  0
 50 69  1  0  0  0  0
 51 68  1  0  0  0  0
 53 64  1  0  0  0  0
 54 65  1  0  0  0  0
 55 65  1  0  0  0  0
 56 65  1  0  0  0  0
 57 76  1  0  0  0  0
 58 83  1  0  0  0  0
 59 67  1  0  0  0  0
 60 61  1  0  0  0  0
 61 62  1  0  0  0  0
 62 84  1  0  0  0  0
 63 65  1  0  0  0  0
 63 75  1  0  0  0  0
 64 76  1  0  0  0  0
 66 68  1  0  0  0  0
M  CHG  1  76   1
M  ISO  4  39 100  62 101  73 100  84 101
M  END
> <Batch ID>
0013

> <Smiles>
C=C(CC[101CH2:1][101O:1]c1ccc2c(c1)CN(C(=O)C(NC(=O)C(C)NC)C(C)(C)C)C(C(=O)NC1CCCc3ccccc31)C2)NCc1cc(F)c([100NH:0][100C:0](=O)N2CCCC(n3nc(-c4ccc(Oc5ccc(F)cc5F)cc4)c(C(N)=O)c3N)C2)c(F)c1OC

> <Shape>
0.280

> <Color>
0.073

> <Negative vol penalty>
0.000

$$$$

  -OEChem-04052315503D

 90 98  0     1  0  0  0  0  0999 V2000
  -17.2047  -30.6763   22.9798 C   0  0  0  0  0  0  0  0  0  0  0  0
  -18.4989  -30.2039   22.7862 C   0  0  0  0  0  0  0  0  0  0  0  0
  -27.1672  -14.8783   21.7482 C   0  0  0  0  0  0  0  0  0  0  0  0
  -27.9438  -14.4990   19.4921 C   0  0  0  0  0  0  0  0  0  0  0  0
  -16.2968  -29.9308   23.7306 C   0  0  0  0  0  0  0  0  0  0  0  0
  -18.8861  -28.9861   23.3443 C   0  0  0  0  0  0  0  0  0  0  0  0
  -21.4843  -26.0986   20.0951 C   0  0  0  0  0  0  0  0  0  0  0  0
  -26.4981  -13.6546   21.7237 C   0  0  0  0  0  0  0  0  0  0  0  0
  -27.2748  -13.2753   19.4675 C   0  0  0  0  0  0  0  0  0  0  0  0
  -22.8246  -26.4215   19.8876 C   0  0  0  0  0  0  0  0  0  0  0  0
  -23.6173  -12.4163   20.4620 C   0  0  0  0  0  0  0  0  0  0  0  0
  -22.3124  -12.3820   20.9533 C   0  0  0  0  0  0  0  0  0  0  0  0
  -23.4770  -24.6597   21.4008 C   0  0  0  0  0  0  0  0  0  0  0  0
  -22.9810  -10.7616   22.6160 C   0  0  0  0  0  0  0  0  0  0  0  0
  -27.8900  -15.3005   20.6324 C   0  0  0  0  0  0  0  0  0  0  0  0
  -29.9047  -16.8021   21.0726 C   0  0  0  0  0  0  0  0  0  0  0  0
  -16.6702  -28.6987   24.2901 C   0  0  0  0  0  0  0  0  0  0  0  0
  -21.1292  -25.0592   20.9669 C   0  0  0  0  0  0  0  0  0  0  0  0
  -17.9826  -28.2241   24.1045 C   0  0  0  0  0  0  0  0  0  0  0  0
  -22.1315  -24.3239   21.6156 C   0  0  0  0  0  0  0  0  0  0  0  0
  -26.5520  -12.8531   20.5834 C   0  0  0  0  0  0  0  0  0  0  0  0
  -23.8211  -25.7039   20.5427 C   0  0  0  0  0  0  0  0  0  0  0  0
  -24.6041  -11.6231   21.0476 C   0  0  0  0  0  0  0  0  0  0  0  0
  -21.9942  -11.5547   22.0304 C   0  0  0  0  0  0  0  0  0  0  0  0
  -24.2859  -10.7959   22.1246 C   0  0  0  0  0  0  0  0  0  0  0  0
  -28.5808  -16.5647   20.6570 C   0  0  0  0  0  0  0  0  0  0  0  0
  -30.0802  -18.1539   20.9048 C   0  0  0  0  0  0  0  0  0  0  0  0
  -30.6673  -25.7310   18.3010 C   0  0  0  0  0  0  0  0  0  0  0  0
  -30.8881  -15.8827   21.5661 C   0  0  0  0  0  0  0  0  0  0  0  0
  -19.4612  -24.8663   23.6658 C   0  0  0  0  0  0  0  0  0  0  0  0
  -19.9089  -21.6796   23.2574 C   0  0  0  0  0  0  0  0  0  0  0  0
  -30.2824  -29.1104   19.0397 C   0  0  0  0  0  0  0  0  0  0  0  0
  -21.7706  -19.1672   21.8905 C   0  0  0  0  0  0  0  0  0  0  0  0
  -29.5876  -22.6724   17.8572 C   0  0  0  0  0  0  0  0  0  0  0  0
  -15.6681  -27.9511   25.1337 C   0  0  0  0  0  0  0  0  0  0  0  0
  -19.6799  -24.7059   21.1593 C   0  0  0  0  0  0  0  0  0  0  0  0
  -21.8038  -23.1857   22.5459 C   0  0  0  0  0  0  0  0  0  0  0  0
  -16.0448  -26.4919   25.3769 C   0  0  0  0  0  0  0  0  0  0  0  0
  -26.7314  -21.8118   19.9064 C   0  0  0  0  0  0  0  0  0  0  0  0
  -17.5106  -26.3797   25.7841 C   0  0  0  0  0  0  0  0  0  0  0  0
  -27.0739  -20.3793   20.3193 C   0  0  0  0  0  0  0  0  0  0  0  0
  -29.4026  -26.0928   16.3061 C   0  0  0  0  0  0  0  0  0  0  0  0
  -27.1628  -22.0911   18.4697 C   0  0  0  0  0  0  0  0  0  0  0  0
  -30.2674  -27.3096   16.5820 C   0  0  0  0  0  0  0  0  0  0  0  0
  -28.9490  -20.3989   18.6095 C   0  0  0  0  0  0  0  0  0  0  0  0
  -18.4329  -26.8958   24.6730 C   0  0  1  0  0  0  0  0  0  0  0  0
  -30.0755  -24.9906   17.1191 C   0  0  2  0  0  0  0  0  0  0  0  0
  -19.4141  -23.9638   22.4654 C   0  0  1  0  0  0  0  0  0  0  0  0
  -28.5584  -20.0610   20.0597 C   0  0  2  0  0  0  0  0  0  0  0  0
  -21.9115  -16.6649   21.7635 C   0  0  0  0  0  0  0  0  0  0  0  0
  -32.9267  -30.7602   19.5740 C   0  0  0  0  0  0  0  0  0  0  0  0
  -34.1765  -28.6114   19.7971 C   0  0  0  0  0  0  0  0  0  0  0  0
  -34.6969  -30.1561   17.9059 C   0  0  0  0  0  0  0  0  0  0  0  0
  -21.0362  -21.6017   26.0917 C   0  0  0  0  0  0  0  0  0  0  0  0
  -22.0109  -19.3559   25.5675 C   0  0  0  0  0  0  0  0  0  0  0  0
  -19.5388  -19.6845   25.5116 C   0  0  0  0  0  0  0  0  0  0  0  0
  -21.4292  -19.1812   18.9508 C   0  0  0  0  0  0  0  0  0  0  0  0
  -27.1831  -29.1849   20.2516 C   0  0  0  0  0  0  0  0  0  0  0  0
  -26.8323  -27.7244   20.5374 C   0  0  0  0  0  0  0  0  0  0  0  0
  -32.5185  -28.8320   17.9319 C   0  0  0  0  0  0  0  0  0  0  0  0
  -28.5632  -29.5679   20.7766 C   0  0  0  0  0  0  0  0  0  0  0  0
  -25.4348  -27.3770   20.0401 C   0  0  0  0  0  0  0  0  0  1  0  0
  -20.9640  -20.6856   23.6789 C   0  0  1  0  0  0  0  0  0  0  0  0
  -31.3892  -28.1190   18.6928 C   0  0  2  0  0  0  0  0  0  0  0  0
  -21.3715  -17.9276   21.1104 C   0  0  2  0  0  0  0  0  0  0  0  0
  -33.5631  -29.6040   18.7877 C   0  0  0  0  0  0  0  0  0  0  0  0
  -20.8939  -20.3546   25.1964 C   0  0  0  0  0  0  0  0  0  0  0  0
  -27.9592  -17.6767   20.2556 N   0  0  0  0  0  0  0  0  0  0  0  0
  -28.8966  -18.6258   20.4182 N   0  0  0  0  0  0  0  0  0  0  0  0
  -30.7705  -27.0675   17.9150 N   0  0  0  0  0  0  0  0  0  0  0  0
  -20.3720  -22.8827   22.7062 N   0  0  0  0  0  0  0  0  0  0  0  0
  -28.5897  -21.7855   18.2942 N   0  0  0  0  0  0  0  0  0  0  0  0
  -31.1297  -18.9732   21.1276 N   0  0  0  0  0  0  0  0  0  0  0  0
  -30.5418  -14.5290   21.6753 N   0  0  0  0  0  0  0  0  0  0  0  0
  -18.5569  -25.9102   23.6206 N   0  0  0  0  0  0  0  0  0  0  0  0
  -29.6169  -28.7609   20.2068 N   0  0  0  0  0  0  0  0  0  0  0  0
  -20.8049  -19.5270   22.8066 N   0  0  0  0  0  0  0  0  0  0  0  0
  -29.1632  -23.9646   17.5729 N   0  0  0  0  0  0  0  0  0  0  0  0
  -21.8992  -17.9994   19.7185 N   0  3  0  0  0  0  0  0  0  0  0  0
  -31.0261  -25.2216   19.3521 O   0  0  0  0  0  0  0  0  0  0  0  0
  -32.0343  -16.2534   21.9158 O   0  0  0  0  0  0  0  0  0  0  0  0
  -20.2578  -24.6321   24.5670 O   0  0  0  0  0  0  0  0  0  0  0  0
  -18.7175  -21.3960   23.4051 O   0  0  0  0  0  0  0  0  0  0  0  0
  -30.0545  -30.1209   18.3776 O   0  0  0  0  0  0  0  0  0  0  0  0
  -22.8344  -19.7551   21.7083 O   0  0  0  0  0  0  0  0  0  0  0  0
  -30.7712  -22.3388   17.7345 O   0  0  0  0  0  0  0  0  0  0  0  0
  -25.8994  -11.6589   20.5591 O   0  0  0  0  0  0  0  0  0  0  0  0
  -25.1395  -26.0196   20.3410 O   0  0  0  0  0  0  0  0  0  1  0  0
  -20.7413  -11.5231   22.5031 F   0  0  0  0  0  0  0  0  0  0  0  0
  -25.2299  -10.0325   22.6921 F   0  0  0  0  0  0  0  0  0  0  0  0
  1  2  1  0  0  0  0
  1  5  2  0  0  0  0
  2  6  2  0  0  0  0
  3  8  2  0  0  0  0
  3 15  1  0  0  0  0
  4  9  1  0  0  0  0
  4 15  2  0  0  0  0
  5 17  1  0  0  0  0
  6 19  1  0  0  0  0
  7 10  2  0  0  0  0
  7 18  1  0  0  0  0
  8 21  1  0  0  0  0
  9 21  2  0  0  0  0
 10 22  1  0  0  0  0
 11 12  2  0  0  0  0
 11 23  1  0  0  0  0
 12 24  1  0  0  0  0
 13 20  1  0  0  0  0
 13 22  2  0  0  0  0
 14 24  2  0  0  0  0
 14 25  1  0  0  0  0
 15 26  1  0  0  0  0
 16 26  1  0  0  0  0
 16 27  2  0  0  0  0
 16 29  1  0  0  0  0
 17 19  2  0  0  0  0
 17 35  1  0  0  0  0
 18 20  2  0  0  0  0
 18 36  1  0  0  0  0
 19 46  1  0  0  0  0
 20 37  1  0  0  0  0
 21 87  1  0  0  0  0
 22 88  1  0  0  0  0
 23 25  2  0  0  0  0
 23 87  1  0  0  0  0
 24 89  1  0  0  0  0
 25 90  1  0  0  0  0
 26 68  2  0  0  0  0
 27 69  1  0  0  0  0
 27 73  1  0  0  0  0
 28 47  1  0  0  0  0
 28 70  1  0  0  0  0
 28 80  2  0  0  0  0
 29 74  1  0  0  0  0
 29 81  2  0  0  0  0
 30 48  1  0  0  0  0
 30 75  1  0  0  0  0
 30 82  2  0  0  0  0
 31 63  1  0  0  0  0
 31 71  1  0  0  0  0
 31 83  2  0  0  0  0
 32 64  1  0  0  0  0
 32 76  1  0  0  0  0
 32 84  2  0  0  0  0
 33 65  1  0  0  0  0
 33 77  1  0  0  0  0
 33 85  2  0  0  0  0
 34 72  1  0  0  0  0
 34 78  1  0  0  0  0
 34 86  2  0  0  0  0
 35 38  1  0  0  0  0
 36 48  1  0  0  0  0
 37 71  1  0  0  0  0
 38 40  1  0  0  0  0
 39 41  1  0  0  0  0
 39 43  1  0  0  0  0
 40 46  1  0  0  0  0
 41 49  1  0  0  0  0
 42 44  1  0  0  0  0
 42 47  1  0  0  0  0
 43 72  1  0  0  0  0
 44 70  1  0  0  0  0
 45 49  1  0  0  0  0
 45 72  1  0  0  0  0
 46 75  1  0  0  0  0
 47 78  1  0  0  0  0
 48 71  1  0  0  0  0
 49 69  1  0  0  0  0
 50 65  1  0  0  0  0
 51 66  1  0  0  0  0
 52 66  1  0  0  0  0
 53 66  1  0  0  0  0
 54 67  1  0  0  0  0
 55 67  1  0  0  0  0
 56 67  1  0  0  0  0
 57 79  1  0  0  0  0
 58 59  1  0  0  0  0
 58 61  1  0  0  0  0
 59 62  1  0  0  0  0
 60 64  1  0  0  0  0
 60 66  1  0  0  0  0
 61 76  1  0  0  0  0
 62 88  1  0  0  0  0
 63 67  1  0  0  0  0
 63 77  1  0  0  0  0
 64 70  1  0  0  0  0
 65 79  1  0  0  0  0
 68 69  1  0  0  0  0
M  CHG  1  79   1
M  ISO  4  34 100  62 101  78 100  88 101
M  END
> <Batch ID>
0013

> <Smiles>
CNC(C)C(=O)NC(C(=O)N1Cc2cc([101O:1][101CH2:1]CCCNC(=O)C(CC(C)(C)C)N3CCC([100NH:0][100C:0](=O)N4CCCC(n5nc(-c6ccc(Oc7ccc(F)cc7F)cc6)c(C(N)=O)c5N)C4)C3=O)ccc2CC1C(=O)NC1CCCc2ccccc21)C(C)(C)C

> <Shape>
0.223

> <Color>
0.053

> <Negative vol penalty>
0.000

$$$$

  -OEChem-04052315503D

 85 93  0     1  0  0  0  0  0999 V2000
  -26.5862  -31.6827   26.9692 C   0  0  0  0  0  0  0  0  0  0  0  0
  -26.9871  -30.4311   26.5130 C   0  0  0  0  0  0  0  0  0  0  0  0
  -23.1552   -9.7920   20.0889 C   0  0  0  0  0  0  0  0  0  0  0  0
  -23.8147  -10.0450   22.3993 C   0  0  0  0  0  0  0  0  0  0  0  0
  -25.3721  -32.2217   26.5458 C   0  0  0  0  0  0  0  0  0  0  0  0
  -26.1735  -29.7172   25.6338 C   0  0  0  0  0  0  0  0  0  0  0  0
  -28.7788  -27.6685   21.8050 C   0  0  0  0  0  0  0  0  0  0  0  0
  -22.4287   -8.6487   20.4214 C   0  0  0  0  0  0  0  0  0  0  0  0
  -23.0882   -8.9016   22.7318 C   0  0  0  0  0  0  0  0  0  0  0  0
  -29.4968  -26.5042   22.0745 C   0  0  0  0  0  0  0  0  0  0  0  0
  -19.8568   -8.0772   23.2785 C   0  0  0  0  0  0  0  0  0  0  0  0
  -19.0511   -8.1312   24.4158 C   0  0  0  0  0  0  0  0  0  0  0  0
  -27.7296  -25.1928   21.0864 C   0  0  0  0  0  0  0  0  0  0  0  0
  -31.8636  -16.9735   22.3565 C   0  0  0  0  0  0  0  0  0  0  0  0
  -20.3050   -6.3106   25.3906 C   0  0  0  0  0  0  0  0  0  0  0  0
  -23.8482  -10.4902   21.0778 C   0  0  0  0  0  0  0  0  0  0  0  0
  -24.1351  -12.9999   20.7221 C   0  0  0  0  0  0  0  0  0  0  0  0
  -24.5477  -31.5183   25.6534 C   0  0  0  0  0  0  0  0  0  0  0  0
  -27.5237  -27.6028   21.1830 C   0  0  0  0  0  0  0  0  0  0  0  0
  -24.9466  -30.2468   25.1991 C   0  0  0  0  0  0  0  0  0  0  0  0
  -26.9988  -26.3579   20.8078 C   0  0  0  0  0  0  0  0  0  0  0  0
  -32.4261  -17.9436   23.1859 C   0  0  0  0  0  0  0  0  0  0  0  0
  -30.2255  -18.8316   23.6398 C   0  0  0  0  0  0  0  0  0  0  0  0
  -30.4820  -16.9325   22.1686 C   0  0  0  0  0  0  0  0  0  0  0  0
  -22.3952   -8.2035   21.7429 C   0  0  0  0  0  0  0  0  0  0  0  0
  -28.9710  -25.2659   21.7178 C   0  0  0  0  0  0  0  0  0  0  0  0
  -20.8866   -7.1398   23.1972 C   0  0  0  0  0  0  0  0  0  0  0  0
  -19.2751   -7.2479   25.4719 C   0  0  0  0  0  0  0  0  0  0  0  0
  -21.1107   -6.2566   24.2533 C   0  0  0  0  0  0  0  0  0  0  0  0
  -31.6071  -18.8727   23.8276 C   0  0  0  0  0  0  0  0  0  0  0  0
  -29.6630  -17.8615   22.8103 C   0  0  0  0  0  0  0  0  0  0  0  0
  -24.5993  -11.6710   20.7348 C   0  0  0  0  0  0  0  0  0  0  0  0
  -25.2239  -13.7403   20.3311 C   0  0  0  0  0  0  0  0  0  0  0  0
  -22.8358  -13.5188   21.0357 C   0  0  0  0  0  0  0  0  0  0  0  0
  -24.5658  -28.4242   22.0076 C   0  0  0  0  0  0  0  0  0  0  0  0
  -23.8994  -27.5992   18.9420 C   0  0  0  0  0  0  0  0  0  0  0  0
  -29.6397  -22.0335   23.1914 C   0  0  0  0  0  0  0  0  0  0  0  0
  -24.7612  -25.7997   16.1732 C   0  0  0  0  0  0  0  0  0  0  0  0
  -30.6511  -14.9497   20.6238 C   0  0  0  0  0  0  0  0  0  0  0  0
  -23.2221  -32.1212   25.2609 C   0  0  0  0  0  0  0  0  0  0  0  0
  -26.7738  -28.8698   20.8751 C   0  0  0  0  0  0  0  0  0  0  0  0
  -25.6648  -26.2346   20.1196 C   0  0  0  0  0  0  0  0  0  0  0  0
  -22.5932  -31.4639   24.0350 C   0  0  0  0  0  0  0  0  0  0  0  0
  -29.6977  -12.2853   18.4630 C   0  0  0  0  0  0  0  0  0  0  0  0
  -22.6524  -29.9444   24.1546 C   0  0  0  0  0  0  0  0  0  0  0  0
  -28.2481  -11.9972   18.8604 C   0  0  0  0  0  0  0  0  0  0  0  0
  -30.5542  -12.6561   19.6723 C   0  0  0  0  0  0  0  0  0  0  0  0
  -28.5727  -13.4592   20.8962 C   0  0  0  0  0  0  0  0  0  0  0  0
  -24.1031  -29.4526   24.2254 C   0  0  1  0  0  0  0  0  0  0  0  0
  -25.2742  -28.6493   20.7017 C   0  0  1  0  0  0  0  0  0  0  0  0
  -27.6561  -13.1443   19.7027 C   0  0  2  0  0  0  0  0  0  0  0  0
  -33.9035  -17.9841   23.3869 C   0  0  0  0  0  0  0  0  0  0  0  0
  -24.0023  -25.2994   13.8342 C   0  0  0  0  0  0  0  0  0  0  0  0
  -21.7369  -25.7490   20.0419 C   0  0  0  0  0  0  0  0  0  0  0  0
  -21.6801  -24.6059   17.8152 C   0  0  0  0  0  0  0  0  0  0  0  0
  -21.0781  -27.0203   17.9915 C   0  0  0  0  0  0  0  0  0  0  0  0
  -27.2381  -26.9222   15.0055 C   0  0  0  0  0  0  0  0  0  0  0  0
  -29.3806  -19.8486   24.3510 C   0  0  0  0  0  0  0  0  0  0  0  0
  -28.9126  -22.9429   22.2240 C   0  0  0  0  0  0  0  0  0  1  0  0
  -23.4958  -26.3243   18.2416 C   0  0  1  0  0  0  0  0  0  0  0  0
  -24.8680  -26.1913   14.7105 C   0  0  2  0  0  0  0  0  0  0  0  0
  -22.0220  -25.9267   18.5372 C   0  0  0  0  0  0  0  0  0  0  0  0
  -25.8830  -11.5698   20.3800 N   0  0  0  0  0  0  0  0  0  0  0  0
  -26.2346  -12.8446   20.1405 N   0  0  0  0  0  0  0  0  0  0  0  0
  -24.9669  -27.5017   19.8458 N   0  0  0  0  0  0  0  0  0  0  0  0
  -29.9336  -13.7521   20.4197 N   0  0  0  0  0  0  0  0  0  0  0  0
  -25.4056  -15.0635   20.1351 N   0  0  0  0  0  0  0  0  0  0  0  0
  -21.8320  -12.6192   21.4200 N   0  0  0  0  0  0  0  0  0  0  0  0
  -29.9472  -15.9321   21.3194 N   0  0  0  0  0  0  0  0  0  0  0  0
  -24.7048  -29.4620   22.9093 N   0  0  0  0  0  0  0  0  0  0  0  0
  -28.9134  -20.8833   23.4577 N   0  0  0  0  0  0  0  0  0  0  0  0
  -23.7879  -26.5259   16.8265 N   0  0  0  0  0  0  0  0  0  0  0  0
  -26.2796  -26.0789   14.2459 N   0  3  0  0  0  0  0  0  0  0  0  0
  -22.5682  -14.7420   20.9612 O   0  0  0  0  0  0  0  0  0  0  0  0
  -23.9384  -27.3864   22.1834 O   0  0  0  0  0  0  0  0  0  0  0  0
  -23.2947  -28.6447   18.6909 O   0  0  0  0  0  0  0  0  0  0  0  0
  -30.7379  -22.3104   23.6660 O   0  0  0  0  0  0  0  0  0  0  0  0
  -25.4676  -24.9336   16.6843 O   0  0  0  0  0  0  0  0  0  0  0  0
  -31.7950  -15.1031   20.1881 O   0  0  0  0  0  0  0  0  0  0  0  0
  -21.6862   -7.0880   22.0678 O   0  0  0  0  0  0  0  0  0  0  0  0
  -29.6695  -24.1279   21.9802 O   0  0  0  0  0  0  0  0  0  1  0  0
  -18.5023   -7.3009   26.5646 F   0  0  0  0  0  0  0  0  0  0  0  0
  -22.0993   -5.3547   24.1814 F   0  0  0  0  0  0  0  0  0  0  0  0
  -32.1497  -19.8042   24.6260 F   0  0  0  0  0  0  0  0  0  0  0  0
  -27.9452  -17.8149   22.5808 Cl  0  0  0  0  0  0  0  0  0  0  0  0
  1  2  1  0  0  0  0
  1  5  2  0  0  0  0
  2  6  2  0  0  0  0
  3  8  2  0  0  0  0
  3 16  1  0  0  0  0
  4  9  1  0  0  0  0
  4 16  2  0  0  0  0
  5 18  1  0  0  0  0
  6 20  1  0  0  0  0
  7 10  2  0  0  0  0
  7 19  1  0  0  0  0
  8 25  1  0  0  0  0
  9 25  2  0  0  0  0
 10 26  1  0  0  0  0
 11 12  2  0  0  0  0
 11 27  1  0  0  0  0
 12 28  1  0  0  0  0
 13 21  1  0  0  0  0
 13 26  2  0  0  0  0
 14 22  1  0  0  0  0
 14 24  2  0  0  0  0
 15 28  2  0  0  0  0
 15 29  1  0  0  0  0
 16 32  1  0  0  0  0
 17 32  1  0  0  0  0
 17 33  2  0  0  0  0
 17 34  1  0  0  0  0
 18 20  2  0  0  0  0
 18 40  1  0  0  0  0
 19 21  2  0  0  0  0
 19 41  1  0  0  0  0
 20 49  1  0  0  0  0
 21 42  1  0  0  0  0
 22 30  2  0  0  0  0
 22 52  1  0  0  0  0
 23 30  1  0  0  0  0
 23 31  2  0  0  0  0
 23 58  1  0  0  0  0
 24 31  1  0  0  0  0
 24 69  1  0  0  0  0
 25 80  1  0  0  0  0
 26 81  1  0  0  0  0
 27 29  2  0  0  0  0
 27 80  1  0  0  0  0
 28 82  1  0  0  0  0
 29 83  1  0  0  0  0
 30 84  1  0  0  0  0
 31 85  1  0  0  0  0
 32 63  2  0  0  0  0
 33 64  1  0  0  0  0
 33 67  1  0  0  0  0
 34 68  1  0  0  0  0
 34 74  2  0  0  0  0
 35 50  1  0  0  0  0
 35 70  1  0  0  0  0
 35 75  2  0  0  0  0
 36 60  1  0  0  0  0
 36 65  1  0  0  0  0
 36 76  2  0  0  0  0
 37 59  1  0  0  0  0
 37 71  1  0  0  0  0
 37 77  2  0  0  0  0
 38 61  1  0  0  0  0
 38 72  1  0  0  0  0
 38 78  2  0  0  0  0
 39 66  1  0  0  0  0
 39 69  1  0  0  0  0
 39 79  2  0  0  0  0
 40 43  1  0  0  0  0
 41 50  1  0  0  0  0
 42 65  1  0  0  0  0
 43 45  1  0  0  0  0
 44 46  1  0  0  0  0
 44 47  1  0  0  0  0
 45 49  1  0  0  0  0
 46 51  1  0  0  0  0
 47 66  1  0  0  0  0
 48 51  1  0  0  0  0
 48 66  1  0  0  0  0
 49 70  1  0  0  0  0
 50 65  1  0  0  0  0
 51 64  1  0  0  0  0
 53 61  1  0  0  0  0
 54 62  1  0  0  0  0
 55 62  1  0  0  0  0
 56 62  1  0  0  0  0
 57 73  1  0  0  0  0
 58 71  1  0  0  0  0
 59 81  1  0  0  0  0
 60 62  1  0  0  0  0
 60 72  1  0  0  0  0
 61 73  1  0  0  0  0
 63 64  1  0  0  0  0
M  CHG  1  73   1
M  ISO  4  39 100  59 101  69 100  81 101
M  END
> <Batch ID>
0013

> <Smiles>
CNC(C)C(=O)NC(C(=O)N1Cc2cc([101O:1][101CH2:1]C(=O)NCc3c(F)c(C)cc([100NH:0][100C:0](=O)N4CCCC(n5nc(-c6ccc(Oc7ccc(F)cc7F)cc6)c(C(N)=O)c5N)C4)c3Cl)ccc2CC1C(=O)NC1CCCc2ccccc21)C(C)(C)C

> <Shape>
0.281

> <Color>
0.195

> <Negative vol penalty>
0.000

$$$$

  -OEChem-04052315503D

 83 91  0     1  0  0  0  0  0999 V2000
  -30.3838  -32.9118   12.1787 C   0  0  0  0  0  0  0  0  0  0  0  0
  -30.5383  -31.7560   12.9375 C   0  0  0  0  0  0  0  0  0  0  0  0
  -23.7908   -9.6061   19.7755 C   0  0  0  0  0  0  0  0  0  0  0  0
  -24.5916   -9.6748   22.0538 C   0  0  0  0  0  0  0  0  0  0  0  0
  -29.9915  -34.1003   12.7930 C   0  0  0  0  0  0  0  0  0  0  0  0
  -30.3016  -31.7884   14.3113 C   0  0  0  0  0  0  0  0  0  0  0  0
  -27.9287  -27.3067   17.7449 C   0  0  0  0  0  0  0  0  0  0  0  0
  -29.0368  -19.9184   24.1940 C   0  0  0  0  0  0  0  0  0  0  0  0
  -29.0546  -21.0352   23.3586 C   0  0  0  0  0  0  0  0  0  0  0  0
  -23.4467   -8.2640   19.9369 C   0  0  0  0  0  0  0  0  0  0  0  0
  -24.2474   -8.3327   22.2153 C   0  0  0  0  0  0  0  0  0  0  0  0
  -28.5143  -26.3439   18.5658 C   0  0  0  0  0  0  0  0  0  0  0  0
  -21.4440   -6.5327   22.7823 C   0  0  0  0  0  0  0  0  0  0  0  0
  -20.7775   -6.1725   23.9534 C   0  0  0  0  0  0  0  0  0  0  0  0
  -28.1433  -27.7611   20.4823 C   0  0  0  0  0  0  0  0  0  0  0  0
  -22.5794   -4.6642   24.5150 C   0  0  0  0  0  0  0  0  0  0  0  0
  -24.3634  -10.3114   20.8339 C   0  0  0  0  0  0  0  0  0  0  0  0
  -23.9080  -12.8200   20.9193 C   0  0  0  0  0  0  0  0  0  0  0  0
  -29.7404  -34.1450   14.1734 C   0  0  0  0  0  0  0  0  0  0  0  0
  -27.4551  -28.5106   18.2859 C   0  0  0  0  0  0  0  0  0  0  0  0
  -29.9068  -32.9790   14.9448 C   0  0  0  0  0  0  0  0  0  0  0  0
  -27.5498  -28.7365   19.6665 C   0  0  0  0  0  0  0  0  0  0  0  0
  -28.9239  -18.6401   23.6473 C   0  0  0  0  0  0  0  0  0  0  0  0
  -28.8464  -19.5955   21.4296 C   0  0  0  0  0  0  0  0  0  0  0  0
  -28.9594  -20.8737   21.9764 C   0  0  0  0  0  0  0  0  0  0  0  0
  -28.8287  -18.4786   22.2651 C   0  0  0  0  0  0  0  0  0  0  0  0
  -23.6749   -7.6273   21.1568 C   0  0  0  0  0  0  0  0  0  0  0  0
  -28.6242  -26.5722   19.9343 C   0  0  0  0  0  0  0  0  0  0  0  0
  -22.6782   -5.9586   22.4774 C   0  0  0  0  0  0  0  0  0  0  0  0
  -21.3452   -5.2383   24.8198 C   0  0  0  0  0  0  0  0  0  0  0  0
  -23.2459   -5.0244   23.3438 C   0  0  0  0  0  0  0  0  0  0  0  0
  -24.7196  -11.6976   20.6676 C   0  0  0  0  0  0  0  0  0  0  0  0
  -24.7034  -13.8956   20.6081 C   0  0  0  0  0  0  0  0  0  0  0  0
  -22.5560  -12.8846   21.3920 C   0  0  0  0  0  0  0  0  0  0  0  0
  -28.1738  -31.5821   17.8941 C   0  0  0  0  0  0  0  0  0  0  0  0
  -25.6075  -32.0273   19.8276 C   0  0  0  0  0  0  0  0  0  0  0  0
  -29.0854  -23.3498   21.5435 C   0  0  0  0  0  0  0  0  0  0  0  0
  -23.5317  -30.7643   22.2239 C   0  0  0  0  0  0  0  0  0  0  0  0
  -29.5861  -16.5640   20.8136 C   0  0  0  0  0  0  0  0  0  0  0  0
  -29.3642  -35.4641   14.8005 C   0  0  0  0  0  0  0  0  0  0  0  0
  -26.8019  -29.5277   17.3907 C   0  0  0  0  0  0  0  0  0  0  0  0
  -27.0386  -30.0038   20.2996 C   0  0  0  0  0  0  0  0  0  0  0  0
  -28.7700  -35.3258   16.1998 C   0  0  0  0  0  0  0  0  0  0  0  0
  -29.1855  -14.1096   18.2656 C   0  0  0  0  0  0  0  0  0  0  0  0
  -29.6107  -34.3743   17.0451 C   0  0  0  0  0  0  0  0  0  0  0  0
  -27.9211  -13.3556   18.6840 C   0  0  0  0  0  0  0  0  0  0  0  0
  -30.0274  -14.5189   19.4728 C   0  0  0  0  0  0  0  0  0  0  0  0
  -28.0397  -14.5119   20.9282 C   0  0  0  0  0  0  0  0  0  0  0  0
  -29.6353  -32.9683   16.4335 C   0  0  1  0  0  0  0  0  0  0  0  0
  -26.8193  -30.9368   17.9750 C   0  0  1  0  0  0  0  0  0  0  0  0
  -27.1266  -14.1356   19.7499 C   0  0  2  0  0  0  0  0  0  0  0  0
  -28.9081  -17.4634   24.5687 C   0  0  0  0  0  0  0  0  0  0  0  0
  -28.7437  -19.4242   19.9451 C   0  0  0  0  0  0  0  0  0  0  0  0
  -21.5491  -31.3772   23.6349 C   0  0  0  0  0  0  0  0  0  0  0  0
  -27.4083  -33.7176   21.6193 C   0  0  0  0  0  0  0  0  0  0  0  0
  -25.6926  -33.5011   23.4297 C   0  0  0  0  0  0  0  0  0  0  0  0
  -25.1066  -34.6378   21.2879 C   0  0  0  0  0  0  0  0  0  0  0  0
  -21.8843  -28.6018   21.0540 C   0  0  0  0  0  0  0  0  0  0  0  0
  -29.0673  -24.2707   20.3376 C   0  0  0  0  0  0  0  0  0  1  0  0
  -25.3972  -32.1265   21.3192 C   0  0  1  0  0  0  0  0  0  0  0  0
  -22.0179  -30.7418   22.3352 C   0  0  2  0  0  0  0  0  0  0  0  0
  -25.9127  -33.4726   21.9021 C   0  0  0  0  0  0  0  0  0  0  0  0
  -25.9372  -12.0294   20.2302 N   0  0  0  0  0  0  0  0  0  0  0  0
  -25.8966  -13.3725   20.2044 N   0  0  0  0  0  0  0  0  0  0  0  0
  -26.4137  -30.9704   19.3816 N   0  0  0  0  0  0  0  0  0  0  0  0
  -29.2097  -15.2571   20.4378 N   0  0  0  0  0  0  0  0  0  0  0  0
  -24.4917  -15.2284   20.6431 N   0  0  0  0  0  0  0  0  0  0  0  0
  -21.8850  -11.6844   21.6633 N   0  0  0  0  0  0  0  0  0  0  0  0
  -28.9787  -22.0208   21.1479 N   0  0  0  0  0  0  0  0  0  0  0  0
  -28.7148  -17.1790   21.7120 N   0  0  0  0  0  0  0  0  0  0  0  0
  -28.3991  -32.2717   16.7180 N   0  0  0  0  0  0  0  0  0  0  0  0
  -23.9776  -31.8806   21.5485 N   0  0  0  0  0  0  0  0  0  0  0  0
  -21.5160  -29.3393   22.2899 N   0  3  0  0  0  0  0  0  0  0  0  0
  -21.9550  -13.9738   21.5531 O   0  0  0  0  0  0  0  0  0  0  0  0
  -28.9560  -31.4643   18.8300 O   0  0  0  0  0  0  0  0  0  0  0  0
  -25.0704  -32.8529   19.0849 O   0  0  0  0  0  0  0  0  0  0  0  0
  -29.1832  -23.7878   22.6850 O   0  0  0  0  0  0  0  0  0  0  0  0
  -24.2473  -29.8818   22.6927 O   0  0  0  0  0  0  0  0  0  0  0  0
  -30.5916  -17.1083   20.3502 O   0  0  0  0  0  0  0  0  0  0  0  0
  -23.3390   -6.3178   21.3147 O   0  0  0  0  0  0  0  0  0  0  0  0
  -29.1959  -25.6344   20.7378 O   0  0  0  0  0  0  0  0  0  1  0  0
  -20.7057   -4.8937   25.9452 F   0  0  0  0  0  0  0  0  0  0  0  0
  -24.4318   -4.4703   23.0569 F   0  0  0  0  0  0  0  0  0  0  0  0
  1  2  1  0  0  0  0
  1  5  2  0  0  0  0
  2  6  2  0  0  0  0
  3 10  2  0  0  0  0
  3 17  1  0  0  0  0
  4 11  1  0  0  0  0
  4 17  2  0  0  0  0
  5 19  1  0  0  0  0
  6 21  1  0  0  0  0
  7 12  2  0  0  0  0
  7 20  1  0  0  0  0
  8  9  2  0  0  0  0
  8 23  1  0  0  0  0
  9 25  1  0  0  0  0
 10 27  1  0  0  0  0
 11 27  2  0  0  0  0
 12 28  1  0  0  0  0
 13 14  2  0  0  0  0
 13 29  1  0  0  0  0
 14 30  1  0  0  0  0
 15 22  1  0  0  0  0
 15 28  2  0  0  0  0
 16 30  2  0  0  0  0
 16 31  1  0  0  0  0
 17 32  1  0  0  0  0
 18 32  1  0  0  0  0
 18 33  2  0  0  0  0
 18 34  1  0  0  0  0
 19 21  2  0  0  0  0
 19 40  1  0  0  0  0
 20 22  2  0  0  0  0
 20 41  1  0  0  0  0
 21 49  1  0  0  0  0
 22 42  1  0  0  0  0
 23 26  2  0  0  0  0
 23 52  1  0  0  0  0
 24 25  2  0  0  0  0
 24 26  1  0  0  0  0
 24 53  1  0  0  0  0
 25 69  1  0  0  0  0
 26 70  1  0  0  0  0
 27 80  1  0  0  0  0
 28 81  1  0  0  0  0
 29 31  2  0  0  0  0
 29 80  1  0  0  0  0
 30 82  1  0  0  0  0
 31 83  1  0  0  0  0
 32 63  2  0  0  0  0
 33 64  1  0  0  0  0
 33 67  1  0  0  0  0
 34 68  1  0  0  0  0
 34 74  2  0  0  0  0
 35 50  1  0  0  0  0
 35 71  1  0  0  0  0
 35 75  2  0  0  0  0
 36 60  1  0  0  0  0
 36 65  1  0  0  0  0
 36 76  2  0  0  0  0
 37 59  1  0  0  0  0
 37 69  1  0  0  0  0
 37 77  2  0  0  0  0
 38 61  1  0  0  0  0
 38 72  1  0  0  0  0
 38 78  2  0  0  0  0
 39 66  1  0  0  0  0
 39 70  1  0  0  0  0
 39 79  2  0  0  0  0
 40 43  1  0  0  0  0
 41 50  1  0  0  0  0
 42 65  1  0  0  0  0
 43 45  1  0  0  0  0
 44 46  1  0  0  0  0
 44 47  1  0  0  0  0
 45 49  1  0  0  0  0
 46 51  1  0  0  0  0
 47 66  1  0  0  0  0
 48 51  1  0  0  0  0
 48 66  1  0  0  0  0
 49 71  1  0  0  0  0
 50 65  1  0  0  0  0
 51 64  1  0  0  0  0
 54 61  1  0  0  0  0
 55 62  1  0  0  0  0
 56 62  1  0  0  0  0
 57 62  1  0  0  0  0
 58 73  1  0  0  0  0
 59 81  1  0  0  0  0
 60 62  1  0  0  0  0
 60 72  1  0  0  0  0
 61 73  1  0  0  0  0
 63 64  1  0  0  0  0
M  CHG  1  73   1
M  ISO  4  39 100  59 101  70 100  81 101
M  END
> <Batch ID>
0013

> <Smiles>
CNC(C)C(=O)NC(C(=O)N1Cc2cc([101O:1][101CH2:1]C(=O)Nc3ccc(C)c([100NH:0][100C:0](=O)N4CCCC(n5nc(-c6ccc(Oc7ccc(F)cc7F)cc6)c(C(N)=O)c5N)C4)c3C)ccc2CC1C(=O)NC1CCCc2ccccc21)C(C)(C)C

> <Shape>
0.267

> <Color>
0.123

> <Negative vol penalty>
0.000

$$$$

  -OEChem-04052315503D

 84 92  0     1  0  0  0  0  0999 V2000
  -30.3428  -33.7548   17.6521 C   0  0  0  0  0  0  0  0  0  0  0  0
  -30.7173  -32.7333   18.5191 C   0  0  0  0  0  0  0  0  0  0  0  0
  -22.9782   -9.9182   19.9828 C   0  0  0  0  0  0  0  0  0  0  0  0
  -23.7154   -9.9453   22.2834 C   0  0  0  0  0  0  0  0  0  0  0  0
  -29.0546  -33.7782   17.1194 C   0  0  0  0  0  0  0  0  0  0  0  0
  -29.8033  -31.7351   18.8548 C   0  0  0  0  0  0  0  0  0  0  0  0
  -31.0279  -25.8310   19.9262 C   0  0  0  0  0  0  0  0  0  0  0  0
  -22.2021   -8.7892   20.2448 C   0  0  0  0  0  0  0  0  0  0  0  0
  -22.9392   -8.8163   22.5454 C   0  0  0  0  0  0  0  0  0  0  0  0
  -31.2023  -25.1083   21.1056 C   0  0  0  0  0  0  0  0  0  0  0  0
  -23.1490   -5.4787   22.0480 C   0  0  0  0  0  0  0  0  0  0  0  0
  -23.7304   -4.4504   22.7897 C   0  0  0  0  0  0  0  0  0  0  0  0
  -28.8901  -24.4256   21.0221 C   0  0  0  0  0  0  0  0  0  0  0  0
  -32.0000  -18.2233   24.1684 C   0  0  0  0  0  0  0  0  0  0  0  0
  -32.1142  -16.4403   22.5421 C   0  0  0  0  0  0  0  0  0  0  0  0
  -22.0173   -4.6977   24.4754 C   0  0  0  0  0  0  0  0  0  0  0  0
  -23.7349  -10.4962   21.0021 C   0  0  0  0  0  0  0  0  0  0  0  0
  -24.1436  -13.0092   20.8425 C   0  0  0  0  0  0  0  0  0  0  0  0
  -28.1274  -32.7745   17.4412 C   0  0  0  0  0  0  0  0  0  0  0  0
  -29.7784  -25.8655   19.2907 C   0  0  0  0  0  0  0  0  0  0  0  0
  -28.5010  -31.7459   18.3270 C   0  0  0  0  0  0  0  0  0  0  0  0
  -28.7032  -25.1475   19.8333 C   0  0  0  0  0  0  0  0  0  0  0  0
  -32.7504  -17.3098   23.4281 C   0  0  0  0  0  0  0  0  0  0  0  0
  -30.6135  -18.2673   24.0228 C   0  0  0  0  0  0  0  0  0  0  0  0
  -30.7277  -16.4843   22.3965 C   0  0  0  0  0  0  0  0  0  0  0  0
  -22.1826   -8.2383   21.5261 C   0  0  0  0  0  0  0  0  0  0  0  0
  -30.1326  -24.4078   21.6553 C   0  0  0  0  0  0  0  0  0  0  0  0
  -22.0017   -6.1166   22.5200 C   0  0  0  0  0  0  0  0  0  0  0  0
  -23.1646   -4.0599   24.0034 C   0  0  0  0  0  0  0  0  0  0  0  0
  -21.4359   -5.7260   23.7337 C   0  0  0  0  0  0  0  0  0  0  0  0
  -29.9773  -17.3978   23.1368 C   0  0  0  0  0  0  0  0  0  0  0  0
  -24.5373  -11.6621   20.7320 C   0  0  0  0  0  0  0  0  0  0  0  0
  -25.2585  -13.7237   20.4777 C   0  0  0  0  0  0  0  0  0  0  0  0
  -22.8829  -13.5649   21.2394 C   0  0  0  0  0  0  0  0  0  0  0  0
  -27.6871  -28.1503   18.5768 C   0  0  0  0  0  0  0  0  0  0  0  0
  -26.1682  -25.7369   17.0306 C   0  0  0  0  0  0  0  0  0  0  0  0
  -30.1913  -21.5212   23.8490 C   0  0  0  0  0  0  0  0  0  0  0  0
  -25.6247  -22.3817   16.7234 C   0  0  0  0  0  0  0  0  0  0  0  0
  -30.7480  -14.6304   20.6909 C   0  0  0  0  0  0  0  0  0  0  0  0
  -26.7315  -32.8681   16.8778 C   0  0  0  0  0  0  0  0  0  0  0  0
  -29.6136  -26.6280   18.0047 C   0  0  0  0  0  0  0  0  0  0  0  0
  -27.3467  -25.1357   19.1790 C   0  0  0  0  0  0  0  0  0  0  0  0
  -25.9412  -31.5668   16.9891 C   0  0  0  0  0  0  0  0  0  0  0  0
  -29.5945  -12.2054   18.3529 C   0  0  0  0  0  0  0  0  0  0  0  0
  -26.0831  -30.9740   18.3874 C   0  0  0  0  0  0  0  0  0  0  0  0
  -28.1436  -11.9587   18.7725 C   0  0  0  0  0  0  0  0  0  0  0  0
  -30.5034  -12.4313   19.5598 C   0  0  0  0  0  0  0  0  0  0  0  0
  -28.6024  -13.2288   20.9088 C   0  0  0  0  0  0  0  0  0  0  0  0
  -27.5457  -30.6316   18.6956 C   0  0  1  0  0  0  0  0  0  0  0  0
  -28.1651  -27.0126   17.7196 C   0  0  1  0  0  0  0  0  0  0  0  0
  -27.6371  -13.0603   19.7241 C   0  0  2  0  0  0  0  0  0  0  0  0
  -34.2328  -17.2639   23.5835 C   0  0  0  0  0  0  0  0  0  0  0  0
  -24.3018  -20.7140   15.3945 C   0  0  0  0  0  0  0  0  0  0  0  0
  -23.6628  -26.4688   18.6109 C   0  0  0  0  0  0  0  0  0  0  0  0
  -22.6985  -24.2469   17.9770 C   0  0  0  0  0  0  0  0  0  0  0  0
  -23.2548  -25.9140   16.2067 C   0  0  0  0  0  0  0  0  0  0  0  0
  -28.0768  -21.0807   15.6967 C   0  0  0  0  0  0  0  0  0  0  0  0
  -29.8473  -19.2664   24.8406 C   0  0  0  0  0  0  0  0  0  0  0  0
  -29.4867  -22.5426   22.9818 C   0  0  0  0  0  0  0  0  0  1  0  0
  -25.1259  -24.7128   17.4101 C   0  0  1  0  0  0  0  0  0  0  0  0
  -25.6165  -21.4696   15.5100 C   0  0  2  0  0  0  0  0  0  0  0  0
  -23.7104  -25.3372   17.5648 C   0  0  0  0  0  0  0  0  0  0  0  0
  -25.8033  -11.5263   20.3285 N   0  0  0  0  0  0  0  0  0  0  0  0
  -26.2148  -12.7973   20.1821 N   0  0  0  0  0  0  0  0  0  0  0  0
  -27.2340  -25.9015   17.9266 N   0  0  0  0  0  0  0  0  0  0  0  0
  -29.9628  -13.4913   20.4136 N   0  0  0  0  0  0  0  0  0  0  0  0
  -25.5042  -15.0478   20.3841 N   0  0  0  0  0  0  0  0  0  0  0  0
  -21.8444  -12.6883   21.5817 N   0  0  0  0  0  0  0  0  0  0  0  0
  -30.1170  -15.5859   21.4867 N   0  0  0  0  0  0  0  0  0  0  0  0
  -27.9259  -29.4000   18.0376 N   0  0  0  0  0  0  0  0  0  0  0  0
  -29.4112  -20.3929   24.0482 N   0  0  0  0  0  0  0  0  0  0  0  0
  -25.2068  -23.6569   16.4066 N   0  0  0  0  0  0  0  0  0  0  0  0
  -26.7233  -20.4757   15.6015 N   0  3  0  0  0  0  0  0  0  0  0  0
  -22.6783  -14.8021   21.2732 O   0  0  0  0  0  0  0  0  0  0  0  0
  -27.1407  -27.9120   19.6475 O   0  0  0  0  0  0  0  0  0  0  0  0
  -26.0452  -26.3623   15.9746 O   0  0  0  0  0  0  0  0  0  0  0  0
  -31.3167  -21.7010   24.3061 O   0  0  0  0  0  0  0  0  0  0  0  0
  -25.9641  -22.0001   17.8413 O   0  0  0  0  0  0  0  0  0  0  0  0
  -31.8857  -14.7616   20.2321 O   0  0  0  0  0  0  0  0  0  0  0  0
  -21.4252   -7.1367   21.7821 O   0  0  0  0  0  0  0  0  0  0  0  0
  -30.2999  -23.7020   22.8067 O   0  0  0  0  0  0  0  0  0  1  0  0
  -23.7222   -3.0714   24.7148 F   0  0  0  0  0  0  0  0  0  0  0  0
  -20.3331   -6.3342   24.1917 F   0  0  0  0  0  0  0  0  0  0  0  0
  -28.2537  -17.4571   22.9608 Cl  0  0  0  0  0  0  0  0  0  0  0  0
  1  2  1  0  0  0  0
  1  5  2  0  0  0  0
  2  6  2  0  0  0  0
  3  8  2  0  0  0  0
  3 17  1  0  0  0  0
  4  9  1  0  0  0  0
  4 17  2  0  0  0  0
  5 19  1  0  0  0  0
  6 21  1  0  0  0  0
  7 10  2  0  0  0  0
  7 20  1  0  0  0  0
  8 26  1  0  0  0  0
  9 26  2  0  0  0  0
 10 27  1  0  0  0  0
 11 12  2  0  0  0  0
 11 28  1  0  0  0  0
 12 29  1  0  0  0  0
 13 22  1  0  0  0  0
 13 27  2  0  0  0  0
 14 23  2  0  0  0  0
 14 24  1  0  0  0  0
 15 23  1  0  0  0  0
 15 25  2  0  0  0  0
 16 29  2  0  0  0  0
 16 30  1  0  0  0  0
 17 32  1  0  0  0  0
 18 32  1  0  0  0  0
 18 33  2  0  0  0  0
 18 34  1  0  0  0  0
 19 21  2  0  0  0  0
 19 40  1  0  0  0  0
 20 22  2  0  0  0  0
 20 41  1  0  0  0  0
 21 49  1  0  0  0  0
 22 42  1  0  0  0  0
 23 52  1  0  0  0  0
 24 31  2  0  0  0  0
 24 58  1  0  0  0  0
 25 31  1  0  0  0  0
 25 69  1  0  0  0  0
 26 80  1  0  0  0  0
 27 81  1  0  0  0  0
 28 30  2  0  0  0  0
 28 80  1  0  0  0  0
 29 82  1  0  0  0  0
 30 83  1  0  0  0  0
 31 84  1  0  0  0  0
 32 63  2  0  0  0  0
 33 64  1  0  0  0  0
 33 67  1  0  0  0  0
 34 68  1  0  0  0  0
 34 74  2  0  0  0  0
 35 50  1  0  0  0  0
 35 70  1  0  0  0  0
 35 75  2  0  0  0  0
 36 60  1  0  0  0  0
 36 65  1  0  0  0  0
 36 76  2  0  0  0  0
 37 59  1  0  0  0  0
 37 71  1  0  0  0  0
 37 77  2  0  0  0  0
 38 61  1  0  0  0  0
 38 72  1  0  0  0  0
 38 78  2  0  0  0  0
 39 66  1  0  0  0  0
 39 69  1  0  0  0  0
 39 79  2  0  0  0  0
 40 43  1  0  0  0  0
 41 50  1  0  0  0  0
 42 65  1  0  0  0  0
 43 45  1  0  0  0  0
 44 46  1  0  0  0  0
 44 47  1  0  0  0  0
 45 49  1  0  0  0  0
 46 51  1  0  0  0  0
 47 66  1  0  0  0  0
 48 51  1  0  0  0  0
 48 66  1  0  0  0  0
 49 70  1  0  0  0  0
 50 65  1  0  0  0  0
 51 64  1  0  0  0  0
 53 61  1  0  0  0  0
 54 62  1  0  0  0  0
 55 62  1  0  0  0  0
 56 62  1  0  0  0  0
 57 73  1  0  0  0  0
 58 71  1  0  0  0  0
 59 81  1  0  0  0  0
 60 62  1  0  0  0  0
 60 72  1  0  0  0  0
 61 73  1  0  0  0  0
 63 64  1  0  0  0  0
M  CHG  1  73   1
M  ISO  4  39 100  59 101  69 100  81 101
M  END
> <Batch ID>
0013

> <Smiles>
CNC(C)C(=O)NC(C(=O)N1Cc2cc([101O:1][101CH2:1]C(=O)NCc3cc(C)cc([100NH:0][100C:0](=O)N4CCCC(n5nc(-c6ccc(Oc7ccc(F)cc7F)cc6)c(C(N)=O)c5N)C4)c3Cl)ccc2CC1C(=O)NC1CCCc2ccccc21)C(C)(C)C

> <Shape>
0.224

> <Color>
0.198

> <Negative vol penalty>
0.000

$$$$

  -OEChem-04052315503D

 84 92  0     1  0  0  0  0  0999 V2000
  -31.4414  -22.5785   15.1112 C   0  0  0  0  0  0  0  0  0  0  0  0
  -31.0117  -22.4074   16.4232 C   0  0  0  0  0  0  0  0  0  0  0  0
  -23.1392   -9.8702   19.8904 C   0  0  0  0  0  0  0  0  0  0  0  0
  -23.9283   -9.8114   22.1731 C   0  0  0  0  0  0  0  0  0  0  0  0
  -31.5960  -23.8630   14.5914 C   0  0  0  0  0  0  0  0  0  0  0  0
  -30.7374  -23.5209   17.2167 C   0  0  0  0  0  0  0  0  0  0  0  0
  -26.4221  -23.0344   19.8217 C   0  0  0  0  0  0  0  0  0  0  0  0
  -22.4618   -8.6680   20.0935 C   0  0  0  0  0  0  0  0  0  0  0  0
  -23.2508   -8.6091   22.3763 C   0  0  0  0  0  0  0  0  0  0  0  0
  -26.4549  -22.2369   20.9648 C   0  0  0  0  0  0  0  0  0  0  0  0
  -20.0786   -7.6100   22.9754 C   0  0  0  0  0  0  0  0  0  0  0  0
  -19.3406   -7.4744   24.1513 C   0  0  0  0  0  0  0  0  0  0  0  0
  -26.6256  -24.2160   22.3334 C   0  0  0  0  0  0  0  0  0  0  0  0
  -31.7895  -16.9331   22.6887 C   0  0  0  0  0  0  0  0  0  0  0  0
  -20.6941   -5.5750   24.7817 C   0  0  0  0  0  0  0  0  0  0  0  0
  -23.8725  -10.4419   20.9302 C   0  0  0  0  0  0  0  0  0  0  0  0
  -24.0766  -12.9848   20.9261 C   0  0  0  0  0  0  0  0  0  0  0  0
  -31.3142  -24.9926   15.3758 C   0  0  0  0  0  0  0  0  0  0  0  0
  -26.5019  -24.4305   19.9254 C   0  0  0  0  0  0  0  0  0  0  0  0
  -30.8897  -24.8216   16.7073 C   0  0  0  0  0  0  0  0  0  0  0  0
  -26.5910  -25.0291   21.1903 C   0  0  0  0  0  0  0  0  0  0  0  0
  -32.3772  -17.7928   23.6167 C   0  0  0  0  0  0  0  0  0  0  0  0
  -30.1870  -18.5359   24.3153 C   0  0  0  0  0  0  0  0  0  0  0  0
  -30.4006  -16.8749   22.5739 C   0  0  0  0  0  0  0  0  0  0  0  0
  -22.5176   -8.0374   21.3365 C   0  0  0  0  0  0  0  0  0  0  0  0
  -26.5596  -22.8275   22.2207 C   0  0  0  0  0  0  0  0  0  0  0  0
  -21.1243   -6.7280   22.7026 C   0  0  0  0  0  0  0  0  0  0  0  0
  -19.6484   -6.4569   25.0544 C   0  0  0  0  0  0  0  0  0  0  0  0
  -21.4320   -5.7105   23.6057 C   0  0  0  0  0  0  0  0  0  0  0  0
  -31.5760  -18.5941   24.4300 C   0  0  0  0  0  0  0  0  0  0  0  0
  -29.5993  -17.6762   23.3873 C   0  0  0  0  0  0  0  0  0  0  0  0
  -24.5730  -11.6835   20.7208 C   0  0  0  0  0  0  0  0  0  0  0  0
  -25.1219  -13.8086   20.5869 C   0  0  0  0  0  0  0  0  0  0  0  0
  -22.7860  -13.4107   21.3828 C   0  0  0  0  0  0  0  0  0  0  0  0
  -28.5466  -26.6420   18.9094 C   0  0  0  0  0  0  0  0  0  0  0  0
  -26.3241  -28.6845   20.0971 C   0  0  0  0  0  0  0  0  0  0  0  0
  -23.7404  -29.2150   22.2628 C   0  0  0  0  0  0  0  0  0  0  0  0
  -30.5259  -15.1401   20.7515 C   0  0  0  0  0  0  0  0  0  0  0  0
  -31.5416  -26.3616   14.7852 C   0  0  0  0  0  0  0  0  0  0  0  0
  -26.4383  -25.2780   18.6844 C   0  0  0  0  0  0  0  0  0  0  0  0
  -26.6592  -26.5245   21.3569 C   0  0  0  0  0  0  0  0  0  0  0  0
  -30.8705  -27.4839   15.5728 C   0  0  0  0  0  0  0  0  0  0  0  0
  -29.5111  -12.7825   18.2839 C   0  0  0  0  0  0  0  0  0  0  0  0
  -31.1389  -27.3227   17.0657 C   0  0  0  0  0  0  0  0  0  0  0  0
  -28.0951  -12.3935   18.7148 C   0  0  0  0  0  0  0  0  0  0  0  0
  -30.4287  -13.0043   19.4850 C   0  0  0  0  0  0  0  0  0  0  0  0
  -28.5042  -13.5589   20.9196 C   0  0  0  0  0  0  0  0  0  0  0  0
  -30.5584  -26.0043   17.5914 C   0  0  1  0  0  0  0  0  0  0  0  0
  -27.0446  -26.6648   18.8761 C   0  0  1  0  0  0  0  0  0  0  0  0
  -27.5264  -13.3883   19.7456 C   0  0  2  0  0  0  0  0  0  0  0  0
  -33.8695  -17.8216   23.7042 C   0  0  0  0  0  0  0  0  0  0  0  0
  -22.1497  -30.9965   23.0329 C   0  0  0  0  0  0  0  0  0  0  0  0
  -28.5612  -29.9771   21.7201 C   0  0  0  0  0  0  0  0  0  0  0  0
  -26.8086  -31.0690   23.1359 C   0  0  0  0  0  0  0  0  0  0  0  0
  -26.9457  -31.5911   20.7004 C   0  0  0  0  0  0  0  0  0  0  0  0
  -21.3847  -27.6560   21.3800 C   0  0  0  0  0  0  0  0  0  0  0  0
  -29.3260  -19.3981   25.1906 C   0  0  0  0  0  0  0  0  0  0  0  0
  -27.8306  -21.3962   25.2926 C   0  0  0  0  0  0  0  0  0  0  0  0
  -27.3218  -22.5541   24.4569 C   0  0  0  0  0  0  0  0  0  1  0  0
  -26.0768  -29.3341   21.4372 C   0  0  1  0  0  0  0  0  0  0  0  0
  -22.3735  -29.8450   22.0650 C   0  0  2  0  0  0  0  0  0  0  0  0
  -27.0988  -30.4645   21.7455 C   0  0  0  0  0  0  0  0  0  0  0  0
  -25.8355  -11.6761   20.2847 N   0  0  0  0  0  0  0  0  0  0  0  0
  -26.1411  -12.9829   20.2132 N   0  0  0  0  0  0  0  0  0  0  0  0
  -26.5998  -27.3100   20.1131 N   0  0  0  0  0  0  0  0  0  0  0  0
  -29.8269  -13.9612   20.4162 N   0  0  0  0  0  0  0  0  0  0  0  0
  -25.2595  -15.1514   20.5747 N   0  0  0  0  0  0  0  0  0  0  0  0
  -21.8290  -12.4332   21.6876 N   0  0  0  0  0  0  0  0  0  0  0  0
  -29.8408  -15.9894   21.6198 N   0  0  0  0  0  0  0  0  0  0  0  0
  -29.1267  -26.1180   17.7699 N   0  0  0  0  0  0  0  0  0  0  0  0
  -24.6854  -29.7727   21.4278 N   0  0  0  0  0  0  0  0  0  0  0  0
  -21.3007  -28.8336   22.2818 N   0  3  0  0  0  0  0  0  0  0  0  0
  -28.7361  -20.5572   24.4677 N   0  3  0  0  0  0  0  0  0  0  0  0
  -22.4847  -14.6227   21.5009 O   0  0  0  0  0  0  0  0  0  0  0  0
  -29.1357  -27.0697   19.8952 O   0  0  0  0  0  0  0  0  0  0  0  0
  -26.2673  -29.3701   19.0732 O   0  0  0  0  0  0  0  0  0  0  0  0
  -23.9497  -28.3204   23.0791 O   0  0  0  0  0  0  0  0  0  0  0  0
  -31.6379  -15.3915   20.2802 O   0  0  0  0  0  0  0  0  0  0  0  0
  -21.8565   -6.8644   21.5352 O   0  0  0  0  0  0  0  0  0  0  0  0
  -26.5924  -22.0514   23.3381 O   0  0  0  0  0  0  0  0  0  1  0  0
  -18.9406   -6.3278   26.1843 F   0  0  0  0  0  0  0  0  0  0  0  0
  -22.4362   -4.8609   23.3497 F   0  0  0  0  0  0  0  0  0  0  0  0
  -32.3135  -19.6597   25.5806 Cl  0  0  0  0  0  0  0  0  0  0  0  0
  -27.8719  -17.6029   23.2438 Cl  0  0  0  0  0  0  0  0  0  0  0  0
  1  2  1  0  0  0  0
  1  5  2  0  0  0  0
  2  6  2  0  0  0  0
  3  8  2  0  0  0  0
  3 16  1  0  0  0  0
  4  9  1  0  0  0  0
  4 16  2  0  0  0  0
  5 18  1  0  0  0  0
  6 20  1  0  0  0  0
  7 10  2  0  0  0  0
  7 19  1  0  0  0  0
  8 25  1  0  0  0  0
  9 25  2  0  0  0  0
 10 26  1  0  0  0  0
 11 12  2  0  0  0  0
 11 27  1  0  0  0  0
 12 28  1  0  0  0  0
 13 21  1  0  0  0  0
 13 26  2  0  0  0  0
 14 22  1  0  0  0  0
 14 24  2  0  0  0  0
 15 28  2  0  0  0  0
 15 29  1  0  0  0  0
 16 32  1  0  0  0  0
 17 32  1  0  0  0  0
 17 33  2  0  0  0  0
 17 34  1  0  0  0  0
 18 20  2  0  0  0  0
 18 39  1  0  0  0  0
 19 21  2  0  0  0  0
 19 40  1  0  0  0  0
 20 48  1  0  0  0  0
 21 41  1  0  0  0  0
 22 30  2  0  0  0  0
 22 51  1  0  0  0  0
 23 30  1  0  0  0  0
 23 31  2  0  0  0  0
 23 57  1  0  0  0  0
 24 31  1  0  0  0  0
 24 69  1  0  0  0  0
 25 79  1  0  0  0  0
 26 80  1  0  0  0  0
 27 29  2  0  0  0  0
 27 79  1  0  0  0  0
 28 81  1  0  0  0  0
 29 82  1  0  0  0  0
 30 83  1  0  0  0  0
 31 84  1  0  0  0  0
 32 63  2  0  0  0  0
 33 64  1  0  0  0  0
 33 67  1  0  0  0  0
 34 68  1  0  0  0  0
 34 74  2  0  0  0  0
 35 49  1  0  0  0  0
 35 70  1  0  0  0  0
 35 75  2  0  0  0  0
 36 60  1  0  0  0  0
 36 65  1  0  0  0  0
 36 76  2  0  0  0  0
 37 61  1  0  0  0  0
 37 71  1  0  0  0  0
 37 77  2  0  0  0  0
 38 66  1  0  0  0  0
 38 69  1  0  0  0  0
 38 78  2  0  0  0  0
 39 42  1  0  0  0  0
 40 49  1  0  0  0  0
 41 65  1  0  0  0  0
 42 44  1  0  0  0  0
 43 45  1  0  0  0  0
 43 46  1  0  0  0  0
 44 48  1  0  0  0  0
 45 50  1  0  0  0  0
 46 66  1  0  0  0  0
 47 50  1  0  0  0  0
 47 66  1  0  0  0  0
 48 70  1  0  0  0  0
 49 65  1  0  0  0  0
 50 64  1  0  0  0  0
 52 61  1  0  0  0  0
 53 62  1  0  0  0  0
 54 62  1  0  0  0  0
 55 62  1  0  0  0  0
 56 72  1  0  0  0  0
 57 73  1  0  0  0  0
 58 59  1  0  0  0  0
 58 73  1  0  0  0  0
 59 80  1  0  0  0  0
 60 62  1  0  0  0  0
 60 71  1  0  0  0  0
 61 72  1  0  0  0  0
 63 64  1  0  0  0  0
M  CHG  2  72   1  73   1
M  ISO  4  38 100  59 101  69 100  80 101
M  END
> <Batch ID>
0013

> <Smiles>
CNC(C)C(=O)NC(C(=O)N1Cc2cc([101O:1][101CH2:1]CNCc3c(Cl)c(C)cc([100NH:0][100C:0](=O)N4CCCC(n5nc(-c6ccc(Oc7ccc(F)cc7F)cc6)c(C(N)=O)c5N)C4)c3Cl)ccc2CC1C(=O)NC1CCCc2ccccc21)C(C)(C)C

> <Shape>
0.303

> <Color>
0.223

> <Negative vol penalty>
0.000

$$$$

  -OEChem-04052315503D

 84 92  0     1  0  0  0  0  0999 V2000
  -26.8803  -34.9216   24.6611 C   0  0  0  0  0  0  0  0  0  0  0  0
  -27.2780  -33.6782   24.1804 C   0  0  0  0  0  0  0  0  0  0  0  0
  -26.5868  -12.1529   21.7453 C   0  0  0  0  0  0  0  0  0  0  0  0
  -26.4003  -13.2243   19.5879 C   0  0  0  0  0  0  0  0  0  0  0  0
  -25.5915  -35.0936   25.1642 C   0  0  0  0  0  0  0  0  0  0  0  0
  -26.3872  -32.6056   24.2036 C   0  0  0  0  0  0  0  0  0  0  0  0
  -26.4001  -29.9758   19.8759 C   0  0  0  0  0  0  0  0  0  0  0  0
  -25.2636  -11.7230   21.6462 C   0  0  0  0  0  0  0  0  0  0  0  0
  -25.0771  -12.7944   19.4888 C   0  0  0  0  0  0  0  0  0  0  0  0
  -27.4546  -29.0863   19.6745 C   0  0  0  0  0  0  0  0  0  0  0  0
  -23.5536   -9.2669   20.0724 C   0  0  0  0  0  0  0  0  0  0  0  0
  -23.2743   -7.9442   20.4160 C   0  0  0  0  0  0  0  0  0  0  0  0
  -26.0335  -27.2579   20.3502 C   0  0  0  0  0  0  0  0  0  0  0  0
  -29.4827  -22.7420   19.1436 C   0  0  0  0  0  0  0  0  0  0  0  0
  -30.3152  -21.5796   17.1962 C   0  0  0  0  0  0  0  0  0  0  0  0
  -21.7671   -8.7107   22.1417 C   0  0  0  0  0  0  0  0  0  0  0  0
  -27.1552  -12.9036   20.7162 C   0  0  0  0  0  0  0  0  0  0  0  0
  -29.6728  -12.6666   20.3799 C   0  0  0  0  0  0  0  0  0  0  0  0
  -24.6813  -34.0251   25.1847 C   0  0  0  0  0  0  0  0  0  0  0  0
  -25.1554  -29.5136   20.3272 C   0  0  0  0  0  0  0  0  0  0  0  0
  -25.0854  -32.7631   24.7087 C   0  0  0  0  0  0  0  0  0  0  0  0
  -24.9640  -28.1432   20.5541 C   0  0  0  0  0  0  0  0  0  0  0  0
  -29.7342  -22.7093   17.7720 C   0  0  0  0  0  0  0  0  0  0  0  0
  -30.3936  -20.5151   19.3636 C   0  0  0  0  0  0  0  0  0  0  0  0
  -24.5087  -12.0437   20.5179 C   0  0  0  0  0  0  0  0  0  0  0  0
  -27.2723  -27.7275   19.9144 C   0  0  0  0  0  0  0  0  0  0  0  0
  -22.9398  -10.3115   20.7635 C   0  0  0  0  0  0  0  0  0  0  0  0
  -22.3811   -7.6661   21.4506 C   0  0  0  0  0  0  0  0  0  0  0  0
  -29.8125  -21.6449   19.9394 C   0  0  0  0  0  0  0  0  0  0  0  0
  -30.6449  -20.4824   17.9920 C   0  0  0  0  0  0  0  0  0  0  0  0
  -22.0465  -10.0334   21.7981 C   0  0  0  0  0  0  0  0  0  0  0  0
  -28.5218  -13.3485   20.8182 C   0  0  0  0  0  0  0  0  0  0  0  0
  -30.7123  -13.5035   20.7048 C   0  0  0  0  0  0  0  0  0  0  0  0
  -29.7916  -11.3908   19.7365 C   0  0  0  0  0  0  0  0  0  0  0  0
  -23.3726  -30.0288   22.9078 C   0  0  0  0  0  0  0  0  0  0  0  0
  -21.2134  -28.2200   21.2990 C   0  0  0  0  0  0  0  0  0  0  0  0
  -20.6225  -25.8460   18.9196 C   0  0  0  0  0  0  0  0  0  0  0  0
  -31.0964  -19.4110   21.5162 C   0  0  0  0  0  0  0  0  0  0  0  0
  -23.3142  -34.2472   25.7817 C   0  0  0  0  0  0  0  0  0  0  0  0
  -24.0202  -30.4825   20.5139 C   0  0  0  0  0  0  0  0  0  0  0  0
  -23.6413  -27.5937   21.0199 C   0  0  0  0  0  0  0  0  0  0  0  0
  -22.3091  -33.1550   25.4253 C   0  0  0  0  0  0  0  0  0  0  0  0
  -31.9548  -16.8785   23.8670 C   0  0  0  0  0  0  0  0  0  0  0  0
  -22.9301  -31.7750   25.6166 C   0  0  0  0  0  0  0  0  0  0  0  0
  -31.2817  -15.6225   23.3088 C   0  0  0  0  0  0  0  0  0  0  0  0
  -31.1021  -18.1261   23.6431 C   0  0  0  0  0  0  0  0  0  0  0  0
  -30.0029  -17.0900   21.6969 C   0  0  0  0  0  0  0  0  0  0  0  0
  -24.1398  -31.5817   24.6941 C   0  0  1  0  0  0  0  0  0  0  0  0
  -22.9467  -29.9683   21.4682 C   0  0  1  0  0  0  0  0  0  0  0  0
  -30.8537  -15.8175   21.8411 C   0  0  2  0  0  0  0  0  0  0  0  0
  -18.7594  -24.5444   17.8555 C   0  0  0  0  0  0  0  0  0  0  0  0
  -21.0414  -26.4460   23.7756 C   0  0  0  0  0  0  0  0  0  0  0  0
  -19.9480  -24.6946   22.3596 C   0  0  0  0  0  0  0  0  0  0  0  0
  -18.8464  -26.9109   22.6709 C   0  0  0  0  0  0  0  0  0  0  0  0
  -29.6685  -23.7764   15.5321 C   0  0  0  0  0  0  0  0  0  0  0  0
  -21.2088  -26.9701   16.2454 C   0  0  0  0  0  0  0  0  0  0  0  0
  -29.8428  -25.9081   18.1449 C   0  0  0  0  0  0  0  0  0  0  0  0
  -28.7903  -24.9923   17.5318 C   0  0  0  0  0  0  0  0  0  0  0  0
  -29.2542  -27.1942   18.7130 C   0  0  0  0  0  0  0  0  0  1  0  0
  -20.9063  -26.7444   21.2146 C   0  0  1  0  0  0  0  0  0  0  0  0
  -19.6253  -25.7921   17.7763 C   0  0  2  0  0  0  0  0  0  0  0  0
  -20.2112  -26.2093   22.4982 C   0  0  0  0  0  0  0  0  0  0  0  0
  -28.8033  -14.5276   21.3790 N   0  0  0  0  0  0  0  0  0  0  0  0
  -30.1430  -14.5932   21.2952 N   0  0  0  0  0  0  0  0  0  0  0  0
  -22.5639  -28.5818   21.1941 N   0  0  0  0  0  0  0  0  0  0  0  0
  -30.7381  -18.2477   22.2297 N   0  0  0  0  0  0  0  0  0  0  0  0
  -32.0486  -13.4062   20.5401 N   0  0  0  0  0  0  0  0  0  0  0  0
  -28.6229  -10.6622   19.4765 N   0  0  0  0  0  0  0  0  0  0  0  0
  -30.7261  -19.3997   20.1718 N   0  0  0  0  0  0  0  0  0  0  0  0
  -23.7050  -31.2974   23.3434 N   0  0  0  0  0  0  0  0  0  0  0  0
  -20.1307  -26.5581   19.9931 N   0  0  0  0  0  0  0  0  0  0  0  0
  -29.4039  -23.8124   16.9716 N   0  0  3  0  0  0  0  0  0  0  0  0
  -20.3379  -25.7873   16.4674 N   0  3  0  0  0  0  0  0  0  0  0  0
  -30.9026  -10.9038   19.4169 O   0  0  0  0  0  0  0  0  0  0  0  0
  -23.3964  -29.0009   23.5746 O   0  0  0  0  0  0  0  0  0  0  0  0
  -20.2882  -29.0228   21.4453 O   0  0  0  0  0  0  0  0  0  0  0  0
  -21.7257  -25.3069   18.8673 O   0  0  0  0  0  0  0  0  0  0  0  0
  -31.7121  -20.3366   22.0511 O   0  0  0  0  0  0  0  0  0  0  0  0
  -23.2175  -11.6242   20.4208 O   0  0  0  0  0  0  0  0  0  0  0  0
  -28.3001  -26.8573   19.7192 O   0  0  0  0  0  0  0  0  0  1  0  0
  -22.1117   -6.3958   21.7793 F   0  0  0  0  0  0  0  0  0  0  0  0
  -29.5653  -21.6867   21.2565 F   0  0  0  0  0  0  0  0  0  0  0  0
  -31.2013  -19.4011   17.4274 F   0  0  0  0  0  0  0  0  0  0  0  0
  -21.4528  -11.0328   22.4649 F   0  0  0  0  0  0  0  0  0  0  0  0
  1  2  1  0  0  0  0
  1  5  2  0  0  0  0
  2  6  2  0  0  0  0
  3  8  2  0  0  0  0
  3 17  1  0  0  0  0
  4  9  1  0  0  0  0
  4 17  2  0  0  0  0
  5 19  1  0  0  0  0
  6 21  1  0  0  0  0
  7 10  2  0  0  0  0
  7 20  1  0  0  0  0
  8 25  1  0  0  0  0
  9 25  2  0  0  0  0
 10 26  1  0  0  0  0
 11 12  2  0  0  0  0
 11 27  1  0  0  0  0
 12 28  1  0  0  0  0
 13 22  1  0  0  0  0
 13 26  2  0  0  0  0
 14 23  1  0  0  0  0
 14 29  2  0  0  0  0
 15 23  2  0  0  0  0
 15 30  1  0  0  0  0
 16 28  2  0  0  0  0
 16 31  1  0  0  0  0
 17 32  1  0  0  0  0
 18 32  1  0  0  0  0
 18 33  2  0  0  0  0
 18 34  1  0  0  0  0
 19 21  2  0  0  0  0
 19 39  1  0  0  0  0
 20 22  2  0  0  0  0
 20 40  1  0  0  0  0
 21 48  1  0  0  0  0
 22 41  1  0  0  0  0
 23 72  1  0  0  0  0
 24 29  1  0  0  0  0
 24 30  2  0  0  0  0
 24 69  1  0  0  0  0
 25 79  1  0  0  0  0
 26 80  1  0  0  0  0
 27 31  2  0  0  0  0
 27 79  1  0  0  0  0
 28 81  1  0  0  0  0
 29 82  1  0  0  0  0
 30 83  1  0  0  0  0
 31 84  1  0  0  0  0
 32 63  2  0  0  0  0
 33 64  1  0  0  0  0
 33 67  1  0  0  0  0
 34 68  1  0  0  0  0
 34 74  2  0  0  0  0
 35 49  1  0  0  0  0
 35 70  1  0  0  0  0
 35 75  2  0  0  0  0
 36 60  1  0  0  0  0
 36 65  1  0  0  0  0
 36 76  2  0  0  0  0
 37 61  1  0  0  0  0
 37 71  1  0  0  0  0
 37 77  2  0  0  0  0
 38 66  1  0  0  0  0
 38 69  1  0  0  0  0
 38 78  2  0  0  0  0
 39 42  1  0  0  0  0
 40 49  1  0  0  0  0
 41 65  1  0  0  0  0
 42 44  1  0  0  0  0
 43 45  1  0  0  0  0
 43 46  1  0  0  0  0
 44 48  1  0  0  0  0
 45 50  1  0  0  0  0
 46 66  1  0  0  0  0
 47 50  1  0  0  0  0
 47 66  1  0  0  0  0
 48 70  1  0  0  0  0
 49 65  1  0  0  0  0
 50 64  1  0  0  0  0
 51 61  1  0  0  0  0
 52 62  1  0  0  0  0
 53 62  1  0  0  0  0
 54 62  1  0  0  0  0
 55 72  1  0  0  0  0
 56 73  1  0  0  0  0
 57 58  1  0  0  0  0
 57 59  1  0  0  0  0
 58 72  1  0  0  0  0
 59 80  1  0  0  0  0
 60 62  1  0  0  0  0
 60 71  1  0  0  0  0
 61 73  1  0  0  0  0
 63 64  1  0  0  0  0
M  CHG  1  73   1
M  ISO  4  38 100  59 101  69 100  80 101
M  END
> <Batch ID>
0013

> <Smiles>
CNC(C)C(=O)NC(C(=O)N1Cc2cc([101O:1][101CH2:1]CCN(C)c3cc(F)c([100NH:0][100C:0](=O)N4CCCC(n5nc(-c6ccc(Oc7ccc(F)cc7F)cc6)c(C(N)=O)c5N)C4)c(F)c3)ccc2CC1C(=O)NC1CCCc2ccccc21)C(C)(C)C

> <Shape>
0.346

> <Color>
0.089

> <Negative vol penalty>
0.000

$$$$
