
  -OEChem-04052315533D

 85 93  0     1  0  0  0  0  0999 V2000
  -27.7415  -23.6470   11.8140 C   0  0  0  0  0  0  0  0  0  0  0  0
  -27.6758  -23.2848   13.1556 C   0  0  0  0  0  0  0  0  0  0  0  0
  -23.0755   -9.8696   19.9368 C   0  0  0  0  0  0  0  0  0  0  0  0
  -23.8367   -9.8698   22.2298 C   0  0  0  0  0  0  0  0  0  0  0  0
  -28.8452  -24.3527   11.3369 C   0  0  0  0  0  0  0  0  0  0  0  0
  -28.7145  -23.6272   14.0207 C   0  0  0  0  0  0  0  0  0  0  0  0
  -28.2318  -25.1408   19.9353 C   0  0  0  0  0  0  0  0  0  0  0  0
  -22.3315   -8.7160   20.1839 C   0  0  0  0  0  0  0  0  0  0  0  0
  -23.0927   -8.7162   22.4769 C   0  0  0  0  0  0  0  0  0  0  0  0
  -28.4175  -24.4108   21.1085 C   0  0  0  0  0  0  0  0  0  0  0  0
  -19.8647   -7.9174   23.0791 C   0  0  0  0  0  0  0  0  0  0  0  0
  -19.1084   -7.8744   24.2503 C   0  0  0  0  0  0  0  0  0  0  0  0
  -30.6740  -25.2492   21.2656 C   0  0  0  0  0  0  0  0  0  0  0  0
  -32.0662  -16.5986   22.5568 C   0  0  0  0  0  0  0  0  0  0  0  0
  -20.3498   -5.9345   24.9804 C   0  0  0  0  0  0  0  0  0  0  0  0
  -23.8282  -10.4466   20.9597 C   0  0  0  0  0  0  0  0  0  0  0  0
  -24.1706  -12.9720   20.8468 C   0  0  0  0  0  0  0  0  0  0  0  0
  -29.8934  -24.7123   12.1986 C   0  0  0  0  0  0  0  0  0  0  0  0
  -29.2710  -25.9232   19.4117 C   0  0  0  0  0  0  0  0  0  0  0  0
  -29.8339  -24.3372   13.5544 C   0  0  0  0  0  0  0  0  0  0  0  0
  -30.4980  -25.9902   20.0870 C   0  0  0  0  0  0  0  0  0  0  0  0
  -30.4771  -18.3302   24.0599 C   0  0  0  0  0  0  0  0  0  0  0  0
  -30.6800  -16.5843   22.4023 C   0  0  0  0  0  0  0  0  0  0  0  0
  -22.3400   -8.1392   21.4539 C   0  0  0  0  0  0  0  0  0  0  0  0
  -29.6397  -24.4627   21.7723 C   0  0  0  0  0  0  0  0  0  0  0  0
  -20.8635   -6.9690   22.8584 C   0  0  0  0  0  0  0  0  0  0  0  0
  -19.3510   -6.8829   25.2010 C   0  0  0  0  0  0  0  0  0  0  0  0
  -32.6579  -17.4787   23.4629 C   0  0  0  0  0  0  0  0  0  0  0  0
  -21.1060   -5.9776   23.8091 C   0  0  0  0  0  0  0  0  0  0  0  0
  -29.8855  -17.4501   23.1538 C   0  0  0  0  0  0  0  0  0  0  0  0
  -31.8633  -18.3445   24.2144 C   0  0  0  0  0  0  0  0  0  0  0  0
  -24.5974  -11.6380   20.7050 C   0  0  0  0  0  0  0  0  0  0  0  0
  -25.2627  -13.7222   20.4850 C   0  0  0  0  0  0  0  0  0  0  0  0
  -22.9005  -13.4869   21.2679 C   0  0  0  0  0  0  0  0  0  0  0  0
  -30.9403  -25.9159   16.7066 C   0  0  0  0  0  0  0  0  0  0  0  0
  -32.1816  -28.6556   17.9214 C   0  0  0  0  0  0  0  0  0  0  0  0
  -29.8373  -21.5502   23.9232 C   0  0  0  0  0  0  0  0  0  0  0  0
  -32.8674  -30.5554   20.6722 C   0  0  0  0  0  0  0  0  0  0  0  0
  -30.7293  -14.7659   20.6594 C   0  0  0  0  0  0  0  0  0  0  0  0
  -31.0880  -25.4339   11.6269 C   0  0  0  0  0  0  0  0  0  0  0  0
  -29.0459  -26.7258   18.1596 C   0  0  0  0  0  0  0  0  0  0  0  0
  -31.6389  -26.8310   19.5773 C   0  0  0  0  0  0  0  0  0  0  0  0
  -31.9717  -26.0847   12.6880 C   0  0  0  0  0  0  0  0  0  0  0  0
  -29.6128  -12.3592   18.2849 C   0  0  0  0  0  0  0  0  0  0  0  0
  -32.2356  -25.1119   13.8329 C   0  0  0  0  0  0  0  0  0  0  0  0
  -28.1734  -12.0667   18.7145 C   0  0  0  0  0  0  0  0  0  0  0  0
  -30.5287  -12.5843   19.4867 C   0  0  0  0  0  0  0  0  0  0  0  0
  -28.6228  -13.3053   20.8711 C   0  0  0  0  0  0  0  0  0  0  0  0
  -30.9291  -24.7120   14.5292 C   0  0  1  0  0  0  0  0  0  0  0  0
  -30.3416  -27.0837   17.4383 C   0  0  1  0  0  0  0  0  0  0  0  0
  -27.6492  -13.1357   19.6934 C   0  0  2  0  0  0  0  0  0  0  0  0
  -33.9219  -32.7286   21.3523 C   0  0  0  0  0  0  0  0  0  0  0  0
  -34.9490  -27.4435   17.4943 C   0  0  0  0  0  0  0  0  0  0  0  0
  -35.8756  -29.1945   19.0253 C   0  0  0  0  0  0  0  0  0  0  0  0
  -34.7663  -29.8643   16.8937 C   0  0  0  0  0  0  0  0  0  0  0  0
  -30.3340  -31.5560   21.8298 C   0  0  0  0  0  0  0  0  0  0  0  0
  -29.6223  -19.2608   24.8708 C   0  0  0  0  0  0  0  0  0  0  0  0
  -29.0879  -22.5356   23.0520 C   0  0  0  0  0  0  0  0  0  1  0  0
  -33.3569  -28.9970   18.8051 C   0  0  1  0  0  0  0  0  0  0  0  0
  -32.6299  -32.0258   20.9656 C   0  0  2  0  0  0  0  0  0  0  0  0
  -34.7163  -28.8574   18.0634 C   0  0  0  0  0  0  0  0  0  0  0  0
  -25.8620  -11.5430   20.2857 N   0  0  0  0  0  0  0  0  0  0  0  0
  -26.2391  -12.8269   20.1608 N   0  0  0  0  0  0  0  0  0  0  0  0
  -31.3718  -27.5926   18.3460 N   0  0  0  0  0  0  0  0  0  0  0  0
  -29.9705  -13.6128   20.3673 N   0  0  0  0  0  0  0  0  0  0  0  0
  -25.4734  -15.0538   20.4157 N   0  0  0  0  0  0  0  0  0  0  0  0
  -21.8885  -12.5770   21.6032 N   0  0  0  0  0  0  0  0  0  0  0  0
  -30.0826  -15.6888   21.4809 N   0  0  0  0  0  0  0  0  0  0  0  0
  -30.4824  -25.7688   15.4112 N   0  0  0  0  0  0  0  0  0  0  0  0
  -29.1314  -20.3681   24.0835 N   0  0  0  0  0  0  0  0  0  0  0  0
  -33.0977  -30.3329   19.3311 N   0  0  0  0  0  0  0  0  0  0  0  0
  -31.6578  -32.1804   22.0845 N   0  3  0  0  0  0  0  0  0  0  0  0
  -22.6646  -14.7174   21.3289 O   0  0  0  0  0  0  0  0  0  0  0  0
  -31.7583  -25.2019   17.2748 O   0  0  0  0  0  0  0  0  0  0  0  0
  -31.9849  -29.3125   16.8961 O   0  0  0  0  0  0  0  0  0  0  0  0
  -30.9349  -21.7986   24.4145 O   0  0  0  0  0  0  0  0  0  0  0  0
  -32.8539  -29.6912   21.5460 O   0  0  0  0  0  0  0  0  0  0  0  0
  -31.8581  -14.9357   20.1916 O   0  0  0  0  0  0  0  0  0  0  0  0
  -21.6140   -7.0136   21.6955 O   0  0  0  0  0  0  0  0  0  0  0  0
  -29.8240  -23.7507   22.9173 O   0  0  0  0  0  0  0  0  0  1  0  0
  -18.6257   -6.8426   26.3264 F   0  0  0  0  0  0  0  0  0  0  0  0
  -33.9890  -17.4916   23.6121 F   0  0  0  0  0  0  0  0  0  0  0  0
  -22.0650   -5.0644   23.6033 F   0  0  0  0  0  0  0  0  0  0  0  0
  -28.5518  -17.4372   23.0068 F   0  0  0  0  0  0  0  0  0  0  0  0
  -32.4412  -19.1864   25.0827 F   0  0  0  0  0  0  0  0  0  0  0  0
  1  2  1  0  0  0  0
  1  5  2  0  0  0  0
  2  6  2  0  0  0  0
  3  8  2  0  0  0  0
  3 16  1  0  0  0  0
  4  9  1  0  0  0  0
  4 16  2  0  0  0  0
  5 18  1  0  0  0  0
  6 20  1  0  0  0  0
  7 10  2  0  0  0  0
  7 19  1  0  0  0  0
  8 24  1  0  0  0  0
  9 24  2  0  0  0  0
 10 25  1  0  0  0  0
 11 12  2  0  0  0  0
 11 26  1  0  0  0  0
 12 27  1  0  0  0  0
 13 21  1  0  0  0  0
 13 25  2  0  0  0  0
 14 23  2  0  0  0  0
 14 28  1  0  0  0  0
 15 27  2  0  0  0  0
 15 29  1  0  0  0  0
 16 32  1  0  0  0  0
 17 32  1  0  0  0  0
 17 33  2  0  0  0  0
 17 34  1  0  0  0  0
 18 20  2  0  0  0  0
 18 40  1  0  0  0  0
 19 21  2  0  0  0  0
 19 41  1  0  0  0  0
 20 49  1  0  0  0  0
 21 42  1  0  0  0  0
 22 30  2  0  0  0  0
 22 31  1  0  0  0  0
 22 57  1  0  0  0  0
 23 30  1  0  0  0  0
 23 68  1  0  0  0  0
 24 79  1  0  0  0  0
 25 80  1  0  0  0  0
 26 29  2  0  0  0  0
 26 79  1  0  0  0  0
 27 81  1  0  0  0  0
 28 31  2  0  0  0  0
 28 82  1  0  0  0  0
 29 83  1  0  0  0  0
 30 84  1  0  0  0  0
 31 85  1  0  0  0  0
 32 62  2  0  0  0  0
 33 63  1  0  0  0  0
 33 66  1  0  0  0  0
 34 67  1  0  0  0  0
 34 73  2  0  0  0  0
 35 50  1  0  0  0  0
 35 69  1  0  0  0  0
 35 74  2  0  0  0  0
 36 59  1  0  0  0  0
 36 64  1  0  0  0  0
 36 75  2  0  0  0  0
 37 58  1  0  0  0  0
 37 70  1  0  0  0  0
 37 76  2  0  0  0  0
 38 60  1  0  0  0  0
 38 71  1  0  0  0  0
 38 77  2  0  0  0  0
 39 65  1  0  0  0  0
 39 68  1  0  0  0  0
 39 78  2  0  0  0  0
 40 43  1  0  0  0  0
 41 50  1  0  0  0  0
 42 64  1  0  0  0  0
 43 45  1  0  0  0  0
 44 46  1  0  0  0  0
 44 47  1  0  0  0  0
 45 49  1  0  0  0  0
 46 51  1  0  0  0  0
 47 65  1  0  0  0  0
 48 51  1  0  0  0  0
 48 65  1  0  0  0  0
 49 69  1  0  0  0  0
 50 64  1  0  0  0  0
 51 63  1  0  0  0  0
 52 60  1  0  0  0  0
 53 61  1  0  0  0  0
 54 61  1  0  0  0  0
 55 61  1  0  0  0  0
 56 72  1  0  0  0  0
 57 70  1  0  0  0  0
 58 80  1  0  0  0  0
 59 61  1  0  0  0  0
 59 71  1  0  0  0  0
 60 72  1  0  0  0  0
 62 63  1  0  0  0  0
M  CHG  1  72   1
M  ISO  4  39 100  58 101  68 100  80 101
M  END
> <Batch ID>
0014

> <Smiles>
CNC(C)C(=O)NC(C(=O)N1Cc2cc([101O:1][101CH2:1]C(=O)NCc3c(F)c(F)cc([100NH:0][100C:0](=O)N4CCCC(n5nc(-c6ccc(Oc7ccc(F)cc7F)cc6)c(C(N)=O)c5N)C4)c3F)ccc2CC1C(=O)NC1CCCc2ccccc21)C(C)(C)C

> <Shape>
0.214

> <Color>
0.192

> <Negative vol penalty>
0.000

$$$$

  -OEChem-04052315533D

 83 90  0     1  0  0  0  0  0999 V2000
  -19.5018  -33.4946   20.5575 C   0  0  0  0  0  0  0  0  0  0  0  0
  -20.7617  -33.0093   20.2221 C   0  0  0  0  0  0  0  0  0  0  0  0
  -24.4233   -9.3158   21.9011 C   0  0  0  0  0  0  0  0  0  0  0  0
  -23.1673  -10.5670   20.2597 C   0  0  0  0  0  0  0  0  0  0  0  0
  -18.8584  -33.0277   21.7029 C   0  0  0  0  0  0  0  0  0  0  0  0
  -21.3795  -32.0576   21.0327 C   0  0  0  0  0  0  0  0  0  0  0  0
  -25.0216  -27.4812   19.2167 C   0  0  0  0  0  0  0  0  0  0  0  0
  -23.3672   -8.4125   22.0207 C   0  0  0  0  0  0  0  0  0  0  0  0
  -22.1112   -9.6636   20.3792 C   0  0  0  0  0  0  0  0  0  0  0  0
  -26.4085  -27.3442   19.1805 C   0  0  0  0  0  0  0  0  0  0  0  0
  -22.1354   -5.7781   20.2957 C   0  0  0  0  0  0  0  0  0  0  0  0
  -22.4439   -4.4179   20.3060 C   0  0  0  0  0  0  0  0  0  0  0  0
  -26.3457  -26.2078   21.3075 C   0  0  0  0  0  0  0  0  0  0  0  0
  -21.4553   -4.2102   22.5007 C   0  0  0  0  0  0  0  0  0  0  0  0
  -24.3233  -10.3931   21.0207 C   0  0  0  0  0  0  0  0  0  0  0  0
  -26.5013  -11.2509   20.0067 C   0  0  0  0  0  0  0  0  0  0  0  0
  -19.4645  -32.0627   22.5227 C   0  0  0  0  0  0  0  0  0  0  0  0
  -24.2861  -26.9914   20.3056 C   0  0  0  0  0  0  0  0  0  0  0  0
  -20.7442  -31.5784   22.1909 C   0  0  0  0  0  0  0  0  0  0  0  0
  -24.9493  -26.3376   21.3539 C   0  0  0  0  0  0  0  0  0  0  0  0
  -22.2112   -8.5863   21.2597 C   0  0  0  0  0  0  0  0  0  0  0  0
  -27.0711  -26.7099   20.2273 C   0  0  0  0  0  0  0  0  0  0  0  0
  -21.4869   -6.3545   21.3879 C   0  0  0  0  0  0  0  0  0  0  0  0
  -22.1039   -3.6339   21.4084 C   0  0  0  0  0  0  0  0  0  0  0  0
  -21.1469   -5.5705   22.4904 C   0  0  0  0  0  0  0  0  0  0  0  0
  -25.4137  -11.3269   20.8972 C   0  0  0  0  0  0  0  0  0  0  0  0
  -27.2507  -12.3681   20.2838 C   0  0  0  0  0  0  0  0  0  0  0  0
  -26.8069  -10.2591   19.0175 C   0  0  0  0  0  0  0  0  0  0  0  0
  -22.4123  -28.2974   22.5162 C   0  0  0  0  0  0  0  0  0  0  0  0
  -27.5197  -17.8598   21.3130 C   0  0  0  0  0  0  0  0  0  0  0  0
  -21.8798  -25.2039   23.3342 C   0  0  0  0  0  0  0  0  0  0  0  0
  -28.6495  -18.8988   19.2972 C   0  0  0  0  0  0  0  0  0  0  0  0
  -30.2806  -25.0228   20.1972 C   0  0  0  0  0  0  0  0  0  0  0  0
  -22.9790  -21.9731   23.3202 C   0  0  0  0  0  0  0  0  0  0  0  0
  -18.7504  -31.6232   23.7763 C   0  0  0  0  0  0  0  0  0  0  0  0
  -22.7879  -27.1235   20.3169 C   0  0  0  0  0  0  0  0  0  0  0  0
  -24.2038  -25.7762   22.5361 C   0  0  0  0  0  0  0  0  0  0  0  0
  -19.3126  -30.3381   24.3788 C   0  0  0  0  0  0  0  0  0  0  0  0
  -26.9693  -15.6699   24.0953 C   0  0  0  0  0  0  0  0  0  0  0  0
  -20.8357  -30.3973   24.4364 C   0  0  0  0  0  0  0  0  0  0  0  0
  -26.5755  -14.3473   23.4388 C   0  0  0  0  0  0  0  0  0  0  0  0
  -26.4442  -16.8640   23.3044 C   0  0  0  0  0  0  0  0  0  0  0  0
  -26.4630  -15.5480   21.2093 C   0  0  0  0  0  0  0  0  0  0  0  0
  -21.4363  -30.5274   23.0315 C   0  0  1  0  0  0  0  0  0  0  0  0
  -22.1915  -27.0432   21.7188 C   0  0  1  0  0  0  0  0  0  0  0  0
  -26.9999  -14.3164   21.9598 C   0  0  2  0  0  0  0  0  0  0  0  0
  -22.3448  -19.6731   24.0983 C   0  0  0  0  0  0  0  0  0  0  0  0
  -22.6754  -25.9511   26.1835 C   0  0  0  0  0  0  0  0  0  0  0  0
  -22.9446  -23.5108   26.6740 C   0  0  0  0  0  0  0  0  0  0  0  0
  -20.7123  -24.4106   26.0186 C   0  0  0  0  0  0  0  0  0  0  0  0
  -30.8191  -17.7985   20.0233 C   0  0  0  0  0  0  0  0  0  0  0  0
  -22.9166  -20.9277   20.5522 C   0  0  0  0  0  0  0  0  0  0  0  0
  -27.9084  -17.7042   19.8643 C   0  0  0  0  0  0  0  0  0  0  0  0
  -28.9805  -25.4373   20.8524 C   0  0  0  0  0  0  0  0  0  1  0  0
  -31.8887  -22.2278   19.3765 C   0  0  0  0  0  0  0  0  0  0  0  0
  -31.0422  -21.0707   19.9183 C   0  0  0  0  0  0  0  0  0  0  0  0
  -32.0941  -23.3338   20.4070 C   0  0  0  0  0  0  0  0  0  0  0  0
  -30.8274  -19.9798   18.8764 C   0  0  0  0  0  0  0  0  0  0  0  0
  -22.5323  -24.2192   24.2742 C   0  0  1  0  0  0  0  0  0  0  0  0
  -22.2836  -20.6741   22.9550 C   0  0  2  0  0  0  0  0  0  0  0  0
  -22.2307  -24.5351   25.7663 C   0  0  0  0  0  0  0  0  0  0  0  0
  -25.4638  -12.4070   21.6814 N   0  0  0  0  0  0  0  0  0  0  0  0
  -26.5921  -13.0199   21.2846 N   0  0  0  0  0  0  0  0  0  0  0  0
  -22.7406  -25.9358   22.5040 N   0  0  0  0  0  0  0  0  0  0  0  0
  -26.8498  -16.7861   21.8999 N   0  0  0  0  0  0  0  0  0  0  0  0
  -28.4021  -12.8467   19.7665 N   0  0  0  0  0  0  0  0  0  0  0  0
  -25.9304   -9.1763   18.8640 N   0  0  0  0  0  0  0  0  0  0  0  0
  -21.4223  -29.2479   22.3553 N   0  0  0  0  0  0  0  0  0  0  0  0
  -30.8484  -23.9293   20.8320 N   0  0  0  0  0  0  0  0  0  0  0  0
  -22.0973  -22.8947   23.8441 N   0  0  0  0  0  0  0  0  0  0  0  0
  -30.0437  -18.8743   19.4088 N   0  0  0  0  0  0  0  0  0  0  0  0
  -22.9266  -20.0608   21.7586 N   0  3  0  0  0  0  0  0  0  0  0  0
  -27.8357  -10.3223   18.3026 O   0  0  0  0  0  0  0  0  0  0  0  0
  -23.4064  -28.3950   23.2261 O   0  0  0  0  0  0  0  0  0  0  0  0
  -27.8063  -18.9039   21.9044 O   0  0  0  0  0  0  0  0  0  0  0  0
  -20.6513  -25.3144   23.3315 O   0  0  0  0  0  0  0  0  0  0  0  0
  -28.0237  -19.8236   18.7718 O   0  0  0  0  0  0  0  0  0  0  0  0
  -30.7494  -25.6060   19.2235 O   0  0  0  0  0  0  0  0  0  0  0  0
  -24.1846  -22.1510   23.1605 O   0  0  0  0  0  0  0  0  0  0  0  0
  -21.1806   -7.7049   21.3759 O   0  0  0  0  0  0  0  0  0  0  0  0
  -28.4249  -26.5754   20.1948 O   0  0  0  0  0  0  0  0  0  1  0  0
  -22.3988   -2.3274   21.4175 F   0  0  0  0  0  0  0  0  0  0  0  0
  -20.5227   -6.1184   23.5421 F   0  0  0  0  0  0  0  0  0  0  0  0
  1  2  1  0  0  0  0
  1  5  2  0  0  0  0
  2  6  2  0  0  0  0
  3  8  2  0  0  0  0
  3 15  1  0  0  0  0
  4  9  1  0  0  0  0
  4 15  2  0  0  0  0
  5 17  1  0  0  0  0
  6 19  1  0  0  0  0
  7 10  2  0  0  0  0
  7 18  1  0  0  0  0
  8 21  1  0  0  0  0
  9 21  2  0  0  0  0
 10 22  1  0  0  0  0
 11 12  2  0  0  0  0
 11 23  1  0  0  0  0
 12 24  1  0  0  0  0
 13 20  1  0  0  0  0
 13 22  2  0  0  0  0
 14 24  2  0  0  0  0
 14 25  1  0  0  0  0
 15 26  1  0  0  0  0
 16 26  1  0  0  0  0
 16 27  2  0  0  0  0
 16 28  1  0  0  0  0
 17 19  2  0  0  0  0
 17 35  1  0  0  0  0
 18 20  2  0  0  0  0
 18 36  1  0  0  0  0
 19 44  1  0  0  0  0
 20 37  1  0  0  0  0
 21 80  1  0  0  0  0
 22 81  1  0  0  0  0
 23 25  2  0  0  0  0
 23 80  1  0  0  0  0
 24 82  1  0  0  0  0
 25 83  1  0  0  0  0
 26 62  2  0  0  0  0
 27 63  1  0  0  0  0
 27 66  1  0  0  0  0
 28 67  1  0  0  0  0
 28 73  2  0  0  0  0
 29 45  1  0  0  0  0
 29 68  1  0  0  0  0
 29 74  2  0  0  0  0
 30 53  1  0  0  0  0
 30 65  1  0  0  0  0
 30 75  2  0  0  0  0
 31 59  1  0  0  0  0
 31 64  1  0  0  0  0
 31 76  2  0  0  0  0
 32 53  1  0  0  0  0
 32 71  1  0  0  0  0
 32 77  2  0  0  0  0
 33 54  1  0  0  0  0
 33 69  1  0  0  0  0
 33 78  2  0  0  0  0
 34 60  1  0  0  0  0
 34 70  1  0  0  0  0
 34 79  2  0  0  0  0
 35 38  1  0  0  0  0
 36 45  1  0  0  0  0
 37 64  1  0  0  0  0
 38 40  1  0  0  0  0
 39 41  1  0  0  0  0
 39 42  1  0  0  0  0
 40 44  1  0  0  0  0
 41 46  1  0  0  0  0
 42 65  1  0  0  0  0
 43 46  1  0  0  0  0
 43 65  1  0  0  0  0
 44 68  1  0  0  0  0
 45 64  1  0  0  0  0
 46 63  1  0  0  0  0
 47 60  1  0  0  0  0
 48 61  1  0  0  0  0
 49 61  1  0  0  0  0
 50 61  1  0  0  0  0
 51 71  1  0  0  0  0
 52 72  1  0  0  0  0
 54 81  1  0  0  0  0
 55 56  1  0  0  0  0
 55 57  1  0  0  0  0
 56 58  1  0  0  0  0
 57 69  1  0  0  0  0
 58 71  1  0  0  0  0
 59 61  1  0  0  0  0
 59 70  1  0  0  0  0
 60 72  1  0  0  0  0
 62 63  1  0  0  0  0
M  CHG  1  72   1
M  ISO  4  30 100  53 100  54 101  81 101
M  END
> <Batch ID>
0014

> <Smiles>
CNC(C)C(=O)NC(C(=O)N1Cc2cc([101O:1][101CH2:1]C(=O)NCCCCN(C)C(=O)[100CH2:0][100C:0](=O)N3CCCC(n4nc(-c5ccc(Oc6ccc(F)cc6F)cc5)c(C(N)=O)c4N)C3)ccc2CC1C(=O)NC1CCCc2ccccc21)C(C)(C)C

> <Shape>
0.223

> <Color>
0.110

> <Negative vol penalty>
0.000

$$$$

  -OEChem-04052315533D

 80 88  0     1  0  0  0  0  0999 V2000
  -31.0374  -33.5898   19.5371 C   0  0  0  0  0  0  0  0  0  0  0  0
  -31.6858  -32.3632   19.6389 C   0  0  0  0  0  0  0  0  0  0  0  0
  -23.0864   -9.7266   19.9739 C   0  0  0  0  0  0  0  0  0  0  0  0
  -23.8126   -9.8206   22.2762 C   0  0  0  0  0  0  0  0  0  0  0  0
  -29.6516  -33.6580   19.6747 C   0  0  0  0  0  0  0  0  0  0  0  0
  -30.9488  -31.2041   19.8796 C   0  0  0  0  0  0  0  0  0  0  0  0
  -30.9130  -24.1992   18.3810 C   0  0  0  0  0  0  0  0  0  0  0  0
  -22.3564   -8.5709   20.2513 C   0  0  0  0  0  0  0  0  0  0  0  0
  -23.0826   -8.6649   22.5537 C   0  0  0  0  0  0  0  0  0  0  0  0
  -30.8366  -22.9617   19.0186 C   0  0  0  0  0  0  0  0  0  0  0  0
  -19.8583   -7.8374   23.1367 C   0  0  0  0  0  0  0  0  0  0  0  0
  -19.0851   -7.8242   24.2975 C   0  0  0  0  0  0  0  0  0  0  0  0
  -28.4392  -23.1894   19.1602 C   0  0  0  0  0  0  0  0  0  0  0  0
  -20.3446   -5.9314   25.1150 C   0  0  0  0  0  0  0  0  0  0  0  0
  -23.8146  -10.3515   20.9863 C   0  0  0  0  0  0  0  0  0  0  0  0
  -24.1202  -12.8763   20.7878 C   0  0  0  0  0  0  0  0  0  0  0  0
  -28.8963  -32.4979   19.9076 C   0  0  0  0  0  0  0  0  0  0  0  0
  -29.7521  -24.9473   18.1375 C   0  0  0  0  0  0  0  0  0  0  0  0
  -29.5518  -31.2571   20.0219 C   0  0  0  0  0  0  0  0  0  0  0  0
  -28.5033  -24.4349   18.5170 C   0  0  0  0  0  0  0  0  0  0  0  0
  -30.4681  -17.9584   20.3444 C   0  0  0  0  0  0  0  0  0  0  0  0
  -22.3544   -8.0401   21.5412 C   0  0  0  0  0  0  0  0  0  0  0  0
  -29.5999  -22.4580   19.4109 C   0  0  0  0  0  0  0  0  0  0  0  0
  -20.8747   -6.8975   22.9650 C   0  0  0  0  0  0  0  0  0  0  0  0
  -19.3282   -6.8712   25.2867 C   0  0  0  0  0  0  0  0  0  0  0  0
  -21.1178   -5.9446   23.9541 C   0  0  0  0  0  0  0  0  0  0  0  0
  -24.5694  -11.5450   20.7003 C   0  0  0  0  0  0  0  0  0  0  0  0
  -30.4527  -19.2425   20.9211 C   0  0  0  0  0  0  0  0  0  0  0  0
  -25.2061  -13.6303   20.4154 C   0  0  0  0  0  0  0  0  0  0  0  0
  -30.1292  -17.1153   21.3744 C   0  0  0  0  0  0  0  0  0  0  0  0
  -22.8361  -13.3859   21.1715 C   0  0  0  0  0  0  0  0  0  0  0  0
  -28.6858  -27.7969   19.0577 C   0  0  0  0  0  0  0  0  0  0  0  0
  -26.2943  -27.1444   16.9655 C   0  0  0  0  0  0  0  0  0  0  0  0
  -24.4814  -24.7966   15.2780 C   0  0  0  0  0  0  0  0  0  0  0  0
  -30.6529  -14.7655   20.6325 C   0  0  0  0  0  0  0  0  0  0  0  0
  -27.4056  -32.6280   20.0965 C   0  0  0  0  0  0  0  0  0  0  0  0
  -29.8488  -26.2683   17.4247 C   0  0  0  0  0  0  0  0  0  0  0  0
  -27.2253  -25.1896   18.2605 C   0  0  0  0  0  0  0  0  0  0  0  0
  -26.6586  -31.3021   19.9772 C   0  0  0  0  0  0  0  0  0  0  0  0
  -29.6095  -12.2585   18.3296 C   0  0  0  0  0  0  0  0  0  0  0  0
  -27.3647  -30.2170   20.7839 C   0  0  0  0  0  0  0  0  0  0  0  0
  -28.1683  -11.9589   18.7483 C   0  0  0  0  0  0  0  0  0  0  0  0
  -30.5035  -12.5406   19.5358 C   0  0  0  0  0  0  0  0  0  0  0  0
  -28.5659  -13.2804   20.8655 C   0  0  0  0  0  0  0  0  0  0  0  0
  -28.7845  -29.9742   20.2577 C   0  0  1  0  0  0  0  0  0  0  0  0
  -28.6534  -27.1786   17.6886 C   0  0  1  0  0  0  0  0  0  0  0  0
  -27.6131  -13.0536   19.6805 C   0  0  2  0  0  0  0  0  0  0  0  0
  -30.7783  -17.5993   18.9491 C   0  0  0  0  0  0  0  0  0  0  0  0
  -28.0888  -17.1645   23.9028 C   0  0  0  0  0  0  0  0  0  0  0  0
  -22.5675  -24.5658   13.6714 C   0  0  0  0  0  0  0  0  0  0  0  0
  -24.3285  -27.7072   19.2303 C   0  0  0  0  0  0  0  0  0  0  0  0
  -22.5555  -26.5642   17.8819 C   0  0  0  0  0  0  0  0  0  0  0  0
  -23.6494  -28.6281   17.0065 C   0  0  0  0  0  0  0  0  0  0  0  0
  -26.1976  -23.5123   13.2373 C   0  0  0  0  0  0  0  0  0  0  0  0
  -30.7482  -20.5537   20.2543 C   0  0  0  0  0  0  0  0  0  1  0  0
  -29.5671  -17.4969   23.7955 C   0  0  0  0  0  0  0  0  0  0  0  0
  -24.9511  -26.4613   17.0563 C   0  0  1  0  0  0  0  0  0  0  0  0
  -24.0756  -24.6946   13.8187 C   0  0  2  0  0  0  0  0  0  0  0  0
  -23.8952  -27.3266   17.8004 C   0  0  0  0  0  0  0  0  0  0  0  0
  -25.8415  -11.4551   20.3032 N   0  0  0  0  0  0  0  0  0  0  0  0
  -30.1294  -19.2219   22.2169 N   0  0  0  0  0  0  0  0  0  0  0  0
  -26.2009  -12.7395   20.1379 N   0  0  0  0  0  0  0  0  0  0  0  0
  -29.9385  -17.9146   22.4629 N   0  0  0  0  0  0  0  0  0  0  0  0
  -27.3726  -26.4794   17.5661 N   0  0  0  0  0  0  0  0  0  0  0  0
  -29.9164  -13.5909   20.3708 N   0  0  0  0  0  0  0  0  0  0  0  0
  -25.3976  -14.9618   20.3014 N   0  0  0  0  0  0  0  0  0  0  0  0
  -21.8332  -12.4727   21.5244 N   0  0  0  0  0  0  0  0  0  0  0  0
  -29.9799  -15.7067   21.4108 N   0  0  0  0  0  0  0  0  0  0  0  0
  -28.7466  -29.1773   19.0503 N   0  0  0  0  0  0  0  0  0  0  0  0
  -24.5794  -26.1087   15.6903 N   0  0  0  0  0  0  0  0  0  0  0  0
  -24.7129  -23.5054   13.1857 N   0  3  0  0  0  0  0  0  0  0  0  0
  -22.5806  -14.6139   21.1849 O   0  0  0  0  0  0  0  0  0  0  0  0
  -28.6562  -27.0750   20.0475 O   0  0  0  0  0  0  0  0  0  0  0  0
  -26.3847  -28.2248   16.3770 O   0  0  0  0  0  0  0  0  0  0  0  0
  -24.6870  -23.8108   15.9826 O   0  0  0  0  0  0  0  0  0  0  0  0
  -31.7861  -14.9363   20.1755 O   0  0  0  0  0  0  0  0  0  0  0  0
  -21.6420   -6.9125   21.8123 O   0  0  0  0  0  0  0  0  0  0  0  0
  -29.5226  -21.2507   20.0341 O   0  0  0  0  0  0  0  0  0  1  0  0
  -18.5865   -6.8596   26.4020 F   0  0  0  0  0  0  0  0  0  0  0  0
  -22.0936   -5.0399   23.7953 F   0  0  0  0  0  0  0  0  0  0  0  0
  1  2  1  0  0  0  0
  1  5  2  0  0  0  0
  2  6  2  0  0  0  0
  3  8  2  0  0  0  0
  3 15  1  0  0  0  0
  4  9  1  0  0  0  0
  4 15  2  0  0  0  0
  5 17  1  0  0  0  0
  6 19  1  0  0  0  0
  7 10  2  0  0  0  0
  7 18  1  0  0  0  0
  8 22  1  0  0  0  0
  9 22  2  0  0  0  0
 10 23  1  0  0  0  0
 11 12  2  0  0  0  0
 11 24  1  0  0  0  0
 12 25  1  0  0  0  0
 13 20  1  0  0  0  0
 13 23  2  0  0  0  0
 14 25  2  0  0  0  0
 14 26  1  0  0  0  0
 15 27  1  0  0  0  0
 16 27  1  0  0  0  0
 16 29  2  0  0  0  0
 16 31  1  0  0  0  0
 17 19  2  0  0  0  0
 17 36  1  0  0  0  0
 18 20  2  0  0  0  0
 18 37  1  0  0  0  0
 19 45  1  0  0  0  0
 20 38  1  0  0  0  0
 21 28  1  0  0  0  0
 21 30  2  0  0  0  0
 21 48  1  0  0  0  0
 22 77  1  0  0  0  0
 23 78  1  0  0  0  0
 24 26  2  0  0  0  0
 24 77  1  0  0  0  0
 25 79  1  0  0  0  0
 26 80  1  0  0  0  0
 27 60  2  0  0  0  0
 28 55  1  0  0  0  0
 28 61  2  0  0  0  0
 29 62  1  0  0  0  0
 29 66  1  0  0  0  0
 30 63  1  0  0  0  0
 30 68  1  0  0  0  0
 31 67  1  0  0  0  0
 31 72  2  0  0  0  0
 32 46  1  0  0  0  0
 32 69  1  0  0  0  0
 32 73  2  0  0  0  0
 33 57  1  0  0  0  0
 33 64  1  0  0  0  0
 33 74  2  0  0  0  0
 34 58  1  0  0  0  0
 34 70  1  0  0  0  0
 34 75  2  0  0  0  0
 35 65  1  0  0  0  0
 35 68  1  0  0  0  0
 35 76  2  0  0  0  0
 36 39  1  0  0  0  0
 37 46  1  0  0  0  0
 38 64  1  0  0  0  0
 39 41  1  0  0  0  0
 40 42  1  0  0  0  0
 40 43  1  0  0  0  0
 41 45  1  0  0  0  0
 42 47  1  0  0  0  0
 43 65  1  0  0  0  0
 44 47  1  0  0  0  0
 44 65  1  0  0  0  0
 45 69  1  0  0  0  0
 46 64  1  0  0  0  0
 47 62  1  0  0  0  0
 49 56  1  0  0  0  0
 50 58  1  0  0  0  0
 51 59  1  0  0  0  0
 52 59  1  0  0  0  0
 53 59  1  0  0  0  0
 54 71  1  0  0  0  0
 55 78  1  0  0  0  0
 56 63  1  0  0  0  0
 57 59  1  0  0  0  0
 57 70  1  0  0  0  0
 58 71  1  0  0  0  0
 60 62  1  0  0  0  0
 61 63  1  0  0  0  0
M  CHG  1  71   1
M  ISO  4  35 100  55 101  68 100  78 101
M  END
> <Batch ID>
0014

> <Smiles>
CCn1nc([101CH2:1][101O:1]c2ccc3c(c2)CN(C(=O)C(NC(=O)C(C)NC)C(C)(C)C)C(C(=O)NC2CCCc4ccccc42)C3)c(C)c1[100NH:0][100C:0](=O)N1CCCC(n2nc(-c3ccc(Oc4ccc(F)cc4F)cc3)c(C(N)=O)c2N)C1

> <Shape>
0.275

> <Color>
0.228

> <Negative vol penalty>
0.000

$$$$

  -OEChem-04052315533D

 86 94  0     1  0  0  0  0  0999 V2000
  -24.9849  -32.3102   29.3368 C   0  0  0  0  0  0  0  0  0  0  0  0
  -25.6193  -31.0732   29.3894 C   0  0  0  0  0  0  0  0  0  0  0  0
  -23.0772   -9.8626   19.9472 C   0  0  0  0  0  0  0  0  0  0  0  0
  -23.8288   -9.8839   22.2432 C   0  0  0  0  0  0  0  0  0  0  0  0
  -24.8240  -32.9583   28.1129 C   0  0  0  0  0  0  0  0  0  0  0  0
  -26.0923  -30.4831   28.2179 C   0  0  0  0  0  0  0  0  0  0  0  0
  -31.1168  -27.0366   27.6006 C   0  0  0  0  0  0  0  0  0  0  0  0
  -22.3329   -8.7107   20.2015 C   0  0  0  0  0  0  0  0  0  0  0  0
  -23.0844   -8.7320   22.4975 C   0  0  0  0  0  0  0  0  0  0  0  0
  -31.3077  -25.6563   27.5552 C   0  0  0  0  0  0  0  0  0  0  0  0
  -20.5201   -5.5586   20.1557 C   0  0  0  0  0  0  0  0  0  0  0  0
  -20.5872   -4.5226   19.2243 C   0  0  0  0  0  0  0  0  0  0  0  0
  -31.2890  -25.7389   25.1444 C   0  0  0  0  0  0  0  0  0  0  0  0
  -32.0552  -16.5946   22.5200 C   0  0  0  0  0  0  0  0  0  0  0  0
  -22.9708   -4.3555   19.5817 C   0  0  0  0  0  0  0  0  0  0  0  0
  -23.8252  -10.4492   20.9680 C   0  0  0  0  0  0  0  0  0  0  0  0
  -24.1665  -12.9737   20.8339 C   0  0  0  0  0  0  0  0  0  0  0  0
  -25.3038  -32.3803   26.9270 C   0  0  0  0  0  0  0  0  0  0  0  0
  -30.9995  -27.7782   26.4162 C   0  0  0  0  0  0  0  0  0  0  0  0
  -25.9365  -31.1235   26.9768 C   0  0  0  0  0  0  0  0  0  0  0  0
  -31.0993  -27.1289   25.1774 C   0  0  0  0  0  0  0  0  0  0  0  0
  -30.5185  -18.3683   24.0283 C   0  0  0  0  0  0  0  0  0  0  0  0
  -30.6670  -16.6041   22.3843 C   0  0  0  0  0  0  0  0  0  0  0  0
  -22.3364   -8.1454   21.4766 C   0  0  0  0  0  0  0  0  0  0  0  0
  -31.3910  -25.0068   26.3271 C   0  0  0  0  0  0  0  0  0  0  0  0
  -21.6784   -5.9933   20.8001 C   0  0  0  0  0  0  0  0  0  0  0  0
  -21.8125   -3.9210   18.9373 C   0  0  0  0  0  0  0  0  0  0  0  0
  -32.6751  -17.4718   23.4099 C   0  0  0  0  0  0  0  0  0  0  0  0
  -22.9037   -5.3917   20.5131 C   0  0  0  0  0  0  0  0  0  0  0  0
  -31.9067  -18.3587   24.1640 C   0  0  0  0  0  0  0  0  0  0  0  0
  -29.8987  -17.4910   23.1384 C   0  0  0  0  0  0  0  0  0  0  0  0
  -24.5947  -11.6388   20.7058 C   0  0  0  0  0  0  0  0  0  0  0  0
  -25.2596  -13.7214   20.4700 C   0  0  0  0  0  0  0  0  0  0  0  0
  -22.8943  -13.4915   21.2450 C   0  0  0  0  0  0  0  0  0  0  0  0
  -28.7266  -29.5773   25.1120 C   0  0  0  0  0  0  0  0  0  0  0  0
  -31.0327  -30.2174   22.9224 C   0  0  0  0  0  0  0  0  0  0  0  0
  -30.6590  -21.5546   25.5672 C   0  0  0  0  0  0  0  0  0  0  0  0
  -33.9187  -29.2414   21.3846 C   0  0  0  0  0  0  0  0  0  0  0  0
  -30.7248  -14.7703   20.6580 C   0  0  0  0  0  0  0  0  0  0  0  0
  -25.0646  -33.0969   25.6216 C   0  0  0  0  0  0  0  0  0  0  0  0
  -30.8206  -29.2702   26.4820 C   0  0  0  0  0  0  0  0  0  0  0  0
  -30.9999  -27.8822   23.8770 C   0  0  0  0  0  0  0  0  0  0  0  0
  -25.9274  -32.5773   24.4745 C   0  0  0  0  0  0  0  0  0  0  0  0
  -29.6198  -12.3416   18.3005 C   0  0  0  0  0  0  0  0  0  0  0  0
  -25.9065  -31.0524   24.4391 C   0  0  0  0  0  0  0  0  0  0  0  0
  -28.1788  -12.0521   18.7266 C   0  0  0  0  0  0  0  0  0  0  0  0
  -30.5305  -12.5781   19.5040 C   0  0  0  0  0  0  0  0  0  0  0  0
  -28.6183  -13.3102   20.8739 C   0  0  0  0  0  0  0  0  0  0  0  0
  -26.4852  -30.4626   25.7309 C   0  0  1  0  0  0  0  0  0  0  0  0
  -30.1998  -29.8539   25.2166 C   0  0  1  0  0  0  0  0  0  0  0  0
  -27.6498  -13.1294   19.6937 C   0  0  2  0  0  0  0  0  0  0  0  0
  -35.5430  -29.9537   19.6093 C   0  0  0  0  0  0  0  0  0  0  0  0
  -29.0484  -29.3633   20.7676 C   0  0  0  0  0  0  0  0  0  0  0  0
  -30.9678  -29.1813   19.1705 C   0  0  0  0  0  0  0  0  0  0  0  0
  -30.4045  -31.3850   20.1947 C   0  0  0  0  0  0  0  0  0  0  0  0
  -29.8862  -21.1758   23.2195 C   0  0  0  0  0  0  0  0  0  0  0  0
  -36.1543  -29.3732   23.3195 C   0  0  0  0  0  0  0  0  0  0  0  0
  -29.7304  -19.3415   24.8565 C   0  0  0  0  0  0  0  0  0  0  0  0
  -31.0250  -22.9666   25.1610 C   0  0  0  0  0  0  0  0  0  1  0  0
  -31.4743  -29.5925   21.6210 C   0  0  1  0  0  0  0  0  0  0  0  0
  -35.2069  -29.9894   21.0920 C   0  0  2  0  0  0  0  0  0  0  0  0
  -30.4737  -29.8658   20.4628 C   0  0  0  0  0  0  0  0  0  0  0  0
  -25.8611  -11.5409   20.2927 N   0  0  0  0  0  0  0  0  0  0  0  0
  -26.2380  -12.8239   20.1579 N   0  0  0  0  0  0  0  0  0  0  0  0
  -30.8189  -29.3386   23.9938 N   0  0  0  0  0  0  0  0  0  0  0  0
  -29.9680  -13.6140   20.3731 N   0  0  0  0  0  0  0  0  0  0  0  0
  -25.4698  -15.0525   20.3896 N   0  0  0  0  0  0  0  0  0  0  0  0
  -21.8815  -12.5840   21.5842 N   0  0  0  0  0  0  0  0  0  0  0  0
  -30.0741  -15.7000   21.4684 N   0  0  0  0  0  0  0  0  0  0  0  0
  -27.9306  -30.5323   25.7152 N   0  0  0  0  0  0  0  0  0  0  0  0
  -32.8258  -30.0819   21.3711 N   0  0  0  0  0  0  0  0  0  0  0  0
  -30.1140  -20.7248   24.5869 N   0  0  0  0  0  0  0  0  0  0  0  0
  -36.3406  -29.3829   21.8456 N   0  3  0  0  0  0  0  0  0  0  0  0
  -22.6574  -14.7224   21.2940 O   0  0  0  0  0  0  0  0  0  0  0  0
  -28.3406  -28.5725   24.5262 O   0  0  0  0  0  0  0  0  0  0  0  0
  -30.8898  -31.4409   22.9879 O   0  0  0  0  0  0  0  0  0  0  0  0
  -30.8632  -21.2008   26.7326 O   0  0  0  0  0  0  0  0  0  0  0  0
  -33.8850  -28.0318   21.5995 O   0  0  0  0  0  0  0  0  0  0  0  0
  -31.8555  -14.9366   20.1935 O   0  0  0  0  0  0  0  0  0  0  0  0
  -21.6101   -7.0215   21.7252 O   0  0  0  0  0  0  0  0  0  0  0  0
  -31.5766  -23.6595   26.2800 O   0  0  0  0  0  0  0  0  0  1  0  0
  -21.8765   -2.9250   18.0440 F   0  0  0  0  0  0  0  0  0  0  0  0
  -34.0082  -17.4642   23.5391 F   0  0  0  0  0  0  0  0  0  0  0  0
  -24.0197   -5.8041   21.1299 F   0  0  0  0  0  0  0  0  0  0  0  0
  -32.5131  -19.1981   25.0153 F   0  0  0  0  0  0  0  0  0  0  0  0
  -28.1730  -17.5080   22.9721 Cl  0  0  0  0  0  0  0  0  0  0  0  0
  1  2  1  0  0  0  0
  1  5  2  0  0  0  0
  2  6  2  0  0  0  0
  3  8  2  0  0  0  0
  3 16  1  0  0  0  0
  4  9  1  0  0  0  0
  4 16  2  0  0  0  0
  5 18  1  0  0  0  0
  6 20  1  0  0  0  0
  7 10  2  0  0  0  0
  7 19  1  0  0  0  0
  8 24  1  0  0  0  0
  9 24  2  0  0  0  0
 10 25  1  0  0  0  0
 11 12  2  0  0  0  0
 11 26  1  0  0  0  0
 12 27  1  0  0  0  0
 13 21  1  0  0  0  0
 13 25  2  0  0  0  0
 14 23  2  0  0  0  0
 14 28  1  0  0  0  0
 15 27  2  0  0  0  0
 15 29  1  0  0  0  0
 16 32  1  0  0  0  0
 17 32  1  0  0  0  0
 17 33  2  0  0  0  0
 17 34  1  0  0  0  0
 18 20  2  0  0  0  0
 18 40  1  0  0  0  0
 19 21  2  0  0  0  0
 19 41  1  0  0  0  0
 20 49  1  0  0  0  0
 21 42  1  0  0  0  0
 22 30  1  0  0  0  0
 22 31  2  0  0  0  0
 22 58  1  0  0  0  0
 23 31  1  0  0  0  0
 23 69  1  0  0  0  0
 24 80  1  0  0  0  0
 25 81  1  0  0  0  0
 26 29  2  0  0  0  0
 26 80  1  0  0  0  0
 27 82  1  0  0  0  0
 28 30  2  0  0  0  0
 28 83  1  0  0  0  0
 29 84  1  0  0  0  0
 30 85  1  0  0  0  0
 31 86  1  0  0  0  0
 32 63  2  0  0  0  0
 33 64  1  0  0  0  0
 33 67  1  0  0  0  0
 34 68  1  0  0  0  0
 34 74  2  0  0  0  0
 35 50  1  0  0  0  0
 35 70  1  0  0  0  0
 35 75  2  0  0  0  0
 36 60  1  0  0  0  0
 36 65  1  0  0  0  0
 36 76  2  0  0  0  0
 37 59  1  0  0  0  0
 37 72  1  0  0  0  0
 37 77  2  0  0  0  0
 38 61  1  0  0  0  0
 38 71  1  0  0  0  0
 38 78  2  0  0  0  0
 39 66  1  0  0  0  0
 39 69  1  0  0  0  0
 39 79  2  0  0  0  0
 40 43  1  0  0  0  0
 41 50  1  0  0  0  0
 42 65  1  0  0  0  0
 43 45  1  0  0  0  0
 44 46  1  0  0  0  0
 44 47  1  0  0  0  0
 45 49  1  0  0  0  0
 46 51  1  0  0  0  0
 47 66  1  0  0  0  0
 48 51  1  0  0  0  0
 48 66  1  0  0  0  0
 49 70  1  0  0  0  0
 50 65  1  0  0  0  0
 51 64  1  0  0  0  0
 52 61  1  0  0  0  0
 53 62  1  0  0  0  0
 54 62  1  0  0  0  0
 55 62  1  0  0  0  0
 56 72  1  0  0  0  0
 57 73  1  0  0  0  0
 58 72  1  0  0  0  0
 59 81  1  0  0  0  0
 60 62  1  0  0  0  0
 60 71  1  0  0  0  0
 61 73  1  0  0  0  0
 63 64  1  0  0  0  0
M  CHG  1  73   1
M  ISO  4  39 100  59 101  69 100  81 101
M  END
> <Batch ID>
0014

> <Smiles>
CNC(C)C(=O)NC(C(=O)N1Cc2cc([101O:1][101CH2:1]C(=O)N(C)Cc3c(F)c(F)cc([100NH:0][100C:0](=O)N4CCCC(n5nc(-c6ccc(Oc7ccc(F)cc7F)cc6)c(C(N)=O)c5N)C4)c3Cl)ccc2CC1C(=O)NC1CCCc2ccccc21)C(C)(C)C

> <Shape>
0.208

> <Color>
0.196

> <Negative vol penalty>
0.000

$$$$

  -OEChem-04052315533D

 92101  0     1  0  0  0  0  0999 V2000
  -28.3426  -36.7022   22.2931 C   0  0  0  0  0  0  0  0  0  0  0  0
  -28.3255  -35.7997   23.3517 C   0  0  0  0  0  0  0  0  0  0  0  0
  -23.4779   -9.7218   19.9457 C   0  0  0  0  0  0  0  0  0  0  0  0
  -23.7839  -10.0267   22.3227 C   0  0  0  0  0  0  0  0  0  0  0  0
  -27.2796  -36.7377   21.3917 C   0  0  0  0  0  0  0  0  0  0  0  0
  -27.2447  -34.9329   23.5101 C   0  0  0  0  0  0  0  0  0  0  0  0
  -28.1905  -27.7917   23.5308 C   0  0  0  0  0  0  0  0  0  0  0  0
  -22.8273   -8.5113   20.1847 C   0  0  0  0  0  0  0  0  0  0  0  0
  -23.1333   -8.8162   22.5618 C   0  0  0  0  0  0  0  0  0  0  0  0
  -28.3165  -26.4208   23.7567 C   0  0  0  0  0  0  0  0  0  0  0  0
  -19.9533   -7.6773   22.6643 C   0  0  0  0  0  0  0  0  0  0  0  0
  -18.9967   -7.6467   23.6789 C   0  0  0  0  0  0  0  0  0  0  0  0
  -25.9138  -26.2201   23.9437 C   0  0  0  0  0  0  0  0  0  0  0  0
  -28.8234  -22.8469   21.1717 C   0  0  0  0  0  0  0  0  0  0  0  0
  -20.2752   -5.9527   24.8334 C   0  0  0  0  0  0  0  0  0  0  0  0
  -23.9562  -10.4795   21.0147 C   0  0  0  0  0  0  0  0  0  0  0  0
  -24.0434  -13.0069   20.6801 C   0  0  0  0  0  0  0  0  0  0  0  0
  -26.1897  -35.8643   21.5335 C   0  0  0  0  0  0  0  0  0  0  0  0
  -26.9233  -28.3800   23.4952 C   0  0  0  0  0  0  0  0  0  0  0  0
  -26.1655  -34.9577   22.6104 C   0  0  0  0  0  0  0  0  0  0  0  0
  -25.7807  -27.5906   23.7055 C   0  0  0  0  0  0  0  0  0  0  0  0
  -29.9096  -22.1676   21.7234 C   0  0  0  0  0  0  0  0  0  0  0  0
  -22.6550   -8.0585   21.4927 C   0  0  0  0  0  0  0  0  0  0  0  0
  -27.1809  -25.6370   23.9628 C   0  0  0  0  0  0  0  0  0  0  0  0
  -21.0708   -6.8455   22.7341 C   0  0  0  0  0  0  0  0  0  0  0  0
  -28.1642  -23.5833   23.3762 C   0  0  0  0  0  0  0  0  0  1  0  0
  -19.1576   -6.7845   24.7635 C   0  0  0  0  0  0  0  0  0  0  0  0
  -27.9507  -23.5548   21.9981 C   0  0  0  0  0  0  0  0  0  0  0  0
  -21.2318   -5.9832   23.8186 C   0  0  0  0  0  0  0  0  0  0  0  0
  -30.1231  -22.1962   23.1015 C   0  0  0  0  0  0  0  0  0  0  0  0
  -29.2504  -22.9041   23.9279 C   0  0  0  0  0  0  0  0  0  0  0  0
  -24.6288  -11.7297   20.7684 C   0  0  0  0  0  0  0  0  0  0  0  0
  -25.0984  -13.8521   20.4367 C   0  0  0  0  0  0  0  0  0  0  0  0
  -22.6689  -13.3948   20.8068 C   0  0  0  0  0  0  0  0  0  0  0  0
  -24.9063  -31.5102   23.0371 C   0  0  0  0  0  0  0  0  0  0  0  0
  -31.5247  -22.3018   19.7977 C   0  0  0  0  0  0  0  0  0  0  0  0
  -23.4001  -29.2606   21.5946 C   0  0  0  0  0  0  0  0  0  0  0  0
  -22.2735  -26.6031   19.7764 C   0  0  0  0  0  0  0  0  0  0  0  0
  -30.3799  -15.2953   21.9803 C   0  0  0  0  0  0  0  0  0  0  0  0
  -25.0417  -35.9722   20.5613 C   0  0  0  0  0  0  0  0  0  0  0  0
  -26.7436  -29.8631   23.3164 C   0  0  0  0  0  0  0  0  0  0  0  0
  -24.4399  -28.2724   23.6929 C   0  0  0  0  0  0  0  0  0  0  0  0
  -24.1095  -34.7636   20.5831 C   0  0  0  0  0  0  0  0  0  0  0  0
  -29.8972  -12.8880   19.2031 C   0  0  0  0  0  0  0  0  0  0  0  0
  -23.7647  -34.3811   22.0190 C   0  0  0  0  0  0  0  0  0  0  0  0
  -28.4559  -12.4272   19.4126 C   0  0  0  0  0  0  0  0  0  0  0  0
  -30.8174  -18.7369   21.9626 C   0  0  0  0  0  0  0  0  0  0  0  0
  -29.0191  -18.0844   20.3125 C   0  0  0  0  0  0  0  0  0  0  0  0
  -30.5504  -13.3183   20.5127 C   0  0  0  0  0  0  0  0  0  0  0  0
  -30.3468  -17.6056   22.8728 C   0  0  0  0  0  0  0  0  0  0  0  0
  -28.6000  -16.9454   21.2466 C   0  0  0  0  0  0  0  0  0  0  0  0
  -28.3408  -13.8980   21.4633 C   0  0  0  0  0  0  0  0  0  0  0  0
  -25.0225  -33.9844   22.8013 C   0  0  1  0  0  0  0  0  0  0  0  0
  -25.4803  -30.2258   22.5154 C   0  0  1  0  0  0  0  0  0  0  0  0
  -27.6407  -13.4998   20.1552 C   0  0  2  0  0  0  0  0  0  0  0  0
  -29.6616  -19.2287   21.0937 C   0  0  0  0  0  0  0  0  0  0  0  0
  -20.4205  -25.9191   18.2286 C   0  0  0  0  0  0  0  0  0  0  0  0
  -21.5022  -29.0360   23.9718 C   0  0  0  0  0  0  0  0  0  0  0  0
  -20.0725  -27.5095   22.5956 C   0  0  0  0  0  0  0  0  0  0  0  0
  -20.4416  -29.8657   21.8644 C   0  0  0  0  0  0  0  0  0  0  0  0
  -24.1652  -26.0514   17.5682 C   0  0  0  0  0  0  0  0  0  0  0  0
  -29.1077  -20.7253   19.1822 C   0  0  0  0  0  0  0  0  0  0  0  0
  -32.3960  -23.4086   20.3574 C   0  0  0  0  0  0  0  0  0  0  0  0
  -30.8516  -21.3999   20.8266 C   0  0  2  0  0  0  0  0  0  0  0  0
  -22.3328  -28.1986   21.6752 C   0  0  1  0  0  0  0  0  0  0  0  0
  -21.8270  -26.4886   18.3301 C   0  0  2  0  0  0  0  0  0  0  0  0
  -21.1147  -28.6464   22.5314 C   0  0  0  0  0  0  0  0  0  0  0  0
  -25.9529  -11.7563   20.5950 N   0  0  0  0  0  0  0  0  0  0  0  0
  -26.2083  -13.0605   20.3953 N   0  0  0  0  0  0  0  0  0  0  0  0
  -24.3823  -29.2472   22.5924 N   0  0  0  0  0  0  0  0  0  0  0  0
  -29.7346  -14.3028   21.2238 N   0  0  0  0  0  0  0  0  0  0  0  0
  -29.7239  -16.5299   22.0991 N   0  0  0  0  0  0  0  0  0  0  0  0
  -25.1757  -15.1877   20.2561 N   0  0  0  0  0  0  0  0  0  0  0  0
  -21.7142  -12.3996   21.0567 N   0  0  0  0  0  0  0  0  0  0  0  0
  -25.4352  -32.6429   22.4483 N   0  0  0  0  0  0  0  0  0  0  0  0
  -21.9995  -27.8495   20.2984 N   0  0  0  0  0  0  0  0  0  0  0  0
  -22.7505  -25.5980   17.5718 N   0  3  0  0  0  0  0  0  0  0  0  0
  -30.1720  -20.2439   20.1363 N   0  3  1  0  0  0  0  0  0  0  0  0
  -22.2963  -14.5864   20.6853 O   0  0  0  0  0  0  0  0  0  0  0  0
  -24.0456  -31.4773   23.9088 O   0  0  0  0  0  0  0  0  0  0  0  0
  -31.3457  -22.1418   18.5900 O   0  0  0  0  0  0  0  0  0  0  0  0
  -23.3632  -30.0843   20.6763 O   0  0  0  0  0  0  0  0  0  0  0  0
  -22.8083  -25.6779   20.3837 O   0  0  0  0  0  0  0  0  0  0  0  0
  -31.4768  -15.0899   22.5148 O   0  0  0  0  0  0  0  0  0  0  0  0
  -22.0201   -6.8775   21.7263 O   0  0  0  0  0  0  0  0  0  0  0  0
  -27.3131  -24.2750   24.1820 O   0  0  0  0  0  0  0  0  0  1  0  0
  -18.2397   -6.7564   25.7386 F   0  0  0  0  0  0  0  0  0  0  0  0
  -26.9092  -24.2062   21.4627 F   0  0  0  0  0  0  0  0  0  0  0  0
  -22.3040   -5.1826   23.8918 F   0  0  0  0  0  0  0  0  0  0  0  0
  -31.1636  -21.5462   23.6410 F   0  0  0  0  0  0  0  0  0  0  0  0
  -29.4602  -22.9267   25.2513 F   0  0  0  0  0  0  0  0  0  0  0  0
  -33.0963  -24.3726   19.0475 Cl  0  0  0  0  0  0  0  0  0  0  0  0
  1  2  1  0  0  0  0
  1  5  2  0  0  0  0
  2  6  2  0  0  0  0
  3  8  2  0  0  0  0
  3 16  1  0  0  0  0
  4  9  1  0  0  0  0
  4 16  2  0  0  0  0
  5 18  1  0  0  0  0
  6 20  1  0  0  0  0
  7 10  2  0  0  0  0
  7 19  1  0  0  0  0
  8 23  1  0  0  0  0
  9 23  2  0  0  0  0
 10 24  1  0  0  0  0
 11 12  2  0  0  0  0
 11 25  1  0  0  0  0
 12 27  1  0  0  0  0
 13 21  1  0  0  0  0
 13 24  2  0  0  0  0
 14 22  1  0  0  0  0
 14 28  2  0  0  0  0
 15 27  2  0  0  0  0
 15 29  1  0  0  0  0
 16 32  1  0  0  0  0
 17 32  1  0  0  0  0
 17 33  2  0  0  0  0
 17 34  1  0  0  0  0
 18 20  2  0  0  0  0
 18 40  1  0  0  0  0
 19 21  2  0  0  0  0
 19 41  1  0  0  0  0
 20 53  1  0  0  0  0
 21 42  1  0  0  0  0
 22 30  2  0  0  0  0
 22 64  1  0  0  0  0
 23 85  1  0  0  0  0
 24 86  1  0  0  0  0
 25 29  2  0  0  0  0
 25 85  1  0  0  0  0
 26 28  1  0  0  0  0
 26 31  2  0  0  0  0
 26 86  1  0  0  0  0
 27 87  1  0  0  0  0
 28 88  1  0  0  0  0
 29 89  1  0  0  0  0
 30 31  1  0  0  0  0
 30 90  1  0  0  0  0
 31 91  1  0  0  0  0
 32 68  2  0  0  0  0
 33 69  1  0  0  0  0
 33 73  1  0  0  0  0
 34 74  1  0  0  0  0
 34 79  2  0  0  0  0
 35 54  1  0  0  0  0
 35 75  1  0  0  0  0
 35 80  2  0  0  0  0
 36 63  1  0  0  0  0
 36 64  1  0  0  0  0
 36 81  2  0  0  0  0
 37 65  1  0  0  0  0
 37 70  1  0  0  0  0
 37 82  2  0  0  0  0
 38 66  1  0  0  0  0
 38 76  1  0  0  0  0
 38 83  2  0  0  0  0
 39 71  1  0  0  0  0
 39 72  1  0  0  0  0
 39 84  2  0  0  0  0
 40 43  1  0  0  0  0
 41 54  1  0  0  0  0
 42 70  1  0  0  0  0
 43 45  1  0  0  0  0
 44 46  1  0  0  0  0
 44 49  1  0  0  0  0
 45 53  1  0  0  0  0
 46 55  1  0  0  0  0
 47 50  1  0  0  0  0
 47 56  1  0  0  0  0
 48 51  1  0  0  0  0
 48 56  1  0  0  0  0
 49 71  1  0  0  0  0
 50 72  1  0  0  0  0
 51 72  1  0  0  0  0
 52 55  1  0  0  0  0
 52 71  1  0  0  0  0
 53 75  1  0  0  0  0
 54 70  1  0  0  0  0
 55 69  1  0  0  0  0
 56 78  1  0  0  0  0
 57 66  1  0  0  0  0
 58 67  1  0  0  0  0
 59 67  1  0  0  0  0
 60 67  1  0  0  0  0
 61 77  1  0  0  0  0
 62 78  1  0  0  0  0
 63 92  1  0  0  0  0
 64 78  1  0  0  0  0
 65 67  1  0  0  0  0
 65 76  1  0  0  0  0
 66 77  1  0  0  0  0
 68 69  1  0  0  0  0
M  CHG  2  77   1  78   1
M  ISO  4  26 101  39 100  72 100  86 101
M  END
> <Batch ID>
0014

> <Smiles>
CNC(C)C(=O)NC(C(=O)N1Cc2cc([101O:1][101c:1]3c(F)cc(C(C(=O)CCl)N(C)C4CC[100N:0]([100C:0](=O)N5CCCC(n6nc(-c7ccc(Oc8ccc(F)cc8F)cc7)c(C(N)=O)c6N)C5)CC4)c(F)c3F)ccc2CC1C(=O)NC1CCCc2ccccc21)C(C)(C)C

> <Shape>
0.308

> <Color>
0.159

> <Negative vol penalty>
0.000

$$$$

  -OEChem-04052315533D

 85 93  0     1  0  0  0  0  0999 V2000
  -17.2877  -25.9260   21.8185 C   0  0  0  0  0  0  0  0  0  0  0  0
  -18.5331  -25.8601   21.2018 C   0  0  0  0  0  0  0  0  0  0  0  0
  -22.1359  -12.0840   20.0497 C   0  0  0  0  0  0  0  0  0  0  0  0
  -22.2273  -13.5606   21.9598 C   0  0  0  0  0  0  0  0  0  0  0  0
  -17.0614  -26.8561   22.8322 C   0  0  0  0  0  0  0  0  0  0  0  0
  -19.5525  -26.7251   21.5979 C   0  0  0  0  0  0  0  0  0  0  0  0
  -23.9995  -24.3652   22.1457 C   0  0  0  0  0  0  0  0  0  0  0  0
  -21.1194  -11.3524   20.6639 C   0  0  0  0  0  0  0  0  0  0  0  0
  -21.2107  -12.8291   22.5739 C   0  0  0  0  0  0  0  0  0  0  0  0
  -24.7111  -24.0701   20.9837 C   0  0  0  0  0  0  0  0  0  0  0  0
  -20.9108   -9.9205   24.2713 C   0  0  0  0  0  0  0  0  0  0  0  0
  -21.0695   -9.5952   25.6183 C   0  0  0  0  0  0  0  0  0  0  0  0
  -26.1090  -26.0003   21.3568 C   0  0  0  0  0  0  0  0  0  0  0  0
  -31.3258  -18.9537   21.0001 C   0  0  0  0  0  0  0  0  0  0  0  0
  -19.0491  -10.8089   26.1494 C   0  0  0  0  0  0  0  0  0  0  0  0
  -22.6899  -13.1880   20.6977 C   0  0  0  0  0  0  0  0  0  0  0  0
  -23.5932  -15.0549   19.2123 C   0  0  0  0  0  0  0  0  0  0  0  0
  -18.0815  -27.7264   23.2474 C   0  0  0  0  0  0  0  0  0  0  0  0
  -24.3309  -25.4881   22.9174 C   0  0  0  0  0  0  0  0  0  0  0  0
  -19.3392  -27.6687   22.6171 C   0  0  0  0  0  0  0  0  0  0  0  0
  -25.4017  -26.3060   22.5296 C   0  0  0  0  0  0  0  0  0  0  0  0
  -31.8560  -20.1988   21.3383 C   0  0  0  0  0  0  0  0  0  0  0  0
  -29.8581  -21.2747   20.5088 C   0  0  0  0  0  0  0  0  0  0  0  0
  -30.0618  -18.8691   20.4163 C   0  0  0  0  0  0  0  0  0  0  0  0
  -20.6568  -11.7250   21.9259 C   0  0  0  0  0  0  0  0  0  0  0  0
  -25.7642  -24.8893   20.5875 C   0  0  0  0  0  0  0  0  0  0  0  0
  -19.8213  -10.6900   23.8633 C   0  0  0  0  0  0  0  0  0  0  0  0
  -20.1387  -10.0393   26.5574 C   0  0  0  0  0  0  0  0  0  0  0  0
  -18.8905  -11.1342   24.8023 C   0  0  0  0  0  0  0  0  0  0  0  0
  -31.1221  -21.3593   21.0926 C   0  0  0  0  0  0  0  0  0  0  0  0
  -29.3280  -20.0296   20.1706 C   0  0  0  0  0  0  0  0  0  0  0  0
  -23.7403  -13.9438   20.0641 C   0  0  0  0  0  0  0  0  0  0  0  0
  -24.8789  -15.4059   18.8805 C   0  0  0  0  0  0  0  0  0  0  0  0
  -22.4008  -15.7112   18.7614 C   0  0  0  0  0  0  0  0  0  0  0  0
  -22.8157  -28.1480   23.7736 C   0  0  0  0  0  0  0  0  0  0  0  0
  -28.5732  -24.0420   18.5031 C   0  0  0  0  0  0  0  0  0  0  0  0
  -25.4710  -28.6162   25.5770 C   0  0  0  0  0  0  0  0  0  0  0  0
  -28.7847  -27.9706   26.0768 C   0  0  0  0  0  0  0  0  0  0  0  0
  -30.1837  -16.3565   20.2801 C   0  0  0  0  0  0  0  0  0  0  0  0
  -17.7752  -28.7470   24.3148 C   0  0  0  0  0  0  0  0  0  0  0  0
  -23.5706  -25.7776   24.1826 C   0  0  0  0  0  0  0  0  0  0  0  0
  -25.8104  -27.5119   23.3340 C   0  0  0  0  0  0  0  0  0  0  0  0
  -19.0219  -29.3744   24.9333 C   0  0  0  0  0  0  0  0  0  0  0  0
  -29.2558  -12.9793   19.6396 C   0  0  0  0  0  0  0  0  0  0  0  0
  -20.0073  -29.7881   23.8449 C   0  0  0  0  0  0  0  0  0  0  0  0
  -27.7261  -13.0205   19.6229 C   0  0  0  0  0  0  0  0  0  0  0  0
  -29.8374  -13.9294   20.6850 C   0  0  0  0  0  0  0  0  0  0  0  0
  -27.8327  -15.3573   20.5794 C   0  0  0  0  0  0  0  0  0  0  0  0
  -20.4778  -28.5733   23.0359 C   0  0  1  0  0  0  0  0  0  0  0  0
  -23.6644  -27.2375   24.6153 C   0  0  1  0  0  0  0  0  0  0  0  0
  -27.2026  -14.4648   19.4977 C   0  0  2  0  0  0  0  0  0  0  0  0
  -33.2068  -20.2864   21.9645 C   0  0  0  0  0  0  0  0  0  0  0  0
  -28.6095  -24.4005   17.0368 C   0  0  0  0  0  0  0  0  0  0  0  0
  -30.6900  -28.5259   27.6126 C   0  0  0  0  0  0  0  0  0  0  0  0
  -25.7266  -31.3587   24.2644 C   0  0  0  0  0  0  0  0  0  0  0  0
  -28.0877  -31.4573   25.0914 C   0  0  0  0  0  0  0  0  0  0  0  0
  -26.2021  -31.3288   26.7195 C   0  0  0  0  0  0  0  0  0  0  0  0
  -29.1239  -25.1392   26.8685 C   0  0  0  0  0  0  0  0  0  0  0  0
  -29.1003  -22.5494   20.2636 C   0  0  0  0  0  0  0  0  0  0  0  0
  -27.8324  -24.9934   19.4181 C   0  0  0  0  0  0  0  0  0  1  0  0
  -26.8068  -29.2851   25.3595 C   0  0  1  0  0  0  0  0  0  0  0  0
  -29.5544  -27.5580   27.3184 C   0  0  2  0  0  0  0  0  0  0  0  0
  -26.6971  -30.8359   25.3423 C   0  0  0  0  0  0  0  0  0  0  0  0
  -25.0187  -13.6107   20.2610 N   0  0  0  0  0  0  0  0  0  0  0  0
  -29.1410  -22.9426   18.8652 N   0  0  0  0  0  0  0  0  0  0  0  0
  -25.6866  -14.5180   19.5282 N   0  0  0  0  0  0  0  0  0  0  0  0
  -25.0324  -27.7568   24.5597 N   0  0  0  0  0  0  0  0  0  0  0  0
  -29.2999  -15.2793   20.5019 N   0  0  0  0  0  0  0  0  0  0  0  0
  -25.3862  -16.3842   18.1008 N   0  0  0  0  0  0  0  0  0  0  0  0
  -21.1625  -15.2214   19.1984 N   0  0  0  0  0  0  0  0  0  0  0  0
  -29.5563  -17.5869   20.0874 N   0  0  0  0  0  0  0  0  0  0  0  0
  -21.4717  -27.8268   23.7770 N   0  0  0  0  0  0  0  0  0  0  0  0
  -27.6983  -28.7605   26.3883 N   0  0  0  0  0  0  0  0  0  0  0  0
  -30.1321  -26.1958   27.1410 N   0  3  0  0  0  0  0  0  0  0  0  0
  -22.4320  -16.6925   17.9807 O   0  0  0  0  0  0  0  0  0  0  0  0
  -23.3410  -29.0743   23.1672 O   0  0  0  0  0  0  0  0  0  0  0  0
  -24.8433  -28.8421   26.6146 O   0  0  0  0  0  0  0  0  0  0  0  0
  -29.1163  -27.6296   24.9435 O   0  0  0  0  0  0  0  0  0  0  0  0
  -31.4059  -16.1945   20.2352 O   0  0  0  0  0  0  0  0  0  0  0  0
  -19.6647  -11.0115   22.5254 O   0  0  0  0  0  0  0  0  0  0  0  0
  -26.4600  -24.6039   19.4534 O   0  0  0  0  0  0  0  0  0  1  0  0
  -20.2904   -9.7256   27.8507 F   0  0  0  0  0  0  0  0  0  0  0  0
  -17.8411  -11.8728   24.4162 F   0  0  0  0  0  0  0  0  0  0  0  0
  -31.6329  -22.5558   21.4196 F   0  0  0  0  0  0  0  0  0  0  0  0
  -27.7563  -19.9303   19.4456 Cl  0  0  0  0  0  0  0  0  0  0  0  0
  1  2  1  0  0  0  0
  1  5  2  0  0  0  0
  2  6  2  0  0  0  0
  3  8  2  0  0  0  0
  3 16  1  0  0  0  0
  4  9  1  0  0  0  0
  4 16  2  0  0  0  0
  5 18  1  0  0  0  0
  6 20  1  0  0  0  0
  7 10  2  0  0  0  0
  7 19  1  0  0  0  0
  8 25  1  0  0  0  0
  9 25  2  0  0  0  0
 10 26  1  0  0  0  0
 11 12  2  0  0  0  0
 11 27  1  0  0  0  0
 12 28  1  0  0  0  0
 13 21  1  0  0  0  0
 13 26  2  0  0  0  0
 14 22  1  0  0  0  0
 14 24  2  0  0  0  0
 15 28  2  0  0  0  0
 15 29  1  0  0  0  0
 16 32  1  0  0  0  0
 17 32  1  0  0  0  0
 17 33  2  0  0  0  0
 17 34  1  0  0  0  0
 18 20  2  0  0  0  0
 18 40  1  0  0  0  0
 19 21  2  0  0  0  0
 19 41  1  0  0  0  0
 20 49  1  0  0  0  0
 21 42  1  0  0  0  0
 22 30  2  0  0  0  0
 22 52  1  0  0  0  0
 23 30  1  0  0  0  0
 23 31  2  0  0  0  0
 23 59  1  0  0  0  0
 24 31  1  0  0  0  0
 24 71  1  0  0  0  0
 25 80  1  0  0  0  0
 26 81  1  0  0  0  0
 27 29  2  0  0  0  0
 27 80  1  0  0  0  0
 28 82  1  0  0  0  0
 29 83  1  0  0  0  0
 30 84  1  0  0  0  0
 31 85  1  0  0  0  0
 32 64  2  0  0  0  0
 33 66  1  0  0  0  0
 33 69  1  0  0  0  0
 34 70  1  0  0  0  0
 34 75  2  0  0  0  0
 35 50  1  0  0  0  0
 35 72  1  0  0  0  0
 35 76  2  0  0  0  0
 36 53  1  0  0  0  0
 36 60  1  0  0  0  0
 36 65  2  0  0  0  0
 37 61  1  0  0  0  0
 37 67  1  0  0  0  0
 37 77  2  0  0  0  0
 38 62  1  0  0  0  0
 38 73  1  0  0  0  0
 38 78  2  0  0  0  0
 39 68  1  0  0  0  0
 39 71  1  0  0  0  0
 39 79  2  0  0  0  0
 40 43  1  0  0  0  0
 41 50  1  0  0  0  0
 42 67  1  0  0  0  0
 43 45  1  0  0  0  0
 44 46  1  0  0  0  0
 44 47  1  0  0  0  0
 45 49  1  0  0  0  0
 46 51  1  0  0  0  0
 47 68  1  0  0  0  0
 48 51  1  0  0  0  0
 48 68  1  0  0  0  0
 49 72  1  0  0  0  0
 50 67  1  0  0  0  0
 51 66  1  0  0  0  0
 54 62  1  0  0  0  0
 55 63  1  0  0  0  0
 56 63  1  0  0  0  0
 57 63  1  0  0  0  0
 58 74  1  0  0  0  0
 59 65  1  0  0  0  0
 60 81  1  0  0  0  0
 61 63  1  0  0  0  0
 61 73  1  0  0  0  0
 62 74  1  0  0  0  0
 64 66  1  0  0  0  0
M  CHG  1  74   1
M  ISO  4  39 100  60 101  71 100  81 101
M  END
> <Batch ID>
0014

> <Smiles>
C=C(NCc1c(F)c(C)cc([100NH:0][100C:0](=O)N2CCCC(n3nc(-c4ccc(Oc5ccc(F)cc5F)cc4)c(C(N)=O)c3N)C2)c1Cl)[101CH2:1][101O:1]c1ccc2c(c1)CN(C(=O)C(NC(=O)C(C)NC)C(C)(C)C)C(C(=O)NC1CCCc3ccccc31)C2

> <Shape>
0.233

> <Color>
0.068

> <Negative vol penalty>
0.000

$$$$

  -OEChem-04052315533D

 85 93  0     1  0  0  0  0  0999 V2000
  -28.1371  -23.4670   15.2840 C   0  0  0  0  0  0  0  0  0  0  0  0
  -26.9710  -23.8483   15.9400 C   0  0  0  0  0  0  0  0  0  0  0  0
  -26.3192  -12.5611   21.7010 C   0  0  0  0  0  0  0  0  0  0  0  0
  -25.5153  -13.8801   19.8433 C   0  0  0  0  0  0  0  0  0  0  0  0
  -29.3515  -23.4633   15.9689 C   0  0  0  0  0  0  0  0  0  0  0  0
  -27.0186  -24.2251   17.2817 C   0  0  0  0  0  0  0  0  0  0  0  0
  -24.3222  -28.4073   18.2220 C   0  0  0  0  0  0  0  0  0  0  0  0
  -25.6912  -11.4335   21.1722 C   0  0  0  0  0  0  0  0  0  0  0  0
  -24.8873  -12.7525   19.3144 C   0  0  0  0  0  0  0  0  0  0  0  0
  -22.9387  -28.2646   18.3185 C   0  0  0  0  0  0  0  0  0  0  0  0
  -23.9976   -8.2872   20.4971 C   0  0  0  0  0  0  0  0  0  0  0  0
  -23.2731   -7.4767   21.3711 C   0  0  0  0  0  0  0  0  0  0  0  0
  -23.1110  -28.2809   20.7246 C   0  0  0  0  0  0  0  0  0  0  0  0
  -22.2969  -22.2081   23.0033 C   0  0  0  0  0  0  0  0  0  0  0  0
  -21.8386   -9.3437   21.9132 C   0  0  0  0  0  0  0  0  0  0  0  0
  -26.2313  -13.7845   21.0365 C   0  0  0  0  0  0  0  0  0  0  0  0
  -28.1917  -15.3906   21.3274 C   0  0  0  0  0  0  0  0  0  0  0  0
  -29.4155  -23.8494   17.3171 C   0  0  0  0  0  0  0  0  0  0  0  0
  -25.1130  -28.4770   19.3779 C   0  0  0  0  0  0  0  0  0  0  0  0
  -28.2348  -24.2252   17.9857 C   0  0  0  0  0  0  0  0  0  0  0  0
  -24.5041  -28.4270   20.6400 C   0  0  0  0  0  0  0  0  0  0  0  0
  -21.3129  -23.0051   22.4185 C   0  0  0  0  0  0  0  0  0  0  0  0
  -22.1329  -22.4086   20.2256 C   0  0  0  0  0  0  0  0  0  0  0  0
  -21.2308  -23.1053   21.0297 C   0  0  0  0  0  0  0  0  0  0  0  0
  -23.1170  -21.6116   20.8104 C   0  0  0  0  0  0  0  0  0  0  0  0
  -23.1990  -21.5114   22.1993 C   0  0  0  0  0  0  0  0  0  0  0  0
  -24.9752  -11.5292   19.9789 C   0  0  0  0  0  0  0  0  0  0  0  0
  -22.3332  -28.1984   19.5699 C   0  0  0  0  0  0  0  0  0  0  0  0
  -23.6427   -9.6259   20.3312 C   0  0  0  0  0  0  0  0  0  0  0  0
  -22.1936   -8.0049   22.0791 C   0  0  0  0  0  0  0  0  0  0  0  0
  -22.5632  -10.1541   21.0392 C   0  0  0  0  0  0  0  0  0  0  0  0
  -26.8794  -14.9498   21.5826 C   0  0  0  0  0  0  0  0  0  0  0  0
  -28.3230  -16.5320   22.0799 C   0  0  0  0  0  0  0  0  0  0  0  0
  -29.2018  -14.8194   20.4853 C   0  0  0  0  0  0  0  0  0  0  0  0
  -27.4474  -26.7054   20.6090 C   0  0  0  0  0  0  0  0  0  0  0  0
  -27.5995  -29.1110   22.7798 C   0  0  0  0  0  0  0  0  0  0  0  0
  -26.0213  -31.6914   24.3602 C   0  0  0  0  0  0  0  0  0  0  0  0
  -24.3913  -20.5113   24.1804 C   0  0  0  0  0  0  0  0  0  0  0  0
  -30.7436  -23.7840   18.0287 C   0  0  0  0  0  0  0  0  0  0  0  0
  -26.6013  -28.6578   19.2568 C   0  0  0  0  0  0  0  0  0  0  0  0
  -25.3061  -28.5177   21.9116 C   0  0  0  0  0  0  0  0  0  0  0  0
  -30.7679  -24.5562   19.3453 C   0  0  0  0  0  0  0  0  0  0  0  0
  -26.6944  -18.5813   26.0902 C   0  0  0  0  0  0  0  0  0  0  0  0
  -29.5254  -24.2410   20.1720 C   0  0  0  0  0  0  0  0  0  0  0  0
  -27.1273  -17.4747   25.1258 C   0  0  0  0  0  0  0  0  0  0  0  0
  -25.2194  -18.9392   25.9175 C   0  0  0  0  0  0  0  0  0  0  0  0
  -25.2501  -18.1624   23.5798 C   0  0  0  0  0  0  0  0  0  0  0  0
  -28.2496  -24.6642   19.4339 C   0  0  1  0  0  0  0  0  0  0  0  0
  -27.3616  -28.2014   20.4982 C   0  0  1  0  0  0  0  0  0  0  0  0
  -26.7444  -17.8129   23.6716 C   0  0  2  0  0  0  0  0  0  0  0  0
  -20.3615  -23.7439   23.3020 C   0  0  0  0  0  0  0  0  0  0  0  0
  -22.0444  -22.5167   18.7358 C   0  0  0  0  0  0  0  0  0  0  0  0
  -24.0850  -20.8662   19.9455 C   0  0  0  0  0  0  0  0  0  0  0  0
  -26.3907  -33.4494   26.1125 C   0  0  0  0  0  0  0  0  0  0  0  0
  -19.3416  -28.2844   17.9160 C   0  0  0  0  0  0  0  0  0  0  0  0
  -27.3211  -26.9938   24.9592 C   0  0  0  0  0  0  0  0  0  0  0  0
  -26.7457  -28.8246   26.5671 C   0  0  0  0  0  0  0  0  0  0  0  0
  -28.9814  -28.7954   25.4611 C   0  0  0  0  0  0  0  0  0  0  0  0
  -25.5470  -33.8822   22.4278 C   0  0  0  0  0  0  0  0  0  0  0  0
  -20.1719  -23.9645   20.4040 C   0  0  0  0  0  0  0  0  0  0  0  0
  -19.6908  -26.0909   19.1851 C   0  0  0  0  0  0  0  0  0  0  0  0
  -26.9352  -29.3993   24.1044 C   0  0  1  0  0  0  0  0  0  0  0  0
  -26.4514  -33.1223   24.6285 C   0  0  2  0  0  0  0  0  0  0  0  0
  -20.3256  -27.3547   18.6140 C   0  0  2  0  0  0  0  0  0  1  0  0
  -27.4807  -28.4996   25.2492 C   0  0  0  0  0  0  0  0  0  0  0  0
  -26.2238  -15.7462   22.4311 N   0  0  0  0  0  0  0  0  0  0  0  0
  -27.1279  -16.6988   22.7157 N   0  0  0  0  0  0  0  0  0  0  0  0
  -26.7586  -28.6877   21.7409 N   0  0  0  0  0  0  0  0  0  0  0  0
  -24.9315  -19.2518   24.5160 N   0  0  0  0  0  0  0  0  0  0  0  0
  -29.3430  -17.3992   22.2533 N   0  0  0  0  0  0  0  0  0  0  0  0
  -28.9003  -13.6447   19.7827 N   0  0  0  0  0  0  0  0  0  0  0  0
  -24.1901  -20.7069   22.8144 N   0  0  0  0  0  0  0  0  0  0  0  0
  -28.0607  -26.0958   19.5312 N   0  0  0  0  0  0  0  0  0  0  0  0
  -27.0977  -30.8299   24.3398 N   0  0  0  0  0  0  0  0  0  0  0  0
  -25.5656  -34.0745   23.9007 N   0  3  0  0  0  0  0  0  0  0  0  0
  -20.7037  -25.2454   19.8645 N   0  3  0  0  0  0  0  0  0  0  0  0
  -30.3437  -15.3263   20.3723 O   0  0  0  0  0  0  0  0  0  0  0  0
  -26.9924  -26.1458   21.5996 O   0  0  0  0  0  0  0  0  0  0  0  0
  -28.8187  -29.2629   22.6690 O   0  0  0  0  0  0  0  0  0  0  0  0
  -24.8475  -31.3695   24.1898 O   0  0  0  0  0  0  0  0  0  0  0  0
  -24.1520  -21.3645   25.0388 O   0  0  0  0  0  0  0  0  0  0  0  0
  -24.3624  -10.4290   19.4625 O   0  0  0  0  0  0  0  0  0  0  0  0
  -20.9831  -28.0585   19.6670 O   0  0  0  0  0  0  0  0  0  1  0  0
  -21.4971   -7.2261   22.9172 F   0  0  0  0  0  0  0  0  0  0  0  0
  -22.2167  -11.4392   20.8831 F   0  0  0  0  0  0  0  0  0  0  0  0
  1  2  1  0  0  0  0
  1  5  2  0  0  0  0
  2  6  2  0  0  0  0
  3  8  2  0  0  0  0
  3 16  1  0  0  0  0
  4  9  1  0  0  0  0
  4 16  2  0  0  0  0
  5 18  1  0  0  0  0
  6 20  1  0  0  0  0
  7 10  2  0  0  0  0
  7 19  1  0  0  0  0
  8 27  1  0  0  0  0
  9 27  2  0  0  0  0
 10 28  1  0  0  0  0
 11 12  2  0  0  0  0
 11 29  1  0  0  0  0
 12 30  1  0  0  0  0
 13 21  1  0  0  0  0
 13 28  2  0  0  0  0
 14 22  2  0  0  0  0
 14 26  1  0  0  0  0
 15 30  2  0  0  0  0
 15 31  1  0  0  0  0
 16 32  1  0  0  0  0
 17 32  1  0  0  0  0
 17 33  2  0  0  0  0
 17 34  1  0  0  0  0
 18 20  2  0  0  0  0
 18 39  1  0  0  0  0
 19 21  2  0  0  0  0
 19 40  1  0  0  0  0
 20 48  1  0  0  0  0
 21 41  1  0  0  0  0
 22 24  1  0  0  0  0
 22 51  1  0  0  0  0
 23 24  2  0  0  0  0
 23 25  1  0  0  0  0
 23 52  1  0  0  0  0
 24 60  1  0  0  0  0
 25 26  2  0  0  0  0
 25 53  1  0  0  0  0
 26 72  1  0  0  0  0
 27 82  1  0  0  0  0
 28 83  1  0  0  0  0
 29 31  2  0  0  0  0
 29 82  1  0  0  0  0
 30 84  1  0  0  0  0
 31 85  1  0  0  0  0
 32 66  2  0  0  0  0
 33 67  1  0  0  0  0
 33 70  1  0  0  0  0
 34 71  1  0  0  0  0
 34 77  2  0  0  0  0
 35 49  1  0  0  0  0
 35 73  1  0  0  0  0
 35 78  2  0  0  0  0
 36 62  1  0  0  0  0
 36 68  1  0  0  0  0
 36 79  2  0  0  0  0
 37 63  1  0  0  0  0
 37 74  1  0  0  0  0
 37 80  2  0  0  0  0
 38 69  1  0  0  0  0
 38 72  1  0  0  0  0
 38 81  2  0  0  0  0
 39 42  1  0  0  0  0
 40 49  1  0  0  0  0
 41 68  1  0  0  0  0
 42 44  1  0  0  0  0
 43 45  1  0  0  0  0
 43 46  1  0  0  0  0
 44 48  1  0  0  0  0
 45 50  1  0  0  0  0
 46 69  1  0  0  0  0
 47 50  1  0  0  0  0
 47 69  1  0  0  0  0
 48 73  1  0  0  0  0
 49 68  1  0  0  0  0
 50 67  1  0  0  0  0
 54 63  1  0  0  0  0
 55 64  1  0  0  0  0
 56 65  1  0  0  0  0
 57 65  1  0  0  0  0
 58 65  1  0  0  0  0
 59 75  1  0  0  0  0
 60 76  1  0  0  0  0
 61 64  1  0  0  0  0
 61 76  1  0  0  0  0
 62 65  1  0  0  0  0
 62 74  1  0  0  0  0
 63 75  1  0  0  0  0
 64 83  1  0  0  0  0
 66 67  1  0  0  0  0
M  CHG  2  75   1  76   1
M  ISO  4  38 100  64 101  72 100  83 101
M  END
> <Batch ID>
0014

> <Smiles>
CNC(C)C(=O)NC(C(=O)N1Cc2cc([101O:1][101CH:1](C)CNCc3c(C)cc([100NH:0][100C:0](=O)N4CCCC(n5nc(-c6ccc(Oc7ccc(F)cc7F)cc6)c(C(N)=O)c5N)C4)c(C)c3C)ccc2CC1C(=O)NC1CCCc2ccccc21)C(C)(C)C

> <Shape>
0.220

> <Color>
0.066

> <Negative vol penalty>
0.000

$$$$

  -OEChem-04052315533D

 84 92  0     1  0  0  0  0  0999 V2000
  -23.3516  -31.4692   13.6206 C   0  0  0  0  0  0  0  0  0  0  0  0
  -24.0545  -30.3321   14.0060 C   0  0  0  0  0  0  0  0  0  0  0  0
  -23.1280   -9.6781   20.1840 C   0  0  0  0  0  0  0  0  0  0  0  0
  -23.7074  -10.1001   22.4912 C   0  0  0  0  0  0  0  0  0  0  0  0
  -23.5226  -32.6633   14.3198 C   0  0  0  0  0  0  0  0  0  0  0  0
  -24.9296  -30.3889   15.0901 C   0  0  0  0  0  0  0  0  0  0  0  0
  -26.0644  -25.9392   19.1421 C   0  0  0  0  0  0  0  0  0  0  0  0
  -22.3905   -8.5602   20.5736 C   0  0  0  0  0  0  0  0  0  0  0  0
  -22.9698   -8.9822   22.8809 C   0  0  0  0  0  0  0  0  0  0  0  0
  -27.0930  -25.0037   19.2444 C   0  0  0  0  0  0  0  0  0  0  0  0
  -23.3704   -5.6253   22.9261 C   0  0  0  0  0  0  0  0  0  0  0  0
  -23.9490   -4.7581   23.8527 C   0  0  0  0  0  0  0  0  0  0  0  0
  -28.2503  -26.4536   20.7863 C   0  0  0  0  0  0  0  0  0  0  0  0
  -31.1907  -19.8219   22.0021 C   0  0  0  0  0  0  0  0  0  0  0  0
  -22.1171   -5.1626   25.3751 C   0  0  0  0  0  0  0  0  0  0  0  0
  -23.7865  -10.4481   21.1427 C   0  0  0  0  0  0  0  0  0  0  0  0
  -24.0853  -12.9261   20.6154 C   0  0  0  0  0  0  0  0  0  0  0  0
  -24.3929  -32.7322   15.4190 C   0  0  0  0  0  0  0  0  0  0  0  0
  -26.1263  -27.1458   19.8539 C   0  0  0  0  0  0  0  0  0  0  0  0
  -25.1134  -31.5854   15.8038 C   0  0  0  0  0  0  0  0  0  0  0  0
  -27.2199  -27.4017   20.6933 C   0  0  0  0  0  0  0  0  0  0  0  0
  -31.8486  -18.7329   22.5739 C   0  0  0  0  0  0  0  0  0  0  0  0
  -30.0953  -19.6135   21.1641 C   0  0  0  0  0  0  0  0  0  0  0  0
  -30.3156  -17.2270   21.4695 C   0  0  0  0  0  0  0  0  0  0  0  0
  -22.3114   -8.2122   21.9221 C   0  0  0  0  0  0  0  0  0  0  0  0
  -28.1876  -25.2620   20.0643 C   0  0  0  0  0  0  0  0  0  0  0  0
  -22.1652   -6.2613   23.2240 C   0  0  0  0  0  0  0  0  0  0  0  0
  -23.3224   -4.5266   25.0772 C   0  0  0  0  0  0  0  0  0  0  0  0
  -21.5386   -6.0299   24.4485 C   0  0  0  0  0  0  0  0  0  0  0  0
  -31.4110  -17.4355   22.3076 C   0  0  0  0  0  0  0  0  0  0  0  0
  -29.6577  -18.3161   20.8978 C   0  0  0  0  0  0  0  0  0  0  0  0
  -24.5489  -11.6027   20.7408 C   0  0  0  0  0  0  0  0  0  0  0  0
  -25.1870  -13.6388   20.2092 C   0  0  0  0  0  0  0  0  0  0  0  0
  -22.7760  -13.4630   20.8455 C   0  0  0  0  0  0  0  0  0  0  0  0
  -26.2237  -30.2203   19.0529 C   0  0  0  0  0  0  0  0  0  0  0  0
  -25.9720  -30.6616   22.2567 C   0  0  0  0  0  0  0  0  0  0  0  0
  -29.7868  -22.0818   20.7818 C   0  0  0  0  0  0  0  0  0  0  0  0
  -26.4373  -29.4130   25.3986 C   0  0  0  0  0  0  0  0  0  0  0  0
  -30.6008  -14.8800   20.5998 C   0  0  0  0  0  0  0  0  0  0  0  0
  -24.5806  -34.0573   16.1144 C   0  0  0  0  0  0  0  0  0  0  0  0
  -24.9958  -28.1328   19.7535 C   0  0  0  0  0  0  0  0  0  0  0  0
  -27.3245  -28.6729   21.4942 C   0  0  0  0  0  0  0  0  0  0  0  0
  -25.2437  -33.9379   17.4841 C   0  0  0  0  0  0  0  0  0  0  0  0
  -29.7226  -12.0630   18.6072 C   0  0  0  0  0  0  0  0  0  0  0  0
  -26.4587  -33.0185   17.4107 C   0  0  0  0  0  0  0  0  0  0  0  0
  -28.2602  -11.8010   18.9743 C   0  0  0  0  0  0  0  0  0  0  0  0
  -30.5369  -12.5231   19.8150 C   0  0  0  0  0  0  0  0  0  0  0  0
  -28.5143  -13.4080   20.9082 C   0  0  0  0  0  0  0  0  0  0  0  0
  -26.0531  -31.6008   16.9899 C   0  0  1  0  0  0  0  0  0  0  0  0
  -25.4085  -29.5538   20.1248 C   0  0  1  0  0  0  0  0  0  0  0  0
  -27.6395  -13.0048   19.7100 C   0  0  2  0  0  0  0  0  0  0  0  0
  -33.0190  -19.0058   23.4632 C   0  0  0  0  0  0  0  0  0  0  0  0
  -26.1735  -30.0211   27.8190 C   0  0  0  0  0  0  0  0  0  0  0  0
  -28.4604  -32.4189   22.0839 C   0  0  0  0  0  0  0  0  0  0  0  0
  -28.6949  -32.2106   24.5678 C   0  0  0  0  0  0  0  0  0  0  0  0
  -26.6690  -33.2927   23.5944 C   0  0  0  0  0  0  0  0  0  0  0  0
  -24.5298  -27.1991   25.8668 C   0  0  0  0  0  0  0  0  0  0  0  0
  -28.8443  -22.9772   19.9992 C   0  0  0  0  0  0  0  0  0  1  0  0
  -26.9513  -30.7879   23.3986 C   0  0  1  0  0  0  0  0  0  0  0  0
  -25.5232  -29.3670   26.6098 C   0  0  2  0  0  0  0  0  0  0  0  0
  -27.6931  -32.1544   23.3947 C   0  0  0  0  0  0  0  0  0  0  0  0
  -25.8441  -11.4793   20.4386 N   0  0  0  0  0  0  0  0  0  0  0  0
  -26.2037  -12.7342   20.1192 N   0  0  0  0  0  0  0  0  0  0  0  0
  -26.1969  -29.6095   21.3575 N   0  0  0  0  0  0  0  0  0  0  0  0
  -29.8908  -13.6689   20.4588 N   0  0  0  0  0  0  0  0  0  0  0  0
  -25.3754  -14.9447   19.9238 N   0  0  0  0  0  0  0  0  0  0  0  0
  -21.7596  -12.5913   21.2594 N   0  0  0  0  0  0  0  0  0  0  0  0
  -29.4549  -20.7433   20.6021 N   0  0  0  0  0  0  0  0  0  0  0  0
  -29.8733  -15.9087   21.1974 N   0  0  0  0  0  0  0  0  0  0  0  0
  -25.4702  -30.8892   18.1072 N   0  0  0  0  0  0  0  0  0  0  0  0
  -26.1940  -30.5227   24.6170 N   0  0  0  0  0  0  0  0  0  0  0  0
  -25.1958  -27.9555   26.9582 N   0  3  0  0  0  0  0  0  0  0  0  0
  -22.5111  -14.6769   20.6729 O   0  0  0  0  0  0  0  0  0  0  0  0
  -27.4458  -30.1352   19.0825 O   0  0  0  0  0  0  0  0  0  0  0  0
  -25.0377  -31.4623   22.1698 O   0  0  0  0  0  0  0  0  0  0  0  0
  -30.6973  -22.5450   21.4610 O   0  0  0  0  0  0  0  0  0  0  0  0
  -27.2849  -28.5528   25.1708 O   0  0  0  0  0  0  0  0  0  0  0  0
  -31.7591  -15.0042   20.1937 O   0  0  0  0  0  0  0  0  0  0  0  0
  -21.5916   -7.1215   22.3027 O   0  0  0  0  0  0  0  0  0  0  0  0
  -29.1933  -24.3509   20.1654 O   0  0  0  0  0  0  0  0  0  1  0  0
  -23.8773   -3.6925   25.9663 F   0  0  0  0  0  0  0  0  0  0  0  0
  -20.3800   -6.6371   24.7399 F   0  0  0  0  0  0  0  0  0  0  0  0
  -32.2392  -16.0894   23.0228 Cl  0  0  0  0  0  0  0  0  0  0  0  0
  -28.2935  -18.0635   19.8529 Cl  0  0  0  0  0  0  0  0  0  0  0  0
  1  2  1  0  0  0  0
  1  5  2  0  0  0  0
  2  6  2  0  0  0  0
  3  8  2  0  0  0  0
  3 16  1  0  0  0  0
  4  9  1  0  0  0  0
  4 16  2  0  0  0  0
  5 18  1  0  0  0  0
  6 20  1  0  0  0  0
  7 10  2  0  0  0  0
  7 19  1  0  0  0  0
  8 25  1  0  0  0  0
  9 25  2  0  0  0  0
 10 26  1  0  0  0  0
 11 12  2  0  0  0  0
 11 27  1  0  0  0  0
 12 28  1  0  0  0  0
 13 21  1  0  0  0  0
 13 26  2  0  0  0  0
 14 22  2  0  0  0  0
 14 23  1  0  0  0  0
 15 28  2  0  0  0  0
 15 29  1  0  0  0  0
 16 32  1  0  0  0  0
 17 32  1  0  0  0  0
 17 33  2  0  0  0  0
 17 34  1  0  0  0  0
 18 20  2  0  0  0  0
 18 40  1  0  0  0  0
 19 21  2  0  0  0  0
 19 41  1  0  0  0  0
 20 49  1  0  0  0  0
 21 42  1  0  0  0  0
 22 30  1  0  0  0  0
 22 52  1  0  0  0  0
 23 31  2  0  0  0  0
 23 68  1  0  0  0  0
 24 30  2  0  0  0  0
 24 31  1  0  0  0  0
 24 69  1  0  0  0  0
 25 79  1  0  0  0  0
 26 80  1  0  0  0  0
 27 29  2  0  0  0  0
 27 79  1  0  0  0  0
 28 81  1  0  0  0  0
 29 82  1  0  0  0  0
 30 83  1  0  0  0  0
 31 84  1  0  0  0  0
 32 62  2  0  0  0  0
 33 63  1  0  0  0  0
 33 66  1  0  0  0  0
 34 67  1  0  0  0  0
 34 73  2  0  0  0  0
 35 50  1  0  0  0  0
 35 70  1  0  0  0  0
 35 74  2  0  0  0  0
 36 59  1  0  0  0  0
 36 64  1  0  0  0  0
 36 75  2  0  0  0  0
 37 58  1  0  0  0  0
 37 68  1  0  0  0  0
 37 76  2  0  0  0  0
 38 60  1  0  0  0  0
 38 71  1  0  0  0  0
 38 77  2  0  0  0  0
 39 65  1  0  0  0  0
 39 69  1  0  0  0  0
 39 78  2  0  0  0  0
 40 43  1  0  0  0  0
 41 50  1  0  0  0  0
 42 64  1  0  0  0  0
 43 45  1  0  0  0  0
 44 46  1  0  0  0  0
 44 47  1  0  0  0  0
 45 49  1  0  0  0  0
 46 51  1  0  0  0  0
 47 65  1  0  0  0  0
 48 51  1  0  0  0  0
 48 65  1  0  0  0  0
 49 70  1  0  0  0  0
 50 64  1  0  0  0  0
 51 63  1  0  0  0  0
 53 60  1  0  0  0  0
 54 61  1  0  0  0  0
 55 61  1  0  0  0  0
 56 61  1  0  0  0  0
 57 72  1  0  0  0  0
 58 80  1  0  0  0  0
 59 61  1  0  0  0  0
 59 71  1  0  0  0  0
 60 72  1  0  0  0  0
 62 63  1  0  0  0  0
M  CHG  1  72   1
M  ISO  4  39 100  58 101  69 100  80 101
M  END
> <Batch ID>
0014

> <Smiles>
CNC(C)C(=O)NC(C(=O)N1Cc2cc([101O:1][101CH2:1]C(=O)Nc3cc(C)c(Cl)c([100NH:0][100C:0](=O)N4CCCC(n5nc(-c6ccc(Oc7ccc(F)cc7F)cc6)c(C(N)=O)c5N)C4)c3Cl)ccc2CC1C(=O)NC1CCCc2ccccc21)C(C)(C)C

> <Shape>
0.335

> <Color>
0.193

> <Negative vol penalty>
0.000

$$$$

  -OEChem-04052315533D

 84 92  0     1  0  0  0  0  0999 V2000
  -27.2965  -29.6251   32.3097 C   0  0  0  0  0  0  0  0  0  0  0  0
  -27.3662  -28.4883   31.5108 C   0  0  0  0  0  0  0  0  0  0  0  0
  -23.0521   -9.7499   20.0686 C   0  0  0  0  0  0  0  0  0  0  0  0
  -23.6916  -10.0136   22.3835 C   0  0  0  0  0  0  0  0  0  0  0  0
  -26.7045  -30.7871   31.8164 C   0  0  0  0  0  0  0  0  0  0  0  0
  -26.8429  -28.5124   30.2185 C   0  0  0  0  0  0  0  0  0  0  0  0
  -29.9379  -26.3728   26.8291 C   0  0  0  0  0  0  0  0  0  0  0  0
  -31.5597  -18.7383   23.8240 C   0  0  0  0  0  0  0  0  0  0  0  0
  -22.3010   -8.6236   20.4043 C   0  0  0  0  0  0  0  0  0  0  0  0
  -22.9404   -8.8872   22.7192 C   0  0  0  0  0  0  0  0  0  0  0  0
  -29.9668  -24.9797   26.7837 C   0  0  0  0  0  0  0  0  0  0  0  0
  -23.2735   -5.5273   22.5432 C   0  0  0  0  0  0  0  0  0  0  0  0
  -32.1859  -17.4965   23.7176 C   0  0  0  0  0  0  0  0  0  0  0  0
  -23.8550   -4.5922   23.3994 C   0  0  0  0  0  0  0  0  0  0  0  0
  -28.4995  -25.0178   24.8693 C   0  0  0  0  0  0  0  0  0  0  0  0
  -22.0663   -4.9337   24.9872 C   0  0  0  0  0  0  0  0  0  0  0  0
  -23.7475  -10.4449   21.0582 C   0  0  0  0  0  0  0  0  0  0  0  0
  -24.0848  -12.9452   20.6811 C   0  0  0  0  0  0  0  0  0  0  0  0
  -26.1824  -30.8284   30.5139 C   0  0  0  0  0  0  0  0  0  0  0  0
  -29.1796  -27.0997   25.9002 C   0  0  0  0  0  0  0  0  0  0  0  0
  -26.2422  -29.6756   29.7078 C   0  0  0  0  0  0  0  0  0  0  0  0
  -28.4647  -26.4202   24.9036 C   0  0  0  0  0  0  0  0  0  0  0  0
  -30.3975  -18.9979   23.0975 C   0  0  0  0  0  0  0  0  0  0  0  0
  -30.4880  -16.7738   22.1581 C   0  0  0  0  0  0  0  0  0  0  0  0
  -22.2451   -8.1922   21.7296 C   0  0  0  0  0  0  0  0  0  0  0  0
  -29.2453  -24.3018   25.8054 C   0  0  0  0  0  0  0  0  0  0  0  0
  -22.0885   -6.1658   22.9091 C   0  0  0  0  0  0  0  0  0  0  0  0
  -23.2514   -4.2954   24.6213 C   0  0  0  0  0  0  0  0  0  0  0  0
  -31.6501  -16.5142   22.8846 C   0  0  0  0  0  0  0  0  0  0  0  0
  -21.4849   -5.8689   24.1311 C   0  0  0  0  0  0  0  0  0  0  0  0
  -29.8617  -18.0157   22.2645 C   0  0  0  0  0  0  0  0  0  0  0  0
  -24.5241  -11.6081   20.7119 C   0  0  0  0  0  0  0  0  0  0  0  0
  -25.1913  -13.6614   20.2948 C   0  0  0  0  0  0  0  0  0  0  0  0
  -22.7921  -13.4911   20.9756 C   0  0  0  0  0  0  0  0  0  0  0  0
  -26.7115  -29.0938   26.0892 C   0  0  0  0  0  0  0  0  0  0  0  0
  -27.2607  -29.4559   22.9128 C   0  0  0  0  0  0  0  0  0  0  0  0
  -29.8560  -21.0041   24.4224 C   0  0  0  0  0  0  0  0  0  0  0  0
  -28.5531  -28.1643   20.0304 C   0  0  0  0  0  0  0  0  0  0  0  0
  -30.6366  -14.7730   20.6346 C   0  0  0  0  0  0  0  0  0  0  0  0
  -25.5096  -32.0928   30.0413 C   0  0  0  0  0  0  0  0  0  0  0  0
  -29.1802  -28.6032   25.9463 C   0  0  0  0  0  0  0  0  0  0  0  0
  -27.6512  -27.1547   23.8705 C   0  0  0  0  0  0  0  0  0  0  0  0
  -25.3146  -32.1501   28.5284 C   0  0  0  0  0  0  0  0  0  0  0  0
  -29.6569  -12.1053   18.4897 C   0  0  0  0  0  0  0  0  0  0  0  0
  -24.7465  -30.8316   28.0131 C   0  0  0  0  0  0  0  0  0  0  0  0
  -28.1981  -11.8481   18.8741 C   0  0  0  0  0  0  0  0  0  0  0  0
  -30.5073  -12.4723   19.7046 C   0  0  0  0  0  0  0  0  0  0  0  0
  -28.5280  -13.3240   20.8989 C   0  0  0  0  0  0  0  0  0  0  0  0
  -25.7080  -29.6701   28.2919 C   0  0  1  0  0  0  0  0  0  0  0  0
  -27.9626  -29.2223   25.2671 C   0  0  1  0  0  0  0  0  0  0  0  0
  -27.6186  -13.0142   19.6987 C   0  0  2  0  0  0  0  0  0  0  0  0
  -28.8170  -28.6750   17.5876 C   0  0  0  0  0  0  0  0  0  0  0  0
  -24.3243  -28.7655   22.4537 C   0  0  0  0  0  0  0  0  0  0  0  0
  -24.8686  -28.3601   20.0438 C   0  0  0  0  0  0  0  0  0  0  0  0
  -25.1930  -30.6286   21.0294 C   0  0  0  0  0  0  0  0  0  0  0  0
  -29.0015  -20.8147   22.0580 C   0  0  0  0  0  0  0  0  0  0  0  0
  -31.5061  -28.1068   20.2187 C   0  0  0  0  0  0  0  0  0  0  0  0
  -29.1158  -22.3326   24.4782 C   0  0  0  0  0  0  0  0  0  1  0  0
  -26.7810  -28.7649   21.6593 C   0  0  1  0  0  0  0  0  0  0  0  0
  -29.4496  -28.7727   18.9671 C   0  0  2  0  0  0  0  0  0  0  0  0
  -25.3054  -29.1156   21.3170 C   0  0  0  0  0  0  0  0  0  0  0  0
  -25.8094  -11.4797   20.3720 N   0  0  0  0  0  0  0  0  0  0  0  0
  -26.1872  -12.7453   20.1239 N   0  0  0  0  0  0  0  0  0  0  0  0
  -27.6786  -28.6239   23.9611 N   0  0  0  0  0  0  0  0  0  0  0  0
  -29.8992  -13.5869   20.4345 N   0  0  0  0  0  0  0  0  0  0  0  0
  -25.3997  -14.9790   20.0879 N   0  0  0  0  0  0  0  0  0  0  0  0
  -21.7677  -12.6142   21.3576 N   0  0  0  0  0  0  0  0  0  0  0  0
  -29.9437  -15.7752   21.3129 N   0  0  0  0  0  0  0  0  0  0  0  0
  -26.7976  -29.6761   27.3394 N   0  0  0  0  0  0  0  0  0  0  0  0
  -27.7357  -29.1105   20.6118 N   0  0  0  0  0  0  0  0  0  0  0  0
  -29.7498  -20.2891   23.2103 N   0  0  0  0  0  0  0  0  0  0  0  0
  -30.7631  -28.0695   18.9328 N   0  3  0  0  0  0  0  0  0  0  0  0
  -22.5481  -14.7183   20.8861 O   0  0  0  0  0  0  0  0  0  0  0  0
  -25.7395  -28.5110   25.6233 O   0  0  0  0  0  0  0  0  0  0  0  0
  -27.2713  -30.6886   22.9575 O   0  0  0  0  0  0  0  0  0  0  0  0
  -30.4662  -20.6221   25.4241 O   0  0  0  0  0  0  0  0  0  0  0  0
  -28.5729  -26.9686   20.3140 O   0  0  0  0  0  0  0  0  0  0  0  0
  -31.7878  -14.9009   20.2099 O   0  0  0  0  0  0  0  0  0  0  0  0
  -21.5120   -7.0934   22.0577 O   0  0  0  0  0  0  0  0  0  0  0  0
  -29.2712  -22.9420   25.7592 O   0  0  0  0  0  0  0  0  0  1  0  0
  -23.8091   -3.3962   25.4427 F   0  0  0  0  0  0  0  0  0  0  0  0
  -32.2603  -15.3239   22.7916 F   0  0  0  0  0  0  0  0  0  0  0  0
  -20.3457   -6.4781   24.4875 F   0  0  0  0  0  0  0  0  0  0  0  0
  -28.7432  -18.2653   21.5662 F   0  0  0  0  0  0  0  0  0  0  0  0
  1  2  1  0  0  0  0
  1  5  2  0  0  0  0
  2  6  2  0  0  0  0
  3  9  2  0  0  0  0
  3 17  1  0  0  0  0
  4 10  1  0  0  0  0
  4 17  2  0  0  0  0
  5 19  1  0  0  0  0
  6 21  1  0  0  0  0
  7 11  2  0  0  0  0
  7 20  1  0  0  0  0
  8 13  2  0  0  0  0
  8 23  1  0  0  0  0
  9 25  1  0  0  0  0
 10 25  2  0  0  0  0
 11 26  1  0  0  0  0
 12 14  2  0  0  0  0
 12 27  1  0  0  0  0
 13 29  1  0  0  0  0
 14 28  1  0  0  0  0
 15 22  1  0  0  0  0
 15 26  2  0  0  0  0
 16 28  2  0  0  0  0
 16 30  1  0  0  0  0
 17 32  1  0  0  0  0
 18 32  1  0  0  0  0
 18 33  2  0  0  0  0
 18 34  1  0  0  0  0
 19 21  2  0  0  0  0
 19 40  1  0  0  0  0
 20 22  2  0  0  0  0
 20 41  1  0  0  0  0
 21 49  1  0  0  0  0
 22 42  1  0  0  0  0
 23 31  2  0  0  0  0
 23 71  1  0  0  0  0
 24 29  2  0  0  0  0
 24 31  1  0  0  0  0
 24 68  1  0  0  0  0
 25 79  1  0  0  0  0
 26 80  1  0  0  0  0
 27 30  2  0  0  0  0
 27 79  1  0  0  0  0
 28 81  1  0  0  0  0
 29 82  1  0  0  0  0
 30 83  1  0  0  0  0
 31 84  1  0  0  0  0
 32 62  2  0  0  0  0
 33 63  1  0  0  0  0
 33 66  1  0  0  0  0
 34 67  1  0  0  0  0
 34 73  2  0  0  0  0
 35 50  1  0  0  0  0
 35 69  1  0  0  0  0
 35 74  2  0  0  0  0
 36 59  1  0  0  0  0
 36 64  1  0  0  0  0
 36 75  2  0  0  0  0
 37 58  1  0  0  0  0
 37 71  1  0  0  0  0
 37 76  2  0  0  0  0
 38 60  1  0  0  0  0
 38 70  1  0  0  0  0
 38 77  2  0  0  0  0
 39 65  1  0  0  0  0
 39 68  1  0  0  0  0
 39 78  2  0  0  0  0
 40 43  1  0  0  0  0
 41 50  1  0  0  0  0
 42 64  1  0  0  0  0
 43 45  1  0  0  0  0
 44 46  1  0  0  0  0
 44 47  1  0  0  0  0
 45 49  1  0  0  0  0
 46 51  1  0  0  0  0
 47 65  1  0  0  0  0
 48 51  1  0  0  0  0
 48 65  1  0  0  0  0
 49 69  1  0  0  0  0
 50 64  1  0  0  0  0
 51 63  1  0  0  0  0
 52 60  1  0  0  0  0
 53 61  1  0  0  0  0
 54 61  1  0  0  0  0
 55 61  1  0  0  0  0
 56 71  1  0  0  0  0
 57 72  1  0  0  0  0
 58 80  1  0  0  0  0
 59 61  1  0  0  0  0
 59 70  1  0  0  0  0
 60 72  1  0  0  0  0
 62 63  1  0  0  0  0
M  CHG  1  72   1
M  ISO  4  39 100  58 101  68 100  80 101
M  END
> <Batch ID>
0014

> <Smiles>
CNC(C)C(=O)NC(C(=O)N1Cc2cc([101O:1][101CH2:1]C(=O)N(C)c3ccc(F)c([100NH:0][100C:0](=O)N4CCCC(n5nc(-c6ccc(Oc7ccc(F)cc7F)cc6)c(C(N)=O)c5N)C4)c3F)ccc2CC1C(=O)NC1CCCc2ccccc21)C(C)(C)C

> <Shape>
0.268

> <Color>
0.214

> <Negative vol penalty>
0.000

$$$$

  -OEChem-04052315533D

 82 89  0     1  0  0  0  0  0999 V2000
  -22.8444  -36.3188   18.1596 C   0  0  0  0  0  0  0  0  0  0  0  0
  -23.7903  -35.3074   18.0263 C   0  0  0  0  0  0  0  0  0  0  0  0
  -26.8326  -13.1705   20.3837 C   0  0  0  0  0  0  0  0  0  0  0  0
  -25.3975  -15.0151   19.7712 C   0  0  0  0  0  0  0  0  0  0  0  0
  -22.1679  -36.4843   19.3674 C   0  0  0  0  0  0  0  0  0  0  0  0
  -24.0610  -34.4615   19.1013 C   0  0  0  0  0  0  0  0  0  0  0  0
  -25.5105  -28.5173   18.8341 C   0  0  0  0  0  0  0  0  0  0  0  0
  -25.7861  -12.2786   20.1497 C   0  0  0  0  0  0  0  0  0  0  0  0
  -24.3510  -14.1231   19.5371 C   0  0  0  0  0  0  0  0  0  0  0  0
  -26.7312  -27.8461   18.8896 C   0  0  0  0  0  0  0  0  0  0  0  0
  -23.3853   -9.5488   20.0589 C   0  0  0  0  0  0  0  0  0  0  0  0
  -23.1633   -8.5452   21.0018 C   0  0  0  0  0  0  0  0  0  0  0  0
  -26.4134  -27.4758   21.2520 C   0  0  0  0  0  0  0  0  0  0  0  0
  -22.7787  -10.2231   22.6970 C   0  0  0  0  0  0  0  0  0  0  0  0
  -26.6383  -14.5388   20.1946 C   0  0  0  0  0  0  0  0  0  0  0  0
  -28.6824  -15.9032   19.5108 C   0  0  0  0  0  0  0  0  0  0  0  0
  -22.4235  -35.6339   20.4547 C   0  0  0  0  0  0  0  0  0  0  0  0
  -24.7359  -28.6826   19.9913 C   0  0  0  0  0  0  0  0  0  0  0  0
  -23.3883  -34.6166   20.3252 C   0  0  0  0  0  0  0  0  0  0  0  0
  -25.1820  -28.1473   21.2081 C   0  0  0  0  0  0  0  0  0  0  0  0
  -24.5453  -12.7548   19.7263 C   0  0  0  0  0  0  0  0  0  0  0  0
  -27.1842  -27.3278   20.0992 C   0  0  0  0  0  0  0  0  0  0  0  0
  -23.3040  -10.8895   20.4350 C   0  0  0  0  0  0  0  0  0  0  0  0
  -22.8600   -8.8823   22.3209 C   0  0  0  0  0  0  0  0  0  0  0  0
  -23.0007  -11.2267   21.7541 C   0  0  0  0  0  0  0  0  0  0  0  0
  -27.7188  -15.4607   20.4368 C   0  0  0  0  0  0  0  0  0  0  0  0
  -29.4788  -16.7621   20.2281 C   0  0  0  0  0  0  0  0  0  0  0  0
  -28.8432  -15.5679   18.1261 C   0  0  0  0  0  0  0  0  0  0  0  0
  -23.6936  -31.1827   21.6548 C   0  0  0  0  0  0  0  0  0  0  0  0
  -22.0866  -28.9104   23.3211 C   0  0  0  0  0  0  0  0  0  0  0  0
  -28.8101  -23.9504   21.6039 C   0  0  0  0  0  0  0  0  0  0  0  0
  -21.8598  -25.6463   24.2912 C   0  0  0  0  0  0  0  0  0  0  0  0
  -28.5291  -20.0730   25.1258 C   0  0  0  0  0  0  0  0  0  0  0  0
  -21.7014  -35.8814   21.7554 C   0  0  0  0  0  0  0  0  0  0  0  0
  -23.4088  -29.3858   19.9094 C   0  0  0  0  0  0  0  0  0  0  0  0
  -24.3784  -28.2801   22.4750 C   0  0  0  0  0  0  0  0  0  0  0  0
  -21.7761  -34.7063   22.7268 C   0  0  0  0  0  0  0  0  0  0  0  0
  -31.0400  -17.5893   24.6744 C   0  0  0  0  0  0  0  0  0  0  0  0
  -23.2050  -34.1804   22.8196 C   0  0  0  0  0  0  0  0  0  0  0  0
  -30.5604  -16.8021   23.4536 C   0  0  0  0  0  0  0  0  0  0  0  0
  -29.8728  -18.0360   25.5520 C   0  0  0  0  0  0  0  0  0  0  0  0
  -28.3381  -17.9982   23.6240 C   0  0  0  0  0  0  0  0  0  0  0  0
  -23.6919  -33.6632   21.4606 C   0  0  1  0  0  0  0  0  0  0  0  0
  -22.9447  -29.9442   21.2512 C   0  0  1  0  0  0  0  0  0  0  0  0
  -29.4755  -17.5743   22.6791 C   0  0  2  0  0  0  0  0  0  0  0  0
  -28.0934  -20.4819   18.5050 C   0  0  0  0  0  0  0  0  0  0  0  0
  -20.4596  -24.0979   25.6839 C   0  0  0  0  0  0  0  0  0  0  0  0
  -23.3392  -30.0603   25.8546 C   0  0  0  0  0  0  0  0  0  0  0  0
  -22.6929  -27.9552   27.0459 C   0  0  0  0  0  0  0  0  0  0  0  0
  -20.9294  -29.4291   26.0761 C   0  0  0  0  0  0  0  0  0  0  0  0
  -21.1743  -23.9721   21.9490 C   0  0  0  0  0  0  0  0  0  0  0  0
  -27.9487  -22.9181   22.3207 C   0  0  0  0  0  0  0  0  0  0  0  0
  -28.8692  -21.5457   19.2686 C   0  0  0  0  0  0  0  0  0  0  0  0
  -27.9765  -23.0853   23.8429 C   0  0  0  0  0  0  0  0  0  0  0  0
  -28.0663  -22.8241   19.4772 C   0  0  0  0  0  0  0  0  0  0  0  0
  -27.1280  -22.0424   24.5624 C   0  0  0  0  0  0  0  0  0  0  0  0
  -29.5960  -24.7532   19.3774 C   0  0  0  0  0  0  0  0  0  0  0  0
  -28.7923  -25.9788   18.9811 C   0  0  0  0  0  0  0  0  0  1  0  0
  -22.3872  -28.0586   24.5306 C   0  0  1  0  0  0  0  0  0  0  0  0
  -20.6925  -24.6758   24.2966 C   0  0  2  0  0  0  0  0  0  0  0  0
  -22.3535  -28.8748   25.8535 C   0  0  0  0  0  0  0  0  0  0  0  0
  -27.8860  -15.9943   21.6498 N   0  0  0  0  0  0  0  0  0  0  0  0
  -28.9641  -16.7809   21.4910 N   0  0  0  0  0  0  0  0  0  0  0  0
  -23.0905  -28.9815   22.3449 N   0  0  0  0  0  0  0  0  0  0  0  0
  -28.8803  -18.7638   24.7574 N   0  0  0  0  0  0  0  0  0  0  0  0
  -30.5623  -17.4955   19.8954 N   0  0  0  0  0  0  0  0  0  0  0  0
  -27.9369  -14.6694   17.5467 N   0  0  0  0  0  0  0  0  0  0  0  0
  -23.1334  -32.3563   21.1876 N   0  0  0  0  0  0  0  0  0  0  0  0
  -21.4445  -26.9459   24.4908 N   0  0  0  0  0  0  0  0  0  0  0  0
  -27.5860  -20.6933   24.3156 N   0  0  0  0  0  0  0  0  0  0  0  0
  -28.8286  -23.8519   20.1954 N   0  0  0  0  0  0  0  0  0  0  0  0
  -20.9509  -23.5495   23.3555 N   0  3  0  0  0  0  0  0  0  0  0  0
  -29.7731  -16.0381   17.4277 O   0  0  0  0  0  0  0  0  0  0  0  0
  -24.7041  -31.0811   22.3406 O   0  0  0  0  0  0  0  0  0  0  0  0
  -20.9982  -29.4855   23.2418 O   0  0  0  0  0  0  0  0  0  0  0  0
  -29.4354  -24.7982   22.2463 O   0  0  0  0  0  0  0  0  0  0  0  0
  -23.0240  -25.2870   24.1301 O   0  0  0  0  0  0  0  0  0  0  0  0
  -29.0236  -20.6485   26.1011 O   0  0  0  0  0  0  0  0  0  0  0  0
  -23.5239  -11.8847   19.4975 O   0  0  0  0  0  0  0  0  0  0  0  0
  -28.3757  -26.6728   20.1563 O   0  0  0  0  0  0  0  0  0  1  0  0
  -22.6453   -7.9185   23.2259 F   0  0  0  0  0  0  0  0  0  0  0  0
  -22.9201  -12.5130   22.1211 F   0  0  0  0  0  0  0  0  0  0  0  0
  1  2  1  0  0  0  0
  1  5  2  0  0  0  0
  2  6  2  0  0  0  0
  3  8  2  0  0  0  0
  3 15  1  0  0  0  0
  4  9  1  0  0  0  0
  4 15  2  0  0  0  0
  5 17  1  0  0  0  0
  6 19  1  0  0  0  0
  7 10  2  0  0  0  0
  7 18  1  0  0  0  0
  8 21  1  0  0  0  0
  9 21  2  0  0  0  0
 10 22  1  0  0  0  0
 11 12  2  0  0  0  0
 11 23  1  0  0  0  0
 12 24  1  0  0  0  0
 13 20  1  0  0  0  0
 13 22  2  0  0  0  0
 14 24  2  0  0  0  0
 14 25  1  0  0  0  0
 15 26  1  0  0  0  0
 16 26  1  0  0  0  0
 16 27  2  0  0  0  0
 16 28  1  0  0  0  0
 17 19  2  0  0  0  0
 17 34  1  0  0  0  0
 18 20  2  0  0  0  0
 18 35  1  0  0  0  0
 19 43  1  0  0  0  0
 20 36  1  0  0  0  0
 21 79  1  0  0  0  0
 22 80  1  0  0  0  0
 23 25  2  0  0  0  0
 23 79  1  0  0  0  0
 24 81  1  0  0  0  0
 25 82  1  0  0  0  0
 26 62  2  0  0  0  0
 27 63  1  0  0  0  0
 27 66  1  0  0  0  0
 28 67  1  0  0  0  0
 28 73  2  0  0  0  0
 29 44  1  0  0  0  0
 29 68  1  0  0  0  0
 29 74  2  0  0  0  0
 30 59  1  0  0  0  0
 30 64  1  0  0  0  0
 30 75  2  0  0  0  0
 31 52  1  0  0  0  0
 31 71  1  0  0  0  0
 31 76  2  0  0  0  0
 32 60  1  0  0  0  0
 32 69  1  0  0  0  0
 32 77  2  0  0  0  0
 33 65  1  0  0  0  0
 33 70  1  0  0  0  0
 33 78  2  0  0  0  0
 34 37  1  0  0  0  0
 35 44  1  0  0  0  0
 36 64  1  0  0  0  0
 37 39  1  0  0  0  0
 38 40  1  0  0  0  0
 38 41  1  0  0  0  0
 39 43  1  0  0  0  0
 40 45  1  0  0  0  0
 41 65  1  0  0  0  0
 42 45  1  0  0  0  0
 42 65  1  0  0  0  0
 43 68  1  0  0  0  0
 44 64  1  0  0  0  0
 45 63  1  0  0  0  0
 46 53  1  0  0  0  0
 47 60  1  0  0  0  0
 48 61  1  0  0  0  0
 49 61  1  0  0  0  0
 50 61  1  0  0  0  0
 51 72  1  0  0  0  0
 52 54  1  0  0  0  0
 53 55  1  0  0  0  0
 54 56  1  0  0  0  0
 55 71  1  0  0  0  0
 56 70  1  0  0  0  0
 57 58  1  0  0  0  0
 57 71  1  0  0  0  0
 58 80  1  0  0  0  0
 59 61  1  0  0  0  0
 59 69  1  0  0  0  0
 60 72  1  0  0  0  0
 62 63  1  0  0  0  0
M  CHG  1  72   1
M  ISO  4  33 100  58 101  70 100  80 101
M  END
> <Batch ID>
0014

> <Smiles>
CCCN(C[101CH2:1][101O:1]c1ccc2c(c1)CN(C(=O)C(NC(=O)C(C)NC)C(C)(C)C)C(C(=O)NC1CCCc3ccccc31)C2)C(=O)CCC[100NH:0][100C:0](=O)N1CCCC(n2nc(-c3ccc(Oc4ccc(F)cc4F)cc3)c(C(N)=O)c2N)C1

> <Shape>
0.219

> <Color>
0.074

> <Negative vol penalty>
0.000

$$$$

  -OEChem-04052315533D

 84 92  0     1  0  0  0  0  0999 V2000
  -23.9065  -21.1323   21.3616 C   0  0  0  0  0  0  0  0  0  0  0  0
  -24.9049  -20.1974   21.6156 C   0  0  0  0  0  0  0  0  0  0  0  0
  -22.9992   -9.8946   19.9811 C   0  0  0  0  0  0  0  0  0  0  0  0
  -23.7241   -9.9458   22.2852 C   0  0  0  0  0  0  0  0  0  0  0  0
  -23.7735  -22.2496   22.1850 C   0  0  0  0  0  0  0  0  0  0  0  0
  -25.7716  -20.3798   22.6927 C   0  0  0  0  0  0  0  0  0  0  0  0
  -28.2189  -16.0191   26.2283 C   0  0  0  0  0  0  0  0  0  0  0  0
  -22.2322   -8.7604   20.2476 C   0  0  0  0  0  0  0  0  0  0  0  0
  -22.9571   -8.8116   22.5517 C   0  0  0  0  0  0  0  0  0  0  0  0
  -29.4655  -15.3949   26.2202 C   0  0  0  0  0  0  0  0  0  0  0  0
  -21.4742   -5.7194   23.7556 C   0  0  0  0  0  0  0  0  0  0  0  0
  -22.0598   -4.7036   24.5111 C   0  0  0  0  0  0  0  0  0  0  0  0
  -30.2433  -16.9401   27.9015 C   0  0  0  0  0  0  0  0  0  0  0  0
  -23.7862   -4.4553   22.8393 C   0  0  0  0  0  0  0  0  0  0  0  0
  -30.6702  -18.6880   23.5095 C   0  0  0  0  0  0  0  0  0  0  0  0
  -23.7452  -10.4872   20.9999 C   0  0  0  0  0  0  0  0  0  0  0  0
  -24.1316  -13.0026   20.8233 C   0  0  0  0  0  0  0  0  0  0  0  0
  -24.6328  -22.4408   23.2784 C   0  0  0  0  0  0  0  0  0  0  0  0
  -27.9781  -17.1172   27.0665 C   0  0  0  0  0  0  0  0  0  0  0  0
  -25.6508  -21.5014   23.5306 C   0  0  0  0  0  0  0  0  0  0  0  0
  -28.9920  -17.5749   27.9201 C   0  0  0  0  0  0  0  0  0  0  0  0
  -30.6752  -16.5500   22.3845 C   0  0  0  0  0  0  0  0  0  0  0  0
  -32.4405  -17.1010   23.9393 C   0  0  0  0  0  0  0  0  0  0  0  0
  -22.2111   -8.2190   21.5329 C   0  0  0  0  0  0  0  0  0  0  0  0
  -30.4789  -15.8572   27.0548 C   0  0  0  0  0  0  0  0  0  0  0  0
  -22.0446   -6.1032   22.5419 C   0  0  0  0  0  0  0  0  0  0  0  0
  -23.2157   -4.0716   24.0530 C   0  0  0  0  0  0  0  0  0  0  0  0
  -30.0835  -17.7917   22.6163 C   0  0  0  0  0  0  0  0  0  0  0  0
  -31.8487  -18.3427   24.1710 C   0  0  0  0  0  0  0  0  0  0  0  0
  -23.2006   -5.4712   22.0838 C   0  0  0  0  0  0  0  0  0  0  0  0
  -31.8537  -16.2046   23.0460 C   0  0  0  0  0  0  0  0  0  0  0  0
  -24.5382  -11.6584   20.7250 C   0  0  0  0  0  0  0  0  0  0  0  0
  -25.2417  -13.7247   20.4589 C   0  0  0  0  0  0  0  0  0  0  0  0
  -22.8638  -13.5496   21.2096 C   0  0  0  0  0  0  0  0  0  0  0  0
  -27.2092  -20.1665   26.6034 C   0  0  0  0  0  0  0  0  0  0  0  0
  -26.9667  -20.1918   29.8381 C   0  0  0  0  0  0  0  0  0  0  0  0
  -27.8691  -18.8030   32.8220 C   0  0  0  0  0  0  0  0  0  0  0  0
  -30.7215  -14.6836   20.6931 C   0  0  0  0  0  0  0  0  0  0  0  0
  -24.4803  -23.6883   24.1121 C   0  0  0  0  0  0  0  0  0  0  0  0
  -26.6196  -17.7626   27.0827 C   0  0  0  0  0  0  0  0  0  0  0  0
  -28.7780  -18.7374   28.8535 C   0  0  0  0  0  0  0  0  0  0  0  0
  -25.2014  -23.6151   25.4555 C   0  0  0  0  0  0  0  0  0  0  0  0
  -29.6025  -12.2306   18.3677 C   0  0  0  0  0  0  0  0  0  0  0  0
  -26.6164  -23.0753   25.2731 C   0  0  0  0  0  0  0  0  0  0  0  0
  -28.1517  -11.9736   18.7817 C   0  0  0  0  0  0  0  0  0  0  0  0
  -30.5029  -12.4739   19.5775 C   0  0  0  0  0  0  0  0  0  0  0  0
  -28.5878  -13.2639   20.9106 C   0  0  0  0  0  0  0  0  0  0  0  0
  -26.5946  -21.6515   24.7040 C   0  0  1  0  0  0  0  0  0  0  0  0
  -26.6455  -19.1965   27.6029 C   0  0  1  0  0  0  0  0  0  0  0  0
  -27.6302  -13.0776   19.7224 C   0  0  2  0  0  0  0  0  0  0  0  0
  -27.5407  -19.0647   35.2961 C   0  0  0  0  0  0  0  0  0  0  0  0
  -28.8778  -22.5703   29.8378 C   0  0  0  0  0  0  0  0  0  0  0  0
  -29.2521  -22.1809   32.2825 C   0  0  0  0  0  0  0  0  0  0  0  0
  -26.9741  -22.7619   31.4483 C   0  0  0  0  0  0  0  0  0  0  0  0
  -26.6514  -16.1163   33.0618 C   0  0  0  0  0  0  0  0  0  0  0  0
  -34.0487  -15.4943   26.6383 C   0  0  0  0  0  0  0  0  0  0  0  0
  -33.8797  -15.4430   25.1246 C   0  0  0  0  0  0  0  0  0  0  0  0
  -32.8292  -16.0630   27.3542 C   0  0  0  0  0  0  0  0  0  1  0  0
  -27.9169  -20.4633   30.9793 C   0  0  1  0  0  0  0  0  0  0  0  0
  -27.0474  -18.3852   34.0281 C   0  0  2  0  0  0  0  0  0  0  0  0
  -28.2602  -21.9734   31.1181 C   0  0  0  0  0  0  0  0  0  0  0  0
  -25.8075  -11.5313   20.3290 N   0  0  0  0  0  0  0  0  0  0  0  0
  -26.2080  -12.8049   20.1751 N   0  0  0  0  0  0  0  0  0  0  0  0
  -27.4346  -19.3391   28.8282 N   0  0  0  0  0  0  0  0  0  0  0  0
  -29.9483  -13.5353   20.4205 N   0  0  0  0  0  0  0  0  0  0  0  0
  -25.4757  -15.0502   20.3565 N   0  0  0  0  0  0  0  0  0  0  0  0
  -21.8316  -12.6660   21.5532 N   0  0  0  0  0  0  0  0  0  0  0  0
  -30.0775  -15.6392   21.4784 N   0  0  0  0  0  0  0  0  0  0  0  0
  -33.6124  -16.7586   24.5957 N   0  0  0  0  0  0  0  0  0  0  0  0
  -26.2682  -20.6972   25.7420 N   0  0  0  0  0  0  0  0  0  0  0  0
  -27.3055  -19.8779   32.1676 N   0  0  0  0  0  0  0  0  0  0  0  0
  -27.1277  -16.9100   34.2237 N   0  3  0  0  0  0  0  0  0  0  0  0
  -22.6476  -14.7850   21.2330 O   0  0  0  0  0  0  0  0  0  0  0  0
  -28.4089  -20.4161   26.6141 O   0  0  0  0  0  0  0  0  0  0  0  0
  -25.8479  -20.7112   29.8460 O   0  0  0  0  0  0  0  0  0  0  0  0
  -28.9090  -18.2352   32.4955 O   0  0  0  0  0  0  0  0  0  0  0  0
  -31.8603  -14.8219   20.2392 O   0  0  0  0  0  0  0  0  0  0  0  0
  -21.4625   -7.1125   21.7934 O   0  0  0  0  0  0  0  0  0  0  0  0
  -31.6968  -15.2502   27.0485 O   0  0  0  0  0  0  0  0  0  1  0  0
  -23.7788   -3.0971   24.7794 F   0  0  0  0  0  0  0  0  0  0  0  0
  -28.9510  -18.1344   21.9859 F   0  0  0  0  0  0  0  0  0  0  0  0
  -32.4037  -19.2115   25.0280 F   0  0  0  0  0  0  0  0  0  0  0  0
  -23.7538   -5.8364   20.9191 F   0  0  0  0  0  0  0  0  0  0  0  0
  -32.4231  -15.0101   22.8237 F   0  0  0  0  0  0  0  0  0  0  0  0
  1  2  1  0  0  0  0
  1  5  2  0  0  0  0
  2  6  2  0  0  0  0
  3  8  2  0  0  0  0
  3 16  1  0  0  0  0
  4  9  1  0  0  0  0
  4 16  2  0  0  0  0
  5 18  1  0  0  0  0
  6 20  1  0  0  0  0
  7 10  2  0  0  0  0
  7 19  1  0  0  0  0
  8 24  1  0  0  0  0
  9 24  2  0  0  0  0
 10 25  1  0  0  0  0
 11 12  2  0  0  0  0
 11 26  1  0  0  0  0
 12 27  1  0  0  0  0
 13 21  1  0  0  0  0
 13 25  2  0  0  0  0
 14 27  2  0  0  0  0
 14 30  1  0  0  0  0
 15 28  1  0  0  0  0
 15 29  2  0  0  0  0
 16 32  1  0  0  0  0
 17 32  1  0  0  0  0
 17 33  2  0  0  0  0
 17 34  1  0  0  0  0
 18 20  2  0  0  0  0
 18 39  1  0  0  0  0
 19 21  2  0  0  0  0
 19 40  1  0  0  0  0
 20 48  1  0  0  0  0
 21 41  1  0  0  0  0
 22 28  2  0  0  0  0
 22 31  1  0  0  0  0
 22 68  1  0  0  0  0
 23 29  1  0  0  0  0
 23 31  2  0  0  0  0
 23 69  1  0  0  0  0
 24 78  1  0  0  0  0
 25 79  1  0  0  0  0
 26 30  2  0  0  0  0
 26 78  1  0  0  0  0
 27 80  1  0  0  0  0
 28 81  1  0  0  0  0
 29 82  1  0  0  0  0
 30 83  1  0  0  0  0
 31 84  1  0  0  0  0
 32 62  2  0  0  0  0
 33 63  1  0  0  0  0
 33 66  1  0  0  0  0
 34 67  1  0  0  0  0
 34 73  2  0  0  0  0
 35 49  1  0  0  0  0
 35 70  1  0  0  0  0
 35 74  2  0  0  0  0
 36 59  1  0  0  0  0
 36 64  1  0  0  0  0
 36 75  2  0  0  0  0
 37 60  1  0  0  0  0
 37 71  1  0  0  0  0
 37 76  2  0  0  0  0
 38 65  1  0  0  0  0
 38 68  1  0  0  0  0
 38 77  2  0  0  0  0
 39 42  1  0  0  0  0
 40 49  1  0  0  0  0
 41 64  1  0  0  0  0
 42 44  1  0  0  0  0
 43 45  1  0  0  0  0
 43 46  1  0  0  0  0
 44 48  1  0  0  0  0
 45 50  1  0  0  0  0
 46 65  1  0  0  0  0
 47 50  1  0  0  0  0
 47 65  1  0  0  0  0
 48 70  1  0  0  0  0
 49 64  1  0  0  0  0
 50 63  1  0  0  0  0
 51 60  1  0  0  0  0
 52 61  1  0  0  0  0
 53 61  1  0  0  0  0
 54 61  1  0  0  0  0
 55 72  1  0  0  0  0
 56 57  1  0  0  0  0
 56 58  1  0  0  0  0
 57 69  1  0  0  0  0
 58 79  1  0  0  0  0
 59 61  1  0  0  0  0
 59 71  1  0  0  0  0
 60 72  1  0  0  0  0
 62 63  1  0  0  0  0
M  CHG  1  72   1
M  ISO  4  38 100  58 101  68 100  79 101
M  END
> <Batch ID>
0014

> <Smiles>
CNC(C)C(=O)NC(C(=O)N1Cc2cc([101O:1][101CH2:1]CCNc3c(F)cc(F)c([100NH:0][100C:0](=O)N4CCCC(n5nc(-c6ccc(Oc7ccc(F)cc7F)cc6)c(C(N)=O)c5N)C4)c3F)ccc2CC1C(=O)NC1CCCc2ccccc21)C(C)(C)C

> <Shape>
0.175

> <Color>
0.202

> <Negative vol penalty>
0.000

$$$$

  -OEChem-04052315533D

 85 93  0     1  0  0  0  0  0999 V2000
  -25.5655  -35.5276   22.4344 C   0  0  0  0  0  0  0  0  0  0  0  0
  -26.2040  -34.3019   22.2745 C   0  0  0  0  0  0  0  0  0  0  0  0
  -25.7021  -11.6084   19.9201 C   0  0  0  0  0  0  0  0  0  0  0  0
  -26.0504  -12.8421   17.8722 C   0  0  0  0  0  0  0  0  0  0  0  0
  -24.3059  -35.5837   23.0294 C   0  0  0  0  0  0  0  0  0  0  0  0
  -25.5837  -33.1317   22.7107 C   0  0  0  0  0  0  0  0  0  0  0  0
  -25.9192  -29.3781   19.3279 C   0  0  0  0  0  0  0  0  0  0  0  0
  -25.4087  -10.4630   19.1801 C   0  0  0  0  0  0  0  0  0  0  0  0
  -25.7571  -11.6967   17.1323 C   0  0  0  0  0  0  0  0  0  0  0  0
  -27.1333  -28.6972   19.2508 C   0  0  0  0  0  0  0  0  0  0  0  0
  -24.2169   -7.3060   17.8249 C   0  0  0  0  0  0  0  0  0  0  0  0
  -23.1112   -6.5483   18.2108 C   0  0  0  0  0  0  0  0  0  0  0  0
  -26.2108  -26.9133   20.5872 C   0  0  0  0  0  0  0  0  0  0  0  0
  -28.8882  -23.3961   23.0422 C   0  0  0  0  0  0  0  0  0  0  0  0
  -21.6752   -8.4559   17.8419 C   0  0  0  0  0  0  0  0  0  0  0  0
  -26.0228  -12.7981   19.2661 C   0  0  0  0  0  0  0  0  0  0  0  0
  -27.5890  -14.3946   20.4932 C   0  0  0  0  0  0  0  0  0  0  0  0
  -23.6656  -34.4126   23.4643 C   0  0  0  0  0  0  0  0  0  0  0  0
  -24.8434  -28.8360   20.0456 C   0  0  0  0  0  0  0  0  0  0  0  0
  -24.3149  -33.1724   23.3133 C   0  0  0  0  0  0  0  0  0  0  0  0
  -24.9833  -27.5882   20.6698 C   0  0  0  0  0  0  0  0  0  0  0  0
  -27.8436  -22.8254   23.7693 C   0  0  0  0  0  0  0  0  0  0  0  0
  -28.1601  -22.2115   21.0664 C   0  0  0  0  0  0  0  0  0  0  0  0
  -29.0464  -23.0892   21.6907 C   0  0  0  0  0  0  0  0  0  0  0  0
  -27.1155  -21.6408   21.7935 C   0  0  0  0  0  0  0  0  0  0  0  0
  -25.4363  -10.5071   17.7863 C   0  0  0  0  0  0  0  0  0  0  0  0
  -27.2802  -27.4659   19.8829 C   0  0  0  0  0  0  0  0  0  0  0  0
  -24.0517   -8.6388   17.4475 C   0  0  0  0  0  0  0  0  0  0  0  0
  -21.8404   -7.1232   18.2193 C   0  0  0  0  0  0  0  0  0  0  0  0
  -22.7809   -9.2136   17.4561 C   0  0  0  0  0  0  0  0  0  0  0  0
  -26.9573  -21.9477   23.1450 C   0  0  0  0  0  0  0  0  0  0  0  0
  -26.3254  -13.9818   20.0299 C   0  0  0  0  0  0  0  0  0  0  0  0
  -27.3432  -15.5706   21.1589 C   0  0  0  0  0  0  0  0  0  0  0  0
  -28.8703  -13.7709   20.3359 C   0  0  0  0  0  0  0  0  0  0  0  0
  -23.1576  -29.7399   22.5843 C   0  0  0  0  0  0  0  0  0  0  0  0
  -21.3684  -27.1397   21.8358 C   0  0  0  0  0  0  0  0  0  0  0  0
  -29.9267  -24.9290   20.3072 C   0  0  0  0  0  0  0  0  0  0  0  0
  -21.1828  -24.0916   20.3123 C   0  0  0  0  0  0  0  0  0  0  0  0
  -24.8654  -20.5448   21.5066 C   0  0  0  0  0  0  0  0  0  0  0  0
  -22.3246  -34.5283   24.1447 C   0  0  0  0  0  0  0  0  0  0  0  0
  -23.5318  -29.5706   20.0969 C   0  0  0  0  0  0  0  0  0  0  0  0
  -23.8524  -26.9534   21.4357 C   0  0  0  0  0  0  0  0  0  0  0  0
  -21.5734  -33.2027   24.2398 C   0  0  0  0  0  0  0  0  0  0  0  0
  -22.9756  -17.7150   22.5544 C   0  0  0  0  0  0  0  0  0  0  0  0
  -22.5027  -32.0964   24.7290 C   0  0  0  0  0  0  0  0  0  0  0  0
  -23.7825  -16.5255   22.0291 C   0  0  0  0  0  0  0  0  0  0  0  0
  -23.0087  -18.8952   21.5849 C   0  0  0  0  0  0  0  0  0  0  0  0
  -25.1589  -18.1367   20.6520 C   0  0  0  0  0  0  0  0  0  0  0  0
  -23.6636  -31.8784   23.7511 C   0  0  1  0  0  0  0  0  0  0  0  0
  -22.6661  -29.1653   21.2859 C   0  0  1  0  0  0  0  0  0  0  0  0
  -25.2088  -16.9468   21.6242 C   0  0  2  0  0  0  0  0  0  0  0  0
  -27.6770  -23.1556   25.2143 C   0  0  0  0  0  0  0  0  0  0  0  0
  -28.3303  -21.8822   19.6155 C   0  0  0  0  0  0  0  0  0  0  0  0
  -19.6006  -22.1874   19.9022 C   0  0  0  0  0  0  0  0  0  0  0  0
  -21.7617  -26.1969   24.7109 C   0  0  0  0  0  0  0  0  0  0  0  0
  -21.0074  -23.9199   23.9938 C   0  0  0  0  0  0  0  0  0  0  0  0
  -19.4529  -25.8622   23.8099 C   0  0  0  0  0  0  0  0  0  0  0  0
  -31.4356  -23.0004   20.9072 C   0  0  0  0  0  0  0  0  0  0  0  0
  -21.3273  -24.4511   17.3782 C   0  0  0  0  0  0  0  0  0  0  0  0
  -28.5450  -25.5427   20.4810 C   0  0  0  0  0  0  0  0  0  1  0  0
  -21.4001  -25.6770   22.2079 C   0  0  1  0  0  0  0  0  0  0  0  0
  -20.1535  -23.4991   19.3668 C   0  0  2  0  0  0  0  0  0  0  0  0
  -20.9276  -25.4266   23.6679 C   0  0  0  0  0  0  0  0  0  0  0  0
  -25.3493  -14.8268   20.3723 N   0  0  0  0  0  0  0  0  0  0  0  0
  -25.9996  -15.7822   21.0580 N   0  0  0  0  0  0  0  0  0  0  0  0
  -22.5919  -27.7136   21.4622 N   0  0  0  0  0  0  0  0  0  0  0  0
  -24.3918  -19.2408   21.2497 N   0  0  0  0  0  0  0  0  0  0  0  0
  -28.1474  -16.4339   21.8149 N   0  0  0  0  0  0  0  0  0  0  0  0
  -28.9440  -12.5661   19.6236 N   0  0  0  0  0  0  0  0  0  0  0  0
  -26.2052  -20.7470   21.1769 N   0  0  0  0  0  0  0  0  0  0  0  0
  -23.2200  -31.1202   22.6010 N   0  0  0  0  0  0  0  0  0  0  0  0
  -20.6111  -24.9814   21.1969 N   0  0  0  0  0  0  0  0  0  0  0  0
  -30.1390  -23.6935   20.9554 N   0  0  0  0  0  0  0  0  0  0  0  0
  -20.7639  -23.2418   18.0318 N   0  3  0  0  0  0  0  0  0  0  0  0
  -29.9165  -14.2587   20.8270 O   0  0  0  0  0  0  0  0  0  0  0  0
  -23.4567  -28.9867   23.5035 O   0  0  0  0  0  0  0  0  0  0  0  0
  -20.2962  -27.7489   21.8683 O   0  0  0  0  0  0  0  0  0  0  0  0
  -30.7714  -25.5445   19.6519 O   0  0  0  0  0  0  0  0  0  0  0  0
  -22.3741  -23.7920   20.2726 O   0  0  0  0  0  0  0  0  0  0  0  0
  -24.1438  -21.4100   22.0093 O   0  0  0  0  0  0  0  0  0  0  0  0
  -25.1503   -9.3895   17.0639 O   0  0  0  0  0  0  0  0  0  0  0  0
  -28.4644  -26.7995   19.8097 O   0  0  0  0  0  0  0  0  0  1  0  0
  -20.7785   -6.3950   18.5884 F   0  0  0  0  0  0  0  0  0  0  0  0
  -22.6158  -10.4931   17.0935 F   0  0  0  0  0  0  0  0  0  0  0  0
  -25.9534  -21.4005   23.8470 F   0  0  0  0  0  0  0  0  0  0  0  0
  1  2  1  0  0  0  0
  1  5  2  0  0  0  0
  2  6  2  0  0  0  0
  3  8  2  0  0  0  0
  3 16  1  0  0  0  0
  4  9  1  0  0  0  0
  4 16  2  0  0  0  0
  5 18  1  0  0  0  0
  6 20  1  0  0  0  0
  7 10  2  0  0  0  0
  7 19  1  0  0  0  0
  8 26  1  0  0  0  0
  9 26  2  0  0  0  0
 10 27  1  0  0  0  0
 11 12  2  0  0  0  0
 11 28  1  0  0  0  0
 12 29  1  0  0  0  0
 13 21  1  0  0  0  0
 13 27  2  0  0  0  0
 14 22  2  0  0  0  0
 14 24  1  0  0  0  0
 15 29  2  0  0  0  0
 15 30  1  0  0  0  0
 16 32  1  0  0  0  0
 17 32  1  0  0  0  0
 17 33  2  0  0  0  0
 17 34  1  0  0  0  0
 18 20  2  0  0  0  0
 18 40  1  0  0  0  0
 19 21  2  0  0  0  0
 19 41  1  0  0  0  0
 20 49  1  0  0  0  0
 21 42  1  0  0  0  0
 22 31  1  0  0  0  0
 22 52  1  0  0  0  0
 23 24  2  0  0  0  0
 23 25  1  0  0  0  0
 23 53  1  0  0  0  0
 24 73  1  0  0  0  0
 25 31  2  0  0  0  0
 25 70  1  0  0  0  0
 26 81  1  0  0  0  0
 27 82  1  0  0  0  0
 28 30  2  0  0  0  0
 28 81  1  0  0  0  0
 29 83  1  0  0  0  0
 30 84  1  0  0  0  0
 31 85  1  0  0  0  0
 32 64  2  0  0  0  0
 33 65  1  0  0  0  0
 33 68  1  0  0  0  0
 34 69  1  0  0  0  0
 34 75  2  0  0  0  0
 35 50  1  0  0  0  0
 35 71  1  0  0  0  0
 35 76  2  0  0  0  0
 36 61  1  0  0  0  0
 36 66  1  0  0  0  0
 36 77  2  0  0  0  0
 37 60  1  0  0  0  0
 37 73  1  0  0  0  0
 37 78  2  0  0  0  0
 38 62  1  0  0  0  0
 38 72  1  0  0  0  0
 38 79  2  0  0  0  0
 39 67  1  0  0  0  0
 39 70  1  0  0  0  0
 39 80  2  0  0  0  0
 40 43  1  0  0  0  0
 41 50  1  0  0  0  0
 42 66  1  0  0  0  0
 43 45  1  0  0  0  0
 44 46  1  0  0  0  0
 44 47  1  0  0  0  0
 45 49  1  0  0  0  0
 46 51  1  0  0  0  0
 47 67  1  0  0  0  0
 48 51  1  0  0  0  0
 48 67  1  0  0  0  0
 49 71  1  0  0  0  0
 50 66  1  0  0  0  0
 51 65  1  0  0  0  0
 54 62  1  0  0  0  0
 55 63  1  0  0  0  0
 56 63  1  0  0  0  0
 57 63  1  0  0  0  0
 58 73  1  0  0  0  0
 59 74  1  0  0  0  0
 60 82  1  0  0  0  0
 61 63  1  0  0  0  0
 61 72  1  0  0  0  0
 62 74  1  0  0  0  0
 64 65  1  0  0  0  0
M  CHG  1  74   1
M  ISO  4  39 100  60 101  70 100  82 101
M  END
> <Batch ID>
0014

> <Smiles>
CNC(C)C(=O)NC(C(=O)N1Cc2cc([101O:1][101CH2:1]C(=O)N(C)c3cc(C)c(F)c([100NH:0][100C:0](=O)N4CCCC(n5nc(-c6ccc(Oc7ccc(F)cc7F)cc6)c(C(N)=O)c5N)C4)c3C)ccc2CC1C(=O)NC1CCCc2ccccc21)C(C)(C)C

> <Shape>
0.206

> <Color>
0.093

> <Negative vol penalty>
0.000

$$$$

  -OEChem-04052315533D

 83 91  0     1  0  0  0  0  0999 V2000
  -30.3838  -32.9118   12.1787 C   0  0  0  0  0  0  0  0  0  0  0  0
  -30.5383  -31.7560   12.9375 C   0  0  0  0  0  0  0  0  0  0  0  0
  -23.7908   -9.6061   19.7755 C   0  0  0  0  0  0  0  0  0  0  0  0
  -24.5916   -9.6748   22.0538 C   0  0  0  0  0  0  0  0  0  0  0  0
  -29.9915  -34.1003   12.7930 C   0  0  0  0  0  0  0  0  0  0  0  0
  -30.3016  -31.7884   14.3113 C   0  0  0  0  0  0  0  0  0  0  0  0
  -27.9287  -27.3067   17.7449 C   0  0  0  0  0  0  0  0  0  0  0  0
  -29.0368  -19.9184   24.1940 C   0  0  0  0  0  0  0  0  0  0  0  0
  -29.0546  -21.0352   23.3586 C   0  0  0  0  0  0  0  0  0  0  0  0
  -23.4467   -8.2640   19.9369 C   0  0  0  0  0  0  0  0  0  0  0  0
  -24.2474   -8.3327   22.2153 C   0  0  0  0  0  0  0  0  0  0  0  0
  -28.5143  -26.3439   18.5658 C   0  0  0  0  0  0  0  0  0  0  0  0
  -21.4440   -6.5327   22.7823 C   0  0  0  0  0  0  0  0  0  0  0  0
  -20.7775   -6.1725   23.9534 C   0  0  0  0  0  0  0  0  0  0  0  0
  -28.1433  -27.7611   20.4823 C   0  0  0  0  0  0  0  0  0  0  0  0
  -22.5794   -4.6642   24.5150 C   0  0  0  0  0  0  0  0  0  0  0  0
  -24.3634  -10.3114   20.8339 C   0  0  0  0  0  0  0  0  0  0  0  0
  -23.9080  -12.8200   20.9193 C   0  0  0  0  0  0  0  0  0  0  0  0
  -29.7404  -34.1450   14.1734 C   0  0  0  0  0  0  0  0  0  0  0  0
  -27.4551  -28.5106   18.2859 C   0  0  0  0  0  0  0  0  0  0  0  0
  -29.9068  -32.9790   14.9448 C   0  0  0  0  0  0  0  0  0  0  0  0
  -27.5498  -28.7365   19.6665 C   0  0  0  0  0  0  0  0  0  0  0  0
  -28.9239  -18.6401   23.6473 C   0  0  0  0  0  0  0  0  0  0  0  0
  -28.8464  -19.5955   21.4296 C   0  0  0  0  0  0  0  0  0  0  0  0
  -28.9594  -20.8737   21.9764 C   0  0  0  0  0  0  0  0  0  0  0  0
  -28.8287  -18.4786   22.2651 C   0  0  0  0  0  0  0  0  0  0  0  0
  -23.6749   -7.6273   21.1568 C   0  0  0  0  0  0  0  0  0  0  0  0
  -28.6242  -26.5722   19.9343 C   0  0  0  0  0  0  0  0  0  0  0  0
  -22.6782   -5.9586   22.4774 C   0  0  0  0  0  0  0  0  0  0  0  0
  -21.3452   -5.2383   24.8198 C   0  0  0  0  0  0  0  0  0  0  0  0
  -23.2459   -5.0244   23.3438 C   0  0  0  0  0  0  0  0  0  0  0  0
  -24.7196  -11.6976   20.6676 C   0  0  0  0  0  0  0  0  0  0  0  0
  -24.7034  -13.8956   20.6081 C   0  0  0  0  0  0  0  0  0  0  0  0
  -22.5560  -12.8846   21.3920 C   0  0  0  0  0  0  0  0  0  0  0  0
  -28.1738  -31.5821   17.8941 C   0  0  0  0  0  0  0  0  0  0  0  0
  -25.6075  -32.0273   19.8276 C   0  0  0  0  0  0  0  0  0  0  0  0
  -29.0854  -23.3498   21.5435 C   0  0  0  0  0  0  0  0  0  0  0  0
  -23.5317  -30.7643   22.2239 C   0  0  0  0  0  0  0  0  0  0  0  0
  -29.5861  -16.5640   20.8136 C   0  0  0  0  0  0  0  0  0  0  0  0
  -29.3642  -35.4641   14.8005 C   0  0  0  0  0  0  0  0  0  0  0  0
  -26.8019  -29.5277   17.3907 C   0  0  0  0  0  0  0  0  0  0  0  0
  -27.0386  -30.0038   20.2996 C   0  0  0  0  0  0  0  0  0  0  0  0
  -28.7700  -35.3258   16.1998 C   0  0  0  0  0  0  0  0  0  0  0  0
  -29.1855  -14.1096   18.2656 C   0  0  0  0  0  0  0  0  0  0  0  0
  -29.6107  -34.3743   17.0451 C   0  0  0  0  0  0  0  0  0  0  0  0
  -27.9211  -13.3556   18.6840 C   0  0  0  0  0  0  0  0  0  0  0  0
  -30.0274  -14.5189   19.4728 C   0  0  0  0  0  0  0  0  0  0  0  0
  -28.0397  -14.5119   20.9282 C   0  0  0  0  0  0  0  0  0  0  0  0
  -29.6353  -32.9683   16.4335 C   0  0  1  0  0  0  0  0  0  0  0  0
  -26.8193  -30.9368   17.9750 C   0  0  1  0  0  0  0  0  0  0  0  0
  -27.1266  -14.1356   19.7499 C   0  0  2  0  0  0  0  0  0  0  0  0
  -28.9081  -17.4634   24.5687 C   0  0  0  0  0  0  0  0  0  0  0  0
  -28.7437  -19.4242   19.9451 C   0  0  0  0  0  0  0  0  0  0  0  0
  -21.5491  -31.3772   23.6349 C   0  0  0  0  0  0  0  0  0  0  0  0
  -27.4083  -33.7176   21.6193 C   0  0  0  0  0  0  0  0  0  0  0  0
  -25.6926  -33.5011   23.4297 C   0  0  0  0  0  0  0  0  0  0  0  0
  -25.1066  -34.6378   21.2879 C   0  0  0  0  0  0  0  0  0  0  0  0
  -21.8843  -28.6018   21.0540 C   0  0  0  0  0  0  0  0  0  0  0  0
  -29.0673  -24.2707   20.3376 C   0  0  0  0  0  0  0  0  0  1  0  0
  -25.3972  -32.1265   21.3192 C   0  0  1  0  0  0  0  0  0  0  0  0
  -22.0179  -30.7418   22.3352 C   0  0  2  0  0  0  0  0  0  0  0  0
  -25.9127  -33.4726   21.9021 C   0  0  0  0  0  0  0  0  0  0  0  0
  -25.9372  -12.0294   20.2302 N   0  0  0  0  0  0  0  0  0  0  0  0
  -25.8966  -13.3725   20.2044 N   0  0  0  0  0  0  0  0  0  0  0  0
  -26.4137  -30.9704   19.3816 N   0  0  0  0  0  0  0  0  0  0  0  0
  -29.2097  -15.2571   20.4378 N   0  0  0  0  0  0  0  0  0  0  0  0
  -24.4917  -15.2284   20.6431 N   0  0  0  0  0  0  0  0  0  0  0  0
  -21.8850  -11.6844   21.6633 N   0  0  0  0  0  0  0  0  0  0  0  0
  -28.9787  -22.0208   21.1479 N   0  0  0  0  0  0  0  0  0  0  0  0
  -28.7148  -17.1790   21.7120 N   0  0  0  0  0  0  0  0  0  0  0  0
  -28.3991  -32.2717   16.7180 N   0  0  0  0  0  0  0  0  0  0  0  0
  -23.9776  -31.8806   21.5485 N   0  0  0  0  0  0  0  0  0  0  0  0
  -21.5160  -29.3393   22.2899 N   0  3  0  0  0  0  0  0  0  0  0  0
  -21.9550  -13.9738   21.5531 O   0  0  0  0  0  0  0  0  0  0  0  0
  -28.9560  -31.4643   18.8300 O   0  0  0  0  0  0  0  0  0  0  0  0
  -25.0704  -32.8529   19.0849 O   0  0  0  0  0  0  0  0  0  0  0  0
  -29.1832  -23.7878   22.6850 O   0  0  0  0  0  0  0  0  0  0  0  0
  -24.2473  -29.8818   22.6927 O   0  0  0  0  0  0  0  0  0  0  0  0
  -30.5916  -17.1083   20.3502 O   0  0  0  0  0  0  0  0  0  0  0  0
  -23.3390   -6.3178   21.3147 O   0  0  0  0  0  0  0  0  0  0  0  0
  -29.1959  -25.6344   20.7378 O   0  0  0  0  0  0  0  0  0  1  0  0
  -20.7057   -4.8937   25.9452 F   0  0  0  0  0  0  0  0  0  0  0  0
  -24.4318   -4.4703   23.0569 F   0  0  0  0  0  0  0  0  0  0  0  0
  1  2  1  0  0  0  0
  1  5  2  0  0  0  0
  2  6  2  0  0  0  0
  3 10  2  0  0  0  0
  3 17  1  0  0  0  0
  4 11  1  0  0  0  0
  4 17  2  0  0  0  0
  5 19  1  0  0  0  0
  6 21  1  0  0  0  0
  7 12  2  0  0  0  0
  7 20  1  0  0  0  0
  8  9  2  0  0  0  0
  8 23  1  0  0  0  0
  9 25  1  0  0  0  0
 10 27  1  0  0  0  0
 11 27  2  0  0  0  0
 12 28  1  0  0  0  0
 13 14  2  0  0  0  0
 13 29  1  0  0  0  0
 14 30  1  0  0  0  0
 15 22  1  0  0  0  0
 15 28  2  0  0  0  0
 16 30  2  0  0  0  0
 16 31  1  0  0  0  0
 17 32  1  0  0  0  0
 18 32  1  0  0  0  0
 18 33  2  0  0  0  0
 18 34  1  0  0  0  0
 19 21  2  0  0  0  0
 19 40  1  0  0  0  0
 20 22  2  0  0  0  0
 20 41  1  0  0  0  0
 21 49  1  0  0  0  0
 22 42  1  0  0  0  0
 23 26  2  0  0  0  0
 23 52  1  0  0  0  0
 24 25  2  0  0  0  0
 24 26  1  0  0  0  0
 24 53  1  0  0  0  0
 25 69  1  0  0  0  0
 26 70  1  0  0  0  0
 27 80  1  0  0  0  0
 28 81  1  0  0  0  0
 29 31  2  0  0  0  0
 29 80  1  0  0  0  0
 30 82  1  0  0  0  0
 31 83  1  0  0  0  0
 32 63  2  0  0  0  0
 33 64  1  0  0  0  0
 33 67  1  0  0  0  0
 34 68  1  0  0  0  0
 34 74  2  0  0  0  0
 35 50  1  0  0  0  0
 35 71  1  0  0  0  0
 35 75  2  0  0  0  0
 36 60  1  0  0  0  0
 36 65  1  0  0  0  0
 36 76  2  0  0  0  0
 37 59  1  0  0  0  0
 37 69  1  0  0  0  0
 37 77  2  0  0  0  0
 38 61  1  0  0  0  0
 38 72  1  0  0  0  0
 38 78  2  0  0  0  0
 39 66  1  0  0  0  0
 39 70  1  0  0  0  0
 39 79  2  0  0  0  0
 40 43  1  0  0  0  0
 41 50  1  0  0  0  0
 42 65  1  0  0  0  0
 43 45  1  0  0  0  0
 44 46  1  0  0  0  0
 44 47  1  0  0  0  0
 45 49  1  0  0  0  0
 46 51  1  0  0  0  0
 47 66  1  0  0  0  0
 48 51  1  0  0  0  0
 48 66  1  0  0  0  0
 49 71  1  0  0  0  0
 50 65  1  0  0  0  0
 51 64  1  0  0  0  0
 54 61  1  0  0  0  0
 55 62  1  0  0  0  0
 56 62  1  0  0  0  0
 57 62  1  0  0  0  0
 58 73  1  0  0  0  0
 59 81  1  0  0  0  0
 60 62  1  0  0  0  0
 60 72  1  0  0  0  0
 61 73  1  0  0  0  0
 63 64  1  0  0  0  0
M  CHG  1  73   1
M  ISO  4  39 100  59 101  70 100  81 101
M  END
> <Batch ID>
0014

> <Smiles>
CNC(C)C(=O)NC(C(=O)N1Cc2cc([101O:1][101CH2:1]C(=O)Nc3ccc(C)c([100NH:0][100C:0](=O)N4CCCC(n5nc(-c6ccc(Oc7ccc(F)cc7F)cc6)c(C(N)=O)c5N)C4)c3C)ccc2CC1C(=O)NC1CCCc2ccccc21)C(C)(C)C

> <Shape>
0.267

> <Color>
0.123

> <Negative vol penalty>
0.000

$$$$

  -OEChem-04052315533D

 85 93  0     1  0  0  0  0  0999 V2000
  -32.8990  -24.6464   17.7693 C   0  0  0  0  0  0  0  0  0  0  0  0
  -31.8011  -24.2269   18.5136 C   0  0  0  0  0  0  0  0  0  0  0  0
  -23.7420   -9.6439   19.8417 C   0  0  0  0  0  0  0  0  0  0  0  0
  -23.9136   -9.8844   22.2396 C   0  0  0  0  0  0  0  0  0  0  0  0
  -33.4955  -25.8767   18.0418 C   0  0  0  0  0  0  0  0  0  0  0  0
  -31.2997  -25.0371   19.5318 C   0  0  0  0  0  0  0  0  0  0  0  0
  -26.2462  -25.3542   19.4517 C   0  0  0  0  0  0  0  0  0  0  0  0
  -23.1773   -8.3795   20.0089 C   0  0  0  0  0  0  0  0  0  0  0  0
  -23.3488   -8.6200   22.4068 C   0  0  0  0  0  0  0  0  0  0  0  0
  -25.5322  -24.2744   19.9693 C   0  0  0  0  0  0  0  0  0  0  0  0
  -20.2656   -7.2393   22.3168 C   0  0  0  0  0  0  0  0  0  0  0  0
  -19.2685   -7.0991   23.2821 C   0  0  0  0  0  0  0  0  0  0  0  0
  -25.2063  -25.4854   22.0300 C   0  0  0  0  0  0  0  0  0  0  0  0
  -29.9138  -18.8666   21.6738 C   0  0  0  0  0  0  0  0  0  0  0  0
  -20.6204   -5.4663   24.4412 C   0  0  0  0  0  0  0  0  0  0  0  0
  -24.1103  -10.3963   20.9571 C   0  0  0  0  0  0  0  0  0  0  0  0
  -24.0161  -12.9336   20.7102 C   0  0  0  0  0  0  0  0  0  0  0  0
  -32.9952  -26.7068   19.0574 C   0  0  0  0  0  0  0  0  0  0  0  0
  -26.4553  -26.5054   20.2246 C   0  0  0  0  0  0  0  0  0  0  0  0
  -31.8909  -26.2792   19.8190 C   0  0  0  0  0  0  0  0  0  0  0  0
  -25.9211  -26.5795   21.5189 C   0  0  0  0  0  0  0  0  0  0  0  0
  -29.8594  -20.2574   21.5829 C   0  0  0  0  0  0  0  0  0  0  0  0
  -27.8393  -20.2650   22.9082 C   0  0  0  0  0  0  0  0  0  0  0  0
  -28.9309  -18.1749   22.3818 C   0  0  0  0  0  0  0  0  0  0  0  0
  -22.9806   -7.8676   21.2914 C   0  0  0  0  0  0  0  0  0  0  0  0
  -25.0146  -24.3387   21.2596 C   0  0  0  0  0  0  0  0  0  0  0  0
  -21.4400   -6.4930   22.4137 C   0  0  0  0  0  0  0  0  0  0  0  0
  -19.4459   -6.2126   24.3443 C   0  0  0  0  0  0  0  0  0  0  0  0
  -21.6174   -5.6065   23.4759 C   0  0  0  0  0  0  0  0  0  0  0  0
  -28.8221  -20.9566   22.2001 C   0  0  0  0  0  0  0  0  0  0  0  0
  -27.8937  -18.8741   22.9991 C   0  0  0  0  0  0  0  0  0  0  0  0
  -24.6943  -11.7023   20.7850 C   0  0  0  0  0  0  0  0  0  0  0  0
  -25.0122  -13.8649   20.5464 C   0  0  0  0  0  0  0  0  0  0  0  0
  -22.6112  -13.2108   20.7825 C   0  0  0  0  0  0  0  0  0  0  0  0
  -29.0141  -28.0071   21.3654 C   0  0  0  0  0  0  0  0  0  0  0  0
  -26.8246  -30.2156   22.2877 C   0  0  0  0  0  0  0  0  0  0  0  0
  -23.5846  -30.9221   23.0938 C   0  0  0  0  0  0  0  0  0  0  0  0
  -29.9996  -15.9489   21.8829 C   0  0  0  0  0  0  0  0  0  0  0  0
  -33.7026  -28.0070   19.3465 C   0  0  0  0  0  0  0  0  0  0  0  0
  -27.2048  -27.6722   19.6420 C   0  0  0  0  0  0  0  0  0  0  0  0
  -26.1004  -27.8006   22.3821 C   0  0  0  0  0  0  0  0  0  0  0  0
  -32.8788  -28.9733   20.1938 C   0  0  0  0  0  0  0  0  0  0  0  0
  -29.9360  -13.2772   19.5302 C   0  0  0  0  0  0  0  0  0  0  0  0
  -32.2583  -28.2457   21.3822 C   0  0  0  0  0  0  0  0  0  0  0  0
  -28.5109  -12.7306   19.6407 C   0  0  0  0  0  0  0  0  0  0  0  0
  -30.4791  -13.7235   20.8865 C   0  0  0  0  0  0  0  0  0  0  0  0
  -28.1981  -14.1195   21.7288 C   0  0  0  0  0  0  0  0  0  0  0  0
  -31.3028  -27.1410   20.9151 C   0  0  1  0  0  0  0  0  0  0  0  0
  -27.7980  -28.5921   20.7046 C   0  0  1  0  0  0  0  0  0  0  0  0
  -27.5844  -13.7175   20.3778 C   0  0  2  0  0  0  0  0  0  0  0  0
  -30.9344  -20.9559   20.8137 C   0  0  0  0  0  0  0  0  0  0  0  0
  -22.1071  -32.8070   23.8432 C   0  0  0  0  0  0  0  0  0  0  0  0
  -23.0016  -20.9743   23.0246 C   0  0  0  0  0  0  0  0  0  0  0  0
  -27.9634  -29.9834   25.1088 C   0  0  0  0  0  0  0  0  0  0  0  0
  -25.8998  -31.1170   25.9601 C   0  0  0  0  0  0  0  0  0  0  0  0
  -27.4228  -32.3172   24.3909 C   0  0  0  0  0  0  0  0  0  0  0  0
  -21.9040  -30.7240   20.6658 C   0  0  0  0  0  0  0  0  0  0  0  0
  -26.7240  -21.0178   23.5718 C   0  0  0  0  0  0  0  0  0  0  0  0
  -24.3775  -23.0881   23.1795 C   0  0  0  0  0  0  0  0  0  1  0  0
  -25.9793  -30.4334   23.5193 C   0  0  1  0  0  0  0  0  0  0  0  0
  -22.6570  -32.0393   22.6512 C   0  0  2  0  0  0  0  0  0  0  0  0
  -24.2964  -21.6028   23.5136 C   0  0  2  0  0  0  0  0  0  0  0  0
  -26.8144  -30.9389   24.7295 C   0  0  0  0  0  0  0  0  0  0  0  0
  -26.0189  -11.8358   20.6773 N   0  0  0  0  0  0  0  0  0  0  0  0
  -26.1810  -13.1621   20.5331 N   0  0  0  0  0  0  0  0  0  0  0  0
  -26.8459  -28.9128   21.7699 N   0  0  0  0  0  0  0  0  0  0  0  0
  -29.5511  -14.6602   21.5240 N   0  0  0  0  0  0  0  0  0  0  0  0
  -24.9937  -15.2082   20.4137 N   0  0  0  0  0  0  0  0  0  0  0  0
  -21.7262  -12.1374   20.9527 N   0  0  0  0  0  0  0  0  0  0  0  0
  -29.0203  -16.7625   22.4517 N   0  0  0  0  0  0  0  0  0  0  0  0
  -30.0416  -27.7099   20.4905 N   0  0  0  0  0  0  0  0  0  0  0  0
  -24.9009  -31.3316   23.1207 N   0  0  0  0  0  0  0  0  0  0  0  0
  -21.5092  -31.4844   21.8794 N   0  3  0  0  0  0  0  0  0  0  0  0
  -25.4332  -20.9048   22.8462 N   0  3  0  0  0  0  0  0  0  0  0  0
  -22.1530  -14.3743   20.6821 O   0  0  0  0  0  0  0  0  0  0  0  0
  -29.0203  -27.8392   22.5792 O   0  0  0  0  0  0  0  0  0  0  0  0
  -27.4375  -31.1679   21.7987 O   0  0  0  0  0  0  0  0  0  0  0  0
  -23.1812  -29.7995   23.3900 O   0  0  0  0  0  0  0  0  0  0  0  0
  -31.1595  -16.3138   21.6744 O   0  0  0  0  0  0  0  0  0  0  0  0
  -22.4293   -6.6339   21.4550 O   0  0  0  0  0  0  0  0  0  0  0  0
  -24.3178  -23.2859   21.7675 O   0  0  0  0  0  0  0  0  0  1  0  0
  -18.4890   -6.0792   25.2720 F   0  0  0  0  0  0  0  0  0  0  0  0
  -22.7441   -4.8877   23.5749 F   0  0  0  0  0  0  0  0  0  0  0  0
  -28.7613  -22.6846   22.0828 Cl  0  0  0  0  0  0  0  0  0  0  0  0
  -26.6718  -18.0128   23.8795 Cl  0  0  0  0  0  0  0  0  0  0  0  0
  1  2  1  0  0  0  0
  1  5  2  0  0  0  0
  2  6  2  0  0  0  0
  3  8  2  0  0  0  0
  3 16  1  0  0  0  0
  4  9  1  0  0  0  0
  4 16  2  0  0  0  0
  5 18  1  0  0  0  0
  6 20  1  0  0  0  0
  7 10  2  0  0  0  0
  7 19  1  0  0  0  0
  8 25  1  0  0  0  0
  9 25  2  0  0  0  0
 10 26  1  0  0  0  0
 11 12  2  0  0  0  0
 11 27  1  0  0  0  0
 12 28  1  0  0  0  0
 13 21  1  0  0  0  0
 13 26  2  0  0  0  0
 14 22  1  0  0  0  0
 14 24  2  0  0  0  0
 15 28  2  0  0  0  0
 15 29  1  0  0  0  0
 16 32  1  0  0  0  0
 17 32  1  0  0  0  0
 17 33  2  0  0  0  0
 17 34  1  0  0  0  0
 18 20  2  0  0  0  0
 18 39  1  0  0  0  0
 19 21  2  0  0  0  0
 19 40  1  0  0  0  0
 20 48  1  0  0  0  0
 21 41  1  0  0  0  0
 22 30  2  0  0  0  0
 22 51  1  0  0  0  0
 23 30  1  0  0  0  0
 23 31  2  0  0  0  0
 23 58  1  0  0  0  0
 24 31  1  0  0  0  0
 24 70  1  0  0  0  0
 25 80  1  0  0  0  0
 26 81  1  0  0  0  0
 27 29  2  0  0  0  0
 27 80  1  0  0  0  0
 28 82  1  0  0  0  0
 29 83  1  0  0  0  0
 30 84  1  0  0  0  0
 31 85  1  0  0  0  0
 32 64  2  0  0  0  0
 33 65  1  0  0  0  0
 33 68  1  0  0  0  0
 34 69  1  0  0  0  0
 34 75  2  0  0  0  0
 35 49  1  0  0  0  0
 35 71  1  0  0  0  0
 35 76  2  0  0  0  0
 36 60  1  0  0  0  0
 36 66  1  0  0  0  0
 36 77  2  0  0  0  0
 37 61  1  0  0  0  0
 37 72  1  0  0  0  0
 37 78  2  0  0  0  0
 38 67  1  0  0  0  0
 38 70  1  0  0  0  0
 38 79  2  0  0  0  0
 39 42  1  0  0  0  0
 40 49  1  0  0  0  0
 41 66  1  0  0  0  0
 42 44  1  0  0  0  0
 43 45  1  0  0  0  0
 43 46  1  0  0  0  0
 44 48  1  0  0  0  0
 45 50  1  0  0  0  0
 46 67  1  0  0  0  0
 47 50  1  0  0  0  0
 47 67  1  0  0  0  0
 48 71  1  0  0  0  0
 49 66  1  0  0  0  0
 50 65  1  0  0  0  0
 52 61  1  0  0  0  0
 53 62  1  0  0  0  0
 54 63  1  0  0  0  0
 55 63  1  0  0  0  0
 56 63  1  0  0  0  0
 57 73  1  0  0  0  0
 58 74  1  0  0  0  0
 59 62  1  0  0  0  0
 59 81  1  0  0  0  0
 60 63  1  0  0  0  0
 60 72  1  0  0  0  0
 61 73  1  0  0  0  0
 62 74  1  0  0  0  0
 64 65  1  0  0  0  0
M  CHG  2  73   1  74   1
M  ISO  4  38 100  59 101  70 100  81 101
M  END
> <Batch ID>
0014

> <Smiles>
CNC(C)C(=O)NC(C(=O)N1Cc2cc([101O:1][101CH2:1]C(C)NCc3c(Cl)c(C)cc([100NH:0][100C:0](=O)N4CCCC(n5nc(-c6ccc(Oc7ccc(F)cc7F)cc6)c(C(N)=O)c5N)C4)c3Cl)ccc2CC1C(=O)NC1CCCc2ccccc21)C(C)(C)C

> <Shape>
0.309

> <Color>
0.156

> <Negative vol penalty>
0.000

$$$$

  -OEChem-04052315533D

 89 97  0     1  0  0  0  0  0999 V2000
  -21.5902  -12.1467   19.7437 C   0  0  0  0  0  0  0  0  0  0  0  0
  -21.5427  -13.4065   20.3320 C   0  0  0  0  0  0  0  0  0  0  0  0
  -29.8968  -29.2266   25.2889 C   0  0  0  0  0  0  0  0  0  0  0  0
  -28.5559  -27.2964   25.8487 C   0  0  0  0  0  0  0  0  0  0  0  0
  -22.8024  -11.4629   19.6601 C   0  0  0  0  0  0  0  0  0  0  0  0
  -22.7073  -13.9829   20.8380 C   0  0  0  0  0  0  0  0  0  0  0  0
  -23.1838  -18.8558   19.5447 C   0  0  0  0  0  0  0  0  0  0  0  0
  -18.7888  -26.3001   23.0033 C   0  0  0  0  0  0  0  0  0  0  0  0
  -18.9603  -27.6843   23.0165 C   0  0  0  0  0  0  0  0  0  0  0  0
  -30.3576  -29.2879   26.6039 C   0  0  0  0  0  0  0  0  0  0  0  0
  -29.0168  -27.3576   27.1638 C   0  0  0  0  0  0  0  0  0  0  0  0
  -22.4241  -19.7813   20.2588 C   0  0  0  0  0  0  0  0  0  0  0  0
  -31.7981  -26.4782   28.8701 C   0  0  0  0  0  0  0  0  0  0  0  0
  -32.1948  -25.2843   29.4724 C   0  0  0  0  0  0  0  0  0  0  0  0
  -24.3574  -20.3294   21.5935 C   0  0  0  0  0  0  0  0  0  0  0  0
  -30.5163  -25.5897   31.1831 C   0  0  0  0  0  0  0  0  0  0  0  0
  -28.9958  -28.2309   24.9112 C   0  0  0  0  0  0  0  0  0  0  0  0
  -29.0942  -27.4571   22.4824 C   0  0  0  0  0  0  0  0  0  0  0  0
  -23.9841  -12.0353   20.1567 C   0  0  0  0  0  0  0  0  0  0  0  0
  -24.5355  -18.6519   19.8573 C   0  0  0  0  0  0  0  0  0  0  0  0
  -23.9362  -13.3055   20.7622 C   0  0  0  0  0  0  0  0  0  0  0  0
  -25.1327  -19.4025   20.8801 C   0  0  0  0  0  0  0  0  0  0  0  0
  -19.8026  -25.4764   22.5138 C   0  0  0  0  0  0  0  0  0  0  0  0
  -20.1454  -28.2449   22.5402 C   0  0  0  0  0  0  0  0  0  0  0  0
  -21.1592  -27.4212   22.0507 C   0  0  0  0  0  0  0  0  0  0  0  0
  -29.9177  -28.3534   27.5414 C   0  0  0  0  0  0  0  0  0  0  0  0
  -23.0101  -20.5162   21.2853 C   0  0  0  0  0  0  0  0  0  0  0  0
  -30.7606  -27.2280   29.4243 C   0  0  0  0  0  0  0  0  0  0  0  0
  -31.5539  -24.8400   30.6289 C   0  0  0  0  0  0  0  0  0  0  0  0
  -30.1197  -26.7837   30.5808 C   0  0  0  0  0  0  0  0  0  0  0  0
  -20.9877  -26.0370   22.0375 C   0  0  0  0  0  0  0  0  0  0  0  0
  -28.5189  -28.1675   23.5531 C   0  0  0  0  0  0  0  0  0  0  0  0
  -28.2705  -27.7187   21.4149 C   0  0  0  0  0  0  0  0  0  0  0  0
  -20.4371  -32.4035   23.6379 C   0  0  0  0  0  0  0  0  0  0  0  0
  -30.2680  -26.6344   22.4553 C   0  0  0  0  0  0  0  0  0  0  0  0
  -19.7916  -32.0316   22.5206 C   0  0  0  0  0  0  0  0  0  0  0  0
  -19.2893  -30.6106   22.4551 C   0  0  0  0  0  0  0  0  0  0  0  0
  -26.2527  -16.1817   20.8834 C   0  0  0  0  0  0  0  0  0  0  0  0
  -28.7375  -18.2129   20.4125 C   0  0  0  0  0  0  0  0  0  0  0  0
  -29.8410  -21.4331   20.1686 C   0  0  0  0  0  0  0  0  0  0  0  0
  -22.5129  -29.2575   20.9822 C   0  0  0  0  0  0  0  0  0  0  0  0
  -25.2623  -11.2378   20.0862 C   0  0  0  0  0  0  0  0  0  0  0  0
  -25.3482  -17.6690   19.0599 C   0  0  0  0  0  0  0  0  0  0  0  0
  -26.5853  -19.2358   21.2415 C   0  0  0  0  0  0  0  0  0  0  0  0
  -26.5173  -12.0777   20.3095 C   0  0  0  0  0  0  0  0  0  0  0  0
  -25.3021  -31.0664   19.7074 C   0  0  0  0  0  0  0  0  0  0  0  0
  -26.3398  -12.9922   21.5174 C   0  0  0  0  0  0  0  0  0  0  0  0
  -26.4966  -30.4595   20.4470 C   0  0  0  0  0  0  0  0  0  0  0  0
  -24.0678  -31.1584   20.6028 C   0  0  0  0  0  0  0  0  0  0  0  0
  -24.8757  -29.2955   21.9977 C   0  0  0  0  0  0  0  0  0  0  0  0
  -25.1824  -13.9745   21.3003 C   0  0  1  0  0  0  0  0  0  0  0  0
  -26.5841  -17.1728   19.8039 C   0  0  1  0  0  0  0  0  0  0  0  0
  -26.1241  -29.1225   21.1174 C   0  0  2  0  0  0  0  0  0  0  0  0
  -19.5856  -32.9949   21.3904 C   0  0  0  0  0  0  0  0  0  0  0  0
  -31.9303  -22.7783   19.8180 C   0  0  0  0  0  0  0  0  0  0  0  0
  -21.0242  -21.2467   24.6439 C   0  0  0  0  0  0  0  0  0  0  0  0
  -29.5788  -17.6522   23.2914 C   0  0  0  0  0  0  0  0  0  0  0  0
  -31.0422  -19.6809   23.1853 C   0  0  0  0  0  0  0  0  0  0  0  0
  -31.4667  -17.7575   21.6546 C   0  0  0  0  0  0  0  0  0  0  0  0
  -28.7812  -22.6479   17.6867 C   0  0  0  0  0  0  0  0  0  0  0  0
  -19.5733  -23.9937   22.5212 C   0  0  0  0  0  0  0  0  0  0  0  0
  -20.8764  -21.1495   22.1232 C   0  0  0  0  0  0  0  0  0  1  0  0
  -29.4557  -19.2375   21.2572 C   0  0  1  0  0  0  0  0  0  0  0  0
  -30.7347  -22.1172   19.1499 C   0  0  2  0  0  0  0  0  0  0  0  0
  -20.3350  -21.7832   23.3997 C   0  0  2  0  0  0  0  0  0  0  0  0
  -30.3579  -18.5840   22.3419 C   0  0  0  0  0  0  0  0  0  0  0  0
  -27.4152  -28.8306   23.1981 N   0  0  0  0  0  0  0  0  0  0  0  0
  -27.2903  -28.5381   21.8923 N   0  0  0  0  0  0  0  0  0  0  0  0
  -27.3364  -18.2580   20.4369 N   0  0  0  0  0  0  0  0  0  0  0  0
  -23.7729  -29.8540   21.1998 N   0  0  0  0  0  0  0  0  0  0  0  0
  -28.2963  -27.3254   20.1237 N   0  0  0  0  0  0  0  0  0  0  0  0
  -30.9978  -26.4722   23.6408 N   0  0  0  0  0  0  0  0  0  0  0  0
  -20.2895  -29.6356   22.5644 N   0  0  0  0  0  0  0  0  0  0  0  0
  -22.3591  -28.0034   21.5721 N   0  0  0  0  0  0  0  0  0  0  0  0
  -25.5933  -15.0552   20.4298 N   0  0  0  0  0  0  0  0  0  0  0  0
  -30.1717  -20.1039   20.3271 N   0  0  0  0  0  0  0  0  0  0  0  0
  -29.9719  -23.1626   18.4109 N   0  3  0  0  0  0  0  0  0  0  0  0
  -20.5715  -23.2545   23.3350 N   0  3  0  0  0  0  0  0  0  0  0  0
  -30.6675  -26.0733   21.4069 O   0  0  0  0  0  0  0  0  0  0  0  0
  -18.0894  -30.3859   22.3161 O   0  0  0  0  0  0  0  0  0  0  0  0
  -26.5729  -16.4205   22.0420 O   0  0  0  0  0  0  0  0  0  0  0  0
  -29.3955  -17.4071   19.7497 O   0  0  0  0  0  0  0  0  0  0  0  0
  -28.9421  -22.0202   20.7669 O   0  0  0  0  0  0  0  0  0  0  0  0
  -21.6447  -29.8059   20.2985 O   0  0  0  0  0  0  0  0  0  0  0  0
  -30.3674  -28.4127   28.8247 O   0  0  0  0  0  0  0  0  0  0  0  0
  -22.2707  -21.4197   21.9844 O   0  0  0  0  0  0  0  0  0  1  0  0
  -31.9339  -23.6927   31.2063 F   0  0  0  0  0  0  0  0  0  0  0  0
  -29.1215  -27.4990   31.1171 F   0  0  0  0  0  0  0  0  0  0  0  0
  -22.2420  -25.0035   21.4317 Cl  0  0  0  0  0  0  0  0  0  0  0  0
  1  2  1  0  0  0  0
  1  5  2  0  0  0  0
  2  6  2  0  0  0  0
  3 10  2  0  0  0  0
  3 17  1  0  0  0  0
  4 11  1  0  0  0  0
  4 17  2  0  0  0  0
  5 19  1  0  0  0  0
  6 21  1  0  0  0  0
  7 12  2  0  0  0  0
  7 20  1  0  0  0  0
  8  9  2  0  0  0  0
  8 23  1  0  0  0  0
  9 24  1  0  0  0  0
 10 26  1  0  0  0  0
 11 26  2  0  0  0  0
 12 27  1  0  0  0  0
 13 14  2  0  0  0  0
 13 28  1  0  0  0  0
 14 29  1  0  0  0  0
 15 22  1  0  0  0  0
 15 27  2  0  0  0  0
 16 29  2  0  0  0  0
 16 30  1  0  0  0  0
 17 32  1  0  0  0  0
 18 32  1  0  0  0  0
 18 33  2  0  0  0  0
 18 35  1  0  0  0  0
 19 21  2  0  0  0  0
 19 42  1  0  0  0  0
 20 22  2  0  0  0  0
 20 43  1  0  0  0  0
 21 51  1  0  0  0  0
 22 44  1  0  0  0  0
 23 31  2  0  0  0  0
 23 61  1  0  0  0  0
 24 25  2  0  0  0  0
 24 73  1  0  0  0  0
 25 31  1  0  0  0  0
 25 74  1  0  0  0  0
 26 85  1  0  0  0  0
 27 86  1  0  0  0  0
 28 30  2  0  0  0  0
 28 85  1  0  0  0  0
 29 87  1  0  0  0  0
 30 88  1  0  0  0  0
 31 89  1  0  0  0  0
 32 67  2  0  0  0  0
 33 68  1  0  0  0  0
 33 71  1  0  0  0  0
 34 36  2  0  0  0  0
 35 72  1  0  0  0  0
 35 79  2  0  0  0  0
 36 37  1  0  0  0  0
 36 54  1  0  0  0  0
 37 73  1  0  0  0  0
 37 80  2  0  0  0  0
 38 52  1  0  0  0  0
 38 75  1  0  0  0  0
 38 81  2  0  0  0  0
 39 63  1  0  0  0  0
 39 69  1  0  0  0  0
 39 82  2  0  0  0  0
 40 64  1  0  0  0  0
 40 76  1  0  0  0  0
 40 83  2  0  0  0  0
 41 70  1  0  0  0  0
 41 74  1  0  0  0  0
 41 84  2  0  0  0  0
 42 45  1  0  0  0  0
 43 52  1  0  0  0  0
 44 69  1  0  0  0  0
 45 47  1  0  0  0  0
 46 48  1  0  0  0  0
 46 49  1  0  0  0  0
 47 51  1  0  0  0  0
 48 53  1  0  0  0  0
 49 70  1  0  0  0  0
 50 53  1  0  0  0  0
 50 70  1  0  0  0  0
 51 75  1  0  0  0  0
 52 69  1  0  0  0  0
 53 68  1  0  0  0  0
 55 64  1  0  0  0  0
 56 65  1  0  0  0  0
 57 66  1  0  0  0  0
 58 66  1  0  0  0  0
 59 66  1  0  0  0  0
 60 77  1  0  0  0  0
 61 78  1  0  0  0  0
 62 65  1  0  0  0  0
 62 86  1  0  0  0  0
 63 66  1  0  0  0  0
 63 76  1  0  0  0  0
 64 77  1  0  0  0  0
 65 78  1  0  0  0  0
 67 68  1  0  0  0  0
M  CHG  2  77   1  78   1
M  ISO  4  41 100  62 101  74 100  86 101
M  END
> <Batch ID>
0014

> <Smiles>
C=C(C)C(=O)Nc1ccc(CNC(C)[101CH2:1][101O:1]c2ccc3c(c2)CN(C(=O)C(NC(=O)C(C)NC)C(C)(C)C)C(C(=O)NC2CCCc4ccccc42)C3)c(Cl)c1[100NH:0][100C:0](=O)N1CCCC(n2nc(-c3ccc(Oc4ccc(F)cc4F)cc3)c(C(N)=O)c2N)C1

> <Shape>
0.223

> <Color>
0.086

> <Negative vol penalty>
0.000

$$$$

  -OEChem-04052315533D

 81 89  0     1  0  0  0  0  0999 V2000
  -16.7785  -28.8017   23.9159 C   0  0  0  0  0  0  0  0  0  0  0  0
  -17.5309  -27.8284   23.2662 C   0  0  0  0  0  0  0  0  0  0  0  0
  -23.2279   -9.8588   19.8957 C   0  0  0  0  0  0  0  0  0  0  0  0
  -24.3041   -9.6376   22.0475 C   0  0  0  0  0  0  0  0  0  0  0  0
  -17.2024  -30.1299   23.9074 C   0  0  0  0  0  0  0  0  0  0  0  0
  -18.7072  -28.1831   22.6067 C   0  0  0  0  0  0  0  0  0  0  0  0
  -25.0160  -25.2190   24.4243 C   0  0  0  0  0  0  0  0  0  0  0  0
  -22.6498   -8.5995   20.0554 C   0  0  0  0  0  0  0  0  0  0  0  0
  -23.7260   -8.3783   22.2071 C   0  0  0  0  0  0  0  0  0  0  0  0
  -26.2272  -24.5426   24.5713 C   0  0  0  0  0  0  0  0  0  0  0  0
  -20.7167   -7.1135   23.0818 C   0  0  0  0  0  0  0  0  0  0  0  0
  -20.1436   -6.8172   24.3185 C   0  0  0  0  0  0  0  0  0  0  0  0
  -27.2503  -25.9962   22.9316 C   0  0  0  0  0  0  0  0  0  0  0  0
  -21.6700   -4.9630   24.5815 C   0  0  0  0  0  0  0  0  0  0  0  0
  -24.0551  -10.3779   20.8918 C   0  0  0  0  0  0  0  0  0  0  0  0
  -23.9848  -12.9060   20.5579 C   0  0  0  0  0  0  0  0  0  0  0  0
  -18.3895  -30.4994   23.2556 C   0  0  0  0  0  0  0  0  0  0  0  0
  -24.9214  -26.2977   23.5407 C   0  0  0  0  0  0  0  0  0  0  0  0
  -19.1467  -29.5177   22.5883 C   0  0  0  0  0  0  0  0  0  0  0  0
  -26.0430  -26.6855   22.7894 C   0  0  0  0  0  0  0  0  0  0  0  0
  -22.8988   -7.8592   21.2111 C   0  0  0  0  0  0  0  0  0  0  0  0
  -27.3415  -24.9301   23.8266 C   0  0  0  0  0  0  0  0  0  0  0  0
  -21.7664   -6.3345   22.5949 C   0  0  0  0  0  0  0  0  0  0  0  0
  -20.6203   -5.7420   25.0683 C   0  0  0  0  0  0  0  0  0  0  0  0
  -22.2430   -5.2592   23.3447 C   0  0  0  0  0  0  0  0  0  0  0  0
  -24.6529  -11.6785   20.7272 C   0  0  0  0  0  0  0  0  0  0  0  0
  -24.9923  -13.8329   20.4473 C   0  0  0  0  0  0  0  0  0  0  0  0
  -22.5791  -13.1835   20.5052 C   0  0  0  0  0  0  0  0  0  0  0  0
  -22.7644  -28.9855   22.0577 C   0  0  0  0  0  0  0  0  0  0  0  0
  -29.6590  -22.2059   23.7479 C   0  0  0  0  0  0  0  0  0  0  0  0
  -25.5203  -30.2335   22.5656 C   0  0  0  0  0  0  0  0  0  0  0  0
  -28.0966  -31.2546   24.0565 C   0  0  0  0  0  0  0  0  0  0  0  0
  -29.9000  -15.6979   22.6276 C   0  0  0  0  0  0  0  0  0  0  0  0
  -18.7825  -31.9554   23.2334 C   0  0  0  0  0  0  0  0  0  0  0  0
  -23.6206  -27.0162   23.3048 C   0  0  0  0  0  0  0  0  0  0  0  0
  -25.8854  -27.8295   21.8254 C   0  0  0  0  0  0  0  0  0  0  0  0
  -20.2363  -32.1877   22.8299 C   0  0  0  0  0  0  0  0  0  0  0  0
  -29.9724  -13.2534   19.8490 C   0  0  0  0  0  0  0  0  0  0  0  0
  -20.5876  -31.3589   21.5985 C   0  0  0  0  0  0  0  0  0  0  0  0
  -28.5558  -12.6816   19.8714 C   0  0  0  0  0  0  0  0  0  0  0  0
  -28.3882  -18.7995   23.9722 C   0  0  0  0  0  0  0  0  0  0  0  0
  -30.5466  -18.8969   22.6685 C   0  0  0  0  0  0  0  0  0  0  0  0
  -30.4136  -13.7298   21.2296 C   0  0  0  0  0  0  0  0  0  0  0  0
  -28.8392  -20.0253   24.7653 C   0  0  0  0  0  0  0  0  0  0  0  0
  -30.9567  -20.1173   23.4897 C   0  0  0  0  0  0  0  0  0  0  0  0
  -28.0621  -14.1302   21.8809 C   0  0  0  0  0  0  0  0  0  0  0  0
  -20.4413  -29.8591   21.8829 C   0  0  1  0  0  0  0  0  0  0  0  0
  -23.8023  -28.5209   23.0367 C   0  0  1  0  0  0  0  0  0  0  0  0
  -27.5696  -13.6837   20.4961 C   0  0  2  0  0  0  0  0  0  0  0  0
  -29.5862  -17.9997   23.4538 C   0  0  0  0  0  0  0  0  0  0  0  0
  -30.0971  -32.4233   25.0208 C   0  0  0  0  0  0  0  0  0  0  0  0
  -26.1926  -29.8995   19.6092 C   0  0  0  0  0  0  0  0  0  0  0  0
  -28.2425  -31.2851   19.9917 C   0  0  0  0  0  0  0  0  0  0  0  0
  -25.9832  -32.2726   20.3702 C   0  0  0  0  0  0  0  0  0  0  0  0
  -28.0807  -17.1795   21.6801 C   0  0  0  0  0  0  0  0  0  0  0  0
  -26.4401  -32.7090   26.0312 C   0  0  0  0  0  0  0  0  0  0  0  0
  -28.4509  -22.8891   24.3377 C   0  0  0  0  0  0  0  0  0  1  0  0
  -26.8804  -30.5669   22.0066 C   0  0  1  0  0  0  0  0  0  0  0  0
  -28.5955  -32.4873   24.7887 C   0  0  2  0  0  0  0  0  0  0  0  0
  -26.8202  -30.9824   20.5095 C   0  0  0  0  0  0  0  0  0  0  0  0
  -25.9821  -11.8103   20.7250 N   0  0  0  0  0  0  0  0  0  0  0  0
  -26.1573  -13.1315   20.5528 N   0  0  0  0  0  0  0  0  0  0  0  0
  -25.0959  -28.9046   22.4464 N   0  0  0  0  0  0  0  0  0  0  0  0
  -29.7835  -20.8373   23.9883 N   0  0  0  0  0  0  0  0  0  0  0  0
  -29.4374  -14.6472   21.8184 N   0  0  0  0  0  0  0  0  0  0  0  0
  -24.9865  -15.1713   20.2712 N   0  0  0  0  0  0  0  0  0  0  0  0
  -21.9380  -13.1519   19.2593 N   0  0  0  0  0  0  0  0  0  0  0  0
  -21.5746  -29.3757   22.6421 N   0  0  0  0  0  0  0  0  0  0  0  0
  -27.4453  -31.5841   22.8867 N   0  0  0  0  0  0  0  0  0  0  0  0
  -29.1411  -16.8780   22.6393 N   0  0  0  0  0  0  0  0  0  0  0  0
  -27.9204  -32.6127   26.1114 N   0  3  0  0  0  0  0  0  0  0  0  0
  -21.9146  -13.4677   21.5305 O   0  0  0  0  0  0  0  0  0  0  0  0
  -23.0234  -28.9916   20.8600 O   0  0  0  0  0  0  0  0  0  0  0  0
  -30.4654  -22.8698   23.0912 O   0  0  0  0  0  0  0  0  0  0  0  0
  -24.8480  -31.1264   23.0891 O   0  0  0  0  0  0  0  0  0  0  0  0
  -28.2709  -30.1134   24.4781 O   0  0  0  0  0  0  0  0  0  0  0  0
  -30.9376  -15.5908   23.2938 O   0  0  0  0  0  0  0  0  0  0  0  0
  -22.3348   -6.6304   21.3673 O   0  0  0  0  0  0  0  0  0  0  0  0
  -28.5221  -24.2683   23.9783 O   0  0  0  0  0  0  0  0  0  1  0  0
  -20.0709   -5.4585   26.2566 F   0  0  0  0  0  0  0  0  0  0  0  0
  -23.2520   -4.5080   22.8828 F   0  0  0  0  0  0  0  0  0  0  0  0
  1  2  1  0  0  0  0
  1  5  2  0  0  0  0
  2  6  2  0  0  0  0
  3  8  2  0  0  0  0
  3 15  1  0  0  0  0
  4  9  1  0  0  0  0
  4 15  2  0  0  0  0
  5 17  1  0  0  0  0
  6 19  1  0  0  0  0
  7 10  2  0  0  0  0
  7 18  1  0  0  0  0
  8 21  1  0  0  0  0
  9 21  2  0  0  0  0
 10 22  1  0  0  0  0
 11 12  2  0  0  0  0
 11 23  1  0  0  0  0
 12 24  1  0  0  0  0
 13 20  1  0  0  0  0
 13 22  2  0  0  0  0
 14 24  2  0  0  0  0
 14 25  1  0  0  0  0
 15 26  1  0  0  0  0
 16 26  1  0  0  0  0
 16 27  2  0  0  0  0
 16 28  1  0  0  0  0
 17 19  2  0  0  0  0
 17 34  1  0  0  0  0
 18 20  2  0  0  0  0
 18 35  1  0  0  0  0
 19 47  1  0  0  0  0
 20 36  1  0  0  0  0
 21 78  1  0  0  0  0
 22 79  1  0  0  0  0
 23 25  2  0  0  0  0
 23 78  1  0  0  0  0
 24 80  1  0  0  0  0
 25 81  1  0  0  0  0
 26 61  2  0  0  0  0
 27 62  1  0  0  0  0
 27 66  1  0  0  0  0
 28 67  1  0  0  0  0
 28 72  2  0  0  0  0
 29 48  1  0  0  0  0
 29 68  1  0  0  0  0
 29 73  2  0  0  0  0
 30 57  1  0  0  0  0
 30 64  1  0  0  0  0
 30 74  2  0  0  0  0
 31 58  1  0  0  0  0
 31 63  1  0  0  0  0
 31 75  2  0  0  0  0
 32 59  1  0  0  0  0
 32 69  1  0  0  0  0
 32 76  2  0  0  0  0
 33 65  1  0  0  0  0
 33 70  1  0  0  0  0
 33 77  2  0  0  0  0
 34 37  1  0  0  0  0
 35 48  1  0  0  0  0
 36 63  1  0  0  0  0
 37 39  1  0  0  0  0
 38 40  1  0  0  0  0
 38 43  1  0  0  0  0
 39 47  1  0  0  0  0
 40 49  1  0  0  0  0
 41 44  1  0  0  0  0
 41 50  1  0  0  0  0
 42 45  1  0  0  0  0
 42 50  1  0  0  0  0
 43 65  1  0  0  0  0
 44 64  1  0  0  0  0
 45 64  1  0  0  0  0
 46 49  1  0  0  0  0
 46 65  1  0  0  0  0
 47 68  1  0  0  0  0
 48 63  1  0  0  0  0
 49 62  1  0  0  0  0
 50 70  1  0  0  0  0
 51 59  1  0  0  0  0
 52 60  1  0  0  0  0
 53 60  1  0  0  0  0
 54 60  1  0  0  0  0
 55 70  1  0  0  0  0
 56 71  1  0  0  0  0
 57 79  1  0  0  0  0
 58 60  1  0  0  0  0
 58 69  1  0  0  0  0
 59 71  1  0  0  0  0
 61 62  1  0  0  0  0
M  CHG  1  71   1
M  ISO  4  33 100  57 101  70 100  79 101
M  END
> <Batch ID>
0014

> <Smiles>
CNC(C)C(=O)NC(C(=O)N1Cc2cc([101O:1][101CH2:1]C(=O)N3CCC([100N:0](C)[100C:0](=O)N4CCCC(n5nc(-c6ccc(Oc7ccc(F)cc7F)cc6)c(C(N)=O)c5N)C4)CC3)ccc2CC1C(=O)NC1CCCc2ccccc21)C(C)(C)C

> <Shape>
0.305

> <Color>
0.161

> <Negative vol penalty>
0.000

$$$$

  -OEChem-04052315533D

 82 90  0     1  0  0  0  0  0999 V2000
  -26.7950  -33.8109   27.7637 C   0  0  0  0  0  0  0  0  0  0  0  0
  -27.3299  -32.9406   26.8192 C   0  0  0  0  0  0  0  0  0  0  0  0
  -26.4280  -12.4084   21.5137 C   0  0  0  0  0  0  0  0  0  0  0  0
  -26.1609  -13.1723   19.2372 C   0  0  0  0  0  0  0  0  0  0  0  0
  -25.4355  -33.7569   28.0686 C   0  0  0  0  0  0  0  0  0  0  0  0
  -26.5058  -32.0151   26.1799 C   0  0  0  0  0  0  0  0  0  0  0  0
  -26.9692  -30.0499   20.3981 C   0  0  0  0  0  0  0  0  0  0  0  0
  -25.1662  -11.8161   21.4630 C   0  0  0  0  0  0  0  0  0  0  0  0
  -24.8991  -12.5799   19.1865 C   0  0  0  0  0  0  0  0  0  0  0  0
  -27.5294  -28.9018   19.8397 C   0  0  0  0  0  0  0  0  0  0  0  0
  -23.7863   -8.9977   20.2037 C   0  0  0  0  0  0  0  0  0  0  0  0
  -23.6564   -7.7047   20.7103 C   0  0  0  0  0  0  0  0  0  0  0  0
  -25.3567  -27.8537   19.8300 C   0  0  0  0  0  0  0  0  0  0  0  0
  -29.1432  -22.1346   18.4896 C   0  0  0  0  0  0  0  0  0  0  0  0
  -22.0359   -8.4972   22.3176 C   0  0  0  0  0  0  0  0  0  0  0  0
  -28.5411  -21.3521   15.8805 C   0  0  0  0  0  0  0  0  0  0  0  0
  -26.9254  -13.0866   20.4008 C   0  0  0  0  0  0  0  0  0  0  0  0
  -29.4596  -13.1088   20.1100 C   0  0  0  0  0  0  0  0  0  0  0  0
  -24.5926  -32.8368   27.4256 C   0  0  0  0  0  0  0  0  0  0  0  0
  -25.5981  -30.1047   20.6872 C   0  0  0  0  0  0  0  0  0  0  0  0
  -25.1341  -31.9479   26.4774 C   0  0  0  0  0  0  0  0  0  0  0  0
  -24.7811  -29.0046   20.3897 C   0  0  0  0  0  0  0  0  0  0  0  0
  -29.2799  -20.7985   18.1131 C   0  0  0  0  0  0  0  0  0  0  0  0
  -28.7054  -23.0795   17.5616 C   0  0  0  0  0  0  0  0  0  0  0  0
  -24.4018  -11.9018   20.2994 C   0  0  0  0  0  0  0  0  0  0  0  0
  -26.7236  -27.8024   19.5582 C   0  0  0  0  0  0  0  0  0  0  0  0
  -23.0411  -10.0406   20.7541 C   0  0  0  0  0  0  0  0  0  0  0  0
  -22.7812   -7.4544   21.7672 C   0  0  0  0  0  0  0  0  0  0  0  0
  -28.9789  -20.4073   16.8086 C   0  0  0  0  0  0  0  0  0  0  0  0
  -28.4043  -22.6882   16.2570 C   0  0  0  0  0  0  0  0  0  0  0  0
  -22.1659   -9.7903   21.8110 C   0  0  0  0  0  0  0  0  0  0  0  0
  -28.2285  -13.6992   20.4527 C   0  0  0  0  0  0  0  0  0  0  0  0
  -30.3877  -14.0967   20.3317 C   0  0  0  0  0  0  0  0  0  0  0  0
  -29.7393  -11.7857   19.6337 C   0  0  0  0  0  0  0  0  0  0  0  0
  -23.8766  -30.4664   23.3347 C   0  0  0  0  0  0  0  0  0  0  0  0
  -21.3996  -30.5748   21.2431 C   0  0  0  0  0  0  0  0  0  0  0  0
  -20.1652  -29.7535   18.1692 C   0  0  0  0  0  0  0  0  0  0  0  0
  -30.0637  -20.0630   20.3915 C   0  0  0  0  0  0  0  0  0  0  0  0
  -23.1385  -32.7839   27.8227 C   0  0  0  0  0  0  0  0  0  0  0  0
  -25.0046  -31.3603   21.2648 C   0  0  0  0  0  0  0  0  0  0  0  0
  -23.2999  -29.0202   20.6622 C   0  0  0  0  0  0  0  0  0  0  0  0
  -22.2625  -32.0269   26.8278 C   0  0  0  0  0  0  0  0  0  0  0  0
  -31.1646  -17.9635   23.0480 C   0  0  0  0  0  0  0  0  0  0  0  0
  -22.9193  -30.7076   26.4343 C   0  0  0  0  0  0  0  0  0  0  0  0
  -30.6539  -16.5769   22.6497 C   0  0  0  0  0  0  0  0  0  0  0  0
  -30.1768  -19.0637   22.6639 C   0  0  0  0  0  0  0  0  0  0  0  0
  -29.2451  -17.6699   20.8588 C   0  0  0  0  0  0  0  0  0  0  0  0
  -24.2678  -30.9467   25.7445 C   0  0  1  0  0  0  0  0  0  0  0  0
  -23.6867  -31.1176   21.9940 C   0  0  1  0  0  0  0  0  0  0  0  0
  -30.2354  -16.5350   21.1670 C   0  0  2  0  0  0  0  0  0  0  0  0
  -18.0963  -29.9448   16.7619 C   0  0  0  0  0  0  0  0  0  0  0  0
  -20.0863  -28.3575   22.8767 C   0  0  0  0  0  0  0  0  0  0  0  0
  -18.5460  -27.9435   20.9469 C   0  0  0  0  0  0  0  0  0  0  0  0
  -18.5233  -30.1517   22.1071 C   0  0  0  0  0  0  0  0  0  0  0  0
  -21.5814  -31.3173   16.0936 C   0  0  0  0  0  0  0  0  0  0  0  0
  -28.8615  -24.8950   19.2660 C   0  0  0  0  0  0  0  0  0  0  0  0
  -28.6278  -26.3947   19.3387 C   0  0  0  0  0  0  0  0  0  1  0  0
  -20.4794  -29.5519   20.6218 C   0  0  1  0  0  0  0  0  0  0  0  0
  -19.4310  -30.5763   17.1259 C   0  0  2  0  0  0  0  0  0  0  0  0
  -19.4370  -28.9998   21.6347 C   0  0  0  0  0  0  0  0  0  0  0  0
  -28.3592  -14.9641   20.8613 N   0  0  0  0  0  0  0  0  0  0  0  0
  -29.6835  -15.1766   20.7767 N   0  0  0  0  0  0  0  0  0  0  0  0
  -22.7678  -30.2685   21.2332 N   0  0  0  0  0  0  0  0  0  0  0  0
  -29.8294  -18.9639   21.2446 N   0  0  0  0  0  0  0  0  0  0  0  0
  -31.7293  -14.1383   20.1874 N   0  0  0  0  0  0  0  0  0  0  0  0
  -28.6691  -10.8973   19.4619 N   0  0  0  0  0  0  0  0  0  0  0  0
  -29.7241  -19.8401   19.0575 N   0  0  0  0  0  0  0  0  0  0  0  0
  -28.5709  -24.4057   17.9378 N   0  0  0  0  0  0  0  0  0  0  0  0
  -24.0673  -31.3593   24.3719 N   0  0  0  0  0  0  0  0  0  0  0  0
  -19.8926  -30.1901   19.4484 N   0  0  0  0  0  0  0  0  0  0  0  0
  -20.2502  -30.6911   15.8863 N   0  3  0  0  0  0  0  0  0  0  0  0
  -30.9057  -11.3974   19.3839 O   0  0  0  0  0  0  0  0  0  0  0  0
  -23.8505  -29.2444   23.4220 O   0  0  0  0  0  0  0  0  0  0  0  0
  -20.9227  -31.6107   21.7132 O   0  0  0  0  0  0  0  0  0  0  0  0
  -20.9035  -28.8149   17.8787 O   0  0  0  0  0  0  0  0  0  0  0  0
  -30.5564  -21.1145   20.8082 O   0  0  0  0  0  0  0  0  0  0  0  0
  -23.1706  -11.3236   20.2495 O   0  0  0  0  0  0  0  0  0  0  0  0
  -27.2680  -26.6803   19.0138 O   0  0  0  0  0  0  0  0  0  1  0  0
  -22.6554   -6.2123   22.2526 F   0  0  0  0  0  0  0  0  0  0  0  0
  -29.1085  -19.1261   16.4354 F   0  0  0  0  0  0  0  0  0  0  0  0
  -27.9815  -23.5879   15.3574 F   0  0  0  0  0  0  0  0  0  0  0  0
  -21.4464  -10.7878   22.3430 F   0  0  0  0  0  0  0  0  0  0  0  0
  1  2  1  0  0  0  0
  1  5  2  0  0  0  0
  2  6  2  0  0  0  0
  3  8  2  0  0  0  0
  3 17  1  0  0  0  0
  4  9  1  0  0  0  0
  4 17  2  0  0  0  0
  5 19  1  0  0  0  0
  6 21  1  0  0  0  0
  7 10  2  0  0  0  0
  7 20  1  0  0  0  0
  8 25  1  0  0  0  0
  9 25  2  0  0  0  0
 10 26  1  0  0  0  0
 11 12  2  0  0  0  0
 11 27  1  0  0  0  0
 12 28  1  0  0  0  0
 13 22  1  0  0  0  0
 13 26  2  0  0  0  0
 14 23  2  0  0  0  0
 14 24  1  0  0  0  0
 15 28  2  0  0  0  0
 15 31  1  0  0  0  0
 16 29  2  0  0  0  0
 16 30  1  0  0  0  0
 17 32  1  0  0  0  0
 18 32  1  0  0  0  0
 18 33  2  0  0  0  0
 18 34  1  0  0  0  0
 19 21  2  0  0  0  0
 19 39  1  0  0  0  0
 20 22  2  0  0  0  0
 20 40  1  0  0  0  0
 21 48  1  0  0  0  0
 22 41  1  0  0  0  0
 23 29  1  0  0  0  0
 23 67  1  0  0  0  0
 24 30  2  0  0  0  0
 24 68  1  0  0  0  0
 25 77  1  0  0  0  0
 26 78  1  0  0  0  0
 27 31  2  0  0  0  0
 27 77  1  0  0  0  0
 28 79  1  0  0  0  0
 29 80  1  0  0  0  0
 30 81  1  0  0  0  0
 31 82  1  0  0  0  0
 32 61  2  0  0  0  0
 33 62  1  0  0  0  0
 33 65  1  0  0  0  0
 34 66  1  0  0  0  0
 34 72  2  0  0  0  0
 35 49  1  0  0  0  0
 35 69  1  0  0  0  0
 35 73  2  0  0  0  0
 36 58  1  0  0  0  0
 36 63  1  0  0  0  0
 36 74  2  0  0  0  0
 37 59  1  0  0  0  0
 37 70  1  0  0  0  0
 37 75  2  0  0  0  0
 38 64  1  0  0  0  0
 38 67  1  0  0  0  0
 38 76  2  0  0  0  0
 39 42  1  0  0  0  0
 40 49  1  0  0  0  0
 41 63  1  0  0  0  0
 42 44  1  0  0  0  0
 43 45  1  0  0  0  0
 43 46  1  0  0  0  0
 44 48  1  0  0  0  0
 45 50  1  0  0  0  0
 46 64  1  0  0  0  0
 47 50  1  0  0  0  0
 47 64  1  0  0  0  0
 48 69  1  0  0  0  0
 49 63  1  0  0  0  0
 50 62  1  0  0  0  0
 51 59  1  0  0  0  0
 52 60  1  0  0  0  0
 53 60  1  0  0  0  0
 54 60  1  0  0  0  0
 55 71  1  0  0  0  0
 56 57  1  0  0  0  0
 56 68  1  0  0  0  0
 57 78  1  0  0  0  0
 58 60  1  0  0  0  0
 58 70  1  0  0  0  0
 59 71  1  0  0  0  0
 61 62  1  0  0  0  0
M  CHG  1  71   1
M  ISO  4  38 100  57 101  67 100  78 101
M  END
> <Batch ID>
0014

> <Smiles>
CNC(C)C(=O)NC(C(=O)N1Cc2cc([101O:1][101CH2:1]CNc3cc([100NH:0][100C:0](=O)N4CCCC(n5nc(-c6ccc(Oc7ccc(F)cc7F)cc6)c(C(N)=O)c5N)C4)c(F)cc3F)ccc2CC1C(=O)NC1CCCc2ccccc21)C(C)(C)C

> <Shape>
0.312

> <Color>
0.089

> <Negative vol penalty>
0.000

$$$$

  -OEChem-04052315533D

 84 92  0     1  0  0  0  0  0999 V2000
  -30.5585  -29.9821   25.9602 C   0  0  0  0  0  0  0  0  0  0  0  0
  -30.0361  -28.8249   25.3914 C   0  0  0  0  0  0  0  0  0  0  0  0
  -23.0733   -9.9105   19.8939 C   0  0  0  0  0  0  0  0  0  0  0  0
  -23.9648   -9.7668   22.1348 C   0  0  0  0  0  0  0  0  0  0  0  0
  -29.8199  -31.1644   25.9353 C   0  0  0  0  0  0  0  0  0  0  0  0
  -28.7743  -28.8492   24.7983 C   0  0  0  0  0  0  0  0  0  0  0  0
  -28.6791  -26.4575   20.3356 C   0  0  0  0  0  0  0  0  0  0  0  0
  -22.3722   -8.7218   20.0966 C   0  0  0  0  0  0  0  0  0  0  0  0
  -23.2637   -8.5781   22.3375 C   0  0  0  0  0  0  0  0  0  0  0  0
  -28.6326  -25.0643   20.3607 C   0  0  0  0  0  0  0  0  0  0  0  0
  -20.0954   -7.6489   23.0579 C   0  0  0  0  0  0  0  0  0  0  0  0
  -19.4089   -7.5006   24.2630 C   0  0  0  0  0  0  0  0  0  0  0  0
  -29.1073  -17.1715   20.0187 C   0  0  0  0  0  0  0  0  0  0  0  0
  -26.2566  -25.1423   19.9515 C   0  0  0  0  0  0  0  0  0  0  0  0
  -28.0082  -18.7842   22.0122 C   0  0  0  0  0  0  0  0  0  0  0  0
  -20.7356   -5.5484   24.7786 C   0  0  0  0  0  0  0  0  0  0  0  0
  -23.8697  -10.4329   20.9130 C   0  0  0  0  0  0  0  0  0  0  0  0
  -29.3122  -16.8570   21.3621 C   0  0  0  0  0  0  0  0  0  0  0  0
  -24.1453  -12.9684   20.9669 C   0  0  0  0  0  0  0  0  0  0  0  0
  -28.5525  -31.2055   25.3330 C   0  0  0  0  0  0  0  0  0  0  0  0
  -27.5109  -27.2050   20.1288 C   0  0  0  0  0  0  0  0  0  0  0  0
  -28.0176  -30.0328   24.7665 C   0  0  0  0  0  0  0  0  0  0  0  0
  -26.2913  -26.5448   19.9217 C   0  0  0  0  0  0  0  0  0  0  0  0
  -27.8034  -19.0987   20.6688 C   0  0  0  0  0  0  0  0  0  0  0  0
  -22.4673   -8.0556   21.3184 C   0  0  0  0  0  0  0  0  0  0  0  0
  -27.4207  -24.4065   20.1716 C   0  0  0  0  0  0  0  0  0  0  0  0
  -21.1020   -6.7468   22.7131 C   0  0  0  0  0  0  0  0  0  0  0  0
  -19.7290   -6.4504   25.1234 C   0  0  0  0  0  0  0  0  0  0  0  0
  -28.3529  -18.2925   19.6720 C   0  0  0  0  0  0  0  0  0  0  0  0
  -28.7627  -17.6633   22.3588 C   0  0  0  0  0  0  0  0  0  0  0  0
  -21.4221   -5.6967   23.5734 C   0  0  0  0  0  0  0  0  0  0  0  0
  -24.5947  -11.6605   20.7040 C   0  0  0  0  0  0  0  0  0  0  0  0
  -25.1968  -13.7728   20.6010 C   0  0  0  0  0  0  0  0  0  0  0  0
  -30.0997  -15.6876   21.7192 C   0  0  0  0  0  0  0  0  0  0  0  0
  -22.8897  -13.4163   21.4947 C   0  0  0  0  0  0  0  0  0  0  0  0
  -30.6913  -14.8199   20.6750 C   0  0  0  0  0  0  0  0  0  0  0  0
  -25.8843  -29.3414   21.8299 C   0  0  0  0  0  0  0  0  0  0  0  0
  -24.1353  -29.5978   19.1100 C   0  0  0  0  0  0  0  0  0  0  0  0
  -23.0869  -28.1677   16.1941 C   0  0  0  0  0  0  0  0  0  0  0  0
  -27.7716  -32.4952   25.3724 C   0  0  0  0  0  0  0  0  0  0  0  0
  -27.5824  -28.7066   20.0779 C   0  0  0  0  0  0  0  0  0  0  0  0
  -25.0121  -27.3007   19.6756 C   0  0  0  0  0  0  0  0  0  0  0  0
  -26.6011  -32.5286   24.3931 C   0  0  0  0  0  0  0  0  0  0  0  0
  -29.4293  -12.7230   18.0544 C   0  0  0  0  0  0  0  0  0  0  0  0
  -25.7996  -31.2333   24.4748 C   0  0  0  0  0  0  0  0  0  0  0  0
  -28.0368  -12.3361   18.5515 C   0  0  0  0  0  0  0  0  0  0  0  0
  -30.4164  -12.8591   19.2092 C   0  0  0  0  0  0  0  0  0  0  0  0
  -28.5786  -13.4311   20.7725 C   0  0  0  0  0  0  0  0  0  0  0  0
  -26.6630  -30.0252   24.0919 C   0  0  1  0  0  0  0  0  0  0  0  0
  -26.2447  -29.3788   20.3717 C   0  0  1  0  0  0  0  0  0  0  0  0
  -27.5473  -13.3112   19.6370 C   0  0  2  0  0  0  0  0  0  0  0  0
  -21.6319  -28.6057   14.1969 C   0  0  0  0  0  0  0  0  0  0  0  0
  -25.1763  -20.4531   21.8299 C   0  0  0  0  0  0  0  0  0  0  0  0
  -21.6539  -29.0667   20.8043 C   0  0  0  0  0  0  0  0  0  0  0  0
  -20.4024  -28.5751   18.6923 C   0  0  0  0  0  0  0  0  0  0  0  0
  -21.3703  -30.8434   19.0672 C   0  0  0  0  0  0  0  0  0  0  0  0
  -25.3765  -27.9450   14.3320 C   0  0  0  0  0  0  0  0  0  0  0  0
  -26.1591  -22.4481   20.6499 C   0  0  0  0  0  0  0  0  0  1  0  0
  -22.9129  -28.9066   18.5559 C   0  0  1  0  0  0  0  0  0  0  0  0
  -23.0363  -28.6988   14.7729 C   0  0  2  0  0  0  0  0  0  0  0  0
  -26.4508  -21.0979   21.3011 C   0  0  2  0  0  0  0  0  0  0  0  0
  -21.6085  -29.3335   19.2865 C   0  0  0  0  0  0  0  0  0  0  0  0
  -25.8349  -11.6311   20.2092 N   0  0  0  0  0  0  0  0  0  0  0  0
  -26.1739  -12.9305   20.1582 N   0  0  0  0  0  0  0  0  0  0  0  0
  -29.9053  -13.7629   20.2378 N   0  0  0  0  0  0  0  0  0  0  0  0
  -25.1325  -28.7676   19.6411 N   0  0  0  0  0  0  0  0  0  0  0  0
  -25.3716  -15.1113   20.6181 N   0  0  0  0  0  0  0  0  0  0  0  0
  -21.9204  -12.4569   21.8179 N   0  0  0  0  0  0  0  0  0  0  0  0
  -27.0551  -20.2103   20.3277 N   0  0  0  0  0  0  0  0  0  0  0  0
  -26.8132  -29.9466   22.6547 N   0  0  0  0  0  0  0  0  0  0  0  0
  -22.9087  -29.1725   17.1214 N   0  0  0  0  0  0  0  0  0  0  0  0
  -23.9565  -27.9207   13.8961 N   0  3  0  0  0  0  0  0  0  0  0  0
  -30.3355  -15.3307   22.8770 O   0  0  0  0  0  0  0  0  0  0  0  0
  -22.6286  -14.6322   21.6589 O   0  0  0  0  0  0  0  0  0  0  0  0
  -31.8171  -15.1295   20.3075 O   0  0  0  0  0  0  0  0  0  0  0  0
  -24.8399  -28.8047   22.1805 O   0  0  0  0  0  0  0  0  0  0  0  0
  -24.2059  -30.8285   19.0665 O   0  0  0  0  0  0  0  0  0  0  0  0
  -23.2628  -26.9797   16.4553 O   0  0  0  0  0  0  0  0  0  0  0  0
  -21.7831   -6.8958   21.5166 O   0  0  0  0  0  0  0  0  0  0  0  0
  -27.3724  -23.0468   20.1963 O   0  0  0  0  0  0  0  0  0  1  0  0
  -19.0708   -6.3091   26.2814 F   0  0  0  0  0  0  0  0  0  0  0  0
  -28.1623  -18.5855   18.3778 F   0  0  0  0  0  0  0  0  0  0  0  0
  -28.9531  -17.3703   23.6532 F   0  0  0  0  0  0  0  0  0  0  0  0
  -22.3890   -4.8276   23.2482 F   0  0  0  0  0  0  0  0  0  0  0  0
  1  2  1  0  0  0  0
  1  5  2  0  0  0  0
  2  6  2  0  0  0  0
  3  8  2  0  0  0  0
  3 17  1  0  0  0  0
  4  9  1  0  0  0  0
  4 17  2  0  0  0  0
  5 20  1  0  0  0  0
  6 22  1  0  0  0  0
  7 10  2  0  0  0  0
  7 21  1  0  0  0  0
  8 25  1  0  0  0  0
  9 25  2  0  0  0  0
 10 26  1  0  0  0  0
 11 12  2  0  0  0  0
 11 27  1  0  0  0  0
 12 28  1  0  0  0  0
 13 18  2  0  0  0  0
 13 29  1  0  0  0  0
 14 23  1  0  0  0  0
 14 26  2  0  0  0  0
 15 24  1  0  0  0  0
 15 30  2  0  0  0  0
 16 28  2  0  0  0  0
 16 31  1  0  0  0  0
 17 32  1  0  0  0  0
 18 30  1  0  0  0  0
 18 34  1  0  0  0  0
 19 32  1  0  0  0  0
 19 33  2  0  0  0  0
 19 35  1  0  0  0  0
 20 22  2  0  0  0  0
 20 40  1  0  0  0  0
 21 23  2  0  0  0  0
 21 41  1  0  0  0  0
 22 49  1  0  0  0  0
 23 42  1  0  0  0  0
 24 29  2  0  0  0  0
 24 69  1  0  0  0  0
 25 79  1  0  0  0  0
 26 80  1  0  0  0  0
 27 31  2  0  0  0  0
 27 79  1  0  0  0  0
 28 81  1  0  0  0  0
 29 82  1  0  0  0  0
 30 83  1  0  0  0  0
 31 84  1  0  0  0  0
 32 63  2  0  0  0  0
 33 64  1  0  0  0  0
 33 67  1  0  0  0  0
 34 36  1  0  0  0  0
 34 73  2  0  0  0  0
 35 68  1  0  0  0  0
 35 74  2  0  0  0  0
 36 65  1  0  0  0  0
 36 75  2  0  0  0  0
 37 50  1  0  0  0  0
 37 70  1  0  0  0  0
 37 76  2  0  0  0  0
 38 59  1  0  0  0  0
 38 66  1  0  0  0  0
 38 77  2  0  0  0  0
 39 60  1  0  0  0  0
 39 71  1  0  0  0  0
 39 78  2  0  0  0  0
 40 43  1  0  0  0  0
 41 50  1  0  0  0  0
 42 66  1  0  0  0  0
 43 45  1  0  0  0  0
 44 46  1  0  0  0  0
 44 47  1  0  0  0  0
 45 49  1  0  0  0  0
 46 51  1  0  0  0  0
 47 65  1  0  0  0  0
 48 51  1  0  0  0  0
 48 65  1  0  0  0  0
 49 70  1  0  0  0  0
 50 66  1  0  0  0  0
 51 64  1  0  0  0  0
 52 60  1  0  0  0  0
 53 61  1  0  0  0  0
 54 62  1  0  0  0  0
 55 62  1  0  0  0  0
 56 62  1  0  0  0  0
 57 72  1  0  0  0  0
 58 61  1  0  0  0  0
 58 80  1  0  0  0  0
 59 62  1  0  0  0  0
 59 71  1  0  0  0  0
 60 72  1  0  0  0  0
 61 69  1  0  0  0  0
 63 64  1  0  0  0  0
M  CHG  1  72   1
M  ISO  4  34 100  36 100  58 101  80 101
M  END
> <Batch ID>
0014

> <Smiles>
CNC(C)C(=O)NC(C(=O)N1Cc2cc([101O:1][101CH2:1]C(C)Nc3cc(F)c([100C:0](=O)[100C:0](=O)N4CCCC(n5nc(-c6ccc(Oc7ccc(F)cc7F)cc6)c(C(N)=O)c5N)C4)cc3F)ccc2CC1C(=O)NC1CCCc2ccccc21)C(C)(C)C

> <Shape>
0.346

> <Color>
0.208

> <Negative vol penalty>
0.000

$$$$

  -OEChem-04052315533D

 85 93  0     1  0  0  0  0  0999 V2000
  -30.0695  -33.7424   17.5953 C   0  0  0  0  0  0  0  0  0  0  0  0
  -30.4505  -32.7320   18.4725 C   0  0  0  0  0  0  0  0  0  0  0  0
  -22.9835   -9.9141   19.9816 C   0  0  0  0  0  0  0  0  0  0  0  0
  -23.7190   -9.9445   22.2827 C   0  0  0  0  0  0  0  0  0  0  0  0
  -28.7915  -33.7350   17.0380 C   0  0  0  0  0  0  0  0  0  0  0  0
  -29.5531  -31.7142   18.7938 C   0  0  0  0  0  0  0  0  0  0  0  0
  -30.8909  -25.8425   19.9070 C   0  0  0  0  0  0  0  0  0  0  0  0
  -22.2097   -8.7836   20.2439 C   0  0  0  0  0  0  0  0  0  0  0  0
  -22.9452   -8.8140   22.5450 C   0  0  0  0  0  0  0  0  0  0  0  0
  -31.0590  -25.1271   21.0918 C   0  0  0  0  0  0  0  0  0  0  0  0
  -23.1626   -5.4765   22.0502 C   0  0  0  0  0  0  0  0  0  0  0  0
  -23.7458   -4.4500   22.7930 C   0  0  0  0  0  0  0  0  0  0  0  0
  -28.7650  -24.3917   20.9662 C   0  0  0  0  0  0  0  0  0  0  0  0
  -32.1025  -16.4698   22.5528 C   0  0  0  0  0  0  0  0  0  0  0  0
  -22.0311   -4.6947   24.4774 C   0  0  0  0  0  0  0  0  0  0  0  0
  -23.7382  -10.4945   21.0010 C   0  0  0  0  0  0  0  0  0  0  0  0
  -24.1415  -13.0083   20.8398 C   0  0  0  0  0  0  0  0  0  0  0  0
  -27.8814  -32.7113   17.3452 C   0  0  0  0  0  0  0  0  0  0  0  0
  -29.6533  -25.8467   19.2476 C   0  0  0  0  0  0  0  0  0  0  0  0
  -28.2613  -31.6939   18.2412 C   0  0  0  0  0  0  0  0  0  0  0  0
  -28.5845  -25.1059   19.7719 C   0  0  0  0  0  0  0  0  0  0  0  0
  -29.9507  -17.4052   23.1284 C   0  0  0  0  0  0  0  0  0  0  0  0
  -30.5701  -18.2824   24.0186 C   0  0  0  0  0  0  0  0  0  0  0  0
  -30.7169  -16.4989   22.3955 C   0  0  0  0  0  0  0  0  0  0  0  0
  -22.1905   -8.2335   21.5256 C   0  0  0  0  0  0  0  0  0  0  0  0
  -29.9952  -24.4039   21.6231 C   0  0  0  0  0  0  0  0  0  0  0  0
  -22.0136   -6.1122   22.5210 C   0  0  0  0  0  0  0  0  0  0  0  0
  -23.1800   -4.0591   24.0066 C   0  0  0  0  0  0  0  0  0  0  0  0
  -32.7220  -17.3470   23.4431 C   0  0  0  0  0  0  0  0  0  0  0  0
  -21.4479   -5.7213   23.7346 C   0  0  0  0  0  0  0  0  0  0  0  0
  -31.9557  -18.2533   24.1760 C   0  0  0  0  0  0  0  0  0  0  0  0
  -24.5382  -11.6620   20.7306 C   0  0  0  0  0  0  0  0  0  0  0  0
  -25.2550  -13.7250   20.4752 C   0  0  0  0  0  0  0  0  0  0  0  0
  -22.8793  -13.5615   21.2355 C   0  0  0  0  0  0  0  0  0  0  0  0
  -27.5247  -28.0814   18.4867 C   0  0  0  0  0  0  0  0  0  0  0  0
  -26.0910  -25.6297   16.9194 C   0  0  0  0  0  0  0  0  0  0  0  0
  -30.0775  -21.5254   23.8266 C   0  0  0  0  0  0  0  0  0  0  0  0
  -25.6299  -22.2623   16.6124 C   0  0  0  0  0  0  0  0  0  0  0  0
  -30.7425  -14.6438   20.6913 C   0  0  0  0  0  0  0  0  0  0  0  0
  -26.4948  -32.7715   16.7549 C   0  0  0  0  0  0  0  0  0  0  0  0
  -29.4959  -26.6018   17.9563 C   0  0  0  0  0  0  0  0  0  0  0  0
  -27.2414  -25.0614   19.0918 C   0  0  0  0  0  0  0  0  0  0  0  0
  -25.7323  -31.4529   16.8552 C   0  0  0  0  0  0  0  0  0  0  0  0
  -29.5958  -12.2146   18.3543 C   0  0  0  0  0  0  0  0  0  0  0  0
  -25.8608  -30.8673   18.2578 C   0  0  0  0  0  0  0  0  0  0  0  0
  -28.1451  -11.9650   18.7732 C   0  0  0  0  0  0  0  0  0  0  0  0
  -30.5034  -12.4434   19.5617 C   0  0  0  0  0  0  0  0  0  0  0  0
  -28.5998  -13.2377   20.9088 C   0  0  0  0  0  0  0  0  0  0  0  0
  -27.3246  -30.5591   18.5950 C   0  0  1  0  0  0  0  0  0  0  0  0
  -28.0447  -26.9525   17.6424 C   0  0  1  0  0  0  0  0  0  0  0  0
  -27.6356  -13.0662   19.7236 C   0  0  2  0  0  0  0  0  0  0  0  0
  -28.4633  -17.4389   22.9632 C   0  0  0  0  0  0  0  0  0  0  0  0
  -24.3709  -20.5612   15.2638 C   0  0  0  0  0  0  0  0  0  0  0  0
  -23.5397  -26.3086   18.4492 C   0  0  0  0  0  0  0  0  0  0  0  0
  -22.6385  -24.0637   17.8041 C   0  0  0  0  0  0  0  0  0  0  0  0
  -23.1906  -25.7382   16.0394 C   0  0  0  0  0  0  0  0  0  0  0  0
  -28.1301  -21.0147   15.6369 C   0  0  0  0  0  0  0  0  0  0  0  0
  -29.7659  -19.2661   24.8185 C   0  0  0  0  0  0  0  0  0  0  0  0
  -29.3666  -22.5281   22.9430 C   0  0  0  0  0  0  0  0  0  1  0  0
  -25.0651  -24.5833   17.2821 C   0  0  1  0  0  0  0  0  0  0  0  0
  -25.6657  -21.3469   15.4020 C   0  0  2  0  0  0  0  0  0  0  0  0
  -23.6331  -25.1757   17.4078 C   0  0  0  0  0  0  0  0  0  0  0  0
  -25.8047  -11.5287   20.3280 N   0  0  0  0  0  0  0  0  0  0  0  0
  -26.2135  -12.8004   20.1810 N   0  0  0  0  0  0  0  0  0  0  0  0
  -27.1354  -25.8211   17.8351 N   0  0  0  0  0  0  0  0  0  0  0  0
  -29.9599  -13.5028   20.4144 N   0  0  0  0  0  0  0  0  0  0  0  0
  -25.4979  -15.0496   20.3808 N   0  0  0  0  0  0  0  0  0  0  0  0
  -21.8425  -12.6828   21.5778 N   0  0  0  0  0  0  0  0  0  0  0  0
  -30.1088  -15.5985   21.4859 N   0  0  0  0  0  0  0  0  0  0  0  0
  -27.7453  -29.3347   17.9482 N   0  0  0  0  0  0  0  0  0  0  0  0
  -29.3195  -20.3802   24.0145 N   0  0  0  0  0  0  0  0  0  0  0  0
  -25.1892  -23.5268   16.2837 N   0  0  0  0  0  0  0  0  0  0  0  0
  -26.7928  -20.3788   15.5178 N   0  3  0  0  0  0  0  0  0  0  0  0
  -22.6720  -14.7982   21.2683 O   0  0  0  0  0  0  0  0  0  0  0  0
  -26.9634  -27.8335   19.5475 O   0  0  0  0  0  0  0  0  0  0  0  0
  -25.9740  -26.2494   15.8593 O   0  0  0  0  0  0  0  0  0  0  0  0
  -31.1896  -21.7320   24.3046 O   0  0  0  0  0  0  0  0  0  0  0  0
  -25.9564  -21.8915   17.7378 O   0  0  0  0  0  0  0  0  0  0  0  0
  -31.8801  -14.7772   20.2332 O   0  0  0  0  0  0  0  0  0  0  0  0
  -21.4354   -7.1306   21.7820 O   0  0  0  0  0  0  0  0  0  0  0  0
  -30.1564  -23.7053   22.7798 O   0  0  0  0  0  0  0  0  0  1  0  0
  -23.7393   -3.0723   24.7191 F   0  0  0  0  0  0  0  0  0  0  0  0
  -34.0526  -17.3193   23.5936 F   0  0  0  0  0  0  0  0  0  0  0  0
  -20.3435   -6.3274   24.1914 F   0  0  0  0  0  0  0  0  0  0  0  0
  -32.5608  -19.0921   25.0287 F   0  0  0  0  0  0  0  0  0  0  0  0
  1  2  1  0  0  0  0
  1  5  2  0  0  0  0
  2  6  2  0  0  0  0
  3  8  2  0  0  0  0
  3 16  1  0  0  0  0
  4  9  1  0  0  0  0
  4 16  2  0  0  0  0
  5 18  1  0  0  0  0
  6 20  1  0  0  0  0
  7 10  2  0  0  0  0
  7 19  1  0  0  0  0
  8 25  1  0  0  0  0
  9 25  2  0  0  0  0
 10 26  1  0  0  0  0
 11 12  2  0  0  0  0
 11 27  1  0  0  0  0
 12 28  1  0  0  0  0
 13 21  1  0  0  0  0
 13 26  2  0  0  0  0
 14 24  1  0  0  0  0
 14 29  2  0  0  0  0
 15 28  2  0  0  0  0
 15 30  1  0  0  0  0
 16 32  1  0  0  0  0
 17 32  1  0  0  0  0
 17 33  2  0  0  0  0
 17 34  1  0  0  0  0
 18 20  2  0  0  0  0
 18 40  1  0  0  0  0
 19 21  2  0  0  0  0
 19 41  1  0  0  0  0
 20 49  1  0  0  0  0
 21 42  1  0  0  0  0
 22 23  1  0  0  0  0
 22 24  2  0  0  0  0
 22 52  1  0  0  0  0
 23 31  2  0  0  0  0
 23 58  1  0  0  0  0
 24 69  1  0  0  0  0
 25 80  1  0  0  0  0
 26 81  1  0  0  0  0
 27 30  2  0  0  0  0
 27 80  1  0  0  0  0
 28 82  1  0  0  0  0
 29 31  1  0  0  0  0
 29 83  1  0  0  0  0
 30 84  1  0  0  0  0
 31 85  1  0  0  0  0
 32 63  2  0  0  0  0
 33 64  1  0  0  0  0
 33 67  1  0  0  0  0
 34 68  1  0  0  0  0
 34 74  2  0  0  0  0
 35 50  1  0  0  0  0
 35 70  1  0  0  0  0
 35 75  2  0  0  0  0
 36 60  1  0  0  0  0
 36 65  1  0  0  0  0
 36 76  2  0  0  0  0
 37 59  1  0  0  0  0
 37 71  1  0  0  0  0
 37 77  2  0  0  0  0
 38 61  1  0  0  0  0
 38 72  1  0  0  0  0
 38 78  2  0  0  0  0
 39 66  1  0  0  0  0
 39 69  1  0  0  0  0
 39 79  2  0  0  0  0
 40 43  1  0  0  0  0
 41 50  1  0  0  0  0
 42 65  1  0  0  0  0
 43 45  1  0  0  0  0
 44 46  1  0  0  0  0
 44 47  1  0  0  0  0
 45 49  1  0  0  0  0
 46 51  1  0  0  0  0
 47 66  1  0  0  0  0
 48 51  1  0  0  0  0
 48 66  1  0  0  0  0
 49 70  1  0  0  0  0
 50 65  1  0  0  0  0
 51 64  1  0  0  0  0
 53 61  1  0  0  0  0
 54 62  1  0  0  0  0
 55 62  1  0  0  0  0
 56 62  1  0  0  0  0
 57 73  1  0  0  0  0
 58 71  1  0  0  0  0
 59 81  1  0  0  0  0
 60 62  1  0  0  0  0
 60 72  1  0  0  0  0
 61 73  1  0  0  0  0
 63 64  1  0  0  0  0
M  CHG  1  73   1
M  ISO  4  39 100  59 101  69 100  81 101
M  END
> <Batch ID>
0014

> <Smiles>
CNC(C)C(=O)NC(C(=O)N1Cc2cc([101O:1][101CH2:1]C(=O)NCc3c(C)c([100NH:0][100C:0](=O)N4CCCC(n5nc(-c6ccc(Oc7ccc(F)cc7F)cc6)c(C(N)=O)c5N)C4)cc(F)c3F)ccc2CC1C(=O)NC1CCCc2ccccc21)C(C)(C)C

> <Shape>
0.221

> <Color>
0.198

> <Negative vol penalty>
0.000

$$$$

  -OEChem-04052315533D

 88 96  0     1  0  0  0  0  0999 V2000
  -20.3863  -30.2557   25.0183 C   0  0  0  0  0  0  0  0  0  0  0  0
  -21.6363  -29.7599   24.6617 C   0  0  0  0  0  0  0  0  0  0  0  0
  -27.4658  -12.4953   18.6292 C   0  0  0  0  0  0  0  0  0  0  0  0
  -28.2008  -13.1040   20.8487 C   0  0  0  0  0  0  0  0  0  0  0  0
  -19.2347  -29.7159   24.4471 C   0  0  0  0  0  0  0  0  0  0  0  0
  -21.7352  -28.7231   23.7344 C   0  0  0  0  0  0  0  0  0  0  0  0
  -25.3598  -29.5348   20.2922 C   0  0  0  0  0  0  0  0  0  0  0  0
  -28.6747  -11.8350   18.4099 C   0  0  0  0  0  0  0  0  0  0  0  0
  -29.4097  -12.4436   20.6295 C   0  0  0  0  0  0  0  0  0  0  0  0
  -26.6762  -29.2986   20.6859 C   0  0  0  0  0  0  0  0  0  0  0  0
  -32.3191  -13.0433   19.0150 C   0  0  0  0  0  0  0  0  0  0  0  0
  -33.4918  -13.6944   19.3974 C   0  0  0  0  0  0  0  0  0  0  0  0
  -27.1607  -22.5229   24.6745 C   0  0  0  0  0  0  0  0  0  0  0  0
  -26.6173  -27.1572   19.5769 C   0  0  0  0  0  0  0  0  0  0  0  0
  -34.0078  -11.8789   20.9058 C   0  0  0  0  0  0  0  0  0  0  0  0
  -27.2289  -13.1299   19.8485 C   0  0  0  0  0  0  0  0  0  0  0  0
  -27.1967  -22.7631   23.3009 C   0  0  0  0  0  0  0  0  0  0  0  0
  -24.7999  -13.2686   20.6157 C   0  0  0  0  0  0  0  0  0  0  0  0
  -19.3201  -28.6785   23.5052 C   0  0  0  0  0  0  0  0  0  0  0  0
  -24.6574  -28.5776   19.5459 C   0  0  0  0  0  0  0  0  0  0  0  0
  -20.5836  -28.1680   23.1511 C   0  0  0  0  0  0  0  0  0  0  0  0
  -25.2929  -27.3847   19.1728 C   0  0  0  0  0  0  0  0  0  0  0  0
  -26.4628  -21.4224   25.1720 C   0  0  0  0  0  0  0  0  0  0  0  0
  -25.8369  -20.8022   22.9225 C   0  0  0  0  0  0  0  0  0  0  0  0
  -29.6467  -11.8091   19.4101 C   0  0  0  0  0  0  0  0  0  0  0  0
  -27.3042  -28.1084   20.3308 C   0  0  0  0  0  0  0  0  0  0  0  0
  -31.9906  -11.8101   19.5780 C   0  0  0  0  0  0  0  0  0  0  0  0
  -34.3362  -13.1122   20.3428 C   0  0  0  0  0  0  0  0  0  0  0  0
  -32.8350  -11.2279   20.5233 C   0  0  0  0  0  0  0  0  0  0  0  0
  -26.5348  -21.9027   22.4249 C   0  0  0  0  0  0  0  0  0  0  0  0
  -25.8009  -20.5621   24.2961 C   0  0  0  0  0  0  0  0  0  0  0  0
  -25.9805  -13.8127   20.0754 C   0  0  0  0  0  0  0  0  0  0  0  0
  -23.9114  -14.3160   20.6236 C   0  0  0  0  0  0  0  0  0  0  0  0
  -27.9332  -23.9236   22.7828 C   0  0  0  0  0  0  0  0  0  0  0  0
  -24.5305  -11.9357   21.0700 C   0  0  0  0  0  0  0  0  0  0  0  0
  -29.2330  -23.9323   22.4291 C   0  0  0  0  0  0  0  0  0  0  0  0
  -29.7593  -25.2500   21.9273 C   0  0  0  0  0  0  0  0  0  0  0  0
  -22.0340  -26.8466   20.0201 C   0  0  0  0  0  0  0  0  0  0  0  0
  -22.5342  -25.9579   16.9408 C   0  0  0  0  0  0  0  0  0  0  0  0
  -24.7311  -25.5663   14.3587 C   0  0  0  0  0  0  0  0  0  0  0  0
  -24.5968  -20.2493   20.8005 C   0  0  0  0  0  0  0  0  0  0  0  0
  -18.0448  -28.0950   22.9503 C   0  0  0  0  0  0  0  0  0  0  0  0
  -23.2468  -28.8590   19.1062 C   0  0  0  0  0  0  0  0  0  0  0  0
  -24.5895  -26.3336   18.3550 C   0  0  0  0  0  0  0  0  0  0  0  0
  -18.2563  -27.2520   21.6953 C   0  0  0  0  0  0  0  0  0  0  0  0
  -22.8886  -18.3767   18.3000 C   0  0  0  0  0  0  0  0  0  0  0  0
  -19.4278  -26.2941   21.8869 C   0  0  0  0  0  0  0  0  0  0  0  0
  -23.3756  -16.9433   18.5246 C   0  0  0  0  0  0  0  0  0  0  0  0
  -23.9986  -19.3975   18.5440 C   0  0  0  0  0  0  0  0  0  0  0  0
  -25.1602  -17.8490   20.0678 C   0  0  0  0  0  0  0  0  0  0  0  0
  -20.7333  -27.0609   22.1304 C   0  0  1  0  0  0  0  0  0  0  0  0
  -22.4568  -27.5936   18.7869 C   0  0  1  0  0  0  0  0  0  0  0  0
  -24.0598  -16.7891   19.8971 C   0  0  2  0  0  0  0  0  0  0  0  0
  -26.4263  -21.1684   26.6415 C   0  0  0  0  0  0  0  0  0  0  0  0
  -30.1448  -22.7387   22.4398 C   0  0  0  0  0  0  0  0  0  0  0  0
  -24.8528  -24.7843   11.9773 C   0  0  0  0  0  0  0  0  0  0  0  0
  -22.4128  -23.0602   17.8887 C   0  0  0  0  0  0  0  0  0  0  0  0
  -23.4636  -22.3800   15.7204 C   0  0  0  0  0  0  0  0  0  0  0  0
  -21.2350  -23.5008   15.7270 C   0  0  0  0  0  0  0  0  0  0  0  0
  -25.6120  -28.2270   13.4082 C   0  0  0  0  0  0  0  0  0  0  0  0
  -30.1189  -27.6231   22.5518 C   0  0  0  0  0  0  0  0  0  0  0  0
  -29.0202  -28.4716   21.9369 C   0  0  0  0  0  0  0  0  0  1  0  0
  -23.3041  -24.8530   16.2585 C   0  0  1  0  0  0  0  0  0  0  0  0
  -24.6538  -25.9772   12.8994 C   0  0  2  0  0  0  0  0  0  0  0  0
  -22.6168  -23.4673   16.4157 C   0  0  0  0  0  0  0  0  0  0  0  0
  -25.8565  -15.1053   19.7626 N   0  0  0  0  0  0  0  0  0  0  0  0
  -24.5874  -15.3822   20.1073 N   0  0  0  0  0  0  0  0  0  0  0  0
  -23.2091  -26.6525   17.9546 N   0  0  0  0  0  0  0  0  0  0  0  0
  -24.5976  -19.1933   19.8648 N   0  0  0  0  0  0  0  0  0  0  0  0
  -22.6257  -14.4198   21.0217 N   0  0  0  0  0  0  0  0  0  0  0  0
  -25.5554  -10.9830   20.9910 N   0  0  0  0  0  0  0  0  0  0  0  0
  -25.1644  -19.9279   22.0330 N   0  0  0  0  0  0  0  0  0  0  0  0
  -29.6649  -26.2892   22.8430 N   0  0  0  0  0  0  0  0  0  0  0  0
  -21.2505  -27.5865   20.8851 N   0  0  0  0  0  0  0  0  0  0  0  0
  -23.4855  -25.2765   14.8743 N   0  0  0  0  0  0  0  0  0  0  0  0
  -25.7023  -26.9902   12.5903 N   0  3  0  0  0  0  0  0  0  0  0  0
  -23.4090  -11.5952   21.5169 O   0  0  0  0  0  0  0  0  0  0  0  0
  -30.2321  -25.3681   20.7983 O   0  0  0  0  0  0  0  0  0  0  0  0
  -22.3909  -25.6845   20.1747 O   0  0  0  0  0  0  0  0  0  0  0  0
  -21.3791  -26.2005   16.5824 O   0  0  0  0  0  0  0  0  0  0  0  0
  -25.7908  -25.5048   14.9782 O   0  0  0  0  0  0  0  0  0  0  0  0
  -24.1028  -21.3488   20.5377 O   0  0  0  0  0  0  0  0  0  0  0  0
  -30.8263  -11.1646   19.1966 O   0  0  0  0  0  0  0  0  0  0  0  0
  -28.5889  -27.8751   20.7144 O   0  0  0  0  0  0  0  0  0  1  0  0
  -35.4632  -13.7368   20.7088 F   0  0  0  0  0  0  0  0  0  0  0  0
  -32.5253  -10.0427   21.0667 F   0  0  0  0  0  0  0  0  0  0  0  0
  -26.5672  -22.1305   21.1023 F   0  0  0  0  0  0  0  0  0  0  0  0
  -25.1301  -19.5041   24.7766 F   0  0  0  0  0  0  0  0  0  0  0  0
  1  2  1  0  0  0  0
  1  5  2  0  0  0  0
  2  6  2  0  0  0  0
  3  8  2  0  0  0  0
  3 16  1  0  0  0  0
  4  9  1  0  0  0  0
  4 16  2  0  0  0  0
  5 19  1  0  0  0  0
  6 21  1  0  0  0  0
  7 10  2  0  0  0  0
  7 20  1  0  0  0  0
  8 25  1  0  0  0  0
  9 25  2  0  0  0  0
 10 26  1  0  0  0  0
 11 12  2  0  0  0  0
 11 27  1  0  0  0  0
 12 28  1  0  0  0  0
 13 17  1  0  0  0  0
 13 23  2  0  0  0  0
 14 22  1  0  0  0  0
 14 26  2  0  0  0  0
 15 28  2  0  0  0  0
 15 29  1  0  0  0  0
 16 32  1  0  0  0  0
 17 30  2  0  0  0  0
 17 34  1  0  0  0  0
 18 32  1  0  0  0  0
 18 33  2  0  0  0  0
 18 35  1  0  0  0  0
 19 21  2  0  0  0  0
 19 42  1  0  0  0  0
 20 22  2  0  0  0  0
 20 43  1  0  0  0  0
 21 51  1  0  0  0  0
 22 44  1  0  0  0  0
 23 31  1  0  0  0  0
 23 54  1  0  0  0  0
 24 30  1  0  0  0  0
 24 31  2  0  0  0  0
 24 72  1  0  0  0  0
 25 83  1  0  0  0  0
 26 84  1  0  0  0  0
 27 29  2  0  0  0  0
 27 83  1  0  0  0  0
 28 85  1  0  0  0  0
 29 86  1  0  0  0  0
 30 87  1  0  0  0  0
 31 88  1  0  0  0  0
 32 66  2  0  0  0  0
 33 67  1  0  0  0  0
 33 70  1  0  0  0  0
 34 36  2  0  0  0  0
 35 71  1  0  0  0  0
 35 77  2  0  0  0  0
 36 37  1  0  0  0  0
 36 55  1  0  0  0  0
 37 73  1  0  0  0  0
 37 78  2  0  0  0  0
 38 52  1  0  0  0  0
 38 74  1  0  0  0  0
 38 79  2  0  0  0  0
 39 63  1  0  0  0  0
 39 68  1  0  0  0  0
 39 80  2  0  0  0  0
 40 64  1  0  0  0  0
 40 75  1  0  0  0  0
 40 81  2  0  0  0  0
 41 69  1  0  0  0  0
 41 72  1  0  0  0  0
 41 82  2  0  0  0  0
 42 45  1  0  0  0  0
 43 52  1  0  0  0  0
 44 68  1  0  0  0  0
 45 47  1  0  0  0  0
 46 48  1  0  0  0  0
 46 49  1  0  0  0  0
 47 51  1  0  0  0  0
 48 53  1  0  0  0  0
 49 69  1  0  0  0  0
 50 53  1  0  0  0  0
 50 69  1  0  0  0  0
 51 74  1  0  0  0  0
 52 68  1  0  0  0  0
 53 67  1  0  0  0  0
 56 64  1  0  0  0  0
 57 65  1  0  0  0  0
 58 65  1  0  0  0  0
 59 65  1  0  0  0  0
 60 76  1  0  0  0  0
 61 62  1  0  0  0  0
 61 73  1  0  0  0  0
 62 84  1  0  0  0  0
 63 65  1  0  0  0  0
 63 75  1  0  0  0  0
 64 76  1  0  0  0  0
 66 67  1  0  0  0  0
M  CHG  1  76   1
M  ISO  4  41 100  62 101  72 100  84 101
M  END
> <Batch ID>
0014

> <Smiles>
CNC(C)C(=O)NC(C(=O)N1Cc2cc([101O:1][101CH2:1]CNC(=O)C(C)=Cc3cc(C)c(F)c([100NH:0][100C:0](=O)N4CCCC(n5nc(-c6ccc(Oc7ccc(F)cc7F)cc6)c(C(N)=O)c5N)C4)c3F)ccc2CC1C(=O)NC1CCCc2ccccc21)C(C)(C)C

> <Shape>
0.212

> <Color>
0.081

> <Negative vol penalty>
0.000

$$$$

  -OEChem-04052315533D

 89 97  0     1  0  0  0  0  0999 V2000
  -26.4629  -18.3075   22.7693 C   0  0  0  0  0  0  0  0  0  0  0  0
  -27.5021  -19.1394   23.1735 C   0  0  0  0  0  0  0  0  0  0  0  0
  -23.2032   -9.8473   19.9567 C   0  0  0  0  0  0  0  0  0  0  0  0
  -23.9127   -9.9337   22.2645 C   0  0  0  0  0  0  0  0  0  0  0  0
  -25.5498  -18.7491   21.8127 C   0  0  0  0  0  0  0  0  0  0  0  0
  -27.6294  -20.4131   22.6205 C   0  0  0  0  0  0  0  0  0  0  0  0
  -28.5889  -23.9579   26.1074 C   0  0  0  0  0  0  0  0  0  0  0  0
  -22.5122   -8.6631   20.2134 C   0  0  0  0  0  0  0  0  0  0  0  0
  -23.2217   -8.7496   22.5213 C   0  0  0  0  0  0  0  0  0  0  0  0
  -29.8956  -24.0430   26.5860 C   0  0  0  0  0  0  0  0  0  0  0  0
  -20.0249   -7.8025   23.0729 C   0  0  0  0  0  0  0  0  0  0  0  0
  -19.2461   -7.7460   24.2287 C   0  0  0  0  0  0  0  0  0  0  0  0
  -30.3076  -25.9077   25.1121 C   0  0  0  0  0  0  0  0  0  0  0  0
  -20.5660   -5.8867   25.0273 C   0  0  0  0  0  0  0  0  0  0  0  0
  -23.9035  -10.4826   20.9822 C   0  0  0  0  0  0  0  0  0  0  0  0
  -24.1222  -13.0191   20.8209 C   0  0  0  0  0  0  0  0  0  0  0  0
  -25.6603  -20.0325   21.2548 C   0  0  0  0  0  0  0  0  0  0  0  0
  -28.1344  -24.8416   25.1180 C   0  0  0  0  0  0  0  0  0  0  0  0
  -26.7177  -20.8719   21.6546 C   0  0  0  0  0  0  0  0  0  0  0  0
  -28.9940  -25.8334   24.6245 C   0  0  0  0  0  0  0  0  0  0  0  0
  -31.1854  -17.0296   22.2321 C   0  0  0  0  0  0  0  0  0  0  0  0
  -22.5214   -8.1143   21.4957 C   0  0  0  0  0  0  0  0  0  0  0  0
  -30.7561  -25.0162   26.0863 C   0  0  0  0  0  0  0  0  0  0  0  0
  -21.0743   -6.9011   22.8943 C   0  0  0  0  0  0  0  0  0  0  0  0
  -19.5166   -6.7881   25.2059 C   0  0  0  0  0  0  0  0  0  0  0  0
  -21.3448   -5.9432   23.8715 C   0  0  0  0  0  0  0  0  0  0  0  0
  -24.6179  -11.7055   20.7175 C   0  0  0  0  0  0  0  0  0  0  0  0
  -31.3992  -17.8703   23.3408 C   0  0  0  0  0  0  0  0  0  0  0  0
  -25.1834  -13.8155   20.4657 C   0  0  0  0  0  0  0  0  0  0  0  0
  -30.8097  -15.8275   22.7800 C   0  0  0  0  0  0  0  0  0  0  0  0
  -22.8191  -13.4783   21.2038 C   0  0  0  0  0  0  0  0  0  0  0  0
  -27.0571  -24.5184   22.1450 C   0  0  0  0  0  0  0  0  0  0  0  0
  -26.4854  -27.6994   22.4214 C   0  0  0  0  0  0  0  0  0  0  0  0
  -27.2392  -30.6565   23.9493 C   0  0  0  0  0  0  0  0  0  0  0  0
  -30.9316  -14.0935   20.9566 C   0  0  0  0  0  0  0  0  0  0  0  0
  -24.6770  -20.4480   20.1894 C   0  0  0  0  0  0  0  0  0  0  0  0
  -26.7138  -24.7538   24.6315 C   0  0  0  0  0  0  0  0  0  0  0  0
  -28.5485  -26.8191   23.5764 C   0  0  0  0  0  0  0  0  0  0  0  0
  -24.6623  -21.9518   19.9271 C   0  0  0  0  0  0  0  0  0  0  0  0
  -29.3640  -13.1166   17.9127 C   0  0  0  0  0  0  0  0  0  0  0  0
  -26.0857  -22.4852   19.7989 C   0  0  0  0  0  0  0  0  0  0  0  0
  -27.9314  -12.7813   18.3340 C   0  0  0  0  0  0  0  0  0  0  0  0
  -30.3798  -12.6997   18.9747 C   0  0  0  0  0  0  0  0  0  0  0  0
  -28.6774  -12.8729   20.7470 C   0  0  0  0  0  0  0  0  0  0  0  0
  -26.8745  -22.2696   21.0961 C   0  0  1  0  0  0  0  0  0  0  0  0
  -26.5148  -25.3762   23.2530 C   0  0  1  0  0  0  0  0  0  0  0  0
  -27.6130  -13.3331   19.7375 C   0  0  2  0  0  0  0  0  0  0  0  0
  -31.3319  -17.3641   20.8042 C   0  0  0  0  0  0  0  0  0  0  0  0
  -26.6317  -33.0913   23.9367 C   0  0  0  0  0  0  0  0  0  0  0  0
  -29.2714  -15.4496   25.9652 C   0  0  0  0  0  0  0  0  0  0  0  0
  -31.6965  -14.7293   26.0454 C   0  0  0  0  0  0  0  0  0  0  0  0
  -34.9756  -20.9674   22.1108 C   0  0  0  0  0  0  0  0  0  0  0  0
  -28.0880  -28.0835   19.8536 C   0  0  0  0  0  0  0  0  0  0  0  0
  -28.2555  -30.5199   20.4050 C   0  0  0  0  0  0  0  0  0  0  0  0
  -26.0211  -29.4825   20.0124 C   0  0  0  0  0  0  0  0  0  0  0  0
  -26.3338  -30.5644   26.7654 C   0  0  0  0  0  0  0  0  0  0  0  0
  -31.8274  -19.3082   23.3355 C   0  0  0  0  0  0  0  0  0  0  0  0
  -34.3217  -23.4439   25.9294 C   0  0  0  0  0  0  0  0  0  0  0  0
  -34.0035  -22.9699   24.5102 C   0  0  0  0  0  0  0  0  0  0  0  0
  -34.3653  -24.9692   26.0062 C   0  0  0  0  0  0  0  0  0  0  0  0
  -33.9515  -21.4432   24.3711 C   0  0  0  0  0  0  0  0  0  0  0  0
  -33.0221  -25.5885   25.6464 C   0  0  0  0  0  0  0  0  0  1  0  0
  -27.2751  -28.9557   22.1436 C   0  0  1  0  0  0  0  0  0  0  0  0
  -26.3549  -31.7305   24.5568 C   0  0  2  0  0  0  0  0  0  0  0  0
  -30.4974  -15.0389   25.1473 C   0  0  0  0  0  0  0  0  0  0  0  0
  -33.7090  -20.9063   22.9558 C   0  0  2  0  0  0  0  0  0  0  0  0
  -27.4192  -29.2407   20.6220 C   0  0  0  0  0  0  0  0  0  0  0  0
  -25.8946  -11.6654   20.3270 N   0  0  0  0  0  0  0  0  0  0  0  0
  -31.1776  -17.2545   24.5051 N   0  0  0  0  0  0  0  0  0  0  0  0
  -26.2101  -12.9637   20.1819 N   0  0  0  0  0  0  0  0  0  0  0  0
  -30.8206  -16.0140   24.1310 N   0  0  0  0  0  0  0  0  0  0  0  0
  -27.1523  -26.6886   23.1280 N   0  0  0  0  0  0  0  0  0  0  0  0
  -30.0160  -13.2626   20.2769 N   0  0  0  0  0  0  0  0  0  0  0  0
  -25.3291  -15.1542   20.3715 N   0  0  0  0  0  0  0  0  0  0  0  0
  -21.8465  -12.5259   21.5377 N   0  0  0  0  0  0  0  0  0  0  0  0
  -30.4630  -14.5965   22.1698 N   0  0  0  0  0  0  0  0  0  0  0  0
  -26.4985  -23.2559   22.0861 N   0  0  0  0  0  0  0  0  0  0  0  0
  -26.6205  -30.0232   22.8922 N   0  0  0  0  0  0  0  0  0  0  0  0
  -26.5909  -31.8264   26.0251 N   0  3  0  0  0  0  0  0  0  0  0  0
  -33.2691  -19.4853   23.0212 N   0  3  0  0  0  0  0  0  0  0  0  0
  -22.5210  -14.6964   21.2328 O   0  0  0  0  0  0  0  0  0  0  0  0
  -27.9176  -24.9691   21.3979 O   0  0  0  0  0  0  0  0  0  0  0  0
  -25.3175  -27.6208   22.0323 O   0  0  0  0  0  0  0  0  0  0  0  0
  -28.3674  -30.4070   24.3681 O   0  0  0  0  0  0  0  0  0  0  0  0
  -32.0387  -14.3626   20.4834 O   0  0  0  0  0  0  0  0  0  0  0  0
  -21.8471   -6.9589   21.7467 O   0  0  0  0  0  0  0  0  0  0  0  0
  -32.0322  -25.1010   26.5513 O   0  0  0  0  0  0  0  0  0  1  0  0
  -18.7695   -6.7350   26.3164 F   0  0  0  0  0  0  0  0  0  0  0  0
  -22.3523   -5.0752   23.7060 F   0  0  0  0  0  0  0  0  0  0  0  0
  1  2  1  0  0  0  0
  1  5  2  0  0  0  0
  2  6  2  0  0  0  0
  3  8  2  0  0  0  0
  3 15  1  0  0  0  0
  4  9  1  0  0  0  0
  4 15  2  0  0  0  0
  5 17  1  0  0  0  0
  6 19  1  0  0  0  0
  7 10  2  0  0  0  0
  7 18  1  0  0  0  0
  8 22  1  0  0  0  0
  9 22  2  0  0  0  0
 10 23  1  0  0  0  0
 11 12  2  0  0  0  0
 11 24  1  0  0  0  0
 12 25  1  0  0  0  0
 13 20  1  0  0  0  0
 13 23  2  0  0  0  0
 14 25  2  0  0  0  0
 14 26  1  0  0  0  0
 15 27  1  0  0  0  0
 16 27  1  0  0  0  0
 16 29  2  0  0  0  0
 16 31  1  0  0  0  0
 17 19  2  0  0  0  0
 17 36  1  0  0  0  0
 18 20  2  0  0  0  0
 18 37  1  0  0  0  0
 19 45  1  0  0  0  0
 20 38  1  0  0  0  0
 21 28  1  0  0  0  0
 21 30  2  0  0  0  0
 21 48  1  0  0  0  0
 22 86  1  0  0  0  0
 23 87  1  0  0  0  0
 24 26  2  0  0  0  0
 24 86  1  0  0  0  0
 25 88  1  0  0  0  0
 26 89  1  0  0  0  0
 27 68  2  0  0  0  0
 28 57  1  0  0  0  0
 28 69  2  0  0  0  0
 29 70  1  0  0  0  0
 29 74  1  0  0  0  0
 30 71  1  0  0  0  0
 30 76  1  0  0  0  0
 31 75  1  0  0  0  0
 31 81  2  0  0  0  0
 32 46  1  0  0  0  0
 32 77  1  0  0  0  0
 32 82  2  0  0  0  0
 33 63  1  0  0  0  0
 33 72  1  0  0  0  0
 33 83  2  0  0  0  0
 34 64  1  0  0  0  0
 34 78  1  0  0  0  0
 34 84  2  0  0  0  0
 35 73  1  0  0  0  0
 35 76  1  0  0  0  0
 35 85  2  0  0  0  0
 36 39  1  0  0  0  0
 37 46  1  0  0  0  0
 38 72  1  0  0  0  0
 39 41  1  0  0  0  0
 40 42  1  0  0  0  0
 40 43  1  0  0  0  0
 41 45  1  0  0  0  0
 42 47  1  0  0  0  0
 43 73  1  0  0  0  0
 44 47  1  0  0  0  0
 44 73  1  0  0  0  0
 45 77  1  0  0  0  0
 46 72  1  0  0  0  0
 47 70  1  0  0  0  0
 49 64  1  0  0  0  0
 50 65  1  0  0  0  0
 51 65  1  0  0  0  0
 52 66  1  0  0  0  0
 53 67  1  0  0  0  0
 54 67  1  0  0  0  0
 55 67  1  0  0  0  0
 56 79  1  0  0  0  0
 57 80  1  0  0  0  0
 58 59  1  0  0  0  0
 58 60  1  0  0  0  0
 59 61  1  0  0  0  0
 60 62  1  0  0  0  0
 61 66  1  0  0  0  0
 62 87  1  0  0  0  0
 63 67  1  0  0  0  0
 63 78  1  0  0  0  0
 64 79  1  0  0  0  0
 65 71  1  0  0  0  0
 66 80  1  0  0  0  0
 68 70  1  0  0  0  0
 69 71  1  0  0  0  0
M  CHG  2  79   1  80   1
M  ISO  4  35 100  62 101  76 100  87 101
M  END
> <Batch ID>
0014

> <Smiles>
CNC(C)C(=O)NC(C(=O)N1Cc2cc([101O:1][101CH2:1]CCCCC(C)NCc3nn(C(C)C)c([100NH:0][100C:0](=O)N4CCCC(n5nc(-c6ccc(Oc7ccc(F)cc7F)cc6)c(C(N)=O)c5N)C4)c3C)ccc2CC1C(=O)NC1CCCc2ccccc21)C(C)(C)C

> <Shape>
0.250

> <Color>
0.174

> <Negative vol penalty>
0.000

$$$$

  -OEChem-04052315533D

 86 94  0     1  0  0  0  0  0999 V2000
  -33.9732  -30.6527   17.3090 C   0  0  0  0  0  0  0  0  0  0  0  0
  -33.4146  -29.4675   17.7769 C   0  0  0  0  0  0  0  0  0  0  0  0
  -23.0575   -9.6759   19.9618 C   0  0  0  0  0  0  0  0  0  0  0  0
  -23.6243   -9.9375   22.2957 C   0  0  0  0  0  0  0  0  0  0  0  0
  -33.7879  -31.8376   18.0200 C   0  0  0  0  0  0  0  0  0  0  0  0
  -32.6712  -29.4665   18.9566 C   0  0  0  0  0  0  0  0  0  0  0  0
  -27.7731  -26.0137   20.2186 C   0  0  0  0  0  0  0  0  0  0  0  0
  -22.2836   -8.5585   20.2749 C   0  0  0  0  0  0  0  0  0  0  0  0
  -22.8503   -8.8201   22.6089 C   0  0  0  0  0  0  0  0  0  0  0  0
  -27.6214  -24.8267   20.9340 C   0  0  0  0  0  0  0  0  0  0  0  0
  -23.1524   -5.4564   22.4497 C   0  0  0  0  0  0  0  0  0  0  0  0
  -23.6955   -4.5168   23.3259 C   0  0  0  0  0  0  0  0  0  0  0  0
  -27.0070  -26.0931   22.8931 C   0  0  0  0  0  0  0  0  0  0  0  0
  -31.8706  -16.6251   22.5259 C   0  0  0  0  0  0  0  0  0  0  0  0
  -21.8601   -4.8811   24.8542 C   0  0  0  0  0  0  0  0  0  0  0  0
  -23.7279  -10.3654   20.9722 C   0  0  0  0  0  0  0  0  0  0  0  0
  -24.1045  -12.8612   20.6019 C   0  0  0  0  0  0  0  0  0  0  0  0
  -33.0337  -31.8530   19.2039 C   0  0  0  0  0  0  0  0  0  0  0  0
  -27.5531  -27.2519   20.8391 C   0  0  0  0  0  0  0  0  0  0  0  0
  -32.4767  -30.6526   19.6847 C   0  0  0  0  0  0  0  0  0  0  0  0
  -27.1541  -27.2942   22.1827 C   0  0  0  0  0  0  0  0  0  0  0  0
  -30.2377  -18.5510   23.7123 C   0  0  0  0  0  0  0  0  0  0  0  0
  -30.4977  -16.6232   22.2794 C   0  0  0  0  0  0  0  0  0  0  0  0
  -22.1800   -8.1306   21.5985 C   0  0  0  0  0  0  0  0  0  0  0  0
  -27.2411  -24.8664   22.2722 C   0  0  0  0  0  0  0  0  0  0  0  0
  -21.9631   -6.1084   22.7757 C   0  0  0  0  0  0  0  0  0  0  0  0
  -32.4271  -17.5900   23.3657 C   0  0  0  0  0  0  0  0  0  0  0  0
  -23.0494   -4.2291   24.5281 C   0  0  0  0  0  0  0  0  0  0  0  0
  -21.3170   -5.8207   23.9780 C   0  0  0  0  0  0  0  0  0  0  0  0
  -29.6813  -17.5862   22.8726 C   0  0  0  0  0  0  0  0  0  0  0  0
  -31.6107  -18.5529   23.9589 C   0  0  0  0  0  0  0  0  0  0  0  0
  -24.5279  -11.5194   20.6493 C   0  0  0  0  0  0  0  0  0  0  0  0
  -25.2307  -13.5645   20.2505 C   0  0  0  0  0  0  0  0  0  0  0  0
  -22.8089  -13.4216   20.8532 C   0  0  0  0  0  0  0  0  0  0  0  0
  -29.3474  -29.8021   21.4559 C   0  0  0  0  0  0  0  0  0  0  0  0
  -26.5301  -31.0575   22.4604 C   0  0  0  0  0  0  0  0  0  0  0  0
  -28.1810  -21.6996   23.7677 C   0  0  0  0  0  0  0  0  0  0  0  0
  -23.3754  -30.5165   23.6444 C   0  0  0  0  0  0  0  0  0  0  0  0
  -30.6739  -14.6177   20.7651 C   0  0  0  0  0  0  0  0  0  0  0  0
  -32.9005  -33.1494   19.9630 C   0  0  0  0  0  0  0  0  0  0  0  0
  -27.6950  -28.5221   20.0462 C   0  0  0  0  0  0  0  0  0  0  0  0
  -26.8860  -28.5969   22.8896 C   0  0  0  0  0  0  0  0  0  0  0  0
  -31.7851  -33.1332   21.0050 C   0  0  0  0  0  0  0  0  0  0  0  0
  -29.7354  -11.9562   18.5942 C   0  0  0  0  0  0  0  0  0  0  0  0
  -31.8450  -31.8523   21.8312 C   0  0  0  0  0  0  0  0  0  0  0  0
  -28.2621  -11.7157   18.9314 C   0  0  0  0  0  0  0  0  0  0  0  0
  -30.5498  -12.3166   19.8354 C   0  0  0  0  0  0  0  0  0  0  0  0
  -28.5422  -13.1922   20.9633 C   0  0  0  0  0  0  0  0  0  0  0  0
  -31.6431  -30.6157   20.9472 C   0  0  1  0  0  0  0  0  0  0  0  0
  -27.9447  -29.7473   20.9203 C   0  0  1  0  0  0  0  0  0  0  0  0
  -27.6689  -12.8898   19.7347 C   0  0  2  0  0  0  0  0  0  0  0  0
  -21.3217  -31.7391   24.4092 C   0  0  0  0  0  0  0  0  0  0  0  0
  -27.9089  -31.7166   25.1013 C   0  0  0  0  0  0  0  0  0  0  0  0
  -25.6457  -32.0397   26.1221 C   0  0  0  0  0  0  0  0  0  0  0  0
  -26.3861  -33.5058   24.2446 C   0  0  0  0  0  0  0  0  0  0  0  0
  -21.7199  -29.3088   21.5090 C   0  0  0  0  0  0  0  0  0  0  0  0
  -34.5891  -18.3178   22.6937 C   0  0  0  0  0  0  0  0  0  0  0  0
  -29.3609  -19.5893   24.3505 C   0  0  0  0  0  0  0  0  0  0  0  0
  -27.9110  -22.6061   22.5857 C   0  0  0  0  0  0  0  0  0  1  0  0
  -25.7841  -31.0961   23.7723 C   0  0  1  0  0  0  0  0  0  0  0  0
  -22.0322  -31.0906   23.2313 C   0  0  2  0  0  0  0  0  0  0  0  0
  -26.4381  -32.0649   24.7976 C   0  0  0  0  0  0  0  0  0  0  0  0
  -25.8221  -11.3764   20.3516 N   0  0  0  0  0  0  0  0  0  0  0  0
  -26.2216  -12.6373   20.1137 N   0  0  0  0  0  0  0  0  0  0  0  0
  -27.0445  -29.8119   22.0734 N   0  0  0  0  0  0  0  0  0  0  0  0
  -29.9305  -13.4392   20.5432 N   0  0  0  0  0  0  0  0  0  0  0  0
  -25.4601  -14.8793   20.0482 N   0  0  0  0  0  0  0  0  0  0  0  0
  -21.7632  -12.5567   21.2033 N   0  0  0  0  0  0  0  0  0  0  0  0
  -29.9703  -15.6288   21.4188 N   0  0  0  0  0  0  0  0  0  0  0  0
  -30.2423  -30.4483   20.6246 N   0  0  0  0  0  0  0  0  0  0  0  0
  -28.9593  -20.6098   23.4102 N   0  0  0  0  0  0  0  0  0  0  0  0
  -24.3993  -31.4181   23.4451 N   0  0  0  0  0  0  0  0  0  0  0  0
  -21.1548  -30.0160   22.6870 N   0  3  0  0  0  0  0  0  0  0  0  0
  -22.5814  -14.6512   20.7538 O   0  0  0  0  0  0  0  0  0  0  0  0
  -29.5990  -29.2968   22.5436 O   0  0  0  0  0  0  0  0  0  0  0  0
  -26.6458  -32.0928   21.7998 O   0  0  0  0  0  0  0  0  0  0  0  0
  -27.7475  -21.9290   24.8935 O   0  0  0  0  0  0  0  0  0  0  0  0
  -23.5029  -29.3829   24.1019 O   0  0  0  0  0  0  0  0  0  0  0  0
  -31.8396  -14.7322   20.3779 O   0  0  0  0  0  0  0  0  0  0  0  0
  -21.4247   -7.0404   21.9044 O   0  0  0  0  0  0  0  0  0  0  0  0
  -33.7724  -17.5641   23.5867 O   0  0  0  0  0  0  0  0  0  0  0  0
  -27.0929  -23.7093   22.9730 O   0  0  0  0  0  0  0  0  0  1  0  0
  -23.5703   -3.3257   25.3687 F   0  0  0  0  0  0  0  0  0  0  0  0
  -20.1736   -6.4430   24.2961 F   0  0  0  0  0  0  0  0  0  0  0  0
  -27.9739  -17.5837   22.5638 Cl  0  0  0  0  0  0  0  0  0  0  0  0
  -32.3172  -19.7444   24.9982 Cl  0  0  0  0  0  0  0  0  0  0  0  0
  1  2  1  0  0  0  0
  1  5  2  0  0  0  0
  2  6  2  0  0  0  0
  3  8  2  0  0  0  0
  3 16  1  0  0  0  0
  4  9  1  0  0  0  0
  4 16  2  0  0  0  0
  5 18  1  0  0  0  0
  6 20  1  0  0  0  0
  7 10  2  0  0  0  0
  7 19  1  0  0  0  0
  8 24  1  0  0  0  0
  9 24  2  0  0  0  0
 10 25  1  0  0  0  0
 11 12  2  0  0  0  0
 11 26  1  0  0  0  0
 12 28  1  0  0  0  0
 13 21  1  0  0  0  0
 13 25  2  0  0  0  0
 14 23  1  0  0  0  0
 14 27  2  0  0  0  0
 15 28  2  0  0  0  0
 15 29  1  0  0  0  0
 16 32  1  0  0  0  0
 17 32  1  0  0  0  0
 17 33  2  0  0  0  0
 17 34  1  0  0  0  0
 18 20  2  0  0  0  0
 18 40  1  0  0  0  0
 19 21  2  0  0  0  0
 19 41  1  0  0  0  0
 20 49  1  0  0  0  0
 21 42  1  0  0  0  0
 22 30  1  0  0  0  0
 22 31  2  0  0  0  0
 22 58  1  0  0  0  0
 23 30  2  0  0  0  0
 23 69  1  0  0  0  0
 24 80  1  0  0  0  0
 25 82  1  0  0  0  0
 26 29  2  0  0  0  0
 26 80  1  0  0  0  0
 27 31  1  0  0  0  0
 27 81  1  0  0  0  0
 28 83  1  0  0  0  0
 29 84  1  0  0  0  0
 30 85  1  0  0  0  0
 31 86  1  0  0  0  0
 32 63  2  0  0  0  0
 33 64  1  0  0  0  0
 33 67  1  0  0  0  0
 34 68  1  0  0  0  0
 34 74  2  0  0  0  0
 35 50  1  0  0  0  0
 35 70  1  0  0  0  0
 35 75  2  0  0  0  0
 36 60  1  0  0  0  0
 36 65  1  0  0  0  0
 36 76  2  0  0  0  0
 37 59  1  0  0  0  0
 37 71  1  0  0  0  0
 37 77  2  0  0  0  0
 38 61  1  0  0  0  0
 38 72  1  0  0  0  0
 38 78  2  0  0  0  0
 39 66  1  0  0  0  0
 39 69  1  0  0  0  0
 39 79  2  0  0  0  0
 40 43  1  0  0  0  0
 41 50  1  0  0  0  0
 42 65  1  0  0  0  0
 43 45  1  0  0  0  0
 44 46  1  0  0  0  0
 44 47  1  0  0  0  0
 45 49  1  0  0  0  0
 46 51  1  0  0  0  0
 47 66  1  0  0  0  0
 48 51  1  0  0  0  0
 48 66  1  0  0  0  0
 49 70  1  0  0  0  0
 50 65  1  0  0  0  0
 51 64  1  0  0  0  0
 52 61  1  0  0  0  0
 53 62  1  0  0  0  0
 54 62  1  0  0  0  0
 55 62  1  0  0  0  0
 56 73  1  0  0  0  0
 57 81  1  0  0  0  0
 58 71  1  0  0  0  0
 59 82  1  0  0  0  0
 60 62  1  0  0  0  0
 60 72  1  0  0  0  0
 61 73  1  0  0  0  0
 63 64  1  0  0  0  0
M  CHG  1  73   1
M  ISO  4  39 100  59 101  69 100  82 101
M  END
> <Batch ID>
0014

> <Smiles>
CNC(C)C(=O)NC(C(=O)N1Cc2cc([101O:1][101CH2:1]C(=O)NCc3c(Cl)c([100NH:0][100C:0](=O)N4CCCC(n5nc(-c6ccc(Oc7ccc(F)cc7F)cc6)c(C(N)=O)c5N)C4)cc(OC)c3Cl)ccc2CC1C(=O)NC1CCCc2ccccc21)C(C)(C)C

> <Shape>
0.293

> <Color>
0.214

> <Negative vol penalty>
0.000

$$$$

  -OEChem-04052315533D

 84 92  0     1  0  0  0  0  0999 V2000
  -28.1967  -12.8818   17.8579 C   0  0  0  0  0  0  0  0  0  0  0  0
  -27.1438  -13.6238   17.3323 C   0  0  0  0  0  0  0  0  0  0  0  0
  -29.2950  -23.5493   19.1790 C   0  0  0  0  0  0  0  0  0  0  0  0
  -27.1284  -22.4900   19.0356 C   0  0  0  0  0  0  0  0  0  0  0  0
  -28.0926  -12.3344   19.1359 C   0  0  0  0  0  0  0  0  0  0  0  0
  -25.9855  -13.8178   18.0841 C   0  0  0  0  0  0  0  0  0  0  0  0
  -22.4598  -20.4550   20.2158 C   0  0  0  0  0  0  0  0  0  0  0  0
  -29.8902  -22.3044   19.3829 C   0  0  0  0  0  0  0  0  0  0  0  0
  -27.7236  -21.2451   19.2395 C   0  0  0  0  0  0  0  0  0  0  0  0
  -21.8336  -21.5632   20.7866 C   0  0  0  0  0  0  0  0  0  0  0  0
  -28.9252  -19.4547   21.8437 C   0  0  0  0  0  0  0  0  0  0  0  0
  -28.3173  -18.5864   22.7503 C   0  0  0  0  0  0  0  0  0  0  0  0
  -18.2779  -27.1690   22.6558 C   0  0  0  0  0  0  0  0  0  0  0  0
  -21.0468  -20.1902   22.6152 C   0  0  0  0  0  0  0  0  0  0  0  0
  -28.0199  -16.9576   20.9909 C   0  0  0  0  0  0  0  0  0  0  0  0
  -27.9141  -23.6421   19.0054 C   0  0  0  0  0  0  0  0  0  0  0  0
  -18.9509  -26.2125   21.9038 C   0  0  0  0  0  0  0  0  0  0  0  0
  -27.0668  -25.5682   17.5632 C   0  0  0  0  0  0  0  0  0  0  0  0
  -26.9363  -12.5300   19.9076 C   0  0  0  0  0  0  0  0  0  0  0  0
  -22.3947  -19.2119   20.8512 C   0  0  0  0  0  0  0  0  0  0  0  0
  -25.8653  -13.2714   19.3732 C   0  0  0  0  0  0  0  0  0  0  0  0
  -21.6826  -19.0792   22.0546 C   0  0  0  0  0  0  0  0  0  0  0  0
  -29.1045  -21.1523   19.4132 C   0  0  0  0  0  0  0  0  0  0  0  0
  -21.1287  -21.4311   21.9832 C   0  0  0  0  0  0  0  0  0  0  0  0
  -29.0805  -19.0745   20.5106 C   0  0  0  0  0  0  0  0  0  0  0  0
  -27.8646  -17.3378   22.3240 C   0  0  0  0  0  0  0  0  0  0  0  0
  -28.6279  -17.8259   20.0843 C   0  0  0  0  0  0  0  0  0  0  0  0
  -20.3251  -26.3205   21.7213 C   0  0  0  0  0  0  0  0  0  0  0  0
  -27.2986  -24.9278   18.7953 C   0  0  0  0  0  0  0  0  0  0  0  0
  -19.0190  -28.2057   23.1997 C   0  0  0  0  0  0  0  0  0  0  0  0
  -20.9746  -27.3952   22.3069 C   0  0  0  0  0  0  0  0  0  0  0  0
  -26.4633  -26.7548   17.9011 C   0  0  0  0  0  0  0  0  0  0  0  0
  -18.2097  -25.0981   21.3088 C   0  0  0  0  0  0  0  0  0  0  0  0
  -27.3699  -25.1296   16.2322 C   0  0  0  0  0  0  0  0  0  0  0  0
  -17.9891  -23.9047   21.8945 C   0  0  0  0  0  0  0  0  0  0  0  0
  -23.3760  -15.5909   20.8142 C   0  0  0  0  0  0  0  0  0  0  0  0
  -23.6192  -16.5503   23.7178 C   0  0  0  0  0  0  0  0  0  0  0  0
  -24.1604  -18.1062   26.7050 C   0  0  0  0  0  0  0  0  0  0  0  0
  -23.2228  -28.4901   22.6120 C   0  0  0  0  0  0  0  0  0  0  0  0
  -26.8510  -11.8790   21.2654 C   0  0  0  0  0  0  0  0  0  0  0  0
  -23.0022  -17.9780   20.2410 C   0  0  0  0  0  0  0  0  0  0  0  0
  -21.6101  -17.7152   22.6849 C   0  0  0  0  0  0  0  0  0  0  0  0
  -25.7392  -12.4463   22.1441 C   0  0  0  0  0  0  0  0  0  0  0  0
  -26.2442  -29.9686   21.4448 C   0  0  0  0  0  0  0  0  0  0  0  0
  -24.4408  -12.5645   21.3523 C   0  0  0  0  0  0  0  0  0  0  0  0
  -26.8333  -28.9045   20.5160 C   0  0  0  0  0  0  0  0  0  0  0  0
  -25.5557  -29.3447   22.6575 C   0  0  0  0  0  0  0  0  0  0  0  0
  -25.1373  -27.2598   21.4136 C   0  0  0  0  0  0  0  0  0  0  0  0
  -24.6025  -13.5248   20.1677 C   0  0  1  0  0  0  0  0  0  0  0  0
  -23.5661  -17.0016   21.2888 C   0  0  1  0  0  0  0  0  0  0  0  0
  -25.7847  -27.8377   20.1445 C   0  0  2  0  0  0  0  0  0  0  0  0
  -18.3299  -29.2499   24.0131 C   0  0  0  0  0  0  0  0  0  0  0  0
  -17.1913  -22.8526   21.1679 C   0  0  0  0  0  0  0  0  0  0  0  0
  -24.9324  -17.6547   29.0497 C   0  0  0  0  0  0  0  0  0  0  0  0
  -20.9317  -15.2532   24.3489 C   0  0  0  0  0  0  0  0  0  0  0  0
  -21.3678  -15.6958   26.7742 C   0  0  0  0  0  0  0  0  0  0  0  0
  -22.8926  -14.1983   25.4876 C   0  0  0  0  0  0  0  0  0  0  0  0
  -26.4380  -19.9773   26.4392 C   0  0  0  0  0  0  0  0  0  0  0  0
  -18.4577  -23.5242   23.2864 C   0  0  0  0  0  0  0  0  0  0  0  0
  -19.3448  -22.2823   23.3064 C   0  0  0  0  0  0  0  0  0  1  0  0
  -22.9542  -16.6900   25.0637 C   0  0  1  0  0  0  0  0  0  0  0  0
  -25.3472  -18.0854   27.6514 C   0  0  2  0  0  0  0  0  0  0  0  0
  -22.0366  -15.4806   25.3998 C   0  0  0  0  0  0  0  0  0  0  0  0
  -26.8769  -25.6481   19.8381 N   0  0  0  0  0  0  0  0  0  0  0  0
  -20.3548  -28.3439   23.0441 N   0  0  0  0  0  0  0  0  0  0  0  0
  -26.3741  -26.7533   19.2621 N   0  0  0  0  0  0  0  0  0  0  0  0
  -22.9246  -17.0583   22.6132 N   0  0  0  0  0  0  0  0  0  0  0  0
  -24.5730  -28.3472   22.2284 N   0  0  0  0  0  0  0  0  0  0  0  0
  -26.0057  -27.7890   17.1639 N   0  0  0  0  0  0  0  0  0  0  0  0
  -27.9907  -23.8843   16.0642 N   0  0  0  0  0  0  0  0  0  0  0  0
  -22.3750  -27.4993   22.1179 N   0  0  0  0  0  0  0  0  0  0  0  0
  -24.5561  -14.8985   20.6208 N   0  0  0  0  0  0  0  0  0  0  0  0
  -24.0264  -16.9127   26.0277 N   0  0  0  0  0  0  0  0  0  0  0  0
  -25.9628  -19.4396   27.7400 N   0  3  0  0  0  0  0  0  0  0  0  0
  -27.1130  -25.8287   15.2228 O   0  0  0  0  0  0  0  0  0  0  0  0
  -22.2423  -15.1604   20.6376 O   0  0  0  0  0  0  0  0  0  0  0  0
  -24.7220  -16.0011   23.6441 O   0  0  0  0  0  0  0  0  0  0  0  0
  -23.4237  -19.0822   26.5819 O   0  0  0  0  0  0  0  0  0  0  0  0
  -22.8415  -29.4379   23.3037 O   0  0  0  0  0  0  0  0  0  0  0  0
  -29.6850  -19.9374   19.6119 O   0  0  0  0  0  0  0  0  0  0  0  0
  -20.5235  -22.5180   22.5374 O   0  0  0  0  0  0  0  0  0  1  0  0
  -27.2822  -16.5035   23.1951 F   0  0  0  0  0  0  0  0  0  0  0  0
  -28.7753  -17.4546   18.8051 F   0  0  0  0  0  0  0  0  0  0  0  0
  -21.0006  -25.4130   21.0016 F   0  0  0  0  0  0  0  0  0  0  0  0
  1  2  1  0  0  0  0
  1  5  2  0  0  0  0
  2  6  2  0  0  0  0
  3  8  2  0  0  0  0
  3 16  1  0  0  0  0
  4  9  1  0  0  0  0
  4 16  2  0  0  0  0
  5 19  1  0  0  0  0
  6 21  1  0  0  0  0
  7 10  2  0  0  0  0
  7 20  1  0  0  0  0
  8 23  1  0  0  0  0
  9 23  2  0  0  0  0
 10 24  1  0  0  0  0
 11 12  2  0  0  0  0
 11 25  1  0  0  0  0
 12 26  1  0  0  0  0
 13 17  1  0  0  0  0
 13 30  2  0  0  0  0
 14 22  1  0  0  0  0
 14 24  2  0  0  0  0
 15 26  2  0  0  0  0
 15 27  1  0  0  0  0
 16 29  1  0  0  0  0
 17 28  2  0  0  0  0
 17 33  1  0  0  0  0
 18 29  1  0  0  0  0
 18 32  2  0  0  0  0
 18 34  1  0  0  0  0
 19 21  2  0  0  0  0
 19 40  1  0  0  0  0
 20 22  2  0  0  0  0
 20 41  1  0  0  0  0
 21 49  1  0  0  0  0
 22 42  1  0  0  0  0
 23 80  1  0  0  0  0
 24 81  1  0  0  0  0
 25 27  2  0  0  0  0
 25 80  1  0  0  0  0
 26 82  1  0  0  0  0
 27 83  1  0  0  0  0
 28 31  1  0  0  0  0
 28 84  1  0  0  0  0
 29 64  2  0  0  0  0
 30 52  1  0  0  0  0
 30 65  1  0  0  0  0
 31 65  2  0  0  0  0
 31 71  1  0  0  0  0
 32 66  1  0  0  0  0
 32 69  1  0  0  0  0
 33 35  2  0  0  0  0
 34 70  1  0  0  0  0
 34 75  2  0  0  0  0
 35 53  1  0  0  0  0
 35 59  1  0  0  0  0
 36 50  1  0  0  0  0
 36 72  1  0  0  0  0
 36 76  2  0  0  0  0
 37 61  1  0  0  0  0
 37 67  1  0  0  0  0
 37 77  2  0  0  0  0
 38 62  1  0  0  0  0
 38 73  1  0  0  0  0
 38 78  2  0  0  0  0
 39 68  1  0  0  0  0
 39 71  1  0  0  0  0
 39 79  2  0  0  0  0
 40 43  1  0  0  0  0
 41 50  1  0  0  0  0
 42 67  1  0  0  0  0
 43 45  1  0  0  0  0
 44 46  1  0  0  0  0
 44 47  1  0  0  0  0
 45 49  1  0  0  0  0
 46 51  1  0  0  0  0
 47 68  1  0  0  0  0
 48 51  1  0  0  0  0
 48 68  1  0  0  0  0
 49 72  1  0  0  0  0
 50 67  1  0  0  0  0
 51 66  1  0  0  0  0
 54 62  1  0  0  0  0
 55 63  1  0  0  0  0
 56 63  1  0  0  0  0
 57 63  1  0  0  0  0
 58 74  1  0  0  0  0
 59 60  1  0  0  0  0
 60 81  1  0  0  0  0
 61 63  1  0  0  0  0
 61 73  1  0  0  0  0
 62 74  1  0  0  0  0
 64 66  1  0  0  0  0
M  CHG  1  74   1
M  ISO  4  39 100  60 101  71 100  81 101
M  END
> <Batch ID>
0014

> <Smiles>
CNC(C)C(=O)NC(C(=O)N1Cc2cc([101O:1][101CH2:1]CC(C)=Cc3cc(C)nc([100NH:0][100C:0](=O)N4CCCC(n5nc(-c6ccc(Oc7ccc(F)cc7F)cc6)c(C(N)=O)c5N)C4)c3F)ccc2CC1C(=O)NC1CCCc2ccccc21)C(C)(C)C

> <Shape>
0.205

> <Color>
0.078

> <Negative vol penalty>
0.000

$$$$

  -OEChem-04052315533D

 86 94  0     1  0  0  0  0  0999 V2000
  -42.1755  -28.4038   25.1972 C   0  0  0  0  0  0  0  0  0  0  0  0
  -41.0094  -27.7714   25.6163 C   0  0  0  0  0  0  0  0  0  0  0  0
  -23.0005   -9.8937   19.9811 C   0  0  0  0  0  0  0  0  0  0  0  0
  -23.7252   -9.9449   22.2853 C   0  0  0  0  0  0  0  0  0  0  0  0
  -42.2279  -29.0053   23.9405 C   0  0  0  0  0  0  0  0  0  0  0  0
  -39.8945  -27.7412   24.7792 C   0  0  0  0  0  0  0  0  0  0  0  0
  -35.8011  -23.2154   24.2617 C   0  0  0  0  0  0  0  0  0  0  0  0
  -22.2338   -8.7593   20.2475 C   0  0  0  0  0  0  0  0  0  0  0  0
  -22.9585   -8.8105   22.5517 C   0  0  0  0  0  0  0  0  0  0  0  0
  -34.5337  -23.0295   24.8121 C   0  0  0  0  0  0  0  0  0  0  0  0
  -23.2027   -5.4715   22.0802 C   0  0  0  0  0  0  0  0  0  0  0  0
  -23.7900   -4.4544   22.8326 C   0  0  0  0  0  0  0  0  0  0  0  0
  -33.5375  -23.9154   22.8016 C   0  0  0  0  0  0  0  0  0  0  0  0
  -31.1983  -17.5847   20.5653 C   0  0  0  0  0  0  0  0  0  0  0  0
  -22.0658   -4.6976   24.5074 C   0  0  0  0  0  0  0  0  0  0  0  0
  -23.7462  -10.4865   21.0001 C   0  0  0  0  0  0  0  0  0  0  0  0
  -24.1317  -13.0020   20.8238 C   0  0  0  0  0  0  0  0  0  0  0  0
  -41.1163  -28.9741   23.0837 C   0  0  0  0  0  0  0  0  0  0  0  0
  -35.9468  -23.7637   22.9793 C   0  0  0  0  0  0  0  0  0  0  0  0
  -39.9316  -28.3440   23.5104 C   0  0  0  0  0  0  0  0  0  0  0  0
  -34.8077  -24.1048   22.2363 C   0  0  0  0  0  0  0  0  0  0  0  0
  -31.4053  -18.9635   20.5257 C   0  0  0  0  0  0  0  0  0  0  0  0
  -30.6847  -19.8017   21.3764 C   0  0  0  0  0  0  0  0  0  0  0  0
  -29.7570  -19.2610   22.2668 C   0  0  0  0  0  0  0  0  0  0  0  0
  -29.5499  -17.8822   22.3064 C   0  0  0  0  0  0  0  0  0  0  0  0
  -30.2705  -17.0440   21.4557 C   0  0  0  0  0  0  0  0  0  0  0  0
  -22.2128   -8.2177   21.5327 C   0  0  0  0  0  0  0  0  0  0  0  0
  -33.4017  -23.3822   24.0832 C   0  0  0  0  0  0  0  0  0  0  0  0
  -22.0470   -6.1018   22.5415 C   0  0  0  0  0  0  0  0  0  0  0  0
  -23.2216   -4.0674   24.0462 C   0  0  0  0  0  0  0  0  0  0  0  0
  -21.4785   -5.7148   23.7551 C   0  0  0  0  0  0  0  0  0  0  0  0
  -24.5388  -11.6580   20.7254 C   0  0  0  0  0  0  0  0  0  0  0  0
  -25.2416  -13.7245   20.4595 C   0  0  0  0  0  0  0  0  0  0  0  0
  -22.8637  -13.5486   21.2100 C   0  0  0  0  0  0  0  0  0  0  0  0
  -37.3061  -26.3846   21.8016 C   0  0  0  0  0  0  0  0  0  0  0  0
  -36.5398  -25.0318   18.9546 C   0  0  0  0  0  0  0  0  0  0  0  0
  -29.5613  -21.8534   24.9197 C   0  0  0  0  0  0  0  0  0  0  0  0
  -34.5478  -22.8752   17.2145 C   0  0  0  0  0  0  0  0  0  0  0  0
  -30.7211  -14.6852   20.6944 C   0  0  0  0  0  0  0  0  0  0  0  0
  -41.2050  -29.6792   21.7534 C   0  0  0  0  0  0  0  0  0  0  0  0
  -37.3200  -23.9330   22.3893 C   0  0  0  0  0  0  0  0  0  0  0  0
  -34.9094  -24.6783   20.8473 C   0  0  0  0  0  0  0  0  0  0  0  0
  -40.1028  -29.2777   20.7766 C   0  0  0  0  0  0  0  0  0  0  0  0
  -29.6031  -12.2321   18.3686 C   0  0  0  0  0  0  0  0  0  0  0  0
  -38.7451  -29.2833   21.4719 C   0  0  0  0  0  0  0  0  0  0  0  0
  -28.1524  -11.9746   18.7825 C   0  0  0  0  0  0  0  0  0  0  0  0
  -30.5034  -12.4756   19.5785 C   0  0  0  0  0  0  0  0  0  0  0  0
  -28.5879  -13.2648   20.9116 C   0  0  0  0  0  0  0  0  0  0  0  0
  -38.7096  -28.2686   22.6211 C   0  0  1  0  0  0  0  0  0  0  0  0
  -37.3685  -24.9774   21.2784 C   0  0  1  0  0  0  0  0  0  0  0  0
  -27.6304  -13.0784   19.7232 C   0  0  2  0  0  0  0  0  0  0  0  0
  -32.4018  -19.5174   19.5605 C   0  0  0  0  0  0  0  0  0  0  0  0
  -30.9084  -21.2803   21.3304 C   0  0  0  0  0  0  0  0  0  0  0  0
  -28.5526  -17.3046   23.2616 C   0  0  0  0  0  0  0  0  0  0  0  0
  -33.7108  -21.5388   15.2624 C   0  0  0  0  0  0  0  0  0  0  0  0
  -35.1355  -27.6430   18.2338 C   0  0  0  0  0  0  0  0  0  0  0  0
  -33.9673  -26.4234   16.3855 C   0  0  0  0  0  0  0  0  0  0  0  0
  -36.4541  -26.6191   16.3717 C   0  0  0  0  0  0  0  0  0  0  0  0
  -36.3503  -20.6132   17.8416 C   0  0  0  0  0  0  0  0  0  0  0  0
  -28.9816  -20.1639   23.1822 C   0  0  0  0  0  0  0  0  0  0  0  0
  -30.5668  -22.0921   26.0353 C   0  0  0  0  0  0  0  0  0  0  0  0
  -32.0049  -22.1260   25.5415 C   0  0  0  0  0  0  0  0  0  1  0  0
  -35.3414  -25.0768   18.0377 C   0  0  1  0  0  0  0  0  0  0  0  0
  -34.8780  -21.7917   16.2038 C   0  0  2  0  0  0  0  0  0  0  0  0
  -35.2224  -26.4316   17.2841 C   0  0  0  0  0  0  0  0  0  0  0  0
  -25.8082  -11.5314   20.3295 N   0  0  0  0  0  0  0  0  0  0  0  0
  -26.2083  -12.8051   20.1758 N   0  0  0  0  0  0  0  0  0  0  0  0
  -36.2742  -24.8306   20.3165 N   0  0  0  0  0  0  0  0  0  0  0  0
  -29.9483  -13.5367   20.4216 N   0  0  0  0  0  0  0  0  0  0  0  0
  -25.4752  -15.0502   20.3573 N   0  0  0  0  0  0  0  0  0  0  0  0
  -21.8318  -12.6645   21.5534 N   0  0  0  0  0  0  0  0  0  0  0  0
  -30.0768  -15.6406   21.4798 N   0  0  0  0  0  0  0  0  0  0  0  0
  -38.5402  -26.9270   22.1056 N   0  0  0  0  0  0  0  0  0  0  0  0
  -29.7891  -20.6430   24.2808 N   0  0  0  0  0  0  0  0  0  0  0  0
  -35.4527  -23.9144   17.1631 N   0  0  0  0  0  0  0  0  0  0  0  0
  -35.2048  -20.5156   16.9007 N   0  3  0  0  0  0  0  0  0  0  0  0
  -22.6471  -14.7839   21.2336 O   0  0  0  0  0  0  0  0  0  0  0  0
  -36.2190  -26.9378   21.9192 O   0  0  0  0  0  0  0  0  0  0  0  0
  -37.6704  -25.1628   18.4791 O   0  0  0  0  0  0  0  0  0  0  0  0
  -28.6676  -22.6467   24.6373 O   0  0  0  0  0  0  0  0  0  0  0  0
  -33.5816  -22.8084   17.9710 O   0  0  0  0  0  0  0  0  0  0  0  0
  -31.8599  -14.8240   20.2406 O   0  0  0  0  0  0  0  0  0  0  0  0
  -21.4646   -7.1109   21.7930 O   0  0  0  0  0  0  0  0  0  0  0  0
  -32.1635  -23.2025   24.6182 O   0  0  0  0  0  0  0  0  0  1  0  0
  -23.7848   -3.0895   24.7678 F   0  0  0  0  0  0  0  0  0  0  0  0
  -20.3676   -6.3158   24.2028 F   0  0  0  0  0  0  0  0  0  0  0  0
  1  2  1  0  0  0  0
  1  5  2  0  0  0  0
  2  6  2  0  0  0  0
  3  8  2  0  0  0  0
  3 16  1  0  0  0  0
  4  9  1  0  0  0  0
  4 16  2  0  0  0  0
  5 18  1  0  0  0  0
  6 20  1  0  0  0  0
  7 10  2  0  0  0  0
  7 19  1  0  0  0  0
  8 27  1  0  0  0  0
  9 27  2  0  0  0  0
 10 28  1  0  0  0  0
 11 12  2  0  0  0  0
 11 29  1  0  0  0  0
 12 30  1  0  0  0  0
 13 21  1  0  0  0  0
 13 28  2  0  0  0  0
 14 22  1  0  0  0  0
 14 26  2  0  0  0  0
 15 30  2  0  0  0  0
 15 31  1  0  0  0  0
 16 32  1  0  0  0  0
 17 32  1  0  0  0  0
 17 33  2  0  0  0  0
 17 34  1  0  0  0  0
 18 20  2  0  0  0  0
 18 40  1  0  0  0  0
 19 21  2  0  0  0  0
 19 41  1  0  0  0  0
 20 49  1  0  0  0  0
 21 42  1  0  0  0  0
 22 23  2  0  0  0  0
 22 52  1  0  0  0  0
 23 24  1  0  0  0  0
 23 53  1  0  0  0  0
 24 25  2  0  0  0  0
 24 60  1  0  0  0  0
 25 26  1  0  0  0  0
 25 54  1  0  0  0  0
 26 72  1  0  0  0  0
 27 83  1  0  0  0  0
 28 84  1  0  0  0  0
 29 31  2  0  0  0  0
 29 83  1  0  0  0  0
 30 85  1  0  0  0  0
 31 86  1  0  0  0  0
 32 66  2  0  0  0  0
 33 67  1  0  0  0  0
 33 70  1  0  0  0  0
 34 71  1  0  0  0  0
 34 77  2  0  0  0  0
 35 50  1  0  0  0  0
 35 73  1  0  0  0  0
 35 78  2  0  0  0  0
 36 63  1  0  0  0  0
 36 68  1  0  0  0  0
 36 79  2  0  0  0  0
 37 61  1  0  0  0  0
 37 74  1  0  0  0  0
 37 80  2  0  0  0  0
 38 64  1  0  0  0  0
 38 75  1  0  0  0  0
 38 81  2  0  0  0  0
 39 69  1  0  0  0  0
 39 72  1  0  0  0  0
 39 82  2  0  0  0  0
 40 43  1  0  0  0  0
 41 50  1  0  0  0  0
 42 68  1  0  0  0  0
 43 45  1  0  0  0  0
 44 46  1  0  0  0  0
 44 47  1  0  0  0  0
 45 49  1  0  0  0  0
 46 51  1  0  0  0  0
 47 69  1  0  0  0  0
 48 51  1  0  0  0  0
 48 69  1  0  0  0  0
 49 73  1  0  0  0  0
 50 68  1  0  0  0  0
 51 67  1  0  0  0  0
 55 64  1  0  0  0  0
 56 65  1  0  0  0  0
 57 65  1  0  0  0  0
 58 65  1  0  0  0  0
 59 76  1  0  0  0  0
 60 74  1  0  0  0  0
 61 62  1  0  0  0  0
 62 84  1  0  0  0  0
 63 65  1  0  0  0  0
 63 75  1  0  0  0  0
 64 76  1  0  0  0  0
 66 67  1  0  0  0  0
M  CHG  1  76   1
M  ISO  4  39 100  62 101  72 100  84 101
M  END
> <Batch ID>
0014

> <Smiles>
CNC(C)C(=O)NC(C(=O)N1Cc2cc([101O:1][101CH2:1]CC(=O)NCc3c(C)c(C)cc([100NH:0][100C:0](=O)N4CCCC(n5nc(-c6ccc(Oc7ccc(F)cc7F)cc6)c(C(N)=O)c5N)C4)c3C)ccc2CC1C(=O)NC1CCCc2ccccc21)C(C)(C)C

> <Shape>
0.183

> <Color>
0.198

> <Negative vol penalty>
0.000

$$$$

  -OEChem-04052315533D

 85 93  0     1  0  0  0  0  0999 V2000
  -19.6842  -14.7812   17.1400 C   0  0  0  0  0  0  0  0  0  0  0  0
  -20.5252  -15.8592   17.3971 C   0  0  0  0  0  0  0  0  0  0  0  0
  -16.9133  -26.4021   20.3731 C   0  0  0  0  0  0  0  0  0  0  0  0
  -18.5757  -24.7595   20.9860 C   0  0  0  0  0  0  0  0  0  0  0  0
  -19.9417  -13.5425   17.7258 C   0  0  0  0  0  0  0  0  0  0  0  0
  -21.6236  -15.6994   18.2411 C   0  0  0  0  0  0  0  0  0  0  0  0
  -27.0753  -18.4456   17.7488 C   0  0  0  0  0  0  0  0  0  0  0  0
  -16.2722  -25.4552   19.5743 C   0  0  0  0  0  0  0  0  0  0  0  0
  -17.9346  -23.8126   20.1873 C   0  0  0  0  0  0  0  0  0  0  0  0
  -27.6243  -19.5607   18.3804 C   0  0  0  0  0  0  0  0  0  0  0  0
  -17.7406  -23.0473   16.8998 C   0  0  0  0  0  0  0  0  0  0  0  0
  -18.5340  -22.2571   16.0681 C   0  0  0  0  0  0  0  0  0  0  0  0
  -28.7008  -18.1150   19.9837 C   0  0  0  0  0  0  0  0  0  0  0  0
  -27.1777  -28.7053   20.7289 C   0  0  0  0  0  0  0  0  0  0  0  0
  -17.7363  -20.2730   17.1924 C   0  0  0  0  0  0  0  0  0  0  0  0
  -18.0651  -26.0543   21.0790 C   0  0  0  0  0  0  0  0  0  0  0  0
  -18.4892  -27.2981   23.2654 C   0  0  0  0  0  0  0  0  0  0  0  0
  -21.0493  -13.3650   18.5699 C   0  0  0  0  0  0  0  0  0  0  0  0
  -27.3265  -17.1554   18.2372 C   0  0  0  0  0  0  0  0  0  0  0  0
  -21.8953  -14.4575   18.8399 C   0  0  0  0  0  0  0  0  0  0  0  0
  -28.1559  -16.9851   19.3549 C   0  0  0  0  0  0  0  0  0  0  0  0
  -28.3954  -28.0727   20.4790 C   0  0  0  0  0  0  0  0  0  0  0  0
  -27.6468  -26.1407   21.7216 C   0  0  0  0  0  0  0  0  0  0  0  0
  -26.1945  -28.0557   21.4753 C   0  0  0  0  0  0  0  0  0  0  0  0
  -16.7828  -24.1605   19.4814 C   0  0  0  0  0  0  0  0  0  0  0  0
  -28.4349  -19.3957   19.4998 C   0  0  0  0  0  0  0  0  0  0  0  0
  -16.9451  -22.4504   17.8778 C   0  0  0  0  0  0  0  0  0  0  0  0
  -18.5318  -20.8699   16.2144 C   0  0  0  0  0  0  0  0  0  0  0  0
  -16.9429  -21.0632   18.0241 C   0  0  0  0  0  0  0  0  0  0  0  0
  -28.6300  -26.7904   20.9752 C   0  0  0  0  0  0  0  0  0  0  0  0
  -26.4291  -26.7734   21.9716 C   0  0  0  0  0  0  0  0  0  0  0  0
  -18.7281  -27.0321   21.9038 C   0  0  0  0  0  0  0  0  0  0  0  0
  -19.3697  -28.3047   23.5783 C   0  0  0  0  0  0  0  0  0  0  0  0
  -17.5549  -26.6896   24.1669 C   0  0  0  0  0  0  0  0  0  0  0  0
  -25.5285  -14.8121   19.4120 C   0  0  0  0  0  0  0  0  0  0  0  0
  -28.3217  -13.1640   19.3490 C   0  0  0  0  0  0  0  0  0  0  0  0
  -28.5082  -22.5597   21.2695 C   0  0  0  0  0  0  0  0  0  0  0  0
  -31.7335  -13.2436   19.3583 C   0  0  0  0  0  0  0  0  0  0  0  0
  -24.6126  -30.0056   21.2709 C   0  0  0  0  0  0  0  0  0  0  0  0
  -21.2599  -12.0194   19.2177 C   0  0  0  0  0  0  0  0  0  0  0  0
  -26.7485  -15.9612   17.5285 C   0  0  0  0  0  0  0  0  0  0  0  0
  -28.4729  -15.6199   19.9066 C   0  0  0  0  0  0  0  0  0  0  0  0
  -22.6581  -11.8372   19.8027 C   0  0  0  0  0  0  0  0  0  0  0  0
  -21.6842  -32.0033   21.6039 C   0  0  0  0  0  0  0  0  0  0  0  0
  -23.0617  -13.0647   20.6134 C   0  0  0  0  0  0  0  0  0  0  0  0
  -20.5730  -30.9797   21.8486 C   0  0  0  0  0  0  0  0  0  0  0  0
  -22.7259  -31.4838   20.6146 C   0  0  0  0  0  0  0  0  0  0  0  0
  -22.1882  -29.1501   21.1925 C   0  0  0  0  0  0  0  0  0  0  0  0
  -23.1109  -14.3174   19.7303 C   0  0  1  0  0  0  0  0  0  0  0  0
  -26.6531  -14.7263   18.4192 C   0  0  1  0  0  0  0  0  0  0  0  0
  -21.1496  -29.6027   22.2318 C   0  0  2  0  0  0  0  0  0  0  0  0
  -29.4192  -28.8076   19.6744 C   0  0  0  0  0  0  0  0  0  0  0  0
  -33.7392  -11.7355   19.3390 C   0  0  0  0  0  0  0  0  0  0  0  0
  -27.8656  -12.5237   22.2972 C   0  0  0  0  0  0  0  0  0  0  0  0
  -30.2761  -11.8660   22.4555 C   0  0  0  0  0  0  0  0  0  0  0  0
  -28.7409  -10.6152   20.9385 C   0  0  0  0  0  0  0  0  0  0  0  0
  -32.6956  -14.3636   16.7934 C   0  0  0  0  0  0  0  0  0  0  0  0
  -27.9001  -24.7605   22.2554 C   0  0  0  0  0  0  0  0  0  0  0  0
  -28.2274  -21.6985   20.0566 C   0  0  0  0  0  0  0  0  0  1  0  0
  -29.4628  -12.9567   20.3154 C   0  0  1  0  0  0  0  0  0  0  0  0
  -32.7600  -12.5347   18.4933 C   0  0  2  0  0  0  0  0  0  0  0  0
  -29.0790  -12.0164   21.4926 C   0  0  0  0  0  0  0  0  0  0  0  0
  -19.6852  -27.8073   21.3872 N   0  0  0  0  0  0  0  0  0  0  0  0
  -20.0555  -28.5703   22.4297 N   0  0  0  0  0  0  0  0  0  0  0  0
  -27.8789  -14.4838   19.1826 N   0  0  0  0  0  0  0  0  0  0  0  0
  -23.2306  -30.1779   21.0447 N   0  0  0  0  0  0  0  0  0  0  0  0
  -19.6164  -28.9797   24.7210 N   0  0  0  0  0  0  0  0  0  0  0  0
  -16.7252  -25.6698   23.6813 N   0  0  0  0  0  0  0  0  0  0  0  0
  -24.9707  -28.7308   21.7082 N   0  0  0  0  0  0  0  0  0  0  0  0
  -24.3226  -14.3307   18.9391 N   0  0  0  0  0  0  0  0  0  0  0  0
  -27.8096  -23.7559   21.2213 N   0  0  0  0  0  0  0  0  0  0  0  0
  -30.5917  -12.4875   19.5194 N   0  0  0  0  0  0  0  0  0  0  0  0
  -33.5318  -13.5241   17.6894 N   0  3  0  0  0  0  0  0  0  0  0  0
  -17.4473  -27.0511   25.3632 O   0  0  0  0  0  0  0  0  0  0  0  0
  -25.7395  -15.2792   20.5251 O   0  0  0  0  0  0  0  0  0  0  0  0
  -27.8456  -12.1915   18.7580 O   0  0  0  0  0  0  0  0  0  0  0  0
  -29.2690  -22.2128   22.1688 O   0  0  0  0  0  0  0  0  0  0  0  0
  -31.9268  -14.3552   19.8457 O   0  0  0  0  0  0  0  0  0  0  0  0
  -25.4156  -30.9292   21.1160 O   0  0  0  0  0  0  0  0  0  0  0  0
  -16.1574  -23.2363   18.7022 O   0  0  0  0  0  0  0  0  0  0  0  0
  -28.9715  -20.4824   20.1186 O   0  0  0  0  0  0  0  0  0  1  0  0
  -19.2926  -20.1111   15.4147 F   0  0  0  0  0  0  0  0  0  0  0  0
  -16.1798  -20.4840   18.9611 F   0  0  0  0  0  0  0  0  0  0  0  0
  -30.1454  -26.0109   20.6605 Cl  0  0  0  0  0  0  0  0  0  0  0  0
  -25.2055  -25.9664   22.8998 Cl  0  0  0  0  0  0  0  0  0  0  0  0
  1  2  1  0  0  0  0
  1  5  2  0  0  0  0
  2  6  2  0  0  0  0
  3  8  2  0  0  0  0
  3 16  1  0  0  0  0
  4  9  1  0  0  0  0
  4 16  2  0  0  0  0
  5 18  1  0  0  0  0
  6 20  1  0  0  0  0
  7 10  2  0  0  0  0
  7 19  1  0  0  0  0
  8 25  1  0  0  0  0
  9 25  2  0  0  0  0
 10 26  1  0  0  0  0
 11 12  2  0  0  0  0
 11 27  1  0  0  0  0
 12 28  1  0  0  0  0
 13 21  1  0  0  0  0
 13 26  2  0  0  0  0
 14 22  1  0  0  0  0
 14 24  2  0  0  0  0
 15 28  2  0  0  0  0
 15 29  1  0  0  0  0
 16 32  1  0  0  0  0
 17 32  1  0  0  0  0
 17 33  2  0  0  0  0
 17 34  1  0  0  0  0
 18 20  2  0  0  0  0
 18 40  1  0  0  0  0
 19 21  2  0  0  0  0
 19 41  1  0  0  0  0
 20 49  1  0  0  0  0
 21 42  1  0  0  0  0
 22 30  2  0  0  0  0
 22 52  1  0  0  0  0
 23 30  1  0  0  0  0
 23 31  2  0  0  0  0
 23 58  1  0  0  0  0
 24 31  1  0  0  0  0
 24 69  1  0  0  0  0
 25 80  1  0  0  0  0
 26 81  1  0  0  0  0
 27 29  2  0  0  0  0
 27 80  1  0  0  0  0
 28 82  1  0  0  0  0
 29 83  1  0  0  0  0
 30 84  1  0  0  0  0
 31 85  1  0  0  0  0
 32 63  2  0  0  0  0
 33 64  1  0  0  0  0
 33 67  1  0  0  0  0
 34 68  1  0  0  0  0
 34 74  2  0  0  0  0
 35 50  1  0  0  0  0
 35 70  1  0  0  0  0
 35 75  2  0  0  0  0
 36 60  1  0  0  0  0
 36 65  1  0  0  0  0
 36 76  2  0  0  0  0
 37 59  1  0  0  0  0
 37 71  1  0  0  0  0
 37 77  2  0  0  0  0
 38 61  1  0  0  0  0
 38 72  1  0  0  0  0
 38 78  2  0  0  0  0
 39 66  1  0  0  0  0
 39 69  1  0  0  0  0
 39 79  2  0  0  0  0
 40 43  1  0  0  0  0
 41 50  1  0  0  0  0
 42 65  1  0  0  0  0
 43 45  1  0  0  0  0
 44 46  1  0  0  0  0
 44 47  1  0  0  0  0
 45 49  1  0  0  0  0
 46 51  1  0  0  0  0
 47 66  1  0  0  0  0
 48 51  1  0  0  0  0
 48 66  1  0  0  0  0
 49 70  1  0  0  0  0
 50 65  1  0  0  0  0
 51 64  1  0  0  0  0
 53 61  1  0  0  0  0
 54 62  1  0  0  0  0
 55 62  1  0  0  0  0
 56 62  1  0  0  0  0
 57 73  1  0  0  0  0
 58 71  1  0  0  0  0
 59 81  1  0  0  0  0
 60 62  1  0  0  0  0
 60 72  1  0  0  0  0
 61 73  1  0  0  0  0
 63 64  1  0  0  0  0
M  CHG  1  73   1
M  ISO  4  39 100  59 101  69 100  81 101
M  END
> <Batch ID>
0014

> <Smiles>
CNC(C)C(=O)NC(C(=O)N1Cc2cc([101O:1][101CH2:1]C(=O)NCc3c(Cl)c(C)cc([100NH:0][100C:0](=O)N4CCCC(n5nc(-c6ccc(Oc7ccc(F)cc7F)cc6)c(C(N)=O)c5N)C4)c3Cl)ccc2CC1C(=O)NC1CCCc2ccccc21)C(C)(C)C

> <Shape>
0.241

> <Color>
0.068

> <Negative vol penalty>
0.000

$$$$

  -OEChem-04052315533D

 85 93  0     1  0  0  0  0  0999 V2000
  -27.3903  -12.7203   17.1289 C   0  0  0  0  0  0  0  0  0  0  0  0
  -26.5298  -13.7906   16.9068 C   0  0  0  0  0  0  0  0  0  0  0  0
  -28.0114  -22.6380   22.1886 C   0  0  0  0  0  0  0  0  0  0  0  0
  -28.8125  -23.7738   20.2124 C   0  0  0  0  0  0  0  0  0  0  0  0
  -27.3886  -12.0703   18.3623 C   0  0  0  0  0  0  0  0  0  0  0  0
  -25.6662  -14.2108   17.9177 C   0  0  0  0  0  0  0  0  0  0  0  0
  -23.8844  -19.9523   19.0871 C   0  0  0  0  0  0  0  0  0  0  0  0
  -28.2994  -21.4076   21.5982 C   0  0  0  0  0  0  0  0  0  0  0  0
  -29.1006  -22.5433   19.6220 C   0  0  0  0  0  0  0  0  0  0  0  0
  -22.7319  -20.6628   18.7547 C   0  0  0  0  0  0  0  0  0  0  0  0
  -31.0264  -19.4848   21.0509 C   0  0  0  0  0  0  0  0  0  0  0  0
  -31.6765  -18.5281   21.8305 C   0  0  0  0  0  0  0  0  0  0  0  0
  -21.7862  -20.1241   20.9076 C   0  0  0  0  0  0  0  0  0  0  0  0
  -18.0463  -27.2092   22.5230 C   0  0  0  0  0  0  0  0  0  0  0  0
  -19.8940  -28.5906   23.2404 C   0  0  0  0  0  0  0  0  0  0  0  0
  -29.8124  -17.0200   21.5342 C   0  0  0  0  0  0  0  0  0  0  0  0
  -28.2679  -23.8212   21.4956 C   0  0  0  0  0  0  0  0  0  0  0  0
  -28.5025  -25.6072   23.3020 C   0  0  0  0  0  0  0  0  0  0  0  0
  -26.5314  -12.4889   19.3921 C   0  0  0  0  0  0  0  0  0  0  0  0
  -23.9923  -19.3121   20.3300 C   0  0  0  0  0  0  0  0  0  0  0  0
  -25.6520  -13.5650   19.1656 C   0  0  0  0  0  0  0  0  0  0  0  0
  -22.9423  -19.4082   21.2543 C   0  0  0  0  0  0  0  0  0  0  0  0
  -18.5529  -28.2201   23.3398 C   0  0  0  0  0  0  0  0  0  0  0  0
  -18.8808  -26.5688   21.6069 C   0  0  0  0  0  0  0  0  0  0  0  0
  -20.7285  -27.9502   22.3243 C   0  0  0  0  0  0  0  0  0  0  0  0
  -28.8440  -21.3602   20.3150 C   0  0  0  0  0  0  0  0  0  0  0  0
  -21.6814  -20.7464   19.6639 C   0  0  0  0  0  0  0  0  0  0  0  0
  -29.7692  -19.2091   20.5131 C   0  0  0  0  0  0  0  0  0  0  0  0
  -31.0695  -17.2957   22.0721 C   0  0  0  0  0  0  0  0  0  0  0  0
  -29.1623  -17.9767   20.7547 C   0  0  0  0  0  0  0  0  0  0  0  0
  -20.2218  -26.9393   21.5076 C   0  0  0  0  0  0  0  0  0  0  0  0
  -27.9700  -25.0926   22.1047 C   0  0  0  0  0  0  0  0  0  0  0  0
  -27.9065  -26.8366   23.4423 C   0  0  0  0  0  0  0  0  0  0  0  0
  -29.4512  -25.0259   24.2063 C   0  0  0  0  0  0  0  0  0  0  0  0
  -24.3407  -16.2982   21.2781 C   0  0  0  0  0  0  0  0  0  0  0  0
  -24.6362  -17.6629   24.2060 C   0  0  0  0  0  0  0  0  0  0  0  0
  -19.1030  -23.2817   19.9329 C   0  0  0  0  0  0  0  0  0  0  0  0
  -23.9805  -20.3215   26.2428 C   0  0  0  0  0  0  0  0  0  0  0  0
  -22.6603  -28.8730   21.0548 C   0  0  0  0  0  0  0  0  0  0  0  0
  -26.5319  -11.7251   20.6926 C   0  0  0  0  0  0  0  0  0  0  0  0
  -25.2531  -18.5720   20.6838 C   0  0  0  0  0  0  0  0  0  0  0  0
  -23.0167  -18.7559   22.6098 C   0  0  0  0  0  0  0  0  0  0  0  0
  -25.8514  -12.4711   21.8374 C   0  0  0  0  0  0  0  0  0  0  0  0
  -26.0121  -30.4055   20.8914 C   0  0  0  0  0  0  0  0  0  0  0  0
  -24.5176  -13.0515   21.3781 C   0  0  0  0  0  0  0  0  0  0  0  0
  -26.9376  -29.2365   21.2246 C   0  0  0  0  0  0  0  0  0  0  0  0
  -24.7309  -29.9372   20.2080 C   0  0  0  0  0  0  0  0  0  0  0  0
  -24.9132  -27.7265   21.3081 C   0  0  0  0  0  0  0  0  0  0  0  0
  -24.7181  -14.0660   20.2458 C   0  0  1  0  0  0  0  0  0  0  0  0
  -25.0463  -17.5276   21.7764 C   0  0  1  0  0  0  0  0  0  0  0  0
  -26.1938  -28.1619   22.0364 C   0  0  1  0  0  0  0  0  0  0  0  0
  -17.6600  -28.9050   24.3182 C   0  0  0  0  0  0  0  0  0  0  0  0
  -24.3161  -21.1316   28.5941 C   0  0  0  0  0  0  0  0  0  0  0  0
  -22.4263  -15.7898   25.1641 C   0  0  0  0  0  0  0  0  0  0  0  0
  -22.1514  -17.2558   27.1750 C   0  0  0  0  0  0  0  0  0  0  0  0
  -24.3165  -16.0831   26.7751 C   0  0  0  0  0  0  0  0  0  0  0  0
  -22.8756  -28.4718   23.4966 C   0  0  0  0  0  0  0  0  0  0  0  0
  -25.5486  -22.6621   25.3361 C   0  0  0  0  0  0  0  0  0  0  0  0
  -18.2916  -25.4864   20.7493 C   0  0  0  0  0  0  0  0  0  0  0  0
  -19.8390  -22.0496   20.4144 C   0  0  0  0  0  0  0  0  0  1  0  0
  -23.6792  -18.0426   25.3101 C   0  0  1  0  0  0  0  0  0  0  0  0
  -24.8722  -21.1174   27.1788 C   0  0  2  0  0  0  0  0  0  0  0  0
  -23.1409  -16.8036   26.0799 C   0  0  0  0  0  0  0  0  0  0  0  0
  -27.1023  -25.9268   21.5258 N   0  0  0  0  0  0  0  0  0  0  0  0
  -27.0850  -26.9780   22.3629 N   0  0  0  0  0  0  0  0  0  0  0  0
  -24.2676  -18.0384   22.9064 N   0  0  0  0  0  0  0  0  0  0  0  0
  -24.0675  -28.8839   20.9776 N   0  0  0  0  0  0  0  0  0  0  0  0
  -28.0102  -27.7997   24.3826 N   0  0  0  0  0  0  0  0  0  0  0  0
  -30.8144  -25.2738   23.9950 N   0  0  0  0  0  0  0  0  0  0  0  0
  -25.1871  -15.3285   20.7755 N   0  0  0  0  0  0  0  0  0  0  0  0
  -18.9590  -24.2198   20.9430 N   0  0  0  0  0  0  0  0  0  0  0  0
  -24.3844  -19.0066   26.1479 N   0  0  0  0  0  0  0  0  0  0  0  0
  -22.1105  -28.3616   22.2503 N   0  0  0  0  0  0  0  0  0  0  0  0
  -24.9922  -22.5259   26.7069 N   0  3  0  0  0  0  0  0  0  0  0  0
  -29.1014  -24.2944   25.1634 O   0  0  0  0  0  0  0  0  0  0  0  0
  -23.1188  -16.2335   21.3461 O   0  0  0  0  0  0  0  0  0  0  0  0
  -25.6761  -17.0618   24.4872 O   0  0  0  0  0  0  0  0  0  0  0  0
  -18.6947  -23.4040   18.7813 O   0  0  0  0  0  0  0  0  0  0  0  0
  -23.0195  -20.8160   25.6576 O   0  0  0  0  0  0  0  0  0  0  0  0
  -21.9533  -29.3129   20.1404 O   0  0  0  0  0  0  0  0  0  0  0  0
  -29.1254  -20.1596   19.7387 O   0  0  0  0  0  0  0  0  0  0  0  0
  -20.5550  -21.4387   19.3417 O   0  0  0  0  0  0  0  0  0  1  0  0
  -31.6946  -16.3765   22.8195 F   0  0  0  0  0  0  0  0  0  0  0  0
  -27.9552  -17.7056   20.2397 F   0  0  0  0  0  0  0  0  0  0  0  0
  -21.2539  -26.1391   20.3674 Cl  0  0  0  0  0  0  0  0  0  0  0  0
  1  2  1  0  0  0  0
  1  5  2  0  0  0  0
  2  6  2  0  0  0  0
  3  8  2  0  0  0  0
  3 17  1  0  0  0  0
  4  9  1  0  0  0  0
  4 17  2  0  0  0  0
  5 19  1  0  0  0  0
  6 21  1  0  0  0  0
  7 10  2  0  0  0  0
  7 20  1  0  0  0  0
  8 26  1  0  0  0  0
  9 26  2  0  0  0  0
 10 27  1  0  0  0  0
 11 12  2  0  0  0  0
 11 28  1  0  0  0  0
 12 29  1  0  0  0  0
 13 22  1  0  0  0  0
 13 27  2  0  0  0  0
 14 23  2  0  0  0  0
 14 24  1  0  0  0  0
 15 23  1  0  0  0  0
 15 25  2  0  0  0  0
 16 29  2  0  0  0  0
 16 30  1  0  0  0  0
 17 32  1  0  0  0  0
 18 32  1  0  0  0  0
 18 33  2  0  0  0  0
 18 34  1  0  0  0  0
 19 21  2  0  0  0  0
 19 40  1  0  0  0  0
 20 22  2  0  0  0  0
 20 41  1  0  0  0  0
 21 49  1  0  0  0  0
 22 42  1  0  0  0  0
 23 52  1  0  0  0  0
 24 31  2  0  0  0  0
 24 59  1  0  0  0  0
 25 31  1  0  0  0  0
 25 73  1  0  0  0  0
 26 81  1  0  0  0  0
 27 82  1  0  0  0  0
 28 30  2  0  0  0  0
 28 81  1  0  0  0  0
 29 83  1  0  0  0  0
 30 84  1  0  0  0  0
 31 85  1  0  0  0  0
 32 64  2  0  0  0  0
 33 65  1  0  0  0  0
 33 68  1  0  0  0  0
 34 69  1  0  0  0  0
 34 75  2  0  0  0  0
 35 50  1  0  0  0  0
 35 70  1  0  0  0  0
 35 76  2  0  0  0  0
 36 61  1  0  0  0  0
 36 66  1  0  0  0  0
 36 77  2  0  0  0  0
 37 60  1  0  0  0  0
 37 71  1  0  0  0  0
 37 78  2  0  0  0  0
 38 62  1  0  0  0  0
 38 72  1  0  0  0  0
 38 79  2  0  0  0  0
 39 67  1  0  0  0  0
 39 73  1  0  0  0  0
 39 80  2  0  0  0  0
 40 43  1  0  0  0  0
 41 50  1  0  0  0  0
 42 66  1  0  0  0  0
 43 45  1  0  0  0  0
 44 46  1  0  0  0  0
 44 47  1  0  0  0  0
 45 49  1  0  0  0  0
 46 51  1  0  0  0  0
 47 67  1  0  0  0  0
 48 51  1  0  0  0  0
 48 67  1  0  0  0  0
 49 70  1  0  0  0  0
 50 66  1  0  0  0  0
 51 65  1  0  0  0  0
 53 62  1  0  0  0  0
 54 63  1  0  0  0  0
 55 63  1  0  0  0  0
 56 63  1  0  0  0  0
 57 73  1  0  0  0  0
 58 74  1  0  0  0  0
 59 71  1  0  0  0  0
 60 82  1  0  0  0  0
 61 63  1  0  0  0  0
 61 72  1  0  0  0  0
 62 74  1  0  0  0  0
 64 65  1  0  0  0  0
M  CHG  1  74   1
M  ISO  4  39 100  60 101  73 100  82 101
M  END
> <Batch ID>
0014

> <Smiles>
CNC(C)C(=O)NC(C(=O)N1Cc2cc([101O:1][101CH2:1]C(=O)NCc3cc(C)cc([100N:0](C)[100C:0](=O)N4CCCC(n5nc(-c6ccc(Oc7ccc(F)cc7F)cc6)c(C(N)=O)c5N)C4)c3Cl)ccc2CC1C(=O)NC1CCCc2ccccc21)C(C)(C)C

> <Shape>
0.206

> <Color>
0.074

> <Negative vol penalty>
0.000

$$$$

  -OEChem-04052315533D

 85 93  0     1  0  0  0  0  0999 V2000
  -29.2587  -20.5348   14.2744 C   0  0  0  0  0  0  0  0  0  0  0  0
  -28.8486  -20.6662   15.5973 C   0  0  0  0  0  0  0  0  0  0  0  0
  -23.0990   -9.8944   19.8757 C   0  0  0  0  0  0  0  0  0  0  0  0
  -23.8873   -9.8032   22.1577 C   0  0  0  0  0  0  0  0  0  0  0  0
  -30.2852  -21.3390   13.7809 C   0  0  0  0  0  0  0  0  0  0  0  0
  -29.4654  -21.6012   16.4277 C   0  0  0  0  0  0  0  0  0  0  0  0
  -26.1395  -24.2460   19.1823 C   0  0  0  0  0  0  0  0  0  0  0  0
  -22.3773   -8.7180   20.0779 C   0  0  0  0  0  0  0  0  0  0  0  0
  -23.1656   -8.6268   22.3599 C   0  0  0  0  0  0  0  0  0  0  0  0
  -25.5988  -23.6177   20.3034 C   0  0  0  0  0  0  0  0  0  0  0  0
  -19.9588   -7.7459   22.9606 C   0  0  0  0  0  0  0  0  0  0  0  0
  -19.2173   -7.6364   24.1370 C   0  0  0  0  0  0  0  0  0  0  0  0
  -27.1524  -24.8090   21.7128 C   0  0  0  0  0  0  0  0  0  0  0  0
  -31.0610  -17.7845   20.8018 C   0  0  0  0  0  0  0  0  0  0  0  0
  -20.4995   -5.6869   24.7637 C   0  0  0  0  0  0  0  0  0  0  0  0
  -23.8540  -10.4370   20.9156 C   0  0  0  0  0  0  0  0  0  0  0  0
  -24.1528  -12.9705   20.9146 C   0  0  0  0  0  0  0  0  0  0  0  0
  -30.9084  -22.2911   14.6031 C   0  0  0  0  0  0  0  0  0  0  0  0
  -27.1997  -25.1538   19.3173 C   0  0  0  0  0  0  0  0  0  0  0  0
  -30.5021  -22.4180   15.9451 C   0  0  0  0  0  0  0  0  0  0  0  0
  -27.7030  -25.4494   20.5922 C   0  0  0  0  0  0  0  0  0  0  0  0
  -31.2329  -19.1680   20.8447 C   0  0  0  0  0  0  0  0  0  0  0  0
  -29.6292  -19.3114   22.6460 C   0  0  0  0  0  0  0  0  0  0  0  0
  -30.1732  -17.1644   21.6809 C   0  0  0  0  0  0  0  0  0  0  0  0
  -22.4106   -8.0842   21.3200 C   0  0  0  0  0  0  0  0  0  0  0  0
  -26.1072  -23.8970   21.5686 C   0  0  0  0  0  0  0  0  0  0  0  0
  -20.9706   -6.8259   22.6857 C   0  0  0  0  0  0  0  0  0  0  0  0
  -19.4876   -6.6069   25.0385 C   0  0  0  0  0  0  0  0  0  0  0  0
  -21.2409   -5.7964   23.5873 C   0  0  0  0  0  0  0  0  0  0  0  0
  -30.5171  -19.9315   21.7668 C   0  0  0  0  0  0  0  0  0  0  0  0
  -29.4573  -17.9278   22.6030 C   0  0  0  0  0  0  0  0  0  0  0  0
  -24.6001  -11.6519   20.7071 C   0  0  0  0  0  0  0  0  0  0  0  0
  -25.2278  -13.7551   20.5755 C   0  0  0  0  0  0  0  0  0  0  0  0
  -22.8793  -13.4437   21.3729 C   0  0  0  0  0  0  0  0  0  0  0  0
  -30.2018  -25.2669   18.2790 C   0  0  0  0  0  0  0  0  0  0  0  0
  -30.1363  -28.2286   19.6004 C   0  0  0  0  0  0  0  0  0  0  0  0
  -28.7411  -30.3559   21.8752 C   0  0  0  0  0  0  0  0  0  0  0  0
  -30.6779  -14.8839   20.7369 C   0  0  0  0  0  0  0  0  0  0  0  0
  -32.0455  -23.1050   14.0381 C   0  0  0  0  0  0  0  0  0  0  0  0
  -27.7540  -25.8433   18.1008 C   0  0  0  0  0  0  0  0  0  0  0  0
  -28.8271  -26.4316   20.7929 C   0  0  0  0  0  0  0  0  0  0  0  0
  -32.3930  -24.3313   14.8781 C   0  0  0  0  0  0  0  0  0  0  0  0
  -29.5737  -12.5691   18.2672 C   0  0  0  0  0  0  0  0  0  0  0  0
  -32.4766  -23.9603   16.3554 C   0  0  0  0  0  0  0  0  0  0  0  0
  -28.1446  -12.2326   18.6989 C   0  0  0  0  0  0  0  0  0  0  0  0
  -30.4999  -12.7549   19.4678 C   0  0  0  0  0  0  0  0  0  0  0  0
  -28.5987  -13.3790   20.9048 C   0  0  0  0  0  0  0  0  0  0  0  0
  -31.1299  -23.4380   16.8701 C   0  0  1  0  0  0  0  0  0  0  0  0
  -29.1741  -26.3627   18.3035 C   0  0  1  0  0  0  0  0  0  0  0  0
  -27.6142  -13.2465   19.7314 C   0  0  2  0  0  0  0  0  0  0  0  0
  -32.1951  -19.7887   19.8833 C   0  0  0  0  0  0  0  0  0  0  0  0
  -28.9232  -32.7013   22.7489 C   0  0  0  0  0  0  0  0  0  0  0  0
  -32.6345  -27.4478   21.1685 C   0  0  0  0  0  0  0  0  0  0  0  0
  -32.2140  -29.4017   22.6763 C   0  0  0  0  0  0  0  0  0  0  0  0
  -32.6634  -29.7742   20.2510 C   0  0  0  0  0  0  0  0  0  0  0  0
  -25.9753  -31.0039   21.0446 C   0  0  0  0  0  0  0  0  0  0  0  0
  -28.8596  -20.1333   23.6375 C   0  0  0  0  0  0  0  0  0  0  0  0
  -25.1851  -21.2003   23.7832 C   0  0  0  0  0  0  0  0  0  0  0  0
  -26.6245  -21.0613   24.2556 C   0  0  0  0  0  0  0  0  0  0  0  0
  -25.0397  -21.9774   22.4805 C   0  0  0  0  0  0  0  0  0  1  0  0
  -30.4431  -28.7977   20.9645 C   0  0  1  0  0  0  0  0  0  0  0  0
  -28.2424  -31.7838   21.7452 C   0  0  2  0  0  0  0  0  0  0  0  0
  -31.9689  -28.8353   21.2614 C   0  0  0  0  0  0  0  0  0  0  0  0
  -25.8611  -11.5980   20.2699 N   0  0  0  0  0  0  0  0  0  0  0  0
  -26.2152  -12.8925   20.1998 N   0  0  0  0  0  0  0  0  0  0  0  0
  -29.3397  -27.0751   19.5720 N   0  0  0  0  0  0  0  0  0  0  0  0
  -29.9351  -13.7324   20.4007 N   0  0  0  0  0  0  0  0  0  0  0  0
  -25.4154  -15.0920   20.5649 N   0  0  0  0  0  0  0  0  0  0  0  0
  -21.8868  -12.5021   21.6774 N   0  0  0  0  0  0  0  0  0  0  0  0
  -30.0257  -15.7571   21.6069 N   0  0  0  0  0  0  0  0  0  0  0  0
  -30.2182  -24.5370   17.1057 N   0  0  0  0  0  0  0  0  0  0  0  0
  -29.7915  -30.1018   21.0188 N   0  0  0  0  0  0  0  0  0  0  0  0
  -26.7715  -31.8420   21.9776 N   0  3  0  0  0  0  0  0  0  0  0  0
  -27.4284  -20.3075   23.2651 N   0  3  0  0  0  0  0  0  0  0  0  0
  -22.6236  -14.6659   21.4929 O   0  0  0  0  0  0  0  0  0  0  0  0
  -30.9273  -25.0971   19.2519 O   0  0  0  0  0  0  0  0  0  0  0  0
  -30.5808  -28.7910   18.5965 O   0  0  0  0  0  0  0  0  0  0  0  0
  -28.2505  -29.5480   22.6607 O   0  0  0  0  0  0  0  0  0  0  0  0
  -31.7981  -15.0943   20.2649 O   0  0  0  0  0  0  0  0  0  0  0  0
  -21.7064   -6.9364   21.5178 O   0  0  0  0  0  0  0  0  0  0  0  0
  -25.5818  -23.2846   22.6644 O   0  0  0  0  0  0  0  0  0  1  0  0
  -18.7765   -6.5028   26.1688 F   0  0  0  0  0  0  0  0  0  0  0  0
  -22.2125   -4.9103   23.3293 F   0  0  0  0  0  0  0  0  0  0  0  0
  -30.7360  -21.6500   21.8141 Cl  0  0  0  0  0  0  0  0  0  0  0  0
  -28.3533  -17.1555   23.6960 Cl  0  0  0  0  0  0  0  0  0  0  0  0
  1  2  1  0  0  0  0
  1  5  2  0  0  0  0
  2  6  2  0  0  0  0
  3  8  2  0  0  0  0
  3 16  1  0  0  0  0
  4  9  1  0  0  0  0
  4 16  2  0  0  0  0
  5 18  1  0  0  0  0
  6 20  1  0  0  0  0
  7 10  2  0  0  0  0
  7 19  1  0  0  0  0
  8 25  1  0  0  0  0
  9 25  2  0  0  0  0
 10 26  1  0  0  0  0
 11 12  2  0  0  0  0
 11 27  1  0  0  0  0
 12 28  1  0  0  0  0
 13 21  1  0  0  0  0
 13 26  2  0  0  0  0
 14 22  1  0  0  0  0
 14 24  2  0  0  0  0
 15 28  2  0  0  0  0
 15 29  1  0  0  0  0
 16 32  1  0  0  0  0
 17 32  1  0  0  0  0
 17 33  2  0  0  0  0
 17 34  1  0  0  0  0
 18 20  2  0  0  0  0
 18 39  1  0  0  0  0
 19 21  2  0  0  0  0
 19 40  1  0  0  0  0
 20 48  1  0  0  0  0
 21 41  1  0  0  0  0
 22 30  2  0  0  0  0
 22 51  1  0  0  0  0
 23 30  1  0  0  0  0
 23 31  2  0  0  0  0
 23 57  1  0  0  0  0
 24 31  1  0  0  0  0
 24 70  1  0  0  0  0
 25 80  1  0  0  0  0
 26 81  1  0  0  0  0
 27 29  2  0  0  0  0
 27 80  1  0  0  0  0
 28 82  1  0  0  0  0
 29 83  1  0  0  0  0
 30 84  1  0  0  0  0
 31 85  1  0  0  0  0
 32 64  2  0  0  0  0
 33 65  1  0  0  0  0
 33 68  1  0  0  0  0
 34 69  1  0  0  0  0
 34 75  2  0  0  0  0
 35 49  1  0  0  0  0
 35 71  1  0  0  0  0
 35 76  2  0  0  0  0
 36 61  1  0  0  0  0
 36 66  1  0  0  0  0
 36 77  2  0  0  0  0
 37 62  1  0  0  0  0
 37 72  1  0  0  0  0
 37 78  2  0  0  0  0
 38 67  1  0  0  0  0
 38 70  1  0  0  0  0
 38 79  2  0  0  0  0
 39 42  1  0  0  0  0
 40 49  1  0  0  0  0
 41 66  1  0  0  0  0
 42 44  1  0  0  0  0
 43 45  1  0  0  0  0
 43 46  1  0  0  0  0
 44 48  1  0  0  0  0
 45 50  1  0  0  0  0
 46 67  1  0  0  0  0
 47 50  1  0  0  0  0
 47 67  1  0  0  0  0
 48 71  1  0  0  0  0
 49 66  1  0  0  0  0
 50 65  1  0  0  0  0
 52 62  1  0  0  0  0
 53 63  1  0  0  0  0
 54 63  1  0  0  0  0
 55 63  1  0  0  0  0
 56 73  1  0  0  0  0
 57 74  1  0  0  0  0
 58 59  1  0  0  0  0
 58 60  1  0  0  0  0
 59 74  1  0  0  0  0
 60 81  1  0  0  0  0
 61 63  1  0  0  0  0
 61 72  1  0  0  0  0
 62 73  1  0  0  0  0
 64 65  1  0  0  0  0
M  CHG  2  73   1  74   1
M  ISO  4  38 100  60 101  70 100  81 101
M  END
> <Batch ID>
0014

> <Smiles>
CNC(C)C(=O)NC(C(=O)N1Cc2cc([101O:1][101CH2:1]CCNCc3c(Cl)c(C)cc([100NH:0][100C:0](=O)N4CCCC(n5nc(-c6ccc(Oc7ccc(F)cc7F)cc6)c(C(N)=O)c5N)C4)c3Cl)ccc2CC1C(=O)NC1CCCc2ccccc21)C(C)(C)C

> <Shape>
0.267

> <Color>
0.210

> <Negative vol penalty>
0.000

$$$$

  -OEChem-04052315533D

 91 99  0     1  0  0  0  0  0999 V2000
  -32.4733  -12.9106   20.9262 C   0  0  0  0  0  0  0  0  0  0  0  0
  -31.8466  -14.0983   21.2898 C   0  0  0  0  0  0  0  0  0  0  0  0
  -30.0095  -24.3910   21.4175 C   0  0  0  0  0  0  0  0  0  0  0  0
  -30.5765  -24.8096   19.1066 C   0  0  0  0  0  0  0  0  0  0  0  0
  -31.7759  -11.9523   20.1919 C   0  0  0  0  0  0  0  0  0  0  0  0
  -30.5225  -14.3287   20.9183 C   0  0  0  0  0  0  0  0  0  0  0  0
  -26.2706  -17.3488   24.1286 C   0  0  0  0  0  0  0  0  0  0  0  0
  -30.4397  -23.0709   21.2839 C   0  0  0  0  0  0  0  0  0  0  0  0
  -31.0067  -23.4895   18.9730 C   0  0  0  0  0  0  0  0  0  0  0  0
  -25.7950  -18.6574   24.0570 C   0  0  0  0  0  0  0  0  0  0  0  0
  -31.0544  -19.4906   21.4501 C   0  0  0  0  0  0  0  0  0  0  0  0
  -30.2462  -18.4865   21.9830 C   0  0  0  0  0  0  0  0  0  0  0  0
  -23.9620  -17.9094   22.6786 C   0  0  0  0  0  0  0  0  0  0  0  0
  -22.2053  -29.3181   24.5205 C   0  0  0  0  0  0  0  0  0  0  0  0
  -28.4382  -19.1732   20.5350 C   0  0  0  0  0  0  0  0  0  0  0  0
  -30.0778  -25.2604   20.3288 C   0  0  0  0  0  0  0  0  0  0  0  0
  -30.4049  -27.7347   20.8564 C   0  0  0  0  0  0  0  0  0  0  0  0
  -30.4395  -12.1670   19.8195 C   0  0  0  0  0  0  0  0  0  0  0  0
  -25.6004  -16.3106   23.4656 C   0  0  0  0  0  0  0  0  0  0  0  0
  -29.8070  -13.3729   20.1772 C   0  0  0  0  0  0  0  0  0  0  0  0
  -24.4297  -16.5881   22.7455 C   0  0  0  0  0  0  0  0  0  0  0  0
  -21.2838  -28.8975   25.4794 C   0  0  0  0  0  0  0  0  0  0  0  0
  -22.3408  -27.0639   23.6619 C   0  0  0  0  0  0  0  0  0  0  0  0
  -21.4193  -26.6433   24.6208 C   0  0  0  0  0  0  0  0  0  0  0  0
  -22.7338  -28.4013   23.6117 C   0  0  0  0  0  0  0  0  0  0  0  0
  -30.9383  -22.6202   20.0617 C   0  0  0  0  0  0  0  0  0  0  0  0
  -24.6422  -18.9383   23.3296 C   0  0  0  0  0  0  0  0  0  0  0  0
  -30.5545  -20.3362   20.4597 C   0  0  0  0  0  0  0  0  0  0  0  0
  -28.9381  -18.3277   21.5255 C   0  0  0  0  0  0  0  0  0  0  0  0
  -29.2464  -20.1774   20.0021 C   0  0  0  0  0  0  0  0  0  0  0  0
  -20.8908  -27.5601   25.5296 C   0  0  0  0  0  0  0  0  0  0  0  0
  -29.6331  -26.6240   20.4660 C   0  0  0  0  0  0  0  0  0  0  0  0
  -29.5258  -28.7897   20.8309 C   0  0  0  0  0  0  0  0  0  0  0  0
  -31.7924  -27.8064   21.2103 C   0  0  0  0  0  0  0  0  0  0  0  0
  -26.3569  -14.2745   21.1449 C   0  0  0  0  0  0  0  0  0  0  0  0
  -23.4603  -12.9976   21.8529 C   0  0  0  0  0  0  0  0  0  0  0  0
  -20.3420  -13.4400   23.1674 C   0  0  0  0  0  0  0  0  0  0  0  0
  -21.1815  -22.4292   24.4313 C   0  0  0  0  0  0  0  0  0  0  0  0
  -23.4269  -28.7369   21.2448 C   0  0  0  0  0  0  0  0  0  0  0  0
  -29.7416  -11.1222   18.9853 C   0  0  0  0  0  0  0  0  0  0  0  0
  -26.1114  -14.9002   23.5748 C   0  0  0  0  0  0  0  0  0  0  0  0
  -23.6621  -15.5060   22.0325 C   0  0  0  0  0  0  0  0  0  0  0  0
  -28.2238  -11.2825   18.9531 C   0  0  0  0  0  0  0  0  0  0  0  0
  -25.5460  -30.3112   18.6677 C   0  0  0  0  0  0  0  0  0  0  0  0
  -27.8461  -12.7376   18.6950 C   0  0  0  0  0  0  0  0  0  0  0  0
  -26.8805  -29.5864   18.8349 C   0  0  0  0  0  0  0  0  0  0  0  0
  -24.3669  -29.4252   19.0586 C   0  0  0  0  0  0  0  0  0  0  0  0
  -25.8083  -28.1307   20.6003 C   0  0  0  0  0  0  0  0  0  0  0  0
  -28.3640  -13.6490   19.8142 C   0  0  1  0  0  0  0  0  0  0  0  0
  -25.6372  -14.0030   22.4356 C   0  0  1  0  0  0  0  0  0  0  0  0
  -27.0186  -29.0117   20.2553 C   0  0  1  0  0  0  0  0  0  0  0  0
  -20.7440  -29.9149   26.4330 C   0  0  0  0  0  0  0  0  0  0  0  0
  -22.9061  -26.0806   22.6844 C   0  0  0  0  0  0  0  0  0  0  0  0
  -18.1838  -12.2248   23.5710 C   0  0  0  0  0  0  0  0  0  0  0  0
  -19.7924  -23.0009   26.4681 C   0  0  0  0  0  0  0  0  0  0  0  0
  -22.2058  -22.2942   26.7420 C   0  0  0  0  0  0  0  0  0  0  0  0
  -22.7584  -13.2667   18.8957 C   0  0  0  0  0  0  0  0  0  0  0  0
  -20.3517  -12.9530   19.5100 C   0  0  0  0  0  0  0  0  0  0  0  0
  -21.9988  -11.1340   19.9582 C   0  0  0  0  0  0  0  0  0  0  0  0
  -24.8181  -29.6760   23.0757 C   0  0  0  0  0  0  0  0  0  0  0  0
  -20.5544  -13.7975   26.0976 C   0  0  0  0  0  0  0  0  0  0  0  0
  -21.0088  -25.2007   24.6591 C   0  0  0  0  0  0  0  0  0  0  0  0
  -22.6566  -21.9123   22.4891 C   0  0  0  0  0  0  0  0  0  0  0  0
  -22.9896  -20.4310   22.4948 C   0  0  0  0  0  0  0  0  0  1  0  0
  -22.0459  -13.2261   21.3770 C   0  0  1  0  0  0  0  0  0  0  0  0
  -19.5362  -12.6099   24.1503 C   0  0  2  0  0  0  0  0  0  0  0  0
  -21.1918  -23.0130   25.8504 C   0  0  0  0  0  0  0  0  0  0  0  0
  -21.8040  -12.6659   19.9470 C   0  0  0  0  0  0  0  0  0  0  0  0
  -28.3615  -26.9436   20.2114 N   0  0  0  0  0  0  0  0  0  0  0  0
  -28.3275  -28.2671   20.4423 N   0  0  0  0  0  0  0  0  0  0  0  0
  -24.2052  -14.1439   22.1639 N   0  0  0  0  0  0  0  0  0  0  0  0
  -24.5448  -28.8554   20.3948 N   0  0  0  0  0  0  0  0  0  0  0  0
  -29.6687  -30.1042   21.1034 N   0  0  0  0  0  0  0  0  0  0  0  0
  -32.5506  -26.6279   21.1836 N   0  0  0  0  0  0  0  0  0  0  0  0
  -27.5184  -13.5435   20.9839 N   0  0  0  0  0  0  0  0  0  0  0  0
  -22.4293  -22.4145   23.8182 N   0  0  0  0  0  0  0  0  0  0  0  0
  -21.1744  -12.6548   22.3979 N   0  0  0  0  0  0  0  0  0  0  0  0
  -23.6855  -28.8595   22.6272 N   0  0  0  0  0  0  0  0  0  0  0  0
  -19.3078  -13.3747   25.4088 N   0  3  0  0  0  0  0  0  0  0  0  0
  -21.6216  -24.4530   25.7795 N   0  3  0  0  0  0  0  0  0  0  0  0
  -32.3398  -28.8807   21.5563 O   0  0  0  0  0  0  0  0  0  0  0  0
  -25.8920  -15.0860   20.3531 O   0  0  0  0  0  0  0  0  0  0  0  0
  -23.8859  -11.8440   21.9521 O   0  0  0  0  0  0  0  0  0  0  0  0
  -20.2404  -14.6622   23.0873 O   0  0  0  0  0  0  0  0  0  0  0  0
  -20.1494  -22.0164   23.9027 O   0  0  0  0  0  0  0  0  0  0  0  0
  -22.2853  -28.5654   20.8012 O   0  0  0  0  0  0  0  0  0  0  0  0
  -31.3584  -21.3321   19.9310 O   0  0  0  0  0  0  0  0  0  0  0  0
  -24.1761  -20.2148   23.2575 O   0  0  0  0  0  0  0  0  0  1  0  0
  -28.1625  -17.3624   22.0362 F   0  0  0  0  0  0  0  0  0  0  0  0
  -28.7610  -20.9859   19.0500 F   0  0  0  0  0  0  0  0  0  0  0  0
  -19.7455  -27.0423   26.7220 Cl  0  0  0  0  0  0  0  0  0  0  0  0
  1  2  1  0  0  0  0
  1  5  2  0  0  0  0
  2  6  2  0  0  0  0
  3  8  2  0  0  0  0
  3 16  1  0  0  0  0
  4  9  1  0  0  0  0
  4 16  2  0  0  0  0
  5 18  1  0  0  0  0
  6 20  1  0  0  0  0
  7 10  2  0  0  0  0
  7 19  1  0  0  0  0
  8 26  1  0  0  0  0
  9 26  2  0  0  0  0
 10 27  1  0  0  0  0
 11 12  2  0  0  0  0
 11 28  1  0  0  0  0
 12 29  1  0  0  0  0
 13 21  1  0  0  0  0
 13 27  2  0  0  0  0
 14 22  2  0  0  0  0
 14 25  1  0  0  0  0
 15 29  2  0  0  0  0
 15 30  1  0  0  0  0
 16 32  1  0  0  0  0
 17 32  1  0  0  0  0
 17 33  2  0  0  0  0
 17 34  1  0  0  0  0
 18 20  2  0  0  0  0
 18 40  1  0  0  0  0
 19 21  2  0  0  0  0
 19 41  1  0  0  0  0
 20 49  1  0  0  0  0
 21 42  1  0  0  0  0
 22 31  1  0  0  0  0
 22 52  1  0  0  0  0
 23 24  1  0  0  0  0
 23 25  2  0  0  0  0
 23 53  1  0  0  0  0
 24 31  2  0  0  0  0
 24 62  1  0  0  0  0
 25 78  1  0  0  0  0
 26 87  1  0  0  0  0
 27 88  1  0  0  0  0
 28 30  2  0  0  0  0
 28 87  1  0  0  0  0
 29 89  1  0  0  0  0
 30 90  1  0  0  0  0
 31 91  1  0  0  0  0
 32 69  2  0  0  0  0
 33 70  1  0  0  0  0
 33 73  1  0  0  0  0
 34 74  1  0  0  0  0
 34 81  2  0  0  0  0
 35 50  1  0  0  0  0
 35 75  1  0  0  0  0
 35 82  2  0  0  0  0
 36 65  1  0  0  0  0
 36 71  1  0  0  0  0
 36 83  2  0  0  0  0
 37 66  1  0  0  0  0
 37 77  1  0  0  0  0
 37 84  2  0  0  0  0
 38 67  1  0  0  0  0
 38 76  1  0  0  0  0
 38 85  2  0  0  0  0
 39 72  1  0  0  0  0
 39 78  1  0  0  0  0
 39 86  2  0  0  0  0
 40 43  1  0  0  0  0
 41 50  1  0  0  0  0
 42 71  1  0  0  0  0
 43 45  1  0  0  0  0
 44 46  1  0  0  0  0
 44 47  1  0  0  0  0
 45 49  1  0  0  0  0
 46 51  1  0  0  0  0
 47 72  1  0  0  0  0
 48 51  1  0  0  0  0
 48 72  1  0  0  0  0
 49 75  1  0  0  0  0
 50 71  1  0  0  0  0
 51 70  1  0  0  0  0
 54 66  1  0  0  0  0
 55 67  1  0  0  0  0
 56 67  1  0  0  0  0
 57 68  1  0  0  0  0
 58 68  1  0  0  0  0
 59 68  1  0  0  0  0
 60 78  1  0  0  0  0
 61 79  1  0  0  0  0
 62 80  1  0  0  0  0
 63 64  1  0  0  0  0
 63 76  1  0  0  0  0
 64 88  1  0  0  0  0
 65 68  1  0  0  0  0
 65 77  1  0  0  0  0
 66 79  1  0  0  0  0
 67 80  1  0  0  0  0
 69 70  1  0  0  0  0
M  CHG  2  79   1  80   1
M  ISO  4  39 100  64 101  78 100  88 101
M  END
> <Batch ID>
0014

> <Smiles>
CNC(C)C(=O)NC(C(=O)N1Cc2cc([101O:1][101CH2:1]CNC(=O)C(C)(C)NCc3c(C)c([100N:0](C)[100C:0](=O)N4CCCC(n5nc(-c6ccc(Oc7ccc(F)cc7F)cc6)c(C(N)=O)c5N)C4)cc(C)c3Cl)ccc2CC1C(=O)NC1CCCc2ccccc21)C(C)(C)C

> <Shape>
0.235

> <Color>
0.059

> <Negative vol penalty>
0.000

$$$$

  -OEChem-04052315533D

 92 99  0     1  0  0  0  0  0999 V2000
  -30.2594  -24.7878   29.2440 C   0  0  0  0  0  0  0  0  0  0  0  0
  -30.0606  -24.7640   27.8673 C   0  0  0  0  0  0  0  0  0  0  0  0
  -24.1350   -9.4208   19.9192 C   0  0  0  0  0  0  0  0  0  0  0  0
  -24.6448   -9.7998   22.2502 C   0  0  0  0  0  0  0  0  0  0  0  0
  -29.2047  -25.1184   30.0939 C   0  0  0  0  0  0  0  0  0  0  0  0
  -28.8065  -25.0698   27.3397 C   0  0  0  0  0  0  0  0  0  0  0  0
  -29.0818  -28.1842   23.3560 C   0  0  0  0  0  0  0  0  0  0  0  0
  -23.8508   -8.0841   20.1986 C   0  0  0  0  0  0  0  0  0  0  0  0
  -24.3605   -8.4631   22.5297 C   0  0  0  0  0  0  0  0  0  0  0  0
  -29.4513  -27.6238   22.1341 C   0  0  0  0  0  0  0  0  0  0  0  0
  -23.4209   -5.2376   23.9194 C   0  0  0  0  0  0  0  0  0  0  0  0
  -22.6392   -4.9609   25.0410 C   0  0  0  0  0  0  0  0  0  0  0  0
  -27.1344  -27.5713   21.4645 C   0  0  0  0  0  0  0  0  0  0  0  0
  -20.8336   -6.2645   24.1042 C   0  0  0  0  0  0  0  0  0  0  0  0
  -24.5321  -10.2786   20.9449 C   0  0  0  0  0  0  0  0  0  0  0  0
  -23.9274  -12.7425   20.6775 C   0  0  0  0  0  0  0  0  0  0  0  0
  -27.9397  -25.4379   29.5759 C   0  0  0  0  0  0  0  0  0  0  0  0
  -27.7326  -28.4327   23.6462 C   0  0  0  0  0  0  0  0  0  0  0  0
  -27.7336  -25.4037   28.1835 C   0  0  0  0  0  0  0  0  0  0  0  0
  -26.7506  -28.1373   22.6899 C   0  0  0  0  0  0  0  0  0  0  0  0
  -23.9635   -7.6053   21.5039 C   0  0  0  0  0  0  0  0  0  0  0  0
  -28.4772  -27.3146   21.1892 C   0  0  0  0  0  0  0  0  0  0  0  0
  -22.9089   -6.0279   22.8902 C   0  0  0  0  0  0  0  0  0  0  0  0
  -21.3455   -5.4743   25.1334 C   0  0  0  0  0  0  0  0  0  0  0  0
  -21.6153   -6.5413   22.9826 C   0  0  0  0  0  0  0  0  0  0  0  0
  -24.8265  -11.6594   20.6568 C   0  0  0  0  0  0  0  0  0  0  0  0
  -24.6924  -13.8303   20.3342 C   0  0  0  0  0  0  0  0  0  0  0  0
  -22.5261  -12.7634   20.9801 C   0  0  0  0  0  0  0  0  0  0  0  0
  -25.6821  -27.3937   25.8416 C   0  0  0  0  0  0  0  0  0  0  0  0
  -23.7330  -29.6203   24.5128 C   0  0  0  0  0  0  0  0  0  0  0  0
  -25.0364  -23.5456   22.6801 C   0  0  0  0  0  0  0  0  0  0  0  0
  -27.9236  -19.7527   20.8082 C   0  0  0  0  0  0  0  0  0  0  0  0
  -28.4553  -23.3453   20.3407 C   0  0  0  0  0  0  0  0  0  0  0  0
  -22.9346  -31.5177   21.7909 C   0  0  0  0  0  0  0  0  0  0  0  0
  -29.3777  -16.8267   20.7984 C   0  0  0  0  0  0  0  0  0  0  0  0
  -26.8178  -25.7430   30.5366 C   0  0  0  0  0  0  0  0  0  0  0  0
  -27.3529  -29.0624   24.9584 C   0  0  0  0  0  0  0  0  0  0  0  0
  -25.2902  -28.4033   22.9445 C   0  0  0  0  0  0  0  0  0  0  0  0
  -25.6185  -26.4193   29.8775 C   0  0  0  0  0  0  0  0  0  0  0  0
  -29.4027  -14.0990   18.5101 C   0  0  0  0  0  0  0  0  0  0  0  0
  -25.2444  -25.7010   28.5849 C   0  0  0  0  0  0  0  0  0  0  0  0
  -28.1442  -13.3077   18.8705 C   0  0  0  0  0  0  0  0  0  0  0  0
  -30.0703  -14.6924   19.7488 C   0  0  0  0  0  0  0  0  0  0  0  0
  -27.9245  -14.7152   20.9608 C   0  0  0  0  0  0  0  0  0  0  0  0
  -26.3944  -25.7536   27.5718 C   0  0  1  0  0  0  0  0  0  0  0  0
  -25.9029  -28.7967   25.3512 C   0  0  1  0  0  0  0  0  0  0  0  0
  -27.1852  -14.1443   19.7386 C   0  0  2  0  0  0  0  0  0  0  0  0
  -25.0548  -23.5182   24.1725 C   0  0  0  0  0  0  0  0  0  0  0  0
  -21.2670  -33.2150   20.9934 C   0  0  0  0  0  0  0  0  0  0  0  0
  -25.0430  -21.5331   20.1257 C   0  0  0  0  0  0  0  0  0  0  0  0
  -21.6566  -27.4121   24.1629 C   0  0  0  0  0  0  0  0  0  0  0  0
  -20.4488  -28.8992   22.5511 C   0  0  0  0  0  0  0  0  0  0  0  0
  -20.7286  -29.6051   24.9272 C   0  0  0  0  0  0  0  0  0  0  0  0
  -32.0422  -24.4724   17.6869 C   0  0  0  0  0  0  0  0  0  0  0  0
  -31.8614  -23.8319   20.0847 C   0  0  0  0  0  0  0  0  0  0  0  0
  -30.6703  -22.4839   18.3480 C   0  0  0  0  0  0  0  0  0  0  0  0
  -27.5878  -24.2408   18.1582 C   0  0  0  0  0  0  0  0  0  0  0  0
  -25.0384  -33.5551   21.3641 C   0  0  0  0  0  0  0  0  0  0  0  0
  -28.5425  -18.8932   21.8898 C   0  0  0  0  0  0  0  0  0  0  0  0
  -30.0053  -25.9505   19.9809 C   0  0  0  0  0  0  0  0  0  1  0  0
  -22.7309  -29.6268   23.3838 C   0  0  1  0  0  0  0  0  0  0  0  0
  -27.5051  -22.1456   20.2585 C   0  0  2  0  0  0  0  0  0  0  0  0
  -22.6208  -32.9964   21.6508 C   0  0  2  0  0  0  0  0  0  0  0  0
  -26.0687  -22.5304   20.6586 C   0  0  2  0  0  0  0  0  0  0  0  0
  -29.8449  -24.8607   18.9136 C   0  0  1  0  0  0  0  0  0  0  0  0
  -21.4185  -28.8789   23.7519 C   0  0  0  0  0  0  0  0  0  0  0  0
  -31.0790  -23.9115   18.7567 C   0  0  0  0  0  0  0  0  0  0  0  0
  -26.0676  -12.0258   20.3262 N   0  0  0  0  0  0  0  0  0  0  0  0
  -25.9539  -13.3513   20.1361 N   0  0  0  0  0  0  0  0  0  0  0  0
  -24.9686  -29.0143   24.2448 N   0  0  0  0  0  0  0  0  0  0  0  0
  -29.1075  -15.4752   20.5274 N   0  0  0  0  0  0  0  0  0  0  0  0
  -24.4023  -15.1403   20.1854 N   0  0  0  0  0  0  0  0  0  0  0  0
  -21.8964  -11.5564   21.3133 N   0  0  0  0  0  0  0  0  0  0  0  0
  -26.4509  -27.0536   26.9384 N   0  0  0  0  0  0  0  0  0  0  0  0
  -22.5388  -31.0256   23.0166 N   0  0  0  0  0  0  0  0  0  0  0  0
  -28.0460  -21.1032   21.1012 N   0  0  0  0  0  0  0  0  0  0  0  0
  -25.9249  -22.6671   22.0914 N   0  0  0  0  0  0  0  0  0  0  0  0
  -28.4103  -17.4972   21.5368 N   0  0  0  0  0  0  0  0  0  0  0  0
  -28.6259  -24.1196   19.1837 N   0  0  0  0  0  0  0  0  0  0  0  0
  -23.6601  -33.6701   20.8219 N   0  3  0  0  0  0  0  0  0  0  0  0
  -21.8488  -13.8184   20.9397 O   0  0  0  0  0  0  0  0  0  0  0  0
  -24.8731  -26.6736   25.2684 O   0  0  0  0  0  0  0  0  0  0  0  0
  -23.4332  -30.1402   25.5905 O   0  0  0  0  0  0  0  0  0  0  0  0
  -24.2714  -24.3064   22.0992 O   0  0  0  0  0  0  0  0  0  0  0  0
  -27.3554  -19.2899   19.8224 O   0  0  0  0  0  0  0  0  0  0  0  0
  -29.0061  -23.6206   21.4126 O   0  0  0  0  0  0  0  0  0  0  0  0
  -23.4733  -30.8638   20.9006 O   0  0  0  0  0  0  0  0  0  0  0  0
  -30.4024  -17.3952   20.4063 O   0  0  0  0  0  0  0  0  0  0  0  0
  -23.6860   -6.3011   21.7770 O   0  0  0  0  0  0  0  0  0  0  0  0
  -28.8351  -26.7670   19.9959 O   0  0  0  0  0  0  0  0  0  1  0  0
  -20.5945   -5.2071   26.2098 F   0  0  0  0  0  0  0  0  0  0  0  0
  -21.1176   -7.3001   21.9966 F   0  0  0  0  0  0  0  0  0  0  0  0
  1  2  1  0  0  0  0
  1  5  2  0  0  0  0
  2  6  2  0  0  0  0
  3  8  2  0  0  0  0
  3 15  1  0  0  0  0
  4  9  1  0  0  0  0
  4 15  2  0  0  0  0
  5 17  1  0  0  0  0
  6 19  1  0  0  0  0
  7 10  2  0  0  0  0
  7 18  1  0  0  0  0
  8 21  1  0  0  0  0
  9 21  2  0  0  0  0
 10 22  1  0  0  0  0
 11 12  2  0  0  0  0
 11 23  1  0  0  0  0
 12 24  1  0  0  0  0
 13 20  1  0  0  0  0
 13 22  2  0  0  0  0
 14 24  2  0  0  0  0
 14 25  1  0  0  0  0
 15 26  1  0  0  0  0
 16 26  1  0  0  0  0
 16 27  2  0  0  0  0
 16 28  1  0  0  0  0
 17 19  2  0  0  0  0
 17 36  1  0  0  0  0
 18 20  2  0  0  0  0
 18 37  1  0  0  0  0
 19 45  1  0  0  0  0
 20 38  1  0  0  0  0
 21 89  1  0  0  0  0
 22 90  1  0  0  0  0
 23 25  2  0  0  0  0
 23 89  1  0  0  0  0
 24 91  1  0  0  0  0
 25 92  1  0  0  0  0
 26 68  2  0  0  0  0
 27 69  1  0  0  0  0
 27 72  1  0  0  0  0
 28 73  1  0  0  0  0
 28 81  2  0  0  0  0
 29 46  1  0  0  0  0
 29 74  1  0  0  0  0
 29 82  2  0  0  0  0
 30 61  1  0  0  0  0
 30 70  1  0  0  0  0
 30 83  2  0  0  0  0
 31 48  1  0  0  0  0
 31 77  1  0  0  0  0
 31 84  2  0  0  0  0
 32 59  1  0  0  0  0
 32 76  1  0  0  0  0
 32 85  2  0  0  0  0
 33 62  1  0  0  0  0
 33 79  1  0  0  0  0
 33 86  2  0  0  0  0
 34 63  1  0  0  0  0
 34 75  1  0  0  0  0
 34 87  2  0  0  0  0
 35 71  1  0  0  0  0
 35 78  1  0  0  0  0
 35 88  2  0  0  0  0
 36 39  1  0  0  0  0
 37 46  1  0  0  0  0
 38 70  1  0  0  0  0
 39 41  1  0  0  0  0
 40 42  1  0  0  0  0
 40 43  1  0  0  0  0
 41 45  1  0  0  0  0
 42 47  1  0  0  0  0
 43 71  1  0  0  0  0
 44 47  1  0  0  0  0
 44 71  1  0  0  0  0
 45 74  1  0  0  0  0
 46 70  1  0  0  0  0
 47 69  1  0  0  0  0
 49 63  1  0  0  0  0
 50 64  1  0  0  0  0
 51 66  1  0  0  0  0
 52 66  1  0  0  0  0
 53 66  1  0  0  0  0
 54 67  1  0  0  0  0
 55 67  1  0  0  0  0
 56 67  1  0  0  0  0
 57 79  1  0  0  0  0
 58 80  1  0  0  0  0
 59 78  1  0  0  0  0
 60 65  1  0  0  0  0
 60 90  1  0  0  0  0
 61 66  1  0  0  0  0
 61 75  1  0  0  0  0
 62 64  1  0  0  0  0
 62 76  1  0  0  0  0
 63 80  1  0  0  0  0
 64 77  1  0  0  0  0
 65 67  1  0  0  0  0
 65 79  1  0  0  0  0
 68 69  1  0  0  0  0
M  CHG  1  80   1
M  ISO  4  35 100  60 101  78 100  90 101
M  END
> <Batch ID>
0014

> <Smiles>
CNC(C)C(=O)NC(C(=O)N1Cc2cc([101O:1][101CH2:1]C(N(C)C(=O)C(NC(=O)C[100NH:0][100C:0](=O)N3CCCC(n4nc(-c5ccc(Oc6ccc(F)cc6F)cc5)c(C(N)=O)c4N)C3)C(C)NC(C)=O)C(C)(C)C)ccc2CC1C(=O)NC1CCCc2ccccc21)C(C)(C)C

> <Shape>
0.282

> <Color>
0.101

> <Negative vol penalty>
0.000

$$$$

  -OEChem-04052315533D

 84 92  0     1  0  0  0  0  0999 V2000
  -29.1528   -1.5841   23.8904 C   0  0  0  0  0  0  0  0  0  0  0  0
  -29.5678   -2.3721   24.9580 C   0  0  0  0  0  0  0  0  0  0  0  0
  -22.8641  -10.0485   20.0420 C   0  0  0  0  0  0  0  0  0  0  0  0
  -24.3143   -9.4488   21.8790 C   0  0  0  0  0  0  0  0  0  0  0  0
  -28.0664   -1.9837   23.1150 C   0  0  0  0  0  0  0  0  0  0  0  0
  -28.8893   -3.5538   25.2579 C   0  0  0  0  0  0  0  0  0  0  0  0
  -30.0535   -7.8411   29.4282 C   0  0  0  0  0  0  0  0  0  0  0  0
  -22.1730   -8.8467   20.1952 C   0  0  0  0  0  0  0  0  0  0  0  0
  -23.6232   -8.2469   22.0322 C   0  0  0  0  0  0  0  0  0  0  0  0
  -30.7592   -9.0413   29.5009 C   0  0  0  0  0  0  0  0  0  0  0  0
  -22.0122   -5.1818   23.1405 C   0  0  0  0  0  0  0  0  0  0  0  0
  -21.6675   -4.7915   24.4344 C   0  0  0  0  0  0  0  0  0  0  0  0
  -28.7196  -10.2591   29.0812 C   0  0  0  0  0  0  0  0  0  0  0  0
  -33.1320  -11.8056   25.8650 C   0  0  0  0  0  0  0  0  0  0  0  0
  -20.3694   -6.8121   24.6980 C   0  0  0  0  0  0  0  0  0  0  0  0
  -23.9348  -10.3496   20.8839 C   0  0  0  0  0  0  0  0  0  0  0  0
  -24.1244  -12.8929   20.8278 C   0  0  0  0  0  0  0  0  0  0  0  0
  -27.3826   -3.1774   23.3986 C   0  0  0  0  0  0  0  0  0  0  0  0
  -28.6751   -7.8404   29.1702 C   0  0  0  0  0  0  0  0  0  0  0  0
  -27.7756   -3.9621   24.5018 C   0  0  0  0  0  0  0  0  0  0  0  0
  -27.9982   -9.0576   29.0082 C   0  0  0  0  0  0  0  0  0  0  0  0
  -33.4233  -11.3207   24.5900 C   0  0  0  0  0  0  0  0  0  0  0  0
  -32.0370  -12.6481   26.0575 C   0  0  0  0  0  0  0  0  0  0  0  0
  -31.5247  -12.5209   23.6998 C   0  0  0  0  0  0  0  0  0  0  0  0
  -22.5525   -7.9459   21.1903 C   0  0  0  0  0  0  0  0  0  0  0  0
  -30.0928  -10.2504   29.3246 C   0  0  0  0  0  0  0  0  0  0  0  0
  -21.5357   -6.3873   22.6253 C   0  0  0  0  0  0  0  0  0  0  0  0
  -20.8460   -5.6066   25.2132 C   0  0  0  0  0  0  0  0  0  0  0  0
  -20.7142   -7.2024   23.4041 C   0  0  0  0  0  0  0  0  0  0  0  0
  -32.6197  -11.6784   23.5074 C   0  0  0  0  0  0  0  0  0  0  0  0
  -31.2334  -13.0058   24.9749 C   0  0  0  0  0  0  0  0  0  0  0  0
  -24.6494  -11.5907   20.7258 C   0  0  0  0  0  0  0  0  0  0  0  0
  -25.1997  -13.7157   20.5968 C   0  0  0  0  0  0  0  0  0  0  0  0
  -22.7846  -13.3206   21.1066 C   0  0  0  0  0  0  0  0  0  0  0  0
  -26.8268   -6.6861   26.8560 C   0  0  0  0  0  0  0  0  0  0  0  0
  -24.4326   -7.6894   28.8012 C   0  0  0  0  0  0  0  0  0  0  0  0
  -23.4130   -9.7771   31.3009 C   0  0  0  0  0  0  0  0  0  0  0  0
  -31.0957  -13.0133   21.2668 C   0  0  0  0  0  0  0  0  0  0  0  0
  -26.2085   -3.5583   22.5316 C   0  0  0  0  0  0  0  0  0  0  0  0
  -27.9235   -6.5385   29.1213 C   0  0  0  0  0  0  0  0  0  0  0  0
  -26.5155   -9.1122   28.7491 C   0  0  0  0  0  0  0  0  0  0  0  0
  -25.8362   -5.0327   22.6491 C   0  0  0  0  0  0  0  0  0  0  0  0
  -29.3787  -13.8500   18.2619 C   0  0  0  0  0  0  0  0  0  0  0  0
  -25.7231   -5.4250   24.1147 C   0  0  0  0  0  0  0  0  0  0  0  0
  -27.9224  -13.4898   18.5642 C   0  0  0  0  0  0  0  0  0  0  0  0
  -30.3520  -12.8607   18.9006 C   0  0  0  0  0  0  0  0  0  0  0  0
  -28.7080  -12.2876   20.6437 C   0  0  0  0  0  0  0  0  0  0  0  0
  -27.0718   -5.2670   24.8280 C   0  0  1  0  0  0  0  0  0  0  0  0
  -26.6150   -6.6328   28.3426 C   0  0  1  0  0  0  0  0  0  0  0  0
  -27.6926  -13.2924   20.0754 C   0  0  2  0  0  0  0  0  0  0  0  0
  -34.5952  -10.4207   24.3876 C   0  0  0  0  0  0  0  0  0  0  0  0
  -21.3894  -10.3914   32.6519 C   0  0  0  0  0  0  0  0  0  0  0  0
  -23.3165   -9.2380   26.4208 C   0  0  0  0  0  0  0  0  0  0  0  0
  -21.9051  -10.5459   28.0224 C   0  0  0  0  0  0  0  0  0  0  0  0
  -21.5919   -8.0800   27.8133 C   0  0  0  0  0  0  0  0  0  0  0  0
  -30.5992  -14.0178   27.5463 C   0  0  0  0  0  0  0  0  0  0  0  0
  -24.7210   -8.9852   33.8349 C   0  0  0  0  0  0  0  0  0  0  0  0
  -32.5526  -12.7701   28.4823 C   0  0  0  0  0  0  0  0  0  0  0  0
  -32.1497  -11.3983   28.9969 C   0  0  0  0  0  0  0  0  0  1  0  0
  -23.6566   -8.9738   28.9665 C   0  0  1  0  0  0  0  0  0  0  0  0
  -22.6305   -9.5157   32.5752 C   0  0  2  0  0  0  0  0  0  0  0  0
  -22.6458   -9.2087   27.8087 C   0  0  0  0  0  0  0  0  0  0  0  0
  -25.9565  -11.5818   20.4512 N   0  0  0  0  0  0  0  0  0  0  0  0
  -26.2619  -12.8885   20.3786 N   0  0  0  0  0  0  0  0  0  0  0  0
  -25.8259   -7.8122   28.7041 N   0  0  0  0  0  0  0  0  0  0  0  0
  -30.0771  -12.7280   20.3330 N   0  0  0  0  0  0  0  0  0  0  0  0
  -25.3307  -15.0588   20.5609 N   0  0  0  0  0  0  0  0  0  0  0  0
  -22.4136  -13.5276   22.4422 N   0  0  0  0  0  0  0  0  0  0  0  0
  -30.7083  -12.8838   22.6001 N   0  0  0  0  0  0  0  0  0  0  0  0
  -26.8775   -5.4453   26.2501 N   0  0  0  0  0  0  0  0  0  0  0  0
  -23.0459   -8.9142   30.2901 N   0  0  0  0  0  0  0  0  0  0  0  0
  -31.7466  -13.1338   27.3394 N   0  0  3  0  0  0  0  0  0  0  0  0
  -23.4771   -9.7948   33.7695 N   0  3  0  0  0  0  0  0  0  0  0  0
  -21.9366  -13.4976   20.1993 O   0  0  0  0  0  0  0  0  0  0  0  0
  -26.9347   -7.7727   26.2997 O   0  0  0  0  0  0  0  0  0  0  0  0
  -23.8254   -6.6162   28.7669 O   0  0  0  0  0  0  0  0  0  0  0  0
  -24.2622  -10.6609   31.2102 O   0  0  0  0  0  0  0  0  0  0  0  0
  -32.2203  -13.3741   20.9104 O   0  0  0  0  0  0  0  0  0  0  0  0
  -21.8782   -6.7731   21.3402 O   0  0  0  0  0  0  0  0  0  0  0  0
  -30.7794  -11.4232   29.3944 O   0  0  0  0  0  0  0  0  0  1  0  0
  -20.5137   -5.2309   26.4552 F   0  0  0  0  0  0  0  0  0  0  0  0
  -20.2523   -8.3611   22.9142 F   0  0  0  0  0  0  0  0  0  0  0  0
  -32.9015  -11.2111   22.2819 F   0  0  0  0  0  0  0  0  0  0  0  0
  -30.1802  -13.8162   25.1607 F   0  0  0  0  0  0  0  0  0  0  0  0
  1  2  1  0  0  0  0
  1  5  2  0  0  0  0
  2  6  2  0  0  0  0
  3  8  2  0  0  0  0
  3 16  1  0  0  0  0
  4  9  1  0  0  0  0
  4 16  2  0  0  0  0
  5 18  1  0  0  0  0
  6 20  1  0  0  0  0
  7 10  2  0  0  0  0
  7 19  1  0  0  0  0
  8 25  1  0  0  0  0
  9 25  2  0  0  0  0
 10 26  1  0  0  0  0
 11 12  2  0  0  0  0
 11 27  1  0  0  0  0
 12 28  1  0  0  0  0
 13 21  1  0  0  0  0
 13 26  2  0  0  0  0
 14 22  2  0  0  0  0
 14 23  1  0  0  0  0
 15 28  2  0  0  0  0
 15 29  1  0  0  0  0
 16 32  1  0  0  0  0
 17 32  1  0  0  0  0
 17 33  2  0  0  0  0
 17 34  1  0  0  0  0
 18 20  2  0  0  0  0
 18 39  1  0  0  0  0
 19 21  2  0  0  0  0
 19 40  1  0  0  0  0
 20 48  1  0  0  0  0
 21 41  1  0  0  0  0
 22 30  1  0  0  0  0
 22 51  1  0  0  0  0
 23 31  2  0  0  0  0
 23 72  1  0  0  0  0
 24 30  2  0  0  0  0
 24 31  1  0  0  0  0
 24 69  1  0  0  0  0
 25 79  1  0  0  0  0
 26 80  1  0  0  0  0
 27 29  2  0  0  0  0
 27 79  1  0  0  0  0
 28 81  1  0  0  0  0
 29 82  1  0  0  0  0
 30 83  1  0  0  0  0
 31 84  1  0  0  0  0
 32 63  2  0  0  0  0
 33 64  1  0  0  0  0
 33 67  1  0  0  0  0
 34 68  1  0  0  0  0
 34 74  2  0  0  0  0
 35 49  1  0  0  0  0
 35 70  1  0  0  0  0
 35 75  2  0  0  0  0
 36 60  1  0  0  0  0
 36 65  1  0  0  0  0
 36 76  2  0  0  0  0
 37 61  1  0  0  0  0
 37 71  1  0  0  0  0
 37 77  2  0  0  0  0
 38 66  1  0  0  0  0
 38 69  1  0  0  0  0
 38 78  2  0  0  0  0
 39 42  1  0  0  0  0
 40 49  1  0  0  0  0
 41 65  1  0  0  0  0
 42 44  1  0  0  0  0
 43 45  1  0  0  0  0
 43 46  1  0  0  0  0
 44 48  1  0  0  0  0
 45 50  1  0  0  0  0
 46 66  1  0  0  0  0
 47 50  1  0  0  0  0
 47 66  1  0  0  0  0
 48 70  1  0  0  0  0
 49 65  1  0  0  0  0
 50 64  1  0  0  0  0
 52 61  1  0  0  0  0
 53 62  1  0  0  0  0
 54 62  1  0  0  0  0
 55 62  1  0  0  0  0
 56 72  1  0  0  0  0
 57 73  1  0  0  0  0
 58 59  1  0  0  0  0
 58 72  1  0  0  0  0
 59 80  1  0  0  0  0
 60 62  1  0  0  0  0
 60 71  1  0  0  0  0
 61 73  1  0  0  0  0
 63 64  1  0  0  0  0
M  CHG  1  73   1
M  ISO  4  38 100  59 101  69 100  80 101
M  END
> <Batch ID>
0014

> <Smiles>
CNC(C)C(=O)NC(C(=O)N1Cc2cc([101O:1][101CH2:1]CN(C)c3cc(C)c(F)c([100NH:0][100C:0](=O)N4CCCC(n5nc(-c6ccc(Oc7ccc(F)cc7F)cc6)c(C(N)=O)c5N)C4)c3F)ccc2CC1C(=O)NC1CCCc2ccccc21)C(C)(C)C

> <Shape>
0.148

> <Color>
0.168

> <Negative vol penalty>
0.000

$$$$

  -OEChem-04052315533D

 77 84  0     1  0  0  0  0  0999 V2000
  -20.9075  -22.9710   22.9657 C   0  0  0  0  0  0  0  0  0  0  0  0
  -22.0320  -23.4401   22.2942 C   0  0  0  0  0  0  0  0  0  0  0  0
  -23.9907  -14.1846   20.7680 C   0  0  0  0  0  0  0  0  0  0  0  0
  -26.1996  -14.1661   21.7466 C   0  0  0  0  0  0  0  0  0  0  0  0
  -19.8883  -23.8546   23.3182 C   0  0  0  0  0  0  0  0  0  0  0  0
  -22.1374  -24.7932   21.9739 C   0  0  0  0  0  0  0  0  0  0  0  0
  -26.7239  -26.6804   22.9973 C   0  0  0  0  0  0  0  0  0  0  0  0
  -24.1127  -12.8281   20.4670 C   0  0  0  0  0  0  0  0  0  0  0  0
  -26.3216  -12.8096   21.4457 C   0  0  0  0  0  0  0  0  0  0  0  0
  -27.7463  -26.3943   22.0936 C   0  0  0  0  0  0  0  0  0  0  0  0
  -23.6983   -9.2854   19.7650 C   0  0  0  0  0  0  0  0  0  0  0  0
  -22.6107   -8.4585   20.0458 C   0  0  0  0  0  0  0  0  0  0  0  0
  -27.4752  -28.5778   21.1047 C   0  0  0  0  0  0  0  0  0  0  0  0
  -22.7627   -9.0521   22.3828 C   0  0  0  0  0  0  0  0  0  0  0  0
  -25.0342  -14.8536   21.4077 C   0  0  0  0  0  0  0  0  0  0  0  0
  -24.3911  -16.8212   22.8986 C   0  0  0  0  0  0  0  0  0  0  0  0
  -19.9857  -25.2208   23.0106 C   0  0  0  0  0  0  0  0  0  0  0  0
  -26.0610  -27.9154   22.9543 C   0  0  0  0  0  0  0  0  0  0  0  0
  -21.1179  -25.6957   22.3214 C   0  0  0  0  0  0  0  0  0  0  0  0
  -26.4465  -28.8782   22.0106 C   0  0  0  0  0  0  0  0  0  0  0  0
  -25.2781  -12.1405   20.8059 C   0  0  0  0  0  0  0  0  0  0  0  0
  -28.1201  -27.3419   21.1453 C   0  0  0  0  0  0  0  0  0  0  0  0
  -24.3182   -9.9956   20.7931 C   0  0  0  0  0  0  0  0  0  0  0  0
  -22.1428   -8.3418   21.3547 C   0  0  0  0  0  0  0  0  0  0  0  0
  -23.8504   -9.8790   22.1020 C   0  0  0  0  0  0  0  0  0  0  0  0
  -24.9090  -16.2550   21.7184 C   0  0  0  0  0  0  0  0  0  0  0  0
  -24.4906  -18.1768   22.7016 C   0  0  0  0  0  0  0  0  0  0  0  0
  -23.8669  -16.1791   24.0685 C   0  0  0  0  0  0  0  0  0  0  0  0
  -23.0631  -28.8352   22.4340 C   0  0  0  0  0  0  0  0  0  0  0  0
  -28.1464  -21.3528   19.2630 C   0  0  0  0  0  0  0  0  0  0  0  0
  -24.2355  -31.7569   23.2159 C   0  0  0  0  0  0  0  0  0  0  0  0
  -29.8329  -25.6248   18.4742 C   0  0  0  0  0  0  0  0  0  0  0  0
  -26.9376  -33.8295   23.4390 C   0  0  0  0  0  0  0  0  0  0  0  0
  -18.8369  -26.1296   23.3701 C   0  0  0  0  0  0  0  0  0  0  0  0
  -24.9783  -28.2188   23.9533 C   0  0  0  0  0  0  0  0  0  0  0  0
  -25.7801  -30.2268   21.9359 C   0  0  0  0  0  0  0  0  0  0  0  0
  -19.1964  -27.6125   23.3256 C   0  0  0  0  0  0  0  0  0  0  0  0
  -24.5116  -21.4746   19.2450 C   0  0  0  0  0  0  0  0  0  0  0  0
  -19.9603  -27.9385   22.0462 C   0  0  0  0  0  0  0  0  0  0  0  0
  -24.1586  -20.1749   19.9670 C   0  0  0  0  0  0  0  0  0  0  0  0
  -25.7617  -21.3165   18.3834 C   0  0  0  0  0  0  0  0  0  0  0  0
  -26.6009  -19.5145   19.8575 C   0  0  0  0  0  0  0  0  0  0  0  0
  -21.2801  -27.1607   21.9783 C   0  0  1  0  0  0  0  0  0  0  0  0
  -24.0236  -29.3132   23.4859 C   0  0  1  0  0  0  0  0  0  0  0  0
  -25.3631  -19.6402   20.7613 C   0  0  2  0  0  0  0  0  0  0  0  0
  -27.5770  -36.1709   24.0768 C   0  0  0  0  0  0  0  0  0  0  0  0
  -23.0783  -32.7864   20.5870 C   0  0  0  0  0  0  0  0  0  0  0  0
  -24.5290  -34.8133   20.8228 C   0  0  0  0  0  0  0  0  0  0  0  0
  -22.7792  -34.3282   22.5333 C   0  0  0  0  0  0  0  0  0  0  0  0
  -30.5630  -24.1581   16.5854 C   0  0  0  0  0  0  0  0  0  0  0  0
  -28.7290  -32.8773   25.5938 C   0  0  0  0  0  0  0  0  0  0  0  0
  -28.3699  -22.6278   18.4896 C   0  0  0  0  0  0  0  0  0  0  0  0
  -29.2919  -25.6992   19.8865 C   0  0  0  0  0  0  0  0  0  1  0  0
  -29.7906  -23.1312   18.6871 C   0  0  0  0  0  0  0  0  0  0  0  0
  -24.8620  -32.8973   22.4505 C   0  0  1  0  0  0  0  0  0  0  0  0
  -27.4223  -34.7359   24.5562 C   0  0  2  0  0  0  0  0  0  0  0  0
  -23.8236  -33.6802   21.5983 C   0  0  0  0  0  0  0  0  0  0  0  0
  -25.3078  -17.1757   20.8367 N   0  0  0  0  0  0  0  0  0  0  0  0
  -25.0404  -18.3341   21.4633 N   0  0  0  0  0  0  0  0  0  0  0  0
  -24.7227  -30.4736   22.9302 N   0  0  0  0  0  0  0  0  0  0  0  0
  -26.8781  -20.7791   19.1703 N   0  0  0  0  0  0  0  0  0  0  0  0
  -24.1605  -19.2377   23.4684 N   0  0  0  0  0  0  0  0  0  0  0  0
  -23.8380  -14.7783   24.1056 N   0  0  0  0  0  0  0  0  0  0  0  0
  -22.2730  -27.7744   22.8338 N   0  0  0  0  0  0  0  0  0  0  0  0
  -25.5636  -33.7134   23.4354 N   0  0  0  0  0  0  0  0  0  0  0  0
  -30.0535  -24.3564   17.9366 N   0  0  0  0  0  0  0  0  0  0  0  0
  -28.7408  -34.2669   25.0685 N   0  3  0  0  0  0  0  0  0  0  0  0
  -23.4218  -16.8284   25.0452 O   0  0  0  0  0  0  0  0  0  0  0  0
  -23.0395  -29.3888   21.3410 O   0  0  0  0  0  0  0  0  0  0  0  0
  -29.0716  -20.8839   19.9310 O   0  0  0  0  0  0  0  0  0  0  0  0
  -23.3516  -31.9966   24.0423 O   0  0  0  0  0  0  0  0  0  0  0  0
  -30.0456  -26.6773   17.8644 O   0  0  0  0  0  0  0  0  0  0  0  0
  -27.7011  -33.2825   22.6464 O   0  0  0  0  0  0  0  0  0  0  0  0
  -25.3974  -10.8168   20.5126 O   0  0  0  0  0  0  0  0  0  0  0  0
  -29.1173  -27.0649   20.2617 O   0  0  0  0  0  0  0  0  0  1  0  0
  -21.0974   -7.5489   21.6239 F   0  0  0  0  0  0  0  0  0  0  0  0
  -24.4411  -10.5597   23.0937 F   0  0  0  0  0  0  0  0  0  0  0  0
  1  2  1  0  0  0  0
  1  5  2  0  0  0  0
  2  6  2  0  0  0  0
  3  8  2  0  0  0  0
  3 15  1  0  0  0  0
  4  9  1  0  0  0  0
  4 15  2  0  0  0  0
  5 17  1  0  0  0  0
  6 19  1  0  0  0  0
  7 10  2  0  0  0  0
  7 18  1  0  0  0  0
  8 21  1  0  0  0  0
  9 21  2  0  0  0  0
 10 22  1  0  0  0  0
 11 12  2  0  0  0  0
 11 23  1  0  0  0  0
 12 24  1  0  0  0  0
 13 20  1  0  0  0  0
 13 22  2  0  0  0  0
 14 24  2  0  0  0  0
 14 25  1  0  0  0  0
 15 26  1  0  0  0  0
 16 26  1  0  0  0  0
 16 27  2  0  0  0  0
 16 28  1  0  0  0  0
 17 19  2  0  0  0  0
 17 34  1  0  0  0  0
 18 20  2  0  0  0  0
 18 35  1  0  0  0  0
 19 43  1  0  0  0  0
 20 36  1  0  0  0  0
 21 74  1  0  0  0  0
 22 75  1  0  0  0  0
 23 25  2  0  0  0  0
 23 74  1  0  0  0  0
 24 76  1  0  0  0  0
 25 77  1  0  0  0  0
 26 58  2  0  0  0  0
 27 59  1  0  0  0  0
 27 62  1  0  0  0  0
 28 63  1  0  0  0  0
 28 68  2  0  0  0  0
 29 44  1  0  0  0  0
 29 64  1  0  0  0  0
 29 69  2  0  0  0  0
 30 52  1  0  0  0  0
 30 61  1  0  0  0  0
 30 70  2  0  0  0  0
 31 55  1  0  0  0  0
 31 60  1  0  0  0  0
 31 71  2  0  0  0  0
 32 53  1  0  0  0  0
 32 66  1  0  0  0  0
 32 72  2  0  0  0  0
 33 56  1  0  0  0  0
 33 65  1  0  0  0  0
 33 73  2  0  0  0  0
 34 37  1  0  0  0  0
 35 44  1  0  0  0  0
 36 60  1  0  0  0  0
 37 39  1  0  0  0  0
 38 40  1  0  0  0  0
 38 41  1  0  0  0  0
 39 43  1  0  0  0  0
 40 45  1  0  0  0  0
 41 61  1  0  0  0  0
 42 45  1  0  0  0  0
 42 61  1  0  0  0  0
 43 64  1  0  0  0  0
 44 60  1  0  0  0  0
 45 59  1  0  0  0  0
 46 56  1  0  0  0  0
 47 57  1  0  0  0  0
 48 57  1  0  0  0  0
 49 57  1  0  0  0  0
 50 66  1  0  0  0  0
 51 67  1  0  0  0  0
 52 54  1  0  0  0  0
 53 75  1  0  0  0  0
 54 66  1  0  0  0  0
 55 57  1  0  0  0  0
 55 65  1  0  0  0  0
 56 67  1  0  0  0  0
 58 59  1  0  0  0  0
M  CHG  1  67   1
M  ISO  4  30 100  52 100  53 101  75 101
M  END
> <Batch ID>
0014

> <Smiles>
CNC(C)C(=O)NC(C(=O)N1Cc2cc([101O:1][101CH2:1]C(=O)N(C)C[100CH2:0][100C:0](=O)N3CCCC(n4nc(-c5ccc(Oc6ccc(F)cc6F)cc5)c(C(N)=O)c4N)C3)ccc2CC1C(=O)NC1CCCc2ccccc21)C(C)(C)C

> <Shape>
0.251

> <Color>
0.098

> <Negative vol penalty>
0.000

$$$$

  -OEChem-04052315533D

 85 93  0     1  0  0  0  0  0999 V2000
  -27.8444  -34.9380   23.2086 C   0  0  0  0  0  0  0  0  0  0  0  0
  -27.9635  -33.6519   23.7255 C   0  0  0  0  0  0  0  0  0  0  0  0
  -24.4083   -9.4645   21.3488 C   0  0  0  0  0  0  0  0  0  0  0  0
  -24.8858  -10.4742   23.4911 C   0  0  0  0  0  0  0  0  0  0  0  0
  -26.6182  -35.3774   22.7114 C   0  0  0  0  0  0  0  0  0  0  0  0
  -26.8561  -32.8048   23.7465 C   0  0  0  0  0  0  0  0  0  0  0  0
  -27.9665  -28.1165   22.1869 C   0  0  0  0  0  0  0  0  0  0  0  0
  -24.0734   -8.2700   21.9864 C   0  0  0  0  0  0  0  0  0  0  0  0
  -24.5509   -9.2797   24.1288 C   0  0  0  0  0  0  0  0  0  0  0  0
  -28.6144  -27.2802   23.0949 C   0  0  0  0  0  0  0  0  0  0  0  0
  -21.4329   -7.0040   23.6769 C   0  0  0  0  0  0  0  0  0  0  0  0
  -20.2735   -6.3498   23.2605 C   0  0  0  0  0  0  0  0  0  0  0  0
  -26.5112  -26.2145   23.6048 C   0  0  0  0  0  0  0  0  0  0  0  0
  -30.2989  -19.3804   21.3648 C   0  0  0  0  0  0  0  0  0  0  0  0
  -27.9091  -19.5512   21.6758 C   0  0  0  0  0  0  0  0  0  0  0  0
  -21.5835   -4.4110   22.6590 C   0  0  0  0  0  0  0  0  0  0  0  0
  -24.8146  -10.5666   22.1012 C   0  0  0  0  0  0  0  0  0  0  0  0
  -24.2993  -12.8693   21.1317 C   0  0  0  0  0  0  0  0  0  0  0  0
  -25.4976  -34.5319   22.7175 C   0  0  0  0  0  0  0  0  0  0  0  0
  -26.5820  -28.0153   21.9887 C   0  0  0  0  0  0  0  0  0  0  0  0
  -25.6134  -33.2338   23.2501 C   0  0  0  0  0  0  0  0  0  0  0  0
  -25.8485  -27.0490   22.6918 C   0  0  0  0  0  0  0  0  0  0  0  0
  -30.4607  -20.6547   21.9084 C   0  0  0  0  0  0  0  0  0  0  0  0
  -29.3468  -21.3773   22.3358 C   0  0  0  0  0  0  0  0  0  0  0  0
  -29.0230  -18.8287   21.2484 C   0  0  0  0  0  0  0  0  0  0  0  0
  -24.1446   -8.1776   23.3764 C   0  0  0  0  0  0  0  0  0  0  0  0
  -27.8863  -26.3309   23.8061 C   0  0  0  0  0  0  0  0  0  0  0  0
  -22.6676   -6.3617   23.5843 C   0  0  0  0  0  0  0  0  0  0  0  0
  -28.0709  -20.8256   22.2195 C   0  0  0  0  0  0  0  0  0  0  0  0
  -20.3487   -5.0533   22.7515 C   0  0  0  0  0  0  0  0  0  0  0  0
  -22.7429   -5.0652   23.0754 C   0  0  0  0  0  0  0  0  0  0  0  0
  -25.1612  -11.8007   21.4431 C   0  0  0  0  0  0  0  0  0  0  0  0
  -25.1074  -13.7941   20.5167 C   0  0  0  0  0  0  0  0  0  0  0  0
  -22.8940  -13.0132   21.3766 C   0  0  0  0  0  0  0  0  0  0  0  0
  -24.1079  -29.9671   22.4043 C   0  0  0  0  0  0  0  0  0  0  0  0
  -30.1467  -23.7938   24.9535 C   0  0  0  0  0  0  0  0  0  0  0  0
  -22.4676  -27.5594   20.9780 C   0  0  0  0  0  0  0  0  0  0  0  0
  -22.2702  -24.2365   20.2254 C   0  0  0  0  0  0  0  0  0  0  0  0
  -29.8582  -16.6834   20.2253 C   0  0  0  0  0  0  0  0  0  0  0  0
  -24.1813  -35.0677   22.2125 C   0  0  0  0  0  0  0  0  0  0  0  0
  -25.9023  -28.9069   20.9860 C   0  0  0  0  0  0  0  0  0  0  0  0
  -24.3635  -26.8863   22.5005 C   0  0  0  0  0  0  0  0  0  0  0  0
  -23.1496  -33.9792   21.9276 C   0  0  0  0  0  0  0  0  0  0  0  0
  -29.8640  -13.4080   18.8293 C   0  0  0  0  0  0  0  0  0  0  0  0
  -23.0927  -32.9827   23.0811 C   0  0  0  0  0  0  0  0  0  0  0  0
  -28.5701  -12.7858   19.3593 C   0  0  0  0  0  0  0  0  0  0  0  0
  -30.5228  -14.3161   19.8662 C   0  0  0  0  0  0  0  0  0  0  0  0
  -28.3541  -14.7303   20.9590 C   0  0  0  0  0  0  0  0  0  0  0  0
  -24.4412  -32.2768   23.2675 C   0  0  1  0  0  0  0  0  0  0  0  0
  -24.4065  -29.0628   21.2422 C   0  0  1  0  0  0  0  0  0  0  0  0
  -27.6202  -13.8585   19.9270 C   0  0  2  0  0  0  0  0  0  0  0  0
  -31.8373  -21.2235   22.0220 C   0  0  0  0  0  0  0  0  0  0  0  0
  -30.6766  -23.6985   26.3642 C   0  0  0  0  0  0  0  0  0  0  0  0
  -20.7940  -22.5600   19.0819 C   0  0  0  0  0  0  0  0  0  0  0  0
  -20.5684  -27.6067   23.3656 C   0  0  0  0  0  0  0  0  0  0  0  0
  -19.7287  -25.3581   22.6536 C   0  0  0  0  0  0  0  0  0  0  0  0
  -19.4484  -27.3266   21.1472 C   0  0  0  0  0  0  0  0  0  0  0  0
  -24.3755  -23.5486   18.2624 C   0  0  0  0  0  0  0  0  0  0  0  0
  -26.3338  -22.3537   21.6690 C   0  0  0  0  0  0  0  0  0  0  0  0
  -29.5154  -22.7500   22.9244 C   0  0  0  0  0  0  0  0  0  0  0  0
  -29.8775  -25.1846   24.4202 C   0  0  0  0  0  0  0  0  0  1  0  0
  -21.7478  -26.3234   21.4609 C   0  0  1  0  0  0  0  0  0  0  0  0
  -21.9674  -23.5145   18.9248 C   0  0  2  0  0  0  0  0  0  0  0  0
  -20.4010  -26.6578   22.1621 C   0  0  0  0  0  0  0  0  0  0  0  0
  -26.4203  -12.0245   21.0575 N   0  0  0  0  0  0  0  0  0  0  0  0
  -29.9947  -22.6957   24.2953 N   0  0  0  0  0  0  0  0  0  0  0  0
  -26.3554  -13.2445   20.4974 N   0  0  0  0  0  0  0  0  0  0  0  0
  -23.7434  -27.7857   21.5135 N   0  0  0  0  0  0  0  0  0  0  0  0
  -29.5646  -15.3095   20.3559 N   0  0  0  0  0  0  0  0  0  0  0  0
  -24.8649  -15.0157   19.9958 N   0  0  0  0  0  0  0  0  0  0  0  0
  -22.2173  -11.9676   22.0194 N   0  0  0  0  0  0  0  0  0  0  0  0
  -28.8587  -17.5339   20.6967 N   0  0  0  0  0  0  0  0  0  0  0  0
  -24.6143  -31.2455   22.2671 N   0  0  0  0  0  0  0  0  0  0  0  0
  -21.6164  -25.4482   20.3011 N   0  0  0  0  0  0  0  0  0  0  0  0
  -23.1541  -22.7310   18.4789 N   0  3  0  0  0  0  0  0  0  0  0  0
  -22.2539  -14.0316   21.0209 O   0  0  0  0  0  0  0  0  0  0  0  0
  -23.4642  -29.5374   23.3545 O   0  0  0  0  0  0  0  0  0  0  0  0
  -21.9210  -28.2930   20.1506 O   0  0  0  0  0  0  0  0  0  0  0  0
  -23.0095  -23.7704   21.0895 O   0  0  0  0  0  0  0  0  0  0  0  0
  -30.9063  -17.0767   19.7068 O   0  0  0  0  0  0  0  0  0  0  0  0
  -23.8177   -7.0122   23.9989 O   0  0  0  0  0  0  0  0  0  0  0  0
  -26.9711  -21.5164   22.6316 O   0  0  0  0  0  0  0  0  0  0  0  0
  -28.5162  -25.5137   24.6935 O   0  0  0  0  0  0  0  0  0  1  0  0
  -19.2351   -4.4247   22.3531 F   0  0  0  0  0  0  0  0  0  0  0  0
  -23.9261   -4.4425   22.9852 F   0  0  0  0  0  0  0  0  0  0  0  0
  1  2  1  0  0  0  0
  1  5  2  0  0  0  0
  2  6  2  0  0  0  0
  3  8  2  0  0  0  0
  3 17  1  0  0  0  0
  4  9  1  0  0  0  0
  4 17  2  0  0  0  0
  5 19  1  0  0  0  0
  6 21  1  0  0  0  0
  7 10  2  0  0  0  0
  7 20  1  0  0  0  0
  8 26  1  0  0  0  0
  9 26  2  0  0  0  0
 10 27  1  0  0  0  0
 11 12  2  0  0  0  0
 11 28  1  0  0  0  0
 12 30  1  0  0  0  0
 13 22  1  0  0  0  0
 13 27  2  0  0  0  0
 14 23  2  0  0  0  0
 14 25  1  0  0  0  0
 15 25  2  0  0  0  0
 15 29  1  0  0  0  0
 16 30  2  0  0  0  0
 16 31  1  0  0  0  0
 17 32  1  0  0  0  0
 18 32  1  0  0  0  0
 18 33  2  0  0  0  0
 18 34  1  0  0  0  0
 19 21  2  0  0  0  0
 19 40  1  0  0  0  0
 20 22  2  0  0  0  0
 20 41  1  0  0  0  0
 21 49  1  0  0  0  0
 22 42  1  0  0  0  0
 23 24  1  0  0  0  0
 23 52  1  0  0  0  0
 24 29  2  0  0  0  0
 24 60  1  0  0  0  0
 25 72  1  0  0  0  0
 26 81  1  0  0  0  0
 27 83  1  0  0  0  0
 28 31  2  0  0  0  0
 28 81  1  0  0  0  0
 29 82  1  0  0  0  0
 30 84  1  0  0  0  0
 31 85  1  0  0  0  0
 32 65  2  0  0  0  0
 33 67  1  0  0  0  0
 33 70  1  0  0  0  0
 34 71  1  0  0  0  0
 34 76  2  0  0  0  0
 35 50  1  0  0  0  0
 35 73  1  0  0  0  0
 35 77  2  0  0  0  0
 36 53  1  0  0  0  0
 36 61  1  0  0  0  0
 36 66  2  0  0  0  0
 37 62  1  0  0  0  0
 37 68  1  0  0  0  0
 37 78  2  0  0  0  0
 38 63  1  0  0  0  0
 38 74  1  0  0  0  0
 38 79  2  0  0  0  0
 39 69  1  0  0  0  0
 39 72  1  0  0  0  0
 39 80  2  0  0  0  0
 40 43  1  0  0  0  0
 41 50  1  0  0  0  0
 42 68  1  0  0  0  0
 43 45  1  0  0  0  0
 44 46  1  0  0  0  0
 44 47  1  0  0  0  0
 45 49  1  0  0  0  0
 46 51  1  0  0  0  0
 47 69  1  0  0  0  0
 48 51  1  0  0  0  0
 48 69  1  0  0  0  0
 49 73  1  0  0  0  0
 50 68  1  0  0  0  0
 51 67  1  0  0  0  0
 54 63  1  0  0  0  0
 55 64  1  0  0  0  0
 56 64  1  0  0  0  0
 57 64  1  0  0  0  0
 58 75  1  0  0  0  0
 59 82  1  0  0  0  0
 60 66  1  0  0  0  0
 61 83  1  0  0  0  0
 62 64  1  0  0  0  0
 62 74  1  0  0  0  0
 63 75  1  0  0  0  0
 65 67  1  0  0  0  0
M  CHG  1  75   1
M  ISO  4  39 100  61 101  72 100  83 101
M  END
> <Batch ID>
0014

> <Smiles>
C=C(NCc1c(C)cc([100NH:0][100C:0](=O)N2CCCC(n3nc(-c4ccc(Oc5ccc(F)cc5F)cc4)c(C(N)=O)c3N)C2)cc1OC)[101CH2:1][101O:1]c1ccc2c(c1)CN(C(=O)C(NC(=O)C(C)NC)C(C)(C)C)C(C(=O)NC1CCCc3ccccc31)C2

> <Shape>
0.268

> <Color>
0.113

> <Negative vol penalty>
0.000

$$$$

  -OEChem-04052315533D

 80 88  0     1  0  0  0  0  0999 V2000
  -38.3435  -28.7796   26.3918 C   0  0  0  0  0  0  0  0  0  0  0  0
  -37.7158  -27.5799   26.7113 C   0  0  0  0  0  0  0  0  0  0  0  0
  -23.0012   -9.8931   19.9809 C   0  0  0  0  0  0  0  0  0  0  0  0
  -23.7268   -9.9437   22.2849 C   0  0  0  0  0  0  0  0  0  0  0  0
  -37.9711  -29.4754   25.2424 C   0  0  0  0  0  0  0  0  0  0  0  0
  -36.7146  -27.0757   25.8820 C   0  0  0  0  0  0  0  0  0  0  0  0
  -35.5461  -21.1846   24.6839 C   0  0  0  0  0  0  0  0  0  0  0  0
  -22.2351   -8.7584   20.2471 C   0  0  0  0  0  0  0  0  0  0  0  0
  -22.9606   -8.8090   22.5511 C   0  0  0  0  0  0  0  0  0  0  0  0
  -34.6109  -20.2896   25.2019 C   0  0  0  0  0  0  0  0  0  0  0  0
  -23.2058   -5.4702   22.0783 C   0  0  0  0  0  0  0  0  0  0  0  0
  -23.7937   -4.4530   22.8300 C   0  0  0  0  0  0  0  0  0  0  0  0
  -33.1369  -20.7696   23.3536 C   0  0  0  0  0  0  0  0  0  0  0  0
  -32.0584  -16.5369   22.5503 C   0  0  0  0  0  0  0  0  0  0  0  0
  -22.0701   -4.6950   24.5056 C   0  0  0  0  0  0  0  0  0  0  0  0
  -23.7472  -10.4858   20.9998 C   0  0  0  0  0  0  0  0  0  0  0  0
  -24.1317  -13.0016   20.8244 C   0  0  0  0  0  0  0  0  0  0  0  0
  -36.9715  -28.9746   24.3935 C   0  0  0  0  0  0  0  0  0  0  0  0
  -35.2786  -21.8881   23.5007 C   0  0  0  0  0  0  0  0  0  0  0  0
  -36.3275  -27.7661   24.7208 C   0  0  0  0  0  0  0  0  0  0  0  0
  -34.0714  -21.6709   22.8214 C   0  0  0  0  0  0  0  0  0  0  0  0
  -29.8953  -17.4572   23.1081 C   0  0  0  0  0  0  0  0  0  0  0  0
  -30.6734  -16.5527   22.3855 C   0  0  0  0  0  0  0  0  0  0  0  0
  -22.2147   -8.2163   21.5322 C   0  0  0  0  0  0  0  0  0  0  0  0
  -33.4049  -20.0842   24.5383 C   0  0  0  0  0  0  0  0  0  0  0  0
  -22.0500   -6.0999   22.5402 C   0  0  0  0  0  0  0  0  0  0  0  0
  -31.8873  -18.3302   24.1603 C   0  0  0  0  0  0  0  0  0  1  0  0
  -23.2259   -4.0654   24.0437 C   0  0  0  0  0  0  0  0  0  0  0  0
  -32.6654  -17.4256   23.4376 C   0  0  0  0  0  0  0  0  0  0  0  0
  -21.4821   -5.7123   23.7538 C   0  0  0  0  0  0  0  0  0  0  0  0
  -30.5023  -18.3460   23.9955 C   0  0  0  0  0  0  0  0  0  0  0  0
  -24.5392  -11.6577   20.7253 C   0  0  0  0  0  0  0  0  0  0  0  0
  -25.2412  -13.7245   20.4600 C   0  0  0  0  0  0  0  0  0  0  0  0
  -22.8637  -13.5475   21.2112 C   0  0  0  0  0  0  0  0  0  0  0  0
  -34.9734  -24.9584   22.7368 C   0  0  0  0  0  0  0  0  0  0  0  0
  -34.7900  -23.7870   19.7175 C   0  0  0  0  0  0  0  0  0  0  0  0
  -34.0744  -21.1515   17.6708 C   0  0  0  0  0  0  0  0  0  0  0  0
  -30.7204  -14.6871   20.6933 C   0  0  0  0  0  0  0  0  0  0  0  0
  -36.5701  -29.7860   23.1872 C   0  0  0  0  0  0  0  0  0  0  0  0
  -36.3091  -22.8300   22.9408 C   0  0  0  0  0  0  0  0  0  0  0  0
  -33.7446  -22.3862   21.5368 C   0  0  0  0  0  0  0  0  0  0  0  0
  -35.7611  -28.9947   22.1626 C   0  0  0  0  0  0  0  0  0  0  0  0
  -29.6025  -12.2345   18.3669 C   0  0  0  0  0  0  0  0  0  0  0  0
  -34.6616  -28.1944   22.8535 C   0  0  0  0  0  0  0  0  0  0  0  0
  -28.1520  -11.9764   18.7812 C   0  0  0  0  0  0  0  0  0  0  0  0
  -30.5031  -12.4779   19.5766 C   0  0  0  0  0  0  0  0  0  0  0  0
  -28.5878  -13.2659   20.9106 C   0  0  0  0  0  0  0  0  0  0  0  0
  -35.2543  -27.1743   23.8331 C   0  0  1  0  0  0  0  0  0  0  0  0
  -35.7150  -23.8768   22.0035 C   0  0  1  0  0  0  0  0  0  0  0  0
  -27.6300  -13.0795   19.7225 C   0  0  2  0  0  0  0  0  0  0  0  0
  -28.4098  -17.4932   22.9493 C   0  0  0  0  0  0  0  0  0  0  0  0
  -33.9812  -20.5082   15.2470 C   0  0  0  0  0  0  0  0  0  0  0  0
  -32.1785  -25.3345   19.4096 C   0  0  0  0  0  0  0  0  0  0  0  0
  -31.6668  -23.9341   17.3983 C   0  0  0  0  0  0  0  0  0  0  0  0
  -33.6778  -25.4100   17.4094 C   0  0  0  0  0  0  0  0  0  0  0  0
  -36.1219  -19.0452   18.0315 C   0  0  0  0  0  0  0  0  0  0  0  0
  -33.6720  -23.3125   18.8209 C   0  0  1  0  0  0  0  0  0  0  0  0
  -34.8350  -20.5460   16.5050 C   0  0  2  0  0  0  0  0  0  0  0  0
  -32.8038  -24.4856   18.2848 C   0  0  0  0  0  0  0  0  0  0  0  0
  -25.8085  -11.5317   20.3289 N   0  0  0  0  0  0  0  0  0  0  0  0
  -26.2081  -12.8056   20.1756 N   0  0  0  0  0  0  0  0  0  0  0  0
  -34.7815  -23.3017   21.0328 N   0  0  0  0  0  0  0  0  0  0  0  0
  -29.9479  -13.5385   20.4203 N   0  0  0  0  0  0  0  0  0  0  0  0
  -25.4743  -15.0503   20.3582 N   0  0  0  0  0  0  0  0  0  0  0  0
  -21.8322  -12.6630   21.5547 N   0  0  0  0  0  0  0  0  0  0  0  0
  -30.0760  -15.6419   21.4792 N   0  0  0  0  0  0  0  0  0  0  0  0
  -35.7655  -26.0247   23.1179 N   0  0  0  0  0  0  0  0  0  0  0  0
  -34.2988  -22.5077   17.7779 N   0  0  0  0  0  0  0  0  0  0  0  0
  -35.2567  -19.1537   16.8287 N   0  3  0  0  0  0  0  0  0  0  0  0
  -22.6466  -14.7827   21.2353 O   0  0  0  0  0  0  0  0  0  0  0  0
  -33.7713  -24.8354   22.9404 O   0  0  0  0  0  0  0  0  0  0  0  0
  -35.6436  -24.5542   19.2652 O   0  0  0  0  0  0  0  0  0  0  0  0
  -33.3504  -20.4884   18.4102 O   0  0  0  0  0  0  0  0  0  0  0  0
  -31.8590  -14.8265   20.2391 O   0  0  0  0  0  0  0  0  0  0  0  0
  -21.4670   -7.1091   21.7923 O   0  0  0  0  0  0  0  0  0  0  0  0
  -32.4901  -19.2117   25.0420 O   0  0  0  0  0  0  0  0  0  1  0  0
  -23.7897   -3.0874   24.7647 F   0  0  0  0  0  0  0  0  0  0  0  0
  -33.9965  -17.4052   23.5919 F   0  0  0  0  0  0  0  0  0  0  0  0
  -20.3712   -6.3127   24.2022 F   0  0  0  0  0  0  0  0  0  0  0  0
  -29.7584  -19.2171   24.6926 F   0  0  0  0  0  0  0  0  0  0  0  0
  1  2  1  0  0  0  0
  1  5  2  0  0  0  0
  2  6  2  0  0  0  0
  3  8  2  0  0  0  0
  3 16  1  0  0  0  0
  4  9  1  0  0  0  0
  4 16  2  0  0  0  0
  5 18  1  0  0  0  0
  6 20  1  0  0  0  0
  7 10  2  0  0  0  0
  7 19  1  0  0  0  0
  8 24  1  0  0  0  0
  9 24  2  0  0  0  0
 10 25  1  0  0  0  0
 11 12  2  0  0  0  0
 11 26  1  0  0  0  0
 12 28  1  0  0  0  0
 13 21  1  0  0  0  0
 13 25  2  0  0  0  0
 14 23  1  0  0  0  0
 14 29  2  0  0  0  0
 15 28  2  0  0  0  0
 15 30  1  0  0  0  0
 16 32  1  0  0  0  0
 17 32  1  0  0  0  0
 17 33  2  0  0  0  0
 17 34  1  0  0  0  0
 18 20  2  0  0  0  0
 18 39  1  0  0  0  0
 19 21  2  0  0  0  0
 19 40  1  0  0  0  0
 20 48  1  0  0  0  0
 21 41  1  0  0  0  0
 22 23  2  0  0  0  0
 22 31  1  0  0  0  0
 22 51  1  0  0  0  0
 23 66  1  0  0  0  0
 24 75  1  0  0  0  0
 25 76  1  0  0  0  0
 26 30  2  0  0  0  0
 26 75  1  0  0  0  0
 27 29  1  0  0  0  0
 27 31  2  0  0  0  0
 27 76  1  0  0  0  0
 28 77  1  0  0  0  0
 29 78  1  0  0  0  0
 30 79  1  0  0  0  0
 31 80  1  0  0  0  0
 32 60  2  0  0  0  0
 33 61  1  0  0  0  0
 33 64  1  0  0  0  0
 34 65  1  0  0  0  0
 34 70  2  0  0  0  0
 35 49  1  0  0  0  0
 35 67  1  0  0  0  0
 35 71  2  0  0  0  0
 36 57  1  0  0  0  0
 36 62  1  0  0  0  0
 36 72  2  0  0  0  0
 37 58  1  0  0  0  0
 37 68  1  0  0  0  0
 37 73  2  0  0  0  0
 38 63  1  0  0  0  0
 38 66  1  0  0  0  0
 38 74  2  0  0  0  0
 39 42  1  0  0  0  0
 40 49  1  0  0  0  0
 41 62  1  0  0  0  0
 42 44  1  0  0  0  0
 43 45  1  0  0  0  0
 43 46  1  0  0  0  0
 44 48  1  0  0  0  0
 45 50  1  0  0  0  0
 46 63  1  0  0  0  0
 47 50  1  0  0  0  0
 47 63  1  0  0  0  0
 48 67  1  0  0  0  0
 49 62  1  0  0  0  0
 50 61  1  0  0  0  0
 52 58  1  0  0  0  0
 53 59  1  0  0  0  0
 54 59  1  0  0  0  0
 55 59  1  0  0  0  0
 56 69  1  0  0  0  0
 57 59  1  0  0  0  0
 57 68  1  0  0  0  0
 58 69  1  0  0  0  0
 60 61  1  0  0  0  0
M  CHG  1  69   1
M  ISO  4  27 101  38 100  66 100  76 101
M  END
> <Batch ID>
0014

> <Smiles>
CNC(C)C(=O)NC(C(=O)N1Cc2cc([101O:1][101c:1]3c(F)cc([100NH:0][100C:0](=O)N4CCCC(n5nc(-c6ccc(Oc7ccc(F)cc7F)cc6)c(C(N)=O)c5N)C4)c(C)c3F)ccc2CC1C(=O)NC1CCCc2ccccc21)C(C)(C)C

> <Shape>
0.183

> <Color>
0.206

> <Negative vol penalty>
0.000

$$$$

  -OEChem-04052315533D

 84 92  0     1  0  0  0  0  0999 V2000
  -26.1579  -29.8860   17.3084 C   0  0  0  0  0  0  0  0  0  0  0  0
  -27.2073  -29.1260   17.8150 C   0  0  0  0  0  0  0  0  0  0  0  0
  -23.2179   -9.7510   19.9217 C   0  0  0  0  0  0  0  0  0  0  0  0
  -23.9069   -9.8443   22.2355 C   0  0  0  0  0  0  0  0  0  0  0  0
  -25.1742  -30.3741   18.1674 C   0  0  0  0  0  0  0  0  0  0  0  0
  -27.2741  -28.8547   19.1811 C   0  0  0  0  0  0  0  0  0  0  0  0
  -29.3646  -23.7391   21.8205 C   0  0  0  0  0  0  0  0  0  0  0  0
  -22.5405   -8.5576   20.1715 C   0  0  0  0  0  0  0  0  0  0  0  0
  -23.2295   -8.6508   22.4854 C   0  0  0  0  0  0  0  0  0  0  0  0
  -30.5919  -23.4153   22.3974 C   0  0  0  0  0  0  0  0  0  0  0  0
  -20.0410   -7.6612   23.0094 C   0  0  0  0  0  0  0  0  0  0  0  0
  -19.2534   -7.5932   24.1585 C   0  0  0  0  0  0  0  0  0  0  0  0
  -29.7054  -23.9592   24.5740 C   0  0  0  0  0  0  0  0  0  0  0  0
  -31.6841  -17.0862   22.6601 C   0  0  0  0  0  0  0  0  0  0  0  0
  -20.5910   -5.7505   24.9663 C   0  0  0  0  0  0  0  0  0  0  0  0
  -23.9012  -10.3944   20.9537 C   0  0  0  0  0  0  0  0  0  0  0  0
  -24.0878  -12.9337   20.7967 C   0  0  0  0  0  0  0  0  0  0  0  0
  -25.2237  -30.1005   19.5434 C   0  0  0  0  0  0  0  0  0  0  0  0
  -28.3001  -24.1865   22.6161 C   0  0  0  0  0  0  0  0  0  0  0  0
  -26.2909  -29.3408   20.0595 C   0  0  0  0  0  0  0  0  0  0  0  0
  -28.4649  -24.2856   24.0051 C   0  0  0  0  0  0  0  0  0  0  0  0
  -29.9438  -18.7431   24.0773 C   0  0  0  0  0  0  0  0  0  0  0  0
  -30.3070  -16.9808   22.4650 C   0  0  0  0  0  0  0  0  0  0  0  0
  -31.3210  -18.8484   24.2724 C   0  0  0  0  0  0  0  0  0  0  0  0
  -22.5463   -8.0075   21.4533 C   0  0  0  0  0  0  0  0  0  0  0  0
  -30.7634  -23.5281   23.7740 C   0  0  0  0  0  0  0  0  0  0  0  0
  -21.1036   -6.7738   22.8386 C   0  0  0  0  0  0  0  0  0  0  0  0
  -19.5283   -6.6378   25.1370 C   0  0  0  0  0  0  0  0  0  0  0  0
  -32.1911  -18.0200   23.5638 C   0  0  0  0  0  0  0  0  0  0  0  0
  -21.3786   -5.8185   23.8171 C   0  0  0  0  0  0  0  0  0  0  0  0
  -29.4369  -17.8093   23.1736 C   0  0  0  0  0  0  0  0  0  0  0  0
  -24.6016  -11.6269   20.6962 C   0  0  0  0  0  0  0  0  0  0  0  0
  -25.1413  -13.7444   20.4512 C   0  0  0  0  0  0  0  0  0  0  0  0
  -22.7756  -13.3753   21.1692 C   0  0  0  0  0  0  0  0  0  0  0  0
  -26.5983  -26.8659   22.7859 C   0  0  0  0  0  0  0  0  0  0  0  0
  -24.8602  -25.1652   24.9328 C   0  0  0  0  0  0  0  0  0  0  0  0
  -24.7338  -22.5883   27.1667 C   0  0  0  0  0  0  0  0  0  0  0  0
  -30.5237  -15.1355   20.7638 C   0  0  0  0  0  0  0  0  0  0  0  0
  -24.1631  -30.6896   20.4393 C   0  0  0  0  0  0  0  0  0  0  0  0
  -26.9744  -24.5063   21.9816 C   0  0  0  0  0  0  0  0  0  0  0  0
  -27.3472  -24.7417   24.9057 C   0  0  0  0  0  0  0  0  0  0  0  0
  -24.1041  -30.0421   21.8204 C   0  0  0  0  0  0  0  0  0  0  0  0
  -29.6338  -12.6169   18.4096 C   0  0  0  0  0  0  0  0  0  0  0  0
  -25.5058  -29.9063   22.4067 C   0  0  0  0  0  0  0  0  0  0  0  0
  -28.2030  -12.2423   18.8029 C   0  0  0  0  0  0  0  0  0  0  0  0
  -30.4965  -12.9230   19.6327 C   0  0  0  0  0  0  0  0  0  0  0  0
  -28.5075  -13.5488   20.9448 C   0  0  0  0  0  0  0  0  0  0  0  0
  -26.3847  -29.0043   21.5319 C   0  0  1  0  0  0  0  0  0  0  0  0
  -26.1175  -25.4429   22.8276 C   0  0  1  0  0  0  0  0  0  0  0  0
  -27.5831  -13.2948   19.7428 C   0  0  2  0  0  0  0  0  0  0  0  0
  -28.9925  -19.6195   24.8257 C   0  0  0  0  0  0  0  0  0  0  0  0
  -23.1892  -21.4685   28.7969 C   0  0  0  0  0  0  0  0  0  0  0  0
  -25.2736  -27.4620   26.8985 C   0  0  0  0  0  0  0  0  0  0  0  0
  -24.5639  -25.9214   28.7400 C   0  0  0  0  0  0  0  0  0  0  0  0
  -22.9714  -26.4852   26.9046 C   0  0  0  0  0  0  0  0  0  0  0  0
  -24.8695  -20.0173   25.7071 C   0  0  0  0  0  0  0  0  0  0  0  0
  -33.0995  -21.7451   25.8581 C   0  0  0  0  0  0  0  0  0  0  0  0
  -33.0303  -20.5473   24.9185 C   0  0  0  0  0  0  0  0  0  0  0  0
  -31.9359  -22.7125   25.6755 C   0  0  0  0  0  0  0  0  0  1  0  0
  -24.9209  -24.9484   26.4255 C   0  0  1  0  0  0  0  0  0  0  0  0
  -23.7158  -21.4807   27.3702 C   0  0  2  0  0  0  0  0  0  0  0  0
  -24.4543  -26.1975   27.2253 C   0  0  0  0  0  0  0  0  0  0  0  0
  -25.8820  -11.6041   20.3163 N   0  0  0  0  0  0  0  0  0  0  0  0
  -26.1815  -12.9065   20.1751 N   0  0  0  0  0  0  0  0  0  0  0  0
  -26.0720  -25.0488   24.2372 N   0  0  0  0  0  0  0  0  0  0  0  0
  -29.8481  -13.9311   20.4743 N   0  0  0  0  0  0  0  0  0  0  0  0
  -25.2701  -15.0851   20.3595 N   0  0  0  0  0  0  0  0  0  0  0  0
  -21.8129  -12.4098   21.4940 N   0  0  0  0  0  0  0  0  0  0  0  0
  -29.7955  -16.0314   21.5459 N   0  0  0  0  0  0  0  0  0  0  0  0
  -31.8396  -19.7712   25.1674 N   0  0  0  0  0  0  0  0  0  0  0  0
  -26.0594  -27.6118   21.7551 N   0  0  0  0  0  0  0  0  0  0  0  0
  -24.1452  -23.7425   26.6947 N   0  0  0  0  0  0  0  0  0  0  0  0
  -24.3304  -20.1534   27.0847 N   0  3  0  0  0  0  0  0  0  0  0  0
  -22.4612  -14.5893   21.1969 O   0  0  0  0  0  0  0  0  0  0  0  0
  -27.3979  -27.2583   23.6275 O   0  0  0  0  0  0  0  0  0  0  0  0
  -23.7763  -25.4212   24.4025 O   0  0  0  0  0  0  0  0  0  0  0  0
  -25.9307  -22.4452   27.4062 O   0  0  0  0  0  0  0  0  0  0  0  0
  -31.6535  -15.3672   20.3258 O   0  0  0  0  0  0  0  0  0  0  0  0
  -21.8851   -6.8431   21.6975 O   0  0  0  0  0  0  0  0  0  0  0  0
  -31.9604  -23.2134   24.3396 O   0  0  0  0  0  0  0  0  0  1  0  0
  -18.7728   -6.5736   26.2412 F   0  0  0  0  0  0  0  0  0  0  0  0
  -33.5168  -18.1118   23.7422 F   0  0  0  0  0  0  0  0  0  0  0  0
  -22.3988   -4.9640   23.6591 F   0  0  0  0  0  0  0  0  0  0  0  0
  -28.1121  -17.7084   22.9864 F   0  0  0  0  0  0  0  0  0  0  0  0
  1  2  1  0  0  0  0
  1  5  2  0  0  0  0
  2  6  2  0  0  0  0
  3  8  2  0  0  0  0
  3 16  1  0  0  0  0
  4  9  1  0  0  0  0
  4 16  2  0  0  0  0
  5 18  1  0  0  0  0
  6 20  1  0  0  0  0
  7 10  2  0  0  0  0
  7 19  1  0  0  0  0
  8 25  1  0  0  0  0
  9 25  2  0  0  0  0
 10 26  1  0  0  0  0
 11 12  2  0  0  0  0
 11 27  1  0  0  0  0
 12 28  1  0  0  0  0
 13 21  1  0  0  0  0
 13 26  2  0  0  0  0
 14 23  1  0  0  0  0
 14 29  2  0  0  0  0
 15 28  2  0  0  0  0
 15 30  1  0  0  0  0
 16 32  1  0  0  0  0
 17 32  1  0  0  0  0
 17 33  2  0  0  0  0
 17 34  1  0  0  0  0
 18 20  2  0  0  0  0
 18 39  1  0  0  0  0
 19 21  2  0  0  0  0
 19 40  1  0  0  0  0
 20 48  1  0  0  0  0
 21 41  1  0  0  0  0
 22 24  2  0  0  0  0
 22 31  1  0  0  0  0
 22 51  1  0  0  0  0
 23 31  2  0  0  0  0
 23 69  1  0  0  0  0
 24 29  1  0  0  0  0
 24 70  1  0  0  0  0
 25 79  1  0  0  0  0
 26 80  1  0  0  0  0
 27 30  2  0  0  0  0
 27 79  1  0  0  0  0
 28 81  1  0  0  0  0
 29 82  1  0  0  0  0
 30 83  1  0  0  0  0
 31 84  1  0  0  0  0
 32 63  2  0  0  0  0
 33 64  1  0  0  0  0
 33 67  1  0  0  0  0
 34 68  1  0  0  0  0
 34 74  2  0  0  0  0
 35 49  1  0  0  0  0
 35 71  1  0  0  0  0
 35 75  2  0  0  0  0
 36 60  1  0  0  0  0
 36 65  1  0  0  0  0
 36 76  2  0  0  0  0
 37 61  1  0  0  0  0
 37 72  1  0  0  0  0
 37 77  2  0  0  0  0
 38 66  1  0  0  0  0
 38 69  1  0  0  0  0
 38 78  2  0  0  0  0
 39 42  1  0  0  0  0
 40 49  1  0  0  0  0
 41 65  1  0  0  0  0
 42 44  1  0  0  0  0
 43 45  1  0  0  0  0
 43 46  1  0  0  0  0
 44 48  1  0  0  0  0
 45 50  1  0  0  0  0
 46 66  1  0  0  0  0
 47 50  1  0  0  0  0
 47 66  1  0  0  0  0
 48 71  1  0  0  0  0
 49 65  1  0  0  0  0
 50 64  1  0  0  0  0
 52 61  1  0  0  0  0
 53 62  1  0  0  0  0
 54 62  1  0  0  0  0
 55 62  1  0  0  0  0
 56 73  1  0  0  0  0
 57 58  1  0  0  0  0
 57 59  1  0  0  0  0
 58 70  1  0  0  0  0
 59 80  1  0  0  0  0
 60 62  1  0  0  0  0
 60 72  1  0  0  0  0
 61 73  1  0  0  0  0
 63 64  1  0  0  0  0
M  CHG  1  73   1
M  ISO  4  38 100  59 101  69 100  80 101
M  END
> <Batch ID>
0014

> <Smiles>
CNC(C)C(=O)NC(C(=O)N1Cc2cc([101O:1][101CH2:1]CCNc3c(F)cc([100NH:0][100C:0](=O)N4CCCC(n5nc(-c6ccc(Oc7ccc(F)cc7F)cc6)c(C(N)=O)c5N)C4)c(F)c3C)ccc2CC1C(=O)NC1CCCc2ccccc21)C(C)(C)C

> <Shape>
0.214

> <Color>
0.203

> <Negative vol penalty>
0.000

$$$$

  -OEChem-04052315533D

 85 93  0     1  0  0  0  0  0999 V2000
  -26.9796  -33.7300   26.1375 C   0  0  0  0  0  0  0  0  0  0  0  0
  -27.3476  -32.5755   25.4540 C   0  0  0  0  0  0  0  0  0  0  0  0
  -23.6475  -14.5372   21.8560 C   0  0  0  0  0  0  0  0  0  0  0  0
  -25.8239  -15.4529   21.3443 C   0  0  0  0  0  0  0  0  0  0  0  0
  -25.6483  -33.9292   26.5007 C   0  0  0  0  0  0  0  0  0  0  0  0
  -26.3847  -31.6190   25.1343 C   0  0  0  0  0  0  0  0  0  0  0  0
  -26.8231  -29.9354   20.3784 C   0  0  0  0  0  0  0  0  0  0  0  0
  -24.0865  -13.2734   21.4617 C   0  0  0  0  0  0  0  0  0  0  0  0
  -26.2629  -14.1890   20.9500 C   0  0  0  0  0  0  0  0  0  0  0  0
  -27.8257  -29.0007   20.1237 C   0  0  0  0  0  0  0  0  0  0  0  0
  -25.9447  -10.7646   22.7602 C   0  0  0  0  0  0  0  0  0  0  0  0
  -25.6250   -9.6824   23.5800 C   0  0  0  0  0  0  0  0  0  0  0  0
  -26.1887  -27.2309   20.2070 C   0  0  0  0  0  0  0  0  0  0  0  0
  -27.0650  -24.1503   16.0508 C   0  0  0  0  0  0  0  0  0  0  0  0
  -24.8081  -23.6824   16.7748 C   0  0  0  0  0  0  0  0  0  0  0  0
  -24.4243   -8.6533   21.7533 C   0  0  0  0  0  0  0  0  0  0  0  0
  -24.5162  -15.6271   21.7973 C   0  0  0  0  0  0  0  0  0  0  0  0
  -24.1311  -17.4928   23.4938 C   0  0  0  0  0  0  0  0  0  0  0  0
  -24.6669  -32.9791   26.1767 C   0  0  0  0  0  0  0  0  0  0  0  0
  -25.4952  -29.5231   20.5604 C   0  0  0  0  0  0  0  0  0  0  0  0
  -25.0393  -31.8050   25.4946 C   0  0  0  0  0  0  0  0  0  0  0  0
  -25.1706  -28.1626   20.4613 C   0  0  0  0  0  0  0  0  0  0  0  0
  -25.6878  -24.2594   15.8589 C   0  0  0  0  0  0  0  0  0  0  0  0
  -27.5627  -23.4641   17.1586 C   0  0  0  0  0  0  0  0  0  0  0  0
  -25.3057  -22.9962   17.8826 C   0  0  0  0  0  0  0  0  0  0  0  0
  -25.3942  -13.0993   21.0087 C   0  0  0  0  0  0  0  0  0  0  0  0
  -27.5091  -27.6480   20.0409 C   0  0  0  0  0  0  0  0  0  0  0  0
  -25.5041  -10.7913   21.4369 C   0  0  0  0  0  0  0  0  0  0  0  0
  -24.8648   -8.6267   23.0766 C   0  0  0  0  0  0  0  0  0  0  0  0
  -24.7440   -9.7356   20.9335 C   0  0  0  0  0  0  0  0  0  0  0  0
  -26.6830  -22.8871   18.0745 C   0  0  0  0  0  0  0  0  0  0  0  0
  -24.0631  -16.9330   22.2039 C   0  0  0  0  0  0  0  0  0  0  0  0
  -23.5745  -18.7409   23.3561 C   0  0  0  0  0  0  0  0  0  0  0  0
  -24.6509  -16.9346   24.7078 C   0  0  0  0  0  0  0  0  0  0  0  0
  -23.4031  -29.6861   22.9479 C   0  0  0  0  0  0  0  0  0  0  0  0
  -21.3683  -28.4756   20.7305 C   0  0  0  0  0  0  0  0  0  0  0  0
  -30.4264  -25.2995   18.1017 C   0  0  0  0  0  0  0  0  0  0  0  0
  -20.9495  -26.7083   17.8412 C   0  0  0  0  0  0  0  0  0  0  0  0
  -22.9896  -22.4606   18.7164 C   0  0  0  0  0  0  0  0  0  0  0  0
  -23.2487  -33.2162   26.6319 C   0  0  0  0  0  0  0  0  0  0  0  0
  -24.4210  -30.5464   20.8079 C   0  0  0  0  0  0  0  0  0  0  0  0
  -23.7571  -27.6703   20.6289 C   0  0  0  0  0  0  0  0  0  0  0  0
  -22.2261  -32.3294   25.9260 C   0  0  0  0  0  0  0  0  0  0  0  0
  -20.3677  -21.1425   20.7326 C   0  0  0  0  0  0  0  0  0  0  0  0
  -22.7076  -30.8824   25.8919 C   0  0  0  0  0  0  0  0  0  0  0  0
  -21.0256  -19.9681   21.4607 C   0  0  0  0  0  0  0  0  0  0  0  0
  -20.8816  -21.2818   19.3007 C   0  0  0  0  0  0  0  0  0  0  0  0
  -23.0005  -20.1758   19.8975 C   0  0  0  0  0  0  0  0  0  0  0  0
  -24.0195  -30.7558   25.1081 C   0  0  1  0  0  0  0  0  0  0  0  0
  -23.1857  -29.9636   21.4873 C   0  0  1  0  0  0  0  0  0  0  0  0
  -22.5624  -20.0351   21.3644 C   0  0  2  0  0  0  0  0  0  0  0  0
  -25.1564  -24.9940   14.6750 C   0  0  0  0  0  0  0  0  0  0  0  0
  -19.1666  -25.8505   16.2976 C   0  0  0  0  0  0  0  0  0  0  0  0
  -20.7085  -26.2636   22.7259 C   0  0  0  0  0  0  0  0  0  0  0  0
  -19.7019  -24.9592   20.8408 C   0  0  0  0  0  0  0  0  0  0  0  0
  -18.7367  -27.1683   21.4817 C   0  0  0  0  0  0  0  0  0  0  0  0
  -21.9978  -28.2847   15.5664 C   0  0  0  0  0  0  0  0  0  0  0  0
  -29.0521  -23.3719   17.3236 C   0  0  0  0  0  0  0  0  0  0  0  0
  -30.7593  -26.0667   19.3718 C   0  0  0  0  0  0  0  0  0  0  0  0
  -29.8136  -27.2299   19.6283 C   0  0  0  0  0  0  0  0  0  1  0  0
  -20.9666  -27.0878   20.2928 C   0  0  1  0  0  0  0  0  0  0  0  0
  -20.1263  -26.9914   16.5976 C   0  0  2  0  0  0  0  0  0  0  0  0
  -20.0555  -26.3785   21.3340 C   0  0  0  0  0  0  0  0  0  0  0  0
  -23.5071  -17.7577   21.3125 N   0  0  0  0  0  0  0  0  0  0  0  0
  -23.2205  -18.8485   22.0434 N   0  0  0  0  0  0  0  0  0  0  0  0
  -22.7432  -28.7089   20.8755 N   0  0  0  0  0  0  0  0  0  0  0  0
  -22.3447  -21.3434   19.2881 N   0  0  0  0  0  0  0  0  0  0  0  0
  -23.3582  -19.7459   24.2312 N   0  0  0  0  0  0  0  0  0  0  0  0
  -25.1864  -15.6399   24.6723 N   0  0  0  0  0  0  0  0  0  0  0  0
  -24.3816  -22.4237   18.7915 N   0  0  0  0  0  0  0  0  0  0  0  0
  -23.7637  -30.7983   23.6843 N   0  0  0  0  0  0  0  0  0  0  0  0
  -29.5385  -24.2631   18.3521 N   0  0  0  0  0  0  0  0  0  0  0  0
  -20.3631  -27.2349   18.9727 N   0  0  0  0  0  0  0  0  0  0  0  0
  -21.0175  -27.1784   15.4179 N   0  3  0  0  0  0  0  0  0  0  0  0
  -24.6258  -17.5590   25.7955 O   0  0  0  0  0  0  0  0  0  0  0  0
  -23.2532  -28.5474   23.3754 O   0  0  0  0  0  0  0  0  0  0  0  0
  -20.4948  -29.3236   20.9294 O   0  0  0  0  0  0  0  0  0  0  0  0
  -30.8964  -25.5801   17.0025 O   0  0  0  0  0  0  0  0  0  0  0  0
  -22.0051  -26.0795   17.8124 O   0  0  0  0  0  0  0  0  0  0  0  0
  -22.3531  -23.3950   18.2227 O   0  0  0  0  0  0  0  0  0  0  0  0
  -25.8230  -11.8661   20.6240 O   0  0  0  0  0  0  0  0  0  0  0  0
  -28.4859  -26.7335   19.7930 O   0  0  0  0  0  0  0  0  0  1  0  0
  -24.5592   -7.5868   23.8635 F   0  0  0  0  0  0  0  0  0  0  0  0
  -24.3189   -9.7550   19.6628 F   0  0  0  0  0  0  0  0  0  0  0  0
  -27.3079  -22.0351   19.4489 Cl  0  0  0  0  0  0  0  0  0  0  0  0
  1  2  1  0  0  0  0
  1  5  2  0  0  0  0
  2  6  2  0  0  0  0
  3  8  2  0  0  0  0
  3 17  1  0  0  0  0
  4  9  1  0  0  0  0
  4 17  2  0  0  0  0
  5 19  1  0  0  0  0
  6 21  1  0  0  0  0
  7 10  2  0  0  0  0
  7 20  1  0  0  0  0
  8 26  1  0  0  0  0
  9 26  2  0  0  0  0
 10 27  1  0  0  0  0
 11 12  2  0  0  0  0
 11 28  1  0  0  0  0
 12 29  1  0  0  0  0
 13 22  1  0  0  0  0
 13 27  2  0  0  0  0
 14 23  2  0  0  0  0
 14 24  1  0  0  0  0
 15 23  1  0  0  0  0
 15 25  2  0  0  0  0
 16 29  2  0  0  0  0
 16 30  1  0  0  0  0
 17 32  1  0  0  0  0
 18 32  1  0  0  0  0
 18 33  2  0  0  0  0
 18 34  1  0  0  0  0
 19 21  2  0  0  0  0
 19 40  1  0  0  0  0
 20 22  2  0  0  0  0
 20 41  1  0  0  0  0
 21 49  1  0  0  0  0
 22 42  1  0  0  0  0
 23 52  1  0  0  0  0
 24 31  2  0  0  0  0
 24 58  1  0  0  0  0
 25 31  1  0  0  0  0
 25 70  1  0  0  0  0
 26 81  1  0  0  0  0
 27 82  1  0  0  0  0
 28 30  2  0  0  0  0
 28 81  1  0  0  0  0
 29 83  1  0  0  0  0
 30 84  1  0  0  0  0
 31 85  1  0  0  0  0
 32 64  2  0  0  0  0
 33 65  1  0  0  0  0
 33 68  1  0  0  0  0
 34 69  1  0  0  0  0
 34 75  2  0  0  0  0
 35 50  1  0  0  0  0
 35 71  1  0  0  0  0
 35 76  2  0  0  0  0
 36 61  1  0  0  0  0
 36 66  1  0  0  0  0
 36 77  2  0  0  0  0
 37 59  1  0  0  0  0
 37 72  1  0  0  0  0
 37 78  2  0  0  0  0
 38 62  1  0  0  0  0
 38 73  1  0  0  0  0
 38 79  2  0  0  0  0
 39 67  1  0  0  0  0
 39 70  1  0  0  0  0
 39 80  2  0  0  0  0
 40 43  1  0  0  0  0
 41 50  1  0  0  0  0
 42 66  1  0  0  0  0
 43 45  1  0  0  0  0
 44 46  1  0  0  0  0
 44 47  1  0  0  0  0
 45 49  1  0  0  0  0
 46 51  1  0  0  0  0
 47 67  1  0  0  0  0
 48 51  1  0  0  0  0
 48 67  1  0  0  0  0
 49 71  1  0  0  0  0
 50 66  1  0  0  0  0
 51 65  1  0  0  0  0
 53 62  1  0  0  0  0
 54 63  1  0  0  0  0
 55 63  1  0  0  0  0
 56 63  1  0  0  0  0
 57 74  1  0  0  0  0
 58 72  1  0  0  0  0
 59 60  1  0  0  0  0
 60 82  1  0  0  0  0
 61 63  1  0  0  0  0
 61 73  1  0  0  0  0
 62 74  1  0  0  0  0
 64 65  1  0  0  0  0
M  CHG  1  74   1
M  ISO  4  39 100  60 101  70 100  82 101
M  END
> <Batch ID>
0014

> <Smiles>
CNC(C)C(=O)NC(C(=O)N1Cc2cc([101O:1][101CH2:1]CC(=O)NCc3cc(C)cc([100NH:0][100C:0](=O)N4CCCC(n5nc(-c6ccc(Oc7ccc(F)cc7F)cc6)c(C(N)=O)c5N)C4)c3Cl)ccc2CC1C(=O)NC1CCCc2ccccc21)C(C)(C)C

> <Shape>
0.225

> <Color>
0.072

> <Negative vol penalty>
0.000

$$$$

  -OEChem-04052315533D

 85 93  0     1  0  0  0  0  0999 V2000
  -17.1110  -30.4144   24.4109 C   0  0  0  0  0  0  0  0  0  0  0  0
  -18.3901  -30.5634   24.9373 C   0  0  0  0  0  0  0  0  0  0  0  0
  -28.5994  -13.5316   22.1056 C   0  0  0  0  0  0  0  0  0  0  0  0
  -27.7591  -14.6860   20.1567 C   0  0  0  0  0  0  0  0  0  0  0  0
  -16.8915  -29.5307   23.3551 C   0  0  0  0  0  0  0  0  0  0  0  0
  -19.4504  -29.8279   24.4088 C   0  0  0  0  0  0  0  0  0  0  0  0
  -25.2711  -31.6458   23.8432 C   0  0  0  0  0  0  0  0  0  0  0  0
  -27.6307  -12.5423   21.9374 C   0  0  0  0  0  0  0  0  0  0  0  0
  -26.7904  -13.6966   19.9883 C   0  0  0  0  0  0  0  0  0  0  0  0
  -26.4048  -31.4180   24.6220 C   0  0  0  0  0  0  0  0  0  0  0  0
  -24.3342  -12.1508   22.5732 C   0  0  0  0  0  0  0  0  0  0  0  0
  -23.6375  -11.7278   23.7051 C   0  0  0  0  0  0  0  0  0  0  0  0
  -29.5346  -25.7171   25.0692 C   0  0  0  0  0  0  0  0  0  0  0  0
  -27.1227  -25.8498   25.1105 C   0  0  0  0  0  0  0  0  0  0  0  0
  -27.0252  -29.5912   23.1738 C   0  0  0  0  0  0  0  0  0  0  0  0
  -24.4510   -9.4784   23.3651 C   0  0  0  0  0  0  0  0  0  0  0  0
  -28.6636  -14.6035   21.2153 C   0  0  0  0  0  0  0  0  0  0  0  0
  -28.2927  -25.2775   24.6113 C   0  0  0  0  0  0  0  0  0  0  0  0
  -30.9608  -15.6481   20.8425 C   0  0  0  0  0  0  0  0  0  0  0  0
  -17.9514  -28.7912   22.8069 C   0  0  0  0  0  0  0  0  0  0  0  0
  -24.9997  -30.8397   22.7282 C   0  0  0  0  0  0  0  0  0  0  0  0
  -19.2446  -28.9325   23.3455 C   0  0  0  0  0  0  0  0  0  0  0  0
  -25.8887  -29.8125   22.3809 C   0  0  0  0  0  0  0  0  0  0  0  0
  -29.6067  -26.7290   26.0266 C   0  0  0  0  0  0  0  0  0  0  0  0
  -28.4368  -27.3014   26.5259 C   0  0  0  0  0  0  0  0  0  0  0  0
  -26.7262  -12.6247   20.8787 C   0  0  0  0  0  0  0  0  0  0  0  0
  -27.2806  -30.3887   24.2890 C   0  0  0  0  0  0  0  0  0  0  0  0
  -25.0892  -11.2376   21.8371 C   0  0  0  0  0  0  0  0  0  0  0  0
  -23.6959  -10.3916   24.1011 C   0  0  0  0  0  0  0  0  0  0  0  0
  -25.1476   -9.9014   22.2331 C   0  0  0  0  0  0  0  0  0  0  0  0
  -27.1947  -26.8618   26.0679 C   0  0  0  0  0  0  0  0  0  0  0  0
  -29.6637  -15.6261   21.3890 C   0  0  0  0  0  0  0  0  0  0  0  0
  -31.5069  -16.8219   21.3013 C   0  0  0  0  0  0  0  0  0  0  0  0
  -28.2165  -24.2053   23.5970 C   0  0  0  0  0  0  0  0  0  0  0  0
  -31.6138  -14.6929   19.9958 C   0  0  0  0  0  0  0  0  0  0  0  0
  -22.6471  -28.8667   21.9061 C   0  0  0  0  0  0  0  0  0  0  0  0
  -24.2540  -28.7493   19.0907 C   0  0  0  0  0  0  0  0  0  0  0  0
  -27.2090  -29.1185   17.4238 C   0  0  0  0  0  0  0  0  0  0  0  0
  -28.7719  -21.8472   23.0423 C   0  0  0  0  0  0  0  0  0  0  0  0
  -17.6567  -27.8132   21.6973 C   0  0  0  0  0  0  0  0  0  0  0  0
  -23.7866  -31.1155   21.8828 C   0  0  0  0  0  0  0  0  0  0  0  0
  -25.6534  -28.9317   21.1821 C   0  0  0  0  0  0  0  0  0  0  0  0
  -18.9027  -27.3496   20.9471 C   0  0  0  0  0  0  0  0  0  0  0  0
  -31.3029  -19.8991   24.9283 C   0  0  0  0  0  0  0  0  0  0  0  0
  -20.0059  -26.9679   21.9289 C   0  0  0  0  0  0  0  0  0  0  0  0
  -31.2153  -18.5535   24.2168 C   0  0  0  0  0  0  0  0  0  0  0  0
  -29.9620  -20.6319   24.9455 C   0  0  0  0  0  0  0  0  0  0  0  0
  -29.2766  -19.4449   22.8725 C   0  0  0  0  0  0  0  0  0  0  0  0
  -20.4250  -28.1707   22.7828 C   0  0  1  0  0  0  0  0  0  0  0  0
  -23.3380  -29.9057   21.0689 C   0  0  1  0  0  0  0  0  0  0  0  0
  -30.6338  -18.7297   22.8069 C   0  0  2  0  0  0  0  0  0  0  0  0
  -30.9522  -27.1782   26.4973 C   0  0  0  0  0  0  0  0  0  0  0  0
  -28.2181  -28.9172   15.1350 C   0  0  0  0  0  0  0  0  0  0  0  0
  -29.5531  -30.1802   28.5968 C   0  0  0  0  0  0  0  0  0  0  0  0
  -24.2507  -25.7099   19.3592 C   0  0  0  0  0  0  0  0  0  0  0  0
  -26.0421  -25.6233   17.6123 C   0  0  0  0  0  0  0  0  0  0  0  0
  -23.7971  -26.5536   17.0490 C   0  0  0  0  0  0  0  0  0  0  0  0
  -27.9565  -31.9817   17.3748 C   0  0  0  0  0  0  0  0  0  0  0  0
  -28.3021  -30.4909   26.4342 C   0  0  0  0  0  0  0  0  0  1  0  0
  -25.3572  -27.8882   18.5245 C   0  0  1  0  0  0  0  0  0  0  0  0
  -27.5563  -29.8484   16.1389 C   0  0  2  0  0  0  0  0  0  0  0  0
  -29.2010  -29.5637   27.2494 C   0  0  2  0  0  0  0  0  0  0  0  0
  -24.8654  -26.4589   18.1600 C   0  0  0  0  0  0  0  0  0  0  0  0
  -29.4014  -16.7006   22.1378 N   0  0  0  0  0  0  0  0  0  0  0  0
  -30.5413  -17.4087   22.0652 N   0  0  0  0  0  0  0  0  0  0  0  0
  -24.4502  -29.2369   20.3905 N   0  0  0  0  0  0  0  0  0  0  0  0
  -29.3587  -20.7114   23.6081 N   0  0  0  0  0  0  0  0  0  0  0  0
  -32.7140  -17.3991   21.1218 N   0  0  0  0  0  0  0  0  0  0  0  0
  -30.9085  -13.5419   19.6190 N   0  0  0  0  0  0  0  0  0  0  0  0
  -28.5213  -28.3037   27.4746 N   0  0  0  0  0  0  0  0  0  0  0  0
  -28.7497  -23.0118   23.9010 N   0  0  0  0  0  0  0  0  0  0  0  0
  -21.2832  -29.0549   22.0237 N   0  0  0  0  0  0  0  0  0  0  0  0
  -25.9194  -28.6311   17.4018 N   0  0  0  0  0  0  0  0  0  0  0  0
  -27.6258  -24.4939   22.4376 N   0  3  0  0  0  0  0  0  0  0  0  0
  -28.4891  -30.9762   16.4197 N   0  3  0  0  0  0  0  0  0  0  0  0
  -32.7937  -14.8474   19.5988 O   0  0  0  0  0  0  0  0  0  0  0  0
  -23.3026  -27.9606   22.4069 O   0  0  0  0  0  0  0  0  0  0  0  0
  -23.2583  -28.9865   18.4023 O   0  0  0  0  0  0  0  0  0  0  0  0
  -28.0036  -28.9901   18.3526 O   0  0  0  0  0  0  0  0  0  0  0  0
  -28.2693  -21.9093   21.9254 O   0  0  0  0  0  0  0  0  0  0  0  0
  -25.7809  -11.6593   20.7140 O   0  0  0  0  0  0  0  0  0  0  0  0
  -28.3875  -30.1638   25.0479 O   0  0  0  0  0  0  0  0  0  1  0  0
  -23.0281   -9.9858   25.1890 F   0  0  0  0  0  0  0  0  0  0  0  0
  -25.8722   -9.0197   21.5307 F   0  0  0  0  0  0  0  0  0  0  0  0
  -25.7197  -27.5415   26.6578 Cl  0  0  0  0  0  0  0  0  0  0  0  0
  1  2  1  0  0  0  0
  1  5  2  0  0  0  0
  2  6  2  0  0  0  0
  3  8  2  0  0  0  0
  3 17  1  0  0  0  0
  4  9  1  0  0  0  0
  4 17  2  0  0  0  0
  5 20  1  0  0  0  0
  6 22  1  0  0  0  0
  7 10  2  0  0  0  0
  7 21  1  0  0  0  0
  8 26  1  0  0  0  0
  9 26  2  0  0  0  0
 10 27  1  0  0  0  0
 11 12  2  0  0  0  0
 11 28  1  0  0  0  0
 12 29  1  0  0  0  0
 13 18  1  0  0  0  0
 13 24  2  0  0  0  0
 14 18  2  0  0  0  0
 14 31  1  0  0  0  0
 15 23  1  0  0  0  0
 15 27  2  0  0  0  0
 16 29  2  0  0  0  0
 16 30  1  0  0  0  0
 17 32  1  0  0  0  0
 18 34  1  0  0  0  0
 19 32  1  0  0  0  0
 19 33  2  0  0  0  0
 19 35  1  0  0  0  0
 20 22  2  0  0  0  0
 20 40  1  0  0  0  0
 21 23  2  0  0  0  0
 21 41  1  0  0  0  0
 22 49  1  0  0  0  0
 23 42  1  0  0  0  0
 24 25  1  0  0  0  0
 24 52  1  0  0  0  0
 25 31  2  0  0  0  0
 25 70  1  0  0  0  0
 26 81  1  0  0  0  0
 27 82  1  0  0  0  0
 28 30  2  0  0  0  0
 28 81  1  0  0  0  0
 29 83  1  0  0  0  0
 30 84  1  0  0  0  0
 31 85  1  0  0  0  0
 32 64  2  0  0  0  0
 33 65  1  0  0  0  0
 33 68  1  0  0  0  0
 34 71  1  0  0  0  0
 34 74  2  0  0  0  0
 35 69  1  0  0  0  0
 35 76  2  0  0  0  0
 36 50  1  0  0  0  0
 36 72  1  0  0  0  0
 36 77  2  0  0  0  0
 37 60  1  0  0  0  0
 37 66  1  0  0  0  0
 37 78  2  0  0  0  0
 38 61  1  0  0  0  0
 38 73  1  0  0  0  0
 38 79  2  0  0  0  0
 39 67  1  0  0  0  0
 39 71  1  0  0  0  0
 39 80  2  0  0  0  0
 40 43  1  0  0  0  0
 41 50  1  0  0  0  0
 42 66  1  0  0  0  0
 43 45  1  0  0  0  0
 44 46  1  0  0  0  0
 44 47  1  0  0  0  0
 45 49  1  0  0  0  0
 46 51  1  0  0  0  0
 47 67  1  0  0  0  0
 48 51  1  0  0  0  0
 48 67  1  0  0  0  0
 49 72  1  0  0  0  0
 50 66  1  0  0  0  0
 51 65  1  0  0  0  0
 53 61  1  0  0  0  0
 54 62  1  0  0  0  0
 55 63  1  0  0  0  0
 56 63  1  0  0  0  0
 57 63  1  0  0  0  0
 58 75  1  0  0  0  0
 59 62  1  0  0  0  0
 59 82  1  0  0  0  0
 60 63  1  0  0  0  0
 60 73  1  0  0  0  0
 61 75  1  0  0  0  0
 62 70  1  0  0  0  0
 64 65  1  0  0  0  0
M  CHG  2  74   1  75   1
M  ISO  4  39 100  59 101  71 100  82 101
M  END
> <Batch ID>
0014

> <Smiles>
CNC(C)C(=O)NC(C(=O)N1Cc2cc([101O:1][101CH2:1]C(C)Nc3c(C)cc(C(=N)[100NH:0][100C:0](=O)N4CCCC(n5nc(-c6ccc(Oc7ccc(F)cc7F)cc6)c(C(N)=O)c5N)C4)cc3Cl)ccc2CC1C(=O)NC1CCCc2ccccc21)C(C)(C)C

> <Shape>
0.253

> <Color>
0.084

> <Negative vol penalty>
0.000

$$$$

  -OEChem-04052315533D

 82 90  0     1  0  0  0  0  0999 V2000
  -23.3686  -30.2946   22.2110 C   0  0  0  0  0  0  0  0  0  0  0  0
  -23.7313  -29.1698   22.9448 C   0  0  0  0  0  0  0  0  0  0  0  0
  -22.8401  -10.1030   20.0541 C   0  0  0  0  0  0  0  0  0  0  0  0
  -23.6137  -10.0715   22.3426 C   0  0  0  0  0  0  0  0  0  0  0  0
  -23.8723  -30.4782   20.9240 C   0  0  0  0  0  0  0  0  0  0  0  0
  -24.5972  -28.2271   22.3915 C   0  0  0  0  0  0  0  0  0  0  0  0
  -29.7597  -23.6209   24.2481 C   0  0  0  0  0  0  0  0  0  0  0  0
  -22.0017   -9.0211   20.3226 C   0  0  0  0  0  0  0  0  0  0  0  0
  -22.7752   -8.9896   22.6112 C   0  0  0  0  0  0  0  0  0  0  0  0
  -30.1065  -22.2778   24.1074 C   0  0  0  0  0  0  0  0  0  0  0  0
  -22.7758   -5.6486   22.0930 C   0  0  0  0  0  0  0  0  0  0  0  0
  -23.3059   -4.5826   22.8198 C   0  0  0  0  0  0  0  0  0  0  0  0
  -30.9769  -22.7394   21.9055 C   0  0  0  0  0  0  0  0  0  0  0  0
  -21.6376   -4.9219   24.5341 C   0  0  0  0  0  0  0  0  0  0  0  0
  -23.6462  -10.6282   21.0641 C   0  0  0  0  0  0  0  0  0  0  0  0
  -24.2029  -13.1130   20.9110 C   0  0  0  0  0  0  0  0  0  0  0  0
  -24.7524  -29.5422   20.3583 C   0  0  0  0  0  0  0  0  0  0  0  0
  -30.0094  -24.5327   23.2124 C   0  0  0  0  0  0  0  0  0  0  0  0
  -25.1121  -28.3976   21.0952 C   0  0  0  0  0  0  0  0  0  0  0  0
  -30.6346  -24.0940   22.0365 C   0  0  0  0  0  0  0  0  0  0  0  0
  -32.8627  -16.5245   23.8853 C   0  0  0  0  0  0  0  0  0  0  0  0
  -31.2288  -18.2734   23.5559 C   0  0  0  0  0  0  0  0  0  0  0  0
  -31.0079  -16.1762   22.3768 C   0  0  0  0  0  0  0  0  0  0  0  0
  -21.9692   -8.4644   21.6011 C   0  0  0  0  0  0  0  0  0  0  0  0
  -30.7126  -21.8364   22.9349 C   0  0  0  0  0  0  0  0  0  0  0  0
  -21.6766   -6.3513   22.5867 C   0  0  0  0  0  0  0  0  0  0  0  0
  -22.7368   -4.2193   24.0404 C   0  0  0  0  0  0  0  0  0  0  0  0
  -21.1075   -5.9879   23.8073 C   0  0  0  0  0  0  0  0  0  0  0  0
  -32.3918  -17.8065   24.1685 C   0  0  0  0  0  0  0  0  0  0  0  0
  -32.1709  -15.7093   22.9894 C   0  0  0  0  0  0  0  0  0  0  0  0
  -30.5369  -17.4582   22.6600 C   0  0  0  0  0  0  0  0  0  0  0  0
  -24.5129  -11.7454   20.7872 C   0  0  0  0  0  0  0  0  0  0  0  0
  -25.3528  -13.7614   20.5321 C   0  0  0  0  0  0  0  0  0  0  0  0
  -22.9844  -13.7410   21.3311 C   0  0  0  0  0  0  0  0  0  0  0  0
  -28.1994  -26.3862   21.3707 C   0  0  0  0  0  0  0  0  0  0  0  0
  -31.0675  -27.4916   20.3343 C   0  0  0  0  0  0  0  0  0  0  0  0
  -34.4080  -26.9328   19.9151 C   0  0  0  0  0  0  0  0  0  0  0  0
  -30.8897  -14.3350   20.6615 C   0  0  0  0  0  0  0  0  0  0  0  0
  -25.2337  -29.7598   18.9456 C   0  0  0  0  0  0  0  0  0  0  0  0
  -29.6536  -25.9832   23.3903 C   0  0  0  0  0  0  0  0  0  0  0  0
  -30.9428  -25.0367   20.9030 C   0  0  0  0  0  0  0  0  0  0  0  0
  -26.4414  -28.9030   18.5748 C   0  0  0  0  0  0  0  0  0  0  0  0
  -29.5556  -11.9984   18.3297 C   0  0  0  0  0  0  0  0  0  0  0  0
  -26.2272  -27.4587   19.0165 C   0  0  0  0  0  0  0  0  0  0  0  0
  -28.0992  -11.8368   18.7714 C   0  0  0  0  0  0  0  0  0  0  0  0
  -30.4953  -12.1617   19.5230 C   0  0  0  0  0  0  0  0  0  0  0  0
  -28.6673  -13.0637   20.9065 C   0  0  0  0  0  0  0  0  0  0  0  0
  -26.0685  -27.3652   20.5389 C   0  0  1  0  0  0  0  0  0  0  0  0
  -29.4871  -26.7243   22.0672 C   0  0  1  0  0  0  0  0  0  0  0  0
  -27.6750  -12.9609   19.7367 C   0  0  2  0  0  0  0  0  0  0  0  0
  -34.1068  -16.0254   24.5401 C   0  0  0  0  0  0  0  0  0  0  0  0
  -36.4857  -28.0060   19.0047 C   0  0  0  0  0  0  0  0  0  0  0  0
  -30.1359  -26.8800   17.4939 C   0  0  0  0  0  0  0  0  0  0  0  0
  -32.5191  -27.0596   16.7481 C   0  0  0  0  0  0  0  0  0  0  0  0
  -31.3731  -29.0390   17.7439 C   0  0  0  0  0  0  0  0  0  0  0  0
  -35.7336  -26.8812   22.5607 C   0  0  0  0  0  0  0  0  0  0  0  0
  -30.7571  -19.6583   23.8888 C   0  0  0  0  0  0  0  0  0  1  0  0
  -32.0283  -27.1058   19.2357 C   0  0  1  0  0  0  0  0  0  0  0  0
  -35.6204  -27.7881   20.2362 C   0  0  2  0  0  0  0  0  0  0  0  0
  -31.5067  -27.5027   17.8258 C   0  0  0  0  0  0  0  0  0  0  0  0
  -25.7619  -11.5362   20.3626 N   0  0  0  0  0  0  0  0  0  0  0  0
  -26.2468  -12.7810   20.2163 N   0  0  0  0  0  0  0  0  0  0  0  0
  -30.5700  -26.4440   21.1223 N   0  0  0  0  0  0  0  0  0  0  0  0
  -30.0331  -13.2470   20.3909 N   0  0  0  0  0  0  0  0  0  0  0  0
  -25.6764  -15.0689   20.4415 N   0  0  0  0  0  0  0  0  0  0  0  0
  -21.9004  -12.9263   21.6855 N   0  0  0  0  0  0  0  0  0  0  0  0
  -30.3300  -15.3219   21.4723 N   0  0  0  0  0  0  0  0  0  0  0  0
  -27.3577  -27.4669   21.1885 N   0  0  0  0  0  0  0  0  0  0  0  0
  -33.3120  -27.7029   19.5878 N   0  0  0  0  0  0  0  0  0  0  0  0
  -36.4524  -27.1341   21.2855 N   0  3  0  0  0  0  0  0  0  0  0  0
  -22.8551  -14.9880   21.3747 O   0  0  0  0  0  0  0  0  0  0  0  0
  -27.9858  -25.2307   21.0229 O   0  0  0  0  0  0  0  0  0  0  0  0
  -30.7750  -28.6795   20.4923 O   0  0  0  0  0  0  0  0  0  0  0  0
  -34.4319  -25.7045   19.9475 O   0  0  0  0  0  0  0  0  0  0  0  0
  -32.0259  -14.4005   20.1851 O   0  0  0  0  0  0  0  0  0  0  0  0
  -21.1510   -7.4088   21.8636 O   0  0  0  0  0  0  0  0  0  0  0  0
  -31.0515  -20.5259   22.7947 O   0  0  0  0  0  0  0  0  0  1  0  0
  -23.2450   -3.1946   24.7375 F   0  0  0  0  0  0  0  0  0  0  0  0
  -20.0507   -6.6585   24.2862 F   0  0  0  0  0  0  0  0  0  0  0  0
  -33.0588  -18.5890   25.0300 F   0  0  0  0  0  0  0  0  0  0  0  0
  -32.6271  -14.4766   22.7198 F   0  0  0  0  0  0  0  0  0  0  0  0
  -29.0918  -18.0438   21.9013 Cl  0  0  0  0  0  0  0  0  0  0  0  0
  1  2  1  0  0  0  0
  1  5  2  0  0  0  0
  2  6  2  0  0  0  0
  3  8  2  0  0  0  0
  3 15  1  0  0  0  0
  4  9  1  0  0  0  0
  4 15  2  0  0  0  0
  5 17  1  0  0  0  0
  6 19  1  0  0  0  0
  7 10  2  0  0  0  0
  7 18  1  0  0  0  0
  8 24  1  0  0  0  0
  9 24  2  0  0  0  0
 10 25  1  0  0  0  0
 11 12  2  0  0  0  0
 11 26  1  0  0  0  0
 12 27  1  0  0  0  0
 13 20  1  0  0  0  0
 13 25  2  0  0  0  0
 14 27  2  0  0  0  0
 14 28  1  0  0  0  0
 15 32  1  0  0  0  0
 16 32  1  0  0  0  0
 16 33  2  0  0  0  0
 16 34  1  0  0  0  0
 17 19  2  0  0  0  0
 17 39  1  0  0  0  0
 18 20  2  0  0  0  0
 18 40  1  0  0  0  0
 19 48  1  0  0  0  0
 20 41  1  0  0  0  0
 21 29  2  0  0  0  0
 21 30  1  0  0  0  0
 21 51  1  0  0  0  0
 22 29  1  0  0  0  0
 22 31  2  0  0  0  0
 22 57  1  0  0  0  0
 23 30  2  0  0  0  0
 23 31  1  0  0  0  0
 23 67  1  0  0  0  0
 24 76  1  0  0  0  0
 25 77  1  0  0  0  0
 26 28  2  0  0  0  0
 26 76  1  0  0  0  0
 27 78  1  0  0  0  0
 28 79  1  0  0  0  0
 29 80  1  0  0  0  0
 30 81  1  0  0  0  0
 31 82  1  0  0  0  0
 32 61  2  0  0  0  0
 33 62  1  0  0  0  0
 33 65  1  0  0  0  0
 34 66  1  0  0  0  0
 34 71  2  0  0  0  0
 35 49  1  0  0  0  0
 35 68  1  0  0  0  0
 35 72  2  0  0  0  0
 36 58  1  0  0  0  0
 36 63  1  0  0  0  0
 36 73  2  0  0  0  0
 37 59  1  0  0  0  0
 37 69  1  0  0  0  0
 37 74  2  0  0  0  0
 38 64  1  0  0  0  0
 38 67  1  0  0  0  0
 38 75  2  0  0  0  0
 39 42  1  0  0  0  0
 40 49  1  0  0  0  0
 41 63  1  0  0  0  0
 42 44  1  0  0  0  0
 43 45  1  0  0  0  0
 43 46  1  0  0  0  0
 44 48  1  0  0  0  0
 45 50  1  0  0  0  0
 46 64  1  0  0  0  0
 47 50  1  0  0  0  0
 47 64  1  0  0  0  0
 48 68  1  0  0  0  0
 49 63  1  0  0  0  0
 50 62  1  0  0  0  0
 52 59  1  0  0  0  0
 53 60  1  0  0  0  0
 54 60  1  0  0  0  0
 55 60  1  0  0  0  0
 56 70  1  0  0  0  0
 57 77  1  0  0  0  0
 58 60  1  0  0  0  0
 58 69  1  0  0  0  0
 59 70  1  0  0  0  0
 61 62  1  0  0  0  0
M  CHG  1  70   1
M  ISO  4  38 100  57 101  67 100  77 101
M  END
> <Batch ID>
0014

> <Smiles>
CNC(C)C(=O)NC(C(=O)N1Cc2cc([101O:1][101CH2:1]c3c(F)c(C)c(F)c([100NH:0][100C:0](=O)N4CCCC(n5nc(-c6ccc(Oc7ccc(F)cc7F)cc6)c(C(N)=O)c5N)C4)c3Cl)ccc2CC1C(=O)NC1CCCc2ccccc21)C(C)(C)C

> <Shape>
0.284

> <Color>
0.220

> <Negative vol penalty>
0.000

$$$$

  -OEChem-04052315533D

 85 93  0     1  0  0  0  0  0999 V2000
  -28.3894  -13.3580   34.1821 C   0  0  0  0  0  0  0  0  0  0  0  0
  -28.8552  -14.2048   33.1815 C   0  0  0  0  0  0  0  0  0  0  0  0
  -23.0003   -9.8944   19.9813 C   0  0  0  0  0  0  0  0  0  0  0  0
  -23.7257   -9.9450   22.2852 C   0  0  0  0  0  0  0  0  0  0  0  0
  -27.0437  -12.9948   34.2160 C   0  0  0  0  0  0  0  0  0  0  0  0
  -27.9757  -14.6881   32.2133 C   0  0  0  0  0  0  0  0  0  0  0  0
  -28.5843  -19.6378   31.3333 C   0  0  0  0  0  0  0  0  0  0  0  0
  -22.2335   -8.7601   20.2476 C   0  0  0  0  0  0  0  0  0  0  0  0
  -22.9589   -8.8107   22.5516 C   0  0  0  0  0  0  0  0  0  0  0  0
  -29.6615  -20.0144   30.5324 C   0  0  0  0  0  0  0  0  0  0  0  0
  -23.2024   -5.4717   22.0793 C   0  0  0  0  0  0  0  0  0  0  0  0
  -23.7897   -4.4543   22.8313 C   0  0  0  0  0  0  0  0  0  0  0  0
  -28.1734  -20.2392   28.6471 C   0  0  0  0  0  0  0  0  0  0  0  0
  -32.0593  -16.5469   22.5618 C   0  0  0  0  0  0  0  0  0  0  0  0
  -22.0661   -4.6975   24.5067 C   0  0  0  0  0  0  0  0  0  0  0  0
  -23.7464  -10.4869   21.0001 C   0  0  0  0  0  0  0  0  0  0  0  0
  -24.1323  -13.0024   20.8242 C   0  0  0  0  0  0  0  0  0  0  0  0
  -26.1453  -13.4816   33.2534 C   0  0  0  0  0  0  0  0  0  0  0  0
  -27.2931  -19.5484   30.7936 C   0  0  0  0  0  0  0  0  0  0  0  0
  -26.6170  -14.3300   32.2335 C   0  0  0  0  0  0  0  0  0  0  0  0
  -27.0811  -19.8637   29.4439 C   0  0  0  0  0  0  0  0  0  0  0  0
  -31.8593  -18.3431   24.1651 C   0  0  0  0  0  0  0  0  0  0  0  0
  -30.6757  -16.5503   22.3852 C   0  0  0  0  0  0  0  0  0  0  0  0
  -22.2128   -8.2182   21.5327 C   0  0  0  0  0  0  0  0  0  0  0  0
  -29.4567  -20.3123   29.1883 C   0  0  0  0  0  0  0  0  0  0  0  0
  -22.0469   -6.1021   22.5411 C   0  0  0  0  0  0  0  0  0  0  0  0
  -23.2216   -4.0672   24.0450 C   0  0  0  0  0  0  0  0  0  0  0  0
  -32.6511  -17.4433   23.4518 C   0  0  0  0  0  0  0  0  0  0  0  0
  -21.4787   -5.7150   23.7548 C   0  0  0  0  0  0  0  0  0  0  0  0
  -30.4756  -18.3466   23.9886 C   0  0  0  0  0  0  0  0  0  0  0  0
  -29.8839  -17.4502   23.0986 C   0  0  0  0  0  0  0  0  0  0  0  0
  -24.5391  -11.6583   20.7255 C   0  0  0  0  0  0  0  0  0  0  0  0
  -25.2422  -13.7247   20.4598 C   0  0  0  0  0  0  0  0  0  0  0  0
  -22.8645  -13.5490   21.2110 C   0  0  0  0  0  0  0  0  0  0  0  0
  -25.1773  -17.2066   30.4153 C   0  0  0  0  0  0  0  0  0  0  0  0
  -23.2640  -19.6249   29.4086 C   0  0  0  0  0  0  0  0  0  0  0  0
  -23.0115  -22.7610   28.0867 C   0  0  0  0  0  0  0  0  0  0  0  0
  -30.7219  -14.6845   20.6933 C   0  0  0  0  0  0  0  0  0  0  0  0
  -24.7092  -13.0235   33.3033 C   0  0  0  0  0  0  0  0  0  0  0  0
  -26.1374  -19.1666   31.6773 C   0  0  0  0  0  0  0  0  0  0  0  0
  -25.7111  -19.8026   28.8210 C   0  0  0  0  0  0  0  0  0  0  0  0
  -23.7674  -13.8785   32.4594 C   0  0  0  0  0  0  0  0  0  0  0  0
  -29.6028  -12.2321   18.3672 C   0  0  0  0  0  0  0  0  0  0  0  0
  -24.3653  -14.1271   31.0782 C   0  0  0  0  0  0  0  0  0  0  0  0
  -28.1522  -11.9747   18.7815 C   0  0  0  0  0  0  0  0  0  0  0  0
  -30.5035  -12.4751   19.5769 C   0  0  0  0  0  0  0  0  0  0  0  0
  -28.5885  -13.2644   20.9107 C   0  0  0  0  0  0  0  0  0  0  0  0
  -25.6889  -14.8948   31.1800 C   0  0  1  0  0  0  0  0  0  0  0  0
  -24.9486  -18.6105   30.8994 C   0  0  1  0  0  0  0  0  0  0  0  0
  -27.6307  -13.0783   19.7226 C   0  0  2  0  0  0  0  0  0  0  0  0
  -21.3157  -24.4541   27.3418 C   0  0  0  0  0  0  0  0  0  0  0  0
  -34.0474  -19.4983   27.8164 C   0  0  0  0  0  0  0  0  0  0  0  0
  -22.7720  -18.0102   26.8668 C   0  0  0  0  0  0  0  0  0  0  0  0
  -21.8887  -20.0944   25.7972 C   0  0  0  0  0  0  0  0  0  0  0  0
  -20.7422  -19.1380   27.7956 C   0  0  0  0  0  0  0  0  0  0  0  0
  -23.9445  -24.7426   30.0771 C   0  0  0  0  0  0  0  0  0  0  0  0
  -32.4958  -19.3058   25.1238 C   0  0  0  0  0  0  0  0  0  0  0  0
  -31.7863  -20.1454   28.7403 C   0  0  0  0  0  0  0  0  0  1  0  0
  -22.9798  -20.2804   28.0788 C   0  0  1  0  0  0  0  0  0  0  0  0
  -22.1770  -23.9618   28.4944 C   0  0  2  0  0  0  0  0  0  0  0  0
  -32.6686  -20.0547   27.5004 C   0  0  2  0  0  0  0  0  0  0  0  0
  -22.1219  -19.3801   27.1455 C   0  0  0  0  0  0  0  0  0  0  0  0
  -25.8083  -11.5315   20.3291 N   0  0  0  0  0  0  0  0  0  0  0  0
  -26.2086  -12.8052   20.1756 N   0  0  0  0  0  0  0  0  0  0  0  0
  -24.6143  -19.4181   29.7246 N   0  0  0  0  0  0  0  0  0  0  0  0
  -29.9488  -13.5362   20.4204 N   0  0  0  0  0  0  0  0  0  0  0  0
  -25.4760  -15.0504   20.3578 N   0  0  0  0  0  0  0  0  0  0  0  0
  -21.8326  -12.6651   21.5545 N   0  0  0  0  0  0  0  0  0  0  0  0
  -30.0780  -15.6397   21.4790 N   0  0  0  0  0  0  0  0  0  0  0  0
  -25.4408  -16.2996   31.4240 N   0  0  0  0  0  0  0  0  0  0  0  0
  -22.3760  -21.5735   28.3819 N   0  0  0  0  0  0  0  0  0  0  0  0
  -23.0587  -25.0803   28.9334 N   0  3  0  0  0  0  0  0  0  0  0  0
  -32.0130  -19.1428   26.5187 N   0  3  0  0  0  0  0  0  0  0  0  0
  -22.6481  -14.7844   21.2348 O   0  0  0  0  0  0  0  0  0  0  0  0
  -25.1175  -16.9639   29.2157 O   0  0  0  0  0  0  0  0  0  0  0  0
  -22.3229  -19.3143   30.1432 O   0  0  0  0  0  0  0  0  0  0  0  0
  -24.1150  -22.8660   27.5558 O   0  0  0  0  0  0  0  0  0  0  0  0
  -31.8606  -14.8232   20.2391 O   0  0  0  0  0  0  0  0  0  0  0  0
  -21.4645   -7.1115   21.7930 O   0  0  0  0  0  0  0  0  0  0  0  0
  -30.5065  -20.6795   28.4042 O   0  0  0  0  0  0  0  0  0  1  0  0
  -23.7849   -3.0891   24.7662 F   0  0  0  0  0  0  0  0  0  0  0  0
  -33.9813  -17.4320   23.6160 F   0  0  0  0  0  0  0  0  0  0  0  0
  -20.3680   -6.3160   24.2029 F   0  0  0  0  0  0  0  0  0  0  0  0
  -29.7063  -19.2065   24.6707 F   0  0  0  0  0  0  0  0  0  0  0  0
  -28.5530  -17.4624   22.9372 F   0  0  0  0  0  0  0  0  0  0  0  0
  1  2  1  0  0  0  0
  1  5  2  0  0  0  0
  2  6  2  0  0  0  0
  3  8  2  0  0  0  0
  3 16  1  0  0  0  0
  4  9  1  0  0  0  0
  4 16  2  0  0  0  0
  5 18  1  0  0  0  0
  6 20  1  0  0  0  0
  7 10  2  0  0  0  0
  7 19  1  0  0  0  0
  8 24  1  0  0  0  0
  9 24  2  0  0  0  0
 10 25  1  0  0  0  0
 11 12  2  0  0  0  0
 11 26  1  0  0  0  0
 12 27  1  0  0  0  0
 13 21  1  0  0  0  0
 13 25  2  0  0  0  0
 14 23  1  0  0  0  0
 14 28  2  0  0  0  0
 15 27  2  0  0  0  0
 15 29  1  0  0  0  0
 16 32  1  0  0  0  0
 17 32  1  0  0  0  0
 17 33  2  0  0  0  0
 17 34  1  0  0  0  0
 18 20  2  0  0  0  0
 18 39  1  0  0  0  0
 19 21  2  0  0  0  0
 19 40  1  0  0  0  0
 20 48  1  0  0  0  0
 21 41  1  0  0  0  0
 22 28  1  0  0  0  0
 22 30  2  0  0  0  0
 22 57  1  0  0  0  0
 23 31  2  0  0  0  0
 23 69  1  0  0  0  0
 24 79  1  0  0  0  0
 25 80  1  0  0  0  0
 26 29  2  0  0  0  0
 26 79  1  0  0  0  0
 27 81  1  0  0  0  0
 28 82  1  0  0  0  0
 29 83  1  0  0  0  0
 30 31  1  0  0  0  0
 30 84  1  0  0  0  0
 31 85  1  0  0  0  0
 32 63  2  0  0  0  0
 33 64  1  0  0  0  0
 33 67  1  0  0  0  0
 34 68  1  0  0  0  0
 34 74  2  0  0  0  0
 35 49  1  0  0  0  0
 35 70  1  0  0  0  0
 35 75  2  0  0  0  0
 36 59  1  0  0  0  0
 36 65  1  0  0  0  0
 36 76  2  0  0  0  0
 37 60  1  0  0  0  0
 37 71  1  0  0  0  0
 37 77  2  0  0  0  0
 38 66  1  0  0  0  0
 38 69  1  0  0  0  0
 38 78  2  0  0  0  0
 39 42  1  0  0  0  0
 40 49  1  0  0  0  0
 41 65  1  0  0  0  0
 42 44  1  0  0  0  0
 43 45  1  0  0  0  0
 43 46  1  0  0  0  0
 44 48  1  0  0  0  0
 45 50  1  0  0  0  0
 46 66  1  0  0  0  0
 47 50  1  0  0  0  0
 47 66  1  0  0  0  0
 48 70  1  0  0  0  0
 49 65  1  0  0  0  0
 50 64  1  0  0  0  0
 51 60  1  0  0  0  0
 52 61  1  0  0  0  0
 53 62  1  0  0  0  0
 54 62  1  0  0  0  0
 55 62  1  0  0  0  0
 56 72  1  0  0  0  0
 57 73  1  0  0  0  0
 58 61  1  0  0  0  0
 58 80  1  0  0  0  0
 59 62  1  0  0  0  0
 59 71  1  0  0  0  0
 60 72  1  0  0  0  0
 61 73  1  0  0  0  0
 63 64  1  0  0  0  0
M  CHG  2  72   1  73   1
M  ISO  4  38 100  58 101  69 100  80 101
M  END
> <Batch ID>
0014

> <Smiles>
CNC(C)C(=O)NC(C(=O)N1Cc2cc([101O:1][101CH2:1]C(C)NCc3c(F)cc([100NH:0][100C:0](=O)N4CCCC(n5nc(-c6ccc(Oc7ccc(F)cc7F)cc6)c(C(N)=O)c5N)C4)c(F)c3F)ccc2CC1C(=O)NC1CCCc2ccccc21)C(C)(C)C

> <Shape>
0.173

> <Color>
0.198

> <Negative vol penalty>
0.000

$$$$

  -OEChem-04052315533D

 82 90  0     1  0  0  0  0  0999 V2000
  -29.0501  -24.7418   17.0159 C   0  0  0  0  0  0  0  0  0  0  0  0
  -27.8450  -24.8132   17.7073 C   0  0  0  0  0  0  0  0  0  0  0  0
  -27.8469  -17.5966   21.8863 C   0  0  0  0  0  0  0  0  0  0  0  0
  -26.1447  -17.7909   20.1828 C   0  0  0  0  0  0  0  0  0  0  0  0
  -30.1718  -25.4125   17.5014 C   0  0  0  0  0  0  0  0  0  0  0  0
  -27.7612  -25.5546   18.8853 C   0  0  0  0  0  0  0  0  0  0  0  0
  -23.5983  -28.4317   19.0782 C   0  0  0  0  0  0  0  0  0  0  0  0
  -28.1140  -16.2922   21.4707 C   0  0  0  0  0  0  0  0  0  0  0  0
  -26.4119  -16.4864   19.7672 C   0  0  0  0  0  0  0  0  0  0  0  0
  -22.3999  -27.7968   19.4011 C   0  0  0  0  0  0  0  0  0  0  0  0
  -25.6723  -13.3475   20.7825 C   0  0  0  0  0  0  0  0  0  0  0  0
  -24.5843  -12.5098   20.5373 C   0  0  0  0  0  0  0  0  0  0  0  0
  -22.6014  -28.5846   21.6722 C   0  0  0  0  0  0  0  0  0  0  0  0
  -18.1864  -24.6678   21.2051 C   0  0  0  0  0  0  0  0  0  0  0  0
  -25.3057  -12.2434   18.2469 C   0  0  0  0  0  0  0  0  0  0  0  0
  -26.8622  -18.3460   21.2424 C   0  0  0  0  0  0  0  0  0  0  0  0
  -27.1890  -20.8757   21.2030 C   0  0  0  0  0  0  0  0  0  0  0  0
  -30.0993  -26.1704   18.6808 C   0  0  0  0  0  0  0  0  0  0  0  0
  -24.3141  -29.1400   20.0541 C   0  0  0  0  0  0  0  0  0  0  0  0
  -28.8834  -26.2350   19.3878 C   0  0  0  0  0  0  0  0  0  0  0  0
  -23.8074  -29.2298   21.3585 C   0  0  0  0  0  0  0  0  0  0  0  0
  -19.0028  -25.2027   22.2015 C   0  0  0  0  0  0  0  0  0  0  0  0
  -19.9442  -23.0145   22.6048 C   0  0  0  0  0  0  0  0  0  0  0  0
  -27.3965  -15.7371   20.4112 C   0  0  0  0  0  0  0  0  0  0  0  0
  -21.9027  -27.8707   20.6989 C   0  0  0  0  0  0  0  0  0  0  0  0
  -26.5770  -13.6332   19.7599 C   0  0  0  0  0  0  0  0  0  0  0  0
  -24.4010  -11.9578   19.2695 C   0  0  0  0  0  0  0  0  0  0  0  0
  -18.2488  -23.3062   20.9086 C   0  0  0  0  0  0  0  0  0  0  0  0
  -26.3937  -13.0811   18.4921 C   0  0  0  0  0  0  0  0  0  0  0  0
  -19.8818  -24.3761   22.9014 C   0  0  0  0  0  0  0  0  0  0  0  0
  -19.1277  -22.4796   21.6084 C   0  0  0  0  0  0  0  0  0  0  0  0
  -26.5855  -19.6933   21.6716 C   0  0  0  0  0  0  0  0  0  0  0  0
  -26.5837  -21.8780   21.9209 C   0  0  0  0  0  0  0  0  0  0  0  0
  -28.2058  -21.0522   20.2077 C   0  0  0  0  0  0  0  0  0  0  0  0
  -27.1977  -28.8639   21.3627 C   0  0  0  0  0  0  0  0  0  0  0  0
  -26.3884  -31.6606   22.7930 C   0  0  0  0  0  0  0  0  0  0  0  0
  -23.9190  -33.7628   23.8560 C   0  0  0  0  0  0  0  0  0  0  0  0
  -21.2763  -22.3266   24.6294 C   0  0  0  0  0  0  0  0  0  0  0  0
  -31.3506  -26.8394   19.1919 C   0  0  0  0  0  0  0  0  0  0  0  0
  -25.5917  -29.8418   19.6832 C   0  0  0  0  0  0  0  0  0  0  0  0
  -24.5272  -29.9947   22.4379 C   0  0  0  0  0  0  0  0  0  0  0  0
  -31.0817  -27.9096   20.2468 C   0  0  0  0  0  0  0  0  0  0  0  0
  -24.4772  -22.7157   26.1394 C   0  0  0  0  0  0  0  0  0  0  0  0
  -30.0985  -27.3933   21.2924 C   0  0  0  0  0  0  0  0  0  0  0  0
  -25.4366  -22.0979   25.1196 C   0  0  0  0  0  0  0  0  0  0  0  0
  -23.1562  -21.9517   26.2106 C   0  0  0  0  0  0  0  0  0  0  0  0
  -23.4397  -21.1410   23.9016 C   0  0  0  0  0  0  0  0  0  0  0  0
  -28.7464  -27.0493   20.6560 C   0  0  1  0  0  0  0  0  0  0  0  0
  -26.4989  -30.1040   20.8814 C   0  0  1  0  0  0  0  0  0  0  0  0
  -24.7592  -21.9149   23.7473 C   0  0  2  0  0  0  0  0  0  0  0  0
  -23.5662  -35.9559   25.0235 C   0  0  0  0  0  0  0  0  0  0  0  0
  -27.0564  -30.3438   25.4631 C   0  0  0  0  0  0  0  0  0  0  0  0
  -25.8103  -32.1901   26.6061 C   0  0  0  0  0  0  0  0  0  0  0  0
  -27.8341  -32.7105   25.2437 C   0  0  0  0  0  0  0  0  0  0  0  0
  -22.5406  -34.9232   21.5081 C   0  0  0  0  0  0  0  0  0  0  0  0
  -18.9323  -26.6766   22.5194 C   0  0  0  0  0  0  0  0  0  0  0  0
  -20.2825  -27.3681   22.3658 C   0  0  0  0  0  0  0  0  0  1  0  0
  -25.6928  -32.0425   24.0772 C   0  0  1  0  0  0  0  0  0  0  0  0
  -23.7250  -35.2582   23.6816 C   0  0  2  0  0  0  0  0  0  0  0  0
  -26.5856  -31.8056   25.3279 C   0  0  0  0  0  0  0  0  0  0  0  0
  -25.6673  -19.9217   22.6144 N   0  0  0  0  0  0  0  0  0  0  0  0
  -25.6894  -21.2591   22.7441 N   0  0  0  0  0  0  0  0  0  0  0  0
  -25.7756  -30.6585   22.0274 N   0  0  0  0  0  0  0  0  0  0  0  0
  -22.5704  -21.8208   24.8747 N   0  0  0  0  0  0  0  0  0  0  0  0
  -26.7345  -23.2195   21.9222 N   0  0  0  0  0  0  0  0  0  0  0  0
  -28.7183  -19.9157   19.5672 N   0  0  0  0  0  0  0  0  0  0  0  0
  -20.8374  -22.1741   23.3146 N   0  0  0  0  0  0  0  0  0  0  0  0
  -27.9849  -28.2540   20.4047 N   0  0  0  0  0  0  0  0  0  0  0  0
  -25.2545  -33.4239   23.9089 N   0  0  0  0  0  0  0  0  0  0  0  0
  -22.5095  -35.5309   22.8634 N   0  3  0  0  0  0  0  0  0  0  0  0
  -28.6586  -22.1828   19.9073 O   0  0  0  0  0  0  0  0  0  0  0  0
  -27.0358  -28.4890   22.5181 O   0  0  0  0  0  0  0  0  0  0  0  0
  -27.4331  -32.2354   22.4770 O   0  0  0  0  0  0  0  0  0  0  0  0
  -22.9798  -32.9746   23.9408 O   0  0  0  0  0  0  0  0  0  0  0  0
  -20.6176  -22.8804   25.5133 O   0  0  0  0  0  0  0  0  0  0  0  0
  -27.6571  -14.4644   20.0052 O   0  0  0  0  0  0  0  0  0  0  0  0
  -20.7335  -27.2513   21.0170 O   0  0  0  0  0  0  0  0  0  1  0  0
  -23.3570  -11.1521   19.0345 F   0  0  0  0  0  0  0  0  0  0  0  0
  -17.4648  -22.7924   19.9516 F   0  0  0  0  0  0  0  0  0  0  0  0
  -27.2601  -13.3510   17.5061 F   0  0  0  0  0  0  0  0  0  0  0  0
  -20.6681  -24.8929   23.8578 F   0  0  0  0  0  0  0  0  0  0  0  0
  -19.1806  -21.1729   21.3132 F   0  0  0  0  0  0  0  0  0  0  0  0
  1  2  1  0  0  0  0
  1  5  2  0  0  0  0
  2  6  2  0  0  0  0
  3  8  2  0  0  0  0
  3 16  1  0  0  0  0
  4  9  1  0  0  0  0
  4 16  2  0  0  0  0
  5 18  1  0  0  0  0
  6 20  1  0  0  0  0
  7 10  2  0  0  0  0
  7 19  1  0  0  0  0
  8 24  1  0  0  0  0
  9 24  2  0  0  0  0
 10 25  1  0  0  0  0
 11 12  2  0  0  0  0
 11 26  1  0  0  0  0
 12 27  1  0  0  0  0
 13 21  1  0  0  0  0
 13 25  2  0  0  0  0
 14 22  1  0  0  0  0
 14 28  2  0  0  0  0
 15 27  2  0  0  0  0
 15 29  1  0  0  0  0
 16 32  1  0  0  0  0
 17 32  1  0  0  0  0
 17 33  2  0  0  0  0
 17 34  1  0  0  0  0
 18 20  2  0  0  0  0
 18 39  1  0  0  0  0
 19 21  2  0  0  0  0
 19 40  1  0  0  0  0
 20 48  1  0  0  0  0
 21 41  1  0  0  0  0
 22 30  2  0  0  0  0
 22 56  1  0  0  0  0
 23 30  1  0  0  0  0
 23 31  2  0  0  0  0
 23 67  1  0  0  0  0
 24 76  1  0  0  0  0
 25 77  1  0  0  0  0
 26 29  2  0  0  0  0
 26 76  1  0  0  0  0
 27 78  1  0  0  0  0
 28 31  1  0  0  0  0
 28 79  1  0  0  0  0
 29 80  1  0  0  0  0
 30 81  1  0  0  0  0
 31 82  1  0  0  0  0
 32 61  2  0  0  0  0
 33 62  1  0  0  0  0
 33 65  1  0  0  0  0
 34 66  1  0  0  0  0
 34 71  2  0  0  0  0
 35 49  1  0  0  0  0
 35 68  1  0  0  0  0
 35 72  2  0  0  0  0
 36 58  1  0  0  0  0
 36 63  1  0  0  0  0
 36 73  2  0  0  0  0
 37 59  1  0  0  0  0
 37 69  1  0  0  0  0
 37 74  2  0  0  0  0
 38 64  1  0  0  0  0
 38 67  1  0  0  0  0
 38 75  2  0  0  0  0
 39 42  1  0  0  0  0
 40 49  1  0  0  0  0
 41 63  1  0  0  0  0
 42 44  1  0  0  0  0
 43 45  1  0  0  0  0
 43 46  1  0  0  0  0
 44 48  1  0  0  0  0
 45 50  1  0  0  0  0
 46 64  1  0  0  0  0
 47 50  1  0  0  0  0
 47 64  1  0  0  0  0
 48 68  1  0  0  0  0
 49 63  1  0  0  0  0
 50 62  1  0  0  0  0
 51 59  1  0  0  0  0
 52 60  1  0  0  0  0
 53 60  1  0  0  0  0
 54 60  1  0  0  0  0
 55 70  1  0  0  0  0
 56 57  1  0  0  0  0
 57 77  1  0  0  0  0
 58 60  1  0  0  0  0
 58 69  1  0  0  0  0
 59 70  1  0  0  0  0
 61 62  1  0  0  0  0
M  CHG  1  70   1
M  ISO  4  38 100  57 101  67 100  77 101
M  END
> <Batch ID>
0014

> <Smiles>
CNC(C)C(=O)NC(C(=O)N1Cc2cc([101O:1][101CH2:1]Cc3cc(F)c(F)c([100NH:0][100C:0](=O)N4CCCC(n5nc(-c6ccc(Oc7ccc(F)cc7F)cc6)c(C(N)=O)c5N)C4)c3F)ccc2CC1C(=O)NC1CCCc2ccccc21)C(C)(C)C

> <Shape>
0.270

> <Color>
0.060

> <Negative vol penalty>
0.000

$$$$

  -OEChem-04052315533D

 84 92  0     1  0  0  0  0  0999 V2000
  -25.7158  -34.9020   24.4508 C   0  0  0  0  0  0  0  0  0  0  0  0
  -26.3116  -33.6972   24.0916 C   0  0  0  0  0  0  0  0  0  0  0  0
  -26.4229  -12.7649   21.0635 C   0  0  0  0  0  0  0  0  0  0  0  0
  -26.4847  -12.7064   18.6490 C   0  0  0  0  0  0  0  0  0  0  0  0
  -24.3581  -34.9404   24.7655 C   0  0  0  0  0  0  0  0  0  0  0  0
  -25.5501  -32.5299   24.0479 C   0  0  0  0  0  0  0  0  0  0  0  0
  -26.4597  -29.7711   19.8998 C   0  0  0  0  0  0  0  0  0  0  0  0
  -25.9575  -11.4502   21.0836 C   0  0  0  0  0  0  0  0  0  0  0  0
  -26.0193  -11.3916   18.6690 C   0  0  0  0  0  0  0  0  0  0  0  0
  -27.6236  -29.0037   19.8881 C   0  0  0  0  0  0  0  0  0  0  0  0
  -23.0261   -9.8384   20.6008 C   0  0  0  0  0  0  0  0  0  0  0  0
  -21.9638   -9.5406   21.4543 C   0  0  0  0  0  0  0  0  0  0  0  0
  -26.3321  -27.0471   20.4564 C   0  0  0  0  0  0  0  0  0  0  0  0
  -23.3454   -7.9324   22.6127 C   0  0  0  0  0  0  0  0  0  0  0  0
  -26.6864  -13.3931   19.8463 C   0  0  0  0  0  0  0  0  0  0  0  0
  -29.7211  -23.9762   18.0733 C   0  0  0  0  0  0  0  0  0  0  0  0
  -28.5075  -15.1795   19.8487 C   0  0  0  0  0  0  0  0  0  0  0  0
  -23.5775  -33.7747   24.7163 C   0  0  0  0  0  0  0  0  0  0  0  0
  -25.2226  -29.1834   20.2011 C   0  0  0  0  0  0  0  0  0  0  0  0
  -24.1809  -32.5525   24.3635 C   0  0  0  0  0  0  0  0  0  0  0  0
  -25.1536  -27.8087   20.4687 C   0  0  0  0  0  0  0  0  0  0  0  0
  -28.5970  -22.0459   17.1530 C   0  0  0  0  0  0  0  0  0  0  0  0
  -25.7558  -10.7635   19.8863 C   0  0  0  0  0  0  0  0  0  0  0  0
  -27.5603  -27.6421   20.1692 C   0  0  0  0  0  0  0  0  0  0  0  0
  -24.2480   -9.1831   20.7532 C   0  0  0  0  0  0  0  0  0  0  0  0
  -22.1235   -8.5876   22.4603 C   0  0  0  0  0  0  0  0  0  0  0  0
  -24.4077   -8.2301   21.7591 C   0  0  0  0  0  0  0  0  0  0  0  0
  -28.6961  -23.0323   18.1343 C   0  0  0  0  0  0  0  0  0  0  0  0
  -30.6471  -23.9340   17.0309 C   0  0  0  0  0  0  0  0  0  0  0  0
  -29.5230  -22.0035   16.1106 C   0  0  0  0  0  0  0  0  0  0  0  0
  -30.5480  -22.9476   16.0496 C   0  0  0  0  0  0  0  0  0  0  0  0
  -27.1666  -14.7514   19.8249 C   0  0  0  0  0  0  0  0  0  0  0  0
  -28.4309  -16.5504   19.8126 C   0  0  0  0  0  0  0  0  0  0  0  0
  -29.8277  -25.0311   19.1220 C   0  0  0  0  0  0  0  0  0  0  0  0
  -29.7143  -14.4071   19.8987 C   0  0  0  0  0  0  0  0  0  0  0  0
  -23.0497  -29.5771   22.4874 C   0  0  0  0  0  0  0  0  0  0  0  0
  -21.3501  -27.4751   20.6941 C   0  0  0  0  0  0  0  0  0  0  0  0
  -21.3642  -24.9675   18.3793 C   0  0  0  0  0  0  0  0  0  0  0  0
  -26.2815  -21.2564   17.7541 C   0  0  0  0  0  0  0  0  0  0  0  0
  -22.1241  -33.8571   25.1108 C   0  0  0  0  0  0  0  0  0  0  0  0
  -23.9726  -30.0197   20.1834 C   0  0  0  0  0  0  0  0  0  0  0  0
  -23.8474  -27.1257   20.7782 C   0  0  0  0  0  0  0  0  0  0  0  0
  -21.3055  -32.6438   24.6770 C   0  0  0  0  0  0  0  0  0  0  0  0
  -24.4605  -19.6431   20.3538 C   0  0  0  0  0  0  0  0  0  0  0  0
  -22.0419  -31.3527   25.0198 C   0  0  0  0  0  0  0  0  0  0  0  0
  -25.1125  -18.2619   20.4499 C   0  0  0  0  0  0  0  0  0  0  0  0
  -24.3879  -20.1368   18.9100 C   0  0  0  0  0  0  0  0  0  0  0  0
  -26.3158  -18.7387   18.2793 C   0  0  0  0  0  0  0  0  0  0  0  0
  -23.3828  -31.2694   24.2806 C   0  0  1  0  0  0  0  0  0  0  0  0
  -22.8392  -29.4177   21.0082 C   0  0  1  0  0  0  0  0  0  0  0  0
  -26.4701  -18.2276   19.7211 C   0  0  2  0  0  0  0  0  0  0  0  0
  -19.8238  -23.4223   17.1396 C   0  0  0  0  0  0  0  0  0  0  0  0
  -21.0292  -25.7800   23.2108 C   0  0  0  0  0  0  0  0  0  0  0  0
  -20.3451  -23.8654   21.7498 C   0  0  0  0  0  0  0  0  0  0  0  0
  -18.9731  -25.9482   21.7971 C   0  0  0  0  0  0  0  0  0  0  0  0
  -22.1923  -26.0589   15.7559 C   0  0  0  0  0  0  0  0  0  0  0  0
  -28.5609  -25.5166   19.7987 C   0  0  0  0  0  0  0  0  0  1  0  0
  -21.2226  -25.9717   20.6433 C   0  0  1  0  0  0  0  0  0  0  0  0
  -20.5494  -24.7586   17.1156 C   0  0  2  0  0  0  0  0  0  0  0  0
  -20.4175  -25.4043   21.8464 C   0  0  0  0  0  0  0  0  0  0  0  0
  -26.3015  -15.7680   19.7776 N   0  0  0  0  0  0  0  0  0  0  0  0
  -27.1006  -16.8485   19.7714 N   0  0  0  0  0  0  0  0  0  0  0  0
  -22.6538  -27.9874   20.7549 N   0  0  0  0  0  0  0  0  0  0  0  0
  -25.7111  -20.0800   18.2848 N   0  0  0  0  0  0  0  0  0  0  0  0
  -29.3724  -17.5179   19.8125 N   0  0  0  0  0  0  0  0  0  0  0  0
  -29.6123  -13.0096   19.9308 N   0  0  0  0  0  0  0  0  0  0  0  0
  -27.5561  -21.0865   17.2146 N   0  0  0  0  0  0  0  0  0  0  0  0
  -23.1758  -30.8900   22.8995 N   0  0  0  0  0  0  0  0  0  0  0  0
  -20.6512  -25.6544   19.3390 N   0  0  0  0  0  0  0  0  0  0  0  0
  -21.4346  -24.7913   15.9172 N   0  3  0  0  0  0  0  0  0  0  0  0
  -30.9314  -25.4838   19.4172 O   0  0  0  0  0  0  0  0  0  0  0  0
  -30.8491  -14.9407   19.9312 O   0  0  0  0  0  0  0  0  0  0  0  0
  -23.0929  -28.5826   23.2021 O   0  0  0  0  0  0  0  0  0  0  0  0
  -20.3308  -28.1695   20.6732 O   0  0  0  0  0  0  0  0  0  0  0  0
  -22.5165  -24.5588   18.5040 O   0  0  0  0  0  0  0  0  0  0  0  0
  -25.6946  -22.3405   17.8011 O   0  0  0  0  0  0  0  0  0  0  0  0
  -25.3019   -9.4804   19.9055 O   0  0  0  0  0  0  0  0  0  0  0  0
  -28.6950  -26.8909   20.1591 O   0  0  0  0  0  0  0  0  0  1  0  0
  -21.1037   -8.3029   23.2808 F   0  0  0  0  0  0  0  0  0  0  0  0
  -25.5796   -7.5982   21.9112 F   0  0  0  0  0  0  0  0  0  0  0  0
  -27.8054  -23.0730   19.1371 F   0  0  0  0  0  0  0  0  0  0  0  0
  -31.6362  -24.8362   16.9619 F   0  0  0  0  0  0  0  0  0  0  0  0
  -29.4376  -21.0602   15.1619 F   0  0  0  0  0  0  0  0  0  0  0  0
  -31.4370  -22.9072   15.0486 F   0  0  0  0  0  0  0  0  0  0  0  0
  1  2  1  0  0  0  0
  1  5  2  0  0  0  0
  2  6  2  0  0  0  0
  3  8  2  0  0  0  0
  3 15  1  0  0  0  0
  4  9  1  0  0  0  0
  4 15  2  0  0  0  0
  5 18  1  0  0  0  0
  6 20  1  0  0  0  0
  7 10  2  0  0  0  0
  7 19  1  0  0  0  0
  8 23  1  0  0  0  0
  9 23  2  0  0  0  0
 10 24  1  0  0  0  0
 11 12  2  0  0  0  0
 11 25  1  0  0  0  0
 12 26  1  0  0  0  0
 13 21  1  0  0  0  0
 13 24  2  0  0  0  0
 14 26  2  0  0  0  0
 14 27  1  0  0  0  0
 15 32  1  0  0  0  0
 16 28  2  0  0  0  0
 16 29  1  0  0  0  0
 16 34  1  0  0  0  0
 17 32  1  0  0  0  0
 17 33  2  0  0  0  0
 17 35  1  0  0  0  0
 18 20  2  0  0  0  0
 18 40  1  0  0  0  0
 19 21  2  0  0  0  0
 19 41  1  0  0  0  0
 20 49  1  0  0  0  0
 21 42  1  0  0  0  0
 22 28  1  0  0  0  0
 22 30  2  0  0  0  0
 22 67  1  0  0  0  0
 23 77  1  0  0  0  0
 24 78  1  0  0  0  0
 25 27  2  0  0  0  0
 25 77  1  0  0  0  0
 26 79  1  0  0  0  0
 27 80  1  0  0  0  0
 28 81  1  0  0  0  0
 29 31  2  0  0  0  0
 29 82  1  0  0  0  0
 30 31  1  0  0  0  0
 30 83  1  0  0  0  0
 31 84  1  0  0  0  0
 32 61  2  0  0  0  0
 33 62  1  0  0  0  0
 33 65  1  0  0  0  0
 34 57  1  0  0  0  0
 34 71  2  0  0  0  0
 35 66  1  0  0  0  0
 35 72  2  0  0  0  0
 36 50  1  0  0  0  0
 36 68  1  0  0  0  0
 36 73  2  0  0  0  0
 37 58  1  0  0  0  0
 37 63  1  0  0  0  0
 37 74  2  0  0  0  0
 38 59  1  0  0  0  0
 38 69  1  0  0  0  0
 38 75  2  0  0  0  0
 39 64  1  0  0  0  0
 39 67  1  0  0  0  0
 39 76  2  0  0  0  0
 40 43  1  0  0  0  0
 41 50  1  0  0  0  0
 42 63  1  0  0  0  0
 43 45  1  0  0  0  0
 44 46  1  0  0  0  0
 44 47  1  0  0  0  0
 45 49  1  0  0  0  0
 46 51  1  0  0  0  0
 47 64  1  0  0  0  0
 48 51  1  0  0  0  0
 48 64  1  0  0  0  0
 49 68  1  0  0  0  0
 50 63  1  0  0  0  0
 51 62  1  0  0  0  0
 52 59  1  0  0  0  0
 53 60  1  0  0  0  0
 54 60  1  0  0  0  0
 55 60  1  0  0  0  0
 56 70  1  0  0  0  0
 57 78  1  0  0  0  0
 58 60  1  0  0  0  0
 58 69  1  0  0  0  0
 59 70  1  0  0  0  0
 61 62  1  0  0  0  0
M  CHG  1  70   1
M  ISO  4  39 100  57 101  67 100  78 101
M  END
> <Batch ID>
0014

> <Smiles>
CNC(C)C(=O)NC(C(=O)N1Cc2cc([101O:1][101CH2:1]C(=O)c3c(F)c(F)c(F)c([100NH:0][100C:0](=O)N4CCCC(n5nc(-c6ccc(Oc7ccc(F)cc7F)cc6)c(C(N)=O)c5N)C4)c3F)ccc2CC1C(=O)NC1CCCc2ccccc21)C(C)(C)C

> <Shape>
0.268

> <Color>
0.110

> <Negative vol penalty>
0.000

$$$$

  -OEChem-04052315533D

 86 93  0     1  0  0  0  0  0999 V2000
  -25.3061  -25.6832   18.7955 C   0  0  0  0  0  0  0  0  0  0  0  0
  -25.0894  -24.3103   18.7357 C   0  0  0  0  0  0  0  0  0  0  0  0
  -21.1914  -25.9752   23.2765 C   0  0  0  0  0  0  0  0  0  0  0  0
  -23.5614  -25.5130   23.1946 C   0  0  0  0  0  0  0  0  0  0  0  0
  -26.6011  -26.1775   18.9461 C   0  0  0  0  0  0  0  0  0  0  0  0
  -26.1678  -23.4308   18.8252 C   0  0  0  0  0  0  0  0  0  0  0  0
  -25.2484  -19.5395   21.9328 C   0  0  0  0  0  0  0  0  0  0  0  0
  -21.4566  -27.3437   23.2263 C   0  0  0  0  0  0  0  0  0  0  0  0
  -23.8265  -26.8815   23.1443 C   0  0  0  0  0  0  0  0  0  0  0  0
  -24.4547  -18.5047   21.4398 C   0  0  0  0  0  0  0  0  0  0  0  0
  -23.7725  -29.3441   20.8306 C   0  0  0  0  0  0  0  0  0  0  0  0
  -24.7169  -29.7861   19.9041 C   0  0  0  0  0  0  0  0  0  0  0  0
  -26.4370  -17.2033   20.9971 C   0  0  0  0  0  0  0  0  0  0  0  0
  -26.0591  -30.6843   21.7010 C   0  0  0  0  0  0  0  0  0  0  0  0
  -22.2439  -25.0598   23.2608 C   0  0  0  0  0  0  0  0  0  0  0  0
  -21.7642  -22.7791   22.2235 C   0  0  0  0  0  0  0  0  0  0  0  0
  -27.6949  -25.3034   19.0472 C   0  0  0  0  0  0  0  0  0  0  0  0
  -26.6453  -19.4181   21.9515 C   0  0  0  0  0  0  0  0  0  0  0  0
  -27.4788  -23.9139   18.9759 C   0  0  0  0  0  0  0  0  0  0  0  0
  -27.2460  -18.2370   21.4932 C   0  0  0  0  0  0  0  0  0  0  0  0
  -22.7741  -27.7969   23.1601 C   0  0  0  0  0  0  0  0  0  0  0  0
  -25.0491  -17.3375   20.9691 C   0  0  0  0  0  0  0  0  0  0  0  0
  -23.9713  -29.5723   22.1922 C   0  0  0  0  0  0  0  0  0  0  0  0
  -25.8602  -30.4562   20.3393 C   0  0  0  0  0  0  0  0  0  0  0  0
  -25.1147  -30.2424   22.6274 C   0  0  0  0  0  0  0  0  0  0  0  0
  -21.9707  -23.6461   23.3132 C   0  0  0  0  0  0  0  0  0  0  0  0
  -21.5454  -21.5511   22.7984 C   0  0  0  0  0  0  0  0  0  0  0  0
  -21.7697  -23.0589   20.8173 C   0  0  0  0  0  0  0  0  0  0  0  0
  -29.0515  -20.9844   20.5875 C   0  0  0  0  0  0  0  0  0  0  0  0
  -23.0462  -11.0518   22.4657 C   0  0  0  0  0  0  0  0  0  0  0  0
  -30.8602  -19.0414   22.4518 C   0  0  0  0  0  0  0  0  0  0  0  0
  -23.6056  -14.0345   20.7600 C   0  0  0  0  0  0  0  0  0  0  0  0
  -31.1256  -16.1118   24.1821 C   0  0  0  0  0  0  0  0  0  0  0  0
  -22.8539  -17.6302   26.5480 C   0  0  0  0  0  0  0  0  0  0  0  0
  -29.0814  -25.8857   19.1615 C   0  0  0  0  0  0  0  0  0  0  0  0
  -27.4859  -20.5327   22.5113 C   0  0  0  0  0  0  0  0  0  0  0  0
  -28.7403  -18.0488   21.5105 C   0  0  0  0  0  0  0  0  0  0  0  0
  -30.1293  -24.8772   19.6251 C   0  0  0  0  0  0  0  0  0  0  0  0
  -20.7252  -20.2738   27.6235 C   0  0  0  0  0  0  0  0  0  0  0  0
  -29.9911  -23.5699   18.8514 C   0  0  0  0  0  0  0  0  0  0  0  0
  -20.8474  -21.3172   26.5117 C   0  0  0  0  0  0  0  0  0  0  0  0
  -22.0517  -19.5609   27.8768 C   0  0  0  0  0  0  0  0  0  0  0  0
  -22.7924  -20.0035   25.5683 C   0  0  0  0  0  0  0  0  0  0  0  0
  -28.6202  -22.9273   19.0943 C   0  0  1  0  0  0  0  0  0  0  0  0
  -28.9254  -20.5069   22.0066 C   0  0  1  0  0  0  0  0  0  0  0  0
  -21.4663  -20.7099   25.2383 C   0  0  2  0  0  0  0  0  0  0  0  0
  -22.8587  -11.1626   18.5542 C   0  0  0  0  0  0  0  0  0  0  0  0
  -32.7384  -14.7847   25.5731 C   0  0  0  0  0  0  0  0  0  0  0  0
  -32.3633  -18.2245   19.9253 C   0  0  0  0  0  0  0  0  0  0  0  0
  -33.2720  -16.2607   21.1847 C   0  0  0  0  0  0  0  0  0  0  0  0
  -33.8122  -18.5783   21.9328 C   0  0  0  0  0  0  0  0  0  0  0  0
  -25.3225  -12.2078   20.9613 C   0  0  0  0  0  0  0  0  0  0  0  0
  -29.3434  -16.2021   26.5432 C   0  0  0  0  0  0  0  0  0  0  0  0
  -21.8797  -11.3046   23.4107 C   0  0  0  0  0  0  0  0  0  0  0  0
  -24.7631  -15.0015   20.6268 C   0  0  0  0  0  0  0  0  0  1  0  0
  -22.9826  -10.6047   19.9672 C   0  0  0  0  0  0  0  0  0  0  0  0
  -21.5825  -12.7877   23.6317 C   0  0  0  0  0  0  0  0  0  0  0  0
  -22.7811  -13.5356   24.2258 C   0  0  0  0  0  0  0  0  0  0  0  0
  -22.4860  -15.0077   24.5371 C   0  0  0  0  0  0  0  0  0  0  0  0
  -23.6702  -15.7964   25.0886 C   0  0  0  0  0  0  0  0  0  0  0  0
  -22.9234  -11.6596   21.0726 C   0  0  2  0  0  0  0  0  0  0  0  0
  -31.4780  -17.6738   22.2873 C   0  0  1  0  0  0  0  0  0  0  0  0
  -31.6176  -15.8125   25.5867 C   0  0  2  0  0  0  0  0  0  0  0  0
  -32.7033  -17.6884   21.3303 C   0  0  0  0  0  0  0  0  0  0  0  0
  -21.8902  -23.0217   24.4913 N   0  0  0  0  0  0  0  0  0  0  0  0
  -21.6305  -21.7494   24.1451 N   0  0  0  0  0  0  0  0  0  0  0  0
  -29.5196  -19.1697   22.0616 N   0  0  0  0  0  0  0  0  0  0  0  0
  -22.5843  -19.0063   26.6299 N   0  0  0  0  0  0  0  0  0  0  0  0
  -21.2904  -20.3317   22.2782 N   0  0  0  0  0  0  0  0  0  0  0  0
  -22.0110  -24.3745   20.3987 N   0  0  0  0  0  0  0  0  0  0  0  0
  -28.5909  -22.2712   20.3839 N   0  0  0  0  0  0  0  0  0  0  0  0
  -31.7766  -17.1962   23.6331 N   0  0  0  0  0  0  0  0  0  0  0  0
  -23.3506  -17.1860   25.3287 N   0  0  0  0  0  0  0  0  0  0  0  0
  -23.9325  -12.6754   20.9264 N   0  0  0  0  0  0  0  0  0  0  0  0
  -30.5042  -15.2827   26.4237 N   0  3  0  0  0  0  0  0  0  0  0  0
  -21.5503  -22.1717   19.9580 O   0  0  0  0  0  0  0  0  0  0  0  0
  -29.5325  -20.2410   19.7404 O   0  0  0  0  0  0  0  0  0  0  0  0
  -24.0318  -10.3967   22.8052 O   0  0  0  0  0  0  0  0  0  0  0  0
  -31.5397  -19.9601   22.9164 O   0  0  0  0  0  0  0  0  0  0  0  0
  -22.4541  -14.4790   20.7238 O   0  0  0  0  0  0  0  0  0  0  0  0
  -30.2538  -15.4475   23.6261 O   0  0  0  0  0  0  0  0  0  0  0  0
  -22.6609  -16.8540   27.4899 O   0  0  0  0  0  0  0  0  0  0  0  0
  -23.0332  -29.1321   23.1108 O   0  0  0  0  0  0  0  0  0  0  0  0
  -24.2687  -16.3156   20.4817 O   0  0  0  0  0  0  0  0  0  1  0  0
  -26.7678  -30.8792   19.4497 F   0  0  0  0  0  0  0  0  0  0  0  0
  -25.3118  -30.4634   23.9344 F   0  0  0  0  0  0  0  0  0  0  0  0
  1  2  1  0  0  0  0
  1  5  2  0  0  0  0
  2  6  2  0  0  0  0
  3  8  2  0  0  0  0
  3 15  1  0  0  0  0
  4  9  1  0  0  0  0
  4 15  2  0  0  0  0
  5 17  1  0  0  0  0
  6 19  1  0  0  0  0
  7 10  2  0  0  0  0
  7 18  1  0  0  0  0
  8 21  1  0  0  0  0
  9 21  2  0  0  0  0
 10 22  1  0  0  0  0
 11 12  2  0  0  0  0
 11 23  1  0  0  0  0
 12 24  1  0  0  0  0
 13 20  1  0  0  0  0
 13 22  2  0  0  0  0
 14 24  2  0  0  0  0
 14 25  1  0  0  0  0
 15 26  1  0  0  0  0
 16 26  1  0  0  0  0
 16 27  2  0  0  0  0
 16 28  1  0  0  0  0
 17 19  2  0  0  0  0
 17 35  1  0  0  0  0
 18 20  2  0  0  0  0
 18 36  1  0  0  0  0
 19 44  1  0  0  0  0
 20 37  1  0  0  0  0
 21 83  1  0  0  0  0
 22 84  1  0  0  0  0
 23 25  2  0  0  0  0
 23 83  1  0  0  0  0
 24 85  1  0  0  0  0
 25 86  1  0  0  0  0
 26 65  2  0  0  0  0
 27 66  1  0  0  0  0
 27 69  1  0  0  0  0
 28 70  1  0  0  0  0
 28 76  2  0  0  0  0
 29 45  1  0  0  0  0
 29 71  1  0  0  0  0
 29 77  2  0  0  0  0
 30 54  1  0  0  0  0
 30 61  1  0  0  0  0
 30 78  2  0  0  0  0
 31 62  1  0  0  0  0
 31 67  1  0  0  0  0
 31 79  2  0  0  0  0
 32 55  1  0  0  0  0
 32 74  1  0  0  0  0
 32 80  2  0  0  0  0
 33 63  1  0  0  0  0
 33 72  1  0  0  0  0
 33 81  2  0  0  0  0
 34 68  1  0  0  0  0
 34 73  1  0  0  0  0
 34 82  2  0  0  0  0
 35 38  1  0  0  0  0
 36 45  1  0  0  0  0
 37 67  1  0  0  0  0
 38 40  1  0  0  0  0
 39 41  1  0  0  0  0
 39 42  1  0  0  0  0
 40 44  1  0  0  0  0
 41 46  1  0  0  0  0
 42 68  1  0  0  0  0
 43 46  1  0  0  0  0
 43 68  1  0  0  0  0
 44 71  1  0  0  0  0
 45 67  1  0  0  0  0
 46 66  1  0  0  0  0
 47 56  1  0  0  0  0
 48 63  1  0  0  0  0
 49 64  1  0  0  0  0
 50 64  1  0  0  0  0
 51 64  1  0  0  0  0
 52 74  1  0  0  0  0
 53 75  1  0  0  0  0
 54 57  1  0  0  0  0
 55 84  1  0  0  0  0
 56 61  1  0  0  0  0
 57 58  1  0  0  0  0
 58 59  1  0  0  0  0
 59 60  1  0  0  0  0
 60 73  1  0  0  0  0
 61 74  1  0  0  0  0
 62 64  1  0  0  0  0
 62 72  1  0  0  0  0
 63 75  1  0  0  0  0
 65 66  1  0  0  0  0
M  CHG  1  75   1
M  ISO  4  34 100  55 101  73 100  84 101
M  END
> <Batch ID>
0014

> <Smiles>
CCC(C(=O)CCCCC[100NH:0][100C:0](=O)N1CCCC(n2nc(-c3ccc(Oc4ccc(F)cc4F)cc3)c(C(N)=O)c2N)C1)N(C)C(=O)[101CH2:1][101O:1]c1ccc2c(c1)CN(C(=O)C(NC(=O)C(C)NC)C(C)(C)C)C(C(=O)NC1CCCc3ccccc31)C2

> <Shape>
0.184

> <Color>
0.068

> <Negative vol penalty>
0.000

$$$$

  -OEChem-04052315533D

 85 93  0     1  0  0  0  0  0999 V2000
  -30.5473  -29.8757   11.1276 C   0  0  0  0  0  0  0  0  0  0  0  0
  -30.6118  -29.4701   12.4568 C   0  0  0  0  0  0  0  0  0  0  0  0
  -23.0949   -9.8792   19.9246 C   0  0  0  0  0  0  0  0  0  0  0  0
  -23.8570   -9.8717   22.2173 C   0  0  0  0  0  0  0  0  0  0  0  0
  -29.3364  -29.8148   10.4393 C   0  0  0  0  0  0  0  0  0  0  0  0
  -29.4649  -29.0044   13.0988 C   0  0  0  0  0  0  0  0  0  0  0  0
  -30.3216  -24.8120   15.8073 C   0  0  0  0  0  0  0  0  0  0  0  0
  -22.3601   -8.7183   20.1651 C   0  0  0  0  0  0  0  0  0  0  0  0
  -23.1222   -8.7108   22.4578 C   0  0  0  0  0  0  0  0  0  0  0  0
  -30.9422  -24.9698   17.0457 C   0  0  0  0  0  0  0  0  0  0  0  0
  -19.9008   -7.8831   23.0562 C   0  0  0  0  0  0  0  0  0  0  0  0
  -19.1453   -7.8270   24.2274 C   0  0  0  0  0  0  0  0  0  0  0  0
  -28.7978  -24.7910   18.1361 C   0  0  0  0  0  0  0  0  0  0  0  0
  -30.0977  -19.2874   20.3975 C   0  0  0  0  0  0  0  0  0  0  0  0
  -30.8079  -19.1737   22.7039 C   0  0  0  0  0  0  0  0  0  0  0  0
  -20.4022   -5.8927   24.9455 C   0  0  0  0  0  0  0  0  0  0  0  0
  -23.8434  -10.4560   20.9507 C   0  0  0  0  0  0  0  0  0  0  0  0
  -24.1659  -12.9846   20.8527 C   0  0  0  0  0  0  0  0  0  0  0  0
  -28.1762  -29.3390   11.0704 C   0  0  0  0  0  0  0  0  0  0  0  0
  -28.9309  -24.6532   15.7230 C   0  0  0  0  0  0  0  0  0  0  0  0
  -28.2370  -28.9383   12.4188 C   0  0  0  0  0  0  0  0  0  0  0  0
  -28.1624  -24.6289   16.8956 C   0  0  0  0  0  0  0  0  0  0  0  0
  -30.5315  -19.9235   21.5606 C   0  0  0  0  0  0  0  0  0  0  0  0
  -29.9401  -17.9016   20.3777 C   0  0  0  0  0  0  0  0  0  0  0  0
  -30.6503  -17.7879   22.6841 C   0  0  0  0  0  0  0  0  0  0  0  0
  -30.2164  -17.1518   21.5210 C   0  0  0  0  0  0  0  0  0  0  0  0
  -22.3737   -8.1341   21.4316 C   0  0  0  0  0  0  0  0  0  0  0  0
  -30.1799  -24.9623   18.2102 C   0  0  0  0  0  0  0  0  0  0  0  0
  -20.9069   -6.9439   22.8296 C   0  0  0  0  0  0  0  0  0  0  0  0
  -19.3960   -6.8319   25.1721 C   0  0  0  0  0  0  0  0  0  0  0  0
  -21.1576   -5.9487   23.7743 C   0  0  0  0  0  0  0  0  0  0  0  0
  -24.6032  -11.6549   20.7028 C   0  0  0  0  0  0  0  0  0  0  0  0
  -25.2519  -13.7456   20.4951 C   0  0  0  0  0  0  0  0  0  0  0  0
  -22.8919  -13.4870   21.2774 C   0  0  0  0  0  0  0  0  0  0  0  0
  -26.5614  -26.3020   14.3925 C   0  0  0  0  0  0  0  0  0  0  0  0
  -32.2167  -23.0891   20.8894 C   0  0  0  0  0  0  0  0  0  0  0  0
  -24.7840  -23.7555   15.3296 C   0  0  0  0  0  0  0  0  0  0  0  0
  -24.4135  -21.1011   17.4424 C   0  0  0  0  0  0  0  0  0  0  0  0
  -30.7102  -14.8313   20.6740 C   0  0  0  0  0  0  0  0  0  0  0  0
  -26.8798  -29.3360   10.2996 C   0  0  0  0  0  0  0  0  0  0  0  0
  -28.2799  -24.4574   14.3813 C   0  0  0  0  0  0  0  0  0  0  0  0
  -26.6684  -24.4412   16.8607 C   0  0  0  0  0  0  0  0  0  0  0  0
  -25.7921  -28.4778   10.9405 C   0  0  0  0  0  0  0  0  0  0  0  0
  -29.6118  -12.4300   18.2855 C   0  0  0  0  0  0  0  0  0  0  0  0
  -25.7047  -28.7569   12.4375 C   0  0  0  0  0  0  0  0  0  0  0  0
  -28.1749  -12.1237   18.7138 C   0  0  0  0  0  0  0  0  0  0  0  0
  -30.5264  -12.6552   19.4882 C   0  0  0  0  0  0  0  0  0  0  0  0
  -28.6153  -13.3528   20.8776 C   0  0  0  0  0  0  0  0  0  0  0  0
  -27.0201  -28.4039   13.1423 C   0  0  1  0  0  0  0  0  0  0  0  0
  -26.7976  -24.8182   14.3781 C   0  0  1  0  0  0  0  0  0  0  0  0
  -27.6427  -13.1826   19.6992 C   0  0  2  0  0  0  0  0  0  0  0  0
  -29.4732  -17.2489   19.1168 C   0  0  0  0  0  0  0  0  0  0  0  0
  -30.9548  -17.0116   23.9246 C   0  0  0  0  0  0  0  0  0  0  0  0
  -33.4449  -23.6720   20.2306 C   0  0  0  0  0  0  0  0  0  0  0  0
  -23.4087  -19.0114   18.4018 C   0  0  0  0  0  0  0  0  0  0  0  0
  -22.9267  -25.7275   16.7339 C   0  0  0  0  0  0  0  0  0  0  0  0
  -21.9677  -23.8032   18.0168 C   0  0  0  0  0  0  0  0  0  0  0  0
  -21.7600  -23.8705   15.5318 C   0  0  0  0  0  0  0  0  0  0  0  0
  -26.0015  -19.3715   15.6407 C   0  0  0  0  0  0  0  0  0  0  0  0
  -30.7010  -21.4168   21.5820 C   0  0  0  0  0  0  0  0  0  0  0  0
  -31.2366  -24.0561   21.5313 C   0  0  0  0  0  0  0  0  0  0  0  0
  -30.1658  -24.4817   20.5393 C   0  0  0  0  0  0  0  0  0  1  0  0
  -24.0125  -23.3904   16.5748 C   0  0  1  0  0  0  0  0  0  0  0  0
  -24.0558  -19.6489   17.1822 C   0  0  2  0  0  0  0  0  0  0  0  0
  -22.6946  -24.2034   16.7152 C   0  0  0  0  0  0  0  0  0  0  0  0
  -25.8683  -11.5724   20.2825 N   0  0  0  0  0  0  0  0  0  0  0  0
  -31.9207  -21.8332   20.9073 N   0  0  0  0  0  0  0  0  0  0  0  0
  -26.2353  -12.8599   20.1652 N   0  0  0  0  0  0  0  0  0  0  0  0
  -26.0775  -24.2601   15.5245 N   0  0  0  0  0  0  0  0  0  0  0  0
  -29.9604  -13.6739   20.3752 N   0  0  0  0  0  0  0  0  0  0  0  0
  -25.4521  -15.0792   20.4337 N   0  0  0  0  0  0  0  0  0  0  0  0
  -21.8873  -12.5672   21.6075 N   0  0  0  0  0  0  0  0  0  0  0  0
  -30.0566  -15.7441   21.5011 N   0  0  0  0  0  0  0  0  0  0  0  0
  -27.1273  -26.9722   13.3247 N   0  0  0  0  0  0  0  0  0  0  0  0
  -23.8207  -21.9450   16.5271 N   0  0  0  0  0  0  0  0  0  0  0  0
  -25.2774  -18.8685   16.8364 N   0  3  0  0  0  0  0  0  0  0  0  0
  -22.6464  -14.7152   21.3458 O   0  0  0  0  0  0  0  0  0  0  0  0
  -25.9125  -26.8017   15.3040 O   0  0  0  0  0  0  0  0  0  0  0  0
  -24.2609  -23.5921   14.2245 O   0  0  0  0  0  0  0  0  0  0  0  0
  -25.1427  -21.4521   18.3674 O   0  0  0  0  0  0  0  0  0  0  0  0
  -31.8375  -15.0127   20.2068 O   0  0  0  0  0  0  0  0  0  0  0  0
  -21.6566   -7.0013   21.6667 O   0  0  0  0  0  0  0  0  0  0  0  0
  -30.7830  -25.1167   19.4203 O   0  0  0  0  0  0  0  0  0  1  0  0
  -18.6715   -6.7791   26.2974 F   0  0  0  0  0  0  0  0  0  0  0  0
  -22.1237   -5.0444   23.5627 F   0  0  0  0  0  0  0  0  0  0  0  0
  1  2  1  0  0  0  0
  1  5  2  0  0  0  0
  2  6  2  0  0  0  0
  3  8  2  0  0  0  0
  3 17  1  0  0  0  0
  4  9  1  0  0  0  0
  4 17  2  0  0  0  0
  5 19  1  0  0  0  0
  6 21  1  0  0  0  0
  7 10  2  0  0  0  0
  7 20  1  0  0  0  0
  8 27  1  0  0  0  0
  9 27  2  0  0  0  0
 10 28  1  0  0  0  0
 11 12  2  0  0  0  0
 11 29  1  0  0  0  0
 12 30  1  0  0  0  0
 13 22  1  0  0  0  0
 13 28  2  0  0  0  0
 14 23  1  0  0  0  0
 14 24  2  0  0  0  0
 15 23  2  0  0  0  0
 15 25  1  0  0  0  0
 16 30  2  0  0  0  0
 16 31  1  0  0  0  0
 17 32  1  0  0  0  0
 18 32  1  0  0  0  0
 18 33  2  0  0  0  0
 18 34  1  0  0  0  0
 19 21  2  0  0  0  0
 19 40  1  0  0  0  0
 20 22  2  0  0  0  0
 20 41  1  0  0  0  0
 21 49  1  0  0  0  0
 22 42  1  0  0  0  0
 23 60  1  0  0  0  0
 24 26  1  0  0  0  0
 24 52  1  0  0  0  0
 25 26  2  0  0  0  0
 25 53  1  0  0  0  0
 26 73  1  0  0  0  0
 27 82  1  0  0  0  0
 28 83  1  0  0  0  0
 29 31  2  0  0  0  0
 29 82  1  0  0  0  0
 30 84  1  0  0  0  0
 31 85  1  0  0  0  0
 32 66  2  0  0  0  0
 33 68  1  0  0  0  0
 33 71  1  0  0  0  0
 34 72  1  0  0  0  0
 34 77  2  0  0  0  0
 35 50  1  0  0  0  0
 35 74  1  0  0  0  0
 35 78  2  0  0  0  0
 36 54  1  0  0  0  0
 36 61  1  0  0  0  0
 36 67  2  0  0  0  0
 37 63  1  0  0  0  0
 37 69  1  0  0  0  0
 37 79  2  0  0  0  0
 38 64  1  0  0  0  0
 38 75  1  0  0  0  0
 38 80  2  0  0  0  0
 39 70  1  0  0  0  0
 39 73  1  0  0  0  0
 39 81  2  0  0  0  0
 40 43  1  0  0  0  0
 41 50  1  0  0  0  0
 42 69  1  0  0  0  0
 43 45  1  0  0  0  0
 44 46  1  0  0  0  0
 44 47  1  0  0  0  0
 45 49  1  0  0  0  0
 46 51  1  0  0  0  0
 47 70  1  0  0  0  0
 48 51  1  0  0  0  0
 48 70  1  0  0  0  0
 49 74  1  0  0  0  0
 50 69  1  0  0  0  0
 51 68  1  0  0  0  0
 55 64  1  0  0  0  0
 56 65  1  0  0  0  0
 57 65  1  0  0  0  0
 58 65  1  0  0  0  0
 59 76  1  0  0  0  0
 60 67  1  0  0  0  0
 61 62  1  0  0  0  0
 62 83  1  0  0  0  0
 63 65  1  0  0  0  0
 63 75  1  0  0  0  0
 64 76  1  0  0  0  0
 66 68  1  0  0  0  0
M  CHG  1  76   1
M  ISO  4  39 100  62 101  73 100  83 101
M  END
> <Batch ID>
0014

> <Smiles>
C=C(C[101CH2:1][101O:1]c1ccc2c(c1)CN(C(=O)C(NC(=O)C(C)NC)C(C)(C)C)C(C(=O)NC1CCCc3ccccc31)C2)NCc1cc(C)c([100NH:0][100C:0](=O)N2CCCC(n3nc(-c4ccc(Oc5ccc(F)cc5F)cc4)c(C(N)=O)c3N)C2)c(C)c1

> <Shape>
0.223

> <Color>
0.221

> <Negative vol penalty>
0.000

$$$$

  -OEChem-04052315533D

 86 94  0     1  0  0  0  0  0999 V2000
  -16.3382  -29.3407   23.1286 C   0  0  0  0  0  0  0  0  0  0  0  0
  -17.2898  -29.8165   22.2323 C   0  0  0  0  0  0  0  0  0  0  0  0
  -27.2290  -11.3342   21.0184 C   0  0  0  0  0  0  0  0  0  0  0  0
  -27.5074  -10.9419   18.6508 C   0  0  0  0  0  0  0  0  0  0  0  0
  -16.7411  -28.7909   24.3448 C   0  0  0  0  0  0  0  0  0  0  0  0
  -18.6451  -29.7438   22.5522 C   0  0  0  0  0  0  0  0  0  0  0  0
  -25.0620  -28.8440   19.4976 C   0  0  0  0  0  0  0  0  0  0  0  0
  -26.2719  -10.3212   21.0738 C   0  0  0  0  0  0  0  0  0  0  0  0
  -26.5502   -9.9287   18.7061 C   0  0  0  0  0  0  0  0  0  0  0  0
  -26.3207  -29.4408   19.4402 C   0  0  0  0  0  0  0  0  0  0  0  0
  -23.0047   -9.9368   20.2976 C   0  0  0  0  0  0  0  0  0  0  0  0
  -21.8319  -10.1925   21.0081 C   0  0  0  0  0  0  0  0  0  0  0  0
  -32.4212  -23.4776   20.6080 C   0  0  0  0  0  0  0  0  0  0  0  0
  -26.9040  -28.3984   21.5360 C   0  0  0  0  0  0  0  0  0  0  0  0
  -30.6409  -24.6675   18.8199 C   0  0  0  0  0  0  0  0  0  0  0  0
  -22.3183   -8.3378   22.4782 C   0  0  0  0  0  0  0  0  0  0  0  0
  -27.8468  -11.6446   19.8069 C   0  0  0  0  0  0  0  0  0  0  0  0
  -31.4470  -22.7051   19.9758 C   0  0  0  0  0  0  0  0  0  0  0  0
  -30.2246  -12.5598   19.9339 C   0  0  0  0  0  0  0  0  0  0  0  0
  -18.1025  -28.7026   24.6757 C   0  0  0  0  0  0  0  0  0  0  0  0
  -24.7104  -28.0273   20.5820 C   0  0  0  0  0  0  0  0  0  0  0  0
  -19.0666  -29.1935   23.7746 C   0  0  0  0  0  0  0  0  0  0  0  0
  -25.6411  -27.7904   21.6036 C   0  0  0  0  0  0  0  0  0  0  0  0
  -32.5052  -24.8452   20.3462 C   0  0  0  0  0  0  0  0  0  0  0  0
  -31.6150  -25.4401   19.4522 C   0  0  0  0  0  0  0  0  0  0  0  0
  -25.9325   -9.6184   19.9177 C   0  0  0  0  0  0  0  0  0  0  0  0
  -27.2409  -29.2203   20.4608 C   0  0  0  0  0  0  0  0  0  0  0  0
  -23.8343   -8.8816   20.6773 C   0  0  0  0  0  0  0  0  0  0  0  0
  -30.5569  -23.3000   19.0817 C   0  0  0  0  0  0  0  0  0  0  0  0
  -21.4887   -9.3930   22.0984 C   0  0  0  0  0  0  0  0  0  0  0  0
  -23.4911   -8.0822   21.7676 C   0  0  0  0  0  0  0  0  0  0  0  0
  -28.8352  -12.6914   19.7489 C   0  0  0  0  0  0  0  0  0  0  0  0
  -30.7137  -13.8340   19.7794 C   0  0  0  0  0  0  0  0  0  0  0  0
  -31.3794  -21.2790   20.2658 C   0  0  0  0  0  0  0  0  0  0  0  0
  -30.3080  -20.6351   20.7722 C   0  0  0  0  0  0  0  0  0  0  0  0
  -31.0034  -11.3905   20.2197 C   0  0  0  0  0  0  0  0  0  0  0  0
  -30.3919  -19.1788   21.0021 C   0  0  0  0  0  0  0  0  0  0  0  0
  -22.4873  -28.1454   22.8509 C   0  0  0  0  0  0  0  0  0  0  0  0
  -23.6416  -25.2057   23.5909 C   0  0  0  0  0  0  0  0  0  0  0  0
  -26.2446  -23.0017   23.4750 C   0  0  0  0  0  0  0  0  0  0  0  0
  -18.4875  -28.1434   26.0224 C   0  0  0  0  0  0  0  0  0  0  0  0
  -23.3582  -27.3694   20.6159 C   0  0  0  0  0  0  0  0  0  0  0  0
  -25.3200  -26.9056   22.7794 C   0  0  0  0  0  0  0  0  0  0  0  0
  -19.9618  -27.7610   26.1244 C   0  0  0  0  0  0  0  0  0  0  0  0
  -28.5102  -18.0363   18.0720 C   0  0  0  0  0  0  0  0  0  0  0  0
  -20.8417  -28.8725   25.5611 C   0  0  0  0  0  0  0  0  0  0  0  0
  -28.5050  -16.5266   18.2967 C   0  0  0  0  0  0  0  0  0  0  0  0
  -28.4490  -18.8104   19.3879 C   0  0  0  0  0  0  0  0  0  0  0  0
  -29.5118  -16.9159   20.5803 C   0  0  0  0  0  0  0  0  0  0  0  0
  -20.5474  -29.1095   24.0750 C   0  0  1  0  0  0  0  0  0  0  0  0
  -22.9230  -26.9701   22.0225 C   0  0  1  0  0  0  0  0  0  0  0  0
  -29.6203  -16.1176   19.2718 C   0  0  1  0  0  0  0  0  0  0  0  0
  -33.5582  -25.6492   21.0372 C   0  0  0  0  0  0  0  0  0  0  0  0
  -27.4730  -20.8320   23.7596 C   0  0  0  0  0  0  0  0  0  0  0  0
  -24.0104  -26.2075   26.4493 C   0  0  0  0  0  0  0  0  0  0  0  0
  -25.5080  -24.2457   26.8696 C   0  0  0  0  0  0  0  0  0  0  0  0
  -23.1152  -23.8795   26.2672 C   0  0  0  0  0  0  0  0  0  0  0  0
  -25.3779  -22.0287   20.8177 C   0  0  0  0  0  0  0  0  0  0  0  0
  -29.9436  -21.9883   17.1951 C   0  0  0  0  0  0  0  0  0  0  0  0
  -30.8039  -29.0555   18.8379 C   0  0  0  0  0  0  0  0  0  0  0  0
  -30.8551  -29.4339   20.3188 C   0  0  0  0  0  0  0  0  0  0  0  0
  -30.5928  -27.5593   18.6216 C   0  0  0  0  0  0  0  0  0  0  0  0
  -29.5477  -29.1013   21.0268 C   0  0  0  0  0  0  0  0  0  1  0  0
  -24.7306  -24.6813   24.4954 C   0  0  1  0  0  0  0  0  0  0  0  0
  -26.3071  -21.5364   23.0833 C   0  0  2  0  0  0  0  0  0  0  0  0
  -24.3467  -24.7718   25.9993 C   0  0  0  0  0  0  0  0  0  0  0  0
  -28.4655  -13.9498   19.4964 N   0  0  0  0  0  0  0  0  0  0  0  0
  -29.6298  -14.6206   19.5217 N   0  0  0  0  0  0  0  0  0  0  0  0
  -29.4887  -18.3607   20.3257 N   0  0  0  0  0  0  0  0  0  0  0  0
  -23.9826  -26.2900   22.7702 N   0  0  0  0  0  0  0  0  0  0  0  0
  -31.9609  -14.3470   19.8403 N   0  0  0  0  0  0  0  0  0  0  0  0
  -30.3417  -10.1615   20.3463 N   0  0  0  0  0  0  0  0  0  0  0  0
  -31.6843  -26.7972   19.1801 N   0  0  0  0  0  0  0  0  0  0  0  0
  -21.1709  -28.0838   23.2665 N   0  0  0  0  0  0  0  0  0  0  0  0
  -25.0279  -23.3292   24.0349 N   0  0  0  0  0  0  0  0  0  0  0  0
  -26.4681  -21.4009   21.6079 N   0  3  0  0  0  0  0  0  0  0  0  0
  -32.2473  -11.4368   20.3749 O   0  0  0  0  0  0  0  0  0  0  0  0
  -31.2548  -18.7753   21.7840 O   0  0  0  0  0  0  0  0  0  0  0  0
  -23.2867  -29.0412   23.0962 O   0  0  0  0  0  0  0  0  0  0  0  0
  -22.5314  -24.6682   23.6068 O   0  0  0  0  0  0  0  0  0  0  0  0
  -27.1828  -23.7772   23.3049 O   0  0  0  0  0  0  0  0  0  0  0  0
  -24.9986   -8.6296   19.9714 O   0  0  0  0  0  0  0  0  0  0  0  0
  -29.5952  -22.5678   18.4501 O   0  0  0  0  0  0  0  0  0  0  0  0
  -28.4699  -29.8021   20.4075 O   0  0  0  0  0  0  0  0  0  1  0  0
  -20.3633   -9.6396   22.7816 F   0  0  0  0  0  0  0  0  0  0  0  0
  -24.2847   -7.0678   22.1378 F   0  0  0  0  0  0  0  0  0  0  0  0
  1  2  1  0  0  0  0
  1  5  2  0  0  0  0
  2  6  2  0  0  0  0
  3  8  2  0  0  0  0
  3 17  1  0  0  0  0
  4  9  1  0  0  0  0
  4 17  2  0  0  0  0
  5 20  1  0  0  0  0
  6 22  1  0  0  0  0
  7 10  2  0  0  0  0
  7 21  1  0  0  0  0
  8 26  1  0  0  0  0
  9 26  2  0  0  0  0
 10 27  1  0  0  0  0
 11 12  2  0  0  0  0
 11 28  1  0  0  0  0
 12 30  1  0  0  0  0
 13 18  2  0  0  0  0
 13 24  1  0  0  0  0
 14 23  1  0  0  0  0
 14 27  2  0  0  0  0
 15 25  1  0  0  0  0
 15 29  2  0  0  0  0
 16 30  2  0  0  0  0
 16 31  1  0  0  0  0
 17 32  1  0  0  0  0
 18 29  1  0  0  0  0
 18 34  1  0  0  0  0
 19 32  1  0  0  0  0
 19 33  2  0  0  0  0
 19 36  1  0  0  0  0
 20 22  2  0  0  0  0
 20 41  1  0  0  0  0
 21 23  2  0  0  0  0
 21 42  1  0  0  0  0
 22 50  1  0  0  0  0
 23 43  1  0  0  0  0
 24 25  2  0  0  0  0
 24 53  1  0  0  0  0
 25 73  1  0  0  0  0
 26 82  1  0  0  0  0
 27 84  1  0  0  0  0
 28 31  2  0  0  0  0
 28 82  1  0  0  0  0
 29 83  1  0  0  0  0
 30 85  1  0  0  0  0
 31 86  1  0  0  0  0
 32 67  2  0  0  0  0
 33 68  1  0  0  0  0
 33 71  1  0  0  0  0
 34 35  2  0  0  0  0
 35 37  1  0  0  0  0
 36 72  1  0  0  0  0
 36 77  2  0  0  0  0
 37 69  1  0  0  0  0
 37 78  2  0  0  0  0
 38 51  1  0  0  0  0
 38 74  1  0  0  0  0
 38 79  2  0  0  0  0
 39 64  1  0  0  0  0
 39 70  1  0  0  0  0
 39 80  2  0  0  0  0
 40 65  1  0  0  0  0
 40 75  1  0  0  0  0
 40 81  2  0  0  0  0
 41 44  1  0  0  0  0
 42 51  1  0  0  0  0
 43 70  1  0  0  0  0
 44 46  1  0  0  0  0
 45 47  1  0  0  0  0
 45 48  1  0  0  0  0
 46 50  1  0  0  0  0
 47 52  1  0  0  0  0
 48 69  1  0  0  0  0
 49 52  1  0  0  0  0
 49 69  1  0  0  0  0
 50 74  1  0  0  0  0
 51 70  1  0  0  0  0
 52 68  1  0  0  0  0
 54 65  1  0  0  0  0
 55 66  1  0  0  0  0
 56 66  1  0  0  0  0
 57 66  1  0  0  0  0
 58 76  1  0  0  0  0
 59 83  1  0  0  0  0
 60 61  1  0  0  0  0
 60 62  1  0  0  0  0
 61 63  1  0  0  0  0
 62 73  1  0  0  0  0
 63 84  1  0  0  0  0
 64 66  1  0  0  0  0
 64 75  1  0  0  0  0
 65 76  1  0  0  0  0
 67 68  1  0  0  0  0
M  CHG  1  76   1
M  ISO  4  35 100  37 100  63 101  84 101
M  END
> <Batch ID>
0014

> <Smiles>
CNC(C)C(=O)NC(C(=O)N1Cc2cc([101O:1][101CH2:1]CCCNc3cc(OC)c(C=[100CH:0][100C:0](=O)N4CCCC(n5nc(-c6ccc(Oc7ccc(F)cc7F)cc6)c(C(N)=O)c5N)C4)cc3C)ccc2CC1C(=O)NC1CCCc2ccccc21)C(C)(C)C

> <Shape>
0.244

> <Color>
0.104

> <Negative vol penalty>
0.000

$$$$

  -OEChem-04052315533D

 85 93  0     1  0  0  0  0  0999 V2000
  -21.1423  -22.0994   36.4142 C   0  0  0  0  0  0  0  0  0  0  0  0
  -22.3501  -21.9782   35.7345 C   0  0  0  0  0  0  0  0  0  0  0  0
  -23.1528   -9.8658   19.9619 C   0  0  0  0  0  0  0  0  0  0  0  0
  -23.8255   -9.9636   22.2802 C   0  0  0  0  0  0  0  0  0  0  0  0
  -20.3657  -20.9680   36.6605 C   0  0  0  0  0  0  0  0  0  0  0  0
  -22.7825  -20.7251   35.3016 C   0  0  0  0  0  0  0  0  0  0  0  0
  -25.9264  -19.4767   30.1964 C   0  0  0  0  0  0  0  0  0  0  0  0
  -22.4396   -8.6948   20.2182 C   0  0  0  0  0  0  0  0  0  0  0  0
  -23.1123   -8.7926   22.5366 C   0  0  0  0  0  0  0  0  0  0  0  0
  -27.2835  -19.2624   29.9594 C   0  0  0  0  0  0  0  0  0  0  0  0
  -23.5364   -5.4685   22.0879 C   0  0  0  0  0  0  0  0  0  0  0  0
  -24.1590   -4.4859   22.8576 C   0  0  0  0  0  0  0  0  0  0  0  0
  -26.9265  -16.8810   30.1046 C   0  0  0  0  0  0  0  0  0  0  0  0
  -32.2551  -17.4739   23.5787 C   0  0  0  0  0  0  0  0  0  0  0  0
  -22.3899   -4.6477   24.4951 C   0  0  0  0  0  0  0  0  0  0  0  0
  -23.8458  -10.5002   20.9929 C   0  0  0  0  0  0  0  0  0  0  0  0
  -24.1061  -13.0314   20.8114 C   0  0  0  0  0  0  0  0  0  0  0  0
  -20.7841  -19.7018   36.2219 C   0  0  0  0  0  0  0  0  0  0  0  0
  -25.0597  -18.3934   30.4005 C   0  0  0  0  0  0  0  0  0  0  0  0
  -22.0113  -19.5755   35.5434 C   0  0  0  0  0  0  0  0  0  0  0  0
  -25.5584  -17.0842   30.3415 C   0  0  0  0  0  0  0  0  0  0  0  0
  -31.5787  -16.6218   22.7057 C   0  0  0  0  0  0  0  0  0  0  0  0
  -32.0391  -15.8375   25.3430 C   0  0  0  0  0  0  0  0  0  0  0  0
  -31.1325  -15.3777   23.1513 C   0  0  0  0  0  0  0  0  0  0  0  0
  -22.4193   -8.1582   21.5056 C   0  0  0  0  0  0  0  0  0  0  0  0
  -27.7843  -17.9645   29.9163 C   0  0  0  0  0  0  0  0  0  0  0  0
  -22.3406   -6.0408   22.5218 C   0  0  0  0  0  0  0  0  0  0  0  0
  -23.5857   -4.0754   24.0611 C   0  0  0  0  0  0  0  0  0  0  0  0
  -32.4853  -17.0817   24.8974 C   0  0  0  0  0  0  0  0  0  0  0  0
  -21.7673   -5.6304   23.7254 C   0  0  0  0  0  0  0  0  0  0  0  0
  -31.3627  -14.9855   24.4700 C   0  0  0  0  0  0  0  0  0  0  0  0
  -24.5832  -11.7095   20.7285 C   0  0  0  0  0  0  0  0  0  0  0  0
  -25.1850  -13.8081   20.4664 C   0  0  0  0  0  0  0  0  0  0  0  0
  -22.8040  -13.5140   21.1684 C   0  0  0  0  0  0  0  0  0  0  0  0
  -23.2182  -17.4150   32.7996 C   0  0  0  0  0  0  0  0  0  0  0  0
  -22.2378  -15.2090   30.6330 C   0  0  0  0  0  0  0  0  0  0  0  0
  -30.7452  -16.7243   28.2302 C   0  0  0  0  0  0  0  0  0  0  0  0
  -22.9121  -13.4346   27.7968 C   0  0  0  0  0  0  0  0  0  0  0  0
  -30.9280  -14.0036   21.0498 C   0  0  0  0  0  0  0  0  0  0  0  0
  -19.9334  -18.5012   36.5530 C   0  0  0  0  0  0  0  0  0  0  0  0
  -23.5936  -18.6404   30.6286 C   0  0  0  0  0  0  0  0  0  0  0  0
  -24.6661  -15.8862   30.5341 C   0  0  0  0  0  0  0  0  0  0  0  0
  -20.2826  -17.2624   35.7323 C   0  0  0  0  0  0  0  0  0  0  0  0
  -29.3957  -13.0212   17.9897 C   0  0  0  0  0  0  0  0  0  0  0  0
  -21.7930  -17.0510   35.7010 C   0  0  0  0  0  0  0  0  0  0  0  0
  -27.9515  -12.7117   18.3904 C   0  0  0  0  0  0  0  0  0  0  0  0
  -30.3875  -12.5992   19.0723 C   0  0  0  0  0  0  0  0  0  0  0  0
  -28.6590  -12.8154   20.8143 C   0  0  0  0  0  0  0  0  0  0  0  0
  -22.5024  -18.2369   35.0363 C   0  0  1  0  0  0  0  0  0  0  0  0
  -22.8951  -17.4819   31.3337 C   0  0  1  0  0  0  0  0  0  0  0  0
  -27.6186  -13.2818   19.7831 C   0  0  2  0  0  0  0  0  0  0  0  0
  -31.3479  -17.0730   21.2994 C   0  0  0  0  0  0  0  0  0  0  0  0
  -21.9354  -11.6800   26.2920 C   0  0  0  0  0  0  0  0  0  0  0  0
  -22.9207  -13.0649   32.6937 C   0  0  0  0  0  0  0  0  0  0  0  0
  -22.8399  -11.3692   30.8534 C   0  0  0  0  0  0  0  0  0  0  0  0
  -20.7928  -12.6679   31.4412 C   0  0  0  0  0  0  0  0  0  0  0  0
  -22.9106  -15.2649   25.4711 C   0  0  0  0  0  0  0  0  0  0  0  0
  -32.3081  -15.4554   26.7698 C   0  0  0  0  0  0  0  0  0  0  0  0
  -29.4662  -16.5424   29.0193 C   0  0  0  0  0  0  0  0  0  1  0  0
  -22.6911  -13.8246   30.2368 C   0  0  1  0  0  0  0  0  0  0  0  0
  -22.0833  -13.1709   26.5527 C   0  0  2  0  0  0  0  0  0  0  0  0
  -22.3285  -12.7541   31.3045 C   0  0  0  0  0  0  0  0  0  0  0  0
  -25.8653  -11.6463   20.3597 N   0  0  0  0  0  0  0  0  0  0  0  0
  -26.2031  -12.9381   20.2076 N   0  0  0  0  0  0  0  0  0  0  0  0
  -23.2413  -16.1798   30.7603 N   0  0  0  0  0  0  0  0  0  0  0  0
  -30.0110  -13.1801   20.3629 N   0  0  0  0  0  0  0  0  0  0  0  0
  -25.3528  -15.1435   20.3621 N   0  0  0  0  0  0  0  0  0  0  0  0
  -21.8116  -12.5798   21.4951 N   0  0  0  0  0  0  0  0  0  0  0  0
  -30.4473  -14.5254   22.2503 N   0  0  0  0  0  0  0  0  0  0  0  0
  -22.3719  -18.1617   33.5970 N   0  0  0  0  0  0  0  0  0  0  0  0
  -31.1223  -15.5548   27.5889 N   0  0  0  0  0  0  0  0  0  0  0  0
  -22.1212  -13.5702   28.9181 N   0  0  0  0  0  0  0  0  0  0  0  0
  -22.7248  -13.7950   25.3611 N   0  3  0  0  0  0  0  0  0  0  0  0
  -22.5242  -14.7367   21.1810 O   0  0  0  0  0  0  0  0  0  0  0  0
  -24.1644  -16.7351   33.1793 O   0  0  0  0  0  0  0  0  0  0  0  0
  -21.0367  -15.4229   30.8156 O   0  0  0  0  0  0  0  0  0  0  0  0
  -31.3520  -17.7910   28.1851 O   0  0  0  0  0  0  0  0  0  0  0  0
  -24.1388  -13.5089   27.7767 O   0  0  0  0  0  0  0  0  0  0  0  0
  -32.0467  -14.2513   20.5925 O   0  0  0  0  0  0  0  0  0  0  0  0
  -21.7233   -7.0157   21.7562 O   0  0  0  0  0  0  0  0  0  0  0  0
  -29.1086  -17.7525   29.6857 O   0  0  0  0  0  0  0  0  0  1  0  0
  -24.1829   -3.1307   24.7994 F   0  0  0  0  0  0  0  0  0  0  0  0
  -33.1359  -17.9088   25.7278 F   0  0  0  0  0  0  0  0  0  0  0  0
  -20.6181   -6.1756   24.1469 F   0  0  0  0  0  0  0  0  0  0  0  0
  -30.8113  -13.4405   25.0334 Cl  0  0  0  0  0  0  0  0  0  0  0  0
  1  2  1  0  0  0  0
  1  5  2  0  0  0  0
  2  6  2  0  0  0  0
  3  8  2  0  0  0  0
  3 16  1  0  0  0  0
  4  9  1  0  0  0  0
  4 16  2  0  0  0  0
  5 18  1  0  0  0  0
  6 20  1  0  0  0  0
  7 10  2  0  0  0  0
  7 19  1  0  0  0  0
  8 25  1  0  0  0  0
  9 25  2  0  0  0  0
 10 26  1  0  0  0  0
 11 12  2  0  0  0  0
 11 27  1  0  0  0  0
 12 28  1  0  0  0  0
 13 21  1  0  0  0  0
 13 26  2  0  0  0  0
 14 22  1  0  0  0  0
 14 29  2  0  0  0  0
 15 28  2  0  0  0  0
 15 30  1  0  0  0  0
 16 32  1  0  0  0  0
 17 32  1  0  0  0  0
 17 33  2  0  0  0  0
 17 34  1  0  0  0  0
 18 20  2  0  0  0  0
 18 40  1  0  0  0  0
 19 21  2  0  0  0  0
 19 41  1  0  0  0  0
 20 49  1  0  0  0  0
 21 42  1  0  0  0  0
 22 24  2  0  0  0  0
 22 52  1  0  0  0  0
 23 29  1  0  0  0  0
 23 31  2  0  0  0  0
 23 58  1  0  0  0  0
 24 31  1  0  0  0  0
 24 69  1  0  0  0  0
 25 80  1  0  0  0  0
 26 81  1  0  0  0  0
 27 30  2  0  0  0  0
 27 80  1  0  0  0  0
 28 82  1  0  0  0  0
 29 83  1  0  0  0  0
 30 84  1  0  0  0  0
 31 85  1  0  0  0  0
 32 63  2  0  0  0  0
 33 64  1  0  0  0  0
 33 67  1  0  0  0  0
 34 68  1  0  0  0  0
 34 74  2  0  0  0  0
 35 50  1  0  0  0  0
 35 70  1  0  0  0  0
 35 75  2  0  0  0  0
 36 60  1  0  0  0  0
 36 65  1  0  0  0  0
 36 76  2  0  0  0  0
 37 59  1  0  0  0  0
 37 71  1  0  0  0  0
 37 77  2  0  0  0  0
 38 61  1  0  0  0  0
 38 72  1  0  0  0  0
 38 78  2  0  0  0  0
 39 66  1  0  0  0  0
 39 69  1  0  0  0  0
 39 79  2  0  0  0  0
 40 43  1  0  0  0  0
 41 50  1  0  0  0  0
 42 65  1  0  0  0  0
 43 45  1  0  0  0  0
 44 46  1  0  0  0  0
 44 47  1  0  0  0  0
 45 49  1  0  0  0  0
 46 51  1  0  0  0  0
 47 66  1  0  0  0  0
 48 51  1  0  0  0  0
 48 66  1  0  0  0  0
 49 70  1  0  0  0  0
 50 65  1  0  0  0  0
 51 64  1  0  0  0  0
 53 61  1  0  0  0  0
 54 62  1  0  0  0  0
 55 62  1  0  0  0  0
 56 62  1  0  0  0  0
 57 73  1  0  0  0  0
 58 71  1  0  0  0  0
 59 81  1  0  0  0  0
 60 62  1  0  0  0  0
 60 72  1  0  0  0  0
 61 73  1  0  0  0  0
 63 64  1  0  0  0  0
M  CHG  1  73   1
M  ISO  4  39 100  59 101  69 100  81 101
M  END
> <Batch ID>
0014

> <Smiles>
CNC(C)C(=O)NC(C(=O)N1Cc2cc([101O:1][101CH2:1]C(=O)NCc3c(F)cc(C)c([100NH:0][100C:0](=O)N4CCCC(n5nc(-c6ccc(Oc7ccc(F)cc7F)cc6)c(C(N)=O)c5N)C4)c3Cl)ccc2CC1C(=O)NC1CCCc2ccccc21)C(C)(C)C

> <Shape>
0.163

> <Color>
0.188

> <Negative vol penalty>
0.000

$$$$

  -OEChem-04052315533D

 93101  0     1  0  0  0  0  0999 V2000
  -22.4008   -8.4738   21.0043 C   0  0  0  0  0  0  0  0  0  0  0  0
  -21.9172   -9.7769   20.9449 C   0  0  0  0  0  0  0  0  0  0  0  0
  -24.7249  -29.7953   20.8813 C   0  0  0  0  0  0  0  0  0  0  0  0
  -24.4369  -27.5710   21.7794 C   0  0  0  0  0  0  0  0  0  0  0  0
  -23.7709   -8.2448   21.1250 C   0  0  0  0  0  0  0  0  0  0  0  0
  -22.8033  -10.8518   21.0072 C   0  0  0  0  0  0  0  0  0  0  0  0
  -22.2873  -16.2212   18.1074 C   0  0  0  0  0  0  0  0  0  0  0  0
  -23.3632  -29.8518   20.5845 C   0  0  0  0  0  0  0  0  0  0  0  0
  -23.0751  -27.6275   21.4827 C   0  0  0  0  0  0  0  0  0  0  0  0
  -21.8247  -17.4698   18.5207 C   0  0  0  0  0  0  0  0  0  0  0  0
  -19.4569  -27.3273   21.2910 C   0  0  0  0  0  0  0  0  0  0  0  0
  -18.5613  -26.8878   22.2658 C   0  0  0  0  0  0  0  0  0  0  0  0
  -24.0917  -18.1477   18.9899 C   0  0  0  0  0  0  0  0  0  0  0  0
  -19.3941  -28.5682   23.7888 C   0  0  0  0  0  0  0  0  0  0  0  0
  -25.2618  -28.6548   21.4786 C   0  0  0  0  0  0  0  0  0  0  0  0
  -27.2961  -28.9964   22.9795 C   0  0  0  0  0  0  0  0  0  0  0  0
  -24.6750   -9.3173   21.1791 C   0  0  0  0  0  0  0  0  0  0  0  0
  -23.6569  -15.9222   18.1426 C   0  0  0  0  0  0  0  0  0  0  0  0
  -24.1865  -10.6369   21.1301 C   0  0  0  0  0  0  0  0  0  0  0  0
  -24.5694  -16.8955   18.5741 C   0  0  0  0  0  0  0  0  0  0  0  0
  -25.2559  -23.2493   20.0243 C   0  0  0  0  0  0  0  0  0  0  0  0
  -26.6732  -22.8240   17.6593 C   0  0  0  0  0  0  0  0  0  0  0  0
  -24.5727  -23.1254   18.8145 C   0  0  0  0  0  0  0  0  0  0  0  0
  -22.5383  -28.7680   20.8852 C   0  0  0  0  0  0  0  0  0  0  0  0
  -22.7266  -18.4323   18.9647 C   0  0  0  0  0  0  0  0  0  0  0  0
  -20.3213  -28.3872   21.5651 C   0  0  0  0  0  0  0  0  0  0  0  0
  -27.3563  -22.9479   18.8691 C   0  0  0  0  0  0  0  0  0  0  0  0
  -18.5298  -27.5082   23.5146 C   0  0  0  0  0  0  0  0  0  0  0  0
  -20.2899  -29.0077   22.8140 C   0  0  0  0  0  0  0  0  0  0  0  0
  -26.6477  -23.1606   20.0515 C   0  0  0  0  0  0  0  0  0  0  0  0
  -25.2813  -22.9127   17.6320 C   0  0  0  0  0  0  0  0  0  0  0  0
  -26.6685  -28.5955   21.7849 C   0  0  0  0  0  0  0  0  0  0  0  0
  -28.6289  -28.7386   22.7706 C   0  0  0  0  0  0  0  0  0  0  0  0
  -26.7253  -29.5522   24.1716 C   0  0  0  0  0  0  0  0  0  0  0  0
  -25.4486  -13.7899   19.6745 C   0  0  0  0  0  0  0  0  0  0  0  0
  -27.8047  -15.0059   17.8057 C   0  0  0  0  0  0  0  0  0  0  0  0
  -22.3643  -22.0419   18.9654 C   0  0  0  0  0  0  0  0  0  0  0  0
  -28.9784  -17.6270   15.9621 C   0  0  0  0  0  0  0  0  0  0  0  0
  -31.5296  -24.9100   19.1958 C   0  0  0  0  0  0  0  0  0  0  0  0
  -26.1430   -9.0209   21.3573 C   0  0  0  0  0  0  0  0  0  0  0  0
  -24.1423  -14.5799   17.6682 C   0  0  0  0  0  0  0  0  0  0  0  0
  -26.0517  -16.6314   18.6120 C   0  0  0  0  0  0  0  0  0  0  0  0
  -27.0472  -10.2091   21.0397 C   0  0  0  0  0  0  0  0  0  0  0  0
  -31.8843  -28.4518   19.2762 C   0  0  0  0  0  0  0  0  0  0  0  0
  -26.5139  -11.4771   21.6989 C   0  0  0  0  0  0  0  0  0  0  0  0
  -30.6444  -28.9264   20.0360 C   0  0  0  0  0  0  0  0  0  0  0  0
  -31.5749  -27.2505   18.3856 C   0  0  0  0  0  0  0  0  0  0  0  0
  -29.6957  -26.5900   19.8368 C   0  0  0  0  0  0  0  0  0  0  0  0
  -25.1182  -11.8288   21.1697 C   0  0  1  0  0  0  0  0  0  0  0  0
  -25.5096  -14.2056   18.2319 C   0  0  1  0  0  0  0  0  0  0  0  0
  -29.9706  -27.7648   20.7910 C   0  0  2  0  0  0  0  0  0  0  0  0
  -24.4837  -23.4791   21.2885 C   0  0  0  0  0  0  0  0  0  0  0  0
  -30.9511  -18.3394   14.5842 C   0  0  0  0  0  0  0  0  0  0  0  0
  -28.7639  -24.7792   16.5603 C   0  0  0  0  0  0  0  0  0  0  0  0
  -28.6259  -23.5533   14.3828 C   0  0  0  0  0  0  0  0  0  0  0  0
  -29.4128  -15.4767   20.3557 C   0  0  0  0  0  0  0  0  0  0  0  0
  -30.8996  -17.0119   19.0516 C   0  0  0  0  0  0  0  0  0  0  0  0
  -30.7452  -14.6013   18.4288 C   0  0  0  0  0  0  0  0  0  0  0  0
  -22.4983  -24.5354   18.6180 C   0  0  0  0  0  0  0  0  0  0  0  0
  -27.3160  -17.9407   13.5338 C   0  0  0  0  0  0  0  0  0  0  0  0
  -27.4573  -22.5964   16.4040 C   0  0  0  0  0  0  0  0  0  0  0  0
  -23.1561  -20.7609   19.1852 C   0  0  0  0  0  0  0  0  0  1  0  0
  -30.7996  -21.6776   19.0242 C   0  0  0  0  0  0  0  0  0  0  0  0
  -31.3537  -22.6046   20.0977 C   0  0  0  0  0  0  0  0  0  0  0  0
  -29.2805  -21.5642   19.0652 C   0  0  0  0  0  0  0  0  0  0  0  0
  -28.7972  -16.1359   17.9365 C   0  0  1  0  0  0  0  0  0  0  0  0
  -29.5758  -17.6905   14.5680 C   0  0  2  0  0  0  0  0  0  0  0  0
  -27.8822  -23.8930   15.6769 C   0  0  0  0  0  0  0  0  0  0  0  0
  -29.9356  -15.8111   18.9444 C   0  0  0  0  0  0  0  0  0  0  0  0
  -27.5317  -28.1194   20.8836 N   0  0  0  0  0  0  0  0  0  0  0  0
  -28.7153  -28.2194   21.5123 N   0  0  0  0  0  0  0  0  0  0  0  0
  -26.4766  -15.3017   18.1440 N   0  0  0  0  0  0  0  0  0  0  0  0
  -30.9388  -26.1839   19.1625 N   0  0  0  0  0  0  0  0  0  0  0  0
  -29.7236  -28.9076   23.5422 N   0  0  0  0  0  0  0  0  0  0  0  0
  -25.3388  -29.7514   24.2184 N   0  0  0  0  0  0  0  0  0  0  0  0
  -25.2131  -12.4413   19.8619 N   0  0  0  0  0  0  0  0  0  0  0  0
  -29.2614  -16.4299   16.5850 N   0  0  0  0  0  0  0  0  0  0  0  0
  -30.8656  -23.9588   19.9608 N   0  0  0  0  0  0  0  0  0  0  0  0
  -23.1268  -23.2181   18.8016 N   0  0  0  0  0  0  0  0  0  0  0  0
  -28.6943  -18.4801   13.6622 N   0  3  0  0  0  0  0  0  0  0  0  0
  -27.4261  -29.8781   25.1597 O   0  0  0  0  0  0  0  0  0  0  0  0
  -25.6051  -14.6303   20.5526 O   0  0  0  0  0  0  0  0  0  0  0  0
  -28.1922  -13.9034   17.4109 O   0  0  0  0  0  0  0  0  0  0  0  0
  -21.1320  -21.9866   18.9731 O   0  0  0  0  0  0  0  0  0  0  0  0
  -28.3291  -18.5489   16.4512 O   0  0  0  0  0  0  0  0  0  0  0  0
  -32.5744  -24.6417   18.5931 O   0  0  0  0  0  0  0  0  0  0  0  0
  -21.2094  -28.8229   20.5961 O   0  0  0  0  0  0  0  0  0  0  0  0
  -22.2777  -19.6515   19.3693 O   0  0  0  0  0  0  0  0  0  1  0  0
  -28.7187  -22.8610   18.8835 O   0  0  0  0  0  0  0  0  0  0  0  0
  -17.6686  -27.0871   24.4501 F   0  0  0  0  0  0  0  0  0  0  0  0
  -21.1170  -30.0272   23.0828 F   0  0  0  0  0  0  0  0  0  0  0  0
  -27.5060  -23.3153   21.5481 Cl  0  0  0  0  0  0  0  0  0  0  0  0
  -24.4382  -22.7576   16.1236 Cl  0  0  0  0  0  0  0  0  0  0  0  0
  1  2  1  0  0  0  0
  1  5  2  0  0  0  0
  2  6  2  0  0  0  0
  3  8  2  0  0  0  0
  3 15  1  0  0  0  0
  4  9  1  0  0  0  0
  4 15  2  0  0  0  0
  5 17  1  0  0  0  0
  6 19  1  0  0  0  0
  7 10  2  0  0  0  0
  7 18  1  0  0  0  0
  8 24  1  0  0  0  0
  9 24  2  0  0  0  0
 10 25  1  0  0  0  0
 11 12  2  0  0  0  0
 11 26  1  0  0  0  0
 12 28  1  0  0  0  0
 13 20  1  0  0  0  0
 13 25  2  0  0  0  0
 14 28  2  0  0  0  0
 14 29  1  0  0  0  0
 15 32  1  0  0  0  0
 16 32  1  0  0  0  0
 16 33  2  0  0  0  0
 16 34  1  0  0  0  0
 17 19  2  0  0  0  0
 17 40  1  0  0  0  0
 18 20  2  0  0  0  0
 18 41  1  0  0  0  0
 19 49  1  0  0  0  0
 20 42  1  0  0  0  0
 21 23  1  0  0  0  0
 21 30  2  0  0  0  0
 21 52  1  0  0  0  0
 22 27  2  0  0  0  0
 22 31  1  0  0  0  0
 22 61  1  0  0  0  0
 23 31  2  0  0  0  0
 23 79  1  0  0  0  0
 24 87  1  0  0  0  0
 25 88  1  0  0  0  0
 26 29  2  0  0  0  0
 26 87  1  0  0  0  0
 27 30  1  0  0  0  0
 27 89  1  0  0  0  0
 28 90  1  0  0  0  0
 29 91  1  0  0  0  0
 30 92  1  0  0  0  0
 31 93  1  0  0  0  0
 32 70  2  0  0  0  0
 33 71  1  0  0  0  0
 33 74  1  0  0  0  0
 34 75  1  0  0  0  0
 34 81  2  0  0  0  0
 35 50  1  0  0  0  0
 35 76  1  0  0  0  0
 35 82  2  0  0  0  0
 36 66  1  0  0  0  0
 36 72  1  0  0  0  0
 36 83  2  0  0  0  0
 37 62  1  0  0  0  0
 37 79  1  0  0  0  0
 37 84  2  0  0  0  0
 38 67  1  0  0  0  0
 38 77  1  0  0  0  0
 38 85  2  0  0  0  0
 39 73  1  0  0  0  0
 39 78  1  0  0  0  0
 39 86  2  0  0  0  0
 40 43  1  0  0  0  0
 41 50  1  0  0  0  0
 42 72  1  0  0  0  0
 43 45  1  0  0  0  0
 44 46  1  0  0  0  0
 44 47  1  0  0  0  0
 45 49  1  0  0  0  0
 46 51  1  0  0  0  0
 47 73  1  0  0  0  0
 48 51  1  0  0  0  0
 48 73  1  0  0  0  0
 49 76  1  0  0  0  0
 50 72  1  0  0  0  0
 51 71  1  0  0  0  0
 53 67  1  0  0  0  0
 54 68  1  0  0  0  0
 55 68  1  0  0  0  0
 56 69  1  0  0  0  0
 57 69  1  0  0  0  0
 58 69  1  0  0  0  0
 59 79  1  0  0  0  0
 60 80  1  0  0  0  0
 61 68  1  0  0  0  0
 62 88  1  0  0  0  0
 63 64  1  0  0  0  0
 63 65  1  0  0  0  0
 64 78  1  0  0  0  0
 65 89  1  0  0  0  0
 66 69  1  0  0  0  0
 66 77  1  0  0  0  0
 67 80  1  0  0  0  0
 70 71  1  0  0  0  0
M  CHG  1  80   1
M  ISO  4  39 100  62 101  78 100  88 101
M  END
> <Batch ID>
0014

> <Smiles>
CNC(C)C(=O)NC(C(=O)N1Cc2cc([101O:1][101CH2:1]C(=O)N(C)c3c(C)c(Cl)c(OCCC[100NH:0][100C:0](=O)N4CCCC(n5nc(-c6ccc(Oc7ccc(F)cc7F)cc6)c(C(N)=O)c5N)C4)c(CC(C)C)c3Cl)ccc2CC1C(=O)NC1CCCc2ccccc21)C(C)(C)C

> <Shape>
0.224

> <Color>
0.066

> <Negative vol penalty>
0.000

$$$$

  -OEChem-04052315533D

 85 93  0     1  0  0  0  0  0999 V2000
  -32.8990  -24.6464   17.7693 C   0  0  0  0  0  0  0  0  0  0  0  0
  -31.8011  -24.2269   18.5136 C   0  0  0  0  0  0  0  0  0  0  0  0
  -23.7420   -9.6439   19.8417 C   0  0  0  0  0  0  0  0  0  0  0  0
  -23.9136   -9.8844   22.2396 C   0  0  0  0  0  0  0  0  0  0  0  0
  -33.4955  -25.8767   18.0418 C   0  0  0  0  0  0  0  0  0  0  0  0
  -31.2997  -25.0371   19.5318 C   0  0  0  0  0  0  0  0  0  0  0  0
  -26.2462  -25.3542   19.4517 C   0  0  0  0  0  0  0  0  0  0  0  0
  -23.1773   -8.3795   20.0089 C   0  0  0  0  0  0  0  0  0  0  0  0
  -23.3488   -8.6200   22.4068 C   0  0  0  0  0  0  0  0  0  0  0  0
  -25.5322  -24.2744   19.9693 C   0  0  0  0  0  0  0  0  0  0  0  0
  -20.2656   -7.2393   22.3168 C   0  0  0  0  0  0  0  0  0  0  0  0
  -19.2685   -7.0991   23.2821 C   0  0  0  0  0  0  0  0  0  0  0  0
  -25.2063  -25.4854   22.0300 C   0  0  0  0  0  0  0  0  0  0  0  0
  -29.9138  -18.8666   21.6738 C   0  0  0  0  0  0  0  0  0  0  0  0
  -20.6204   -5.4663   24.4412 C   0  0  0  0  0  0  0  0  0  0  0  0
  -24.1103  -10.3963   20.9571 C   0  0  0  0  0  0  0  0  0  0  0  0
  -24.0161  -12.9336   20.7102 C   0  0  0  0  0  0  0  0  0  0  0  0
  -32.9952  -26.7068   19.0574 C   0  0  0  0  0  0  0  0  0  0  0  0
  -26.4553  -26.5054   20.2246 C   0  0  0  0  0  0  0  0  0  0  0  0
  -31.8909  -26.2792   19.8190 C   0  0  0  0  0  0  0  0  0  0  0  0
  -25.9211  -26.5795   21.5189 C   0  0  0  0  0  0  0  0  0  0  0  0
  -29.8594  -20.2574   21.5829 C   0  0  0  0  0  0  0  0  0  0  0  0
  -27.8393  -20.2650   22.9082 C   0  0  0  0  0  0  0  0  0  0  0  0
  -28.9309  -18.1749   22.3818 C   0  0  0  0  0  0  0  0  0  0  0  0
  -22.9806   -7.8676   21.2914 C   0  0  0  0  0  0  0  0  0  0  0  0
  -25.0146  -24.3387   21.2596 C   0  0  0  0  0  0  0  0  0  0  0  0
  -21.4400   -6.4930   22.4137 C   0  0  0  0  0  0  0  0  0  0  0  0
  -19.4459   -6.2126   24.3443 C   0  0  0  0  0  0  0  0  0  0  0  0
  -21.6174   -5.6065   23.4759 C   0  0  0  0  0  0  0  0  0  0  0  0
  -28.8221  -20.9566   22.2001 C   0  0  0  0  0  0  0  0  0  0  0  0
  -27.8937  -18.8741   22.9991 C   0  0  0  0  0  0  0  0  0  0  0  0
  -24.6943  -11.7023   20.7850 C   0  0  0  0  0  0  0  0  0  0  0  0
  -25.0122  -13.8649   20.5464 C   0  0  0  0  0  0  0  0  0  0  0  0
  -22.6112  -13.2108   20.7825 C   0  0  0  0  0  0  0  0  0  0  0  0
  -29.0141  -28.0071   21.3654 C   0  0  0  0  0  0  0  0  0  0  0  0
  -26.8246  -30.2156   22.2877 C   0  0  0  0  0  0  0  0  0  0  0  0
  -23.5846  -30.9221   23.0938 C   0  0  0  0  0  0  0  0  0  0  0  0
  -29.9996  -15.9489   21.8829 C   0  0  0  0  0  0  0  0  0  0  0  0
  -33.7026  -28.0070   19.3465 C   0  0  0  0  0  0  0  0  0  0  0  0
  -27.2048  -27.6722   19.6420 C   0  0  0  0  0  0  0  0  0  0  0  0
  -26.1004  -27.8006   22.3821 C   0  0  0  0  0  0  0  0  0  0  0  0
  -32.8788  -28.9733   20.1938 C   0  0  0  0  0  0  0  0  0  0  0  0
  -29.9360  -13.2772   19.5302 C   0  0  0  0  0  0  0  0  0  0  0  0
  -32.2583  -28.2457   21.3822 C   0  0  0  0  0  0  0  0  0  0  0  0
  -28.5109  -12.7306   19.6407 C   0  0  0  0  0  0  0  0  0  0  0  0
  -30.4791  -13.7235   20.8865 C   0  0  0  0  0  0  0  0  0  0  0  0
  -28.1981  -14.1195   21.7288 C   0  0  0  0  0  0  0  0  0  0  0  0
  -31.3028  -27.1410   20.9151 C   0  0  1  0  0  0  0  0  0  0  0  0
  -27.7980  -28.5921   20.7046 C   0  0  1  0  0  0  0  0  0  0  0  0
  -27.5844  -13.7175   20.3778 C   0  0  2  0  0  0  0  0  0  0  0  0
  -30.9344  -20.9559   20.8137 C   0  0  0  0  0  0  0  0  0  0  0  0
  -22.1071  -32.8070   23.8432 C   0  0  0  0  0  0  0  0  0  0  0  0
  -23.0016  -20.9743   23.0246 C   0  0  0  0  0  0  0  0  0  0  0  0
  -27.9634  -29.9834   25.1088 C   0  0  0  0  0  0  0  0  0  0  0  0
  -25.8998  -31.1170   25.9601 C   0  0  0  0  0  0  0  0  0  0  0  0
  -27.4228  -32.3172   24.3909 C   0  0  0  0  0  0  0  0  0  0  0  0
  -21.9040  -30.7240   20.6658 C   0  0  0  0  0  0  0  0  0  0  0  0
  -26.7240  -21.0178   23.5718 C   0  0  0  0  0  0  0  0  0  0  0  0
  -24.3775  -23.0881   23.1795 C   0  0  0  0  0  0  0  0  0  1  0  0
  -25.9793  -30.4334   23.5193 C   0  0  1  0  0  0  0  0  0  0  0  0
  -22.6570  -32.0393   22.6512 C   0  0  2  0  0  0  0  0  0  0  0  0
  -24.2964  -21.6028   23.5136 C   0  0  2  0  0  0  0  0  0  0  0  0
  -26.8144  -30.9389   24.7295 C   0  0  0  0  0  0  0  0  0  0  0  0
  -26.0189  -11.8358   20.6773 N   0  0  0  0  0  0  0  0  0  0  0  0
  -26.1810  -13.1621   20.5331 N   0  0  0  0  0  0  0  0  0  0  0  0
  -26.8459  -28.9128   21.7699 N   0  0  0  0  0  0  0  0  0  0  0  0
  -29.5511  -14.6602   21.5240 N   0  0  0  0  0  0  0  0  0  0  0  0
  -24.9937  -15.2082   20.4137 N   0  0  0  0  0  0  0  0  0  0  0  0
  -21.7262  -12.1374   20.9527 N   0  0  0  0  0  0  0  0  0  0  0  0
  -29.0203  -16.7625   22.4517 N   0  0  0  0  0  0  0  0  0  0  0  0
  -30.0416  -27.7099   20.4905 N   0  0  0  0  0  0  0  0  0  0  0  0
  -24.9009  -31.3316   23.1207 N   0  0  0  0  0  0  0  0  0  0  0  0
  -21.5092  -31.4844   21.8794 N   0  3  0  0  0  0  0  0  0  0  0  0
  -25.4332  -20.9048   22.8462 N   0  3  0  0  0  0  0  0  0  0  0  0
  -22.1530  -14.3743   20.6821 O   0  0  0  0  0  0  0  0  0  0  0  0
  -29.0203  -27.8392   22.5792 O   0  0  0  0  0  0  0  0  0  0  0  0
  -27.4375  -31.1679   21.7987 O   0  0  0  0  0  0  0  0  0  0  0  0
  -23.1812  -29.7995   23.3900 O   0  0  0  0  0  0  0  0  0  0  0  0
  -31.1595  -16.3138   21.6744 O   0  0  0  0  0  0  0  0  0  0  0  0
  -22.4293   -6.6339   21.4550 O   0  0  0  0  0  0  0  0  0  0  0  0
  -24.3178  -23.2859   21.7675 O   0  0  0  0  0  0  0  0  0  1  0  0
  -18.4890   -6.0792   25.2720 F   0  0  0  0  0  0  0  0  0  0  0  0
  -22.7441   -4.8877   23.5749 F   0  0  0  0  0  0  0  0  0  0  0  0
  -28.7613  -22.6846   22.0828 Cl  0  0  0  0  0  0  0  0  0  0  0  0
  -26.6718  -18.0128   23.8795 Cl  0  0  0  0  0  0  0  0  0  0  0  0
  1  2  1  0  0  0  0
  1  5  2  0  0  0  0
  2  6  2  0  0  0  0
  3  8  2  0  0  0  0
  3 16  1  0  0  0  0
  4  9  1  0  0  0  0
  4 16  2  0  0  0  0
  5 18  1  0  0  0  0
  6 20  1  0  0  0  0
  7 10  2  0  0  0  0
  7 19  1  0  0  0  0
  8 25  1  0  0  0  0
  9 25  2  0  0  0  0
 10 26  1  0  0  0  0
 11 12  2  0  0  0  0
 11 27  1  0  0  0  0
 12 28  1  0  0  0  0
 13 21  1  0  0  0  0
 13 26  2  0  0  0  0
 14 22  1  0  0  0  0
 14 24  2  0  0  0  0
 15 28  2  0  0  0  0
 15 29  1  0  0  0  0
 16 32  1  0  0  0  0
 17 32  1  0  0  0  0
 17 33  2  0  0  0  0
 17 34  1  0  0  0  0
 18 20  2  0  0  0  0
 18 39  1  0  0  0  0
 19 21  2  0  0  0  0
 19 40  1  0  0  0  0
 20 48  1  0  0  0  0
 21 41  1  0  0  0  0
 22 30  2  0  0  0  0
 22 51  1  0  0  0  0
 23 30  1  0  0  0  0
 23 31  2  0  0  0  0
 23 58  1  0  0  0  0
 24 31  1  0  0  0  0
 24 70  1  0  0  0  0
 25 80  1  0  0  0  0
 26 81  1  0  0  0  0
 27 29  2  0  0  0  0
 27 80  1  0  0  0  0
 28 82  1  0  0  0  0
 29 83  1  0  0  0  0
 30 84  1  0  0  0  0
 31 85  1  0  0  0  0
 32 64  2  0  0  0  0
 33 65  1  0  0  0  0
 33 68  1  0  0  0  0
 34 69  1  0  0  0  0
 34 75  2  0  0  0  0
 35 49  1  0  0  0  0
 35 71  1  0  0  0  0
 35 76  2  0  0  0  0
 36 60  1  0  0  0  0
 36 66  1  0  0  0  0
 36 77  2  0  0  0  0
 37 61  1  0  0  0  0
 37 72  1  0  0  0  0
 37 78  2  0  0  0  0
 38 67  1  0  0  0  0
 38 70  1  0  0  0  0
 38 79  2  0  0  0  0
 39 42  1  0  0  0  0
 40 49  1  0  0  0  0
 41 66  1  0  0  0  0
 42 44  1  0  0  0  0
 43 45  1  0  0  0  0
 43 46  1  0  0  0  0
 44 48  1  0  0  0  0
 45 50  1  0  0  0  0
 46 67  1  0  0  0  0
 47 50  1  0  0  0  0
 47 67  1  0  0  0  0
 48 71  1  0  0  0  0
 49 66  1  0  0  0  0
 50 65  1  0  0  0  0
 52 61  1  0  0  0  0
 53 62  1  0  0  0  0
 54 63  1  0  0  0  0
 55 63  1  0  0  0  0
 56 63  1  0  0  0  0
 57 73  1  0  0  0  0
 58 74  1  0  0  0  0
 59 62  1  0  0  0  0
 59 81  1  0  0  0  0
 60 63  1  0  0  0  0
 60 72  1  0  0  0  0
 61 73  1  0  0  0  0
 62 74  1  0  0  0  0
 64 65  1  0  0  0  0
M  CHG  2  73   1  74   1
M  ISO  4  38 100  59 101  70 100  81 101
M  END
> <Batch ID>
0014

> <Smiles>
CNC(C)C(=O)NC(C(=O)N1Cc2cc([101O:1][101CH2:1]C(C)NCc3c(Cl)c(C)cc([100NH:0][100C:0](=O)N4CCCC(n5nc(-c6ccc(Oc7ccc(F)cc7F)cc6)c(C(N)=O)c5N)C4)c3Cl)ccc2CC1C(=O)NC1CCCc2ccccc21)C(C)(C)C

> <Shape>
0.309

> <Color>
0.156

> <Negative vol penalty>
0.000

$$$$

  -OEChem-04052315533D

 94101  0     1  0  0  0  0  0999 V2000
  -31.9292  -26.7169   18.9767 C   0  0  0  0  0  0  0  0  0  0  0  0
  -30.6607  -26.6284   18.4124 C   0  0  0  0  0  0  0  0  0  0  0  0
  -28.4137  -19.7145   22.1785 C   0  0  0  0  0  0  0  0  0  0  0  0
  -30.1001  -18.4236   21.0265 C   0  0  0  0  0  0  0  0  0  0  0  0
  -32.0686  -27.0034   20.3341 C   0  0  0  0  0  0  0  0  0  0  0  0
  -29.5307  -26.8253   19.2053 C   0  0  0  0  0  0  0  0  0  0  0  0
  -22.8616  -29.4195   18.8750 C   0  0  0  0  0  0  0  0  0  0  0  0
  -29.2790  -20.8077   22.2203 C   0  0  0  0  0  0  0  0  0  0  0  0
  -30.9654  -19.5168   21.0682 C   0  0  0  0  0  0  0  0  0  0  0  0
  -21.5482  -29.0545   19.1674 C   0  0  0  0  0  0  0  0  0  0  0  0
  -31.3965  -22.4158   19.3856 C   0  0  0  0  0  0  0  0  0  0  0  0
  -32.0942  -22.7329   18.2203 C   0  0  0  0  0  0  0  0  0  0  0  0
  -21.9124  -29.6221   21.4835 C   0  0  0  0  0  0  0  0  0  0  0  0
  -34.1861  -22.4001   19.3822 C   0  0  0  0  0  0  0  0  0  0  0  0
  -28.8243  -18.5224   21.5817 C   0  0  0  0  0  0  0  0  0  0  0  0
  -27.0023  -17.0811   20.5278 C   0  0  0  0  0  0  0  0  0  0  0  0
  -30.9400  -27.2135   21.1421 C   0  0  0  0  0  0  0  0  0  0  0  0
  -23.7150  -29.8791   19.8884 C   0  0  0  0  0  0  0  0  0  0  0  0
  -29.6551  -27.1135   20.5751 C   0  0  0  0  0  0  0  0  0  0  0  0
  -23.2354  -29.9948   21.2009 C   0  0  0  0  0  0  0  0  0  0  0  0
  -30.5548  -20.7089   21.6651 C   0  0  0  0  0  0  0  0  0  0  0  0
  -21.0743  -29.1530   20.4723 C   0  0  0  0  0  0  0  0  0  0  0  0
  -32.0935  -22.0909   20.5494 C   0  0  0  0  0  0  0  0  0  0  0  0
  -33.4890  -22.7250   18.2185 C   0  0  0  0  0  0  0  0  0  0  0  0
  -33.4884  -22.0830   20.5476 C   0  0  0  0  0  0  0  0  0  0  0  0
  -27.9311  -17.3926   21.5388 C   0  0  0  0  0  0  0  0  0  0  0  0
  -26.4063  -15.9197   20.9550 C   0  0  0  0  0  0  0  0  0  0  0  0
  -26.7049  -17.7791   19.3113 C   0  0  0  0  0  0  0  0  0  0  0  0
  -26.4527  -28.8660   21.1464 C   0  0  0  0  0  0  0  0  0  0  0  0
  -26.2955  -31.6716   22.7669 C   0  0  0  0  0  0  0  0  0  0  0  0
  -23.9621  -10.4802   20.2952 C   0  0  0  0  0  0  0  0  0  0  0  0
  -18.6420  -26.0964   21.1378 C   0  0  0  0  0  0  0  0  0  0  0  0
  -24.3655  -34.2057   23.9918 C   0  0  0  0  0  0  0  0  0  0  0  0
  -26.7391  -10.8085   23.1710 C   0  0  0  0  0  0  0  0  0  0  0  0
  -31.1394  -27.4739   22.6142 C   0  0  0  0  0  0  0  0  0  0  0  0
  -25.1210  -30.2943   19.5518 C   0  0  0  0  0  0  0  0  0  0  0  0
  -24.1051  -30.5016   22.3213 C   0  0  0  0  0  0  0  0  0  0  0  0
  -29.9015  -28.0391   23.3059 C   0  0  0  0  0  0  0  0  0  0  0  0
  -26.6181  -13.5618   25.4252 C   0  0  0  0  0  0  0  0  0  0  0  0
  -28.6593  -27.2490   22.9065 C   0  0  0  0  0  0  0  0  0  0  0  0
  -26.8784  -14.7768   24.5329 C   0  0  0  0  0  0  0  0  0  0  0  0
  -27.4346  -12.3501   24.9810 C   0  0  0  0  0  0  0  0  0  0  0  0
  -27.5360  -13.1980   22.6691 C   0  0  0  0  0  0  0  0  0  0  0  0
  -28.4059  -27.3452   21.3972 C   0  0  1  0  0  0  0  0  0  0  0  0
  -26.0579  -30.2620   20.7554 C   0  0  1  0  0  0  0  0  0  0  0  0
  -26.6928  -14.4288   23.0437 C   0  0  2  0  0  0  0  0  0  0  0  0
  -24.5164  -36.3385   25.3055 C   0  0  0  0  0  0  0  0  0  0  0  0
  -26.6315  -30.0619   25.3370 C   0  0  0  0  0  0  0  0  0  0  0  0
  -25.8337  -32.0631   26.6124 C   0  0  0  0  0  0  0  0  0  0  0  0
  -27.9299  -32.1981   25.2669 C   0  0  0  0  0  0  0  0  0  0  0  0
  -21.9184  -10.3907   21.7660 C   0  0  0  0  0  0  0  0  0  0  0  0
  -16.3262  -25.3427   21.7861 C   0  0  0  0  0  0  0  0  0  0  0  0
  -23.3005  -35.8041   21.7401 C   0  0  0  0  0  0  0  0  0  0  0  0
  -24.5398   -9.3616   21.1567 C   0  0  0  0  0  0  0  0  0  0  0  0
  -18.3713  -27.3094   22.0218 C   0  0  0  0  0  0  0  0  0  0  0  0
  -19.8538  -17.9406   20.9359 C   0  0  0  0  0  0  0  0  0  0  0  0
  -20.0524  -16.6998   20.0608 C   0  0  0  0  0  0  0  0  0  0  0  0
  -19.1955  -19.0748   20.1478 C   0  0  0  0  0  0  0  0  0  0  0  0
  -20.7448  -15.5789   20.8393 C   0  0  0  0  0  0  0  0  0  0  0  0
  -18.9793  -20.3463   20.9740 C   0  0  0  0  0  0  0  0  0  0  0  0
  -21.0336  -14.3368   19.9907 C   0  0  0  0  0  0  0  0  0  0  0  0
  -18.3793  -21.5382   20.2219 C   0  0  0  0  0  0  0  0  0  0  0  0
  -21.7056  -13.2068   20.7774 C   0  0  0  0  0  0  0  0  0  0  0  0
  -18.2677  -22.8029   21.0740 C   0  0  0  0  0  0  0  0  0  0  0  0
  -26.0614   -9.3876   21.2524 C   0  0  0  0  0  0  0  0  0  0  0  0
  -22.0278  -11.9987   19.9023 C   0  0  0  0  0  0  0  0  0  0  0  0
  -17.6906  -23.9619   20.2688 C   0  0  0  0  0  0  0  0  0  0  0  0
  -19.5377  -28.2884   22.0683 C   0  0  0  0  0  0  0  0  0  1  0  0
  -25.6987  -32.1155   24.0806 C   0  0  1  0  0  0  0  0  0  0  0  0
  -24.5188  -35.7142   23.9188 C   0  0  2  0  0  0  0  0  0  0  0  0
  -26.5074  -31.5982   25.3037 C   0  0  0  0  0  0  0  0  0  0  0  0
  -27.9289  -16.5011   22.5335 N   0  0  0  0  0  0  0  0  0  0  0  0
  -26.9913  -15.6181   22.1496 N   0  0  0  0  0  0  0  0  0  0  0  0
  -25.4742  -30.8891   21.9430 N   0  0  0  0  0  0  0  0  0  0  0  0
  -27.2123  -12.0726   23.5599 N   0  0  0  0  0  0  0  0  0  0  0  0
  -25.4441  -15.1374   20.4217 N   0  0  0  0  0  0  0  0  0  0  0  0
  -27.4104  -18.9562   19.0267 N   0  0  0  0  0  0  0  0  0  0  0  0
  -27.8103  -28.6217   21.0651 N   0  0  0  0  0  0  0  0  0  0  0  0
  -25.5882  -33.5684   24.0085 N   0  0  0  0  0  0  0  0  0  0  0  0
  -26.5497  -10.6310   21.8059 N   0  0  0  0  0  0  0  0  0  0  0  0
  -22.6769  -10.9480   20.6367 N   0  0  0  0  0  0  0  0  0  0  0  0
  -17.5891  -25.1568   21.0611 N   0  0  0  0  0  0  0  0  0  0  0  0
  -23.4019  -36.3109   23.1329 N   0  3  0  0  0  0  0  0  0  0  0  0
  -25.8275  -17.3800   18.5085 O   0  0  0  0  0  0  0  0  0  0  0  0
  -25.5897  -28.0699   21.4973 O   0  0  0  0  0  0  0  0  0  0  0  0
  -27.4455  -32.0128   22.4791 O   0  0  0  0  0  0  0  0  0  0  0  0
  -24.6070  -10.9408   19.3497 O   0  0  0  0  0  0  0  0  0  0  0  0
  -19.7182  -25.9794   20.5458 O   0  0  0  0  0  0  0  0  0  0  0  0
  -23.2708  -33.6486   24.0338 O   0  0  0  0  0  0  0  0  0  0  0  0
  -26.4977   -9.9069   23.9807 O   0  0  0  0  0  0  0  0  0  0  0  0
  -31.3994  -21.7755   21.7054 O   0  0  0  0  0  0  0  0  0  0  0  0
  -19.7839  -28.7942   20.7625 O   0  0  0  0  0  0  0  0  0  1  0  0
  -34.1589  -23.0280   17.0989 F   0  0  0  0  0  0  0  0  0  0  0  0
  -34.1636  -21.7705   21.6622 F   0  0  0  0  0  0  0  0  0  0  0  0
  1  2  1  0  0  0  0
  1  5  2  0  0  0  0
  2  6  2  0  0  0  0
  3  8  2  0  0  0  0
  3 15  1  0  0  0  0
  4  9  1  0  0  0  0
  4 15  2  0  0  0  0
  5 17  1  0  0  0  0
  6 19  1  0  0  0  0
  7 10  2  0  0  0  0
  7 18  1  0  0  0  0
  8 21  1  0  0  0  0
  9 21  2  0  0  0  0
 10 22  1  0  0  0  0
 11 12  2  0  0  0  0
 11 23  1  0  0  0  0
 12 24  1  0  0  0  0
 13 20  1  0  0  0  0
 13 22  2  0  0  0  0
 14 24  2  0  0  0  0
 14 25  1  0  0  0  0
 15 26  1  0  0  0  0
 16 26  1  0  0  0  0
 16 27  2  0  0  0  0
 16 28  1  0  0  0  0
 17 19  2  0  0  0  0
 17 35  1  0  0  0  0
 18 20  2  0  0  0  0
 18 36  1  0  0  0  0
 19 44  1  0  0  0  0
 20 37  1  0  0  0  0
 21 91  1  0  0  0  0
 22 92  1  0  0  0  0
 23 25  2  0  0  0  0
 23 91  1  0  0  0  0
 24 93  1  0  0  0  0
 25 94  1  0  0  0  0
 26 72  2  0  0  0  0
 27 73  1  0  0  0  0
 27 76  1  0  0  0  0
 28 77  1  0  0  0  0
 28 84  2  0  0  0  0
 29 45  1  0  0  0  0
 29 78  1  0  0  0  0
 29 85  2  0  0  0  0
 30 69  1  0  0  0  0
 30 74  1  0  0  0  0
 30 86  2  0  0  0  0
 31 54  1  0  0  0  0
 31 81  1  0  0  0  0
 31 87  2  0  0  0  0
 32 55  1  0  0  0  0
 32 82  1  0  0  0  0
 32 88  2  0  0  0  0
 33 70  1  0  0  0  0
 33 79  1  0  0  0  0
 33 89  2  0  0  0  0
 34 75  1  0  0  0  0
 34 80  1  0  0  0  0
 34 90  2  0  0  0  0
 35 38  1  0  0  0  0
 36 45  1  0  0  0  0
 37 74  1  0  0  0  0
 38 40  1  0  0  0  0
 39 41  1  0  0  0  0
 39 42  1  0  0  0  0
 40 44  1  0  0  0  0
 41 46  1  0  0  0  0
 42 75  1  0  0  0  0
 43 46  1  0  0  0  0
 43 75  1  0  0  0  0
 44 78  1  0  0  0  0
 45 74  1  0  0  0  0
 46 73  1  0  0  0  0
 47 70  1  0  0  0  0
 48 71  1  0  0  0  0
 49 71  1  0  0  0  0
 50 71  1  0  0  0  0
 51 81  1  0  0  0  0
 52 82  1  0  0  0  0
 53 83  1  0  0  0  0
 54 65  1  0  0  0  0
 55 68  1  0  0  0  0
 56 57  1  0  0  0  0
 56 58  1  0  0  0  0
 57 59  1  0  0  0  0
 58 60  1  0  0  0  0
 59 61  1  0  0  0  0
 60 62  1  0  0  0  0
 61 63  1  0  0  0  0
 62 64  1  0  0  0  0
 63 66  1  0  0  0  0
 64 67  1  0  0  0  0
 65 80  1  0  0  0  0
 66 81  1  0  0  0  0
 67 82  1  0  0  0  0
 68 92  1  0  0  0  0
 69 71  1  0  0  0  0
 69 79  1  0  0  0  0
 70 83  1  0  0  0  0
 72 73  1  0  0  0  0
M  CHG  1  83   1
M  ISO  4  34 100  68 101  80 100  92 101
M  END
> <Batch ID>
0014

> <Smiles>
CNC(C)C(=O)NC(C(=O)N1Cc2cc([101O:1][101CH2:1]CC(=O)N(C)CCCCCCCCCCCN(C)C(=O)CC[100NH:0][100C:0](=O)N3CCCC(n4nc(-c5ccc(Oc6ccc(F)cc6F)cc5)c(C(N)=O)c4N)C3)ccc2CC1C(=O)NC1CCCc2ccccc21)C(C)(C)C

> <Shape>
0.282

> <Color>
0.097

> <Negative vol penalty>
0.000

$$$$

  -OEChem-04052315533D

 85 93  0     1  0  0  0  0  0999 V2000
  -38.0104  -32.0649   15.9556 C   0  0  0  0  0  0  0  0  0  0  0  0
  -38.0366  -30.8491   16.6312 C   0  0  0  0  0  0  0  0  0  0  0  0
  -23.1192   -9.8124   20.0638 C   0  0  0  0  0  0  0  0  0  0  0  0
  -23.8173  -10.0062   22.3687 C   0  0  0  0  0  0  0  0  0  0  0  0
  -37.0299  -33.0086   16.2588 C   0  0  0  0  0  0  0  0  0  0  0  0
  -37.0827  -30.5767   17.6112 C   0  0  0  0  0  0  0  0  0  0  0  0
  -34.5796  -25.1384   18.9015 C   0  0  0  0  0  0  0  0  0  0  0  0
  -22.3807   -8.6731   20.3833 C   0  0  0  0  0  0  0  0  0  0  0  0
  -23.0787   -8.8668   22.6882 C   0  0  0  0  0  0  0  0  0  0  0  0
  -34.8556  -24.1880   19.8836 C   0  0  0  0  0  0  0  0  0  0  0  0
  -19.8438   -8.0788   23.2670 C   0  0  0  0  0  0  0  0  0  0  0  0
  -19.0562   -8.1204   24.4174 C   0  0  0  0  0  0  0  0  0  0  0  0
  -33.1084  -25.1158   21.2640 C   0  0  0  0  0  0  0  0  0  0  0  0
  -31.9683  -16.8137   22.3478 C   0  0  0  0  0  0  0  0  0  0  0  0
  -20.2970   -6.2610   25.3341 C   0  0  0  0  0  0  0  0  0  0  0  0
  -23.8376  -10.4789   21.0565 C   0  0  0  0  0  0  0  0  0  0  0  0
  -24.1569  -12.9912   20.7495 C   0  0  0  0  0  0  0  0  0  0  0  0
  -36.0578  -32.7438   17.2362 C   0  0  0  0  0  0  0  0  0  0  0  0
  -33.5714  -26.0930   19.0983 C   0  0  0  0  0  0  0  0  0  0  0  0
  -36.0891  -31.5183   17.9287 C   0  0  0  0  0  0  0  0  0  0  0  0
  -32.8198  -26.0756   20.2819 C   0  0  0  0  0  0  0  0  0  0  0  0
  -31.7643  -18.6857   23.8614 C   0  0  0  0  0  0  0  0  0  0  0  0
  -30.3795  -18.6698   23.6945 C   0  0  0  0  0  0  0  0  0  0  0  0
  -30.5836  -16.7977   22.1809 C   0  0  0  0  0  0  0  0  0  0  0  0
  -22.3604   -8.2003   21.6954 C   0  0  0  0  0  0  0  0  0  0  0  0
  -34.1220  -24.1784   21.0662 C   0  0  0  0  0  0  0  0  0  0  0  0
  -20.8580   -7.1282   23.1500 C   0  0  0  0  0  0  0  0  0  0  0  0
  -19.2828   -7.2116   25.4510 C   0  0  0  0  0  0  0  0  0  0  0  0
  -32.5587  -17.7577   23.1881 C   0  0  0  0  0  0  0  0  0  0  0  0
  -21.0846   -6.2194   24.1836 C   0  0  0  0  0  0  0  0  0  0  0  0
  -29.7892  -17.7257   22.8542 C   0  0  0  0  0  0  0  0  0  0  0  0
  -24.6012  -11.6556   20.7271 C   0  0  0  0  0  0  0  0  0  0  0  0
  -25.2507  -13.7235   20.3576 C   0  0  0  0  0  0  0  0  0  0  0  0
  -22.8705  -13.5223   21.0940 C   0  0  0  0  0  0  0  0  0  0  0  0
  -33.4910  -29.2654   19.2806 C   0  0  0  0  0  0  0  0  0  0  0  0
  -30.2836  -28.7899   19.3717 C   0  0  0  0  0  0  0  0  0  0  0  0
  -33.5086  -21.4209   23.3395 C   0  0  0  0  0  0  0  0  0  0  0  0
  -27.6843  -26.6943   20.0783 C   0  0  0  0  0  0  0  0  0  0  0  0
  -30.6994  -14.8461   20.5921 C   0  0  0  0  0  0  0  0  0  0  0  0
  -35.0462  -33.8138   17.5627 C   0  0  0  0  0  0  0  0  0  0  0  0
  -33.2680  -27.0947   18.0180 C   0  0  0  0  0  0  0  0  0  0  0  0
  -31.7134  -27.0661   20.5334 C   0  0  0  0  0  0  0  0  0  0  0  0
  -33.8456  -33.2968   18.3509 C   0  0  0  0  0  0  0  0  0  0  0  0
  -29.6734  -12.2428   18.3905 C   0  0  0  0  0  0  0  0  0  0  0  0
  -34.3053  -32.4071   19.5016 C   0  0  0  0  0  0  0  0  0  0  0  0
  -28.2258  -11.9678   18.8040 C   0  0  0  0  0  0  0  0  0  0  0  0
  -30.5536  -12.5751   19.5941 C   0  0  0  0  0  0  0  0  0  0  0  0
  -28.6031  -13.3810   20.8650 C   0  0  0  0  0  0  0  0  0  0  0  0
  -35.0566  -31.1759   18.9808 C   0  0  1  0  0  0  0  0  0  0  0  0
  -32.5639  -28.3428   18.5411 C   0  0  1  0  0  0  0  0  0  0  0  0
  -27.6640  -13.1052   19.6793 C   0  0  2  0  0  0  0  0  0  0  0  0
  -29.5461  -19.6754   24.4272 C   0  0  0  0  0  0  0  0  0  0  0  0
  -25.1766  -26.6002   20.0887 C   0  0  0  0  0  0  0  0  0  0  0  0
  -30.2336  -30.4652   21.9214 C   0  0  0  0  0  0  0  0  0  0  0  0
  -27.9473  -29.5585   22.3893 C   0  0  0  0  0  0  0  0  0  0  0  0
  -28.3518  -30.9190   20.3379 C   0  0  0  0  0  0  0  0  0  0  0  0
  -27.6434  -24.4840   18.1106 C   0  0  0  0  0  0  0  0  0  0  0  0
  -32.4239  -19.6914   24.7601 C   0  0  0  0  0  0  0  0  0  0  0  0
  -33.3014  -22.8389   22.8518 C   0  0  0  0  0  0  0  0  0  1  0  0
  -29.2667  -28.5655   20.4647 C   0  0  1  0  0  0  0  0  0  0  0  0
  -26.4407  -26.3298   19.2877 C   0  0  2  0  0  0  0  0  0  0  0  0
  -28.9719  -29.8595   21.2747 C   0  0  0  0  0  0  0  0  0  0  0  0
  -25.8777  -11.5431   20.3504 N   0  0  0  0  0  0  0  0  0  0  0  0
  -26.2449  -12.8173   20.1325 N   0  0  0  0  0  0  0  0  0  0  0  0
  -31.4590  -28.0296   19.4496 N   0  0  0  0  0  0  0  0  0  0  0  0
  -29.9609  -13.6638   20.3739 N   0  0  0  0  0  0  0  0  0  0  0  0
  -25.4495  -15.0478   20.1868 N   0  0  0  0  0  0  0  0  0  0  0  0
  -21.8592  -12.6297   21.4746 N   0  0  0  0  0  0  0  0  0  0  0  0
  -30.0210  -15.8238   21.3191 N   0  0  0  0  0  0  0  0  0  0  0  0
  -34.1242  -30.1918   18.4742 N   0  0  0  0  0  0  0  0  0  0  0  0
  -32.4714  -21.0043   24.1591 N   0  0  0  0  0  0  0  0  0  0  0  0
  -28.0945  -27.9849   19.8187 N   0  0  0  0  0  0  0  0  0  0  0  0
  -26.4649  -24.8855   18.9211 N   0  3  0  0  0  0  0  0  0  0  0  0
  -22.6203  -14.7507   21.0494 O   0  0  0  0  0  0  0  0  0  0  0  0
  -33.6211  -29.1466   20.4933 O   0  0  0  0  0  0  0  0  0  0  0  0
  -30.0407  -29.6044   18.4777 O   0  0  0  0  0  0  0  0  0  0  0  0
  -34.4882  -20.7482   23.0298 O   0  0  0  0  0  0  0  0  0  0  0  0
  -28.2344  -25.9137   20.8519 O   0  0  0  0  0  0  0  0  0  0  0  0
  -31.8388  -14.9919   20.1423 O   0  0  0  0  0  0  0  0  0  0  0  0
  -21.6396   -7.0887   22.0076 O   0  0  0  0  0  0  0  0  0  0  0  0
  -34.3898  -23.2523   22.0267 O   0  0  0  0  0  0  0  0  0  1  0  0
  -18.5274   -7.2526   26.5564 F   0  0  0  0  0  0  0  0  0  0  0  0
  -33.8903  -17.7643   23.3416 F   0  0  0  0  0  0  0  0  0  0  0  0
  -22.0582   -5.3047   24.0775 F   0  0  0  0  0  0  0  0  0  0  0  0
  -28.0672  -17.7079   22.6483 Cl  0  0  0  0  0  0  0  0  0  0  0  0
  1  2  1  0  0  0  0
  1  5  2  0  0  0  0
  2  6  2  0  0  0  0
  3  8  2  0  0  0  0
  3 16  1  0  0  0  0
  4  9  1  0  0  0  0
  4 16  2  0  0  0  0
  5 18  1  0  0  0  0
  6 20  1  0  0  0  0
  7 10  2  0  0  0  0
  7 19  1  0  0  0  0
  8 25  1  0  0  0  0
  9 25  2  0  0  0  0
 10 26  1  0  0  0  0
 11 12  2  0  0  0  0
 11 27  1  0  0  0  0
 12 28  1  0  0  0  0
 13 21  1  0  0  0  0
 13 26  2  0  0  0  0
 14 24  1  0  0  0  0
 14 29  2  0  0  0  0
 15 28  2  0  0  0  0
 15 30  1  0  0  0  0
 16 32  1  0  0  0  0
 17 32  1  0  0  0  0
 17 33  2  0  0  0  0
 17 34  1  0  0  0  0
 18 20  2  0  0  0  0
 18 40  1  0  0  0  0
 19 21  2  0  0  0  0
 19 41  1  0  0  0  0
 20 49  1  0  0  0  0
 21 42  1  0  0  0  0
 22 23  2  0  0  0  0
 22 29  1  0  0  0  0
 22 58  1  0  0  0  0
 23 31  1  0  0  0  0
 23 52  1  0  0  0  0
 24 31  2  0  0  0  0
 24 69  1  0  0  0  0
 25 80  1  0  0  0  0
 26 81  1  0  0  0  0
 27 30  2  0  0  0  0
 27 80  1  0  0  0  0
 28 82  1  0  0  0  0
 29 83  1  0  0  0  0
 30 84  1  0  0  0  0
 31 85  1  0  0  0  0
 32 63  2  0  0  0  0
 33 64  1  0  0  0  0
 33 67  1  0  0  0  0
 34 68  1  0  0  0  0
 34 74  2  0  0  0  0
 35 50  1  0  0  0  0
 35 70  1  0  0  0  0
 35 75  2  0  0  0  0
 36 60  1  0  0  0  0
 36 65  1  0  0  0  0
 36 76  2  0  0  0  0
 37 59  1  0  0  0  0
 37 71  1  0  0  0  0
 37 77  2  0  0  0  0
 38 61  1  0  0  0  0
 38 72  1  0  0  0  0
 38 78  2  0  0  0  0
 39 66  1  0  0  0  0
 39 69  1  0  0  0  0
 39 79  2  0  0  0  0
 40 43  1  0  0  0  0
 41 50  1  0  0  0  0
 42 65  1  0  0  0  0
 43 45  1  0  0  0  0
 44 46  1  0  0  0  0
 44 47  1  0  0  0  0
 45 49  1  0  0  0  0
 46 51  1  0  0  0  0
 47 66  1  0  0  0  0
 48 51  1  0  0  0  0
 48 66  1  0  0  0  0
 49 70  1  0  0  0  0
 50 65  1  0  0  0  0
 51 64  1  0  0  0  0
 53 61  1  0  0  0  0
 54 62  1  0  0  0  0
 55 62  1  0  0  0  0
 56 62  1  0  0  0  0
 57 73  1  0  0  0  0
 58 71  1  0  0  0  0
 59 81  1  0  0  0  0
 60 62  1  0  0  0  0
 60 72  1  0  0  0  0
 61 73  1  0  0  0  0
 63 64  1  0  0  0  0
M  CHG  1  73   1
M  ISO  4  39 100  59 101  69 100  81 101
M  END
> <Batch ID>
0014

> <Smiles>
CNC(C)C(=O)NC(C(=O)N1Cc2cc([101O:1][101CH2:1]C(=O)NCc3c(F)cc([100NH:0][100C:0](=O)N4CCCC(n5nc(-c6ccc(Oc7ccc(F)cc7F)cc6)c(C(N)=O)c5N)C4)c(Cl)c3C)ccc2CC1C(=O)NC1CCCc2ccccc21)C(C)(C)C

> <Shape>
0.221

> <Color>
0.192

> <Negative vol penalty>
0.000

$$$$

  -OEChem-04052315533D

 89 97  0     1  0  0  0  0  0999 V2000
  -22.9938  -10.0172   21.1642 C   0  0  0  0  0  0  0  0  0  0  0  0
  -22.4024  -10.9807   21.9748 C   0  0  0  0  0  0  0  0  0  0  0  0
  -29.7568  -26.0937   20.6266 C   0  0  0  0  0  0  0  0  0  0  0  0
  -28.0964  -24.4833   21.3240 C   0  0  0  0  0  0  0  0  0  0  0  0
  -24.1565  -10.3208   20.4571 C   0  0  0  0  0  0  0  0  0  0  0  0
  -22.9741  -12.2483   22.0798 C   0  0  0  0  0  0  0  0  0  0  0  0
  -20.0241  -17.5732   22.7496 C   0  0  0  0  0  0  0  0  0  0  0  0
  -30.7513  -25.3364   21.2454 C   0  0  0  0  0  0  0  0  0  0  0  0
  -29.0909  -23.7259   21.9428 C   0  0  0  0  0  0  0  0  0  0  0  0
  -19.7506  -18.3598   23.8678 C   0  0  0  0  0  0  0  0  0  0  0  0
  -31.2429  -21.1820   23.3973 C   0  0  0  0  0  0  0  0  0  0  0  0
  -31.2265  -19.8016   23.1976 C   0  0  0  0  0  0  0  0  0  0  0  0
  -21.6948  -19.7053   23.3894 C   0  0  0  0  0  0  0  0  0  0  0  0
  -17.9354  -27.3038   22.3469 C   0  0  0  0  0  0  0  0  0  0  0  0
  -31.4678  -20.1429   20.8180 C   0  0  0  0  0  0  0  0  0  0  0  0
  -28.4293  -25.6672   20.6659 C   0  0  0  0  0  0  0  0  0  0  0  0
  -26.9508  -26.3382   18.6983 C   0  0  0  0  0  0  0  0  0  0  0  0
  -24.7372  -11.5957   20.5459 C   0  0  0  0  0  0  0  0  0  0  0  0
  -21.1431  -17.8406   21.9478 C   0  0  0  0  0  0  0  0  0  0  0  0
  -24.1463  -12.5688   21.3743 C   0  0  0  0  0  0  0  0  0  0  0  0
  -21.9789  -18.9222   22.2601 C   0  0  0  0  0  0  0  0  0  0  0  0
  -18.3761  -28.4175   21.6320 C   0  0  0  0  0  0  0  0  0  0  0  0
  -18.8169  -26.6175   23.1821 C   0  0  0  0  0  0  0  0  0  0  0  0
  -20.5800  -28.1586   22.5875 C   0  0  0  0  0  0  0  0  0  0  0  0
  -30.4184  -24.1525   21.9035 C   0  0  0  0  0  0  0  0  0  0  0  0
  -20.5876  -19.4243   24.1895 C   0  0  0  0  0  0  0  0  0  0  0  0
  -31.3717  -22.0429   22.3073 C   0  0  0  0  0  0  0  0  0  0  0  0
  -31.3390  -19.2820   21.9080 C   0  0  0  0  0  0  0  0  0  0  0  0
  -31.4842  -21.5233   21.0177 C   0  0  0  0  0  0  0  0  0  0  0  0
  -19.6984  -28.8449   21.7523 C   0  0  0  0  0  0  0  0  0  0  0  0
  -20.1392  -27.0449   23.3024 C   0  0  0  0  0  0  0  0  0  0  0  0
  -27.4015  -26.4495   20.0273 C   0  0  0  0  0  0  0  0  0  0  0  0
  -25.9731  -27.2964   18.5859 C   0  0  0  0  0  0  0  0  0  0  0  0
  -27.3778  -25.4484   17.6583 C   0  0  0  0  0  0  0  0  0  0  0  0
  -23.7739  -16.2389   21.1621 C   0  0  0  0  0  0  0  0  0  0  0  0
  -24.2575  -18.7701   19.1920 C   0  0  0  0  0  0  0  0  0  0  0  0
  -23.6498  -22.0547   18.4927 C   0  0  0  0  0  0  0  0  0  0  0  0
  -22.3670  -29.9339   22.5539 C   0  0  0  0  0  0  0  0  0  0  0  0
  -26.0206  -11.8623   19.7998 C   0  0  0  0  0  0  0  0  0  0  0  0
  -21.4093  -16.9991   20.7298 C   0  0  0  0  0  0  0  0  0  0  0  0
  -23.1815  -19.2636   21.4201 C   0  0  0  0  0  0  0  0  0  0  0  0
  -26.3541  -13.3465   19.6726 C   0  0  0  0  0  0  0  0  0  0  0  0
  -24.6716  -31.5457   20.3702 C   0  0  0  0  0  0  0  0  0  0  0  0
  -26.1763  -14.0505   21.0140 C   0  0  0  0  0  0  0  0  0  0  0  0
  -25.5884  -30.4105   19.9087 C   0  0  0  0  0  0  0  0  0  0  0  0
  -24.2542  -31.3796   21.8303 C   0  0  0  0  0  0  0  0  0  0  0  0
  -24.5816  -28.9413   21.7017 C   0  0  0  0  0  0  0  0  0  0  0  0
  -24.7227  -13.9629   21.4947 C   0  0  1  0  0  0  0  0  0  0  0  0
  -22.8657  -17.0458   20.2780 C   0  0  1  0  0  0  0  0  0  0  0  0
  -24.9761  -29.0303   20.2185 C   0  0  2  0  0  0  0  0  0  0  0  0
  -17.4304  -29.1493   20.7404 C   0  0  0  0  0  0  0  0  0  0  0  0
  -24.2136  -23.8529   16.8356 C   0  0  0  0  0  0  0  0  0  0  0  0
  -27.0168  -19.0696   20.4594 C   0  0  0  0  0  0  0  0  0  0  0  0
  -27.1373  -21.3730   19.4857 C   0  0  0  0  0  0  0  0  0  0  0  0
  -26.9672  -19.3915   17.9798 C   0  0  0  0  0  0  0  0  0  0  0  0
  -17.2239  -21.7950   26.7562 C   0  0  0  0  0  0  0  0  0  0  0  0
  -19.5519  -21.7206   27.6599 C   0  0  0  0  0  0  0  0  0  0  0  0
  -20.8148  -22.3825   17.7089 C   0  0  0  0  0  0  0  0  0  0  0  0
  -18.4238  -24.0077   21.8869 C   0  0  0  0  0  0  0  0  0  0  0  0
  -18.2982  -25.4251   23.9304 C   0  0  0  0  0  0  0  0  0  0  0  0
  -19.0562  -22.8949   25.4560 C   0  0  0  0  0  0  0  0  0  0  0  0
  -18.2951  -22.9434   24.1347 C   0  0  0  0  0  0  0  0  0  0  0  0
  -18.9547  -20.3344   25.6596 C   0  0  0  0  0  0  0  0  0  1  0  0
  -24.9460  -20.1076   19.3192 C   0  0  1  0  0  0  0  0  0  0  0  0
  -23.2342  -22.7512   17.2095 C   0  0  2  0  0  0  0  0  0  0  0  0
  -26.4954  -19.9781   19.3282 C   0  0  0  0  0  0  0  0  0  0  0  0
  -18.7142  -21.6844   26.3691 C   0  0  0  0  0  0  0  0  0  0  0  0
  -26.7626  -27.4031   20.7103 N   0  0  0  0  0  0  0  0  0  0  0  0
  -25.9007  -27.8999   19.8068 N   0  0  0  0  0  0  0  0  0  0  0  0
  -23.4032  -18.4075   20.2430 N   0  0  0  0  0  0  0  0  0  0  0  0
  -23.6790  -30.0505   22.0480 N   0  0  0  0  0  0  0  0  0  0  0  0
  -25.1770  -27.6731   17.5628 N   0  0  0  0  0  0  0  0  0  0  0  0
  -28.3935  -24.5258   17.9436 N   0  0  0  0  0  0  0  0  0  0  0  0
  -21.9154  -28.6214   22.6883 N   0  0  0  0  0  0  0  0  0  0  0  0
  -23.8970  -14.9155   20.7838 N   0  0  0  0  0  0  0  0  0  0  0  0
  -24.4222  -20.9404   18.2419 N   0  0  0  0  0  0  0  0  0  0  0  0
  -21.8815  -23.3573   17.3638 N   0  3  0  0  0  0  0  0  0  0  0  0
  -18.7681  -24.1138   23.3516 N   0  3  1  0  0  0  0  0  0  0  0  0
  -26.8848  -25.4818   16.5053 O   0  0  0  0  0  0  0  0  0  0  0  0
  -24.3234  -16.7773   22.1159 O   0  0  0  0  0  0  0  0  0  0  0  0
  -24.4643  -18.0760   18.1935 O   0  0  0  0  0  0  0  0  0  0  0  0
  -23.3251  -22.4608   19.6063 O   0  0  0  0  0  0  0  0  0  0  0  0
  -21.6838  -30.9259   22.8206 O   0  0  0  0  0  0  0  0  0  0  0  0
  -31.3886  -23.4130   22.5072 O   0  0  0  0  0  0  0  0  0  0  0  0
  -20.3232  -20.1932   25.2807 O   0  0  0  0  0  0  0  0  0  1  0  0
  -31.3248  -17.9564   21.7166 F   0  0  0  0  0  0  0  0  0  0  0  0
  -31.6094  -22.3453   19.9668 F   0  0  0  0  0  0  0  0  0  0  0  0
  -20.1180  -29.9186   21.0655 F   0  0  0  0  0  0  0  0  0  0  0  0
  -21.2305  -26.1873   24.3415 Cl  0  0  0  0  0  0  0  0  0  0  0  0
  1  2  1  0  0  0  0
  1  5  2  0  0  0  0
  2  6  2  0  0  0  0
  3  8  2  0  0  0  0
  3 16  1  0  0  0  0
  4  9  1  0  0  0  0
  4 16  2  0  0  0  0
  5 18  1  0  0  0  0
  6 20  1  0  0  0  0
  7 10  2  0  0  0  0
  7 19  1  0  0  0  0
  8 25  1  0  0  0  0
  9 25  2  0  0  0  0
 10 26  1  0  0  0  0
 11 12  2  0  0  0  0
 11 27  1  0  0  0  0
 12 28  1  0  0  0  0
 13 21  1  0  0  0  0
 13 26  2  0  0  0  0
 14 22  2  0  0  0  0
 14 23  1  0  0  0  0
 15 28  2  0  0  0  0
 15 29  1  0  0  0  0
 16 32  1  0  0  0  0
 17 32  1  0  0  0  0
 17 33  2  0  0  0  0
 17 34  1  0  0  0  0
 18 20  2  0  0  0  0
 18 39  1  0  0  0  0
 19 21  2  0  0  0  0
 19 40  1  0  0  0  0
 20 48  1  0  0  0  0
 21 41  1  0  0  0  0
 22 30  1  0  0  0  0
 22 51  1  0  0  0  0
 23 31  2  0  0  0  0
 23 60  1  0  0  0  0
 24 30  2  0  0  0  0
 24 31  1  0  0  0  0
 24 74  1  0  0  0  0
 25 84  1  0  0  0  0
 26 85  1  0  0  0  0
 27 29  2  0  0  0  0
 27 84  1  0  0  0  0
 28 86  1  0  0  0  0
 29 87  1  0  0  0  0
 30 88  1  0  0  0  0
 31 89  1  0  0  0  0
 32 68  2  0  0  0  0
 33 69  1  0  0  0  0
 33 72  1  0  0  0  0
 34 73  1  0  0  0  0
 34 79  2  0  0  0  0
 35 49  1  0  0  0  0
 35 75  1  0  0  0  0
 35 80  2  0  0  0  0
 36 64  1  0  0  0  0
 36 70  1  0  0  0  0
 36 81  2  0  0  0  0
 37 65  1  0  0  0  0
 37 76  1  0  0  0  0
 37 82  2  0  0  0  0
 38 71  1  0  0  0  0
 38 74  1  0  0  0  0
 38 83  2  0  0  0  0
 39 42  1  0  0  0  0
 40 49  1  0  0  0  0
 41 70  1  0  0  0  0
 42 44  1  0  0  0  0
 43 45  1  0  0  0  0
 43 46  1  0  0  0  0
 44 48  1  0  0  0  0
 45 50  1  0  0  0  0
 46 71  1  0  0  0  0
 47 50  1  0  0  0  0
 47 71  1  0  0  0  0
 48 75  1  0  0  0  0
 49 70  1  0  0  0  0
 50 69  1  0  0  0  0
 52 65  1  0  0  0  0
 53 66  1  0  0  0  0
 54 66  1  0  0  0  0
 55 66  1  0  0  0  0
 56 67  1  0  0  0  0
 57 67  1  0  0  0  0
 58 77  1  0  0  0  0
 59 78  1  0  0  0  0
 60 78  1  0  0  0  0
 61 62  1  0  0  0  0
 61 67  1  0  0  0  0
 62 78  1  0  0  0  0
 63 67  1  0  0  0  0
 63 85  1  0  0  0  0
 64 66  1  0  0  0  0
 64 76  1  0  0  0  0
 65 77  1  0  0  0  0
 68 69  1  0  0  0  0
M  CHG  2  77   1  78   1
M  ISO  4  38 100  63 101  74 100  85 101
M  END
> <Batch ID>
0014

> <Smiles>
CNC(C)C(=O)NC(C(=O)N1Cc2cc([101O:1][101CH2:1]C(C)(C)CCN(C)Cc3cc(C)c(F)c([100NH:0][100C:0](=O)N4CCCC(n5nc(-c6ccc(Oc7ccc(F)cc7F)cc6)c(C(N)=O)c5N)C4)c3Cl)ccc2CC1C(=O)NC1CCCc2ccccc21)C(C)(C)C

> <Shape>
0.197

> <Color>
0.067

> <Negative vol penalty>
0.000

$$$$

  -OEChem-04052315533D

 86 93  0     1  0  0  0  0  0999 V2000
  -17.8184  -27.5842   26.2296 C   0  0  0  0  0  0  0  0  0  0  0  0
  -18.7323  -26.5382   26.3072 C   0  0  0  0  0  0  0  0  0  0  0  0
  -23.3429  -13.1844   19.4672 C   0  0  0  0  0  0  0  0  0  0  0  0
  -25.1033  -12.4485   20.9494 C   0  0  0  0  0  0  0  0  0  0  0  0
  -17.6691  -28.2909   25.0370 C   0  0  0  0  0  0  0  0  0  0  0  0
  -19.4967  -26.1976   25.1918 C   0  0  0  0  0  0  0  0  0  0  0  0
  -25.2668  -24.1452   25.1705 C   0  0  0  0  0  0  0  0  0  0  0  0
  -23.0661  -11.8577   19.1373 C   0  0  0  0  0  0  0  0  0  0  0  0
  -24.8264  -11.1218   20.6195 C   0  0  0  0  0  0  0  0  0  0  0  0
  -25.8060  -22.8632   25.0727 C   0  0  0  0  0  0  0  0  0  0  0  0
  -24.3447   -7.5226   20.4424 C   0  0  0  0  0  0  0  0  0  0  0  0
  -24.2808   -6.5948   21.4820 C   0  0  0  0  0  0  0  0  0  0  0  0
  -26.1002  -23.1747   22.6987 C   0  0  0  0  0  0  0  0  0  0  0  0
  -22.4746   -7.8456   22.4872 C   0  0  0  0  0  0  0  0  0  0  0  0
  -24.3616  -13.4798   20.3732 C   0  0  0  0  0  0  0  0  0  0  0  0
  -24.0820  -15.6023   21.7605 C   0  0  0  0  0  0  0  0  0  0  0  0
  -18.4390  -27.9651   23.9093 C   0  0  0  0  0  0  0  0  0  0  0  0
  -25.1300  -24.9488   24.0295 C   0  0  0  0  0  0  0  0  0  0  0  0
  -19.3566  -26.8997   23.9826 C   0  0  0  0  0  0  0  0  0  0  0  0
  -25.5614  -24.4674   22.7852 C   0  0  0  0  0  0  0  0  0  0  0  0
  -23.8078  -10.8264   19.7135 C   0  0  0  0  0  0  0  0  0  0  0  0
  -26.2201  -22.3767   23.8362 C   0  0  0  0  0  0  0  0  0  0  0  0
  -23.4736   -8.6119   20.4252 C   0  0  0  0  0  0  0  0  0  0  0  0
  -23.3457   -6.7563   22.5044 C   0  0  0  0  0  0  0  0  0  0  0  0
  -22.5385   -8.7734   21.4476 C   0  0  0  0  0  0  0  0  0  0  0  0
  -24.6484  -14.8501   20.7140 C   0  0  0  0  0  0  0  0  0  0  0  0
  -24.6815  -16.8341   21.6614 C   0  0  0  0  0  0  0  0  0  0  0  0
  -23.1017  -15.2216   22.7350 C   0  0  0  0  0  0  0  0  0  0  0  0
  -22.6778  -26.2640   22.4930 C   0  0  0  0  0  0  0  0  0  0  0  0
  -25.0257  -27.6539   20.7387 C   0  0  0  0  0  0  0  0  0  0  0  0
  -28.8528  -19.7986   25.6138 C   0  0  0  0  0  0  0  0  0  0  0  0
  -31.9195  -20.7866   20.5053 C   0  0  0  0  0  0  0  0  0  0  0  0
  -28.2488  -27.5598   19.6209 C   0  0  0  0  0  0  0  0  0  0  0  0
  -29.8977  -18.5042   19.4574 C   0  0  0  0  0  0  0  0  0  0  0  0
  -18.2086  -28.7269   22.6282 C   0  0  0  0  0  0  0  0  0  0  0  0
  -24.5711  -26.3395   24.1561 C   0  0  0  0  0  0  0  0  0  0  0  0
  -25.4548  -25.2981   21.5333 C   0  0  0  0  0  0  0  0  0  0  0  0
  -19.3249  -28.5461   21.6029 C   0  0  0  0  0  0  0  0  0  0  0  0
  -26.6644  -19.7872   18.4590 C   0  0  0  0  0  0  0  0  0  0  0  0
  -19.6966  -27.0725   21.4726 C   0  0  0  0  0  0  0  0  0  0  0  0
  -25.7252  -18.7243   19.0321 C   0  0  0  0  0  0  0  0  0  0  0  0
  -27.9472  -19.1597   17.9217 C   0  0  0  0  0  0  0  0  0  0  0  0
  -27.7514  -17.2653   19.4858 C   0  0  0  0  0  0  0  0  0  0  0  0
  -20.2218  -26.5163   22.8017 C   0  0  1  0  0  0  0  0  0  0  0  0
  -24.0035  -26.8769   22.8460 C   0  0  1  0  0  0  0  0  0  0  0  0
  -26.4456  -17.8386   20.0659 C   0  0  2  0  0  0  0  0  0  0  0  0
  -29.7050  -20.2084   26.7888 C   0  0  0  0  0  0  0  0  0  0  0  0
  -32.7927  -20.4458   18.1799 C   0  0  0  0  0  0  0  0  0  0  0  0
  -29.8685  -28.8139   18.1714 C   0  0  0  0  0  0  0  0  0  0  0  0
  -23.6405  -26.5609   18.2494 C   0  0  0  0  0  0  0  0  0  0  0  0
  -25.7450  -27.0055   16.9681 C   0  0  0  0  0  0  0  0  0  0  0  0
  -24.5051  -28.8964   18.0215 C   0  0  0  0  0  0  0  0  0  0  0  0
  -30.0882  -28.0379   21.8896 C   0  0  0  0  0  0  0  0  0  0  0  0
  -33.1427  -20.5551   23.8512 C   0  0  0  0  0  0  0  0  0  0  0  0
  -31.8026  -19.8400   24.0554 C   0  0  0  0  0  0  0  0  0  0  0  0
  -33.1707  -21.3903   22.5750 C   0  0  0  0  0  0  0  0  0  0  0  0
  -30.6412  -20.8195   24.1719 C   0  0  0  0  0  0  0  0  0  0  0  0
  -28.6545  -19.7942   23.1324 C   0  0  0  0  0  0  0  0  0  0  0  0
  -27.7104  -20.9054   22.7092 C   0  0  0  0  0  0  0  0  0  1  0  0
  -25.7869  -27.2848   19.4883 C   0  0  1  0  0  0  0  0  0  0  0  0
  -31.9859  -19.8370   19.3162 C   0  0  2  0  0  0  0  0  0  0  0  0
  -29.3328  -28.6219   19.5816 C   0  0  2  0  0  0  0  0  0  0  0  0
  -24.9197  -27.4203   18.2049 C   0  0  0  0  0  0  0  0  0  0  0  0
  -25.5392  -15.5459   20.0023 N   0  0  0  0  0  0  0  0  0  0  0  0
  -25.5369  -16.7483   20.6026 N   0  0  0  0  0  0  0  0  0  0  0  0
  -24.8959  -26.6489   21.7077 N   0  0  0  0  0  0  0  0  0  0  0  0
  -28.5935  -18.3450   18.9603 N   0  0  0  0  0  0  0  0  0  0  0  0
  -24.5550  -17.9715   22.3775 N   0  0  0  0  0  0  0  0  0  0  0  0
  -22.5901  -13.9174   22.6939 N   0  0  0  0  0  0  0  0  0  0  0  0
  -21.5901  -26.9346   23.0191 N   0  0  0  0  0  0  0  0  0  0  0  0
  -32.9734  -20.5949   21.3950 N   0  0  0  0  0  0  0  0  0  0  0  0
  -26.9911  -28.1084   19.4855 N   0  0  0  0  0  0  0  0  0  0  0  0
  -30.6315  -19.5454   18.9023 N   0  0  0  0  0  0  0  0  0  0  0  0
  -29.3609  -20.1242   24.3417 N   0  0  0  0  0  0  0  0  0  0  0  0
  -30.4678  -28.2367   20.4672 N   0  3  0  0  0  0  0  0  0  0  0  0
  -22.6795  -16.0195   23.6060 O   0  0  0  0  0  0  0  0  0  0  0  0
  -22.6441  -25.2582   21.7939 O   0  0  0  0  0  0  0  0  0  0  0  0
  -24.5695  -28.7941   20.8545 O   0  0  0  0  0  0  0  0  0  0  0  0
  -27.7847  -19.2159   25.8191 O   0  0  0  0  0  0  0  0  0  0  0  0
  -31.0497  -21.6467   20.6265 O   0  0  0  0  0  0  0  0  0  0  0  0
  -28.4937  -26.3628   19.7544 O   0  0  0  0  0  0  0  0  0  0  0  0
  -30.3718  -17.7753   20.3356 O   0  0  0  0  0  0  0  0  0  0  0  0
  -23.5378   -9.5317   19.3920 O   0  0  0  0  0  0  0  0  0  0  0  0
  -26.7462  -21.1255   23.7378 O   0  0  0  0  0  0  0  0  0  1  0  0
  -23.2834   -5.8644   23.5018 F   0  0  0  0  0  0  0  0  0  0  0  0
  -21.6983   -9.8173   21.4359 F   0  0  0  0  0  0  0  0  0  0  0  0
  1  2  1  0  0  0  0
  1  5  2  0  0  0  0
  2  6  2  0  0  0  0
  3  8  2  0  0  0  0
  3 15  1  0  0  0  0
  4  9  1  0  0  0  0
  4 15  2  0  0  0  0
  5 17  1  0  0  0  0
  6 19  1  0  0  0  0
  7 10  2  0  0  0  0
  7 18  1  0  0  0  0
  8 21  1  0  0  0  0
  9 21  2  0  0  0  0
 10 22  1  0  0  0  0
 11 12  2  0  0  0  0
 11 23  1  0  0  0  0
 12 24  1  0  0  0  0
 13 20  1  0  0  0  0
 13 22  2  0  0  0  0
 14 24  2  0  0  0  0
 14 25  1  0  0  0  0
 15 26  1  0  0  0  0
 16 26  1  0  0  0  0
 16 27  2  0  0  0  0
 16 28  1  0  0  0  0
 17 19  2  0  0  0  0
 17 35  1  0  0  0  0
 18 20  2  0  0  0  0
 18 36  1  0  0  0  0
 19 44  1  0  0  0  0
 20 37  1  0  0  0  0
 21 83  1  0  0  0  0
 22 84  1  0  0  0  0
 23 25  2  0  0  0  0
 23 83  1  0  0  0  0
 24 85  1  0  0  0  0
 25 86  1  0  0  0  0
 26 64  2  0  0  0  0
 27 65  1  0  0  0  0
 27 68  1  0  0  0  0
 28 69  1  0  0  0  0
 28 76  2  0  0  0  0
 29 45  1  0  0  0  0
 29 70  1  0  0  0  0
 29 77  2  0  0  0  0
 30 60  1  0  0  0  0
 30 66  1  0  0  0  0
 30 78  2  0  0  0  0
 31 47  1  0  0  0  0
 31 74  1  0  0  0  0
 31 79  2  0  0  0  0
 32 61  1  0  0  0  0
 32 71  1  0  0  0  0
 32 80  2  0  0  0  0
 33 62  1  0  0  0  0
 33 72  1  0  0  0  0
 33 81  2  0  0  0  0
 34 67  1  0  0  0  0
 34 73  1  0  0  0  0
 34 82  2  0  0  0  0
 35 38  1  0  0  0  0
 36 45  1  0  0  0  0
 37 66  1  0  0  0  0
 38 40  1  0  0  0  0
 39 41  1  0  0  0  0
 39 42  1  0  0  0  0
 40 44  1  0  0  0  0
 41 46  1  0  0  0  0
 42 67  1  0  0  0  0
 43 46  1  0  0  0  0
 43 67  1  0  0  0  0
 44 70  1  0  0  0  0
 45 66  1  0  0  0  0
 46 65  1  0  0  0  0
 48 61  1  0  0  0  0
 49 62  1  0  0  0  0
 50 63  1  0  0  0  0
 51 63  1  0  0  0  0
 52 63  1  0  0  0  0
 53 75  1  0  0  0  0
 54 55  1  0  0  0  0
 54 56  1  0  0  0  0
 55 57  1  0  0  0  0
 56 71  1  0  0  0  0
 57 74  1  0  0  0  0
 58 59  1  0  0  0  0
 58 74  1  0  0  0  0
 59 84  1  0  0  0  0
 60 63  1  0  0  0  0
 60 72  1  0  0  0  0
 61 73  1  0  0  0  0
 62 75  1  0  0  0  0
 64 65  1  0  0  0  0
M  CHG  1  75   1
M  ISO  4  34 100  59 101  73 100  84 101
M  END
> <Batch ID>
0014

> <Smiles>
CNC(C)C(=O)NC(C(=O)N1Cc2cc([101O:1][101CH2:1]CN(CCCCNC(=O)C(C)[100NH:0][100C:0](=O)N3CCCC(n4nc(-c5ccc(Oc6ccc(F)cc6F)cc5)c(C(N)=O)c4N)C3)C(C)=O)ccc2CC1C(=O)NC1CCCc2ccccc21)C(C)(C)C

> <Shape>
0.188

> <Color>
0.071

> <Negative vol penalty>
0.000

$$$$

  -OEChem-04052315533D

 84 92  0     1  0  0  0  0  0999 V2000
  -36.9438  -31.1235   27.2179 C   0  0  0  0  0  0  0  0  0  0  0  0
  -36.6375  -29.7772   27.3887 C   0  0  0  0  0  0  0  0  0  0  0  0
  -23.0777   -9.8646   19.9446 C   0  0  0  0  0  0  0  0  0  0  0  0
  -23.8332   -9.8802   22.2394 C   0  0  0  0  0  0  0  0  0  0  0  0
  -35.9529  -32.0168   26.8131 C   0  0  0  0  0  0  0  0  0  0  0  0
  -35.3397  -29.3236   27.1557 C   0  0  0  0  0  0  0  0  0  0  0  0
  -33.6959  -23.8944   24.8476 C   0  0  0  0  0  0  0  0  0  0  0  0
  -22.3337   -8.7121   20.1973 C   0  0  0  0  0  0  0  0  0  0  0  0
  -23.0892   -8.7277   22.4921 C   0  0  0  0  0  0  0  0  0  0  0  0
  -33.2633  -22.7124   25.4472 C   0  0  0  0  0  0  0  0  0  0  0  0
  -19.8601   -7.9310   23.0913 C   0  0  0  0  0  0  0  0  0  0  0  0
  -19.1009   -7.8951   24.2609 C   0  0  0  0  0  0  0  0  0  0  0  0
  -30.9724  -23.3642   25.0649 C   0  0  0  0  0  0  0  0  0  0  0  0
  -31.5674  -19.3829   22.8453 C   0  0  0  0  0  0  0  0  0  0  0  0
  -20.3415   -5.9608   25.0068 C   0  0  0  0  0  0  0  0  0  0  0  0
  -23.8275  -10.4486   20.9656 C   0  0  0  0  0  0  0  0  0  0  0  0
  -24.1687  -12.9734   20.8370 C   0  0  0  0  0  0  0  0  0  0  0  0
  -34.6445  -31.5722   26.5657 C   0  0  0  0  0  0  0  0  0  0  0  0
  -32.7683  -24.8267   24.3611 C   0  0  0  0  0  0  0  0  0  0  0  0
  -34.3299  -30.2121   26.7485 C   0  0  0  0  0  0  0  0  0  0  0  0
  -31.3959  -24.5561   24.4572 C   0  0  0  0  0  0  0  0  0  0  0  0
  -31.4484  -19.1524   21.4748 C   0  0  0  0  0  0  0  0  0  0  0  0
  -30.7000  -17.1728   23.2925 C   0  0  0  0  0  0  0  0  0  0  0  0
  -31.1932  -18.3931   23.7541 C   0  0  0  0  0  0  0  0  0  0  0  0
  -30.5809  -16.9423   21.9219 C   0  0  0  0  0  0  0  0  0  0  0  0
  -22.3394   -8.1437   21.4710 C   0  0  0  0  0  0  0  0  0  0  0  0
  -31.9013  -22.4485   25.5585 C   0  0  0  0  0  0  0  0  0  0  0  0
  -20.8600   -6.9818   22.8794 C   0  0  0  0  0  0  0  0  0  0  0  0
  -19.3416   -6.9100   25.2186 C   0  0  0  0  0  0  0  0  0  0  0  0
  -21.1007   -5.9967   23.8371 C   0  0  0  0  0  0  0  0  0  0  0  0
  -30.9551  -17.9321   21.0131 C   0  0  0  0  0  0  0  0  0  0  0  0
  -24.5967  -11.6388   20.7050 C   0  0  0  0  0  0  0  0  0  0  0  0
  -25.2614  -13.7220   20.4731 C   0  0  0  0  0  0  0  0  0  0  0  0
  -22.8973  -13.4904   21.2516 C   0  0  0  0  0  0  0  0  0  0  0  0
  -32.0589  -27.8496   25.0414 C   0  0  0  0  0  0  0  0  0  0  0  0
  -30.0955  -27.5579   22.4758 C   0  0  0  0  0  0  0  0  0  0  0  0
  -28.2960  -25.5102   20.4226 C   0  0  0  0  0  0  0  0  0  0  0  0
  -30.7269  -14.7700   20.6546 C   0  0  0  0  0  0  0  0  0  0  0  0
  -33.5958  -32.5835   26.1754 C   0  0  0  0  0  0  0  0  0  0  0  0
  -33.2517  -26.0847   23.6929 C   0  0  0  0  0  0  0  0  0  0  0  0
  -30.3598  -25.5151   23.9326 C   0  0  0  0  0  0  0  0  0  0  0  0
  -32.3344  -31.9567   25.5871 C   0  0  0  0  0  0  0  0  0  0  0  0
  -29.6178  -12.3472   18.2929 C   0  0  0  0  0  0  0  0  0  0  0  0
  -31.8745  -30.7799   26.4419 C   0  0  0  0  0  0  0  0  0  0  0  0
  -28.1774  -12.0567   18.7208 C   0  0  0  0  0  0  0  0  0  0  0  0
  -30.5305  -12.5807   19.4955 C   0  0  0  0  0  0  0  0  0  0  0  0
  -28.6207  -13.3095   20.8705 C   0  0  0  0  0  0  0  0  0  0  0  0
  -32.9396  -29.6774   26.4816 C   0  0  1  0  0  0  0  0  0  0  0  0
  -32.2109  -27.2001   23.6950 C   0  0  1  0  0  0  0  0  0  0  0  0
  -27.6502  -13.1317   19.6914 C   0  0  2  0  0  0  0  0  0  0  0  0
  -31.8623  -20.2420   20.5386 C   0  0  0  0  0  0  0  0  0  0  0  0
  -30.2997  -16.1132   24.2727 C   0  0  0  0  0  0  0  0  0  0  0  0
  -26.7625  -25.5657   18.4370 C   0  0  0  0  0  0  0  0  0  0  0  0
  -27.8229  -28.5361   24.2613 C   0  0  0  0  0  0  0  0  0  0  0  0
  -26.2053  -27.6782   22.5538 C   0  0  0  0  0  0  0  0  0  0  0  0
  -27.8143  -29.4855   21.9477 C   0  0  0  0  0  0  0  0  0  0  0  0
  -32.5608  -18.3125   25.8238 C   0  0  0  0  0  0  0  0  0  0  0  0
  -30.1513  -23.8740   18.7979 C   0  0  0  0  0  0  0  0  0  0  0  0
  -30.2428  -19.2464   25.8823 C   0  0  0  0  0  0  0  0  0  0  0  0
  -30.2383  -20.7532   25.6864 C   0  0  0  0  0  0  0  0  0  1  0  0
  -28.6639  -27.1260   22.2687 C   0  0  1  0  0  0  0  0  0  0  0  0
  -28.2018  -25.4314   18.9095 C   0  0  2  0  0  0  0  0  0  0  0  0
  -27.6458  -28.1891   22.7696 C   0  0  0  0  0  0  0  0  0  0  0  0
  -25.8624  -11.5419   20.2895 N   0  0  0  0  0  0  0  0  0  0  0  0
  -26.2391  -12.8251   20.1572 N   0  0  0  0  0  0  0  0  0  0  0  0
  -30.8821  -26.7341   23.2933 N   0  0  0  0  0  0  0  0  0  0  0  0
  -29.9695  -13.6145   20.3681 N   0  0  0  0  0  0  0  0  0  0  0  0
  -25.4715  -15.0532   20.3957 N   0  0  0  0  0  0  0  0  0  0  0  0
  -21.8850  -12.5821   21.5903 N   0  0  0  0  0  0  0  0  0  0  0  0
  -30.0776  -15.6978   21.4684 N   0  0  0  0  0  0  0  0  0  0  0  0
  -32.9187  -28.9101   25.2548 N   0  0  0  0  0  0  0  0  0  0  0  0
  -28.5372  -26.7978   20.8529 N   0  0  0  0  0  0  0  0  0  0  0  0
  -31.3181  -18.6454   25.1268 N   0  0  3  0  0  0  0  0  0  0  0  0
  -28.7360  -24.1274   18.4245 N   0  3  0  0  0  0  0  0  0  0  0  0
  -22.6605  -14.7211   21.3040 O   0  0  0  0  0  0  0  0  0  0  0  0
  -31.2224  -27.4213   25.8278 O   0  0  0  0  0  0  0  0  0  0  0  0
  -30.5029  -28.5845   21.9264 O   0  0  0  0  0  0  0  0  0  0  0  0
  -28.1649  -24.5284   21.1502 O   0  0  0  0  0  0  0  0  0  0  0  0
  -31.8568  -14.9374   20.1885 O   0  0  0  0  0  0  0  0  0  0  0  0
  -21.6134   -7.0193   21.7181 O   0  0  0  0  0  0  0  0  0  0  0  0
  -31.4762  -21.2959   26.1439 O   0  0  0  0  0  0  0  0  0  1  0  0
  -18.6135   -6.8766   26.3424 F   0  0  0  0  0  0  0  0  0  0  0  0
  -22.0607   -5.0828   23.6397 F   0  0  0  0  0  0  0  0  0  0  0  0
  -30.8129  -17.6546   19.3072 Cl  0  0  0  0  0  0  0  0  0  0  0  0
  1  2  1  0  0  0  0
  1  5  2  0  0  0  0
  2  6  2  0  0  0  0
  3  8  2  0  0  0  0
  3 16  1  0  0  0  0
  4  9  1  0  0  0  0
  4 16  2  0  0  0  0
  5 18  1  0  0  0  0
  6 20  1  0  0  0  0
  7 10  2  0  0  0  0
  7 19  1  0  0  0  0
  8 26  1  0  0  0  0
  9 26  2  0  0  0  0
 10 27  1  0  0  0  0
 11 12  2  0  0  0  0
 11 28  1  0  0  0  0
 12 29  1  0  0  0  0
 13 21  1  0  0  0  0
 13 27  2  0  0  0  0
 14 22  2  0  0  0  0
 14 24  1  0  0  0  0
 15 29  2  0  0  0  0
 15 30  1  0  0  0  0
 16 32  1  0  0  0  0
 17 32  1  0  0  0  0
 17 33  2  0  0  0  0
 17 34  1  0  0  0  0
 18 20  2  0  0  0  0
 18 39  1  0  0  0  0
 19 21  2  0  0  0  0
 19 40  1  0  0  0  0
 20 48  1  0  0  0  0
 21 41  1  0  0  0  0
 22 31  1  0  0  0  0
 22 51  1  0  0  0  0
 23 24  2  0  0  0  0
 23 25  1  0  0  0  0
 23 52  1  0  0  0  0
 24 73  1  0  0  0  0
 25 31  2  0  0  0  0
 25 70  1  0  0  0  0
 26 80  1  0  0  0  0
 27 81  1  0  0  0  0
 28 30  2  0  0  0  0
 28 80  1  0  0  0  0
 29 82  1  0  0  0  0
 30 83  1  0  0  0  0
 31 84  1  0  0  0  0
 32 64  2  0  0  0  0
 33 65  1  0  0  0  0
 33 68  1  0  0  0  0
 34 69  1  0  0  0  0
 34 75  2  0  0  0  0
 35 49  1  0  0  0  0
 35 71  1  0  0  0  0
 35 76  2  0  0  0  0
 36 61  1  0  0  0  0
 36 66  1  0  0  0  0
 36 77  2  0  0  0  0
 37 62  1  0  0  0  0
 37 72  1  0  0  0  0
 37 78  2  0  0  0  0
 38 67  1  0  0  0  0
 38 70  1  0  0  0  0
 38 79  2  0  0  0  0
 39 42  1  0  0  0  0
 40 49  1  0  0  0  0
 41 66  1  0  0  0  0
 42 44  1  0  0  0  0
 43 45  1  0  0  0  0
 43 46  1  0  0  0  0
 44 48  1  0  0  0  0
 45 50  1  0  0  0  0
 46 67  1  0  0  0  0
 47 50  1  0  0  0  0
 47 67  1  0  0  0  0
 48 71  1  0  0  0  0
 49 66  1  0  0  0  0
 50 65  1  0  0  0  0
 53 62  1  0  0  0  0
 54 63  1  0  0  0  0
 55 63  1  0  0  0  0
 56 63  1  0  0  0  0
 57 73  1  0  0  0  0
 58 74  1  0  0  0  0
 59 60  1  0  0  0  0
 59 73  1  0  0  0  0
 60 81  1  0  0  0  0
 61 63  1  0  0  0  0
 61 72  1  0  0  0  0
 62 74  1  0  0  0  0
 64 65  1  0  0  0  0
M  CHG  1  74   1
M  ISO  4  38 100  60 101  70 100  81 101
M  END
> <Batch ID>
0014

> <Smiles>
CNC(C)C(=O)NC(C(=O)N1Cc2cc([101O:1][101CH2:1]CN(C)c3cc(C)c(Cl)c([100NH:0][100C:0](=O)N4CCCC(n5nc(-c6ccc(Oc7ccc(F)cc7F)cc6)c(C(N)=O)c5N)C4)c3C)ccc2CC1C(=O)NC1CCCc2ccccc21)C(C)(C)C

> <Shape>
0.223

> <Color>
0.200

> <Negative vol penalty>
0.000

$$$$

  -OEChem-04052315533D

 85 93  0     1  0  0  0  0  0999 V2000
  -26.3576  -35.0589   23.8697 C   0  0  0  0  0  0  0  0  0  0  0  0
  -26.8396  -33.7834   23.5939 C   0  0  0  0  0  0  0  0  0  0  0  0
  -24.1667   -9.3605   20.5169 C   0  0  0  0  0  0  0  0  0  0  0  0
  -22.9513  -11.4444   20.6474 C   0  0  0  0  0  0  0  0  0  0  0  0
  -25.0274  -35.2332   24.2496 C   0  0  0  0  0  0  0  0  0  0  0  0
  -25.9919  -32.6812   23.6988 C   0  0  0  0  0  0  0  0  0  0  0  0
  -26.4466  -29.5009   19.7842 C   0  0  0  0  0  0  0  0  0  0  0  0
  -23.0150   -8.6656   20.8862 C   0  0  0  0  0  0  0  0  0  0  0  0
  -21.7996  -10.7496   21.0167 C   0  0  0  0  0  0  0  0  0  0  0  0
  -27.5473  -28.6452   19.7835 C   0  0  0  0  0  0  0  0  0  0  0  0
  -20.1604   -7.6127   19.4112 C   0  0  0  0  0  0  0  0  0  0  0  0
  -19.8404   -6.4603   18.6935 C   0  0  0  0  0  0  0  0  0  0  0  0
  -26.1493  -26.8560   20.5981 C   0  0  0  0  0  0  0  0  0  0  0  0
  -30.3243  -19.1096   20.6796 C   0  0  0  0  0  0  0  0  0  0  0  0
  -19.9803   -5.1573   20.7232 C   0  0  0  0  0  0  0  0  0  0  0  0
  -24.1349  -10.7499   20.3975 C   0  0  0  0  0  0  0  0  0  0  0  0
  -25.7402  -11.7927   18.7114 C   0  0  0  0  0  0  0  0  0  0  0  0
  -24.1605  -34.1336   24.3500 C   0  0  0  0  0  0  0  0  0  0  0  0
  -25.1891  -29.0427   20.2029 C   0  0  0  0  0  0  0  0  0  0  0  0
  -24.6493  -32.8408   24.0818 C   0  0  0  0  0  0  0  0  0  0  0  0
  -25.0336  -27.7072   20.6007 C   0  0  0  0  0  0  0  0  0  0  0  0
  -30.4582  -20.4283   20.2453 C   0  0  0  0  0  0  0  0  0  0  0  0
  -30.0224  -20.7905   18.9708 C   0  0  0  0  0  0  0  0  0  0  0  0
  -29.4528  -19.8340   18.1304 C   0  0  0  0  0  0  0  0  0  0  0  0
  -29.7547  -18.1530   19.8392 C   0  0  0  0  0  0  0  0  0  0  0  0
  -21.8314   -9.3602   21.1361 C   0  0  0  0  0  0  0  0  0  0  0  0
  -27.3994  -27.3234   20.1933 C   0  0  0  0  0  0  0  0  0  0  0  0
  -20.3905   -7.5374   20.7849 C   0  0  0  0  0  0  0  0  0  0  0  0
  -19.7503   -5.2326   19.3494 C   0  0  0  0  0  0  0  0  0  0  0  0
  -20.3004   -6.3097   21.4409 C   0  0  0  0  0  0  0  0  0  0  0  0
  -29.3189  -18.5152   18.5646 C   0  0  0  0  0  0  0  0  0  0  0  0
  -25.3244  -11.4683   20.0166 C   0  0  0  0  0  0  0  0  0  0  0  0
  -26.9213  -12.4716   18.8861 C   0  0  0  0  0  0  0  0  0  0  0  0
  -25.1146  -11.5062   17.4535 C   0  0  0  0  0  0  0  0  0  0  0  0
  -23.1904  -29.8099   22.5525 C   0  0  0  0  0  0  0  0  0  0  0  0
  -21.2359  -27.6990   21.0538 C   0  0  0  0  0  0  0  0  0  0  0  0
  -29.4074  -24.4334   19.3192 C   0  0  0  0  0  0  0  0  0  0  0  0
  -20.9261  -25.0024   18.9851 C   0  0  0  0  0  0  0  0  0  0  0  0
  -30.0006  -16.2914   21.5186 C   0  0  0  0  0  0  0  0  0  0  0  0
  -22.7432  -34.3663   24.8101 C   0  0  0  0  0  0  0  0  0  0  0  0
  -24.0060  -29.9711   20.1724 C   0  0  0  0  0  0  0  0  0  0  0  0
  -23.7007  -27.1606   21.0401 C   0  0  0  0  0  0  0  0  0  0  0  0
  -21.8122  -33.1884   24.5345 C   0  0  0  0  0  0  0  0  0  0  0  0
  -29.8029  -13.0623   23.0055 C   0  0  0  0  0  0  0  0  0  0  0  0
  -22.4692  -31.8783   24.9574 C   0  0  0  0  0  0  0  0  0  0  0  0
  -28.6543  -12.3864   22.2531 C   0  0  0  0  0  0  0  0  0  0  0  0
  -29.5366  -14.5498   23.2293 C   0  0  0  0  0  0  0  0  0  0  0  0
  -28.0506  -14.6333   21.2662 C   0  0  0  0  0  0  0  0  0  0  0  0
  -23.7542  -31.6231   24.1604 C   0  0  1  0  0  0  0  0  0  0  0  0
  -22.8816  -29.5370   21.1075 C   0  0  1  0  0  0  0  0  0  0  0  0
  -28.3024  -13.1479   20.9600 C   0  0  2  0  0  0  0  0  0  0  0  0
  -31.0712  -21.4336   21.1644 C   0  0  0  0  0  0  0  0  0  0  0  0
  -28.9799  -20.1997   16.7615 C   0  0  0  0  0  0  0  0  0  0  0  0
  -19.2042  -23.4808   17.9767 C   0  0  0  0  0  0  0  0  0  0  0  0
  -20.9386  -26.2652   23.7307 C   0  0  0  0  0  0  0  0  0  0  0  0
  -20.0285  -24.2890   22.4921 C   0  0  0  0  0  0  0  0  0  0  0  0
  -18.8209  -26.4704   22.4164 C   0  0  0  0  0  0  0  0  0  0  0  0
  -21.6768  -25.7868   16.2319 C   0  0  0  0  0  0  0  0  0  0  0  0
  -30.1670  -22.2101   18.5036 C   0  0  0  0  0  0  0  0  0  0  0  0
  -28.2150  -25.1005   19.9709 C   0  0  0  0  0  0  0  0  0  1  0  0
  -20.9938  -26.2120   21.1500 C   0  0  1  0  0  0  0  0  0  0  0  0
  -20.0247  -24.7476   17.7906 C   0  0  2  0  0  0  0  0  0  0  0  0
  -20.2211  -25.8197   22.4409 C   0  0  0  0  0  0  0  0  0  0  0  0
  -26.1725  -11.9049   20.9515 N   0  0  0  0  0  0  0  0  0  0  0  0
  -27.1331  -12.5106   20.2329 N   0  0  0  0  0  0  0  0  0  0  0  0
  -22.5755  -28.1092   20.9987 N   0  0  0  0  0  0  0  0  0  0  0  0
  -29.2142  -15.2065   21.9606 N   0  0  0  0  0  0  0  0  0  0  0  0
  -27.7891  -13.0329   18.0175 N   0  0  0  0  0  0  0  0  0  0  0  0
  -23.9043  -10.7994   17.4548 N   0  0  0  0  0  0  0  0  0  0  0  0
  -29.6195  -16.8142   20.2833 N   0  0  0  0  0  0  0  0  0  0  0  0
  -23.4382  -31.1400   22.8333 N   0  0  0  0  0  0  0  0  0  0  0  0
  -29.1868  -23.0811   19.1097 N   0  0  0  0  0  0  0  0  0  0  0  0
  -20.3243  -25.8265   19.9125 N   0  0  0  0  0  0  0  0  0  0  0  0
  -20.8376  -24.6030   16.5498 N   0  3  0  0  0  0  0  0  0  0  0  0
  -25.6225  -11.8519   16.3598 O   0  0  0  0  0  0  0  0  0  0  0  0
  -23.2015  -28.8827   23.3535 O   0  0  0  0  0  0  0  0  0  0  0  0
  -20.2718  -28.4678   21.0213 O   0  0  0  0  0  0  0  0  0  0  0  0
  -30.4317  -25.0437   19.0255 O   0  0  0  0  0  0  0  0  0  0  0  0
  -22.0501  -24.5159   19.0873 O   0  0  0  0  0  0  0  0  0  0  0  0
  -30.9595  -16.7073   22.1739 O   0  0  0  0  0  0  0  0  0  0  0  0
  -20.7073   -8.6825   21.4963 O   0  0  0  0  0  0  0  0  0  0  0  0
  -28.4722  -26.4862   20.1942 O   0  0  0  0  0  0  0  0  0  1  0  0
  -19.4415   -4.1263   18.6603 F   0  0  0  0  0  0  0  0  0  0  0  0
  -20.5192   -6.2313   22.7607 F   0  0  0  0  0  0  0  0  0  0  0  0
  -28.7710  -17.5956   17.7557 F   0  0  0  0  0  0  0  0  0  0  0  0
  1  2  1  0  0  0  0
  1  5  2  0  0  0  0
  2  6  2  0  0  0  0
  3  8  2  0  0  0  0
  3 16  1  0  0  0  0
  4  9  1  0  0  0  0
  4 16  2  0  0  0  0
  5 18  1  0  0  0  0
  6 20  1  0  0  0  0
  7 10  2  0  0  0  0
  7 19  1  0  0  0  0
  8 26  1  0  0  0  0
  9 26  2  0  0  0  0
 10 27  1  0  0  0  0
 11 12  2  0  0  0  0
 11 28  1  0  0  0  0
 12 29  1  0  0  0  0
 13 21  1  0  0  0  0
 13 27  2  0  0  0  0
 14 22  2  0  0  0  0
 14 25  1  0  0  0  0
 15 29  2  0  0  0  0
 15 30  1  0  0  0  0
 16 32  1  0  0  0  0
 17 32  1  0  0  0  0
 17 33  2  0  0  0  0
 17 34  1  0  0  0  0
 18 20  2  0  0  0  0
 18 40  1  0  0  0  0
 19 21  2  0  0  0  0
 19 41  1  0  0  0  0
 20 49  1  0  0  0  0
 21 42  1  0  0  0  0
 22 23  1  0  0  0  0
 22 52  1  0  0  0  0
 23 24  2  0  0  0  0
 23 59  1  0  0  0  0
 24 31  1  0  0  0  0
 24 53  1  0  0  0  0
 25 31  2  0  0  0  0
 25 70  1  0  0  0  0
 26 81  1  0  0  0  0
 27 82  1  0  0  0  0
 28 30  2  0  0  0  0
 28 81  1  0  0  0  0
 29 83  1  0  0  0  0
 30 84  1  0  0  0  0
 31 85  1  0  0  0  0
 32 64  2  0  0  0  0
 33 65  1  0  0  0  0
 33 68  1  0  0  0  0
 34 69  1  0  0  0  0
 34 75  2  0  0  0  0
 35 50  1  0  0  0  0
 35 71  1  0  0  0  0
 35 76  2  0  0  0  0
 36 61  1  0  0  0  0
 36 66  1  0  0  0  0
 36 77  2  0  0  0  0
 37 60  1  0  0  0  0
 37 72  1  0  0  0  0
 37 78  2  0  0  0  0
 38 62  1  0  0  0  0
 38 73  1  0  0  0  0
 38 79  2  0  0  0  0
 39 67  1  0  0  0  0
 39 70  1  0  0  0  0
 39 80  2  0  0  0  0
 40 43  1  0  0  0  0
 41 50  1  0  0  0  0
 42 66  1  0  0  0  0
 43 45  1  0  0  0  0
 44 46  1  0  0  0  0
 44 47  1  0  0  0  0
 45 49  1  0  0  0  0
 46 51  1  0  0  0  0
 47 67  1  0  0  0  0
 48 51  1  0  0  0  0
 48 67  1  0  0  0  0
 49 71  1  0  0  0  0
 50 66  1  0  0  0  0
 51 65  1  0  0  0  0
 54 62  1  0  0  0  0
 55 63  1  0  0  0  0
 56 63  1  0  0  0  0
 57 63  1  0  0  0  0
 58 74  1  0  0  0  0
 59 72  1  0  0  0  0
 60 82  1  0  0  0  0
 61 63  1  0  0  0  0
 61 73  1  0  0  0  0
 62 74  1  0  0  0  0
 64 65  1  0  0  0  0
M  CHG  1  74   1
M  ISO  4  39 100  60 101  70 100  82 101
M  END
> <Batch ID>
0014

> <Smiles>
CNC(C)C(=O)NC(C(=O)N1Cc2cc([101O:1][101CH2:1]C(=O)NCc3c(C)cc([100NH:0][100C:0](=O)N4CCCC(n5nc(-c6ccc(Oc7ccc(F)cc7F)cc6)c(C(N)=O)c5N)C4)c(F)c3C)ccc2CC1C(=O)NC1CCCc2ccccc21)C(C)(C)C

> <Shape>
0.311

> <Color>
0.094

> <Negative vol penalty>
0.000

$$$$

  -OEChem-04052315533D

 91 99  0     1  0  0  0  0  0999 V2000
  -17.4569  -30.6084   29.4875 C   0  0  0  0  0  0  0  0  0  0  0  0
  -17.3021  -29.3359   28.9471 C   0  0  0  0  0  0  0  0  0  0  0  0
  -30.6649  -19.4808   19.1307 C   0  0  0  0  0  0  0  0  0  0  0  0
  -28.9026  -19.6670   20.7728 C   0  0  0  0  0  0  0  0  0  0  0  0
  -17.9606  -31.6426   28.6997 C   0  0  0  0  0  0  0  0  0  0  0  0
  -17.6499  -29.0970   27.6181 C   0  0  0  0  0  0  0  0  0  0  0  0
  -20.0472  -23.9573   25.3067 C   0  0  0  0  0  0  0  0  0  0  0  0
  -30.4055  -20.7834   18.7046 C   0  0  0  0  0  0  0  0  0  0  0  0
  -28.6432  -20.9696   20.3467 C   0  0  0  0  0  0  0  0  0  0  0  0
  -19.4787  -22.8783   24.6311 C   0  0  0  0  0  0  0  0  0  0  0  0
  -28.1413  -22.3607   16.7527 C   0  0  0  0  0  0  0  0  0  0  0  0
  -28.0821  -22.5925   15.3786 C   0  0  0  0  0  0  0  0  0  0  0  0
  -20.0782  -23.8894   22.5245 C   0  0  0  0  0  0  0  0  0  0  0  0
  -21.3305  -15.3023   19.4188 C   0  0  0  0  0  0  0  0  0  0  0  0
  -21.4123  -17.2653   21.3994 C   0  0  0  0  0  0  0  0  0  0  0  0
  -29.9072  -24.1645   15.5651 C   0  0  0  0  0  0  0  0  0  0  0  0
  -29.9134  -18.9226   20.1648 C   0  0  0  0  0  0  0  0  0  0  0  0
  -31.0770  -17.1744   21.6132 C   0  0  0  0  0  0  0  0  0  0  0  0
  -18.3239  -31.4140   27.3631 C   0  0  0  0  0  0  0  0  0  0  0  0
  -20.6267  -25.0174   24.5949 C   0  0  0  0  0  0  0  0  0  0  0  0
  -18.1578  -30.1294   26.8112 C   0  0  0  0  0  0  0  0  0  0  0  0
  -20.6556  -24.9794   23.1936 C   0  0  0  0  0  0  0  0  0  0  0  0
  -22.5408  -15.9146   19.7442 C   0  0  0  0  0  0  0  0  0  0  0  0
  -20.2020  -16.6530   21.0739 C   0  0  0  0  0  0  0  0  0  0  0  0
  -29.3947  -21.5278   19.3126 C   0  0  0  0  0  0  0  0  0  0  0  0
  -19.4916  -22.8457   23.2397 C   0  0  0  0  0  0  0  0  0  0  0  0
  -29.0834  -23.0308   17.5331 C   0  0  0  0  0  0  0  0  0  0  0  0
  -28.9651  -23.4944   14.7848 C   0  0  0  0  0  0  0  0  0  0  0  0
  -20.1611  -15.6715   20.0836 C   0  0  0  0  0  0  0  0  0  0  0  0
  -22.5817  -16.8960   20.7345 C   0  0  0  0  0  0  0  0  0  0  0  0
  -29.9664  -23.9327   16.9393 C   0  0  0  0  0  0  0  0  0  0  0  0
  -30.1805  -17.5769   20.6051 C   0  0  0  0  0  0  0  0  0  0  0  0
  -30.9632  -15.8061   21.6475 C   0  0  0  0  0  0  0  0  0  0  0  0
  -31.9357  -17.9666   22.4442 C   0  0  0  0  0  0  0  0  0  0  0  0
  -20.0448  -28.1320   24.3409 C   0  0  0  0  0  0  0  0  0  0  0  0
  -22.7785  -28.1041   22.5948 C   0  0  0  0  0  0  0  0  0  0  0  0
  -26.5190  -12.1068   20.0114 C   0  0  0  0  0  0  0  0  0  0  0  0
  -24.9695  -26.3305   20.6711 C   0  0  0  0  0  0  0  0  0  0  0  0
  -25.1632  -14.1910   20.5852 C   0  0  0  0  0  0  0  0  0  0  0  0
  -18.8197  -32.5743   26.5370 C   0  0  0  0  0  0  0  0  0  0  0  0
  -21.2595  -26.1612   25.3391 C   0  0  0  0  0  0  0  0  0  0  0  0
  -21.2834  -26.0828   22.3831 C   0  0  0  0  0  0  0  0  0  0  0  0
  -19.5162  -32.1497   25.2467 C   0  0  0  0  0  0  0  0  0  0  0  0
  -29.9179  -12.0571   18.8778 C   0  0  0  0  0  0  0  0  0  0  0  0
  -18.6963  -31.0868   24.5223 C   0  0  0  0  0  0  0  0  0  0  0  0
  -30.4436  -13.4406   19.2584 C   0  0  0  0  0  0  0  0  0  0  0  0
  -28.4499  -12.1112   18.4667 C   0  0  0  0  0  0  0  0  0  0  0  0
  -28.0780  -14.1123   19.8734 C   0  0  0  0  0  0  0  0  0  0  0  0
  -18.5471  -29.8250   25.3809 C   0  0  1  0  0  0  0  0  0  0  0  0
  -21.3649  -27.4328   24.5029 C   0  0  1  0  0  0  0  0  0  0  0  0
  -29.5493  -14.0976   20.3247 C   0  0  2  0  0  0  0  0  0  0  0  0
  -27.0892  -26.5885   19.3529 C   0  0  0  0  0  0  0  0  0  0  0  0
  -24.5683  -11.8850   21.4122 C   0  0  0  0  0  0  0  0  0  0  0  0
  -26.5665  -13.0241   22.3464 C   0  0  0  0  0  0  0  0  0  0  0  0
  -21.2210  -29.4883   20.3659 C   0  0  0  0  0  0  0  0  0  0  0  0
  -23.0627  -28.8665   18.7879 C   0  0  0  0  0  0  0  0  0  0  0  0
  -23.5347  -30.3678   20.7234 C   0  0  0  0  0  0  0  0  0  0  0  0
  -17.7567  -16.3844   21.4030 C   0  0  0  0  0  0  0  0  0  0  0  0
  -23.8144  -13.0893   18.7059 C   0  0  0  0  0  0  0  0  0  0  0  0
  -26.3990  -24.3704   22.3661 C   0  0  0  0  0  0  0  0  0  0  0  0
  -23.7893  -15.5172   19.0318 C   0  0  0  0  0  0  0  0  0  0  0  0
  -18.9950  -19.4280   22.1805 C   0  0  0  0  0  0  0  0  0  0  0  0
  -19.0393  -18.0284   22.7816 C   0  0  0  0  0  0  0  0  0  0  0  0
  -18.9595  -20.5277   23.2353 C   0  0  0  0  0  0  0  0  0  1  0  0
  -23.1131  -27.9092   21.1357 C   0  0  1  0  0  0  0  0  0  0  0  0
  -26.4839  -26.2304   20.7013 C   0  0  2  0  0  0  0  0  0  0  0  0
  -25.7345  -12.8390   21.0708 C   0  0  0  0  0  0  0  0  0  0  0  0
  -22.7192  -29.1379   20.2682 C   0  0  0  0  0  0  0  0  0  0  0  0
  -29.5443  -16.5475   20.0398 N   0  0  0  0  0  0  0  0  0  0  0  0
  -30.0417  -15.4846   20.6948 N   0  0  0  0  0  0  0  0  0  0  0  0
  -21.8835  -27.1825   23.1565 N   0  0  0  0  0  0  0  0  0  0  0  0
  -27.6374  -12.7622   19.4959 N   0  0  0  0  0  0  0  0  0  0  0  0
  -31.5626  -14.8585   22.3993 N   0  0  0  0  0  0  0  0  0  0  0  0
  -31.9286  -19.3582   22.2777 N   0  0  0  0  0  0  0  0  0  0  0  0
  -19.7630  -29.0411   25.3427 N   0  0  0  0  0  0  0  0  0  0  0  0
  -24.5313  -27.5711   21.0838 N   0  0  0  0  0  0  0  0  0  0  0  0
  -19.0279  -17.0262   21.7435 N   0  0  3  0  0  0  0  0  0  0  0  0
  -24.2932  -14.2434   19.4786 N   0  0  0  0  0  0  0  0  0  0  0  0
  -26.9045  -24.8444   21.0521 N   0  3  0  0  0  0  0  0  0  0  0  0
  -32.6991  -17.4543   23.2976 O   0  0  0  0  0  0  0  0  0  0  0  0
  -19.3352  -27.8675   23.3775 O   0  0  0  0  0  0  0  0  0  0  0  0
  -23.2977  -29.0352   23.2152 O   0  0  0  0  0  0  0  0  0  0  0  0
  -26.1491  -10.9848   19.6560 O   0  0  0  0  0  0  0  0  0  0  0  0
  -24.2476  -25.4024   20.3134 O   0  0  0  0  0  0  0  0  0  0  0  0
  -25.5075  -15.2276   21.1694 O   0  0  0  0  0  0  0  0  0  0  0  0
  -29.1414  -22.7990   18.8972 O   0  0  0  0  0  0  0  0  0  0  0  0
  -18.9368  -21.7940   22.5778 O   0  0  0  0  0  0  0  0  0  1  0  0
  -28.9091  -23.7158   13.4649 F   0  0  0  0  0  0  0  0  0  0  0  0
  -19.0033  -15.0766   19.7628 F   0  0  0  0  0  0  0  0  0  0  0  0
  -23.7400  -17.4900   21.0541 F   0  0  0  0  0  0  0  0  0  0  0  0
  -30.8744  -24.5786   17.6837 F   0  0  0  0  0  0  0  0  0  0  0  0
  1  2  1  0  0  0  0
  1  5  2  0  0  0  0
  2  6  2  0  0  0  0
  3  8  2  0  0  0  0
  3 17  1  0  0  0  0
  4  9  1  0  0  0  0
  4 17  2  0  0  0  0
  5 19  1  0  0  0  0
  6 21  1  0  0  0  0
  7 10  2  0  0  0  0
  7 20  1  0  0  0  0
  8 25  1  0  0  0  0
  9 25  2  0  0  0  0
 10 26  1  0  0  0  0
 11 12  2  0  0  0  0
 11 27  1  0  0  0  0
 12 28  1  0  0  0  0
 13 22  1  0  0  0  0
 13 26  2  0  0  0  0
 14 23  2  0  0  0  0
 14 29  1  0  0  0  0
 15 24  1  0  0  0  0
 15 30  2  0  0  0  0
 16 28  2  0  0  0  0
 16 31  1  0  0  0  0
 17 32  1  0  0  0  0
 18 32  1  0  0  0  0
 18 33  2  0  0  0  0
 18 34  1  0  0  0  0
 19 21  2  0  0  0  0
 19 40  1  0  0  0  0
 20 22  2  0  0  0  0
 20 41  1  0  0  0  0
 21 49  1  0  0  0  0
 22 42  1  0  0  0  0
 23 30  1  0  0  0  0
 23 61  1  0  0  0  0
 24 29  2  0  0  0  0
 24 77  1  0  0  0  0
 25 86  1  0  0  0  0
 26 87  1  0  0  0  0
 27 31  2  0  0  0  0
 27 86  1  0  0  0  0
 28 88  1  0  0  0  0
 29 89  1  0  0  0  0
 30 90  1  0  0  0  0
 31 91  1  0  0  0  0
 32 69  2  0  0  0  0
 33 70  1  0  0  0  0
 33 73  1  0  0  0  0
 34 74  1  0  0  0  0
 34 80  2  0  0  0  0
 35 50  1  0  0  0  0
 35 75  1  0  0  0  0
 35 81  2  0  0  0  0
 36 65  1  0  0  0  0
 36 71  1  0  0  0  0
 36 82  2  0  0  0  0
 37 67  1  0  0  0  0
 37 72  1  0  0  0  0
 37 83  2  0  0  0  0
 38 66  1  0  0  0  0
 38 76  1  0  0  0  0
 38 84  2  0  0  0  0
 39 67  1  0  0  0  0
 39 78  1  0  0  0  0
 39 85  2  0  0  0  0
 40 43  1  0  0  0  0
 41 50  1  0  0  0  0
 42 71  1  0  0  0  0
 43 45  1  0  0  0  0
 44 46  1  0  0  0  0
 44 47  1  0  0  0  0
 45 49  1  0  0  0  0
 46 51  1  0  0  0  0
 47 72  1  0  0  0  0
 48 51  1  0  0  0  0
 48 72  1  0  0  0  0
 49 75  1  0  0  0  0
 50 71  1  0  0  0  0
 51 70  1  0  0  0  0
 52 66  1  0  0  0  0
 53 67  1  0  0  0  0
 54 67  1  0  0  0  0
 55 68  1  0  0  0  0
 56 68  1  0  0  0  0
 57 68  1  0  0  0  0
 58 77  1  0  0  0  0
 59 78  1  0  0  0  0
 60 79  1  0  0  0  0
 61 78  1  0  0  0  0
 62 63  1  0  0  0  0
 62 64  1  0  0  0  0
 63 77  1  0  0  0  0
 64 87  1  0  0  0  0
 65 68  1  0  0  0  0
 65 76  1  0  0  0  0
 66 79  1  0  0  0  0
 69 70  1  0  0  0  0
M  CHG  1  79   1
M  ISO  4  37 100  64 101  67 100  87 101
M  END
> <Batch ID>
0014

> <Smiles>
CNC(C)C(=O)NC(C(=O)N1Cc2cc([101O:1][101CH2:1]CCN(C)c3cc(F)c(CN(C)C(=O)[100C:0](C)(C)[100C:0](=O)N4CCCC(n5nc(-c6ccc(Oc7ccc(F)cc7F)cc6)c(C(N)=O)c5N)C4)cc3F)ccc2CC1C(=O)NC1CCCc2ccccc21)C(C)(C)C

> <Shape>
0.230

> <Color>
0.072

> <Negative vol penalty>
0.000

$$$$

  -OEChem-04052315533D

 84 92  0     1  0  0  0  0  0999 V2000
  -40.2110  -17.6161   24.6035 C   0  0  0  0  0  0  0  0  0  0  0  0
  -38.8759  -17.9980   24.5200 C   0  0  0  0  0  0  0  0  0  0  0  0
  -23.0004   -9.8940   19.9814 C   0  0  0  0  0  0  0  0  0  0  0  0
  -23.7256   -9.9452   22.2854 C   0  0  0  0  0  0  0  0  0  0  0  0
  -40.7736  -17.3190   25.8441 C   0  0  0  0  0  0  0  0  0  0  0  0
  -38.1022  -18.0819   25.6770 C   0  0  0  0  0  0  0  0  0  0  0  0
  -35.2842  -22.2868   25.8288 C   0  0  0  0  0  0  0  0  0  0  0  0
  -22.2337   -8.7597   20.2480 C   0  0  0  0  0  0  0  0  0  0  0  0
  -22.9589   -8.8109   22.5520 C   0  0  0  0  0  0  0  0  0  0  0  0
  -34.1219  -22.3024   25.0591 C   0  0  0  0  0  0  0  0  0  0  0  0
  -23.2027   -5.4718   22.0806 C   0  0  0  0  0  0  0  0  0  0  0  0
  -23.7901   -4.4547   22.8328 C   0  0  0  0  0  0  0  0  0  0  0  0
  -32.8193  -21.8022   27.0269 C   0  0  0  0  0  0  0  0  0  0  0  0
  -22.0663   -4.6981   24.5081 C   0  0  0  0  0  0  0  0  0  0  0  0
  -32.4691  -17.0448   23.9253 C   0  0  0  0  0  0  0  0  0  0  0  0
  -23.7464  -10.4868   21.0002 C   0  0  0  0  0  0  0  0  0  0  0  0
  -24.1321  -13.0023   20.8238 C   0  0  0  0  0  0  0  0  0  0  0  0
  -40.0090  -17.4087   27.0180 C   0  0  0  0  0  0  0  0  0  0  0  0
  -35.2239  -22.0175   27.2037 C   0  0  0  0  0  0  0  0  0  0  0  0
  -38.6547  -17.7845   26.9344 C   0  0  0  0  0  0  0  0  0  0  0  0
  -33.9821  -21.7862   27.8123 C   0  0  0  0  0  0  0  0  0  0  0  0
  -30.6750  -16.5512   22.3844 C   0  0  0  0  0  0  0  0  0  0  0  0
  -30.7252  -18.6720   23.5405 C   0  0  0  0  0  0  0  0  0  0  0  0
  -22.2129   -8.2181   21.5332 C   0  0  0  0  0  0  0  0  0  0  0  0
  -32.8895  -22.0572   25.6576 C   0  0  0  0  0  0  0  0  0  0  0  0
  -22.0471   -6.1022   22.5421 C   0  0  0  0  0  0  0  0  0  0  0  0
  -23.2219   -4.0678   24.0465 C   0  0  0  0  0  0  0  0  0  0  0  0
  -31.8543  -16.1733   23.0263 C   0  0  0  0  0  0  0  0  0  0  0  0
  -31.9045  -18.2942   24.1825 C   0  0  0  0  0  0  0  0  0  0  0  0
  -21.4789   -5.7153   23.7558 C   0  0  0  0  0  0  0  0  0  0  0  0
  -30.1105  -17.8006   22.6415 C   0  0  0  0  0  0  0  0  0  0  0  0
  -24.5390  -11.6582   20.7253 C   0  0  0  0  0  0  0  0  0  0  0  0
  -25.2419  -13.7246   20.4592 C   0  0  0  0  0  0  0  0  0  0  0  0
  -22.8642  -13.5489   21.2102 C   0  0  0  0  0  0  0  0  0  0  0  0
  -36.3971  -19.7516   29.0992 C   0  0  0  0  0  0  0  0  0  0  0  0
  -35.1642  -21.6211   31.4460 C   0  0  0  0  0  0  0  0  0  0  0  0
  -32.8952  -23.9992   32.3642 C   0  0  0  0  0  0  0  0  0  0  0  0
  -30.7215  -14.6850   20.6929 C   0  0  0  0  0  0  0  0  0  0  0  0
  -40.6481  -17.0320   28.3312 C   0  0  0  0  0  0  0  0  0  0  0  0
  -36.4840  -22.0307   28.0249 C   0  0  0  0  0  0  0  0  0  0  0  0
  -33.8611  -21.5121   29.2883 C   0  0  0  0  0  0  0  0  0  0  0  0
  -39.8618  -17.5078   29.5500 C   0  0  0  0  0  0  0  0  0  0  0  0
  -29.6028  -12.2319   18.3674 C   0  0  0  0  0  0  0  0  0  0  0  0
  -38.3792  -17.1883   29.3868 C   0  0  0  0  0  0  0  0  0  0  0  0
  -28.1522  -11.9745   18.7816 C   0  0  0  0  0  0  0  0  0  0  0  0
  -30.5034  -12.4753   19.5771 C   0  0  0  0  0  0  0  0  0  0  0  0
  -28.5882  -13.2647   20.9105 C   0  0  0  0  0  0  0  0  0  0  0  0
  -37.7897  -17.9111   28.1696 C   0  0  1  0  0  0  0  0  0  0  0  0
  -36.3602  -21.2371   29.3219 C   0  0  1  0  0  0  0  0  0  0  0  0
  -27.6305  -13.0783   19.7224 C   0  0  2  0  0  0  0  0  0  0  0  0
  -32.1017  -25.2989   34.3588 C   0  0  0  0  0  0  0  0  0  0  0  0
  -33.6854  -19.1534   32.4626 C   0  0  0  0  0  0  0  0  0  0  0  0
  -32.2202  -20.6723   33.8096 C   0  0  0  0  0  0  0  0  0  0  0  0
  -34.6731  -20.5901   34.2556 C   0  0  0  0  0  0  0  0  0  0  0  0
  -29.2233  -20.0883   24.9184 C   0  0  0  0  0  0  0  0  0  0  0  0
  -33.6217  -26.5822   31.1155 C   0  0  0  0  0  0  0  0  0  0  0  0
  -30.5564  -21.1017   23.0625 C   0  0  0  0  0  0  0  0  0  0  0  0
  -31.8735  -21.6872   23.5394 C   0  0  0  0  0  0  0  0  0  1  0  0
  -33.8328  -21.7122   32.1516 C   0  0  1  0  0  0  0  0  0  0  0  0
  -33.0461  -25.2788   33.1669 C   0  0  2  0  0  0  0  0  0  0  0  0
  -33.6050  -20.5352   33.1417 C   0  0  0  0  0  0  0  0  0  0  0  0
  -25.8083  -11.5315   20.3291 N   0  0  0  0  0  0  0  0  0  0  0  0
  -26.2084  -12.8052   20.1753 N   0  0  0  0  0  0  0  0  0  0  0  0
  -35.1224  -21.5295   30.0475 N   0  0  0  0  0  0  0  0  0  0  0  0
  -29.9486  -13.5365   20.4202 N   0  0  0  0  0  0  0  0  0  0  0  0
  -25.4756  -15.0503   20.3569 N   0  0  0  0  0  0  0  0  0  0  0  0
  -21.8323  -12.6650   21.5539 N   0  0  0  0  0  0  0  0  0  0  0  0
  -30.0774  -15.6404   21.4783 N   0  0  0  0  0  0  0  0  0  0  0  0
  -37.5473  -19.3043   28.4777 N   0  0  0  0  0  0  0  0  0  0  0  0
  -33.7892  -23.0319   32.7721 N   0  0  0  0  0  0  0  0  0  0  0  0
  -30.1832  -19.9370   23.8206 N   0  0  3  0  0  0  0  0  0  0  0  0
  -32.7506  -26.4639   32.3130 N   0  3  0  0  0  0  0  0  0  0  0  0
  -22.6477  -14.7843   21.2338 O   0  0  0  0  0  0  0  0  0  0  0  0
  -35.4526  -19.0621   29.4655 O   0  0  0  0  0  0  0  0  0  0  0  0
  -36.2033  -21.6380   32.1105 O   0  0  0  0  0  0  0  0  0  0  0  0
  -32.0647  -23.8694   31.4675 O   0  0  0  0  0  0  0  0  0  0  0  0
  -31.8602  -14.8236   20.2388 O   0  0  0  0  0  0  0  0  0  0  0  0
  -21.4647   -7.1114   21.7937 O   0  0  0  0  0  0  0  0  0  0  0  0
  -31.7535  -22.0713   24.9085 O   0  0  0  0  0  0  0  0  0  1  0  0
  -23.7853   -3.0899   24.7681 F   0  0  0  0  0  0  0  0  0  0  0  0
  -32.4069  -14.9750   22.7884 F   0  0  0  0  0  0  0  0  0  0  0  0
  -32.5057  -19.1227   25.0483 F   0  0  0  0  0  0  0  0  0  0  0  0
  -20.3681   -6.3164   24.2038 F   0  0  0  0  0  0  0  0  0  0  0  0
  -28.6439  -18.2720   21.8420 Cl  0  0  0  0  0  0  0  0  0  0  0  0
  1  2  1  0  0  0  0
  1  5  2  0  0  0  0
  2  6  2  0  0  0  0
  3  8  2  0  0  0  0
  3 16  1  0  0  0  0
  4  9  1  0  0  0  0
  4 16  2  0  0  0  0
  5 18  1  0  0  0  0
  6 20  1  0  0  0  0
  7 10  2  0  0  0  0
  7 19  1  0  0  0  0
  8 24  1  0  0  0  0
  9 24  2  0  0  0  0
 10 25  1  0  0  0  0
 11 12  2  0  0  0  0
 11 26  1  0  0  0  0
 12 27  1  0  0  0  0
 13 21  1  0  0  0  0
 13 25  2  0  0  0  0
 14 27  2  0  0  0  0
 14 30  1  0  0  0  0
 15 28  1  0  0  0  0
 15 29  2  0  0  0  0
 16 32  1  0  0  0  0
 17 32  1  0  0  0  0
 17 33  2  0  0  0  0
 17 34  1  0  0  0  0
 18 20  2  0  0  0  0
 18 39  1  0  0  0  0
 19 21  2  0  0  0  0
 19 40  1  0  0  0  0
 20 48  1  0  0  0  0
 21 41  1  0  0  0  0
 22 28  2  0  0  0  0
 22 31  1  0  0  0  0
 22 68  1  0  0  0  0
 23 29  1  0  0  0  0
 23 31  2  0  0  0  0
 23 71  1  0  0  0  0
 24 78  1  0  0  0  0
 25 79  1  0  0  0  0
 26 30  2  0  0  0  0
 26 78  1  0  0  0  0
 27 80  1  0  0  0  0
 28 81  1  0  0  0  0
 29 82  1  0  0  0  0
 30 83  1  0  0  0  0
 31 84  1  0  0  0  0
 32 62  2  0  0  0  0
 33 63  1  0  0  0  0
 33 66  1  0  0  0  0
 34 67  1  0  0  0  0
 34 73  2  0  0  0  0
 35 49  1  0  0  0  0
 35 69  1  0  0  0  0
 35 74  2  0  0  0  0
 36 59  1  0  0  0  0
 36 64  1  0  0  0  0
 36 75  2  0  0  0  0
 37 60  1  0  0  0  0
 37 70  1  0  0  0  0
 37 76  2  0  0  0  0
 38 65  1  0  0  0  0
 38 68  1  0  0  0  0
 38 77  2  0  0  0  0
 39 42  1  0  0  0  0
 40 49  1  0  0  0  0
 41 64  1  0  0  0  0
 42 44  1  0  0  0  0
 43 45  1  0  0  0  0
 43 46  1  0  0  0  0
 44 48  1  0  0  0  0
 45 50  1  0  0  0  0
 46 65  1  0  0  0  0
 47 50  1  0  0  0  0
 47 65  1  0  0  0  0
 48 69  1  0  0  0  0
 49 64  1  0  0  0  0
 50 63  1  0  0  0  0
 51 60  1  0  0  0  0
 52 61  1  0  0  0  0
 53 61  1  0  0  0  0
 54 61  1  0  0  0  0
 55 71  1  0  0  0  0
 56 72  1  0  0  0  0
 57 58  1  0  0  0  0
 57 71  1  0  0  0  0
 58 79  1  0  0  0  0
 59 61  1  0  0  0  0
 59 70  1  0  0  0  0
 60 72  1  0  0  0  0
 62 63  1  0  0  0  0
M  CHG  1  72   1
M  ISO  4  38 100  58 101  68 100  79 101
M  END
> <Batch ID>
0014

> <Smiles>
CNC(C)C(=O)NC(C(=O)N1Cc2cc([101O:1][101CH2:1]CN(C)c3c(F)cc(F)c([100NH:0][100C:0](=O)N4CCCC(n5nc(-c6ccc(Oc7ccc(F)cc7F)cc6)c(C(N)=O)c5N)C4)c3Cl)ccc2CC1C(=O)NC1CCCc2ccccc21)C(C)(C)C

> <Shape>
0.178

> <Color>
0.206

> <Negative vol penalty>
0.000

$$$$

  -OEChem-04052315533D

 83 91  0     1  0  0  0  0  0999 V2000
  -28.2992  -32.2065   27.0795 C   0  0  0  0  0  0  0  0  0  0  0  0
  -28.2284  -31.0508   26.3082 C   0  0  0  0  0  0  0  0  0  0  0  0
  -24.3712   -9.4946   21.3079 C   0  0  0  0  0  0  0  0  0  0  0  0
  -25.0539  -10.5651   23.3634 C   0  0  0  0  0  0  0  0  0  0  0  0
  -27.1639  -32.9967   27.2549 C   0  0  0  0  0  0  0  0  0  0  0  0
  -27.0220  -30.6840   25.7129 C   0  0  0  0  0  0  0  0  0  0  0  0
  -27.5959  -29.2290   20.8964 C   0  0  0  0  0  0  0  0  0  0  0  0
  -24.1012   -8.3197   22.0095 C   0  0  0  0  0  0  0  0  0  0  0  0
  -24.7838   -9.3901   24.0650 C   0  0  0  0  0  0  0  0  0  0  0  0
  -28.0882  -27.9437   20.6739 C   0  0  0  0  0  0  0  0  0  0  0  0
  -21.6390   -7.1079   23.9849 C   0  0  0  0  0  0  0  0  0  0  0  0
  -20.4452   -6.4441   23.7024 C   0  0  0  0  0  0  0  0  0  0  0  0
  -25.8443  -27.1634   20.2549 C   0  0  0  0  0  0  0  0  0  0  0  0
  -29.9587  -19.6217   19.9202 C   0  0  0  0  0  0  0  0  0  0  0  0
  -21.6925   -4.4862   23.0328 C   0  0  0  0  0  0  0  0  0  0  0  0
  -24.8476  -10.6173   21.9849 C   0  0  0  0  0  0  0  0  0  0  0  0
  -24.2381  -12.8919   21.0038 C   0  0  0  0  0  0  0  0  0  0  0  0
  -25.9454  -32.6446   26.6534 C   0  0  0  0  0  0  0  0  0  0  0  0
  -26.2207  -29.4892   20.8104 C   0  0  0  0  0  0  0  0  0  0  0  0
  -25.8691  -31.4695   25.8815 C   0  0  0  0  0  0  0  0  0  0  0  0
  -25.3375  -28.4533   20.4742 C   0  0  0  0  0  0  0  0  0  0  0  0
  -27.5435  -19.6725   19.9461 C   0  0  0  0  0  0  0  0  0  0  0  0
  -28.7366  -18.9501   19.9527 C   0  0  0  0  0  0  0  0  0  0  0  0
  -24.3074   -8.2674   23.3880 C   0  0  0  0  0  0  0  0  0  0  0  0
  -27.2121  -26.9100   20.3559 C   0  0  0  0  0  0  0  0  0  0  0  0
  -22.8595   -6.4610   23.7913 C   0  0  0  0  0  0  0  0  0  0  0  0
  -28.7945  -21.7382   19.8748 C   0  0  0  0  0  0  0  0  0  0  0  0
  -20.4719   -5.1332   23.2264 C   0  0  0  0  0  0  0  0  0  0  0  0
  -29.9877  -21.0157   19.8814 C   0  0  0  0  0  0  0  0  0  0  0  0
  -22.8862   -5.1501   23.3153 C   0  0  0  0  0  0  0  0  0  0  0  0
  -27.5724  -21.0666   19.9072 C   0  0  0  0  0  0  0  0  0  0  0  0
  -25.1273  -11.8311   21.2607 C   0  0  0  0  0  0  0  0  0  0  0  0
  -24.9815  -13.7970   20.2865 C   0  0  0  0  0  0  0  0  0  0  0  0
  -22.8631  -13.0453   21.3801 C   0  0  0  0  0  0  0  0  0  0  0  0
  -23.9996  -30.5105   22.8420 C   0  0  0  0  0  0  0  0  0  0  0  0
  -22.1338  -30.5230   20.1886 C   0  0  0  0  0  0  0  0  0  0  0  0
  -21.5488  -29.3108   17.0525 C   0  0  0  0  0  0  0  0  0  0  0  0
  -29.6784  -16.6681   19.4506 C   0  0  0  0  0  0  0  0  0  0  0  0
  -24.7336  -33.5049   26.9106 C   0  0  0  0  0  0  0  0  0  0  0  0
  -25.7085  -30.8868   21.0270 C   0  0  0  0  0  0  0  0  0  0  0  0
  -23.8544  -28.6848   20.3496 C   0  0  0  0  0  0  0  0  0  0  0  0
  -23.5858  -33.2466   25.9379 C   0  0  0  0  0  0  0  0  0  0  0  0
  -29.5517  -13.3537   18.1562 C   0  0  0  0  0  0  0  0  0  0  0  0
  -23.3477  -31.7483   25.7789 C   0  0  0  0  0  0  0  0  0  0  0  0
  -28.3162  -12.7493   18.8274 C   0  0  0  0  0  0  0  0  0  0  0  0
  -30.3074  -14.2902   19.0973 C   0  0  0  0  0  0  0  0  0  0  0  0
  -28.2548  -14.7398   20.3835 C   0  0  0  0  0  0  0  0  0  0  0  0
  -24.5846  -31.0516   25.1991 C   0  0  1  0  0  0  0  0  0  0  0  0
  -24.2345  -30.9290   21.4182 C   0  0  1  0  0  0  0  0  0  0  0  0
  -27.4249  -13.8398   19.4535 C   0  0  2  0  0  0  0  0  0  0  0  0
  -26.2217  -18.9761   19.9834 C   0  0  0  0  0  0  0  0  0  0  0  0
  -19.9257  -29.4803   15.1461 C   0  0  0  0  0  0  0  0  0  0  0  0
  -20.1462  -28.7963   21.7305 C   0  0  0  0  0  0  0  0  0  0  0  0
  -19.0602  -28.2211   19.5492 C   0  0  0  0  0  0  0  0  0  0  0  0
  -19.1051  -30.5892   20.3319 C   0  0  0  0  0  0  0  0  0  0  0  0
  -23.6387  -30.3082   15.2096 C   0  0  0  0  0  0  0  0  0  0  0  0
  -28.8737  -25.2795   20.8418 C   0  0  0  0  0  0  0  0  0  1  0  0
  -28.8509  -23.7832   21.0874 C   0  0  0  0  0  0  0  0  0  0  0  0
  -21.2400  -29.5164   19.5054 C   0  0  1  0  0  0  0  0  0  0  0  0
  -21.2176  -30.0116   15.7472 C   0  0  2  0  0  0  0  0  0  0  0  0
  -19.9155  -29.2756   20.2834 C   0  0  0  0  0  0  0  0  0  0  0  0
  -26.3426  -12.0415   20.7481 N   0  0  0  0  0  0  0  0  0  0  0  0
  -26.2223  -13.2448   20.1619 N   0  0  0  0  0  0  0  0  0  0  0  0
  -23.4016  -30.0671   20.5769 N   0  0  0  0  0  0  0  0  0  0  0  0
  -29.4004  -15.2992   19.6489 N   0  0  0  0  0  0  0  0  0  0  0  0
  -24.6882  -15.0034   19.7565 N   0  0  0  0  0  0  0  0  0  0  0  0
  -22.2533  -12.0200   22.1157 N   0  0  0  0  0  0  0  0  0  0  0  0
  -28.7286  -17.5337   19.9921 N   0  0  0  0  0  0  0  0  0  0  0  0
  -24.6713  -31.2801   23.7727 N   0  0  0  0  0  0  0  0  0  0  0  0
  -21.0525  -29.9969   18.1407 N   0  0  0  0  0  0  0  0  0  0  0  0
  -22.3140  -29.8097   14.7583 N   0  3  0  0  0  0  0  0  0  0  0  0
  -22.1904  -14.0542   21.0589 O   0  0  0  0  0  0  0  0  0  0  0  0
  -23.2624  -29.5607   23.0789 O   0  0  0  0  0  0  0  0  0  0  0  0
  -21.7250  -31.6735   20.3645 O   0  0  0  0  0  0  0  0  0  0  0  0
  -22.1810  -28.2580   17.1015 O   0  0  0  0  0  0  0  0  0  0  0  0
  -30.6706  -17.0443   18.8213 O   0  0  0  0  0  0  0  0  0  0  0  0
  -24.0438   -7.1211   24.0730 O   0  0  0  0  0  0  0  0  0  0  0  0
  -27.6898  -25.6544   20.1389 O   0  0  0  0  0  0  0  0  0  1  0  0
  -28.8230  -23.1074   19.8361 O   0  0  0  0  0  0  0  0  0  0  0  0
  -19.3255   -4.4953   22.9566 F   0  0  0  0  0  0  0  0  0  0  0  0
  -31.1651  -21.6552   19.8511 F   0  0  0  0  0  0  0  0  0  0  0  0
  -24.0557   -4.5230   23.1284 F   0  0  0  0  0  0  0  0  0  0  0  0
  -26.4277  -21.7651   19.9018 F   0  0  0  0  0  0  0  0  0  0  0  0
  1  2  1  0  0  0  0
  1  5  2  0  0  0  0
  2  6  2  0  0  0  0
  3  8  2  0  0  0  0
  3 16  1  0  0  0  0
  4  9  1  0  0  0  0
  4 16  2  0  0  0  0
  5 18  1  0  0  0  0
  6 20  1  0  0  0  0
  7 10  2  0  0  0  0
  7 19  1  0  0  0  0
  8 24  1  0  0  0  0
  9 24  2  0  0  0  0
 10 25  1  0  0  0  0
 11 12  2  0  0  0  0
 11 26  1  0  0  0  0
 12 28  1  0  0  0  0
 13 21  1  0  0  0  0
 13 25  2  0  0  0  0
 14 23  1  0  0  0  0
 14 29  2  0  0  0  0
 15 28  2  0  0  0  0
 15 30  1  0  0  0  0
 16 32  1  0  0  0  0
 17 32  1  0  0  0  0
 17 33  2  0  0  0  0
 17 34  1  0  0  0  0
 18 20  2  0  0  0  0
 18 39  1  0  0  0  0
 19 21  2  0  0  0  0
 19 40  1  0  0  0  0
 20 48  1  0  0  0  0
 21 41  1  0  0  0  0
 22 23  2  0  0  0  0
 22 31  1  0  0  0  0
 22 51  1  0  0  0  0
 23 68  1  0  0  0  0
 24 77  1  0  0  0  0
 25 78  1  0  0  0  0
 26 30  2  0  0  0  0
 26 77  1  0  0  0  0
 27 29  1  0  0  0  0
 27 31  2  0  0  0  0
 27 79  1  0  0  0  0
 28 80  1  0  0  0  0
 29 81  1  0  0  0  0
 30 82  1  0  0  0  0
 31 83  1  0  0  0  0
 32 62  2  0  0  0  0
 33 63  1  0  0  0  0
 33 66  1  0  0  0  0
 34 67  1  0  0  0  0
 34 72  2  0  0  0  0
 35 49  1  0  0  0  0
 35 69  1  0  0  0  0
 35 73  2  0  0  0  0
 36 59  1  0  0  0  0
 36 64  1  0  0  0  0
 36 74  2  0  0  0  0
 37 60  1  0  0  0  0
 37 70  1  0  0  0  0
 37 75  2  0  0  0  0
 38 65  1  0  0  0  0
 38 68  1  0  0  0  0
 38 76  2  0  0  0  0
 39 42  1  0  0  0  0
 40 49  1  0  0  0  0
 41 64  1  0  0  0  0
 42 44  1  0  0  0  0
 43 45  1  0  0  0  0
 43 46  1  0  0  0  0
 44 48  1  0  0  0  0
 45 50  1  0  0  0  0
 46 65  1  0  0  0  0
 47 50  1  0  0  0  0
 47 65  1  0  0  0  0
 48 69  1  0  0  0  0
 49 64  1  0  0  0  0
 50 63  1  0  0  0  0
 52 60  1  0  0  0  0
 53 61  1  0  0  0  0
 54 61  1  0  0  0  0
 55 61  1  0  0  0  0
 56 71  1  0  0  0  0
 57 58  1  0  0  0  0
 57 78  1  0  0  0  0
 58 79  1  0  0  0  0
 59 61  1  0  0  0  0
 59 70  1  0  0  0  0
 60 71  1  0  0  0  0
 62 63  1  0  0  0  0
M  CHG  1  71   1
M  ISO  4  38 100  57 101  68 100  78 101
M  END
> <Batch ID>
0014

> <Smiles>
CNC(C)C(=O)NC(C(=O)N1Cc2cc([101O:1][101CH2:1]COc3c(F)cc([100NH:0][100C:0](=O)N4CCCC(n5nc(-c6ccc(Oc7ccc(F)cc7F)cc6)c(C(N)=O)c5N)C4)c(C)c3F)ccc2CC1C(=O)NC1CCCc2ccccc21)C(C)(C)C

> <Shape>
0.341

> <Color>
0.147

> <Negative vol penalty>
0.000

$$$$

  -OEChem-04052315533D

 84 92  0     1  0  0  0  0  0999 V2000
  -32.6002  -18.2491   28.2024 C   0  0  0  0  0  0  0  0  0  0  0  0
  -32.3208  -18.8640   26.9862 C   0  0  0  0  0  0  0  0  0  0  0  0
  -23.0925   -9.8440   19.9616 C   0  0  0  0  0  0  0  0  0  0  0  0
  -23.8368   -9.8949   22.2596 C   0  0  0  0  0  0  0  0  0  0  0  0
  -31.7699  -18.4693   29.3006 C   0  0  0  0  0  0  0  0  0  0  0  0
  -31.2101  -19.6986   26.8671 C   0  0  0  0  0  0  0  0  0  0  0  0
  -32.2610  -23.9896   24.3917 C   0  0  0  0  0  0  0  0  0  0  0  0
  -22.3543   -8.6905   20.2262 C   0  0  0  0  0  0  0  0  0  0  0  0
  -23.0986   -8.7413   22.5242 C   0  0  0  0  0  0  0  0  0  0  0  0
  -32.3473  -23.9182   23.0020 C   0  0  0  0  0  0  0  0  0  0  0  0
  -19.8716   -7.9327   23.1186 C   0  0  0  0  0  0  0  0  0  0  0  0
  -19.1070   -7.9077   24.2850 C   0  0  0  0  0  0  0  0  0  0  0  0
  -30.1084  -24.7986   22.8238 C   0  0  0  0  0  0  0  0  0  0  0  0
  -31.1215  -17.7001   20.5250 C   0  0  0  0  0  0  0  0  0  0  0  0
  -20.3559   -5.9911   25.0625 C   0  0  0  0  0  0  0  0  0  0  0  0
  -23.8337  -10.4462   20.9783 C   0  0  0  0  0  0  0  0  0  0  0  0
  -24.1601  -12.9712   20.8177 C   0  0  0  0  0  0  0  0  0  0  0  0
  -30.6540  -19.3147   29.1975 C   0  0  0  0  0  0  0  0  0  0  0  0
  -31.0918  -24.4566   25.0092 C   0  0  0  0  0  0  0  0  0  0  0  0
  -30.3633  -19.9293   27.9646 C   0  0  0  0  0  0  0  0  0  0  0  0
  -30.0108  -24.8773   24.2214 C   0  0  0  0  0  0  0  0  0  0  0  0
  -29.6718  -19.3589   22.2365 C   0  0  0  0  0  0  0  0  0  0  0  0
  -30.2106  -17.1478   21.4254 C   0  0  0  0  0  0  0  0  0  0  0  0
  -30.5829  -19.9112   21.3361 C   0  0  0  0  0  0  0  0  0  0  0  0
  -22.3574   -8.1391   21.5074 C   0  0  0  0  0  0  0  0  0  0  0  0
  -31.2698  -24.3200   22.2179 C   0  0  0  0  0  0  0  0  0  0  0  0
  -20.8783   -6.9869   22.9242 C   0  0  0  0  0  0  0  0  0  0  0  0
  -19.3492   -6.9369   25.2569 C   0  0  0  0  0  0  0  0  0  0  0  0
  -31.3078  -19.0818   20.4804 C   0  0  0  0  0  0  0  0  0  0  0  0
  -21.1204   -6.0162   23.8961 C   0  0  0  0  0  0  0  0  0  0  0  0
  -29.4857  -17.9772   22.2811 C   0  0  0  0  0  0  0  0  0  0  0  0
  -24.5969  -11.6376   20.7055 C   0  0  0  0  0  0  0  0  0  0  0  0
  -25.2499  -13.7215   20.4490 C   0  0  0  0  0  0  0  0  0  0  0  0
  -22.8836  -13.4857   21.2193 C   0  0  0  0  0  0  0  0  0  0  0  0
  -28.9512  -23.2039   26.9973 C   0  0  0  0  0  0  0  0  0  0  0  0
  -27.7763  -26.2274   27.0166 C   0  0  0  0  0  0  0  0  0  0  0  0
  -27.4893  -29.2344   25.4282 C   0  0  0  0  0  0  0  0  0  0  0  0
  -30.7079  -14.8056   20.6423 C   0  0  0  0  0  0  0  0  0  0  0  0
  -29.7587  -19.4848   30.3993 C   0  0  0  0  0  0  0  0  0  0  0  0
  -31.0245  -24.5526   26.5087 C   0  0  0  0  0  0  0  0  0  0  0  0
  -28.7406  -25.4053   24.8349 C   0  0  0  0  0  0  0  0  0  0  0  0
  -28.8146  -20.6796   30.2913 C   0  0  0  0  0  0  0  0  0  0  0  0
  -29.6251  -12.3448   18.3080 C   0  0  0  0  0  0  0  0  0  0  0  0
  -28.1444  -20.7081   28.9214 C   0  0  0  0  0  0  0  0  0  0  0  0
  -28.1845  -12.0511   18.7329 C   0  0  0  0  0  0  0  0  0  0  0  0
  -30.5306  -12.5999   19.5117 C   0  0  0  0  0  0  0  0  0  0  0  0
  -28.6097  -13.3352   20.8677 C   0  0  0  0  0  0  0  0  0  0  0  0
  -29.1819  -20.8610   27.8026 C   0  0  1  0  0  0  0  0  0  0  0  0
  -29.5957  -24.5605   27.0434 C   0  0  1  0  0  0  0  0  0  0  0  0
  -27.6460  -13.1356   19.6865 C   0  0  2  0  0  0  0  0  0  0  0  0
  -28.9031  -20.2649   23.1493 C   0  0  0  0  0  0  0  0  0  0  0  0
  -26.4359  -31.4988   25.6729 C   0  0  0  0  0  0  0  0  0  0  0  0
  -30.1125  -24.0514   18.8378 C   0  0  0  0  0  0  0  0  0  0  0  0
  -25.0662  -25.0454   26.2630 C   0  0  0  0  0  0  0  0  0  0  0  0
  -24.3255  -27.3439   25.6023 C   0  0  0  0  0  0  0  0  0  0  0  0
  -24.9695  -26.8742   27.9661 C   0  0  0  0  0  0  0  0  0  0  0  0
  -30.1207  -30.5887   25.4090 C   0  0  0  0  0  0  0  0  0  0  0  0
  -30.9596  -22.0126   20.0447 C   0  0  0  0  0  0  0  0  0  0  0  0
  -26.7663  -26.9872   26.1910 C   0  0  1  0  0  0  0  0  0  0  0  0
  -27.6775  -30.6570   25.9233 C   0  0  2  0  0  0  0  0  0  0  0  0
  -30.3976  -23.4244   20.1948 C   0  0  1  0  0  0  0  0  0  1  0  0
  -25.3049  -26.5509   26.4938 C   0  0  0  0  0  0  0  0  0  0  0  0
  -25.8651  -11.5429   20.2973 N   0  0  0  0  0  0  0  0  0  0  0  0
  -26.2346  -12.8266   20.1497 N   0  0  0  0  0  0  0  0  0  0  0  0
  -28.7210  -25.4740   26.3054 N   0  0  0  0  0  0  0  0  0  0  0  0
  -29.9591  -13.6418   20.3677 N   0  0  0  0  0  0  0  0  0  0  0  0
  -25.4522  -15.0529   20.3548 N   0  0  0  0  0  0  0  0  0  0  0  0
  -21.8752  -12.5758   21.5652 N   0  0  0  0  0  0  0  0  0  0  0  0
  -30.0491  -15.7402   21.4406 N   0  0  0  0  0  0  0  0  0  0  0  0
  -30.7823  -21.2804   21.2782 N   0  0  0  0  0  0  0  0  0  0  0  0
  -29.6287  -22.2346   27.7120 N   0  0  0  0  0  0  0  0  0  0  0  0
  -27.0283  -28.4029   26.4269 N   0  0  0  0  0  0  0  0  0  0  0  0
  -28.8287  -31.2993   25.2283 N   0  3  0  0  0  0  0  0  0  0  0  0
  -22.6390  -14.7155   21.2541 O   0  0  0  0  0  0  0  0  0  0  0  0
  -27.9151  -23.0485   26.3616 O   0  0  0  0  0  0  0  0  0  0  0  0
  -27.7333  -26.3054   28.2469 O   0  0  0  0  0  0  0  0  0  0  0  0
  -27.7241  -28.8954   24.2704 O   0  0  0  0  0  0  0  0  0  0  0  0
  -31.8391  -14.9738   20.1794 O   0  0  0  0  0  0  0  0  0  0  0  0
  -21.6370   -7.0136   21.7660 O   0  0  0  0  0  0  0  0  0  0  0  0
  -31.3512  -24.2507   20.8613 O   0  0  0  0  0  0  0  0  0  1  0  0
  -18.6159   -6.9140   26.3776 F   0  0  0  0  0  0  0  0  0  0  0  0
  -32.1867  -19.6005   19.6108 F   0  0  0  0  0  0  0  0  0  0  0  0
  -22.0869   -5.1057   23.7154 F   0  0  0  0  0  0  0  0  0  0  0  0
  -28.3535  -17.2917   23.4021 Cl  0  0  0  0  0  0  0  0  0  0  0  0
  1  2  1  0  0  0  0
  1  5  2  0  0  0  0
  2  6  2  0  0  0  0
  3  8  2  0  0  0  0
  3 16  1  0  0  0  0
  4  9  1  0  0  0  0
  4 16  2  0  0  0  0
  5 18  1  0  0  0  0
  6 20  1  0  0  0  0
  7 10  2  0  0  0  0
  7 19  1  0  0  0  0
  8 25  1  0  0  0  0
  9 25  2  0  0  0  0
 10 26  1  0  0  0  0
 11 12  2  0  0  0  0
 11 27  1  0  0  0  0
 12 28  1  0  0  0  0
 13 21  1  0  0  0  0
 13 26  2  0  0  0  0
 14 23  1  0  0  0  0
 14 29  2  0  0  0  0
 15 28  2  0  0  0  0
 15 30  1  0  0  0  0
 16 32  1  0  0  0  0
 17 32  1  0  0  0  0
 17 33  2  0  0  0  0
 17 34  1  0  0  0  0
 18 20  2  0  0  0  0
 18 39  1  0  0  0  0
 19 21  2  0  0  0  0
 19 40  1  0  0  0  0
 20 48  1  0  0  0  0
 21 41  1  0  0  0  0
 22 24  2  0  0  0  0
 22 31  1  0  0  0  0
 22 51  1  0  0  0  0
 23 31  2  0  0  0  0
 23 69  1  0  0  0  0
 24 29  1  0  0  0  0
 24 70  1  0  0  0  0
 25 79  1  0  0  0  0
 26 80  1  0  0  0  0
 27 30  2  0  0  0  0
 27 79  1  0  0  0  0
 28 81  1  0  0  0  0
 29 82  1  0  0  0  0
 30 83  1  0  0  0  0
 31 84  1  0  0  0  0
 32 63  2  0  0  0  0
 33 64  1  0  0  0  0
 33 67  1  0  0  0  0
 34 68  1  0  0  0  0
 34 74  2  0  0  0  0
 35 49  1  0  0  0  0
 35 71  1  0  0  0  0
 35 75  2  0  0  0  0
 36 59  1  0  0  0  0
 36 65  1  0  0  0  0
 36 76  2  0  0  0  0
 37 60  1  0  0  0  0
 37 72  1  0  0  0  0
 37 77  2  0  0  0  0
 38 66  1  0  0  0  0
 38 69  1  0  0  0  0
 38 78  2  0  0  0  0
 39 42  1  0  0  0  0
 40 49  1  0  0  0  0
 41 65  1  0  0  0  0
 42 44  1  0  0  0  0
 43 45  1  0  0  0  0
 43 46  1  0  0  0  0
 44 48  1  0  0  0  0
 45 50  1  0  0  0  0
 46 66  1  0  0  0  0
 47 50  1  0  0  0  0
 47 66  1  0  0  0  0
 48 71  1  0  0  0  0
 49 65  1  0  0  0  0
 50 64  1  0  0  0  0
 52 60  1  0  0  0  0
 53 61  1  0  0  0  0
 54 62  1  0  0  0  0
 55 62  1  0  0  0  0
 56 62  1  0  0  0  0
 57 73  1  0  0  0  0
 58 61  1  0  0  0  0
 58 70  1  0  0  0  0
 59 62  1  0  0  0  0
 59 72  1  0  0  0  0
 60 73  1  0  0  0  0
 61 80  1  0  0  0  0
 63 64  1  0  0  0  0
M  CHG  1  73   1
M  ISO  4  38 100  61 101  69 100  80 101
M  END
> <Batch ID>
0014

> <Smiles>
CNC(C)C(=O)NC(C(=O)N1Cc2cc([101O:1][101CH:1](C)CNc3c(F)cc([100NH:0][100C:0](=O)N4CCCC(n5nc(-c6ccc(Oc7ccc(F)cc7F)cc6)c(C(N)=O)c5N)C4)c(Cl)c3C)ccc2CC1C(=O)NC1CCCc2ccccc21)C(C)(C)C

> <Shape>
0.225

> <Color>
0.196

> <Negative vol penalty>
0.000

$$$$

  -OEChem-04052315533D

 80 87  0     1  0  0  0  0  0999 V2000
  -18.5553  -33.4077   20.4128 C   0  0  0  0  0  0  0  0  0  0  0  0
  -19.8569  -33.1134   20.0195 C   0  0  0  0  0  0  0  0  0  0  0  0
  -26.5273  -17.9716   19.5091 C   0  0  0  0  0  0  0  0  0  0  0  0
  -28.2448  -16.5917   20.5005 C   0  0  0  0  0  0  0  0  0  0  0  0
  -18.0870  -32.9712   21.6514 C   0  0  0  0  0  0  0  0  0  0  0  0
  -20.6913  -32.3832   20.8651 C   0  0  0  0  0  0  0  0  0  0  0  0
  -24.9746  -28.3309   19.2104 C   0  0  0  0  0  0  0  0  0  0  0  0
  -25.8891  -16.8297   19.0252 C   0  0  0  0  0  0  0  0  0  0  0  0
  -27.6066  -15.4497   20.0166 C   0  0  0  0  0  0  0  0  0  0  0  0
  -26.3576  -28.4336   19.0673 C   0  0  0  0  0  0  0  0  0  0  0  0
  -24.9534  -13.5344   20.8609 C   0  0  0  0  0  0  0  0  0  0  0  0
  -24.8113  -12.4548   21.7325 C   0  0  0  0  0  0  0  0  0  0  0  0
  -26.6473  -27.5562   21.2956 C   0  0  0  0  0  0  0  0  0  0  0  0
  -26.0927  -11.0686   20.2247 C   0  0  0  0  0  0  0  0  0  0  0  0
  -27.7052  -17.8527   20.2467 C   0  0  0  0  0  0  0  0  0  0  0  0
  -28.1554  -19.6622   21.9876 C   0  0  0  0  0  0  0  0  0  0  0  0
  -18.9130  -32.2271   22.5085 C   0  0  0  0  0  0  0  0  0  0  0  0
  -24.4163  -27.8495   20.4033 C   0  0  0  0  0  0  0  0  0  0  0  0
  -20.2340  -31.9375   22.1169 C   0  0  0  0  0  0  0  0  0  0  0  0
  -25.2570  -27.4459   21.4504 C   0  0  0  0  0  0  0  0  0  0  0  0
  -26.4287  -15.5687   19.2789 C   0  0  0  0  0  0  0  0  0  0  0  0
  -27.1941  -28.0489   20.1110 C   0  0  0  0  0  0  0  0  0  0  0  0
  -25.6652  -13.3811   19.6710 C   0  0  0  0  0  0  0  0  0  0  0  0
  -25.3809  -11.2219   21.4145 C   0  0  0  0  0  0  0  0  0  0  0  0
  -26.2348  -12.1483   19.3530 C   0  0  0  0  0  0  0  0  0  0  0  0
  -28.3653  -19.0320   20.7464 C   0  0  0  0  0  0  0  0  0  0  0  0
  -29.0188  -20.7303   21.9807 C   0  0  0  0  0  0  0  0  0  0  0  0
  -27.2601  -19.3132   23.0517 C   0  0  0  0  0  0  0  0  0  0  0  0
  -22.4901  -29.0558   22.6255 C   0  0  0  0  0  0  0  0  0  0  0  0
  -22.5870  -26.0319   23.7956 C   0  0  0  0  0  0  0  0  0  0  0  0
  -24.2529  -23.0613   24.0126 C   0  0  0  0  0  0  0  0  0  0  0  0
  -31.4427  -23.5316   17.1654 C   0  0  0  0  0  0  0  0  0  0  0  0
  -18.3776  -31.8175   23.8577 C   0  0  0  0  0  0  0  0  0  0  0  0
  -22.9233  -27.7197   20.5319 C   0  0  0  0  0  0  0  0  0  0  0  0
  -24.7082  -26.9035   22.7438 C   0  0  0  0  0  0  0  0  0  0  0  0
  -19.2040  -30.7276   24.5356 C   0  0  0  0  0  0  0  0  0  0  0  0
  -33.1970  -22.1710   20.1759 C   0  0  0  0  0  0  0  0  0  0  0  0
  -20.6912  -31.0567   24.4538 C   0  0  0  0  0  0  0  0  0  0  0  0
  -32.1405  -21.2102   20.7193 C   0  0  0  0  0  0  0  0  0  0  0  0
  -33.0790  -22.3247   18.6643 C   0  0  0  0  0  0  0  0  0  0  0  0
  -30.6627  -21.7994   18.7439 C   0  0  0  0  0  0  0  0  0  0  0  0
  -21.1614  -31.1266   22.9958 C   0  0  1  0  0  0  0  0  0  0  0  0
  -22.4480  -27.6989   21.9814 C   0  0  1  0  0  0  0  0  0  0  0  0
  -30.7309  -21.6318   20.2709 C   0  0  1  0  0  0  0  0  0  0  0  0
  -24.1026  -20.7913   25.0718 C   0  0  0  0  0  0  0  0  0  0  0  0
  -30.3614  -25.5675   15.1286 C   0  0  0  0  0  0  0  0  0  0  0  0
  -28.9772  -23.4783   15.3350 C   0  0  0  0  0  0  0  0  0  0  0  0
  -23.4245  -27.2290   26.4743 C   0  0  0  0  0  0  0  0  0  0  0  0
  -24.1664  -24.9455   27.1838 C   0  0  0  0  0  0  0  0  0  0  0  0
  -21.7683  -25.3622   26.6381 C   0  0  0  0  0  0  0  0  0  0  0  0
  -24.1945  -21.7093   21.3806 C   0  0  0  0  0  0  0  0  0  0  0  0
  -30.6696  -26.9854   19.9739 C   0  0  0  0  0  0  0  0  0  0  0  0
  -30.5552  -26.4143   18.5536 C   0  0  0  0  0  0  0  0  0  0  0  0
  -29.3436  -27.2116   20.6895 C   0  0  0  0  0  0  0  0  0  1  0  0
  -23.4702  -25.2903   24.7698 C   0  0  1  0  0  0  0  0  0  0  0  0
  -23.7827  -21.6280   23.8428 C   0  0  2  0  0  0  0  0  0  0  0  0
  -29.5105  -24.7093   16.0564 C   0  0  0  0  0  0  0  0  0  0  0  0
  -23.2179  -25.7187   26.2430 C   0  0  0  0  0  0  0  0  0  0  0  0
  -29.9536  -25.0084   18.4892 C   0  0  0  0  0  0  0  0  0  0  0  0
  -29.2894  -19.6485   20.0048 N   0  0  0  0  0  0  0  0  0  0  0  0
  -29.6678  -20.6773   20.7823 N   0  0  0  0  0  0  0  0  0  0  0  0
  -23.2416  -26.8017   22.8237 N   0  0  0  0  0  0  0  0  0  0  0  0
  -31.7157  -22.6956   18.2612 N   0  0  0  0  0  0  0  0  0  0  0  0
  -29.2785  -21.7005   22.8828 N   0  0  0  0  0  0  0  0  0  0  0  0
  -26.4433  -18.1851   22.8948 N   0  0  0  0  0  0  0  0  0  0  0  0
  -21.3349  -29.7949   22.4564 N   0  0  0  0  0  0  0  0  0  0  0  0
  -23.2556  -23.8698   24.5155 N   0  0  0  0  0  0  0  0  0  0  0  0
  -30.2773  -24.3142   17.2366 N   0  0  0  0  0  0  0  0  0  0  0  0
  -24.4441  -21.0022   22.6630 N   0  3  0  0  0  0  0  0  0  0  0  0
  -27.1749  -19.9913   24.1036 O   0  0  0  0  0  0  0  0  0  0  0  0
  -23.4956  -29.4056   23.2324 O   0  0  0  0  0  0  0  0  0  0  0  0
  -21.3615  -25.9262   23.8890 O   0  0  0  0  0  0  0  0  0  0  0  0
  -25.3922  -23.4264   23.7311 O   0  0  0  0  0  0  0  0  0  0  0  0
  -32.1913  -23.5727   16.1809 O   0  0  0  0  0  0  0  0  0  0  0  0
  -25.8061  -14.4542   18.8071 O   0  0  0  0  0  0  0  0  0  0  0  0
  -28.5549  -28.1496   19.9731 O   0  0  0  0  0  0  0  0  0  1  0  0
  -25.2456  -10.1856   22.2523 F   0  0  0  0  0  0  0  0  0  0  0  0
  -26.9207  -11.9953   18.2119 F   0  0  0  0  0  0  0  0  0  0  0  0
  -30.4199  -24.2972   19.5539 F   0  0  0  0  0  0  0  0  0  0  0  0
  -28.6046  -25.0640   18.6325 F   0  0  0  0  0  0  0  0  0  0  0  0
  1  2  1  0  0  0  0
  1  5  2  0  0  0  0
  2  6  2  0  0  0  0
  3  8  2  0  0  0  0
  3 15  1  0  0  0  0
  4  9  1  0  0  0  0
  4 15  2  0  0  0  0
  5 17  1  0  0  0  0
  6 19  1  0  0  0  0
  7 10  2  0  0  0  0
  7 18  1  0  0  0  0
  8 21  1  0  0  0  0
  9 21  2  0  0  0  0
 10 22  1  0  0  0  0
 11 12  2  0  0  0  0
 11 23  1  0  0  0  0
 12 24  1  0  0  0  0
 13 20  1  0  0  0  0
 13 22  2  0  0  0  0
 14 24  2  0  0  0  0
 14 25  1  0  0  0  0
 15 26  1  0  0  0  0
 16 26  1  0  0  0  0
 16 27  2  0  0  0  0
 16 28  1  0  0  0  0
 17 19  2  0  0  0  0
 17 33  1  0  0  0  0
 18 20  2  0  0  0  0
 18 34  1  0  0  0  0
 19 42  1  0  0  0  0
 20 35  1  0  0  0  0
 21 75  1  0  0  0  0
 22 76  1  0  0  0  0
 23 25  2  0  0  0  0
 23 75  1  0  0  0  0
 24 77  1  0  0  0  0
 25 78  1  0  0  0  0
 26 60  2  0  0  0  0
 27 61  1  0  0  0  0
 27 64  1  0  0  0  0
 28 65  1  0  0  0  0
 28 70  2  0  0  0  0
 29 43  1  0  0  0  0
 29 66  1  0  0  0  0
 29 71  2  0  0  0  0
 30 55  1  0  0  0  0
 30 62  1  0  0  0  0
 30 72  2  0  0  0  0
 31 56  1  0  0  0  0
 31 67  1  0  0  0  0
 31 73  2  0  0  0  0
 32 63  1  0  0  0  0
 32 68  1  0  0  0  0
 32 74  2  0  0  0  0
 33 36  1  0  0  0  0
 34 43  1  0  0  0  0
 35 62  1  0  0  0  0
 36 38  1  0  0  0  0
 37 39  1  0  0  0  0
 37 40  1  0  0  0  0
 38 42  1  0  0  0  0
 39 44  1  0  0  0  0
 40 63  1  0  0  0  0
 41 44  1  0  0  0  0
 41 63  1  0  0  0  0
 42 66  1  0  0  0  0
 43 62  1  0  0  0  0
 44 61  1  0  0  0  0
 45 56  1  0  0  0  0
 46 57  1  0  0  0  0
 47 57  1  0  0  0  0
 48 58  1  0  0  0  0
 49 58  1  0  0  0  0
 50 58  1  0  0  0  0
 51 69  1  0  0  0  0
 52 53  1  0  0  0  0
 52 54  1  0  0  0  0
 53 59  1  0  0  0  0
 54 76  1  0  0  0  0
 55 58  1  0  0  0  0
 55 67  1  0  0  0  0
 56 69  1  0  0  0  0
 57 68  1  0  0  0  0
 59 68  1  0  0  0  0
 59 79  1  0  0  0  0
 59 80  1  0  0  0  0
 60 61  1  0  0  0  0
M  CHG  1  69   1
M  ISO  4  32 100  54 101  68 100  76 101
M  END
> <Batch ID>
0014

> <Smiles>
CNC(C)C(=O)NC(C(=O)N1Cc2cc([101O:1][101CH2:1]CCC(F)(F)[100N:0](C(C)C)[100C:0](=O)N3CCCC(n4nc(-c5ccc(Oc6ccc(F)cc6F)cc5)c(C(N)=O)c4N)C3)ccc2CC1C(=O)NC1CCCc2ccccc21)C(C)(C)C

> <Shape>
0.196

> <Color>
0.079

> <Negative vol penalty>
0.000

$$$$

  -OEChem-04052315533D

 85 93  0     1  0  0  0  0  0999 V2000
  -17.3433  -27.8245   19.6992 C   0  0  0  0  0  0  0  0  0  0  0  0
  -18.4994  -27.3422   19.0940 C   0  0  0  0  0  0  0  0  0  0  0  0
  -23.7273  -10.0322   22.1543 C   0  0  0  0  0  0  0  0  0  0  0  0
  -24.2826  -11.4598   24.0227 C   0  0  0  0  0  0  0  0  0  0  0  0
  -17.2675  -27.9064   21.0890 C   0  0  0  0  0  0  0  0  0  0  0  0
  -19.5808  -26.9424   19.8784 C   0  0  0  0  0  0  0  0  0  0  0  0
  -24.9380  -22.1881   19.9944 C   0  0  0  0  0  0  0  0  0  0  0  0
  -23.1826   -9.0951   23.0322 C   0  0  0  0  0  0  0  0  0  0  0  0
  -23.7379  -10.5226   24.9006 C   0  0  0  0  0  0  0  0  0  0  0  0
  -26.3220  -22.1285   20.1520 C   0  0  0  0  0  0  0  0  0  0  0  0
  -20.3141   -8.6877   24.7753 C   0  0  0  0  0  0  0  0  0  0  0  0
  -19.0807   -8.1278   24.4423 C   0  0  0  0  0  0  0  0  0  0  0  0
  -26.0480  -22.2403   22.5461 C   0  0  0  0  0  0  0  0  0  0  0  0
  -32.0875  -18.5792   23.2462 C   0  0  0  0  0  0  0  0  0  0  0  0
  -20.0842   -5.9301   24.4205 C   0  0  0  0  0  0  0  0  0  0  0  0
  -24.2773  -11.2146   22.6495 C   0  0  0  0  0  0  0  0  0  0  0  0
  -24.1728  -13.2553   21.1225 C   0  0  0  0  0  0  0  0  0  0  0  0
  -18.3449  -27.4984   21.8911 C   0  0  0  0  0  0  0  0  0  0  0  0
  -24.0978  -22.2853   21.1129 C   0  0  0  0  0  0  0  0  0  0  0  0
  -19.5198  -27.0202   21.2802 C   0  0  0  0  0  0  0  0  0  0  0  0
  -24.6536  -22.2983   22.4001 C   0  0  0  0  0  0  0  0  0  0  0  0
  -31.9504  -18.2929   21.8880 C   0  0  0  0  0  0  0  0  0  0  0  0
  -31.2039  -16.0609   22.4338 C   0  0  0  0  0  0  0  0  0  0  0  0
  -23.1879   -9.3403   24.4053 C   0  0  0  0  0  0  0  0  0  0  0  0
  -26.8773  -22.1575   21.4279 C   0  0  0  0  0  0  0  0  0  0  0  0
  -21.4326   -7.8688   24.9308 C   0  0  0  0  0  0  0  0  0  0  0  0
  -31.7829  -17.6063   24.1983 C   0  0  0  0  0  0  0  0  0  0  0  0
  -18.9658   -6.7490   24.2650 C   0  0  0  0  0  0  0  0  0  0  0  0
  -21.3177   -6.4901   24.7535 C   0  0  0  0  0  0  0  0  0  0  0  0
  -31.5086  -17.0338   21.4818 C   0  0  0  0  0  0  0  0  0  0  0  0
  -31.3411  -16.3471   23.7921 C   0  0  0  0  0  0  0  0  0  0  0  0
  -24.8407  -12.1828   21.7433 C   0  0  0  0  0  0  0  0  0  0  0  0
  -25.1402  -13.8705   20.3660 C   0  0  0  0  0  0  0  0  0  0  0  0
  -22.8007  -13.6595   21.2209 C   0  0  0  0  0  0  0  0  0  0  0  0
  -22.0051  -24.4335   22.1664 C   0  0  0  0  0  0  0  0  0  0  0  0
  -21.4034  -22.1715   24.4121 C   0  0  0  0  0  0  0  0  0  0  0  0
  -22.5096  -19.4557   26.1578 C   0  0  0  0  0  0  0  0  0  0  0  0
  -31.0936  -14.1506   20.7952 C   0  0  0  0  0  0  0  0  0  0  0  0
  -18.2340  -27.6499   23.3875 C   0  0  0  0  0  0  0  0  0  0  0  0
  -22.6056  -22.3217   20.9271 C   0  0  0  0  0  0  0  0  0  0  0  0
  -23.7942  -22.3815   23.6342 C   0  0  0  0  0  0  0  0  0  0  0  0
  -19.2836  -26.8547   24.1597 C   0  0  0  0  0  0  0  0  0  0  0  0
  -29.2129  -12.9454   18.0226 C   0  0  0  0  0  0  0  0  0  0  0  0
  -20.6652  -27.0573   23.5457 C   0  0  0  0  0  0  0  0  0  0  0  0
  -27.8159  -12.7164   18.6041 C   0  0  0  0  0  0  0  0  0  0  0  0
  -30.3096  -12.5921   19.0256 C   0  0  0  0  0  0  0  0  0  0  0  0
  -28.7891  -13.0148   20.9173 C   0  0  0  0  0  0  0  0  0  0  0  0
  -20.7047  -26.5537   22.0978 C   0  0  1  0  0  0  0  0  0  0  0  0
  -21.8706  -22.9379   22.1135 C   0  0  1  0  0  0  0  0  0  0  0  0
  -27.6505  -13.4184   19.9663 C   0  0  2  0  0  0  0  0  0  0  0  0
  -21.8078  -17.8478   27.9521 C   0  0  0  0  0  0  0  0  0  0  0  0
  -21.9037  -24.3151   26.5252 C   0  0  0  0  0  0  0  0  0  0  0  0
  -22.1303  -22.4894   28.2233 C   0  0  0  0  0  0  0  0  0  0  0  0
  -19.9727  -22.8019   27.0110 C   0  0  0  0  0  0  0  0  0  0  0  0
  -22.7315  -17.1386   24.3300 C   0  0  0  0  0  0  0  0  0  0  0  0
  -30.7937  -18.4766   26.1782 C   0  0  0  0  0  0  0  0  0  0  0  0
  -32.2812  -19.3458   20.8605 C   0  0  0  0  0  0  0  0  0  0  0  0
  -31.0491  -20.0070   20.2328 C   0  0  0  0  0  0  0  0  0  0  0  0
  -30.2011  -20.7768   21.2463 C   0  0  0  0  0  0  0  0  0  0  0  0
  -28.9668  -21.3855   20.5948 C   0  0  0  0  0  0  0  0  0  1  0  0
  -21.9607  -21.8448   25.7765 C   0  0  1  0  0  0  0  0  0  0  0  0
  -21.8592  -18.1168   26.4562 C   0  0  2  0  0  0  0  0  0  0  0  0
  -21.5084  -22.8631   26.8609 C   0  0  0  0  0  0  0  0  0  0  0  0
  -26.1324  -12.1174   21.4099 N   0  0  0  0  0  0  0  0  0  0  0  0
  -26.2840  -13.1566   20.5714 N   0  0  0  0  0  0  0  0  0  0  0  0
  -22.3412  -22.4212   23.4002 N   0  0  0  0  0  0  0  0  0  0  0  0
  -30.0899  -13.2970   20.2904 N   0  0  0  0  0  0  0  0  0  0  0  0
  -25.1155  -14.9470   19.5518 N   0  0  0  0  0  0  0  0  0  0  0  0
  -21.9426  -12.9163   22.0428 N   0  0  0  0  0  0  0  0  0  0  0  0
  -30.7591  -14.7917   21.9876 N   0  0  0  0  0  0  0  0  0  0  0  0
  -20.8044  -25.1102   22.0673 N   0  0  0  0  0  0  0  0  0  0  0  0
  -21.5761  -20.4653   26.0549 N   0  0  0  0  0  0  0  0  0  0  0  0
  -22.6223  -17.0140   25.8063 N   0  3  0  0  0  0  0  0  0  0  0  0
  -22.3452  -14.6406   20.5856 O   0  0  0  0  0  0  0  0  0  0  0  0
  -23.1159  -24.9363   22.2895 O   0  0  0  0  0  0  0  0  0  0  0  0
  -20.1810  -22.1971   24.2485 O   0  0  0  0  0  0  0  0  0  0  0  0
  -23.7245  -19.5928   26.0324 O   0  0  0  0  0  0  0  0  0  0  0  0
  -32.1596  -14.3227   20.1986 O   0  0  0  0  0  0  0  0  0  0  0  0
  -22.6562   -8.4261   25.2622 O   0  0  0  0  0  0  0  0  0  0  0  0
  -31.9271  -17.9180   25.5178 O   0  0  0  0  0  0  0  0  0  0  0  0
  -28.2279  -22.1002   21.5845 O   0  0  0  0  0  0  0  0  0  1  0  0
  -17.7810   -6.2113   23.9467 F   0  0  0  0  0  0  0  0  0  0  0  0
  -22.3884   -5.6982   24.9027 F   0  0  0  0  0  0  0  0  0  0  0  0
  -31.3787  -16.7624   20.1742 F   0  0  0  0  0  0  0  0  0  0  0  0
  -30.9664  -15.1494   24.9867 Cl  0  0  0  0  0  0  0  0  0  0  0  0
  1  2  1  0  0  0  0
  1  5  2  0  0  0  0
  2  6  2  0  0  0  0
  3  8  2  0  0  0  0
  3 16  1  0  0  0  0
  4  9  1  0  0  0  0
  4 16  2  0  0  0  0
  5 18  1  0  0  0  0
  6 20  1  0  0  0  0
  7 10  2  0  0  0  0
  7 19  1  0  0  0  0
  8 24  1  0  0  0  0
  9 24  2  0  0  0  0
 10 25  1  0  0  0  0
 11 12  2  0  0  0  0
 11 26  1  0  0  0  0
 12 28  1  0  0  0  0
 13 21  1  0  0  0  0
 13 25  2  0  0  0  0
 14 22  1  0  0  0  0
 14 27  2  0  0  0  0
 15 28  2  0  0  0  0
 15 29  1  0  0  0  0
 16 32  1  0  0  0  0
 17 32  1  0  0  0  0
 17 33  2  0  0  0  0
 17 34  1  0  0  0  0
 18 20  2  0  0  0  0
 18 39  1  0  0  0  0
 19 21  2  0  0  0  0
 19 40  1  0  0  0  0
 20 48  1  0  0  0  0
 21 41  1  0  0  0  0
 22 30  2  0  0  0  0
 22 57  1  0  0  0  0
 23 30  1  0  0  0  0
 23 31  2  0  0  0  0
 23 70  1  0  0  0  0
 24 79  1  0  0  0  0
 25 81  1  0  0  0  0
 26 29  2  0  0  0  0
 26 79  1  0  0  0  0
 27 31  1  0  0  0  0
 27 80  1  0  0  0  0
 28 82  1  0  0  0  0
 29 83  1  0  0  0  0
 30 84  1  0  0  0  0
 31 85  1  0  0  0  0
 32 64  2  0  0  0  0
 33 65  1  0  0  0  0
 33 68  1  0  0  0  0
 34 69  1  0  0  0  0
 34 74  2  0  0  0  0
 35 49  1  0  0  0  0
 35 71  1  0  0  0  0
 35 75  2  0  0  0  0
 36 61  1  0  0  0  0
 36 66  1  0  0  0  0
 36 76  2  0  0  0  0
 37 62  1  0  0  0  0
 37 72  1  0  0  0  0
 37 77  2  0  0  0  0
 38 67  1  0  0  0  0
 38 70  1  0  0  0  0
 38 78  2  0  0  0  0
 39 42  1  0  0  0  0
 40 49  1  0  0  0  0
 41 66  1  0  0  0  0
 42 44  1  0  0  0  0
 43 45  1  0  0  0  0
 43 46  1  0  0  0  0
 44 48  1  0  0  0  0
 45 50  1  0  0  0  0
 46 67  1  0  0  0  0
 47 50  1  0  0  0  0
 47 67  1  0  0  0  0
 48 71  1  0  0  0  0
 49 66  1  0  0  0  0
 50 65  1  0  0  0  0
 51 62  1  0  0  0  0
 52 63  1  0  0  0  0
 53 63  1  0  0  0  0
 54 63  1  0  0  0  0
 55 73  1  0  0  0  0
 56 80  1  0  0  0  0
 57 58  1  0  0  0  0
 58 59  1  0  0  0  0
 59 60  1  0  0  0  0
 60 81  1  0  0  0  0
 61 63  1  0  0  0  0
 61 72  1  0  0  0  0
 62 73  1  0  0  0  0
 64 65  1  0  0  0  0
M  CHG  1  73   1
M  ISO  4  38 100  60 101  70 100  81 101
M  END
> <Batch ID>
0014

> <Smiles>
CNC(C)C(=O)NC(C(=O)N1Cc2cc([101O:1][101CH2:1]CCCc3cc(OC)c(Cl)c([100NH:0][100C:0](=O)N4CCCC(n5nc(-c6ccc(Oc7ccc(F)cc7F)cc6)c(C(N)=O)c5N)C4)c3F)ccc2CC1C(=O)NC1CCCc2ccccc21)C(C)(C)C

> <Shape>
0.201

> <Color>
0.132

> <Negative vol penalty>
0.000

$$$$

  -OEChem-04052315533D

 84 92  0     1  0  0  0  0  0999 V2000
  -18.7861  -24.6617   24.7453 C   0  0  0  0  0  0  0  0  0  0  0  0
  -20.0377  -24.4314   24.1832 C   0  0  0  0  0  0  0  0  0  0  0  0
  -24.7926  -13.8672   21.9646 C   0  0  0  0  0  0  0  0  0  0  0  0
  -25.8896  -14.1617   19.8322 C   0  0  0  0  0  0  0  0  0  0  0  0
  -18.1181  -25.8586   24.4901 C   0  0  0  0  0  0  0  0  0  0  0  0
  -20.6215  -25.3976   23.3646 C   0  0  0  0  0  0  0  0  0  0  0  0
  -26.5841  -26.7167   22.9027 C   0  0  0  0  0  0  0  0  0  0  0  0
  -24.8395  -12.4832   21.7976 C   0  0  0  0  0  0  0  0  0  0  0  0
  -25.9365  -12.7777   19.6652 C   0  0  0  0  0  0  0  0  0  0  0  0
  -27.5599  -26.3382   21.9817 C   0  0  0  0  0  0  0  0  0  0  0  0
  -23.1305  -10.1220   20.0863 C   0  0  0  0  0  0  0  0  0  0  0  0
  -21.9775   -9.3949   20.3817 C   0  0  0  0  0  0  0  0  0  0  0  0
  -27.1979  -28.3892   20.7645 C   0  0  0  0  0  0  0  0  0  0  0  0
  -24.5506  -24.3906   17.2798 C   0  0  0  0  0  0  0  0  0  0  0  0
  -23.1909   -8.1532   22.0619 C   0  0  0  0  0  0  0  0  0  0  0  0
  -25.3176  -14.7065   20.9819 C   0  0  0  0  0  0  0  0  0  0  0  0
  -26.2392  -16.9525   21.7653 C   0  0  0  0  0  0  0  0  0  0  0  0
  -18.6982  -26.8439   23.6758 C   0  0  0  0  0  0  0  0  0  0  0  0
  -25.8990  -27.9313   22.7552 C   0  0  0  0  0  0  0  0  0  0  0  0
  -19.9600  -26.6082   23.0972 C   0  0  0  0  0  0  0  0  0  0  0  0
  -26.2157  -28.7819   21.6864 C   0  0  0  0  0  0  0  0  0  0  0  0
  -25.2167  -25.3927   16.5744 C   0  0  0  0  0  0  0  0  0  0  0  0
  -26.6197  -23.7813   18.3682 C   0  0  0  0  0  0  0  0  0  0  0  0
  -25.2520  -23.5849   18.1767 C   0  0  0  0  0  0  0  0  0  0  0  0
  -27.2859  -24.7834   17.6628 C   0  0  0  0  0  0  0  0  0  0  0  0
  -25.4114  -11.9384   20.6479 C   0  0  0  0  0  0  0  0  0  0  0  0
  -27.8649  -27.1731   20.9107 C   0  0  0  0  0  0  0  0  0  0  0  0
  -24.3138   -9.8647   20.7786 C   0  0  0  0  0  0  0  0  0  0  0  0
  -22.0076   -8.4105   21.3695 C   0  0  0  0  0  0  0  0  0  0  0  0
  -24.3440   -8.8803   21.7664 C   0  0  0  0  0  0  0  0  0  0  0  0
  -26.5843  -25.5891   16.7658 C   0  0  0  0  0  0  0  0  0  0  0  0
  -25.2689  -16.1363   21.1536 C   0  0  0  0  0  0  0  0  0  0  0  0
  -25.7252  -18.2230   21.6754 C   0  0  0  0  0  0  0  0  0  0  0  0
  -27.4930  -16.5943   22.3614 C   0  0  0  0  0  0  0  0  0  0  0  0
  -22.8620  -28.7532   22.3029 C   0  0  0  0  0  0  0  0  0  0  0  0
  -24.0260  -31.7580   22.6750 C   0  0  0  0  0  0  0  0  0  0  0  0
  -26.7008  -33.8706   22.5041 C   0  0  0  0  0  0  0  0  0  0  0  0
  -23.1986  -22.2627   18.7944 C   0  0  0  0  0  0  0  0  0  0  0  0
  -17.9172  -28.1021   23.3904 C   0  0  0  0  0  0  0  0  0  0  0  0
  -24.8680  -28.3374   23.7723 C   0  0  0  0  0  0  0  0  0  0  0  0
  -25.5234  -30.1058   21.4946 C   0  0  0  0  0  0  0  0  0  0  0  0
  -18.7691  -29.2307   22.8152 C   0  0  0  0  0  0  0  0  0  0  0  0
  -21.1134  -19.8235   20.3368 C   0  0  0  0  0  0  0  0  0  0  0  0
  -19.6660  -28.7064   21.6982 C   0  0  0  0  0  0  0  0  0  0  0  0
  -22.0884  -18.7139   20.7372 C   0  0  0  0  0  0  0  0  0  0  0  0
  -21.4981  -20.4629   19.0038 C   0  0  0  0  0  0  0  0  0  0  0  0
  -23.8585  -19.8336   19.3228 C   0  0  0  0  0  0  0  0  0  0  0  0
  -20.6370  -27.6423   22.2239 C   0  0  1  0  0  0  0  0  0  0  0  0
  -23.8707  -29.3601   23.2366 C   0  0  1  0  0  0  0  0  0  0  0  0
  -23.5492  -19.2035   20.6907 C   0  0  2  0  0  0  0  0  0  0  0  0
  -24.4635  -26.2524   15.6158 C   0  0  0  0  0  0  0  0  0  0  0  0
  -27.3725  -22.9180   19.3326 C   0  0  0  0  0  0  0  0  0  0  0  0
  -27.3347  -36.2766   22.8303 C   0  0  0  0  0  0  0  0  0  0  0  0
  -30.7743  -26.1256   17.9337 C   0  0  0  0  0  0  0  0  0  0  0  0
  -22.7086  -32.4631   20.0147 C   0  0  0  0  0  0  0  0  0  0  0  0
  -24.1356  -34.5187   19.9325 C   0  0  0  0  0  0  0  0  0  0  0  0
  -22.4911  -34.2173   21.7839 C   0  0  0  0  0  0  0  0  0  0  0  0
  -28.6240  -33.1937   24.6493 C   0  0  0  0  0  0  0  0  0  0  0  0
  -28.6603  -27.2765   18.6718 C   0  0  0  0  0  0  0  0  0  1  0  0
  -24.5900  -32.8083   21.7488 C   0  0  1  0  0  0  0  0  0  0  0  0
  -27.2309  -34.9055   23.4799 C   0  0  2  0  0  0  0  0  0  0  0  0
  -29.2792  -26.2839   17.6900 C   0  0  2  0  0  0  0  0  0  0  0  0
  -23.4932  -33.4761   20.8722 C   0  0  0  0  0  0  0  0  0  0  0  0
  -24.2180  -16.8299   20.7082 N   0  0  0  0  0  0  0  0  0  0  0  0
  -24.5249  -18.0955   21.0404 N   0  0  0  0  0  0  0  0  0  0  0  0
  -24.5184  -30.4553   22.5120 N   0  0  0  0  0  0  0  0  0  0  0  0
  -22.8935  -20.9064   19.0352 N   0  0  0  0  0  0  0  0  0  0  0  0
  -26.1873  -19.4257   22.0785 N   0  0  0  0  0  0  0  0  0  0  0  0
  -27.8678  -15.2438   22.3685 N   0  0  0  0  0  0  0  0  0  0  0  0
  -24.5553  -22.5730   18.8826 N   0  0  0  0  0  0  0  0  0  0  0  0
  -28.6413  -24.9913   17.8401 N   0  0  0  0  0  0  0  0  0  0  0  0
  -21.7335  -28.2652   22.9338 N   0  0  0  0  0  0  0  0  0  0  0  0
  -25.3309  -33.7404   22.5917 N   0  0  0  0  0  0  0  0  0  0  0  0
  -28.5834  -34.5129   23.9675 N   0  3  0  0  0  0  0  0  0  0  0  0
  -28.2508  -17.4445   22.8871 O   0  0  0  0  0  0  0  0  0  0  0  0
  -23.0899  -28.7306   21.0991 O   0  0  0  0  0  0  0  0  0  0  0  0
  -23.1850  -32.0828   23.5169 O   0  0  0  0  0  0  0  0  0  0  0  0
  -27.4287  -33.2432   21.7379 O   0  0  0  0  0  0  0  0  0  0  0  0
  -22.3182  -23.0935   18.5563 O   0  0  0  0  0  0  0  0  0  0  0  0
  -25.4576  -10.5880   20.4847 O   0  0  0  0  0  0  0  0  0  0  0  0
  -28.8165  -26.8058   20.0099 O   0  0  0  0  0  0  0  0  0  1  0  0
  -20.8998   -7.7134   21.6541 F   0  0  0  0  0  0  0  0  0  0  0  0
  -25.4775   -8.6295   22.4357 F   0  0  0  0  0  0  0  0  0  0  0  0
  -27.2233  -26.5524   16.0846 F   0  0  0  0  0  0  0  0  0  0  0  0
  1  2  1  0  0  0  0
  1  5  2  0  0  0  0
  2  6  2  0  0  0  0
  3  8  2  0  0  0  0
  3 16  1  0  0  0  0
  4  9  1  0  0  0  0
  4 16  2  0  0  0  0
  5 18  1  0  0  0  0
  6 20  1  0  0  0  0
  7 10  2  0  0  0  0
  7 19  1  0  0  0  0
  8 26  1  0  0  0  0
  9 26  2  0  0  0  0
 10 27  1  0  0  0  0
 11 12  2  0  0  0  0
 11 28  1  0  0  0  0
 12 29  1  0  0  0  0
 13 21  1  0  0  0  0
 13 27  2  0  0  0  0
 14 22  2  0  0  0  0
 14 24  1  0  0  0  0
 15 29  2  0  0  0  0
 15 30  1  0  0  0  0
 16 32  1  0  0  0  0
 17 32  1  0  0  0  0
 17 33  2  0  0  0  0
 17 34  1  0  0  0  0
 18 20  2  0  0  0  0
 18 39  1  0  0  0  0
 19 21  2  0  0  0  0
 19 40  1  0  0  0  0
 20 48  1  0  0  0  0
 21 41  1  0  0  0  0
 22 31  1  0  0  0  0
 22 51  1  0  0  0  0
 23 24  2  0  0  0  0
 23 25  1  0  0  0  0
 23 52  1  0  0  0  0
 24 70  1  0  0  0  0
 25 31  2  0  0  0  0
 25 71  1  0  0  0  0
 26 80  1  0  0  0  0
 27 81  1  0  0  0  0
 28 30  2  0  0  0  0
 28 80  1  0  0  0  0
 29 82  1  0  0  0  0
 30 83  1  0  0  0  0
 31 84  1  0  0  0  0
 32 64  2  0  0  0  0
 33 65  1  0  0  0  0
 33 68  1  0  0  0  0
 34 69  1  0  0  0  0
 34 75  2  0  0  0  0
 35 49  1  0  0  0  0
 35 72  1  0  0  0  0
 35 76  2  0  0  0  0
 36 60  1  0  0  0  0
 36 66  1  0  0  0  0
 36 77  2  0  0  0  0
 37 61  1  0  0  0  0
 37 73  1  0  0  0  0
 37 78  2  0  0  0  0
 38 67  1  0  0  0  0
 38 70  1  0  0  0  0
 38 79  2  0  0  0  0
 39 42  1  0  0  0  0
 40 49  1  0  0  0  0
 41 66  1  0  0  0  0
 42 44  1  0  0  0  0
 43 45  1  0  0  0  0
 43 46  1  0  0  0  0
 44 48  1  0  0  0  0
 45 50  1  0  0  0  0
 46 67  1  0  0  0  0
 47 50  1  0  0  0  0
 47 67  1  0  0  0  0
 48 72  1  0  0  0  0
 49 66  1  0  0  0  0
 50 65  1  0  0  0  0
 53 61  1  0  0  0  0
 54 62  1  0  0  0  0
 55 63  1  0  0  0  0
 56 63  1  0  0  0  0
 57 63  1  0  0  0  0
 58 74  1  0  0  0  0
 59 62  1  0  0  0  0
 59 81  1  0  0  0  0
 60 63  1  0  0  0  0
 60 73  1  0  0  0  0
 61 74  1  0  0  0  0
 62 71  1  0  0  0  0
 64 65  1  0  0  0  0
M  CHG  1  74   1
M  ISO  4  38 100  59 101  70 100  81 101
M  END
> <Batch ID>
0014

> <Smiles>
CNC(C)C(=O)NC(C(=O)N1Cc2cc([101O:1][101CH2:1]C(C)Nc3c(C)c([100NH:0][100C:0](=O)N4CCCC(n5nc(-c6ccc(Oc7ccc(F)cc7F)cc6)c(C(N)=O)c5N)C4)cc(C)c3F)ccc2CC1C(=O)NC1CCCc2ccccc21)C(C)(C)C

> <Shape>
0.221

> <Color>
0.094

> <Negative vol penalty>
0.000

$$$$

  -OEChem-04052315533D

 89 97  0     1  0  0  0  0  0999 V2000
  -28.5047  -17.9799   17.9750 C   0  0  0  0  0  0  0  0  0  0  0  0
  -27.4760  -18.9156   18.0154 C   0  0  0  0  0  0  0  0  0  0  0  0
  -24.5155  -16.9200   23.2057 C   0  0  0  0  0  0  0  0  0  0  0  0
  -23.4440  -18.0042   21.3312 C   0  0  0  0  0  0  0  0  0  0  0  0
  -29.6655  -18.1892   18.7183 C   0  0  0  0  0  0  0  0  0  0  0  0
  -27.6072  -20.0608   18.8000 C   0  0  0  0  0  0  0  0  0  0  0  0
  -25.4279  -25.6468   17.5538 C   0  0  0  0  0  0  0  0  0  0  0  0
  -25.0561  -15.9653   22.3444 C   0  0  0  0  0  0  0  0  0  0  0  0
  -23.9847  -17.0495   20.4700 C   0  0  0  0  0  0  0  0  0  0  0  0
  -24.2851  -26.3239   17.9775 C   0  0  0  0  0  0  0  0  0  0  0  0
  -26.4249  -13.0335   20.6848 C   0  0  0  0  0  0  0  0  0  0  0  0
  -26.3597  -11.6956   21.0740 C   0  0  0  0  0  0  0  0  0  0  0  0
  -25.5757  -27.4106   19.7017 C   0  0  0  0  0  0  0  0  0  0  0  0
  -18.8042  -29.6681   23.2137 C   0  0  0  0  0  0  0  0  0  0  0  0
  -17.4419  -27.7277   23.6782 C   0  0  0  0  0  0  0  0  0  0  0  0
  -23.9484  -11.8324   21.1398 C   0  0  0  0  0  0  0  0  0  0  0  0
  -23.7094  -17.9395   22.6991 C   0  0  0  0  0  0  0  0  0  0  0  0
  -23.7269  -20.1525   23.9680 C   0  0  0  0  0  0  0  0  0  0  0  0
  -29.8150  -19.3423   19.5049 C   0  0  0  0  0  0  0  0  0  0  0  0
  -26.6528  -25.8387   18.2089 C   0  0  0  0  0  0  0  0  0  0  0  0
  -28.7706  -20.2852   19.5556 C   0  0  0  0  0  0  0  0  0  0  0  0
  -26.7330  -26.7367   19.2827 C   0  0  0  0  0  0  0  0  0  0  0  0
  -17.6639  -29.1008   23.7825 C   0  0  0  0  0  0  0  0  0  0  0  0
  -19.7225  -28.8622   22.5405 C   0  0  0  0  0  0  0  0  0  0  0  0
  -18.3602  -26.9218   23.0052 C   0  0  0  0  0  0  0  0  0  0  0  0
  -24.7908  -16.0300   20.9766 C   0  0  0  0  0  0  0  0  0  0  0  0
  -24.3583  -27.2038   19.0534 C   0  0  0  0  0  0  0  0  0  0  0  0
  -25.2520  -13.7708   20.5231 C   0  0  0  0  0  0  0  0  0  0  0  0
  -25.1214  -11.0951   21.3015 C   0  0  0  0  0  0  0  0  0  0  0  0
  -24.0137  -13.1703   20.7506 C   0  0  0  0  0  0  0  0  0  0  0  0
  -19.5005  -27.4891   22.4363 C   0  0  0  0  0  0  0  0  0  0  0  0
  -23.1501  -18.9257   23.5883 C   0  0  0  0  0  0  0  0  0  0  0  0
  -22.8071  -20.7157   24.8185 C   0  0  0  0  0  0  0  0  0  0  0  0
  -24.9818  -20.7312   23.5860 C   0  0  0  0  0  0  0  0  0  0  0  0
  -28.6466  -23.9679   19.8302 C   0  0  0  0  0  0  0  0  0  0  0  0
  -30.5169  -26.6182   19.8271 C   0  0  0  0  0  0  0  0  0  0  0  0
  -30.7250  -30.0171   19.6012 C   0  0  0  0  0  0  0  0  0  0  0  0
  -16.8880  -20.0586   25.4372 C   0  0  0  0  0  0  0  0  0  0  0  0
  -31.0686  -19.5020   20.3281 C   0  0  0  0  0  0  0  0  0  0  0  0
  -27.8820  -25.1210   17.7226 C   0  0  0  0  0  0  0  0  0  0  0  0
  -28.0285  -26.9933   20.0069 C   0  0  0  0  0  0  0  0  0  0  0  0
  -31.2837  -20.9238   20.8406 C   0  0  0  0  0  0  0  0  0  0  0  0
  -19.3726  -19.5352   27.9331 C   0  0  0  0  0  0  0  0  0  0  0  0
  -29.9926  -21.4783   21.4341 C   0  0  0  0  0  0  0  0  0  0  0  0
  -20.6745  -19.4303   27.1369 C   0  0  0  0  0  0  0  0  0  0  0  0
  -18.2021  -18.8982   27.1873 C   0  0  0  0  0  0  0  0  0  0  0  0
  -19.3019  -19.2889   25.0168 C   0  0  0  0  0  0  0  0  0  0  0  0
  -28.8857  -21.5520   20.3754 C   0  0  1  0  0  0  0  0  0  0  0  0
  -28.9664  -25.0032   18.7893 C   0  0  1  0  0  0  0  0  0  0  0  0
  -20.4999  -19.9670   25.7034 C   0  0  2  0  0  0  0  0  0  0  0  0
  -16.6816  -29.9624   24.5015 C   0  0  0  0  0  0  0  0  0  0  0  0
  -32.3844  -31.8982   19.6723 C   0  0  0  0  0  0  0  0  0  0  0  0
  -21.8907  -30.2389   18.3784 C   0  0  0  0  0  0  0  0  0  0  0  0
  -30.6939  -26.3443   22.8609 C   0  0  0  0  0  0  0  0  0  0  0  0
  -31.5236  -28.7045   22.9558 C   0  0  0  0  0  0  0  0  0  0  0  0
  -32.8420  -26.9687   21.7427 C   0  0  0  0  0  0  0  0  0  0  0  0
  -30.0634  -30.8592   16.8422 C   0  0  0  0  0  0  0  0  0  0  0  0
  -20.9343  -29.5162   21.9450 C   0  0  0  0  0  0  0  0  0  0  0  0
  -16.9442  -23.4166   23.2460 C   0  0  0  0  0  0  0  0  0  0  0  0
  -15.7120  -22.7255   23.8433 C   0  0  0  0  0  0  0  0  0  0  0  0
  -16.9458  -24.9243   23.4901 C   0  0  0  0  0  0  0  0  0  0  0  0
  -15.7057  -21.2210   23.5905 C   0  0  0  0  0  0  0  0  0  0  0  0
  -23.4344  -29.1516   20.0576 C   0  0  0  0  0  0  0  0  0  1  0  0
  -30.6812  -27.8118   20.7367 C   0  0  1  0  0  0  0  0  0  0  0  0
  -31.6329  -30.9186   18.7843 C   0  0  2  0  0  0  0  0  0  0  0  0
  -22.1988  -30.0203   19.8508 C   0  0  2  0  0  0  0  0  0  0  0  0
  -31.4102  -27.4513   22.0618 C   0  0  0  0  0  0  0  0  0  0  0  0
  -21.9564  -18.7209   24.1516 N   0  0  0  0  0  0  0  0  0  0  0  0
  -21.7757  -19.8265   24.8939 N   0  0  0  0  0  0  0  0  0  0  0  0
  -29.2011  -26.2629   19.4980 N   0  0  0  0  0  0  0  0  0  0  0  0
  -18.0904  -19.4517   25.8356 N   0  0  0  0  0  0  0  0  0  0  0  0
  -22.7882  -21.8798   25.5017 N   0  0  0  0  0  0  0  0  0  0  0  0
  -25.8054  -20.0184   22.7039 N   0  0  0  0  0  0  0  0  0  0  0  0
  -18.1040  -25.5344   22.9183 N   0  0  0  0  0  0  0  0  0  0  0  0
  -29.0865  -22.6969   19.5131 N   0  0  0  0  0  0  0  0  0  0  0  0
  -31.3517  -28.8383   19.9460 N   0  0  0  0  0  0  0  0  0  0  0  0
  -16.8688  -20.5628   24.1425 N   0  0  0  0  0  0  0  0  0  0  0  0
  -30.8356  -31.6975   17.7951 N   0  3  0  0  0  0  0  0  0  0  0  0
  -21.0292  -29.3358   20.4740 N   0  3  0  0  0  0  0  0  0  0  0  0
  -25.3690  -21.8398   24.0270 O   0  0  0  0  0  0  0  0  0  0  0  0
  -28.0466  -24.2980   20.8464 O   0  0  0  0  0  0  0  0  0  0  0  0
  -31.5194  -26.0273   19.4178 O   0  0  0  0  0  0  0  0  0  0  0  0
  -29.5760  -30.3291   19.9063 O   0  0  0  0  0  0  0  0  0  0  0  0
  -15.9062  -20.1496   26.1820 O   0  0  0  0  0  0  0  0  0  0  0  0
  -25.3184  -15.0987   20.1358 O   0  0  0  0  0  0  0  0  0  0  0  0
  -23.2443  -27.8654   19.4695 O   0  0  0  0  0  0  0  0  0  1  0  0
  -25.0588   -9.8100   21.6738 F   0  0  0  0  0  0  0  0  0  0  0  0
  -22.8834  -13.8733   20.5957 F   0  0  0  0  0  0  0  0  0  0  0  0
  -20.6450  -26.4925   21.5987 Cl  0  0  0  0  0  0  0  0  0  0  0  0
  1  2  1  0  0  0  0
  1  5  2  0  0  0  0
  2  6  2  0  0  0  0
  3  8  2  0  0  0  0
  3 17  1  0  0  0  0
  4  9  1  0  0  0  0
  4 17  2  0  0  0  0
  5 19  1  0  0  0  0
  6 21  1  0  0  0  0
  7 10  2  0  0  0  0
  7 20  1  0  0  0  0
  8 26  1  0  0  0  0
  9 26  2  0  0  0  0
 10 27  1  0  0  0  0
 11 12  2  0  0  0  0
 11 28  1  0  0  0  0
 12 29  1  0  0  0  0
 13 22  1  0  0  0  0
 13 27  2  0  0  0  0
 14 23  2  0  0  0  0
 14 24  1  0  0  0  0
 15 23  1  0  0  0  0
 15 25  2  0  0  0  0
 16 29  2  0  0  0  0
 16 30  1  0  0  0  0
 17 32  1  0  0  0  0
 18 32  1  0  0  0  0
 18 33  2  0  0  0  0
 18 34  1  0  0  0  0
 19 21  2  0  0  0  0
 19 39  1  0  0  0  0
 20 22  2  0  0  0  0
 20 40  1  0  0  0  0
 21 48  1  0  0  0  0
 22 41  1  0  0  0  0
 23 51  1  0  0  0  0
 24 31  2  0  0  0  0
 24 58  1  0  0  0  0
 25 31  1  0  0  0  0
 25 74  1  0  0  0  0
 26 85  1  0  0  0  0
 27 86  1  0  0  0  0
 28 30  2  0  0  0  0
 28 85  1  0  0  0  0
 29 87  1  0  0  0  0
 30 88  1  0  0  0  0
 31 89  1  0  0  0  0
 32 68  2  0  0  0  0
 33 69  1  0  0  0  0
 33 72  1  0  0  0  0
 34 73  1  0  0  0  0
 34 80  2  0  0  0  0
 35 49  1  0  0  0  0
 35 75  1  0  0  0  0
 35 81  2  0  0  0  0
 36 64  1  0  0  0  0
 36 70  1  0  0  0  0
 36 82  2  0  0  0  0
 37 65  1  0  0  0  0
 37 76  1  0  0  0  0
 37 83  2  0  0  0  0
 38 71  1  0  0  0  0
 38 77  1  0  0  0  0
 38 84  2  0  0  0  0
 39 42  1  0  0  0  0
 40 49  1  0  0  0  0
 41 70  1  0  0  0  0
 42 44  1  0  0  0  0
 43 45  1  0  0  0  0
 43 46  1  0  0  0  0
 44 48  1  0  0  0  0
 45 50  1  0  0  0  0
 46 71  1  0  0  0  0
 47 50  1  0  0  0  0
 47 71  1  0  0  0  0
 48 75  1  0  0  0  0
 49 70  1  0  0  0  0
 50 69  1  0  0  0  0
 52 65  1  0  0  0  0
 53 66  1  0  0  0  0
 54 67  1  0  0  0  0
 55 67  1  0  0  0  0
 56 67  1  0  0  0  0
 57 78  1  0  0  0  0
 58 79  1  0  0  0  0
 59 60  1  0  0  0  0
 59 61  1  0  0  0  0
 60 62  1  0  0  0  0
 61 74  1  0  0  0  0
 62 77  1  0  0  0  0
 63 66  1  0  0  0  0
 63 86  1  0  0  0  0
 64 67  1  0  0  0  0
 64 76  1  0  0  0  0
 65 78  1  0  0  0  0
 66 79  1  0  0  0  0
 68 69  1  0  0  0  0
M  CHG  2  78   1  79   1
M  ISO  4  38 100  63 101  77 100  86 101
M  END
> <Batch ID>
0014

> <Smiles>
CNC(C)C(=O)NC(C(=O)N1Cc2cc([101O:1][101CH2:1]C(C)NCc3cc(C)cc(NCCCC[100NH:0][100C:0](=O)N4CCCC(n5nc(-c6ccc(Oc7ccc(F)cc7F)cc6)c(C(N)=O)c5N)C4)c3Cl)ccc2CC1C(=O)NC1CCCc2ccccc21)C(C)(C)C

> <Shape>
0.232

> <Color>
0.048

> <Negative vol penalty>
0.000

$$$$

  -OEChem-04052315533D

 86 94  0     1  0  0  0  0  0999 V2000
  -27.4633  -35.5434   22.5185 C   0  0  0  0  0  0  0  0  0  0  0  0
  -27.8693  -34.2533   22.1927 C   0  0  0  0  0  0  0  0  0  0  0  0
  -27.3502  -11.5982   20.5708 C   0  0  0  0  0  0  0  0  0  0  0  0
  -26.4413  -13.4652   19.3357 C   0  0  0  0  0  0  0  0  0  0  0  0
  -26.5437  -35.7448   23.5469 C   0  0  0  0  0  0  0  0  0  0  0  0
  -27.3566  -33.1638   22.8959 C   0  0  0  0  0  0  0  0  0  0  0  0
  -25.9950  -29.3530   19.8514 C   0  0  0  0  0  0  0  0  0  0  0  0
  -26.2208  -10.8416   20.2583 C   0  0  0  0  0  0  0  0  0  0  0  0
  -25.3119  -12.7086   19.0231 C   0  0  0  0  0  0  0  0  0  0  0  0
  -27.0133  -28.5422   19.3518 C   0  0  0  0  0  0  0  0  0  0  0  0
  -23.4119   -8.5386   20.0863 C   0  0  0  0  0  0  0  0  0  0  0  0
  -22.8214   -7.7985   21.1106 C   0  0  0  0  0  0  0  0  0  0  0  0
  -26.5127  -26.8874   21.0341 C   0  0  0  0  0  0  0  0  0  0  0  0
  -26.6343  -22.0653   19.3999 C   0  0  0  0  0  0  0  0  0  0  0  0
  -22.4346   -9.8318   22.3568 C   0  0  0  0  0  0  0  0  0  0  0  0
  -27.4604  -12.9100   20.1095 C   0  0  0  0  0  0  0  0  0  0  0  0
  -29.8204  -13.7839   19.6922 C   0  0  0  0  0  0  0  0  0  0  0  0
  -26.0122  -34.6565   24.2567 C   0  0  0  0  0  0  0  0  0  0  0  0
  -25.2339  -28.9412   20.9548 C   0  0  0  0  0  0  0  0  0  0  0  0
  -26.4300  -33.3509   23.9357 C   0  0  0  0  0  0  0  0  0  0  0  0
  -25.4838  -27.6937   21.5442 C   0  0  0  0  0  0  0  0  0  0  0  0
  -26.5002  -21.1176   21.6182 C   0  0  0  0  0  0  0  0  0  0  0  0
  -27.8562  -21.3807   21.8126 C   0  0  0  0  0  0  0  0  0  0  0  0
  -27.9902  -22.3285   19.5943 C   0  0  0  0  0  0  0  0  0  0  0  0
  -25.2016  -11.3968   19.4845 C   0  0  0  0  0  0  0  0  0  0  0  0
  -27.2742  -27.3105   19.9449 C   0  0  0  0  0  0  0  0  0  0  0  0
  -23.5138   -9.9253   20.1973 C   0  0  0  0  0  0  0  0  0  0  0  0
  -22.3328   -8.4451   22.2458 C   0  0  0  0  0  0  0  0  0  0  0  0
  -25.8892  -21.4599   20.4119 C   0  0  0  0  0  0  0  0  0  0  0  0
  -23.0251  -10.5719   21.3325 C   0  0  0  0  0  0  0  0  0  0  0  0
  -28.6012  -21.9861   20.8006 C   0  0  0  0  0  0  0  0  0  0  0  0
  -28.6266  -13.6922   20.4325 C   0  0  0  0  0  0  0  0  0  0  0  0
  -30.6075  -14.6465   20.4153 C   0  0  0  0  0  0  0  0  0  0  0  0
  -30.1853  -13.1464   18.4608 C   0  0  0  0  0  0  0  0  0  0  0  0
  -24.7568  -30.0567   23.8928 C   0  0  0  0  0  0  0  0  0  0  0  0
  -22.5764  -27.6589   24.0291 C   0  0  0  0  0  0  0  0  0  0  0  0
  -28.7977  -24.3672   18.4695 C   0  0  0  0  0  0  0  0  0  0  0  0
  -21.5239  -24.6302   22.8604 C   0  0  0  0  0  0  0  0  0  0  0  0
  -29.3537  -19.0117   24.3171 C   0  0  0  0  0  0  0  0  0  0  0  0
  -25.0566  -34.9271   25.3917 C   0  0  0  0  0  0  0  0  0  0  0  0
  -24.1215  -29.8156   21.4650 C   0  0  0  0  0  0  0  0  0  0  0  0
  -24.6819  -27.1964   22.7182 C   0  0  0  0  0  0  0  0  0  0  0  0
  -24.2771  -33.6932   25.8390 C   0  0  0  0  0  0  0  0  0  0  0  0
  -31.3862  -16.1455   24.8916 C   0  0  0  0  0  0  0  0  0  0  0  0
  -25.2124  -32.4981   25.9938 C   0  0  0  0  0  0  0  0  0  0  0  0
  -31.0172  -15.2000   23.7472 C   0  0  0  0  0  0  0  0  0  0  0  0
  -30.1749  -16.9332   25.3858 C   0  0  0  0  0  0  0  0  0  0  0  0
  -29.0732  -16.7202   23.1915 C   0  0  0  0  0  0  0  0  0  0  0  0
  -25.8777  -32.1417   24.6590 C   0  0  1  0  0  0  0  0  0  0  0  0
  -23.7485  -29.5229   22.9150 C   0  0  1  0  0  0  0  0  0  0  0  0
  -30.2736  -15.9448   22.6222 C   0  0  2  0  0  0  0  0  0  0  0  0
  -25.6805  -20.4701   22.6864 C   0  0  0  0  0  0  0  0  0  0  0  0
  -19.7312  -22.9056   23.1917 C   0  0  0  0  0  0  0  0  0  0  0  0
  -23.9588  -26.7155   26.5804 C   0  0  0  0  0  0  0  0  0  0  0  0
  -22.7708  -24.5258   26.3314 C   0  0  0  0  0  0  0  0  0  0  0  0
  -21.4606  -26.6242   26.6526 C   0  0  0  0  0  0  0  0  0  0  0  0
  -29.3870  -22.1102   17.5131 C   0  0  0  0  0  0  0  0  0  0  0  0
  -20.5559  -24.9341   20.0802 C   0  0  0  0  0  0  0  0  0  0  0  0
  -28.4914  -21.0046   23.1155 C   0  0  0  0  0  0  0  0  0  0  0  0
  -28.1018  -25.1074   19.6027 C   0  0  0  0  0  0  0  0  0  1  0  0
  -22.6089  -26.2064   24.4392 C   0  0  1  0  0  0  0  0  0  0  0  0
  -20.1572  -24.1419   22.4152 C   0  0  2  0  0  0  0  0  0  0  0  0
  -22.7164  -26.0279   25.9800 C   0  0  0  0  0  0  0  0  0  0  0  0
  -28.6488  -14.4370   21.5410 N   0  0  0  0  0  0  0  0  0  0  0  0
  -29.8662  -15.0049   21.5026 N   0  0  0  0  0  0  0  0  0  0  0  0
  -23.6092  -28.0904   23.1846 N   0  0  0  0  0  0  0  0  0  0  0  0
  -29.5158  -17.6172   24.2706 N   0  0  0  0  0  0  0  0  0  0  0  0
  -31.8544  -15.1259   20.2208 N   0  0  0  0  0  0  0  0  0  0  0  0
  -29.2579  -12.2906   17.8511 N   0  0  0  0  0  0  0  0  0  0  0  0
  -24.9531  -31.4220   23.8096 N   0  0  0  0  0  0  0  0  0  0  0  0
  -21.4274  -25.5885   23.8470 N   0  0  0  0  0  0  0  0  0  0  0  0
  -28.7247  -19.5812   23.2168 N   0  0  0  0  0  0  0  0  0  0  0  0
  -28.7298  -22.9585   18.5193 N   0  0  0  0  0  0  0  0  0  0  0  0
  -20.1759  -23.8022   20.9642 N   0  3  0  0  0  0  0  0  0  0  0  0
  -31.3070  -13.3174   17.9259 O   0  0  0  0  0  0  0  0  0  0  0  0
  -25.3144  -29.2871   24.6665 O   0  0  0  0  0  0  0  0  0  0  0  0
  -21.6643  -28.3822   24.4370 O   0  0  0  0  0  0  0  0  0  0  0  0
  -29.3927  -25.0222   17.6101 O   0  0  0  0  0  0  0  0  0  0  0  0
  -22.5723  -24.2014   22.3834 O   0  0  0  0  0  0  0  0  0  0  0  0
  -29.7455  -19.6989   25.2664 O   0  0  0  0  0  0  0  0  0  0  0  0
  -24.0995  -10.6587   19.1791 O   0  0  0  0  0  0  0  0  0  0  0  0
  -28.2679  -26.5174   19.4597 O   0  0  0  0  0  0  0  0  0  1  0  0
  -21.7644   -7.7344   23.2287 F   0  0  0  0  0  0  0  0  0  0  0  0
  -24.5868  -21.2115   20.2148 F   0  0  0  0  0  0  0  0  0  0  0  0
  -23.1191  -11.9040   21.4442 F   0  0  0  0  0  0  0  0  0  0  0  0
  -30.2870  -22.3122   21.0446 Cl  0  0  0  0  0  0  0  0  0  0  0  0
  1  2  1  0  0  0  0
  1  5  2  0  0  0  0
  2  6  2  0  0  0  0
  3  8  2  0  0  0  0
  3 16  1  0  0  0  0
  4  9  1  0  0  0  0
  4 16  2  0  0  0  0
  5 18  1  0  0  0  0
  6 20  1  0  0  0  0
  7 10  2  0  0  0  0
  7 19  1  0  0  0  0
  8 25  1  0  0  0  0
  9 25  2  0  0  0  0
 10 26  1  0  0  0  0
 11 12  2  0  0  0  0
 11 27  1  0  0  0  0
 12 28  1  0  0  0  0
 13 21  1  0  0  0  0
 13 26  2  0  0  0  0
 14 24  1  0  0  0  0
 14 29  2  0  0  0  0
 15 28  2  0  0  0  0
 15 30  1  0  0  0  0
 16 32  1  0  0  0  0
 17 32  1  0  0  0  0
 17 33  2  0  0  0  0
 17 34  1  0  0  0  0
 18 20  2  0  0  0  0
 18 40  1  0  0  0  0
 19 21  2  0  0  0  0
 19 41  1  0  0  0  0
 20 49  1  0  0  0  0
 21 42  1  0  0  0  0
 22 23  2  0  0  0  0
 22 29  1  0  0  0  0
 22 52  1  0  0  0  0
 23 31  1  0  0  0  0
 23 59  1  0  0  0  0
 24 31  2  0  0  0  0
 24 73  1  0  0  0  0
 25 81  1  0  0  0  0
 26 82  1  0  0  0  0
 27 30  2  0  0  0  0
 27 81  1  0  0  0  0
 28 83  1  0  0  0  0
 29 84  1  0  0  0  0
 30 85  1  0  0  0  0
 31 86  1  0  0  0  0
 32 64  2  0  0  0  0
 33 65  1  0  0  0  0
 33 68  1  0  0  0  0
 34 69  1  0  0  0  0
 34 75  2  0  0  0  0
 35 50  1  0  0  0  0
 35 70  1  0  0  0  0
 35 76  2  0  0  0  0
 36 61  1  0  0  0  0
 36 66  1  0  0  0  0
 36 77  2  0  0  0  0
 37 60  1  0  0  0  0
 37 73  1  0  0  0  0
 37 78  2  0  0  0  0
 38 62  1  0  0  0  0
 38 71  1  0  0  0  0
 38 79  2  0  0  0  0
 39 67  1  0  0  0  0
 39 72  1  0  0  0  0
 39 80  2  0  0  0  0
 40 43  1  0  0  0  0
 41 50  1  0  0  0  0
 42 66  1  0  0  0  0
 43 45  1  0  0  0  0
 44 46  1  0  0  0  0
 44 47  1  0  0  0  0
 45 49  1  0  0  0  0
 46 51  1  0  0  0  0
 47 67  1  0  0  0  0
 48 51  1  0  0  0  0
 48 67  1  0  0  0  0
 49 70  1  0  0  0  0
 50 66  1  0  0  0  0
 51 65  1  0  0  0  0
 53 62  1  0  0  0  0
 54 63  1  0  0  0  0
 55 63  1  0  0  0  0
 56 63  1  0  0  0  0
 57 73  1  0  0  0  0
 58 74  1  0  0  0  0
 59 72  1  0  0  0  0
 60 82  1  0  0  0  0
 61 63  1  0  0  0  0
 61 71  1  0  0  0  0
 62 74  1  0  0  0  0
 64 65  1  0  0  0  0
M  CHG  1  74   1
M  ISO  4  39 100  60 101  72 100  82 101
M  END
> <Batch ID>
0014

> <Smiles>
CNC(C)C(=O)NC(C(=O)N1Cc2cc([101O:1][101CH2:1]C(=O)N(C)c3cc(F)c(C)c(C[100NH:0][100C:0](=O)N4CCCC(n5nc(-c6ccc(Oc7ccc(F)cc7F)cc6)c(C(N)=O)c5N)C4)c3Cl)ccc2CC1C(=O)NC1CCCc2ccccc21)C(C)(C)C

> <Shape>
0.277

> <Color>
0.067

> <Negative vol penalty>
0.000

$$$$

  -OEChem-04052315533D

 88 96  0     1  0  0  0  0  0999 V2000
  -26.1160  -26.3103   30.6509 C   0  0  0  0  0  0  0  0  0  0  0  0
  -26.7006  -25.0536   30.7704 C   0  0  0  0  0  0  0  0  0  0  0  0
  -23.2860   -9.8012   19.9145 C   0  0  0  0  0  0  0  0  0  0  0  0
  -23.7376   -9.9430   22.2836 C   0  0  0  0  0  0  0  0  0  0  0  0
  -25.0374  -26.4969   29.7874 C   0  0  0  0  0  0  0  0  0  0  0  0
  -26.2060  -23.9823   30.0273 C   0  0  0  0  0  0  0  0  0  0  0  0
  -29.4318  -19.3532   27.6457 C   0  0  0  0  0  0  0  0  0  0  0  0
  -22.5593   -8.6290   20.1231 C   0  0  0  0  0  0  0  0  0  0  0  0
  -23.0109   -8.7708   22.4923 C   0  0  0  0  0  0  0  0  0  0  0  0
  -29.6635  -18.0494   28.0818 C   0  0  0  0  0  0  0  0  0  0  0  0
  -23.2118   -5.3548   20.6501 C   0  0  0  0  0  0  0  0  0  0  0  0
  -23.4396   -4.2884   19.7803 C   0  0  0  0  0  0  0  0  0  0  0  0
  -27.8568  -17.2682   26.6873 C   0  0  0  0  0  0  0  0  0  0  0  0
  -32.1769  -15.2518   25.8613 C   0  0  0  0  0  0  0  0  0  0  0  0
  -21.1173   -4.3346   19.1155 C   0  0  0  0  0  0  0  0  0  0  0  0
  -23.8752  -10.4581   20.9947 C   0  0  0  0  0  0  0  0  0  0  0  0
  -24.1354  -12.9879   20.7946 C   0  0  0  0  0  0  0  0  0  0  0  0
  -24.5356  -25.4296   29.0260 C   0  0  0  0  0  0  0  0  0  0  0  0
  -28.4020  -19.6263   26.7339 C   0  0  0  0  0  0  0  0  0  0  0  0
  -25.1188  -24.1545   29.1537 C   0  0  0  0  0  0  0  0  0  0  0  0
  -27.6157  -18.5760   26.2392 C   0  0  0  0  0  0  0  0  0  0  0  0
  -32.1791  -15.7405   24.5549 C   0  0  0  0  0  0  0  0  0  0  0  0
  -31.6760  -13.9777   26.1285 C   0  0  0  0  0  0  0  0  0  0  0  0
  -31.1793  -13.6810   23.7828 C   0  0  0  0  0  0  0  0  0  0  0  0
  -22.4217   -8.1139   21.4120 C   0  0  0  0  0  0  0  0  0  0  0  0
  -28.8741  -17.0071   27.6048 C   0  0  0  0  0  0  0  0  0  0  0  0
  -21.9368   -5.9111   20.7527 C   0  0  0  0  0  0  0  0  0  0  0  0
  -22.3924   -3.7783   19.0130 C   0  0  0  0  0  0  0  0  0  0  0  0
  -20.8896   -5.4010   19.9853 C   0  0  0  0  0  0  0  0  0  0  0  0
  -31.6803  -14.9551   23.5156 C   0  0  0  0  0  0  0  0  0  0  0  0
  -31.1772  -13.1923   25.0893 C   0  0  0  0  0  0  0  0  0  0  0  0
  -24.6265  -11.6687   20.7797 C   0  0  0  0  0  0  0  0  0  0  0  0
  -25.2371  -13.7673   20.5388 C   0  0  0  0  0  0  0  0  0  0  0  0
  -22.8026  -13.4662   21.0196 C   0  0  0  0  0  0  0  0  0  0  0  0
  -25.7456  -21.3705   26.8065 C   0  0  0  0  0  0  0  0  0  0  0  0
  -25.5908  -20.5578   23.6700 C   0  0  0  0  0  0  0  0  0  0  0  0
  -26.4663  -18.3765   21.1957 C   0  0  0  0  0  0  0  0  0  0  0  0
  -31.0974  -12.9514   21.3730 C   0  0  0  0  0  0  0  0  0  0  0  0
  -23.3377  -25.6691   28.1414 C   0  0  0  0  0  0  0  0  0  0  0  0
  -28.1821  -21.0344   26.2529 C   0  0  0  0  0  0  0  0  0  0  0  0
  -26.5107  -18.8134   25.2437 C   0  0  0  0  0  0  0  0  0  0  0  0
  -23.1131  -24.5674   27.1089 C   0  0  0  0  0  0  0  0  0  0  0  0
  -29.4632  -13.6546   18.2889 C   0  0  0  0  0  0  0  0  0  0  0  0
  -23.2260  -23.1932   27.7612 C   0  0  0  0  0  0  0  0  0  0  0  0
  -27.9918  -13.3510   18.5808 C   0  0  0  0  0  0  0  0  0  0  0  0
  -30.3963  -12.6795   19.0046 C   0  0  0  0  0  0  0  0  0  0  0  0
  -28.7035  -12.2530   20.7429 C   0  0  0  0  0  0  0  0  0  0  0  0
  -24.6266  -22.9734   28.3458 C   0  0  1  0  0  0  0  0  0  0  0  0
  -26.7738  -21.2692   25.7155 C   0  0  1  0  0  0  0  0  0  0  0  0
  -27.7273  -13.2489   20.0957 C   0  0  2  0  0  0  0  0  0  0  0  0
  -32.7155  -17.1033   24.2728 C   0  0  0  0  0  0  0  0  0  0  0  0
  -26.1584  -17.9552   18.7411 C   0  0  0  0  0  0  0  0  0  0  0  0
  -22.7624  -19.5441   24.2012 C   0  0  0  0  0  0  0  0  0  0  0  0
  -22.8722  -18.3071   22.0273 C   0  0  0  0  0  0  0  0  0  0  0  0
  -23.0356  -20.7962   22.0537 C   0  0  0  0  0  0  0  0  0  0  0  0
  -29.3713  -18.5983   20.6751 C   0  0  0  0  0  0  0  0  0  0  0  0
  -30.2224  -14.0591   29.3294 C   0  0  0  0  0  0  0  0  0  0  0  0
  -30.4628  -13.1586   28.1237 C   0  0  0  0  0  0  0  0  0  0  0  0
  -30.1579  -15.5375   28.9643 C   0  0  0  0  0  0  0  0  0  1  0  0
  -24.9828  -19.4173   22.8899 C   0  0  1  0  0  0  0  0  0  0  0  0
  -27.0300  -18.6045   19.8048 C   0  0  2  0  0  0  0  0  0  0  0  0
  -23.4327  -19.5116   22.8133 C   0  0  0  0  0  0  0  0  0  0  0  0
  -32.9559  -13.3955   28.1780 C   0  0  0  0  0  0  0  0  0  0  0  0
  -25.9380  -11.6094   20.5338 N   0  0  0  0  0  0  0  0  0  0  0  0
  -26.2804  -12.9012   20.3916 N   0  0  0  0  0  0  0  0  0  0  0  0
  -26.3307  -20.2083   24.8085 N   0  0  0  0  0  0  0  0  0  0  0  0
  -30.0899  -12.6385   20.4361 N   0  0  0  0  0  0  0  0  0  0  0  0
  -25.4055  -15.1021   20.4275 N   0  0  0  0  0  0  0  0  0  0  0  0
  -21.7898  -12.5297   21.2679 N   0  0  0  0  0  0  0  0  0  0  0  0
  -30.6806  -12.9108   22.7031 N   0  0  0  0  0  0  0  0  0  0  0  0
  -25.5679  -22.6509   27.2949 N   0  0  0  0  0  0  0  0  0  0  0  0
  -25.6461  -19.4121   21.5905 N   0  0  0  0  0  0  0  0  0  0  0  0
  -31.6899  -13.5176   27.4548 N   0  0  3  0  0  0  0  0  0  0  0  0
  -28.4022  -18.0322   19.7017 N   0  3  0  0  0  0  0  0  0  0  0  0
  -22.5152  -14.6867   20.9847 O   0  0  0  0  0  0  0  0  0  0  0  0
  -25.1561  -20.3620   27.1768 O   0  0  0  0  0  0  0  0  0  0  0  0
  -25.4216  -21.7156   23.2795 O   0  0  0  0  0  0  0  0  0  0  0  0
  -26.7246  -17.3776   21.8636 O   0  0  0  0  0  0  0  0  0  0  0  0
  -32.2383  -13.2611   21.0200 O   0  0  0  0  0  0  0  0  0  0  0  0
  -21.7124   -6.9702   21.6161 O   0  0  0  0  0  0  0  0  0  0  0  0
  -29.0978  -15.7337   28.0294 O   0  0  0  0  0  0  0  0  0  1  0  0
  -22.6116   -2.7553   18.1766 F   0  0  0  0  0  0  0  0  0  0  0  0
  -19.6627   -5.9321   20.0787 F   0  0  0  0  0  0  0  0  0  0  0  0
  -31.6836  -15.4288   22.2604 F   0  0  0  0  0  0  0  0  0  0  0  0
  -33.2731  -14.5368   28.8405 F   0  0  0  0  0  0  0  0  0  0  0  0
  -32.9185  -12.4125   29.1123 F   0  0  0  0  0  0  0  0  0  0  0  0
  -33.9851  -13.1316   27.3365 F   0  0  0  0  0  0  0  0  0  0  0  0
  -30.5548  -11.6069   25.4227 Cl  0  0  0  0  0  0  0  0  0  0  0  0
  1  2  1  0  0  0  0
  1  5  2  0  0  0  0
  2  6  2  0  0  0  0
  3  8  2  0  0  0  0
  3 16  1  0  0  0  0
  4  9  1  0  0  0  0
  4 16  2  0  0  0  0
  5 18  1  0  0  0  0
  6 20  1  0  0  0  0
  7 10  2  0  0  0  0
  7 19  1  0  0  0  0
  8 25  1  0  0  0  0
  9 25  2  0  0  0  0
 10 26  1  0  0  0  0
 11 12  2  0  0  0  0
 11 27  1  0  0  0  0
 12 28  1  0  0  0  0
 13 21  1  0  0  0  0
 13 26  2  0  0  0  0
 14 22  2  0  0  0  0
 14 23  1  0  0  0  0
 15 28  2  0  0  0  0
 15 29  1  0  0  0  0
 16 32  1  0  0  0  0
 17 32  1  0  0  0  0
 17 33  2  0  0  0  0
 17 34  1  0  0  0  0
 18 20  2  0  0  0  0
 18 39  1  0  0  0  0
 19 21  2  0  0  0  0
 19 40  1  0  0  0  0
 20 48  1  0  0  0  0
 21 41  1  0  0  0  0
 22 30  1  0  0  0  0
 22 51  1  0  0  0  0
 23 31  2  0  0  0  0
 23 73  1  0  0  0  0
 24 30  2  0  0  0  0
 24 31  1  0  0  0  0
 24 70  1  0  0  0  0
 25 80  1  0  0  0  0
 26 81  1  0  0  0  0
 27 29  2  0  0  0  0
 27 80  1  0  0  0  0
 28 82  1  0  0  0  0
 29 83  1  0  0  0  0
 30 84  1  0  0  0  0
 31 88  1  0  0  0  0
 32 64  2  0  0  0  0
 33 65  1  0  0  0  0
 33 68  1  0  0  0  0
 34 69  1  0  0  0  0
 34 75  2  0  0  0  0
 35 49  1  0  0  0  0
 35 71  1  0  0  0  0
 35 76  2  0  0  0  0
 36 60  1  0  0  0  0
 36 66  1  0  0  0  0
 36 77  2  0  0  0  0
 37 61  1  0  0  0  0
 37 72  1  0  0  0  0
 37 78  2  0  0  0  0
 38 67  1  0  0  0  0
 38 70  1  0  0  0  0
 38 79  2  0  0  0  0
 39 42  1  0  0  0  0
 40 49  1  0  0  0  0
 41 66  1  0  0  0  0
 42 44  1  0  0  0  0
 43 45  1  0  0  0  0
 43 46  1  0  0  0  0
 44 48  1  0  0  0  0
 45 50  1  0  0  0  0
 46 67  1  0  0  0  0
 47 50  1  0  0  0  0
 47 67  1  0  0  0  0
 48 71  1  0  0  0  0
 49 66  1  0  0  0  0
 50 65  1  0  0  0  0
 52 61  1  0  0  0  0
 53 62  1  0  0  0  0
 54 62  1  0  0  0  0
 55 62  1  0  0  0  0
 56 74  1  0  0  0  0
 57 58  1  0  0  0  0
 57 59  1  0  0  0  0
 58 73  1  0  0  0  0
 59 81  1  0  0  0  0
 60 62  1  0  0  0  0
 60 72  1  0  0  0  0
 61 74  1  0  0  0  0
 63 73  1  0  0  0  0
 63 85  1  0  0  0  0
 63 86  1  0  0  0  0
 63 87  1  0  0  0  0
 64 65  1  0  0  0  0
M  CHG  1  74   1
M  ISO  4  38 100  59 101  70 100  81 101
M  END
> <Batch ID>
0014

> <Smiles>
CNC(C)C(=O)NC(C(=O)N1Cc2cc([101O:1][101CH2:1]CCN(c3cc(C)c(F)c([100NH:0][100C:0](=O)N4CCCC(n5nc(-c6ccc(Oc7ccc(F)cc7F)cc6)c(C(N)=O)c5N)C4)c3Cl)C(F)(F)F)ccc2CC1C(=O)NC1CCCc2ccccc21)C(C)(C)C

> <Shape>
0.142

> <Color>
0.182

> <Negative vol penalty>
0.000

$$$$

  -OEChem-04052315533D

 89 97  0     1  0  0  0  0  0999 V2000
  -30.3249  -33.8279   29.8811 C   0  0  0  0  0  0  0  0  0  0  0  0
  -30.6852  -32.4863   29.8056 C   0  0  0  0  0  0  0  0  0  0  0  0
  -23.1003   -9.8216   19.9923 C   0  0  0  0  0  0  0  0  0  0  0  0
  -23.7786   -9.9740   22.3062 C   0  0  0  0  0  0  0  0  0  0  0  0
  -29.2361  -34.2984   29.1482 C   0  0  0  0  0  0  0  0  0  0  0  0
  -29.9561  -31.6141   28.9981 C   0  0  0  0  0  0  0  0  0  0  0  0
  -32.1300  -26.8465   25.8278 C   0  0  0  0  0  0  0  0  0  0  0  0
  -22.3740   -8.6665   20.2813 C   0  0  0  0  0  0  0  0  0  0  0  0
  -23.0522   -8.8189   22.5952 C   0  0  0  0  0  0  0  0  0  0  0  0
  -32.1588  -25.4782   26.0934 C   0  0  0  0  0  0  0  0  0  0  0  0
  -23.4363   -5.4791   22.2356 C   0  0  0  0  0  0  0  0  0  0  0  0
  -24.0488   -4.5103   23.0305 C   0  0  0  0  0  0  0  0  0  0  0  0
  -30.1455  -25.1901   24.7962 C   0  0  0  0  0  0  0  0  0  0  0  0
  -31.2693  -19.6553   22.5159 C   0  0  0  0  0  0  0  0  0  0  0  0
  -22.2849   -4.7370   24.6659 C   0  0  0  0  0  0  0  0  0  0  0  0
  -23.8027  -10.4754   21.0047 C   0  0  0  0  0  0  0  0  0  0  0  0
  -24.0924  -12.9976   20.7547 C   0  0  0  0  0  0  0  0  0  0  0  0
  -28.4993  -33.4335   28.3238 C   0  0  0  0  0  0  0  0  0  0  0  0
  -31.1009  -27.3995   25.0521 C   0  0  0  0  0  0  0  0  0  0  0  0
  -28.8556  -32.0731   28.2546 C   0  0  0  0  0  0  0  0  0  0  0  0
  -30.1073  -26.5654   24.5201 C   0  0  0  0  0  0  0  0  0  0  0  0
  -29.9968  -19.2561   22.9092 C   0  0  0  0  0  0  0  0  0  0  0  0
  -22.3498   -8.1651   21.5827 C   0  0  0  0  0  0  0  0  0  0  0  0
  -31.1649  -24.6502   25.5800 C   0  0  0  0  0  0  0  0  0  0  0  0
  -22.2482   -6.0769   22.6558 C   0  0  0  0  0  0  0  0  0  0  0  0
  -23.4731   -4.1392   24.2456 C   0  0  0  0  0  0  0  0  0  0  0  0
  -21.6724   -5.7059   23.8709 C   0  0  0  0  0  0  0  0  0  0  0  0
  -29.5283  -17.9963   22.5531 C   0  0  0  0  0  0  0  0  0  0  0  0
  -24.5538  -11.6684   20.7067 C   0  0  0  0  0  0  0  0  0  0  0  0
  -32.0278  -18.7647   21.7734 C   0  0  0  0  0  0  0  0  0  0  0  0
  -30.3648  -17.1801   21.8088 C   0  0  0  0  0  0  0  0  0  0  0  0
  -25.1797  -13.7519   20.3871 C   0  0  0  0  0  0  0  0  0  0  0  0
  -22.7968  -13.5049   21.1006 C   0  0  0  0  0  0  0  0  0  0  0  0
  -28.8073  -29.5395   25.5655 C   0  0  0  0  0  0  0  0  0  0  0  0
  -28.2825  -29.1628   22.3867 C   0  0  0  0  0  0  0  0  0  0  0  0
  -28.3272  -21.0967   22.9959 C   0  0  0  0  0  0  0  0  0  0  0  0
  -28.5754  -27.1930   19.6152 C   0  0  0  0  0  0  0  0  0  0  0  0
  -30.6118  -14.9374   20.6882 C   0  0  0  0  0  0  0  0  0  0  0  0
  -27.3012  -33.9782   27.5871 C   0  0  0  0  0  0  0  0  0  0  0  0
  -31.0989  -28.8735   24.7525 C   0  0  0  0  0  0  0  0  0  0  0  0
  -28.9919  -27.1065   23.6647 C   0  0  0  0  0  0  0  0  0  0  0  0
  -26.8106  -33.0674   26.4646 C   0  0  0  0  0  0  0  0  0  0  0  0
  -29.6354  -12.3698   18.4229 C   0  0  0  0  0  0  0  0  0  0  0  0
  -26.7261  -31.6230   26.9475 C   0  0  0  0  0  0  0  0  0  0  0  0
  -28.1884  -12.0678   18.8190 C   0  0  0  0  0  0  0  0  0  0  0  0
  -30.5023  -12.6869   19.6401 C   0  0  0  0  0  0  0  0  0  0  0  0
  -28.5322  -13.4405   20.9130 C   0  0  0  0  0  0  0  0  0  0  0  0
  -28.1047  -31.1012   27.3705 C   0  0  1  0  0  0  0  0  0  0  0  0
  -29.7188  -29.4053   24.3786 C   0  0  1  0  0  0  0  0  0  0  0  0
  -27.6056  -13.1788   19.7144 C   0  0  2  0  0  0  0  0  0  0  0  0
  -33.3984  -19.1593   21.3342 C   0  0  0  0  0  0  0  0  0  0  0  0
  -28.0194  -27.1395   17.1687 C   0  0  0  0  0  0  0  0  0  0  0  0
  -25.3658  -28.5768   23.0648 C   0  0  0  0  0  0  0  0  0  0  0  0
  -25.0962  -27.6208   20.7666 C   0  0  0  0  0  0  0  0  0  0  0  0
  -25.6985  -30.0245   21.0528 C   0  0  0  0  0  0  0  0  0  0  0  0
  -31.4279  -26.9904   18.8528 C   0  0  0  0  0  0  0  0  0  0  0  0
  -28.3369  -20.9426   21.4766 C   0  0  0  0  0  0  0  0  0  0  0  0
  -27.4077  -21.9360   20.7757 C   0  0  0  0  0  0  0  0  0  0  0  0
  -30.3674  -21.0670   25.6619 C   0  0  0  0  0  0  0  0  0  0  0  0
  -29.2849  -20.1393   25.1269 C   0  0  0  0  0  0  0  0  0  0  0  0
  -27.4767  -21.7758   19.2643 C   0  0  0  0  0  0  0  0  0  0  0  0
  -30.1405  -22.5249   25.2805 C   0  0  0  0  0  0  0  0  0  1  0  0
  -27.4271  -28.2465   21.5455 C   0  0  1  0  0  0  0  0  0  0  0  0
  -29.0674  -27.4960   18.2115 C   0  0  2  0  0  0  0  0  0  0  0  0
  -25.9167  -28.6069   21.6251 C   0  0  0  0  0  0  0  0  0  0  0  0
  -25.8344  -11.5801   20.3377 N   0  0  0  0  0  0  0  0  0  0  0  0
  -31.6069  -17.5330   21.4084 N   0  0  0  0  0  0  0  0  0  0  0  0
  -26.1870  -12.8634   20.1503 N   0  0  0  0  0  0  0  0  0  0  0  0
  -29.0301  -28.5552   23.4053 N   0  0  0  0  0  0  0  0  0  0  0  0
  -29.8900  -13.7510   20.4387 N   0  0  0  0  0  0  0  0  0  0  0  0
  -25.3629  -15.0820   20.2466 N   0  0  0  0  0  0  0  0  0  0  0  0
  -21.7941  -12.5917   21.4539 N   0  0  0  0  0  0  0  0  0  0  0  0
  -29.9155  -15.8904   21.4309 N   0  0  0  0  0  0  0  0  0  0  0  0
  -28.8948  -30.7602   26.2070 N   0  0  0  0  0  0  0  0  0  0  0  0
  -27.9823  -28.2934   20.1972 N   0  0  0  0  0  0  0  0  0  0  0  0
  -29.1832  -20.1866   23.6946 N   0  0  0  0  0  0  0  0  0  0  0  0
  -26.5294  -22.7247   18.6314 N   0  3  0  0  0  0  0  0  0  0  0  0
  -30.3055  -26.7203   17.9178 N   0  3  0  0  0  0  0  0  0  0  0  0
  -22.5313  -14.7308   21.0806 O   0  0  0  0  0  0  0  0  0  0  0  0
  -28.0774  -28.6051   25.8754 O   0  0  0  0  0  0  0  0  0  0  0  0
  -28.2926  -30.3723   22.1441 O   0  0  0  0  0  0  0  0  0  0  0  0
  -27.5853  -21.9361   23.5123 O   0  0  0  0  0  0  0  0  0  0  0  0
  -28.7011  -26.0894   20.1414 O   0  0  0  0  0  0  0  0  0  0  0  0
  -31.7526  -15.1072   20.2504 O   0  0  0  0  0  0  0  0  0  0  0  0
  -21.6409   -7.0380   21.8651 O   0  0  0  0  0  0  0  0  0  0  0  0
  -31.1903  -23.3143   25.8382 O   0  0  0  0  0  0  0  0  0  1  0  0
  -24.0605   -3.2078   25.0082 F   0  0  0  0  0  0  0  0  0  0  0  0
  -20.5304   -6.2758   24.2794 F   0  0  0  0  0  0  0  0  0  0  0  0
  -27.9485  -17.4758   23.0306 Cl  0  0  0  0  0  0  0  0  0  0  0  0
  1  2  1  0  0  0  0
  1  5  2  0  0  0  0
  2  6  2  0  0  0  0
  3  8  2  0  0  0  0
  3 16  1  0  0  0  0
  4  9  1  0  0  0  0
  4 16  2  0  0  0  0
  5 18  1  0  0  0  0
  6 20  1  0  0  0  0
  7 10  2  0  0  0  0
  7 19  1  0  0  0  0
  8 23  1  0  0  0  0
  9 23  2  0  0  0  0
 10 24  1  0  0  0  0
 11 12  2  0  0  0  0
 11 25  1  0  0  0  0
 12 26  1  0  0  0  0
 13 21  1  0  0  0  0
 13 24  2  0  0  0  0
 14 22  1  0  0  0  0
 14 30  2  0  0  0  0
 15 26  2  0  0  0  0
 15 27  1  0  0  0  0
 16 29  1  0  0  0  0
 17 29  1  0  0  0  0
 17 32  2  0  0  0  0
 17 33  1  0  0  0  0
 18 20  2  0  0  0  0
 18 39  1  0  0  0  0
 19 21  2  0  0  0  0
 19 40  1  0  0  0  0
 20 48  1  0  0  0  0
 21 41  1  0  0  0  0
 22 28  2  0  0  0  0
 22 76  1  0  0  0  0
 23 85  1  0  0  0  0
 24 86  1  0  0  0  0
 25 27  2  0  0  0  0
 25 85  1  0  0  0  0
 26 87  1  0  0  0  0
 27 88  1  0  0  0  0
 28 31  1  0  0  0  0
 28 89  1  0  0  0  0
 29 66  2  0  0  0  0
 30 51  1  0  0  0  0
 30 67  1  0  0  0  0
 31 67  2  0  0  0  0
 31 73  1  0  0  0  0
 32 68  1  0  0  0  0
 32 71  1  0  0  0  0
 33 72  1  0  0  0  0
 33 79  2  0  0  0  0
 34 49  1  0  0  0  0
 34 74  1  0  0  0  0
 34 80  2  0  0  0  0
 35 63  1  0  0  0  0
 35 69  1  0  0  0  0
 35 81  2  0  0  0  0
 36 57  1  0  0  0  0
 36 76  1  0  0  0  0
 36 82  2  0  0  0  0
 37 64  1  0  0  0  0
 37 75  1  0  0  0  0
 37 83  2  0  0  0  0
 38 70  1  0  0  0  0
 38 73  1  0  0  0  0
 38 84  2  0  0  0  0
 39 42  1  0  0  0  0
 40 49  1  0  0  0  0
 41 69  1  0  0  0  0
 42 44  1  0  0  0  0
 43 45  1  0  0  0  0
 43 46  1  0  0  0  0
 44 48  1  0  0  0  0
 45 50  1  0  0  0  0
 46 70  1  0  0  0  0
 47 50  1  0  0  0  0
 47 70  1  0  0  0  0
 48 74  1  0  0  0  0
 49 69  1  0  0  0  0
 50 68  1  0  0  0  0
 52 64  1  0  0  0  0
 53 65  1  0  0  0  0
 54 65  1  0  0  0  0
 55 65  1  0  0  0  0
 56 78  1  0  0  0  0
 57 58  1  0  0  0  0
 58 61  1  0  0  0  0
 59 60  1  0  0  0  0
 59 62  1  0  0  0  0
 60 76  1  0  0  0  0
 61 77  1  0  0  0  0
 62 86  1  0  0  0  0
 63 65  1  0  0  0  0
 63 75  1  0  0  0  0
 64 78  1  0  0  0  0
 66 68  1  0  0  0  0
M  CHG  2  77   1  78   1
M  ISO  4  38 100  62 101  73 100  86 101
M  END
> <Batch ID>
0014

> <Smiles>
CNC(C)C(=O)NC(C(=O)N1Cc2cc([101O:1][101CH2:1]CCN(C(=O)CCCN)c3cc(C)nc([100NH:0][100C:0](=O)N4CCCC(n5nc(-c6ccc(Oc7ccc(F)cc7F)cc6)c(C(N)=O)c5N)C4)c3Cl)ccc2CC1C(=O)NC1CCCc2ccccc21)C(C)(C)C

> <Shape>
0.271

> <Color>
0.200

> <Negative vol penalty>
0.000

$$$$

  -OEChem-04052315533D

 91 99  0     1  0  0  0  0  0999 V2000
  -26.5551  -35.1510   23.5891 C   0  0  0  0  0  0  0  0  0  0  0  0
  -27.0930  -33.8682   23.6033 C   0  0  0  0  0  0  0  0  0  0  0  0
  -24.4705  -11.2877   24.2251 C   0  0  0  0  0  0  0  0  0  0  0  0
  -23.9972  -13.3736   25.3486 C   0  0  0  0  0  0  0  0  0  0  0  0
  -25.1720  -35.3260   23.6116 C   0  0  0  0  0  0  0  0  0  0  0  0
  -26.2482  -32.7594   23.6412 C   0  0  0  0  0  0  0  0  0  0  0  0
  -27.6504  -29.1368   20.3923 C   0  0  0  0  0  0  0  0  0  0  0  0
  -23.9579  -10.5843   25.3150 C   0  0  0  0  0  0  0  0  0  0  0  0
  -23.4845  -12.6702   26.4385 C   0  0  0  0  0  0  0  0  0  0  0  0
  -28.7204  -28.3252   20.7666 C   0  0  0  0  0  0  0  0  0  0  0  0
  -20.9161   -9.7550   26.5368 C   0  0  0  0  0  0  0  0  0  0  0  0
  -20.0533   -8.6910   26.2739 C   0  0  0  0  0  0  0  0  0  0  0  0
  -28.0722  -22.6808   19.2749 C   0  0  0  0  0  0  0  0  0  0  0  0
  -27.1709  -26.6043   21.4424 C   0  0  0  0  0  0  0  0  0  0  0  0
  -21.5763   -7.1811   27.3863 C   0  0  0  0  0  0  0  0  0  0  0  0
  -24.4903  -12.6824   24.2419 C   0  0  0  0  0  0  0  0  0  0  0  0
  -28.9757  -22.2756   20.2573 C   0  0  0  0  0  0  0  0  0  0  0  0
  -24.3130  -13.8587   21.9852 C   0  0  0  0  0  0  0  0  0  0  0  0
  -24.3096  -34.2187   23.6400 C   0  0  0  0  0  0  0  0  0  0  0  0
  -26.3300  -28.6918   20.5506 C   0  0  0  0  0  0  0  0  0  0  0  0
  -24.8524  -32.9198   23.6655 C   0  0  0  0  0  0  0  0  0  0  0  0
  -26.0859  -27.4112   21.0670 C   0  0  0  0  0  0  0  0  0  0  0  0
  -28.3262  -19.9752   19.9060 C   0  0  0  0  0  0  0  0  0  0  0  0
  -23.4648  -11.2755   26.4217 C   0  0  0  0  0  0  0  0  0  0  0  0
  -28.4807  -27.0599   21.2944 C   0  0  0  0  0  0  0  0  0  0  0  0
  -22.1091   -9.5320   27.2244 C   0  0  0  0  0  0  0  0  0  0  0  0
  -20.3834   -7.4041   26.6986 C   0  0  0  0  0  0  0  0  0  0  0  0
  -27.2955  -21.7332   18.6081 C   0  0  0  0  0  0  0  0  0  0  0  0
  -22.4392   -8.2450   27.6492 C   0  0  0  0  0  0  0  0  0  0  0  0
  -29.1027  -20.9229   20.5728 C   0  0  0  0  0  0  0  0  0  0  0  0
  -27.4226  -20.3804   18.9236 C   0  0  0  0  0  0  0  0  0  0  0  0
  -25.0203  -13.4096   23.1165 C   0  0  0  0  0  0  0  0  0  0  0  0
  -25.2603  -14.4890   21.2159 C   0  0  0  0  0  0  0  0  0  0  0  0
  -29.7931  -23.2790   20.9575 C   0  0  0  0  0  0  0  0  0  0  0  0
  -22.9239  -13.7187   21.6589 C   0  0  0  0  0  0  0  0  0  0  0  0
  -23.8176  -29.6757   22.2308 C   0  0  0  0  0  0  0  0  0  0  0  0
  -22.2921  -27.3310   20.5884 C   0  0  0  0  0  0  0  0  0  0  0  0
  -22.5023  -24.3905   18.8691 C   0  0  0  0  0  0  0  0  0  0  0  0
  -29.5947  -17.9440   20.6877 C   0  0  0  0  0  0  0  0  0  0  0  0
  -22.8223  -34.4585   23.7112 C   0  0  0  0  0  0  0  0  0  0  0  0
  -25.1875  -29.5688   20.1172 C   0  0  0  0  0  0  0  0  0  0  0  0
  -24.6876  -26.8785   21.2383 C   0  0  0  0  0  0  0  0  0  0  0  0
  -21.9895  -33.2249   23.3725 C   0  0  0  0  0  0  0  0  0  0  0  0
  -30.3048  -14.5829   21.6238 C   0  0  0  0  0  0  0  0  0  0  0  0
  -22.5273  -32.0000   24.1056 C   0  0  0  0  0  0  0  0  0  0  0  0
  -28.9351  -14.0150   22.0025 C   0  0  0  0  0  0  0  0  0  0  0  0
  -30.4485  -16.0447   22.0437 C   0  0  0  0  0  0  0  0  0  0  0  0
  -28.0075  -16.3654   21.9543 C   0  0  0  0  0  0  0  0  0  0  0  0
  -23.9682  -31.6917   23.6813 C   0  0  1  0  0  0  0  0  0  0  0  0
  -23.8704  -29.2160   20.8013 C   0  0  1  0  0  0  0  0  0  0  0  0
  -27.7917  -14.9146   21.4936 C   0  0  2  0  0  0  0  0  0  0  0  0
  -32.5518  -20.4519   18.4026 C   0  0  0  0  0  0  0  0  0  0  0  0
  -21.0816  -22.6987   17.6788 C   0  0  0  0  0  0  0  0  0  0  0  0
  -21.3560  -26.2300   23.2757 C   0  0  0  0  0  0  0  0  0  0  0  0
  -20.7799  -24.0862   22.1179 C   0  0  0  0  0  0  0  0  0  0  0  0
  -19.6213  -26.1996   21.4745 C   0  0  0  0  0  0  0  0  0  0  0  0
  -33.2967  -23.4259   18.9039 C   0  0  0  0  0  0  0  0  0  0  0  0
  -32.0339  -23.0453   16.7783 C   0  0  0  0  0  0  0  0  0  0  0  0
  -23.8985  -24.8534   16.3010 C   0  0  0  0  0  0  0  0  0  0  0  0
  -31.5704  -21.5535   18.7869 C   0  0  0  0  0  0  0  0  0  0  0  0
  -31.4637  -25.0887   20.8680 C   0  0  0  0  0  0  0  0  0  0  0  0
  -30.8336  -23.9804   18.7529 C   0  0  0  0  0  0  0  0  0  0  0  0
  -30.7448  -26.4240   20.9408 C   0  0  0  0  0  0  0  0  0  1  0  0
  -22.0378  -25.8600   20.8131 C   0  0  1  0  0  0  0  0  0  0  0  0
  -21.9194  -23.9597   17.5352 C   0  0  2  0  0  0  0  0  0  0  0  0
  -20.9752  -25.6045   21.9190 C   0  0  0  0  0  0  0  0  0  0  0  0
  -31.9418  -22.9873   18.3161 C   0  0  0  0  0  0  0  0  0  0  0  0
  -26.3169  -13.7274   23.0737 N   0  0  0  0  0  0  0  0  0  0  0  0
  -26.4319  -14.3829   21.9062 N   0  0  0  0  0  0  0  0  0  0  0  0
  -23.6038  -27.7761   20.8057 N   0  0  0  0  0  0  0  0  0  0  0  0
  -29.3326  -16.8369   21.5222 N   0  0  0  0  0  0  0  0  0  0  0  0
  -25.1972  -15.1179   20.0231 N   0  0  0  0  0  0  0  0  0  0  0  0
  -22.0905  -13.0430   22.5607 N   0  0  0  0  0  0  0  0  0  0  0  0
  -28.4546  -18.6009   20.2261 N   0  0  0  0  0  0  0  0  0  0  0  0
  -23.9861  -31.0379   22.3903 N   0  0  0  0  0  0  0  0  0  0  0  0
  -21.6907  -25.3021   19.5105 N   0  0  0  0  0  0  0  0  0  0  0  0
  -30.6677  -24.0879   20.2084 N   0  0  0  0  0  0  0  0  0  0  0  0
  -23.0102  -23.6903   16.5561 N   0  3  0  0  0  0  0  0  0  0  0  0
  -29.6399  -23.3518   22.1763 O   0  0  0  0  0  0  0  0  0  0  0  0
  -22.4394  -14.1649   20.5913 O   0  0  0  0  0  0  0  0  0  0  0  0
  -23.6358  -28.8555   23.1230 O   0  0  0  0  0  0  0  0  0  0  0  0
  -21.3629  -28.0570   20.2262 O   0  0  0  0  0  0  0  0  0  0  0  0
  -23.5689  -23.9585   19.3006 O   0  0  0  0  0  0  0  0  0  0  0  0
  -30.7451  -18.2677   20.3814 O   0  0  0  0  0  0  0  0  0  0  0  0
  -22.9643  -10.5895   27.4853 O   0  0  0  0  0  0  0  0  0  0  0  0
  -29.5233  -26.2659   21.6612 O   0  0  0  0  0  0  0  0  0  1  0  0
  -19.5540   -6.3827   26.4474 F   0  0  0  0  0  0  0  0  0  0  0  0
  -26.4278  -22.1222   17.6649 F   0  0  0  0  0  0  0  0  0  0  0  0
  -23.5833   -8.0248   28.3112 F   0  0  0  0  0  0  0  0  0  0  0  0
  -29.9720  -20.5332   21.5178 F   0  0  0  0  0  0  0  0  0  0  0  0
  -26.6710  -19.4786   18.2762 F   0  0  0  0  0  0  0  0  0  0  0  0
  1  2  1  0  0  0  0
  1  5  2  0  0  0  0
  2  6  2  0  0  0  0
  3  8  2  0  0  0  0
  3 16  1  0  0  0  0
  4  9  1  0  0  0  0
  4 16  2  0  0  0  0
  5 19  1  0  0  0  0
  6 21  1  0  0  0  0
  7 10  2  0  0  0  0
  7 20  1  0  0  0  0
  8 24  1  0  0  0  0
  9 24  2  0  0  0  0
 10 25  1  0  0  0  0
 11 12  2  0  0  0  0
 11 26  1  0  0  0  0
 12 27  1  0  0  0  0
 13 17  1  0  0  0  0
 13 28  2  0  0  0  0
 14 22  1  0  0  0  0
 14 25  2  0  0  0  0
 15 27  2  0  0  0  0
 15 29  1  0  0  0  0
 16 32  1  0  0  0  0
 17 30  2  0  0  0  0
 17 34  1  0  0  0  0
 18 32  1  0  0  0  0
 18 33  2  0  0  0  0
 18 35  1  0  0  0  0
 19 21  2  0  0  0  0
 19 40  1  0  0  0  0
 20 22  2  0  0  0  0
 20 41  1  0  0  0  0
 21 49  1  0  0  0  0
 22 42  1  0  0  0  0
 23 30  1  0  0  0  0
 23 31  2  0  0  0  0
 23 74  1  0  0  0  0
 24 85  1  0  0  0  0
 25 86  1  0  0  0  0
 26 29  2  0  0  0  0
 26 85  1  0  0  0  0
 27 87  1  0  0  0  0
 28 31  1  0  0  0  0
 28 88  1  0  0  0  0
 29 89  1  0  0  0  0
 30 90  1  0  0  0  0
 31 91  1  0  0  0  0
 32 68  2  0  0  0  0
 33 69  1  0  0  0  0
 33 72  1  0  0  0  0
 34 77  1  0  0  0  0
 34 79  2  0  0  0  0
 35 73  1  0  0  0  0
 35 80  2  0  0  0  0
 36 50  1  0  0  0  0
 36 75  1  0  0  0  0
 36 81  2  0  0  0  0
 37 64  1  0  0  0  0
 37 70  1  0  0  0  0
 37 82  2  0  0  0  0
 38 65  1  0  0  0  0
 38 76  1  0  0  0  0
 38 83  2  0  0  0  0
 39 71  1  0  0  0  0
 39 74  1  0  0  0  0
 39 84  2  0  0  0  0
 40 43  1  0  0  0  0
 41 50  1  0  0  0  0
 42 70  1  0  0  0  0
 43 45  1  0  0  0  0
 44 46  1  0  0  0  0
 44 47  1  0  0  0  0
 45 49  1  0  0  0  0
 46 51  1  0  0  0  0
 47 71  1  0  0  0  0
 48 51  1  0  0  0  0
 48 71  1  0  0  0  0
 49 75  1  0  0  0  0
 50 70  1  0  0  0  0
 51 69  1  0  0  0  0
 52 60  1  0  0  0  0
 53 65  1  0  0  0  0
 54 66  1  0  0  0  0
 55 66  1  0  0  0  0
 56 66  1  0  0  0  0
 57 67  1  0  0  0  0
 58 67  1  0  0  0  0
 59 78  1  0  0  0  0
 60 67  1  0  0  0  0
 61 63  1  0  0  0  0
 61 77  1  0  0  0  0
 62 67  1  0  0  0  0
 62 77  1  0  0  0  0
 63 86  1  0  0  0  0
 64 66  1  0  0  0  0
 64 76  1  0  0  0  0
 65 78  1  0  0  0  0
 68 69  1  0  0  0  0
M  CHG  1  78   1
M  ISO  4  39 100  63 101  74 100  86 101
M  END
> <Batch ID>
0014

> <Smiles>
CCC(C)(C)CN(C[101CH2:1][101O:1]c1ccc2c(c1)CN(C(=O)C(NC(=O)C(C)NC)C(C)(C)C)C(C(=O)NC1CCCc3ccccc31)C2)C(=O)c1cc(F)c(F)c([100NH:0][100C:0](=O)N2CCCC(n3nc(-c4ccc(Oc5ccc(F)cc5F)cc4)c(C(N)=O)c3N)C2)c1F

> <Shape>
0.257

> <Color>
0.095

> <Negative vol penalty>
0.000

$$$$

  -OEChem-04052315533D

 89 97  0     1  0  0  0  0  0999 V2000
  -18.3048  -24.3597   24.1127 C   0  0  0  0  0  0  0  0  0  0  0  0
  -19.6901  -24.2584   24.1909 C   0  0  0  0  0  0  0  0  0  0  0  0
  -28.1102  -16.6511   20.2495 C   0  0  0  0  0  0  0  0  0  0  0  0
  -30.0915  -15.3809   19.7033 C   0  0  0  0  0  0  0  0  0  0  0  0
  -17.7214  -25.4741   23.5112 C   0  0  0  0  0  0  0  0  0  0  0  0
  -20.4929  -25.2709   23.6667 C   0  0  0  0  0  0  0  0  0  0  0  0
  -24.2774  -26.5560   26.7765 C   0  0  0  0  0  0  0  0  0  0  0  0
  -27.3169  -15.5458   19.9422 C   0  0  0  0  0  0  0  0  0  0  0  0
  -29.2981  -14.2756   19.3960 C   0  0  0  0  0  0  0  0  0  0  0  0
  -25.3841  -25.7091   26.8164 C   0  0  0  0  0  0  0  0  0  0  0  0
  -26.4095  -12.6428   21.4195 C   0  0  0  0  0  0  0  0  0  0  0  0
  -25.3813  -12.3169   22.3039 C   0  0  0  0  0  0  0  0  0  0  0  0
  -26.5755  -27.2067   25.3477 C   0  0  0  0  0  0  0  0  0  0  0  0
  -29.0821  -22.2977   21.2448 C   0  0  0  0  0  0  0  0  0  0  0  0
  -23.7640  -12.6182   20.5345 C   0  0  0  0  0  0  0  0  0  0  0  0
  -29.4975  -16.5687   20.1300 C   0  0  0  0  0  0  0  0  0  0  0  0
  -30.8725  -18.0372   21.6986 C   0  0  0  0  0  0  0  0  0  0  0  0
  -18.5173  -26.5053   22.9880 C   0  0  0  0  0  0  0  0  0  0  0  0
  -24.3075  -27.7311   26.0118 C   0  0  0  0  0  0  0  0  0  0  0  0
  -19.9196  -26.3994   23.0564 C   0  0  0  0  0  0  0  0  0  0  0  0
  -25.4687  -28.0681   25.3017 C   0  0  0  0  0  0  0  0  0  0  0  0
  -29.0719  -22.5287   19.8693 C   0  0  0  0  0  0  0  0  0  0  0  0
  -29.7810  -23.1581   22.0915 C   0  0  0  0  0  0  0  0  0  0  0  0
  -29.7609  -23.6202   19.3404 C   0  0  0  0  0  0  0  0  0  0  0  0
  -27.9108  -14.3580   19.5154 C   0  0  0  0  0  0  0  0  0  0  0  0
  -26.5324  -26.0329   26.0996 C   0  0  0  0  0  0  0  0  0  0  0  0
  -26.1150  -12.9565   20.0926 C   0  0  0  0  0  0  0  0  0  0  0  0
  -24.0585  -12.3046   21.8614 C   0  0  0  0  0  0  0  0  0  0  0  0
  -24.7922  -12.9442   19.6502 C   0  0  0  0  0  0  0  0  0  0  0  0
  -30.4699  -24.2496   21.5625 C   0  0  0  0  0  0  0  0  0  0  0  0
  -30.4599  -24.4806   20.1870 C   0  0  0  0  0  0  0  0  0  0  0  0
  -30.3176  -17.7103   20.4468 C   0  0  0  0  0  0  0  0  0  0  0  0
  -31.5604  -19.2048   21.4748 C   0  0  0  0  0  0  0  0  0  0  0  0
  -30.7750  -17.3472   22.9516 C   0  0  0  0  0  0  0  0  0  0  0  0
  -22.6588  -28.8340   23.5281 C   0  0  0  0  0  0  0  0  0  0  0  0
  -24.3871  -31.5246   24.0725 C   0  0  0  0  0  0  0  0  0  0  0  0
  -27.2046  -32.9445   25.3732 C   0  0  0  0  0  0  0  0  0  0  0  0
  -30.7256  -23.3431   17.0417 C   0  0  0  0  0  0  0  0  0  0  0  0
  -17.8419  -27.6681   22.3049 C   0  0  0  0  0  0  0  0  0  0  0  0
  -23.1149  -28.6475   26.0006 C   0  0  0  0  0  0  0  0  0  0  0  0
  -25.5592  -29.3282   24.4818 C   0  0  0  0  0  0  0  0  0  0  0  0
  -18.7569  -28.8742   22.1085 C   0  0  0  0  0  0  0  0  0  0  0  0
  -33.8481  -21.6338   18.0522 C   0  0  0  0  0  0  0  0  0  0  0  0
  -20.1069  -28.4349   21.5506 C   0  0  0  0  0  0  0  0  0  0  0  0
  -33.3355  -20.4145   18.8164 C   0  0  0  0  0  0  0  0  0  0  0  0
  -32.8583  -22.0907   16.9849 C   0  0  0  0  0  0  0  0  0  0  0  0
  -30.9748  -21.1400   18.2850 C   0  0  0  0  0  0  0  0  0  0  0  0
  -20.8236  -27.4888   22.5215 C   0  0  1  0  0  0  0  0  0  0  0  0
  -23.0729  -29.5585   24.7776 C   0  0  1  0  0  0  0  0  0  0  0  0
  -31.9361  -20.6849   19.3932 C   0  0  1  0  0  0  0  0  0  0  0  0
  -28.3550  -35.1597   25.6316 C   0  0  0  0  0  0  0  0  0  0  0  0
  -28.2497  -21.4918   25.8774 C   0  0  0  0  0  0  0  0  0  0  0  0
  -27.6388  -20.4577   19.8170 C   0  0  0  0  0  0  0  0  0  0  0  0
  -29.2603  -20.9124   17.9461 C   0  0  0  0  0  0  0  0  0  0  0  0
  -27.1672  -22.2390   18.1478 C   0  0  0  0  0  0  0  0  0  0  0  0
  -25.2290  -31.4265   21.1413 C   0  0  0  0  0  0  0  0  0  0  0  0
  -27.0658  -33.0378   21.6873 C   0  0  0  0  0  0  0  0  0  0  0  0
  -24.6842  -33.7134   21.9943 C   0  0  0  0  0  0  0  0  0  0  0  0
  -28.8845  -24.9258   17.4122 C   0  0  0  0  0  0  0  0  0  0  0  0
  -27.1129  -32.7785   28.3266 C   0  0  0  0  0  0  0  0  0  0  0  0
  -29.7892  -22.9075   23.5707 C   0  0  0  0  0  0  0  0  0  0  0  0
  -27.3624  -23.8154   26.3229 C   0  0  0  0  0  0  0  0  0  1  0  0
  -25.7185  -32.0544   23.5974 C   0  0  1  0  0  0  0  0  0  0  0  0
  -27.4020  -34.1575   26.2642 C   0  0  2  0  0  0  0  0  0  0  0  0
  -28.4741  -22.9839   25.6928 C   0  0  2  0  0  0  0  0  0  0  0  0
  -28.3162  -21.5895   18.9858 C   0  0  0  0  0  0  0  0  0  0  0  0
  -25.6723  -32.5332   22.1189 C   0  0  0  0  0  0  0  0  0  0  0  0
  -30.6260  -18.5985   19.4982 N   0  0  0  0  0  0  0  0  0  0  0  0
  -31.3822  -19.4952   20.1541 N   0  0  0  0  0  0  0  0  0  0  0  0
  -24.3647  -30.1887   24.4975 N   0  0  0  0  0  0  0  0  0  0  0  0
  -31.5167  -22.2861   17.5368 N   0  0  0  0  0  0  0  0  0  0  0  0
  -32.2940  -20.0013   22.2809 N   0  0  0  0  0  0  0  0  0  0  0  0
  -30.0291  -16.1619   23.0053 N   0  0  0  0  0  0  0  0  0  0  0  0
  -21.4159  -28.2357   23.6103 N   0  0  0  0  0  0  0  0  0  0  0  0
  -26.1089  -33.0892   24.5487 N   0  0  0  0  0  0  0  0  0  0  0  0
  -29.7615  -23.8732   17.9202 N   0  0  0  0  0  0  0  0  0  0  0  0
  -27.9605  -33.7460   27.5832 N   0  3  0  0  0  0  0  0  0  0  0  0
  -28.5090  -23.2715   24.2296 N   0  3  0  0  0  0  0  0  0  0  0  0
  -31.3193  -17.7779   23.9964 O   0  0  0  0  0  0  0  0  0  0  0  0
  -23.4106  -28.8202   22.5604 O   0  0  0  0  0  0  0  0  0  0  0  0
  -23.4047  -32.2707   24.0733 O   0  0  0  0  0  0  0  0  0  0  0  0
  -27.9502  -31.9679   25.4027 O   0  0  0  0  0  0  0  0  0  0  0  0
  -30.8315  -23.7504   15.8783 O   0  0  0  0  0  0  0  0  0  0  0  0
  -27.1370  -13.2792   19.2157 O   0  0  0  0  0  0  0  0  0  0  0  0
  -27.6138  -25.2077   26.1364 O   0  0  0  0  0  0  0  0  0  1  0  0
  -23.0714  -11.9900   22.7104 F   0  0  0  0  0  0  0  0  0  0  0  0
  -24.5032  -13.2436   18.3763 F   0  0  0  0  0  0  0  0  0  0  0  0
  -31.1433  -25.0825   22.3682 F   0  0  0  0  0  0  0  0  0  0  0  0
  -31.1247  -25.5335   19.6905 F   0  0  0  0  0  0  0  0  0  0  0  0
  1  2  1  0  0  0  0
  1  5  2  0  0  0  0
  2  6  2  0  0  0  0
  3  8  2  0  0  0  0
  3 16  1  0  0  0  0
  4  9  1  0  0  0  0
  4 16  2  0  0  0  0
  5 18  1  0  0  0  0
  6 20  1  0  0  0  0
  7 10  2  0  0  0  0
  7 19  1  0  0  0  0
  8 25  1  0  0  0  0
  9 25  2  0  0  0  0
 10 26  1  0  0  0  0
 11 12  2  0  0  0  0
 11 27  1  0  0  0  0
 12 28  1  0  0  0  0
 13 21  1  0  0  0  0
 13 26  2  0  0  0  0
 14 22  2  0  0  0  0
 14 23  1  0  0  0  0
 15 28  2  0  0  0  0
 15 29  1  0  0  0  0
 16 32  1  0  0  0  0
 17 32  1  0  0  0  0
 17 33  2  0  0  0  0
 17 34  1  0  0  0  0
 18 20  2  0  0  0  0
 18 39  1  0  0  0  0
 19 21  2  0  0  0  0
 19 40  1  0  0  0  0
 20 48  1  0  0  0  0
 21 41  1  0  0  0  0
 22 24  1  0  0  0  0
 22 66  1  0  0  0  0
 23 30  2  0  0  0  0
 23 61  1  0  0  0  0
 24 31  2  0  0  0  0
 24 76  1  0  0  0  0
 25 84  1  0  0  0  0
 26 85  1  0  0  0  0
 27 29  2  0  0  0  0
 27 84  1  0  0  0  0
 28 86  1  0  0  0  0
 29 87  1  0  0  0  0
 30 31  1  0  0  0  0
 30 88  1  0  0  0  0
 31 89  1  0  0  0  0
 32 68  2  0  0  0  0
 33 69  1  0  0  0  0
 33 72  1  0  0  0  0
 34 73  1  0  0  0  0
 34 79  2  0  0  0  0
 35 49  1  0  0  0  0
 35 74  1  0  0  0  0
 35 80  2  0  0  0  0
 36 63  1  0  0  0  0
 36 70  1  0  0  0  0
 36 81  2  0  0  0  0
 37 64  1  0  0  0  0
 37 75  1  0  0  0  0
 37 82  2  0  0  0  0
 38 71  1  0  0  0  0
 38 76  1  0  0  0  0
 38 83  2  0  0  0  0
 39 42  1  0  0  0  0
 40 49  1  0  0  0  0
 41 70  1  0  0  0  0
 42 44  1  0  0  0  0
 43 45  1  0  0  0  0
 43 46  1  0  0  0  0
 44 48  1  0  0  0  0
 45 50  1  0  0  0  0
 46 71  1  0  0  0  0
 47 50  1  0  0  0  0
 47 71  1  0  0  0  0
 48 74  1  0  0  0  0
 49 70  1  0  0  0  0
 50 69  1  0  0  0  0
 51 64  1  0  0  0  0
 52 65  1  0  0  0  0
 53 66  1  0  0  0  0
 54 66  1  0  0  0  0
 55 66  1  0  0  0  0
 56 67  1  0  0  0  0
 57 67  1  0  0  0  0
 58 67  1  0  0  0  0
 59 76  1  0  0  0  0
 60 77  1  0  0  0  0
 61 78  1  0  0  0  0
 62 65  1  0  0  0  0
 62 85  1  0  0  0  0
 63 67  1  0  0  0  0
 63 75  1  0  0  0  0
 64 77  1  0  0  0  0
 65 78  1  0  0  0  0
 68 69  1  0  0  0  0
M  CHG  2  77   1  78   1
M  ISO  4  38 100  62 101  76 100  85 101
M  END
> <Batch ID>
0014

> <Smiles>
CNC(C)C(=O)NC(C(=O)N1Cc2cc([101O:1][101CH2:1]C(C)NCc3cc(C(C)(C)C)c([100N:0](C)[100C:0](=O)N4CCCC(n5nc(-c6ccc(Oc7ccc(F)cc7F)cc6)c(C(N)=O)c5N)C4)c(F)c3F)ccc2CC1C(=O)NC1CCCc2ccccc21)C(C)(C)C

> <Shape>
0.266

> <Color>
0.079

> <Negative vol penalty>
0.000

$$$$

  -OEChem-04052315533D

 85 93  0     1  0  0  0  0  0999 V2000
  -26.9796  -33.7300   26.1375 C   0  0  0  0  0  0  0  0  0  0  0  0
  -27.3476  -32.5755   25.4540 C   0  0  0  0  0  0  0  0  0  0  0  0
  -23.6475  -14.5372   21.8560 C   0  0  0  0  0  0  0  0  0  0  0  0
  -25.8239  -15.4529   21.3443 C   0  0  0  0  0  0  0  0  0  0  0  0
  -25.6483  -33.9292   26.5007 C   0  0  0  0  0  0  0  0  0  0  0  0
  -26.3847  -31.6190   25.1343 C   0  0  0  0  0  0  0  0  0  0  0  0
  -26.8231  -29.9354   20.3784 C   0  0  0  0  0  0  0  0  0  0  0  0
  -24.0865  -13.2734   21.4617 C   0  0  0  0  0  0  0  0  0  0  0  0
  -26.2629  -14.1890   20.9500 C   0  0  0  0  0  0  0  0  0  0  0  0
  -27.8257  -29.0007   20.1237 C   0  0  0  0  0  0  0  0  0  0  0  0
  -25.9447  -10.7646   22.7602 C   0  0  0  0  0  0  0  0  0  0  0  0
  -25.6250   -9.6824   23.5800 C   0  0  0  0  0  0  0  0  0  0  0  0
  -26.1887  -27.2309   20.2070 C   0  0  0  0  0  0  0  0  0  0  0  0
  -27.0650  -24.1503   16.0508 C   0  0  0  0  0  0  0  0  0  0  0  0
  -24.8081  -23.6824   16.7748 C   0  0  0  0  0  0  0  0  0  0  0  0
  -24.4243   -8.6533   21.7533 C   0  0  0  0  0  0  0  0  0  0  0  0
  -24.5162  -15.6271   21.7973 C   0  0  0  0  0  0  0  0  0  0  0  0
  -24.1311  -17.4928   23.4938 C   0  0  0  0  0  0  0  0  0  0  0  0
  -24.6669  -32.9791   26.1767 C   0  0  0  0  0  0  0  0  0  0  0  0
  -25.4952  -29.5231   20.5604 C   0  0  0  0  0  0  0  0  0  0  0  0
  -25.0393  -31.8050   25.4946 C   0  0  0  0  0  0  0  0  0  0  0  0
  -25.1706  -28.1626   20.4613 C   0  0  0  0  0  0  0  0  0  0  0  0
  -25.6878  -24.2594   15.8589 C   0  0  0  0  0  0  0  0  0  0  0  0
  -27.5627  -23.4641   17.1586 C   0  0  0  0  0  0  0  0  0  0  0  0
  -25.3057  -22.9962   17.8826 C   0  0  0  0  0  0  0  0  0  0  0  0
  -25.3942  -13.0993   21.0087 C   0  0  0  0  0  0  0  0  0  0  0  0
  -27.5091  -27.6480   20.0409 C   0  0  0  0  0  0  0  0  0  0  0  0
  -25.5041  -10.7913   21.4369 C   0  0  0  0  0  0  0  0  0  0  0  0
  -24.8648   -8.6267   23.0766 C   0  0  0  0  0  0  0  0  0  0  0  0
  -24.7440   -9.7356   20.9335 C   0  0  0  0  0  0  0  0  0  0  0  0
  -26.6830  -22.8871   18.0745 C   0  0  0  0  0  0  0  0  0  0  0  0
  -24.0631  -16.9330   22.2039 C   0  0  0  0  0  0  0  0  0  0  0  0
  -23.5745  -18.7409   23.3561 C   0  0  0  0  0  0  0  0  0  0  0  0
  -24.6509  -16.9346   24.7078 C   0  0  0  0  0  0  0  0  0  0  0  0
  -23.4031  -29.6861   22.9479 C   0  0  0  0  0  0  0  0  0  0  0  0
  -21.3683  -28.4756   20.7305 C   0  0  0  0  0  0  0  0  0  0  0  0
  -30.4264  -25.2995   18.1017 C   0  0  0  0  0  0  0  0  0  0  0  0
  -20.9495  -26.7083   17.8412 C   0  0  0  0  0  0  0  0  0  0  0  0
  -22.9896  -22.4606   18.7164 C   0  0  0  0  0  0  0  0  0  0  0  0
  -23.2487  -33.2162   26.6319 C   0  0  0  0  0  0  0  0  0  0  0  0
  -24.4210  -30.5464   20.8079 C   0  0  0  0  0  0  0  0  0  0  0  0
  -23.7571  -27.6703   20.6289 C   0  0  0  0  0  0  0  0  0  0  0  0
  -22.2261  -32.3294   25.9260 C   0  0  0  0  0  0  0  0  0  0  0  0
  -20.3677  -21.1425   20.7326 C   0  0  0  0  0  0  0  0  0  0  0  0
  -22.7076  -30.8824   25.8919 C   0  0  0  0  0  0  0  0  0  0  0  0
  -21.0256  -19.9681   21.4607 C   0  0  0  0  0  0  0  0  0  0  0  0
  -20.8816  -21.2818   19.3007 C   0  0  0  0  0  0  0  0  0  0  0  0
  -23.0005  -20.1758   19.8975 C   0  0  0  0  0  0  0  0  0  0  0  0
  -24.0195  -30.7558   25.1081 C   0  0  1  0  0  0  0  0  0  0  0  0
  -23.1857  -29.9636   21.4873 C   0  0  1  0  0  0  0  0  0  0  0  0
  -22.5624  -20.0351   21.3644 C   0  0  2  0  0  0  0  0  0  0  0  0
  -25.1564  -24.9940   14.6750 C   0  0  0  0  0  0  0  0  0  0  0  0
  -19.1666  -25.8505   16.2976 C   0  0  0  0  0  0  0  0  0  0  0  0
  -20.7085  -26.2636   22.7259 C   0  0  0  0  0  0  0  0  0  0  0  0
  -19.7019  -24.9592   20.8408 C   0  0  0  0  0  0  0  0  0  0  0  0
  -18.7367  -27.1683   21.4817 C   0  0  0  0  0  0  0  0  0  0  0  0
  -21.9978  -28.2847   15.5664 C   0  0  0  0  0  0  0  0  0  0  0  0
  -29.0521  -23.3719   17.3236 C   0  0  0  0  0  0  0  0  0  0  0  0
  -30.7593  -26.0667   19.3718 C   0  0  0  0  0  0  0  0  0  0  0  0
  -29.8136  -27.2299   19.6283 C   0  0  0  0  0  0  0  0  0  1  0  0
  -20.9666  -27.0878   20.2928 C   0  0  1  0  0  0  0  0  0  0  0  0
  -20.1263  -26.9914   16.5976 C   0  0  2  0  0  0  0  0  0  0  0  0
  -20.0555  -26.3785   21.3340 C   0  0  0  0  0  0  0  0  0  0  0  0
  -23.5071  -17.7577   21.3125 N   0  0  0  0  0  0  0  0  0  0  0  0
  -23.2205  -18.8485   22.0434 N   0  0  0  0  0  0  0  0  0  0  0  0
  -22.7432  -28.7089   20.8755 N   0  0  0  0  0  0  0  0  0  0  0  0
  -22.3447  -21.3434   19.2881 N   0  0  0  0  0  0  0  0  0  0  0  0
  -23.3582  -19.7459   24.2312 N   0  0  0  0  0  0  0  0  0  0  0  0
  -25.1864  -15.6399   24.6723 N   0  0  0  0  0  0  0  0  0  0  0  0
  -24.3816  -22.4237   18.7915 N   0  0  0  0  0  0  0  0  0  0  0  0
  -23.7637  -30.7983   23.6843 N   0  0  0  0  0  0  0  0  0  0  0  0
  -29.5385  -24.2631   18.3521 N   0  0  0  0  0  0  0  0  0  0  0  0
  -20.3631  -27.2349   18.9727 N   0  0  0  0  0  0  0  0  0  0  0  0
  -21.0175  -27.1784   15.4179 N   0  3  0  0  0  0  0  0  0  0  0  0
  -24.6258  -17.5590   25.7955 O   0  0  0  0  0  0  0  0  0  0  0  0
  -23.2532  -28.5474   23.3754 O   0  0  0  0  0  0  0  0  0  0  0  0
  -20.4948  -29.3236   20.9294 O   0  0  0  0  0  0  0  0  0  0  0  0
  -30.8964  -25.5801   17.0025 O   0  0  0  0  0  0  0  0  0  0  0  0
  -22.0051  -26.0795   17.8124 O   0  0  0  0  0  0  0  0  0  0  0  0
  -22.3531  -23.3950   18.2227 O   0  0  0  0  0  0  0  0  0  0  0  0
  -25.8230  -11.8661   20.6240 O   0  0  0  0  0  0  0  0  0  0  0  0
  -28.4859  -26.7335   19.7930 O   0  0  0  0  0  0  0  0  0  1  0  0
  -24.5592   -7.5868   23.8635 F   0  0  0  0  0  0  0  0  0  0  0  0
  -24.3189   -9.7550   19.6628 F   0  0  0  0  0  0  0  0  0  0  0  0
  -27.3079  -22.0351   19.4489 Cl  0  0  0  0  0  0  0  0  0  0  0  0
  1  2  1  0  0  0  0
  1  5  2  0  0  0  0
  2  6  2  0  0  0  0
  3  8  2  0  0  0  0
  3 17  1  0  0  0  0
  4  9  1  0  0  0  0
  4 17  2  0  0  0  0
  5 19  1  0  0  0  0
  6 21  1  0  0  0  0
  7 10  2  0  0  0  0
  7 20  1  0  0  0  0
  8 26  1  0  0  0  0
  9 26  2  0  0  0  0
 10 27  1  0  0  0  0
 11 12  2  0  0  0  0
 11 28  1  0  0  0  0
 12 29  1  0  0  0  0
 13 22  1  0  0  0  0
 13 27  2  0  0  0  0
 14 23  2  0  0  0  0
 14 24  1  0  0  0  0
 15 23  1  0  0  0  0
 15 25  2  0  0  0  0
 16 29  2  0  0  0  0
 16 30  1  0  0  0  0
 17 32  1  0  0  0  0
 18 32  1  0  0  0  0
 18 33  2  0  0  0  0
 18 34  1  0  0  0  0
 19 21  2  0  0  0  0
 19 40  1  0  0  0  0
 20 22  2  0  0  0  0
 20 41  1  0  0  0  0
 21 49  1  0  0  0  0
 22 42  1  0  0  0  0
 23 52  1  0  0  0  0
 24 31  2  0  0  0  0
 24 58  1  0  0  0  0
 25 31  1  0  0  0  0
 25 70  1  0  0  0  0
 26 81  1  0  0  0  0
 27 82  1  0  0  0  0
 28 30  2  0  0  0  0
 28 81  1  0  0  0  0
 29 83  1  0  0  0  0
 30 84  1  0  0  0  0
 31 85  1  0  0  0  0
 32 64  2  0  0  0  0
 33 65  1  0  0  0  0
 33 68  1  0  0  0  0
 34 69  1  0  0  0  0
 34 75  2  0  0  0  0
 35 50  1  0  0  0  0
 35 71  1  0  0  0  0
 35 76  2  0  0  0  0
 36 61  1  0  0  0  0
 36 66  1  0  0  0  0
 36 77  2  0  0  0  0
 37 59  1  0  0  0  0
 37 72  1  0  0  0  0
 37 78  2  0  0  0  0
 38 62  1  0  0  0  0
 38 73  1  0  0  0  0
 38 79  2  0  0  0  0
 39 67  1  0  0  0  0
 39 70  1  0  0  0  0
 39 80  2  0  0  0  0
 40 43  1  0  0  0  0
 41 50  1  0  0  0  0
 42 66  1  0  0  0  0
 43 45  1  0  0  0  0
 44 46  1  0  0  0  0
 44 47  1  0  0  0  0
 45 49  1  0  0  0  0
 46 51  1  0  0  0  0
 47 67  1  0  0  0  0
 48 51  1  0  0  0  0
 48 67  1  0  0  0  0
 49 71  1  0  0  0  0
 50 66  1  0  0  0  0
 51 65  1  0  0  0  0
 53 62  1  0  0  0  0
 54 63  1  0  0  0  0
 55 63  1  0  0  0  0
 56 63  1  0  0  0  0
 57 74  1  0  0  0  0
 58 72  1  0  0  0  0
 59 60  1  0  0  0  0
 60 82  1  0  0  0  0
 61 63  1  0  0  0  0
 61 73  1  0  0  0  0
 62 74  1  0  0  0  0
 64 65  1  0  0  0  0
M  CHG  1  74   1
M  ISO  4  39 100  60 101  70 100  82 101
M  END
> <Batch ID>
0014

> <Smiles>
CNC(C)C(=O)NC(C(=O)N1Cc2cc([101O:1][101CH2:1]CC(=O)NCc3cc(C)cc([100NH:0][100C:0](=O)N4CCCC(n5nc(-c6ccc(Oc7ccc(F)cc7F)cc6)c(C(N)=O)c5N)C4)c3Cl)ccc2CC1C(=O)NC1CCCc2ccccc21)C(C)(C)C

> <Shape>
0.225

> <Color>
0.072

> <Negative vol penalty>
0.000

$$$$

  -OEChem-04052315533D

 85 93  0     1  0  0  0  0  0999 V2000
  -39.0995  -28.3783   15.8493 C   0  0  0  0  0  0  0  0  0  0  0  0
  -38.0098  -27.7980   16.4906 C   0  0  0  0  0  0  0  0  0  0  0  0
  -23.0017   -9.8940   19.9800 C   0  0  0  0  0  0  0  0  0  0  0  0
  -23.7318   -9.9417   22.2825 C   0  0  0  0  0  0  0  0  0  0  0  0
  -39.8006  -27.6605   14.8812 C   0  0  0  0  0  0  0  0  0  0  0  0
  -37.6199  -26.4998   16.1634 C   0  0  0  0  0  0  0  0  0  0  0  0
  -35.2807  -22.2935   19.9503 C   0  0  0  0  0  0  0  0  0  0  0  0
  -22.2375   -8.7578   20.2458 C   0  0  0  0  0  0  0  0  0  0  0  0
  -22.9675   -8.8055   22.5484 C   0  0  0  0  0  0  0  0  0  0  0  0
  -33.9724  -21.8844   20.2047 C   0  0  0  0  0  0  0  0  0  0  0  0
  -23.2159   -5.4679   22.0696 C   0  0  0  0  0  0  0  0  0  0  0  0
  -23.8066   -4.4501   22.8185 C   0  0  0  0  0  0  0  0  0  0  0  0
  -34.2444  -20.0648   18.6445 C   0  0  0  0  0  0  0  0  0  0  0  0
  -22.0860   -4.6873   24.4979 C   0  0  0  0  0  0  0  0  0  0  0  0
  -23.7489  -10.4859   20.9983 C   0  0  0  0  0  0  0  0  0  0  0  0
  -24.1300  -13.0024   20.8263 C   0  0  0  0  0  0  0  0  0  0  0  0
  -39.4250  -26.3493   14.5489 C   0  0  0  0  0  0  0  0  0  0  0  0
  -36.0785  -21.5966   19.0315 C   0  0  0  0  0  0  0  0  0  0  0  0
  -38.3158  -25.7642   15.1890 C   0  0  0  0  0  0  0  0  0  0  0  0
  -35.5634  -20.4655   18.3822 C   0  0  0  0  0  0  0  0  0  0  0  0
  -22.2204   -8.2136   21.5300 C   0  0  0  0  0  0  0  0  0  0  0  0
  -33.4531  -20.7716   19.5496 C   0  0  0  0  0  0  0  0  0  0  0  0
  -22.0603   -6.0954   22.5349 C   0  0  0  0  0  0  0  0  0  0  0  0
  -23.2417   -4.0598   24.0326 C   0  0  0  0  0  0  0  0  0  0  0  0
  -21.4953   -5.7050   23.7490 C   0  0  0  0  0  0  0  0  0  0  0  0
  -24.5390  -11.6592   20.7242 C   0  0  0  0  0  0  0  0  0  0  0  0
  -30.9646  -20.7477   17.6087 C   0  0  0  0  0  0  0  0  0  0  0  0
  -25.2379  -13.7274   20.4609 C   0  0  0  0  0  0  0  0  0  0  0  0
  -31.3851  -20.0377   18.7087 C   0  0  0  0  0  0  0  0  0  1  0  0
  -30.1236  -18.8049   17.3875 C   0  0  0  0  0  0  0  0  0  0  0  0
  -22.8621  -13.5462   21.2166 C   0  0  0  0  0  0  0  0  0  0  0  0
  -37.4992  -22.3312   16.2846 C   0  0  0  0  0  0  0  0  0  0  0  0
  -38.7516  -19.3540   16.5854 C   0  0  0  0  0  0  0  0  0  0  0  0
  -38.4846  -16.2185   17.9060 C   0  0  0  0  0  0  0  0  0  0  0  0
  -30.7334  -14.6698   20.6993 C   0  0  0  0  0  0  0  0  0  0  0  0
  -40.1843  -25.6300   13.4623 C   0  0  0  0  0  0  0  0  0  0  0  0
  -37.4966  -22.0347   18.7882 C   0  0  0  0  0  0  0  0  0  0  0  0
  -36.3855  -19.6708   17.4019 C   0  0  0  0  0  0  0  0  0  0  0  0
  -39.9374  -24.1238   13.4413 C   0  0  0  0  0  0  0  0  0  0  0  0
  -29.5913  -12.2489   18.3517 C   0  0  0  0  0  0  0  0  0  0  0  0
  -38.4457  -23.8257   13.5546 C   0  0  0  0  0  0  0  0  0  0  0  0
  -28.1441  -11.9862   18.7719 C   0  0  0  0  0  0  0  0  0  0  0  0
  -30.4960  -12.4834   19.5594 C   0  0  0  0  0  0  0  0  0  0  0  0
  -28.5875  -13.2734   20.9038 C   0  0  0  0  0  0  0  0  0  0  0  0
  -37.8775  -24.3493   14.8792 C   0  0  1  0  0  0  0  0  0  0  0  0
  -38.0484  -21.5562   17.4488 C   0  0  1  0  0  0  0  0  0  0  0  0
  -27.6262  -13.0866   19.7175 C   0  0  2  0  0  0  0  0  0  0  0  0
  -31.2565  -22.1464   17.2578 C   0  0  0  0  0  0  0  0  0  0  0  0
  -27.1468  -18.2121   18.0939 C   0  0  0  0  0  0  0  0  0  0  0  0
  -39.6411  -13.9917   17.9433 C   0  0  0  0  0  0  0  0  0  0  0  0
  -30.2674  -16.3369   16.6269 C   0  0  0  0  0  0  0  0  0  0  0  0
  -28.7119  -17.9168   15.5189 C   0  0  0  0  0  0  0  0  0  0  0  0
  -37.7040  -18.7657   13.7807 C   0  0  0  0  0  0  0  0  0  0  0  0
  -38.0295  -16.3273   14.2461 C   0  0  0  0  0  0  0  0  0  0  0  0
  -39.9909  -17.8686   14.2496 C   0  0  0  0  0  0  0  0  0  0  0  0
  -38.8930  -16.3493   20.8343 C   0  0  0  0  0  0  0  0  0  0  0  0
  -28.2257  -17.1567   17.8681 C   0  0  0  0  0  0  0  0  0  0  0  0
  -30.5647  -17.9828   20.8991 C   0  0  0  0  0  0  0  0  0  0  0  0
  -30.9901  -17.6776   19.4566 C   0  0  0  0  0  0  0  0  0  0  0  0
  -30.8154  -16.8466   21.8884 C   0  0  0  0  0  0  0  0  0  0  0  0
  -38.3321  -17.9692   16.1550 C   0  0  1  0  0  0  0  0  0  0  0  0
  -39.4906  -15.3409   18.6287 C   0  0  2  0  0  0  0  0  0  0  0  0
  -29.3930  -17.6165   16.9014 C   0  0  0  0  0  0  0  0  0  0  0  0
  -38.4977  -17.7486   14.6248 C   0  0  0  0  0  0  0  0  0  0  0  0
  -25.8076  -11.5354   20.3251 N   0  0  0  0  0  0  0  0  0  0  0  0
  -30.1797  -19.9745   16.7902 N   0  0  0  0  0  0  0  0  0  0  0  0
  -26.2053  -12.8101   20.1730 N   0  0  0  0  0  0  0  0  0  0  0  0
  -30.8384  -18.7951   18.5528 N   0  0  0  0  0  0  0  0  0  0  0  0
  -37.7643  -20.1427   17.1930 N   0  0  0  0  0  0  0  0  0  0  0  0
  -29.9494  -13.5396   20.4147 N   0  0  0  0  0  0  0  0  0  0  0  0
  -25.4692  -15.0536   20.3608 N   0  0  0  0  0  0  0  0  0  0  0  0
  -21.8324  -12.6598   21.5607 N   0  0  0  0  0  0  0  0  0  0  0  0
  -38.2288  -23.4607   15.9662 N   0  0  0  0  0  0  0  0  0  0  0  0
  -39.0942  -17.0372   16.9790 N   0  0  0  0  0  0  0  0  0  0  0  0
  -30.1373  -15.6262   21.5122 N   0  0  0  0  0  0  0  0  0  0  0  0
  -39.0580  -15.1076   20.0356 N   0  3  0  0  0  0  0  0  0  0  0  0
  -22.6436  -14.7811   21.2432 O   0  0  0  0  0  0  0  0  0  0  0  0
  -36.4893  -21.9329   15.7162 O   0  0  0  0  0  0  0  0  0  0  0  0
  -39.9144  -19.7198   16.3963 O   0  0  0  0  0  0  0  0  0  0  0  0
  -37.2783  -16.1788   18.1378 O   0  0  0  0  0  0  0  0  0  0  0  0
  -31.8776  -14.8183   20.2570 O   0  0  0  0  0  0  0  0  0  0  0  0
  -21.4745   -7.1051   21.7898 O   0  0  0  0  0  0  0  0  0  0  0  0
  -32.1762  -20.3706   19.7956 O   0  0  0  0  0  0  0  0  0  1  0  0
  -23.8082   -3.0814   24.7509 F   0  0  0  0  0  0  0  0  0  0  0  0
  -20.3845   -6.3034   24.2006 F   0  0  0  0  0  0  0  0  0  0  0  0
  1  2  1  0  0  0  0
  1  5  2  0  0  0  0
  2  6  2  0  0  0  0
  3  8  2  0  0  0  0
  3 15  1  0  0  0  0
  4  9  1  0  0  0  0
  4 15  2  0  0  0  0
  5 17  1  0  0  0  0
  6 19  1  0  0  0  0
  7 10  2  0  0  0  0
  7 18  1  0  0  0  0
  8 21  1  0  0  0  0
  9 21  2  0  0  0  0
 10 22  1  0  0  0  0
 11 12  2  0  0  0  0
 11 23  1  0  0  0  0
 12 24  1  0  0  0  0
 13 20  1  0  0  0  0
 13 22  2  0  0  0  0
 14 24  2  0  0  0  0
 14 25  1  0  0  0  0
 15 26  1  0  0  0  0
 16 26  1  0  0  0  0
 16 28  2  0  0  0  0
 16 31  1  0  0  0  0
 17 19  2  0  0  0  0
 17 36  1  0  0  0  0
 18 20  2  0  0  0  0
 18 37  1  0  0  0  0
 19 45  1  0  0  0  0
 20 38  1  0  0  0  0
 21 82  1  0  0  0  0
 22 83  1  0  0  0  0
 23 25  2  0  0  0  0
 23 82  1  0  0  0  0
 24 84  1  0  0  0  0
 25 85  1  0  0  0  0
 26 65  2  0  0  0  0
 27 29  2  0  0  0  0
 27 48  1  0  0  0  0
 27 66  1  0  0  0  0
 28 67  1  0  0  0  0
 28 71  1  0  0  0  0
 29 68  1  0  0  0  0
 29 83  1  0  0  0  0
 30 63  1  0  0  0  0
 30 66  2  0  0  0  0
 30 68  1  0  0  0  0
 31 72  1  0  0  0  0
 31 77  2  0  0  0  0
 32 46  1  0  0  0  0
 32 73  1  0  0  0  0
 32 78  2  0  0  0  0
 33 61  1  0  0  0  0
 33 69  1  0  0  0  0
 33 79  2  0  0  0  0
 34 62  1  0  0  0  0
 34 74  1  0  0  0  0
 34 80  2  0  0  0  0
 35 70  1  0  0  0  0
 35 75  1  0  0  0  0
 35 81  2  0  0  0  0
 36 39  1  0  0  0  0
 37 46  1  0  0  0  0
 38 69  1  0  0  0  0
 39 41  1  0  0  0  0
 40 42  1  0  0  0  0
 40 43  1  0  0  0  0
 41 45  1  0  0  0  0
 42 47  1  0  0  0  0
 43 70  1  0  0  0  0
 44 47  1  0  0  0  0
 44 70  1  0  0  0  0
 45 73  1  0  0  0  0
 46 69  1  0  0  0  0
 47 67  1  0  0  0  0
 49 57  1  0  0  0  0
 50 62  1  0  0  0  0
 51 63  1  0  0  0  0
 52 63  1  0  0  0  0
 53 64  1  0  0  0  0
 54 64  1  0  0  0  0
 55 64  1  0  0  0  0
 56 76  1  0  0  0  0
 57 63  1  0  0  0  0
 58 59  1  0  0  0  0
 58 60  1  0  0  0  0
 59 68  1  0  0  0  0
 60 75  1  0  0  0  0
 61 64  1  0  0  0  0
 61 74  1  0  0  0  0
 62 76  1  0  0  0  0
 65 67  1  0  0  0  0
M  CHG  1  76   1
M  ISO  4  29 101  35 100  75 100  83 101
M  END
> <Batch ID>
0014

> <Smiles>
CCC(C)(C)c1nc(C)[101c:1]([101O:1]c2ccc3c(c2)CN(C(=O)C(NC(=O)C(C)NC)C(C)(C)C)C(C(=O)NC2CCCc4ccccc42)C3)n1CCC[100NH:0][100C:0](=O)N1CCCC(n2nc(-c3ccc(Oc4ccc(F)cc4F)cc3)c(C(N)=O)c2N)C1

> <Shape>
0.187

> <Color>
0.189

> <Negative vol penalty>
0.000

$$$$

  -OEChem-04052315533D

 85 93  0     1  0  0  0  0  0999 V2000
  -16.5426  -23.9953   19.3370 C   0  0  0  0  0  0  0  0  0  0  0  0
  -17.8654  -23.7275   18.9994 C   0  0  0  0  0  0  0  0  0  0  0  0
  -23.0529   -9.9737   19.8936 C   0  0  0  0  0  0  0  0  0  0  0  0
  -23.8645   -9.8539   22.1660 C   0  0  0  0  0  0  0  0  0  0  0  0
  -16.0506  -25.2966   19.2445 C   0  0  0  0  0  0  0  0  0  0  0  0
  -18.6966  -24.7606   18.5680 C   0  0  0  0  0  0  0  0  0  0  0  0
  -23.2692  -24.6105   20.7391 C   0  0  0  0  0  0  0  0  0  0  0  0
  -22.3005   -8.8177   20.1014 C   0  0  0  0  0  0  0  0  0  0  0  0
  -23.1121   -8.6979   22.3738 C   0  0  0  0  0  0  0  0  0  0  0  0
  -24.1800  -23.6797   20.2415 C   0  0  0  0  0  0  0  0  0  0  0  0
  -19.8888   -7.9066   23.0096 C   0  0  0  0  0  0  0  0  0  0  0  0
  -19.1581   -7.8149   24.1942 C   0  0  0  0  0  0  0  0  0  0  0  0
  -25.2524  -25.4215   18.9628 C   0  0  0  0  0  0  0  0  0  0  0  0
  -30.3293  -20.1153   19.3852 C   0  0  0  0  0  0  0  0  0  0  0  0
  -20.3916   -5.8282   24.8013 C   0  0  0  0  0  0  0  0  0  0  0  0
  -23.8349  -10.4918   20.9259 C   0  0  0  0  0  0  0  0  0  0  0  0
  -24.2054  -13.0158   20.9276 C   0  0  0  0  0  0  0  0  0  0  0  0
  -16.8788  -26.3479   18.8210 C   0  0  0  0  0  0  0  0  0  0  0  0
  -23.3365  -25.9541   20.3432 C   0  0  0  0  0  0  0  0  0  0  0  0
  -18.2148  -26.0769   18.4685 C   0  0  0  0  0  0  0  0  0  0  0  0
  -24.3428  -26.3680   19.4588 C   0  0  0  0  0  0  0  0  0  0  0  0
  -30.6841  -17.9589   21.1192 C   0  0  0  0  0  0  0  0  0  0  0  0
  -29.3024  -19.7408   20.2516 C   0  0  0  0  0  0  0  0  0  0  0  0
  -22.3301   -8.1798   21.3415 C   0  0  0  0  0  0  0  0  0  0  0  0
  -25.1701  -24.0845   19.3510 C   0  0  0  0  0  0  0  0  0  0  0  0
  -20.8708   -6.9590   22.7208 C   0  0  0  0  0  0  0  0  0  0  0  0
  -19.4095   -6.7758   25.0900 C   0  0  0  0  0  0  0  0  0  0  0  0
  -31.5337  -19.4116   19.3857 C   0  0  0  0  0  0  0  0  0  0  0  0
  -21.1222   -5.9199   23.6166 C   0  0  0  0  0  0  0  0  0  0  0  0
  -31.7111  -18.3334   20.2527 C   0  0  0  0  0  0  0  0  0  0  0  0
  -29.4798  -18.6626   21.1186 C   0  0  0  0  0  0  0  0  0  0  0  0
  -24.6128  -11.6856   20.7118 C   0  0  0  0  0  0  0  0  0  0  0  0
  -25.2983  -13.7706   20.5779 C   0  0  0  0  0  0  0  0  0  0  0  0
  -22.9513  -13.5236   21.4018 C   0  0  0  0  0  0  0  0  0  0  0  0
  -21.3880  -27.9397   18.8055 C   0  0  0  0  0  0  0  0  0  0  0  0
  -23.6595  -30.1298   19.5579 C   0  0  0  0  0  0  0  0  0  0  0  0
  -27.7895  -21.5704   19.4164 C   0  0  0  0  0  0  0  0  0  0  0  0
  -26.9135  -30.7692   20.3638 C   0  0  0  0  0  0  0  0  0  0  0  0
  -30.7972  -14.7166   20.6907 C   0  0  0  0  0  0  0  0  0  0  0  0
  -16.2889  -27.7299   18.6917 C   0  0  0  0  0  0  0  0  0  0  0  0
  -22.3630  -26.9510   20.9097 C   0  0  0  0  0  0  0  0  0  0  0  0
  -24.4706  -27.8025   19.0182 C   0  0  0  0  0  0  0  0  0  0  0  0
  -17.3389  -28.8327   18.5841 C   0  0  0  0  0  0  0  0  0  0  0  0
  -29.5762  -12.4712   18.2119 C   0  0  0  0  0  0  0  0  0  0  0  0
  -18.4183  -28.4458   17.5781 C   0  0  0  0  0  0  0  0  0  0  0  0
  -28.1454  -12.1718   18.6625 C   0  0  0  0  0  0  0  0  0  0  0  0
  -30.5230  -12.6195   19.4009 C   0  0  0  0  0  0  0  0  0  0  0  0
  -28.6624  -13.2996   20.8670 C   0  0  0  0  0  0  0  0  0  0  0  0
  -19.1543  -27.1752   18.0200 C   0  0  1  0  0  0  0  0  0  0  0  0
  -22.2065  -28.1942   20.0396 C   0  0  1  0  0  0  0  0  0  0  0  0
  -27.6597  -13.1969   19.7049 C   0  0  2  0  0  0  0  0  0  0  0  0
  -28.4792  -32.6601   20.8835 C   0  0  0  0  0  0  0  0  0  0  0  0
  -23.7657  -30.8528   16.5955 C   0  0  0  0  0  0  0  0  0  0  0  0
  -25.9429  -32.0109   17.0277 C   0  0  0  0  0  0  0  0  0  0  0  0
  -23.8633  -32.8088   18.1509 C   0  0  0  0  0  0  0  0  0  0  0  0
  -27.4806  -29.7097   23.0684 C   0  0  0  0  0  0  0  0  0  0  0  0
  -30.9178  -16.7997   22.0343 C   0  0  0  0  0  0  0  0  0  0  0  0
  -26.3861  -22.0713   19.7032 C   0  0  0  0  0  0  0  0  0  1  0  0
  -24.9183  -30.6352   18.8955 C   0  0  1  0  0  0  0  0  0  0  0  0
  -27.5316  -31.6192   21.4591 C   0  0  2  0  0  0  0  0  0  0  0  0
  -24.6192  -31.5494   17.6740 C   0  0  0  0  0  0  0  0  0  0  0  0
  -25.8665  -11.5972   20.2598 N   0  0  0  0  0  0  0  0  0  0  0  0
  -26.2564  -12.8813   20.1887 N   0  0  0  0  0  0  0  0  0  0  0  0
  -23.4913  -28.7384   19.5951 N   0  0  0  0  0  0  0  0  0  0  0  0
  -30.0055  -13.6072   20.3510 N   0  0  0  0  0  0  0  0  0  0  0  0
  -25.5236  -15.1016   20.5683 N   0  0  0  0  0  0  0  0  0  0  0  0
  -21.9360  -12.6098   21.7155 N   0  0  0  0  0  0  0  0  0  0  0  0
  -28.0963  -20.4804   20.2238 N   0  0  0  0  0  0  0  0  0  0  0  0
  -20.1100  -27.4815   19.0627 N   0  0  0  0  0  0  0  0  0  0  0  0
  -25.7022  -31.2776   19.9450 N   0  0  0  0  0  0  0  0  0  0  0  0
  -30.2289  -15.6075   21.5929 N   0  0  0  0  0  0  0  0  0  0  0  0
  -28.2955  -30.7632   22.4103 N   0  3  0  0  0  0  0  0  0  0  0  0
  -22.7317  -14.7522   21.5276 O   0  0  0  0  0  0  0  0  0  0  0  0
  -21.8790  -28.1453   17.7018 O   0  0  0  0  0  0  0  0  0  0  0  0
  -22.8584  -30.9395   20.0315 O   0  0  0  0  0  0  0  0  0  0  0  0
  -28.5020  -22.1037   18.5723 O   0  0  0  0  0  0  0  0  0  0  0  0
  -27.4531  -29.7575   19.9212 O   0  0  0  0  0  0  0  0  0  0  0  0
  -31.9247  -14.9024   20.2203 O   0  0  0  0  0  0  0  0  0  0  0  0
  -21.5959   -7.0518   21.5446 O   0  0  0  0  0  0  0  0  0  0  0  0
  -26.0600  -23.1779   18.8633 O   0  0  0  0  0  0  0  0  0  1  0  0
  -18.7088   -6.6888   26.2283 F   0  0  0  0  0  0  0  0  0  0  0  0
  -32.5207  -19.7721   18.5551 F   0  0  0  0  0  0  0  0  0  0  0  0
  -22.0653   -5.0073   23.3452 F   0  0  0  0  0  0  0  0  0  0  0  0
  -32.8731  -17.6650   20.2454 F   0  0  0  0  0  0  0  0  0  0  0  0
  -28.2069  -18.1943   22.1987 Cl  0  0  0  0  0  0  0  0  0  0  0  0
  1  2  1  0  0  0  0
  1  5  2  0  0  0  0
  2  6  2  0  0  0  0
  3  8  2  0  0  0  0
  3 16  1  0  0  0  0
  4  9  1  0  0  0  0
  4 16  2  0  0  0  0
  5 18  1  0  0  0  0
  6 20  1  0  0  0  0
  7 10  2  0  0  0  0
  7 19  1  0  0  0  0
  8 24  1  0  0  0  0
  9 24  2  0  0  0  0
 10 25  1  0  0  0  0
 11 12  2  0  0  0  0
 11 26  1  0  0  0  0
 12 27  1  0  0  0  0
 13 21  1  0  0  0  0
 13 25  2  0  0  0  0
 14 23  1  0  0  0  0
 14 28  2  0  0  0  0
 15 27  2  0  0  0  0
 15 29  1  0  0  0  0
 16 32  1  0  0  0  0
 17 32  1  0  0  0  0
 17 33  2  0  0  0  0
 17 34  1  0  0  0  0
 18 20  2  0  0  0  0
 18 40  1  0  0  0  0
 19 21  2  0  0  0  0
 19 41  1  0  0  0  0
 20 49  1  0  0  0  0
 21 42  1  0  0  0  0
 22 30  2  0  0  0  0
 22 31  1  0  0  0  0
 22 57  1  0  0  0  0
 23 31  2  0  0  0  0
 23 68  1  0  0  0  0
 24 79  1  0  0  0  0
 25 80  1  0  0  0  0
 26 29  2  0  0  0  0
 26 79  1  0  0  0  0
 27 81  1  0  0  0  0
 28 30  1  0  0  0  0
 28 82  1  0  0  0  0
 29 83  1  0  0  0  0
 30 84  1  0  0  0  0
 31 85  1  0  0  0  0
 32 62  2  0  0  0  0
 33 63  1  0  0  0  0
 33 66  1  0  0  0  0
 34 67  1  0  0  0  0
 34 73  2  0  0  0  0
 35 50  1  0  0  0  0
 35 69  1  0  0  0  0
 35 74  2  0  0  0  0
 36 59  1  0  0  0  0
 36 64  1  0  0  0  0
 36 75  2  0  0  0  0
 37 58  1  0  0  0  0
 37 68  1  0  0  0  0
 37 76  2  0  0  0  0
 38 60  1  0  0  0  0
 38 70  1  0  0  0  0
 38 77  2  0  0  0  0
 39 65  1  0  0  0  0
 39 71  1  0  0  0  0
 39 78  2  0  0  0  0
 40 43  1  0  0  0  0
 41 50  1  0  0  0  0
 42 64  1  0  0  0  0
 43 45  1  0  0  0  0
 44 46  1  0  0  0  0
 44 47  1  0  0  0  0
 45 49  1  0  0  0  0
 46 51  1  0  0  0  0
 47 65  1  0  0  0  0
 48 51  1  0  0  0  0
 48 65  1  0  0  0  0
 49 69  1  0  0  0  0
 50 64  1  0  0  0  0
 51 63  1  0  0  0  0
 52 60  1  0  0  0  0
 53 61  1  0  0  0  0
 54 61  1  0  0  0  0
 55 61  1  0  0  0  0
 56 72  1  0  0  0  0
 57 71  1  0  0  0  0
 58 80  1  0  0  0  0
 59 61  1  0  0  0  0
 59 70  1  0  0  0  0
 60 72  1  0  0  0  0
 62 63  1  0  0  0  0
M  CHG  1  72   1
M  ISO  4  39 100  58 101  71 100  80 101
M  END
> <Batch ID>
0014

> <Smiles>
CNC(C)C(=O)NC(C(=O)N1Cc2cc([101O:1][101CH2:1]C(=O)Nc3cc(F)c(F)c(C[100NH:0][100C:0](=O)N4CCCC(n5nc(-c6ccc(Oc7ccc(F)cc7F)cc6)c(C(N)=O)c5N)C4)c3Cl)ccc2CC1C(=O)NC1CCCc2ccccc21)C(C)(C)C

> <Shape>
0.271

> <Color>
0.197

> <Negative vol penalty>
0.000

$$$$

  -OEChem-04052315533D

 84 92  0     1  0  0  0  0  0999 V2000
  -31.4847  -23.5400   18.7267 C   0  0  0  0  0  0  0  0  0  0  0  0
  -30.2026  -23.4792   19.2631 C   0  0  0  0  0  0  0  0  0  0  0  0
  -24.5100   -8.9964   21.0714 C   0  0  0  0  0  0  0  0  0  0  0  0
  -22.6037  -10.4049   20.6031 C   0  0  0  0  0  0  0  0  0  0  0  0
  -32.3756  -24.5201   19.1623 C   0  0  0  0  0  0  0  0  0  0  0  0
  -29.8109  -24.3978   20.2363 C   0  0  0  0  0  0  0  0  0  0  0  0
  -25.1876  -26.2797   19.3829 C   0  0  0  0  0  0  0  0  0  0  0  0
  -21.6409  -19.8847   24.2990 C   0  0  0  0  0  0  0  0  0  0  0  0
  -23.6547   -7.9278   21.3394 C   0  0  0  0  0  0  0  0  0  0  0  0
  -21.7483   -9.3362   20.8711 C   0  0  0  0  0  0  0  0  0  0  0  0
  -24.1003  -25.4734   19.7167 C   0  0  0  0  0  0  0  0  0  0  0  0
  -21.6933   -6.8863   23.8875 C   0  0  0  0  0  0  0  0  0  0  0  0
  -22.4728  -19.2809   25.2419 C   0  0  0  0  0  0  0  0  0  0  0  0
  -21.9532   -6.1180   25.0223 C   0  0  0  0  0  0  0  0  0  0  0  0
  -23.8212  -26.7099   21.7691 C   0  0  0  0  0  0  0  0  0  0  0  0
  -22.2192   -4.1583   23.6345 C   0  0  0  0  0  0  0  0  0  0  0  0
  -23.9846  -10.2350   20.7032 C   0  0  0  0  0  0  0  0  0  0  0  0
  -25.4300  -11.6878   19.1841 C   0  0  0  0  0  0  0  0  0  0  0  0
  -31.9915  -25.4572   20.1343 C   0  0  0  0  0  0  0  0  0  0  0  0
  -25.6073  -27.3019   20.2462 C   0  0  0  0  0  0  0  0  0  0  0  0
  -30.6979  -25.3905   20.6863 C   0  0  0  0  0  0  0  0  0  0  0  0
  -24.9125  -27.5295   21.4427 C   0  0  0  0  0  0  0  0  0  0  0  0
  -21.8153  -19.6161   22.9414 C   0  0  0  0  0  0  0  0  0  0  0  0
  -23.6536  -18.1401   23.4695 C   0  0  0  0  0  0  0  0  0  0  0  0
  -22.2738   -8.0976   21.2393 C   0  0  0  0  0  0  0  0  0  0  0  0
  -23.4188  -25.6865   20.9114 C   0  0  0  0  0  0  0  0  0  0  0  0
  -21.6963   -6.2907   22.6262 C   0  0  0  0  0  0  0  0  0  0  0  0
  -22.2162   -4.7540   24.8958 C   0  0  0  0  0  0  0  0  0  0  0  0
  -23.4791  -18.4086   24.8272 C   0  0  0  0  0  0  0  0  0  0  0  0
  -21.9593   -4.9267   22.4997 C   0  0  0  0  0  0  0  0  0  0  0  0
  -22.8217  -18.7439   22.5266 C   0  0  0  0  0  0  0  0  0  0  0  0
  -24.8677  -11.3395   20.4268 C   0  0  0  0  0  0  0  0  0  0  0  0
  -26.1871  -12.8025   19.4502 C   0  0  0  0  0  0  0  0  0  0  0  0
  -25.2813  -11.0600   17.9037 C   0  0  0  0  0  0  0  0  0  0  0  0
  -28.2741  -27.9195   21.8619 C   0  0  0  0  0  0  0  0  0  0  0  0
  -26.7463  -30.6948   22.5589 C   0  0  0  0  0  0  0  0  0  0  0  0
  -21.6021  -22.6461   21.6883 C   0  0  0  0  0  0  0  0  0  0  0  0
  -23.7928  -32.3728   22.8870 C   0  0  0  0  0  0  0  0  0  0  0  0
  -25.9002  -17.0190   23.6745 C   0  0  0  0  0  0  0  0  0  0  0  0
  -33.0049  -26.4688   20.6079 C   0  0  0  0  0  0  0  0  0  0  0  0
  -26.7654  -28.1802   19.8590 C   0  0  0  0  0  0  0  0  0  0  0  0
  -25.3106  -28.6268   22.3945 C   0  0  0  0  0  0  0  0  0  0  0  0
  -32.3877  -27.6378   21.3713 C   0  0  0  0  0  0  0  0  0  0  0  0
  -28.6675  -14.8906   22.9747 C   0  0  0  0  0  0  0  0  0  0  0  0
  -31.3837  -27.1316   22.4021 C   0  0  0  0  0  0  0  0  0  0  0  0
  -28.0595  -13.7734   22.1237 C   0  0  0  0  0  0  0  0  0  0  0  0
  -27.7070  -15.3586   24.0666 C   0  0  0  0  0  0  0  0  0  0  0  0
  -25.7623  -14.6251   22.7439 C   0  0  0  0  0  0  0  0  0  0  0  0
  -30.2277  -26.3847   21.7258 C   0  0  1  0  0  0  0  0  0  0  0  0
  -27.4253  -28.8604   21.0545 C   0  0  1  0  0  0  0  0  0  0  0  0
  -26.6679  -14.1656   21.5896 C   0  0  2  0  0  0  0  0  0  0  0  0
  -22.8618  -34.6195   23.5061 C   0  0  0  0  0  0  0  0  0  0  0  0
  -27.2687  -30.0969   25.5050 C   0  0  0  0  0  0  0  0  0  0  0  0
  -25.5407  -31.8123   26.0877 C   0  0  0  0  0  0  0  0  0  0  0  0
  -27.5992  -32.4881   24.8513 C   0  0  0  0  0  0  0  0  0  0  0  0
  -22.5649  -32.7286   20.2178 C   0  0  0  0  0  0  0  0  0  0  0  0
  -20.9175  -20.2673   21.9294 C   0  0  0  0  0  0  0  0  0  0  0  0
  -22.3683  -23.5586   20.7546 C   0  0  0  0  0  0  0  0  0  1  0  0
  -25.8147  -31.1567   23.6533 C   0  0  1  0  0  0  0  0  0  0  0  0
  -23.3411  -33.7274   22.3716 C   0  0  2  0  0  0  0  0  0  0  0  0
  -26.5493  -31.3665   25.0075 C   0  0  0  0  0  0  0  0  0  0  0  0
  -25.2362  -12.1658   21.4093 N   0  0  0  0  0  0  0  0  0  0  0  0
  -26.0383  -13.0444   20.7842 N   0  0  0  0  0  0  0  0  0  0  0  0
  -26.4532  -29.4546   21.9743 N   0  0  0  0  0  0  0  0  0  0  0  0
  -26.4112  -15.7173   23.4860 N   0  0  0  0  0  0  0  0  0  0  0  0
  -26.9591  -13.5894   18.6710 N   0  0  0  0  0  0  0  0  0  0  0  0
  -24.4664   -9.9238   17.8074 N   0  0  0  0  0  0  0  0  0  0  0  0
  -24.6763  -17.2540   23.0490 N   0  0  0  0  0  0  0  0  0  0  0  0
  -29.2922  -27.3226   21.1431 N   0  0  0  0  0  0  0  0  0  0  0  0
  -21.5834  -21.3394   21.2264 N   0  0  0  0  0  0  0  0  0  0  0  0
  -25.1472  -32.3500   23.1445 N   0  0  0  0  0  0  0  0  0  0  0  0
  -22.2250  -33.5650   21.3975 N   0  3  0  0  0  0  0  0  0  0  0  0
  -25.8671  -11.4841   16.8788 O   0  0  0  0  0  0  0  0  0  0  0  0
  -28.0248  -27.7489   23.0496 O   0  0  0  0  0  0  0  0  0  0  0  0
  -27.6949  -31.4114   22.2298 O   0  0  0  0  0  0  0  0  0  0  0  0
  -21.0718  -23.0460   22.7212 O   0  0  0  0  0  0  0  0  0  0  0  0
  -23.0206  -31.4304   23.0489 O   0  0  0  0  0  0  0  0  0  0  0  0
  -26.5170  -17.8713   24.3188 O   0  0  0  0  0  0  0  0  0  0  0  0
  -21.4388   -7.0550   21.5005 O   0  0  0  0  0  0  0  0  0  0  0  0
  -22.3576  -24.9005   21.2400 O   0  0  0  0  0  0  0  0  0  1  0  0
  -22.4673   -4.0166   25.9854 F   0  0  0  0  0  0  0  0  0  0  0  0
  -24.2731  -17.8341   25.7419 F   0  0  0  0  0  0  0  0  0  0  0  0
  -21.9647   -4.3490   21.2905 F   0  0  0  0  0  0  0  0  0  0  0  0
  -22.9874  -18.4867   21.2205 F   0  0  0  0  0  0  0  0  0  0  0  0
  1  2  1  0  0  0  0
  1  5  2  0  0  0  0
  2  6  2  0  0  0  0
  3  9  2  0  0  0  0
  3 17  1  0  0  0  0
  4 10  1  0  0  0  0
  4 17  2  0  0  0  0
  5 19  1  0  0  0  0
  6 21  1  0  0  0  0
  7 11  2  0  0  0  0
  7 20  1  0  0  0  0
  8 13  2  0  0  0  0
  8 23  1  0  0  0  0
  9 25  1  0  0  0  0
 10 25  2  0  0  0  0
 11 26  1  0  0  0  0
 12 14  2  0  0  0  0
 12 27  1  0  0  0  0
 13 29  1  0  0  0  0
 14 28  1  0  0  0  0
 15 22  1  0  0  0  0
 15 26  2  0  0  0  0
 16 28  2  0  0  0  0
 16 30  1  0  0  0  0
 17 32  1  0  0  0  0
 18 32  1  0  0  0  0
 18 33  2  0  0  0  0
 18 34  1  0  0  0  0
 19 21  2  0  0  0  0
 19 40  1  0  0  0  0
 20 22  2  0  0  0  0
 20 41  1  0  0  0  0
 21 49  1  0  0  0  0
 22 42  1  0  0  0  0
 23 31  2  0  0  0  0
 23 57  1  0  0  0  0
 24 29  2  0  0  0  0
 24 31  1  0  0  0  0
 24 68  1  0  0  0  0
 25 79  1  0  0  0  0
 26 80  1  0  0  0  0
 27 30  2  0  0  0  0
 27 79  1  0  0  0  0
 28 81  1  0  0  0  0
 29 82  1  0  0  0  0
 30 83  1  0  0  0  0
 31 84  1  0  0  0  0
 32 62  2  0  0  0  0
 33 63  1  0  0  0  0
 33 66  1  0  0  0  0
 34 67  1  0  0  0  0
 34 73  2  0  0  0  0
 35 50  1  0  0  0  0
 35 69  1  0  0  0  0
 35 74  2  0  0  0  0
 36 59  1  0  0  0  0
 36 64  1  0  0  0  0
 36 75  2  0  0  0  0
 37 58  1  0  0  0  0
 37 70  1  0  0  0  0
 37 76  2  0  0  0  0
 38 60  1  0  0  0  0
 38 71  1  0  0  0  0
 38 77  2  0  0  0  0
 39 65  1  0  0  0  0
 39 68  1  0  0  0  0
 39 78  2  0  0  0  0
 40 43  1  0  0  0  0
 41 50  1  0  0  0  0
 42 64  1  0  0  0  0
 43 45  1  0  0  0  0
 44 46  1  0  0  0  0
 44 47  1  0  0  0  0
 45 49  1  0  0  0  0
 46 51  1  0  0  0  0
 47 65  1  0  0  0  0
 48 51  1  0  0  0  0
 48 65  1  0  0  0  0
 49 69  1  0  0  0  0
 50 64  1  0  0  0  0
 51 63  1  0  0  0  0
 52 60  1  0  0  0  0
 53 61  1  0  0  0  0
 54 61  1  0  0  0  0
 55 61  1  0  0  0  0
 56 72  1  0  0  0  0
 57 70  1  0  0  0  0
 58 80  1  0  0  0  0
 59 61  1  0  0  0  0
 59 71  1  0  0  0  0
 60 72  1  0  0  0  0
 62 63  1  0  0  0  0
M  CHG  1  72   1
M  ISO  4  39 100  58 101  68 100  80 101
M  END
> <Batch ID>
0014

> <Smiles>
CNC(C)C(=O)NC(C(=O)N1Cc2cc([101O:1][101CH2:1]C(=O)NCc3ccc(F)c([100NH:0][100C:0](=O)N4CCCC(n5nc(-c6ccc(Oc7ccc(F)cc7F)cc6)c(C(N)=O)c5N)C4)c3F)ccc2CC1C(=O)NC1CCCc2ccccc21)C(C)(C)C

> <Shape>
0.240

> <Color>
0.102

> <Negative vol penalty>
0.000

$$$$

  -OEChem-04052315533D

 85 93  0     1  0  0  0  0  0999 V2000
  -30.8995  -11.6762   19.7627 C   0  0  0  0  0  0  0  0  0  0  0  0
  -30.6454  -13.0259   19.5408 C   0  0  0  0  0  0  0  0  0  0  0  0
  -20.0337  -28.6083   23.2655 C   0  0  0  0  0  0  0  0  0  0  0  0
  -21.1614  -26.4771   23.1131 C   0  0  0  0  0  0  0  0  0  0  0  0
  -29.8407  -10.7946   19.9758 C   0  0  0  0  0  0  0  0  0  0  0  0
  -29.3321  -13.4945   19.5309 C   0  0  0  0  0  0  0  0  0  0  0  0
  -28.7826  -17.7906   22.1552 C   0  0  0  0  0  0  0  0  0  0  0  0
  -18.8565  -28.0183   22.8055 C   0  0  0  0  0  0  0  0  0  0  0  0
  -19.9842  -25.8871   22.6530 C   0  0  0  0  0  0  0  0  0  0  0  0
  -29.2005  -18.9701   21.5405 C   0  0  0  0  0  0  0  0  0  0  0  0
  -17.0829  -24.7628   23.9719 C   0  0  0  0  0  0  0  0  0  0  0  0
  -16.7137  -23.5377   24.5273 C   0  0  0  0  0  0  0  0  0  0  0  0
  -26.9137  -19.4687   20.9563 C   0  0  0  0  0  0  0  0  0  0  0  0
  -29.7438  -27.6577   19.2763 C   0  0  0  0  0  0  0  0  0  0  0  0
  -30.4198  -25.3648   18.9263 C   0  0  0  0  0  0  0  0  0  0  0  0
  -16.8106  -22.5167   22.3398 C   0  0  0  0  0  0  0  0  0  0  0  0
  -21.1862  -27.8377   23.4193 C   0  0  0  0  0  0  0  0  0  0  0  0
  -22.8241  -28.5739   25.2311 C   0  0  0  0  0  0  0  0  0  0  0  0
  -28.5143  -11.2543   19.9781 C   0  0  0  0  0  0  0  0  0  0  0  0
  -27.4261  -17.4353   22.1656 C   0  0  0  0  0  0  0  0  0  0  0  0
  -28.2545  -12.6180   19.7429 C   0  0  0  0  0  0  0  0  0  0  0  0
  -26.4809  -18.2854   21.5740 C   0  0  0  0  0  0  0  0  0  0  0  0
  -30.4678  -26.7084   18.5549 C   0  0  0  0  0  0  0  0  0  0  0  0
  -28.9719  -27.2633   20.3692 C   0  0  0  0  0  0  0  0  0  0  0  0
  -29.6478  -24.9704   20.0191 C   0  0  0  0  0  0  0  0  0  0  0  0
  -18.8317  -26.6577   22.4992 C   0  0  0  0  0  0  0  0  0  0  0  0
  -28.2664  -19.8079   20.9384 C   0  0  0  0  0  0  0  0  0  0  0  0
  -17.3159  -24.8648   22.6003 C   0  0  0  0  0  0  0  0  0  0  0  0
  -16.5776  -22.4147   23.7113 C   0  0  0  0  0  0  0  0  0  0  0  0
  -17.1797  -23.7418   21.7843 C   0  0  0  0  0  0  0  0  0  0  0  0
  -28.9239  -25.9197   20.7406 C   0  0  0  0  0  0  0  0  0  0  0  0
  -22.4027  -28.4467   23.8940 C   0  0  0  0  0  0  0  0  0  0  0  0
  -24.0340  -29.2189   25.1499 C   0  0  0  0  0  0  0  0  0  0  0  0
  -22.1797  -28.1470   26.4387 C   0  0  0  0  0  0  0  0  0  0  0  0
  -25.7344  -15.0070   21.0056 C   0  0  0  0  0  0  0  0  0  0  0  0
  -23.3138  -16.4227   22.6362 C   0  0  0  0  0  0  0  0  0  0  0  0
  -22.0202  -19.2659   24.0110 C   0  0  0  0  0  0  0  0  0  0  0  0
  -28.1758  -29.6024   20.8600 C   0  0  0  0  0  0  0  0  0  0  0  0
  -27.4001  -10.2554   20.1662 C   0  0  0  0  0  0  0  0  0  0  0  0
  -26.9884  -16.1728   22.8561 C   0  0  0  0  0  0  0  0  0  0  0  0
  -25.0104  -17.9596   21.5756 C   0  0  0  0  0  0  0  0  0  0  0  0
  -26.0589  -10.8969   20.5124 C   0  0  0  0  0  0  0  0  0  0  0  0
  -26.4537  -32.3086   22.4053 C   0  0  0  0  0  0  0  0  0  0  0  0
  -25.7783  -12.0787   19.5897 C   0  0  0  0  0  0  0  0  0  0  0  0
  -25.2611  -31.6362   23.0892 C   0  0  0  0  0  0  0  0  0  0  0  0
  -26.7846  -31.6511   21.0667 C   0  0  0  0  0  0  0  0  0  0  0  0
  -25.7847  -29.5238   21.8044 C   0  0  0  0  0  0  0  0  0  0  0  0
  -26.8450  -13.1687   19.7494 C   0  0  1  0  0  0  0  0  0  0  0  0
  -25.6425  -15.6551   22.3581 C   0  0  1  0  0  0  0  0  0  0  0  0
  -25.4543  -30.1102   23.1866 C   0  0  2  0  0  0  0  0  0  0  0  0
  -20.0074  -20.1188   25.2432 C   0  0  0  0  0  0  0  0  0  0  0  0
  -21.7148  -16.3962   20.0377 C   0  0  0  0  0  0  0  0  0  0  0  0
  -20.1561  -18.0669   21.0612 C   0  0  0  0  0  0  0  0  0  0  0  0
  -20.3978  -15.8023   22.0791 C   0  0  0  0  0  0  0  0  0  0  0  0
  -23.6442  -20.0471   26.3586 C   0  0  0  0  0  0  0  0  0  0  0  0
  -30.3207  -22.5897   19.6943 C   0  0  0  0  0  0  0  0  0  0  0  0
  -30.0691  -21.2474   20.3604 C   0  0  0  0  0  0  0  0  0  1  0  0
  -22.2795  -17.4743   22.3146 C   0  0  1  0  0  0  0  0  0  0  0  0
  -21.4066  -19.5373   25.3727 C   0  0  2  0  0  0  0  0  0  0  0  0
  -31.2923  -27.1289   17.3853 C   0  0  0  0  0  0  0  0  0  0  0  0
  -21.1649  -16.9404   21.3712 C   0  0  0  0  0  0  0  0  0  0  0  0
  -23.2739  -28.9692   23.0268 N   0  0  0  0  0  0  0  0  0  0  0  0
  -24.2549  -29.4310   23.8209 N   0  0  0  0  0  0  0  0  0  0  0  0
  -24.6328  -16.7109   22.2580 N   0  0  0  0  0  0  0  0  0  0  0  0
  -26.9580  -30.2069   21.2373 N   0  0  0  0  0  0  0  0  0  0  0  0
  -24.9198  -29.6198   26.0865 N   0  0  0  0  0  0  0  0  0  0  0  0
  -20.9406  -27.4991   26.3417 N   0  0  0  0  0  0  0  0  0  0  0  0
  -28.2367  -28.2300   21.0991 N   0  0  0  0  0  0  0  0  0  0  0  0
  -29.6023  -23.6355   20.3858 N   0  0  0  0  0  0  0  0  0  0  0  0
  -26.6066  -13.9366   20.9527 N   0  0  0  0  0  0  0  0  0  0  0  0
  -21.7904  -17.9711   23.5962 N   0  0  0  0  0  0  0  0  0  0  0  0
  -22.2474  -20.5018   26.1368 N   0  3  0  0  0  0  0  0  0  0  0  0
  -22.6798  -28.3491   27.5712 O   0  0  0  0  0  0  0  0  0  0  0  0
  -25.0625  -15.4448   20.0790 O   0  0  0  0  0  0  0  0  0  0  0  0
  -22.9654  -15.3870   23.2085 O   0  0  0  0  0  0  0  0  0  0  0  0
  -22.6381  -20.1183   23.3769 O   0  0  0  0  0  0  0  0  0  0  0  0
  -29.1069  -30.2590   20.3867 O   0  0  0  0  0  0  0  0  0  0  0  0
  -17.6831  -26.0816   22.0505 O   0  0  0  0  0  0  0  0  0  0  0  0
  -28.6717  -20.9595   20.3371 O   0  0  0  0  0  0  0  0  0  1  0  0
  -16.2246  -21.2380   24.2451 F   0  0  0  0  0  0  0  0  0  0  0  0
  -17.4034  -23.8334   20.4662 F   0  0  0  0  0  0  0  0  0  0  0  0
  -28.1813  -25.5399   21.7917 F   0  0  0  0  0  0  0  0  0  0  0  0
  -31.2447  -28.4711   17.1362 F   0  0  0  0  0  0  0  0  0  0  0  0
  -32.6202  -26.8387   17.5200 F   0  0  0  0  0  0  0  0  0  0  0  0
  -30.9019  -26.5271   16.2242 F   0  0  0  0  0  0  0  0  0  0  0  0
  1  2  1  0  0  0  0
  1  5  2  0  0  0  0
  2  6  2  0  0  0  0
  3  8  2  0  0  0  0
  3 17  1  0  0  0  0
  4  9  1  0  0  0  0
  4 17  2  0  0  0  0
  5 19  1  0  0  0  0
  6 21  1  0  0  0  0
  7 10  2  0  0  0  0
  7 20  1  0  0  0  0
  8 26  1  0  0  0  0
  9 26  2  0  0  0  0
 10 27  1  0  0  0  0
 11 12  2  0  0  0  0
 11 28  1  0  0  0  0
 12 29  1  0  0  0  0
 13 22  1  0  0  0  0
 13 27  2  0  0  0  0
 14 23  1  0  0  0  0
 14 24  2  0  0  0  0
 15 23  2  0  0  0  0
 15 25  1  0  0  0  0
 16 29  2  0  0  0  0
 16 30  1  0  0  0  0
 17 32  1  0  0  0  0
 18 32  1  0  0  0  0
 18 33  2  0  0  0  0
 18 34  1  0  0  0  0
 19 21  2  0  0  0  0
 19 39  1  0  0  0  0
 20 22  2  0  0  0  0
 20 40  1  0  0  0  0
 21 48  1  0  0  0  0
 22 41  1  0  0  0  0
 23 60  1  0  0  0  0
 24 31  1  0  0  0  0
 24 68  1  0  0  0  0
 25 31  2  0  0  0  0
 25 69  1  0  0  0  0
 26 78  1  0  0  0  0
 27 79  1  0  0  0  0
 28 30  2  0  0  0  0
 28 78  1  0  0  0  0
 29 80  1  0  0  0  0
 30 81  1  0  0  0  0
 31 82  1  0  0  0  0
 32 62  2  0  0  0  0
 33 63  1  0  0  0  0
 33 66  1  0  0  0  0
 34 67  1  0  0  0  0
 34 73  2  0  0  0  0
 35 49  1  0  0  0  0
 35 70  1  0  0  0  0
 35 74  2  0  0  0  0
 36 58  1  0  0  0  0
 36 64  1  0  0  0  0
 36 75  2  0  0  0  0
 37 59  1  0  0  0  0
 37 71  1  0  0  0  0
 37 76  2  0  0  0  0
 38 65  1  0  0  0  0
 38 68  1  0  0  0  0
 38 77  2  0  0  0  0
 39 42  1  0  0  0  0
 40 49  1  0  0  0  0
 41 64  1  0  0  0  0
 42 44  1  0  0  0  0
 43 45  1  0  0  0  0
 43 46  1  0  0  0  0
 44 48  1  0  0  0  0
 45 50  1  0  0  0  0
 46 65  1  0  0  0  0
 47 50  1  0  0  0  0
 47 65  1  0  0  0  0
 48 70  1  0  0  0  0
 49 64  1  0  0  0  0
 50 63  1  0  0  0  0
 51 59  1  0  0  0  0
 52 61  1  0  0  0  0
 53 61  1  0  0  0  0
 54 61  1  0  0  0  0
 55 72  1  0  0  0  0
 56 57  1  0  0  0  0
 56 69  1  0  0  0  0
 57 79  1  0  0  0  0
 58 61  1  0  0  0  0
 58 71  1  0  0  0  0
 59 72  1  0  0  0  0
 60 83  1  0  0  0  0
 60 84  1  0  0  0  0
 60 85  1  0  0  0  0
 62 63  1  0  0  0  0
M  CHG  1  72   1
M  ISO  4  38 100  57 101  68 100  79 101
M  END
> <Batch ID>
0014

> <Smiles>
CNC(C)C(=O)NC(C(=O)N1Cc2cc([101O:1][101CH2:1]CNc3cc(C(F)(F)F)cc([100NH:0][100C:0](=O)N4CCCC(n5nc(-c6ccc(Oc7ccc(F)cc7F)cc6)c(C(N)=O)c5N)C4)c3F)ccc2CC1C(=O)NC1CCCc2ccccc21)C(C)(C)C

> <Shape>
0.241

> <Color>
0.060

> <Negative vol penalty>
0.000

$$$$

  -OEChem-04052315533D

 88 96  0     1  0  0  0  0  0999 V2000
  -24.1381  -20.2498   21.2430 C   0  0  0  0  0  0  0  0  0  0  0  0
  -25.2794  -20.1803   22.0354 C   0  0  0  0  0  0  0  0  0  0  0  0
  -23.0002   -9.8924   19.9845 C   0  0  0  0  0  0  0  0  0  0  0  0
  -23.7261   -9.9465   22.2883 C   0  0  0  0  0  0  0  0  0  0  0  0
  -23.7224  -21.4768   20.7276 C   0  0  0  0  0  0  0  0  0  0  0  0
  -26.0064  -21.3377   22.3119 C   0  0  0  0  0  0  0  0  0  0  0  0
  -27.3351  -21.6791   27.1867 C   0  0  0  0  0  0  0  0  0  0  0  0
  -22.2337   -8.7583   20.2527 C   0  0  0  0  0  0  0  0  0  0  0  0
  -22.9595   -8.8124   22.5564 C   0  0  0  0  0  0  0  0  0  0  0  0
  -28.4175  -20.9074   27.6071 C   0  0  0  0  0  0  0  0  0  0  0  0
  -23.2034   -5.4728   22.0891 C   0  0  0  0  0  0  0  0  0  0  0  0
  -23.7911   -4.4566   22.8424 C   0  0  0  0  0  0  0  0  0  0  0  0
  -29.8468  -22.8454   27.4645 C   0  0  0  0  0  0  0  0  0  0  0  0
  -32.4331  -17.1283   23.9315 C   0  0  0  0  0  0  0  0  0  0  0  0
  -22.0677   -4.7020   24.5178 C   0  0  0  0  0  0  0  0  0  0  0  0
  -23.7465  -10.4865   21.0023 C   0  0  0  0  0  0  0  0  0  0  0  0
  -24.1319  -13.0018   20.8227 C   0  0  0  0  0  0  0  0  0  0  0  0
  -24.4392  -22.6512   21.0058 C   0  0  0  0  0  0  0  0  0  0  0  0
  -27.5031  -23.0395   26.8910 C   0  0  0  0  0  0  0  0  0  0  0  0
  -25.6007  -22.5813   21.7986 C   0  0  0  0  0  0  0  0  0  0  0  0
  -28.7645  -23.6327   27.0430 C   0  0  0  0  0  0  0  0  0  0  0  0
  -31.8315  -18.3669   24.1536 C   0  0  0  0  0  0  0  0  0  0  0  0
  -30.0734  -17.7918   22.5994 C   0  0  0  0  0  0  0  0  0  0  0  0
  -30.6751  -16.5531   22.3773 C   0  0  0  0  0  0  0  0  0  0  0  0
  -22.2133   -8.2184   21.5386 C   0  0  0  0  0  0  0  0  0  0  0  0
  -29.6742  -21.4898   27.7434 C   0  0  0  0  0  0  0  0  0  0  0  0
  -22.0479   -6.1037   22.5501 C   0  0  0  0  0  0  0  0  0  0  0  0
  -23.2232   -4.0712   24.0568 C   0  0  0  0  0  0  0  0  0  0  0  0
  -21.4800   -5.7183   23.7645 C   0  0  0  0  0  0  0  0  0  0  0  0
  -30.6517  -18.6987   23.4876 C   0  0  0  0  0  0  0  0  0  0  0  0
  -31.8549  -16.2213   23.0433 C   0  0  0  0  0  0  0  0  0  0  0  0
  -24.5390  -11.6576   20.7259 C   0  0  0  0  0  0  0  0  0  0  0  0
  -25.2417  -13.7238   20.4570 C   0  0  0  0  0  0  0  0  0  0  0  0
  -22.8641  -13.5488   21.2089 C   0  0  0  0  0  0  0  0  0  0  0  0
  -27.1499  -24.8296   24.2882 C   0  0  0  0  0  0  0  0  0  0  0  0
  -27.7627  -27.2582   26.3494 C   0  0  0  0  0  0  0  0  0  0  0  0
  -29.1690  -28.2806   29.2861 C   0  0  0  0  0  0  0  0  0  0  0  0
  -30.7213  -14.6847   20.6881 C   0  0  0  0  0  0  0  0  0  0  0  0
  -23.9778  -23.9471   20.3873 C   0  0  0  0  0  0  0  0  0  0  0  0
  -26.3199  -23.8643   26.4642 C   0  0  0  0  0  0  0  0  0  0  0  0
  -28.9933  -25.0938   26.7577 C   0  0  0  0  0  0  0  0  0  0  0  0
  -24.5927  -25.1846   21.0361 C   0  0  0  0  0  0  0  0  0  0  0  0
  -29.6021  -12.2287   18.3659 C   0  0  0  0  0  0  0  0  0  0  0  0
  -26.0964  -25.0020   21.2153 C   0  0  0  0  0  0  0  0  0  0  0  0
  -28.1516  -11.9718   18.7808 C   0  0  0  0  0  0  0  0  0  0  0  0
  -30.5030  -12.4737   19.5750 C   0  0  0  0  0  0  0  0  0  0  0  0
  -28.5881  -13.2646   20.9080 C   0  0  0  0  0  0  0  0  0  0  0  0
  -26.4020  -23.8185   22.1413 C   0  0  1  0  0  0  0  0  0  0  0  0
  -26.7141  -25.1220   25.6961 C   0  0  1  0  0  0  0  0  0  0  0  0
  -27.6301  -13.0767   19.7204 C   0  0  2  0  0  0  0  0  0  0  0  0
  -29.5413  -30.3318   30.6829 C   0  0  0  0  0  0  0  0  0  0  0  0
  -33.1156  -19.1429   28.8086 C   0  0  0  0  0  0  0  0  0  0  0  0
  -29.9707  -28.1527   24.4429 C   0  0  0  0  0  0  0  0  0  0  0  0
  -30.8977  -29.5653   26.2903 C   0  0  0  0  0  0  0  0  0  0  0  0
  -28.6081  -30.0145   25.4080 C   0  0  0  0  0  0  0  0  0  0  0  0
  -27.6327  -27.1574   31.5527 C   0  0  0  0  0  0  0  0  0  0  0  0
  -32.4560  -19.3402   25.1095 C   0  0  0  0  0  0  0  0  0  0  0  0
  -32.0225  -21.1199   27.6767 C   0  0  0  0  0  0  0  0  0  1  0  0
  -29.0077  -27.9633   26.8309 C   0  0  1  0  0  0  0  0  0  0  0  0
  -28.6316  -29.1433   30.4136 C   0  0  2  0  0  0  0  0  0  0  0  0
  -32.9104  -19.8930   27.5025 C   0  0  2  0  0  0  0  0  0  0  0  0
  -28.8090  -18.1741   21.8996 C   0  0  0  0  0  0  0  0  0  0  0  0
  -29.6175  -28.8959   25.7466 C   0  0  0  0  0  0  0  0  0  0  0  0
  -25.8081  -11.5305   20.3295 N   0  0  0  0  0  0  0  0  0  0  0  0
  -26.2082  -12.8040   20.1740 N   0  0  0  0  0  0  0  0  0  0  0  0
  -27.8064  -25.8568   26.3373 N   0  0  0  0  0  0  0  0  0  0  0  0
  -29.9483  -13.5359   20.4170 N   0  0  0  0  0  0  0  0  0  0  0  0
  -25.4752  -15.0493   20.3531 N   0  0  0  0  0  0  0  0  0  0  0  0
  -21.8324  -12.6652   21.5539 N   0  0  0  0  0  0  0  0  0  0  0  0
  -30.0773  -15.6410   21.4725 N   0  0  0  0  0  0  0  0  0  0  0  0
  -26.1919  -24.1911   23.5239 N   0  0  0  0  0  0  0  0  0  0  0  0
  -28.6385  -28.6452   28.0667 N   0  0  0  0  0  0  0  0  0  0  0  0
  -28.5174  -28.3454   31.6671 N   0  3  0  0  0  0  0  0  0  0  0  0
  -32.2550  -18.9681   26.5330 N   0  3  0  0  0  0  0  0  0  0  0  0
  -22.6475  -14.7842   21.2310 O   0  0  0  0  0  0  0  0  0  0  0  0
  -28.2717  -25.1600   23.9219 O   0  0  0  0  0  0  0  0  0  0  0  0
  -26.7849  -27.9260   26.0038 O   0  0  0  0  0  0  0  0  0  0  0  0
  -29.9811  -27.3763   29.4683 O   0  0  0  0  0  0  0  0  0  0  0  0
  -31.8598  -14.8229   20.2335 O   0  0  0  0  0  0  0  0  0  0  0  0
  -21.4652   -7.1119   21.8007 O   0  0  0  0  0  0  0  0  0  0  0  0
  -30.7325  -20.7387   28.1530 O   0  0  0  0  0  0  0  0  0  1  0  0
  -23.7868   -3.0942   24.7794 F   0  0  0  0  0  0  0  0  0  0  0  0
  -20.3693   -6.3198   24.2120 F   0  0  0  0  0  0  0  0  0  0  0  0
  -30.0741  -19.8903   23.7020 F   0  0  0  0  0  0  0  0  0  0  0  0
  -28.3396  -17.2080   21.0578 F   0  0  0  0  0  0  0  0  0  0  0  0
  -27.7765  -18.4413   22.7506 F   0  0  0  0  0  0  0  0  0  0  0  0
  -28.9547  -19.2924   21.1331 F   0  0  0  0  0  0  0  0  0  0  0  0
  -32.6359  -14.6989   22.8000 Cl  0  0  0  0  0  0  0  0  0  0  0  0
  1  2  1  0  0  0  0
  1  5  2  0  0  0  0
  2  6  2  0  0  0  0
  3  8  2  0  0  0  0
  3 16  1  0  0  0  0
  4  9  1  0  0  0  0
  4 16  2  0  0  0  0
  5 18  1  0  0  0  0
  6 20  1  0  0  0  0
  7 10  2  0  0  0  0
  7 19  1  0  0  0  0
  8 25  1  0  0  0  0
  9 25  2  0  0  0  0
 10 26  1  0  0  0  0
 11 12  2  0  0  0  0
 11 27  1  0  0  0  0
 12 28  1  0  0  0  0
 13 21  1  0  0  0  0
 13 26  2  0  0  0  0
 14 22  1  0  0  0  0
 14 31  2  0  0  0  0
 15 28  2  0  0  0  0
 15 29  1  0  0  0  0
 16 32  1  0  0  0  0
 17 32  1  0  0  0  0
 17 33  2  0  0  0  0
 17 34  1  0  0  0  0
 18 20  2  0  0  0  0
 18 39  1  0  0  0  0
 19 21  2  0  0  0  0
 19 40  1  0  0  0  0
 20 48  1  0  0  0  0
 21 41  1  0  0  0  0
 22 30  2  0  0  0  0
 22 57  1  0  0  0  0
 23 24  2  0  0  0  0
 23 30  1  0  0  0  0
 23 62  1  0  0  0  0
 24 31  1  0  0  0  0
 24 70  1  0  0  0  0
 25 80  1  0  0  0  0
 26 81  1  0  0  0  0
 27 29  2  0  0  0  0
 27 80  1  0  0  0  0
 28 82  1  0  0  0  0
 29 83  1  0  0  0  0
 30 84  1  0  0  0  0
 31 88  1  0  0  0  0
 32 64  2  0  0  0  0
 33 65  1  0  0  0  0
 33 68  1  0  0  0  0
 34 69  1  0  0  0  0
 34 75  2  0  0  0  0
 35 49  1  0  0  0  0
 35 71  1  0  0  0  0
 35 76  2  0  0  0  0
 36 59  1  0  0  0  0
 36 66  1  0  0  0  0
 36 77  2  0  0  0  0
 37 60  1  0  0  0  0
 37 72  1  0  0  0  0
 37 78  2  0  0  0  0
 38 67  1  0  0  0  0
 38 70  1  0  0  0  0
 38 79  2  0  0  0  0
 39 42  1  0  0  0  0
 40 49  1  0  0  0  0
 41 66  1  0  0  0  0
 42 44  1  0  0  0  0
 43 45  1  0  0  0  0
 43 46  1  0  0  0  0
 44 48  1  0  0  0  0
 45 50  1  0  0  0  0
 46 67  1  0  0  0  0
 47 50  1  0  0  0  0
 47 67  1  0  0  0  0
 48 71  1  0  0  0  0
 49 66  1  0  0  0  0
 50 65  1  0  0  0  0
 51 60  1  0  0  0  0
 52 61  1  0  0  0  0
 53 63  1  0  0  0  0
 54 63  1  0  0  0  0
 55 63  1  0  0  0  0
 56 73  1  0  0  0  0
 57 74  1  0  0  0  0
 58 61  1  0  0  0  0
 58 81  1  0  0  0  0
 59 63  1  0  0  0  0
 59 72  1  0  0  0  0
 60 73  1  0  0  0  0
 61 74  1  0  0  0  0
 62 85  1  0  0  0  0
 62 86  1  0  0  0  0
 62 87  1  0  0  0  0
 64 65  1  0  0  0  0
M  CHG  2  73   1  74   1
M  ISO  4  38 100  58 101  70 100  81 101
M  END
> <Batch ID>
0014

> <Smiles>
CNC(C)C(=O)NC(C(=O)N1Cc2cc([101O:1][101CH2:1]C(C)NCc3cc(Cl)c([100NH:0][100C:0](=O)N4CCCC(n5nc(-c6ccc(Oc7ccc(F)cc7F)cc6)c(C(N)=O)c5N)C4)c(C(F)(F)F)c3F)ccc2CC1C(=O)NC1CCCc2ccccc21)C(C)(C)C

> <Shape>
0.192

> <Color>
0.198

> <Negative vol penalty>
0.000

$$$$

  -OEChem-04052315533D

 89 97  0     1  0  0  0  0  0999 V2000
  -22.7225  -22.6725   20.6772 C   0  0  0  0  0  0  0  0  0  0  0  0
  -23.6069  -21.9552   21.4764 C   0  0  0  0  0  0  0  0  0  0  0  0
  -23.0768   -9.8664   19.9426 C   0  0  0  0  0  0  0  0  0  0  0  0
  -23.8342   -9.8778   22.2368 C   0  0  0  0  0  0  0  0  0  0  0  0
  -22.9753  -24.0130   20.3891 C   0  0  0  0  0  0  0  0  0  0  0  0
  -24.7453  -22.5778   21.9870 C   0  0  0  0  0  0  0  0  0  0  0  0
  -27.3884  -21.5400   27.4132 C   0  0  0  0  0  0  0  0  0  0  0  0
  -22.3327   -8.7137   20.1939 C   0  0  0  0  0  0  0  0  0  0  0  0
  -23.0900   -8.7251   22.4881 C   0  0  0  0  0  0  0  0  0  0  0  0
  -28.4847  -20.7653   27.7896 C   0  0  0  0  0  0  0  0  0  0  0  0
  -19.8613   -7.9283   23.0886 C   0  0  0  0  0  0  0  0  0  0  0  0
  -19.1030   -7.8905   24.2588 C   0  0  0  0  0  0  0  0  0  0  0  0
  -29.8953  -22.7191   27.6807 C   0  0  0  0  0  0  0  0  0  0  0  0
  -30.6596  -18.7056   23.5646 C   0  0  0  0  0  0  0  0  0  0  0  0
  -32.4595  -17.1349   23.9255 C   0  0  0  0  0  0  0  0  0  0  0  0
  -20.3437   -5.9546   25.0003 C   0  0  0  0  0  0  0  0  0  0  0  0
  -23.8276  -10.4485   20.9640 C   0  0  0  0  0  0  0  0  0  0  0  0
  -24.1694  -12.9734   20.8395 C   0  0  0  0  0  0  0  0  0  0  0  0
  -24.1124  -24.6550   20.9043 C   0  0  0  0  0  0  0  0  0  0  0  0
  -27.5398  -22.9103   27.1566 C   0  0  0  0  0  0  0  0  0  0  0  0
  -25.0144  -23.9278   21.7044 C   0  0  0  0  0  0  0  0  0  0  0  0
  -28.7989  -23.5096   27.3036 C   0  0  0  0  0  0  0  0  0  0  0  0
  -31.8544  -18.3620   24.1972 C   0  0  0  0  0  0  0  0  0  0  0  0
  -30.0699  -17.8222   22.6605 C   0  0  0  0  0  0  0  0  0  0  0  0
  -30.6751  -16.5951   22.3888 C   0  0  0  0  0  0  0  0  0  0  0  0
  -22.3393   -8.1431   21.4667 C   0  0  0  0  0  0  0  0  0  0  0  0
  -29.7389  -21.3542   27.9207 C   0  0  0  0  0  0  0  0  0  0  0  0
  -20.8607   -6.9791   22.8742 C   0  0  0  0  0  0  0  0  0  0  0  0
  -31.8698  -16.2515   23.0214 C   0  0  0  0  0  0  0  0  0  0  0  0
  -19.3443   -6.9037   25.2146 C   0  0  0  0  0  0  0  0  0  0  0  0
  -21.1019   -5.9923   23.8301 C   0  0  0  0  0  0  0  0  0  0  0  0
  -24.5969  -11.6389   20.7048 C   0  0  0  0  0  0  0  0  0  0  0  0
  -25.2619  -13.7222   20.4760 C   0  0  0  0  0  0  0  0  0  0  0  0
  -22.8984  -13.4899   21.2561 C   0  0  0  0  0  0  0  0  0  0  0  0
  -27.1235  -24.7763   24.6172 C   0  0  0  0  0  0  0  0  0  0  0  0
  -27.7548  -27.1457   26.7408 C   0  0  0  0  0  0  0  0  0  0  0  0
  -29.2071  -28.0897   29.6813 C   0  0  0  0  0  0  0  0  0  0  0  0
  -30.7278  -14.7685   20.6548 C   0  0  0  0  0  0  0  0  0  0  0  0
  -24.3682  -26.0925   20.5265 C   0  0  0  0  0  0  0  0  0  0  0  0
  -26.3421  -23.7375   26.7774 C   0  0  0  0  0  0  0  0  0  0  0  0
  -29.0104  -24.9807   27.0594 C   0  0  0  0  0  0  0  0  0  0  0  0
  -25.4018  -26.7810   21.4142 C   0  0  0  0  0  0  0  0  0  0  0  0
  -29.6162  -12.3501   18.2899 C   0  0  0  0  0  0  0  0  0  0  0  0
  -26.6244  -25.8881   21.6011 C   0  0  0  0  0  0  0  0  0  0  0  0
  -28.1761  -12.0592   18.7184 C   0  0  0  0  0  0  0  0  0  0  0  0
  -30.5300  -12.5812   19.4921 C   0  0  0  0  0  0  0  0  0  0  0  0
  -28.6214  -13.3082   20.8699 C   0  0  0  0  0  0  0  0  0  0  0  0
  -26.2473  -24.5748   22.2972 C   0  0  1  0  0  0  0  0  0  0  0  0
  -26.7116  -25.0216   26.0413 C   0  0  1  0  0  0  0  0  0  0  0  0
  -27.6499  -13.1327   19.6913 C   0  0  2  0  0  0  0  0  0  0  0  0
  -32.6122  -12.7489   23.3921 C   0  0  0  0  0  0  0  0  0  0  0  0
  -29.5887  -30.1003   31.1336 C   0  0  0  0  0  0  0  0  0  0  0  0
  -33.2187  -19.0058   28.8495 C   0  0  0  0  0  0  0  0  0  0  0  0
  -27.6652  -18.4708   23.0195 C   0  0  0  0  0  0  0  0  0  0  0  0
  -28.9605  -19.4552   21.1001 C   0  0  0  0  0  0  0  0  0  0  0  0
  -29.9194  -28.1176   24.8225 C   0  0  0  0  0  0  0  0  0  0  0  0
  -30.8692  -29.4809   26.6953 C   0  0  0  0  0  0  0  0  0  0  0  0
  -28.5599  -29.9369   25.8695 C   0  0  0  0  0  0  0  0  0  0  0  0
  -27.7227  -26.8841   31.9400 C   0  0  0  0  0  0  0  0  0  0  0  0
  -32.4887  -19.3109   25.1710 C   0  0  0  0  0  0  0  0  0  0  0  0
  -32.6622  -14.1806   23.8813 C   0  0  0  0  0  0  0  0  0  0  0  0
  -32.0886  -21.0071   27.7994 C   0  0  0  0  0  0  0  0  0  1  0  0
  -29.0027  -27.8465   27.2209 C   0  0  1  0  0  0  0  0  0  0  0  0
  -28.6839  -28.9127   30.8446 C   0  0  2  0  0  0  0  0  0  0  0  0
  -32.9831  -19.7939   27.5712 C   0  0  2  0  0  0  0  0  0  0  0  0
  -28.7894  -18.2177   21.9993 C   0  0  0  0  0  0  0  0  0  0  0  0
  -29.5845  -28.8174   26.1549 C   0  0  0  0  0  0  0  0  0  0  0  0
  -25.8622  -11.5423   20.2881 N   0  0  0  0  0  0  0  0  0  0  0  0
  -26.2392  -12.8257   20.1578 N   0  0  0  0  0  0  0  0  0  0  0  0
  -27.8097  -25.7458   26.6846 N   0  0  0  0  0  0  0  0  0  0  0  0
  -29.9700  -13.6137   20.3669 N   0  0  0  0  0  0  0  0  0  0  0  0
  -25.4723  -15.0536   20.4007 N   0  0  0  0  0  0  0  0  0  0  0  0
  -21.8862  -12.5813   21.5940 N   0  0  0  0  0  0  0  0  0  0  0  0
  -30.0795  -15.6950   21.4707 N   0  0  0  0  0  0  0  0  0  0  0  0
  -26.0741  -24.7876   23.7182 N   0  0  0  0  0  0  0  0  0  0  0  0
  -28.6511  -28.4869   28.4837 N   0  0  0  0  0  0  0  0  0  0  0  0
  -28.5996  -28.0757   32.0748 N   0  3  0  0  0  0  0  0  0  0  0  0
  -32.3172  -18.8935   26.5858 N   0  3  0  0  0  0  0  0  0  0  0  0
  -22.6620  -14.7206   21.3108 O   0  0  0  0  0  0  0  0  0  0  0  0
  -28.3059  -24.5920   24.3534 O   0  0  0  0  0  0  0  0  0  0  0  0
  -26.7653  -27.8153   26.4340 O   0  0  0  0  0  0  0  0  0  0  0  0
  -30.0299  -27.1874   29.8205 O   0  0  0  0  0  0  0  0  0  0  0  0
  -31.8574  -14.9364   20.1881 O   0  0  0  0  0  0  0  0  0  0  0  0
  -21.6131   -7.0184   21.7124 O   0  0  0  0  0  0  0  0  0  0  0  0
  -30.8108  -20.6002   28.2874 O   0  0  0  0  0  0  0  0  0  1  0  0
  -32.4780  -15.0572   22.7720 O   0  0  0  0  0  0  0  0  0  0  0  0
  -18.6171   -6.8685   26.3390 F   0  0  0  0  0  0  0  0  0  0  0  0
  -22.0615   -5.0785   23.6303 F   0  0  0  0  0  0  0  0  0  0  0  0
  -28.2949  -17.2349   21.1614 F   0  0  0  0  0  0  0  0  0  0  0  0
  1  2  1  0  0  0  0
  1  5  2  0  0  0  0
  2  6  2  0  0  0  0
  3  8  2  0  0  0  0
  3 17  1  0  0  0  0
  4  9  1  0  0  0  0
  4 17  2  0  0  0  0
  5 19  1  0  0  0  0
  6 21  1  0  0  0  0
  7 10  2  0  0  0  0
  7 20  1  0  0  0  0
  8 26  1  0  0  0  0
  9 26  2  0  0  0  0
 10 27  1  0  0  0  0
 11 12  2  0  0  0  0
 11 28  1  0  0  0  0
 12 30  1  0  0  0  0
 13 22  1  0  0  0  0
 13 27  2  0  0  0  0
 14 23  1  0  0  0  0
 14 24  2  0  0  0  0
 15 23  2  0  0  0  0
 15 29  1  0  0  0  0
 16 30  2  0  0  0  0
 16 31  1  0  0  0  0
 17 32  1  0  0  0  0
 18 32  1  0  0  0  0
 18 33  2  0  0  0  0
 18 34  1  0  0  0  0
 19 21  2  0  0  0  0
 19 39  1  0  0  0  0
 20 22  2  0  0  0  0
 20 40  1  0  0  0  0
 21 48  1  0  0  0  0
 22 41  1  0  0  0  0
 23 60  1  0  0  0  0
 24 25  1  0  0  0  0
 24 66  1  0  0  0  0
 25 29  2  0  0  0  0
 25 74  1  0  0  0  0
 26 84  1  0  0  0  0
 27 85  1  0  0  0  0
 28 31  2  0  0  0  0
 28 84  1  0  0  0  0
 29 86  1  0  0  0  0
 30 87  1  0  0  0  0
 31 88  1  0  0  0  0
 32 68  2  0  0  0  0
 33 69  1  0  0  0  0
 33 72  1  0  0  0  0
 34 73  1  0  0  0  0
 34 79  2  0  0  0  0
 35 49  1  0  0  0  0
 35 75  1  0  0  0  0
 35 80  2  0  0  0  0
 36 63  1  0  0  0  0
 36 70  1  0  0  0  0
 36 81  2  0  0  0  0
 37 64  1  0  0  0  0
 37 76  1  0  0  0  0
 37 82  2  0  0  0  0
 38 71  1  0  0  0  0
 38 74  1  0  0  0  0
 38 83  2  0  0  0  0
 39 42  1  0  0  0  0
 40 49  1  0  0  0  0
 41 70  1  0  0  0  0
 42 44  1  0  0  0  0
 43 45  1  0  0  0  0
 43 46  1  0  0  0  0
 44 48  1  0  0  0  0
 45 50  1  0  0  0  0
 46 71  1  0  0  0  0
 47 50  1  0  0  0  0
 47 71  1  0  0  0  0
 48 75  1  0  0  0  0
 49 70  1  0  0  0  0
 50 69  1  0  0  0  0
 51 61  1  0  0  0  0
 52 64  1  0  0  0  0
 53 65  1  0  0  0  0
 54 66  1  0  0  0  0
 55 66  1  0  0  0  0
 56 67  1  0  0  0  0
 57 67  1  0  0  0  0
 58 67  1  0  0  0  0
 59 77  1  0  0  0  0
 60 78  1  0  0  0  0
 61 86  1  0  0  0  0
 62 65  1  0  0  0  0
 62 85  1  0  0  0  0
 63 67  1  0  0  0  0
 63 76  1  0  0  0  0
 64 77  1  0  0  0  0
 65 78  1  0  0  0  0
 66 89  1  0  0  0  0
 68 69  1  0  0  0  0
M  CHG  2  77   1  78   1
M  ISO  4  38 100  62 101  74 100  85 101
M  END
> <Batch ID>
0014

> <Smiles>
CCOc1cc(CNC(C)[101CH2:1][101O:1]c2ccc3c(c2)CN(C(=O)C(NC(=O)C(C)NC)C(C)(C)C)C(C(=O)NC2CCCc4ccccc42)C3)cc(C(C)(C)F)c1[100NH:0][100C:0](=O)N1CCCC(n2nc(-c3ccc(Oc4ccc(F)cc4F)cc3)c(C(N)=O)c2N)C1

> <Shape>
0.186

> <Color>
0.184

> <Negative vol penalty>
0.000

$$$$

  -OEChem-04052315533D

 85 93  0     1  0  0  0  0  0999 V2000
  -27.7846  -25.2527   16.4027 C   0  0  0  0  0  0  0  0  0  0  0  0
  -26.6127  -25.4514   17.1256 C   0  0  0  0  0  0  0  0  0  0  0  0
  -23.8750  -11.7290   20.7252 C   0  0  0  0  0  0  0  0  0  0  0  0
  -25.1437  -13.6457   21.4690 C   0  0  0  0  0  0  0  0  0  0  0  0
  -29.0032  -25.6919   16.9183 C   0  0  0  0  0  0  0  0  0  0  0  0
  -26.6589  -26.0885   18.3651 C   0  0  0  0  0  0  0  0  0  0  0  0
  -23.0094  -29.5578   18.9038 C   0  0  0  0  0  0  0  0  0  0  0  0
  -22.9351  -22.8133   19.0518 C   0  0  0  0  0  0  0  0  0  0  0  0
  -21.9764  -23.6914   19.5573 C   0  0  0  0  0  0  0  0  0  0  0  0
  -25.0615  -11.0322   20.4968 C   0  0  0  0  0  0  0  0  0  0  0  0
  -26.3303  -12.9489   21.2407 C   0  0  0  0  0  0  0  0  0  0  0  0
  -21.7282  -29.0936   19.1983 C   0  0  0  0  0  0  0  0  0  0  0  0
  -28.2684  -12.1294   18.5943 C   0  0  0  0  0  0  0  0  0  0  0  0
  -29.2986  -12.8018   17.9370 C   0  0  0  0  0  0  0  0  0  0  0  0
  -22.0736  -29.6337   21.5238 C   0  0  0  0  0  0  0  0  0  0  0  0
  -30.7337  -12.4762   19.8532 C   0  0  0  0  0  0  0  0  0  0  0  0
  -23.9161  -13.0358   21.2112 C   0  0  0  0  0  0  0  0  0  0  0  0
  -21.9405  -13.7911   22.6375 C   0  0  0  0  0  0  0  0  0  0  0  0
  -29.0632  -26.3433   18.1604 C   0  0  0  0  0  0  0  0  0  0  0  0
  -23.8378  -30.0541   19.9206 C   0  0  0  0  0  0  0  0  0  0  0  0
  -27.8797  -26.5356   18.8984 C   0  0  0  0  0  0  0  0  0  0  0  0
  -23.3640  -30.1059   21.2392 C   0  0  0  0  0  0  0  0  0  0  0  0
  -22.6394  -21.4561   18.9240 C   0  0  0  0  0  0  0  0  0  0  0  0
  -20.4264  -21.8551   19.8073 C   0  0  0  0  0  0  0  0  0  0  0  0
  -20.7221  -23.2123   19.9351 C   0  0  0  0  0  0  0  0  0  0  0  0
  -21.3850  -20.9770   19.3017 C   0  0  0  0  0  0  0  0  0  0  0  0
  -26.2892  -11.6421   20.7546 C   0  0  0  0  0  0  0  0  0  0  0  0
  -21.2611  -29.1289   20.5089 C   0  0  0  0  0  0  0  0  0  0  0  0
  -28.4707  -11.6304   19.8811 C   0  0  0  0  0  0  0  0  0  0  0  0
  -30.5312  -12.9752   18.5664 C   0  0  0  0  0  0  0  0  0  0  0  0
  -29.7034  -11.8038   20.5105 C   0  0  0  0  0  0  0  0  0  0  0  0
  -22.6907  -13.7563   21.4468 C   0  0  0  0  0  0  0  0  0  0  0  0
  -20.8757  -14.6092   22.3486 C   0  0  0  0  0  0  0  0  0  0  0  0
  -22.1844  -13.1421   23.8925 C   0  0  0  0  0  0  0  0  0  0  0  0
  -26.6526  -29.2106   21.1326 C   0  0  0  0  0  0  0  0  0  0  0  0
  -18.9830  -24.6738   19.5813 C   0  0  0  0  0  0  0  0  0  0  0  0
  -26.3124  -31.9609   22.8186 C   0  0  0  0  0  0  0  0  0  0  0  0
  -24.2193  -34.3230   24.1172 C   0  0  0  0  0  0  0  0  0  0  0  0
  -20.0723  -19.0239   18.4027 C   0  0  0  0  0  0  0  0  0  0  0  0
  -30.4098  -26.7581   18.6983 C   0  0  0  0  0  0  0  0  0  0  0  0
  -25.2074  -30.5758   19.5823 C   0  0  0  0  0  0  0  0  0  0  0  0
  -24.2064  -30.6481   22.3639 C   0  0  0  0  0  0  0  0  0  0  0  0
  -30.3246  -27.7587   19.8479 C   0  0  0  0  0  0  0  0  0  0  0  0
  -18.1420  -16.0456   18.6882 C   0  0  0  0  0  0  0  0  0  0  0  0
  -29.2813  -27.3128   20.8675 C   0  0  0  0  0  0  0  0  0  0  0  0
  -19.0185  -15.1260   19.5415 C   0  0  0  0  0  0  0  0  0  0  0  0
  -18.9757  -16.8971   17.7323 C   0  0  0  0  0  0  0  0  0  0  0  0
  -20.9345  -16.7420   19.2184 C   0  0  0  0  0  0  0  0  0  0  0  0
  -27.8859  -27.2447   20.2353 C   0  0  1  0  0  0  0  0  0  0  0  0
  -26.1559  -30.5834   20.7771 C   0  0  1  0  0  0  0  0  0  0  0  0
  -20.1441  -15.9115   20.2427 C   0  0  2  0  0  0  0  0  0  0  0  0
  -23.6876  -20.5411   18.3785 C   0  0  0  0  0  0  0  0  0  0  0  0
  -19.0790  -21.3463   20.2166 C   0  0  0  0  0  0  0  0  0  0  0  0
  -24.2311  -36.4311   25.4785 C   0  0  0  0  0  0  0  0  0  0  0  0
  -26.7867  -30.3219   25.3481 C   0  0  0  0  0  0  0  0  0  0  0  0
  -25.8613  -32.2322   26.6757 C   0  0  0  0  0  0  0  0  0  0  0  0
  -27.9294  -32.5462   25.3168 C   0  0  0  0  0  0  0  0  0  0  0  0
  -23.0217  -35.8915   21.9116 C   0  0  0  0  0  0  0  0  0  0  0  0
  -17.9176  -25.6403   20.0106 C   0  0  0  0  0  0  0  0  0  0  0  0
  -18.5172  -26.7983   20.7987 C   0  0  0  0  0  0  0  0  0  0  0  0
  -19.4906  -27.6333   19.9755 C   0  0  0  0  0  0  0  0  0  1  0  0
  -25.6984  -32.3315   24.1470 C   0  0  1  0  0  0  0  0  0  0  0  0
  -24.2643  -35.8399   24.0777 C   0  0  2  0  0  0  0  0  0  0  0  0
  -26.5536  -31.8459   25.3512 C   0  0  0  0  0  0  0  0  0  0  0  0
  -22.1484  -14.4935   20.4739 N   0  0  0  0  0  0  0  0  0  0  0  0
  -19.7714  -24.1130   20.4423 N   0  0  0  0  0  0  0  0  0  0  0  0
  -21.0460  -14.9991   21.0528 N   0  0  0  0  0  0  0  0  0  0  0  0
  -25.5407  -31.1405   21.9835 N   0  0  0  0  0  0  0  0  0  0  0  0
  -20.0190  -17.6154   18.4675 N   0  0  0  0  0  0  0  0  0  0  0  0
  -19.8196  -15.0257   23.0791 N   0  0  0  0  0  0  0  0  0  0  0  0
  -23.3250  -12.3374   24.0180 N   0  0  0  0  0  0  0  0  0  0  0  0
  -21.0864  -19.5983   19.1684 N   0  0  0  0  0  0  0  0  0  0  0  0
  -27.3238  -28.5721   20.1073 N   0  0  0  0  0  0  0  0  0  0  0  0
  -25.4842  -33.7741   24.1093 N   0  0  0  0  0  0  0  0  0  0  0  0
  -23.1004  -36.3729   23.3149 N   0  3  0  0  0  0  0  0  0  0  0  0
  -21.4049  -13.2588   24.8684 O   0  0  0  0  0  0  0  0  0  0  0  0
  -26.4438  -28.7643   22.2546 O   0  0  0  0  0  0  0  0  0  0  0  0
  -27.4323  -32.3895   22.5294 O   0  0  0  0  0  0  0  0  0  0  0  0
  -23.1674  -33.6886   24.1552 O   0  0  0  0  0  0  0  0  0  0  0  0
  -19.2599  -19.6742   17.7400 O   0  0  0  0  0  0  0  0  0  0  0  0
  -27.4472  -10.9623   20.5321 O   0  0  0  0  0  0  0  0  0  0  0  0
  -20.0112  -28.6759   20.7992 O   0  0  0  0  0  0  0  0  0  1  0  0
  -31.5210  -13.6196   17.9345 F   0  0  0  0  0  0  0  0  0  0  0  0
  -29.9041  -11.3256   21.7462 F   0  0  0  0  0  0  0  0  0  0  0  0
  -19.0859  -24.3944   18.2732 F   0  0  0  0  0  0  0  0  0  0  0  0
  1  2  1  0  0  0  0
  1  5  2  0  0  0  0
  2  6  2  0  0  0  0
  3 10  2  0  0  0  0
  3 17  1  0  0  0  0
  4 11  1  0  0  0  0
  4 17  2  0  0  0  0
  5 19  1  0  0  0  0
  6 21  1  0  0  0  0
  7 12  2  0  0  0  0
  7 20  1  0  0  0  0
  8  9  2  0  0  0  0
  8 23  1  0  0  0  0
  9 25  1  0  0  0  0
 10 27  1  0  0  0  0
 11 27  2  0  0  0  0
 12 28  1  0  0  0  0
 13 14  2  0  0  0  0
 13 29  1  0  0  0  0
 14 30  1  0  0  0  0
 15 22  1  0  0  0  0
 15 28  2  0  0  0  0
 16 30  2  0  0  0  0
 16 31  1  0  0  0  0
 17 32  1  0  0  0  0
 18 32  1  0  0  0  0
 18 33  2  0  0  0  0
 18 34  1  0  0  0  0
 19 21  2  0  0  0  0
 19 40  1  0  0  0  0
 20 22  2  0  0  0  0
 20 41  1  0  0  0  0
 21 49  1  0  0  0  0
 22 42  1  0  0  0  0
 23 26  2  0  0  0  0
 23 52  1  0  0  0  0
 24 25  2  0  0  0  0
 24 26  1  0  0  0  0
 24 53  1  0  0  0  0
 25 66  1  0  0  0  0
 26 72  1  0  0  0  0
 27 81  1  0  0  0  0
 28 82  1  0  0  0  0
 29 31  2  0  0  0  0
 29 81  1  0  0  0  0
 30 83  1  0  0  0  0
 31 84  1  0  0  0  0
 32 65  2  0  0  0  0
 33 67  1  0  0  0  0
 33 70  1  0  0  0  0
 34 71  1  0  0  0  0
 34 76  2  0  0  0  0
 35 50  1  0  0  0  0
 35 73  1  0  0  0  0
 35 77  2  0  0  0  0
 36 59  1  0  0  0  0
 36 66  2  0  0  0  0
 36 85  1  0  0  0  0
 37 62  1  0  0  0  0
 37 68  1  0  0  0  0
 37 78  2  0  0  0  0
 38 63  1  0  0  0  0
 38 74  1  0  0  0  0
 38 79  2  0  0  0  0
 39 69  1  0  0  0  0
 39 72  1  0  0  0  0
 39 80  2  0  0  0  0
 40 43  1  0  0  0  0
 41 50  1  0  0  0  0
 42 68  1  0  0  0  0
 43 45  1  0  0  0  0
 44 46  1  0  0  0  0
 44 47  1  0  0  0  0
 45 49  1  0  0  0  0
 46 51  1  0  0  0  0
 47 69  1  0  0  0  0
 48 51  1  0  0  0  0
 48 69  1  0  0  0  0
 49 73  1  0  0  0  0
 50 68  1  0  0  0  0
 51 67  1  0  0  0  0
 54 63  1  0  0  0  0
 55 64  1  0  0  0  0
 56 64  1  0  0  0  0
 57 64  1  0  0  0  0
 58 75  1  0  0  0  0
 59 60  1  0  0  0  0
 60 61  1  0  0  0  0
 61 82  1  0  0  0  0
 62 64  1  0  0  0  0
 62 74  1  0  0  0  0
 63 75  1  0  0  0  0
 65 67  1  0  0  0  0
M  CHG  1  75   1
M  ISO  4  39 100  61 101  72 100  82 101
M  END
> <Batch ID>
0014

> <Smiles>
CNC(C)C(=O)NC(C(=O)N1Cc2cc([101O:1][101CH2:1]CCC(F)=Nc3ccc(C)c([100NH:0][100C:0](=O)N4CCCC(n5nc(-c6ccc(Oc7ccc(F)cc7F)cc6)c(C(N)=O)c5N)C4)c3C)ccc2CC1C(=O)NC1CCCc2ccccc21)C(C)(C)C

> <Shape>
0.278

> <Color>
0.101

> <Negative vol penalty>
0.000

$$$$

  -OEChem-04052315533D

 86 94  0     1  0  0  0  0  0999 V2000
  -27.5214  -33.8653   26.4964 C   0  0  0  0  0  0  0  0  0  0  0  0
  -27.8063  -32.7113   25.7734 C   0  0  0  0  0  0  0  0  0  0  0  0
  -24.6198  -13.0735   21.7733 C   0  0  0  0  0  0  0  0  0  0  0  0
  -25.9322  -13.2064   19.7491 C   0  0  0  0  0  0  0  0  0  0  0  0
  -26.2026  -34.1682   26.8324 C   0  0  0  0  0  0  0  0  0  0  0  0
  -26.7725  -31.8590   25.3870 C   0  0  0  0  0  0  0  0  0  0  0  0
  -27.2041  -30.3387   20.5758 C   0  0  0  0  0  0  0  0  0  0  0  0
  -24.6778  -11.6809   21.7194 C   0  0  0  0  0  0  0  0  0  0  0  0
  -25.9901  -11.8138   19.6953 C   0  0  0  0  0  0  0  0  0  0  0  0
  -28.1272  -29.3289   20.3075 C   0  0  0  0  0  0  0  0  0  0  0  0
  -23.1443   -9.1881   20.0286 C   0  0  0  0  0  0  0  0  0  0  0  0
  -21.9638   -8.4818   20.2587 C   0  0  0  0  0  0  0  0  0  0  0  0
  -26.3380  -27.7114   20.2703 C   0  0  0  0  0  0  0  0  0  0  0  0
  -27.0242  -24.3559   15.9226 C   0  0  0  0  0  0  0  0  0  0  0  0
  -22.9921   -7.3782   22.1461 C   0  0  0  0  0  0  0  0  0  0  0  0
  -25.2470  -13.8363   20.7881 C   0  0  0  0  0  0  0  0  0  0  0  0
  -26.0925  -16.1395   21.4865 C   0  0  0  0  0  0  0  0  0  0  0  0
  -25.1512  -33.3242   26.4415 C   0  0  0  0  0  0  0  0  0  0  0  0
  -25.8400  -30.0402   20.7044 C   0  0  0  0  0  0  0  0  0  0  0  0
  -25.4385  -32.1502   25.7192 C   0  0  0  0  0  0  0  0  0  0  0  0
  -25.3992  -28.7196   20.5378 C   0  0  0  0  0  0  0  0  0  0  0  0
  -25.9755  -23.6949   15.2832 C   0  0  0  0  0  0  0  0  0  0  0  0
  -25.2180  -22.7524   15.9787 C   0  0  0  0  0  0  0  0  0  0  0  0
  -26.5581  -23.1320   17.9528 C   0  0  0  0  0  0  0  0  0  0  0  0
  -27.3155  -24.0745   17.2573 C   0  0  0  0  0  0  0  0  0  0  0  0
  -25.5093  -22.4710   17.3135 C   0  0  0  0  0  0  0  0  0  0  0  0
  -25.3629  -11.0510   20.6805 C   0  0  0  0  0  0  0  0  0  0  0  0
  -27.6946  -28.0146   20.1576 C   0  0  0  0  0  0  0  0  0  0  0  0
  -24.2488   -8.9895   20.8571 C   0  0  0  0  0  0  0  0  0  0  0  0
  -21.8877   -7.5768   21.3175 C   0  0  0  0  0  0  0  0  0  0  0  0
  -24.1727   -8.0846   21.9158 C   0  0  0  0  0  0  0  0  0  0  0  0
  -25.1870  -15.2749   20.8429 C   0  0  0  0  0  0  0  0  0  0  0  0
  -25.5960  -17.3974   21.2461 C   0  0  0  0  0  0  0  0  0  0  0  0
  -27.2766  -15.8331   22.2346 C   0  0  0  0  0  0  0  0  0  0  0  0
  -23.6990  -30.2927   23.0403 C   0  0  0  0  0  0  0  0  0  0  0  0
  -21.6332  -29.3616   20.7192 C   0  0  0  0  0  0  0  0  0  0  0  0
  -29.2248  -25.7157   17.3280 C   0  0  0  0  0  0  0  0  0  0  0  0
  -21.1473  -27.7586   17.7458 C   0  0  0  0  0  0  0  0  0  0  0  0
  -23.3974  -21.1929   17.8163 C   0  0  0  0  0  0  0  0  0  0  0  0
  -23.7464  -33.6689   26.8687 C   0  0  0  0  0  0  0  0  0  0  0  0
  -24.8536  -31.1449   20.9675 C   0  0  0  0  0  0  0  0  0  0  0  0
  -23.9432  -28.3498   20.6462 C   0  0  0  0  0  0  0  0  0  0  0  0
  -22.6712  -32.9071   26.0981 C   0  0  0  0  0  0  0  0  0  0  0  0
  -21.1538  -18.8725   19.3193 C   0  0  0  0  0  0  0  0  0  0  0  0
  -23.0233  -31.4253   26.0140 C   0  0  0  0  0  0  0  0  0  0  0  0
  -22.0776  -17.8008   19.9026 C   0  0  0  0  0  0  0  0  0  0  0  0
  -21.6767  -19.4083   17.9877 C   0  0  0  0  0  0  0  0  0  0  0  0
  -23.9888  -18.8143   18.5961 C   0  0  0  0  0  0  0  0  0  0  0  0
  -24.3420  -31.2136   25.2605 C   0  0  1  0  0  0  0  0  0  0  0  0
  -23.5515  -30.6481   21.5879 C   0  0  1  0  0  0  0  0  0  0  0  0
  -23.5374  -18.2907   19.9694 C   0  0  2  0  0  0  0  0  0  0  0  0
  -25.6853  -24.0137   13.8529 C   0  0  0  0  0  0  0  0  0  0  0  0
  -26.8721  -22.8317   19.3862 C   0  0  0  0  0  0  0  0  0  0  0  0
  -22.8576  -22.9297   15.1520 C   0  0  0  0  0  0  0  0  0  0  0  0
  -19.3430  -27.1282   16.1195 C   0  0  0  0  0  0  0  0  0  0  0  0
  -20.7197  -27.1380   22.5984 C   0  0  0  0  0  0  0  0  0  0  0  0
  -19.6591  -26.0074   20.6324 C   0  0  0  0  0  0  0  0  0  0  0  0
  -18.8746  -28.2663   21.3427 C   0  0  0  0  0  0  0  0  0  0  0  0
  -22.3997  -29.3262   15.5702 C   0  0  0  0  0  0  0  0  0  0  0  0
  -24.0936  -22.0476   15.2858 C   0  0  0  0  0  0  0  0  0  0  0  0
  -30.2443  -26.1945   18.3553 C   0  0  0  0  0  0  0  0  0  0  0  0
  -29.7626  -27.3902   19.1629 C   0  0  0  0  0  0  0  0  0  1  0  0
  -21.1235  -28.0345   20.2111 C   0  0  1  0  0  0  0  0  0  0  0  0
  -20.3905  -28.1651   16.4942 C   0  0  2  0  0  0  0  0  0  0  0  0
  -20.1220  -27.3679   21.1959 C   0  0  0  0  0  0  0  0  0  0  0  0
  -24.1906  -15.9281   20.2392 N   0  0  0  0  0  0  0  0  0  0  0  0
  -24.4671  -17.2167   20.5025 N   0  0  0  0  0  0  0  0  0  0  0  0
  -23.0183  -29.4643   20.9107 N   0  0  0  0  0  0  0  0  0  0  0  0
  -23.0633  -19.8580   18.1284 N   0  0  0  0  0  0  0  0  0  0  0  0
  -26.0192  -18.6293   21.6006 N   0  0  0  0  0  0  0  0  0  0  0  0
  -27.6429  -14.4887   22.3847 N   0  0  0  0  0  0  0  0  0  0  0  0
  -28.3843  -24.7564   17.8863 N   0  0  0  0  0  0  0  0  0  0  0  0
  -24.7391  -21.5141   18.0198 N   0  0  0  0  0  0  0  0  0  0  0  0
  -24.1343  -31.3370   23.8336 N   0  0  0  0  0  0  0  0  0  0  0  0
  -20.5758  -28.2890   18.8830 N   0  0  0  0  0  0  0  0  0  0  0  0
  -21.3302  -28.3194   15.3478 N   0  3  0  0  0  0  0  0  0  0  0  0
  -27.9798  -16.7243   22.7685 O   0  0  0  0  0  0  0  0  0  0  0  0
  -23.4360  -29.1556   23.4138 O   0  0  0  0  0  0  0  0  0  0  0  0
  -20.8326  -30.2757   20.9314 O   0  0  0  0  0  0  0  0  0  0  0  0
  -29.1984  -26.1521   16.1821 O   0  0  0  0  0  0  0  0  0  0  0  0
  -22.1434  -27.0393   17.7177 O   0  0  0  0  0  0  0  0  0  0  0  0
  -22.5499  -21.9995   17.4251 O   0  0  0  0  0  0  0  0  0  0  0  0
  -25.4199   -9.6922   20.6277 O   0  0  0  0  0  0  0  0  0  0  0  0
  -28.5936  -27.0270   19.8963 O   0  0  0  0  0  0  0  0  0  1  0  0
  -20.7535   -6.8997   21.5393 F   0  0  0  0  0  0  0  0  0  0  0  0
  -25.2300   -7.8905   22.7159 F   0  0  0  0  0  0  0  0  0  0  0  0
  1  2  1  0  0  0  0
  1  5  2  0  0  0  0
  2  6  2  0  0  0  0
  3  8  2  0  0  0  0
  3 16  1  0  0  0  0
  4  9  1  0  0  0  0
  4 16  2  0  0  0  0
  5 18  1  0  0  0  0
  6 20  1  0  0  0  0
  7 10  2  0  0  0  0
  7 19  1  0  0  0  0
  8 27  1  0  0  0  0
  9 27  2  0  0  0  0
 10 28  1  0  0  0  0
 11 12  2  0  0  0  0
 11 29  1  0  0  0  0
 12 30  1  0  0  0  0
 13 21  1  0  0  0  0
 13 28  2  0  0  0  0
 14 22  2  0  0  0  0
 14 25  1  0  0  0  0
 15 30  2  0  0  0  0
 15 31  1  0  0  0  0
 16 32  1  0  0  0  0
 17 32  1  0  0  0  0
 17 33  2  0  0  0  0
 17 34  1  0  0  0  0
 18 20  2  0  0  0  0
 18 40  1  0  0  0  0
 19 21  2  0  0  0  0
 19 41  1  0  0  0  0
 20 49  1  0  0  0  0
 21 42  1  0  0  0  0
 22 23  1  0  0  0  0
 22 52  1  0  0  0  0
 23 26  2  0  0  0  0
 23 60  1  0  0  0  0
 24 25  2  0  0  0  0
 24 26  1  0  0  0  0
 24 53  1  0  0  0  0
 25 72  1  0  0  0  0
 26 73  1  0  0  0  0
 27 83  1  0  0  0  0
 28 84  1  0  0  0  0
 29 31  2  0  0  0  0
 29 83  1  0  0  0  0
 30 85  1  0  0  0  0
 31 86  1  0  0  0  0
 32 66  2  0  0  0  0
 33 67  1  0  0  0  0
 33 70  1  0  0  0  0
 34 71  1  0  0  0  0
 34 77  2  0  0  0  0
 35 50  1  0  0  0  0
 35 74  1  0  0  0  0
 35 78  2  0  0  0  0
 36 63  1  0  0  0  0
 36 68  1  0  0  0  0
 36 79  2  0  0  0  0
 37 61  1  0  0  0  0
 37 72  1  0  0  0  0
 37 80  2  0  0  0  0
 38 64  1  0  0  0  0
 38 75  1  0  0  0  0
 38 81  2  0  0  0  0
 39 69  1  0  0  0  0
 39 73  1  0  0  0  0
 39 82  2  0  0  0  0
 40 43  1  0  0  0  0
 41 50  1  0  0  0  0
 42 68  1  0  0  0  0
 43 45  1  0  0  0  0
 44 46  1  0  0  0  0
 44 47  1  0  0  0  0
 45 49  1  0  0  0  0
 46 51  1  0  0  0  0
 47 69  1  0  0  0  0
 48 51  1  0  0  0  0
 48 69  1  0  0  0  0
 49 74  1  0  0  0  0
 50 68  1  0  0  0  0
 51 67  1  0  0  0  0
 54 60  1  0  0  0  0
 55 64  1  0  0  0  0
 56 65  1  0  0  0  0
 57 65  1  0  0  0  0
 58 65  1  0  0  0  0
 59 76  1  0  0  0  0
 61 62  1  0  0  0  0
 62 84  1  0  0  0  0
 63 65  1  0  0  0  0
 63 75  1  0  0  0  0
 64 76  1  0  0  0  0
 66 67  1  0  0  0  0
M  CHG  1  76   1
M  ISO  4  39 100  62 101  73 100  84 101
M  END
> <Batch ID>
0014

> <Smiles>
CCc1c(C)cc(NC(=O)C[101CH2:1][101O:1]c2ccc3c(c2)CN(C(=O)C(NC(=O)C(C)NC)C(C)(C)C)C(C(=O)NC2CCCc4ccccc42)C3)c(C)c1[100NH:0][100C:0](=O)N1CCCC(n2nc(-c3ccc(Oc4ccc(F)cc4F)cc3)c(C(N)=O)c2N)C1

> <Shape>
0.242

> <Color>
0.082

> <Negative vol penalty>
0.000

$$$$

  -OEChem-04052315533D

 85 93  0     1  0  0  0  0  0999 V2000
  -24.0751  -30.0930   22.5336 C   0  0  0  0  0  0  0  0  0  0  0  0
  -24.5871  -28.9049   22.0219 C   0  0  0  0  0  0  0  0  0  0  0  0
  -23.1867   -9.8216   20.0122 C   0  0  0  0  0  0  0  0  0  0  0  0
  -23.7348  -10.0198   22.3568 C   0  0  0  0  0  0  0  0  0  0  0  0
  -23.8596  -31.1796   21.6871 C   0  0  0  0  0  0  0  0  0  0  0  0
  -24.8828  -28.8025   20.6631 C   0  0  0  0  0  0  0  0  0  0  0  0
  -29.3575  -26.5904   19.8099 C   0  0  0  0  0  0  0  0  0  0  0  0
  -22.4411   -8.6744   20.2834 C   0  0  0  0  0  0  0  0  0  0  0  0
  -22.9892   -8.8726   22.6281 C   0  0  0  0  0  0  0  0  0  0  0  0
  -29.4124  -25.2016   19.9191 C   0  0  0  0  0  0  0  0  0  0  0  0
  -19.3859   -7.9244   21.5227 C   0  0  0  0  0  0  0  0  0  0  0  0
  -18.1294   -7.8122   20.9276 C   0  0  0  0  0  0  0  0  0  0  0  0
  -29.2785  -25.0135   17.5179 C   0  0  0  0  0  0  0  0  0  0  0  0
  -29.3648  -15.8945   17.6155 C   0  0  0  0  0  0  0  0  0  0  0  0
  -27.4651  -15.7116   16.1340 C   0  0  0  0  0  0  0  0  0  0  0  0
  -18.8369   -5.7873   19.8157 C   0  0  0  0  0  0  0  0  0  0  0  0
  -23.8336  -10.4943   21.0489 C   0  0  0  0  0  0  0  0  0  0  0  0
  -24.1459  -13.0101   20.7641 C   0  0  0  0  0  0  0  0  0  0  0  0
  -24.1618  -31.0937   20.3189 C   0  0  0  0  0  0  0  0  0  0  0  0
  -29.2516  -27.2019   18.5524 C   0  0  0  0  0  0  0  0  0  0  0  0
  -24.6698  -29.8886   19.7972 C   0  0  0  0  0  0  0  0  0  0  0  0
  -29.2251  -26.4104   17.3953 C   0  0  0  0  0  0  0  0  0  0  0  0
  -28.8721  -17.1071   18.0977 C   0  0  0  0  0  0  0  0  0  0  0  0
  -26.9723  -16.9242   16.6163 C   0  0  0  0  0  0  0  0  0  0  0  0
  -28.6614  -15.1968   16.6336 C   0  0  0  0  0  0  0  0  0  0  0  0
  -27.6758  -17.6219   17.5981 C   0  0  0  0  0  0  0  0  0  0  0  0
  -22.3424   -8.1999   21.5914 C   0  0  0  0  0  0  0  0  0  0  0  0
  -29.3700  -24.4128   18.7732 C   0  0  0  0  0  0  0  0  0  0  0  0
  -20.3680   -6.9682   21.2643 C   0  0  0  0  0  0  0  0  0  0  0  0
  -17.8549   -6.7436   20.0741 C   0  0  0  0  0  0  0  0  0  0  0  0
  -20.0935   -5.8996   20.4108 C   0  0  0  0  0  0  0  0  0  0  0  0
  -24.6044  -11.6791   20.7692 C   0  0  0  0  0  0  0  0  0  0  0  0
  -25.2548  -13.7541   20.4429 C   0  0  0  0  0  0  0  0  0  0  0  0
  -22.8347  -13.5276   21.0264 C   0  0  0  0  0  0  0  0  0  0  0  0
  -27.0985  -29.0635   17.1376 C   0  0  0  0  0  0  0  0  0  0  0  0
  -29.3405  -29.2158   14.7982 C   0  0  0  0  0  0  0  0  0  0  0  0
  -32.0371  -27.7853   13.2721 C   0  0  0  0  0  0  0  0  0  0  0  0
  -29.9477  -13.0614   16.9102 C   0  0  0  0  0  0  0  0  0  0  0  0
  -23.8674  -32.2794   19.4346 C   0  0  0  0  0  0  0  0  0  0  0  0
  -29.2205  -28.7022   18.4499 C   0  0  0  0  0  0  0  0  0  0  0  0
  -29.1323  -27.0185   16.0205 C   0  0  0  0  0  0  0  0  0  0  0  0
  -24.5585  -32.2117   18.0751 C   0  0  0  0  0  0  0  0  0  0  0  0
  -30.1349  -13.0428   20.6059 C   0  0  0  0  0  0  0  0  0  0  0  0
  -24.3845  -30.8285   17.4560 C   0  0  0  0  0  0  0  0  0  0  0  0
  -28.6978  -12.7276   21.0168 C   0  0  0  0  0  0  0  0  0  0  0  0
  -30.4795  -12.4433   19.2459 C   0  0  0  0  0  0  0  0  0  0  0  0
  -28.0968  -12.5341   18.5708 C   0  0  0  0  0  0  0  0  0  0  0  0
  -25.0262  -29.7468   18.3333 C   0  0  1  0  0  0  0  0  0  0  0  0
  -28.5948  -29.1995   17.1505 C   0  0  1  0  0  0  0  0  0  0  0  0
  -27.7122  -13.1613   19.9192 C   0  0  1  0  0  0  0  0  0  0  0  0
  -29.6478  -17.8322   19.1492 C   0  0  0  0  0  0  0  0  0  0  0  0
  -25.6873  -17.4502   16.0635 C   0  0  0  0  0  0  0  0  0  0  0  0
  -33.6295  -28.1247   11.3625 C   0  0  0  0  0  0  0  0  0  0  0  0
  -27.1758  -28.3298   12.8388 C   0  0  0  0  0  0  0  0  0  0  0  0
  -28.9848  -27.7754   11.1991 C   0  0  0  0  0  0  0  0  0  0  0  0
  -28.6888  -30.1261   11.9795 C   0  0  0  0  0  0  0  0  0  0  0  0
  -29.0992  -13.6992   14.6955 C   0  0  0  0  0  0  0  0  0  0  0  0
  -26.2784  -18.8565   19.2361 C   0  0  0  0  0  0  0  0  0  0  0  0
  -34.3708  -27.9072   15.0880 C   0  0  0  0  0  0  0  0  0  0  0  0
  -28.2969  -20.9768   18.4710 C   0  0  0  0  0  0  0  0  0  0  0  0
  -27.5482  -20.0976   17.4766 C   0  0  0  0  0  0  0  0  0  0  0  0
  -28.7506  -22.3018   17.8698 C   0  0  0  0  0  0  0  0  0  1  0  0
  -29.6530  -28.4067   13.5626 C   0  0  1  0  0  0  0  0  0  0  0  0
  -33.3745  -28.3612   12.8430 C   0  0  2  0  0  0  0  0  0  0  0  0
  -28.6254  -28.6477   12.4209 C   0  0  0  0  0  0  0  0  0  0  0  0
  -25.9034  -11.5801   20.4744 N   0  0  0  0  0  0  0  0  0  0  0  0
  -26.2705  -12.8584   20.2810 N   0  0  0  0  0  0  0  0  0  0  0  0
  -29.0982  -28.4896   15.9728 N   0  0  0  0  0  0  0  0  0  0  0  0
  -29.4995  -12.8157   18.2244 N   0  0  0  0  0  0  0  0  0  0  0  0
  -25.4503  -15.0805   20.2858 N   0  0  0  0  0  0  0  0  0  0  0  0
  -21.8105  -12.6242   21.3414 N   0  0  0  0  0  0  0  0  0  0  0  0
  -26.4630  -29.7420   18.1599 N   0  0  0  0  0  0  0  0  0  0  0  0
  -31.0306  -28.7254   13.2036 N   0  0  0  0  0  0  0  0  0  0  0  0
  -29.1712  -13.9431   16.1345 N   0  0  0  0  0  0  0  0  0  0  0  0
  -27.1799  -18.8408   18.0825 N   0  0  3  0  0  0  0  0  0  0  0  0
  -34.4817  -27.7318   13.6170 N   0  3  0  0  0  0  0  0  0  0  0  0
  -22.5752  -14.7534   20.9666 O   0  0  0  0  0  0  0  0  0  0  0  0
  -26.5602  -28.3938   16.2638 O   0  0  0  0  0  0  0  0  0  0  0  0
  -29.3193  -30.4470   14.7255 O   0  0  0  0  0  0  0  0  0  0  0  0
  -31.8982  -26.6173   13.6285 O   0  0  0  0  0  0  0  0  0  0  0  0
  -30.9402  -12.4917   16.4401 O   0  0  0  0  0  0  0  0  0  0  0  0
  -21.6147   -7.0806   21.8565 O   0  0  0  0  0  0  0  0  0  0  0  0
  -29.4226  -23.0569   18.8770 O   0  0  0  0  0  0  0  0  0  1  0  0
  -16.6477   -6.6351   19.5039 F   0  0  0  0  0  0  0  0  0  0  0  0
  -21.0325   -4.9772   20.1596 F   0  0  0  0  0  0  0  0  0  0  0  0
  1  2  1  0  0  0  0
  1  5  2  0  0  0  0
  2  6  2  0  0  0  0
  3  8  2  0  0  0  0
  3 17  1  0  0  0  0
  4  9  1  0  0  0  0
  4 17  2  0  0  0  0
  5 19  1  0  0  0  0
  6 21  1  0  0  0  0
  7 10  2  0  0  0  0
  7 20  1  0  0  0  0
  8 27  1  0  0  0  0
  9 27  2  0  0  0  0
 10 28  1  0  0  0  0
 11 12  2  0  0  0  0
 11 29  1  0  0  0  0
 12 30  1  0  0  0  0
 13 22  1  0  0  0  0
 13 28  2  0  0  0  0
 14 23  2  0  0  0  0
 14 25  1  0  0  0  0
 15 24  1  0  0  0  0
 15 25  2  0  0  0  0
 16 30  2  0  0  0  0
 16 31  1  0  0  0  0
 17 32  1  0  0  0  0
 18 32  1  0  0  0  0
 18 33  2  0  0  0  0
 18 34  1  0  0  0  0
 19 21  2  0  0  0  0
 19 39  1  0  0  0  0
 20 22  2  0  0  0  0
 20 40  1  0  0  0  0
 21 48  1  0  0  0  0
 22 41  1  0  0  0  0
 23 26  1  0  0  0  0
 23 51  1  0  0  0  0
 24 26  2  0  0  0  0
 24 52  1  0  0  0  0
 25 74  1  0  0  0  0
 26 75  1  0  0  0  0
 27 82  1  0  0  0  0
 28 83  1  0  0  0  0
 29 31  2  0  0  0  0
 29 82  1  0  0  0  0
 30 84  1  0  0  0  0
 31 85  1  0  0  0  0
 32 66  2  0  0  0  0
 33 67  1  0  0  0  0
 33 70  1  0  0  0  0
 34 71  1  0  0  0  0
 34 77  2  0  0  0  0
 35 49  1  0  0  0  0
 35 72  1  0  0  0  0
 35 78  2  0  0  0  0
 36 63  1  0  0  0  0
 36 68  1  0  0  0  0
 36 79  2  0  0  0  0
 37 64  1  0  0  0  0
 37 73  1  0  0  0  0
 37 80  2  0  0  0  0
 38 69  1  0  0  0  0
 38 74  1  0  0  0  0
 38 81  2  0  0  0  0
 39 42  1  0  0  0  0
 40 49  1  0  0  0  0
 41 68  1  0  0  0  0
 42 44  1  0  0  0  0
 43 45  1  0  0  0  0
 43 46  1  0  0  0  0
 44 48  1  0  0  0  0
 45 50  1  0  0  0  0
 46 69  1  0  0  0  0
 47 50  1  0  0  0  0
 47 69  1  0  0  0  0
 48 72  1  0  0  0  0
 49 68  1  0  0  0  0
 50 67  1  0  0  0  0
 53 64  1  0  0  0  0
 54 65  1  0  0  0  0
 55 65  1  0  0  0  0
 56 65  1  0  0  0  0
 57 74  1  0  0  0  0
 58 75  1  0  0  0  0
 59 76  1  0  0  0  0
 60 61  1  0  0  0  0
 60 62  1  0  0  0  0
 61 75  1  0  0  0  0
 62 83  1  0  0  0  0
 63 65  1  0  0  0  0
 63 73  1  0  0  0  0
 64 76  1  0  0  0  0
 66 67  1  0  0  0  0
M  CHG  1  76   1
M  ISO  4  38 100  62 101  74 100  83 101
M  END
> <Batch ID>
0014

> <Smiles>
CNC(C)C(=O)NC(C(=O)N1Cc2cc([101O:1][101CH2:1]CCN(C)c3c(C)cc([100N:0](C)[100C:0](=O)N4CCCC(n5nc(-c6ccc(Oc7ccc(F)cc7F)cc6)c(C(N)=O)c5N)C4)cc3C)ccc2CC1C(=O)NC1CCCc2ccccc21)C(C)(C)C

> <Shape>
0.221

> <Color>
0.226

> <Negative vol penalty>
0.000

$$$$

  -OEChem-04052315533D

 85 93  0     1  0  0  0  0  0999 V2000
  -17.2875  -25.9149   21.8210 C   0  0  0  0  0  0  0  0  0  0  0  0
  -18.5328  -25.8481   21.2044 C   0  0  0  0  0  0  0  0  0  0  0  0
  -22.1673  -12.0423   20.0224 C   0  0  0  0  0  0  0  0  0  0  0  0
  -22.2539  -13.5099   21.9397 C   0  0  0  0  0  0  0  0  0  0  0  0
  -17.0613  -26.8464   22.8335 C   0  0  0  0  0  0  0  0  0  0  0  0
  -19.5523  -26.7136   21.5992 C   0  0  0  0  0  0  0  0  0  0  0  0
  -23.9992  -24.3543   22.1499 C   0  0  0  0  0  0  0  0  0  0  0  0
  -21.1540  -11.3038   20.6335 C   0  0  0  0  0  0  0  0  0  0  0  0
  -21.2406  -12.7714   22.5507 C   0  0  0  0  0  0  0  0  0  0  0  0
  -24.7108  -24.0576   20.9883 C   0  0  0  0  0  0  0  0  0  0  0  0
  -20.9529   -9.8534   24.2340 C   0  0  0  0  0  0  0  0  0  0  0  0
  -21.1136   -9.5221   25.5793 C   0  0  0  0  0  0  0  0  0  0  0  0
  -26.1088  -25.9882   21.3587 C   0  0  0  0  0  0  0  0  0  0  0  0
  -31.3309  -18.9425   21.0017 C   0  0  0  0  0  0  0  0  0  0  0  0
  -19.0888  -10.7253   26.1174 C   0  0  0  0  0  0  0  0  0  0  0  0
  -22.7173  -13.1453   20.6755 C   0  0  0  0  0  0  0  0  0  0  0  0
  -23.6125  -15.0230   19.1989 C   0  0  0  0  0  0  0  0  0  0  0  0
  -18.0815  -27.7172   23.2475 C   0  0  0  0  0  0  0  0  0  0  0  0
  -24.3307  -25.4783   22.9201 C   0  0  0  0  0  0  0  0  0  0  0  0
  -19.3391  -27.6586   22.6172 C   0  0  0  0  0  0  0  0  0  0  0  0
  -25.4016  -26.2956   22.5310 C   0  0  0  0  0  0  0  0  0  0  0  0
  -29.8576  -21.2613   20.5168 C   0  0  0  0  0  0  0  0  0  0  0  0
  -30.0669  -18.8564   20.4181 C   0  0  0  0  0  0  0  0  0  0  0  0
  -20.6906  -11.6683   21.8976 C   0  0  0  0  0  0  0  0  0  0  0  0
  -25.7639  -24.8762   20.5909 C   0  0  0  0  0  0  0  0  0  0  0  0
  -19.8602  -10.6207   23.8303 C   0  0  0  0  0  0  0  0  0  0  0  0
  -20.1815   -9.9580   26.5211 C   0  0  0  0  0  0  0  0  0  0  0  0
  -31.8582  -20.1880   21.3429 C   0  0  0  0  0  0  0  0  0  0  0  0
  -18.9281  -11.0566   24.7720 C   0  0  0  0  0  0  0  0  0  0  0  0
  -31.1216  -21.3474   21.1005 C   0  0  0  0  0  0  0  0  0  0  0  0
  -29.3303  -20.0158   20.1757 C   0  0  0  0  0  0  0  0  0  0  0  0
  -23.7645  -13.9082   20.0451 C   0  0  0  0  0  0  0  0  0  0  0  0
  -24.8968  -15.3806   18.8681 C   0  0  0  0  0  0  0  0  0  0  0  0
  -22.4174  -15.6768   18.7518 C   0  0  0  0  0  0  0  0  0  0  0  0
  -22.8157  -28.1393   23.7727 C   0  0  0  0  0  0  0  0  0  0  0  0
  -28.5727  -24.0259   18.5074 C   0  0  0  0  0  0  0  0  0  0  0  0
  -25.4712  -28.6099   25.5753 C   0  0  0  0  0  0  0  0  0  0  0  0
  -28.7848  -27.9649   26.0757 C   0  0  0  0  0  0  0  0  0  0  0  0
  -30.1985  -16.3450   20.2695 C   0  0  0  0  0  0  0  0  0  0  0  0
  -17.7753  -28.7393   24.3135 C   0  0  0  0  0  0  0  0  0  0  0  0
  -23.5706  -25.7695   24.1849 C   0  0  0  0  0  0  0  0  0  0  0  0
  -25.8104  -27.5026   23.3338 C   0  0  0  0  0  0  0  0  0  0  0  0
  -19.0220  -29.3675   24.9310 C   0  0  0  0  0  0  0  0  0  0  0  0
  -29.2835  -12.9674   19.6130 C   0  0  0  0  0  0  0  0  0  0  0  0
  -20.0074  -29.7797   23.8420 C   0  0  0  0  0  0  0  0  0  0  0  0
  -27.7535  -13.0027   19.5973 C   0  0  0  0  0  0  0  0  0  0  0  0
  -29.8619  -13.9146   20.6627 C   0  0  0  0  0  0  0  0  0  0  0  0
  -27.8515  -15.3352   20.5652 C   0  0  0  0  0  0  0  0  0  0  0  0
  -20.4777  -28.5638   23.0346 C   0  0  1  0  0  0  0  0  0  0  0  0
  -23.6644  -27.2300   24.6156 C   0  0  1  0  0  0  0  0  0  0  0  0
  -27.2244  -14.4455   19.4795 C   0  0  2  0  0  0  0  0  0  0  0  0
  -28.6089  -24.3824   17.0406 C   0  0  0  0  0  0  0  0  0  0  0  0
  -30.6903  -28.5222   27.6106 C   0  0  0  0  0  0  0  0  0  0  0  0
  -25.7268  -31.3507   24.2589 C   0  0  0  0  0  0  0  0  0  0  0  0
  -28.0879  -31.4502   25.0857 C   0  0  0  0  0  0  0  0  0  0  0  0
  -26.2024  -31.3241   26.7140 C   0  0  0  0  0  0  0  0  0  0  0  0
  -29.1240  -25.1345   26.8713 C   0  0  0  0  0  0  0  0  0  0  0  0
  -29.0998  -22.5357   20.2700 C   0  0  0  0  0  0  0  0  0  0  0  0
  -27.8320  -24.9786   19.4211 C   0  0  0  0  0  0  0  0  0  1  0  0
  -26.8069  -29.2785   25.3568 C   0  0  1  0  0  0  0  0  0  0  0  0
  -29.5547  -27.5540   27.3179 C   0  0  2  0  0  0  0  0  0  0  0  0
  -26.6973  -30.8293   25.3375 C   0  0  0  0  0  0  0  0  0  0  0  0
  -25.0443  -13.5793   20.2397 N   0  0  0  0  0  0  0  0  0  0  0  0
  -29.1404  -22.9270   18.8709 N   0  0  0  0  0  0  0  0  0  0  0  0
  -25.7082  -14.4927   19.5110 N   0  0  0  0  0  0  0  0  0  0  0  0
  -25.0325  -27.7491   24.5592 N   0  0  0  0  0  0  0  0  0  0  0  0
  -29.3190  -15.2633   20.4866 N   0  0  0  0  0  0  0  0  0  0  0  0
  -25.3997  -16.3647   18.0930 N   0  0  0  0  0  0  0  0  0  0  0  0
  -21.1812  -15.1800   19.1870 N   0  0  0  0  0  0  0  0  0  0  0  0
  -29.5662  -17.5739   20.0832 N   0  0  0  0  0  0  0  0  0  0  0  0
  -21.4717  -27.8182   23.7767 N   0  0  0  0  0  0  0  0  0  0  0  0
  -27.6985  -28.7553   26.3863 N   0  0  0  0  0  0  0  0  0  0  0  0
  -30.1322  -26.1914   27.1422 N   0  3  0  0  0  0  0  0  0  0  0  0
  -22.4443  -16.6621   17.9759 O   0  0  0  0  0  0  0  0  0  0  0  0
  -23.3410  -29.0648   23.1651 O   0  0  0  0  0  0  0  0  0  0  0  0
  -24.8436  -28.8373   26.6126 O   0  0  0  0  0  0  0  0  0  0  0  0
  -29.1163  -27.6223   24.9429 O   0  0  0  0  0  0  0  0  0  0  0  0
  -31.4213  -16.1880   20.2232 O   0  0  0  0  0  0  0  0  0  0  0  0
  -19.7017  -10.9481   22.4941 O   0  0  0  0  0  0  0  0  0  0  0  0
  -26.4596  -24.5892   19.4571 O   0  0  0  0  0  0  0  0  0  1  0  0
  -20.3351   -9.6385   27.8128 F   0  0  0  0  0  0  0  0  0  0  0  0
  -33.0727  -20.2711   21.9016 F   0  0  0  0  0  0  0  0  0  0  0  0
  -17.8757  -11.7930   24.3901 F   0  0  0  0  0  0  0  0  0  0  0  0
  -31.6386  -22.5391   21.4314 F   0  0  0  0  0  0  0  0  0  0  0  0
  -27.7594  -19.9142   19.4490 Cl  0  0  0  0  0  0  0  0  0  0  0  0
  1  2  1  0  0  0  0
  1  5  2  0  0  0  0
  2  6  2  0  0  0  0
  3  8  2  0  0  0  0
  3 16  1  0  0  0  0
  4  9  1  0  0  0  0
  4 16  2  0  0  0  0
  5 18  1  0  0  0  0
  6 20  1  0  0  0  0
  7 10  2  0  0  0  0
  7 19  1  0  0  0  0
  8 24  1  0  0  0  0
  9 24  2  0  0  0  0
 10 25  1  0  0  0  0
 11 12  2  0  0  0  0
 11 26  1  0  0  0  0
 12 27  1  0  0  0  0
 13 21  1  0  0  0  0
 13 25  2  0  0  0  0
 14 23  2  0  0  0  0
 14 28  1  0  0  0  0
 15 27  2  0  0  0  0
 15 29  1  0  0  0  0
 16 32  1  0  0  0  0
 17 32  1  0  0  0  0
 17 33  2  0  0  0  0
 17 34  1  0  0  0  0
 18 20  2  0  0  0  0
 18 40  1  0  0  0  0
 19 21  2  0  0  0  0
 19 41  1  0  0  0  0
 20 49  1  0  0  0  0
 21 42  1  0  0  0  0
 22 30  1  0  0  0  0
 22 31  2  0  0  0  0
 22 58  1  0  0  0  0
 23 31  1  0  0  0  0
 23 70  1  0  0  0  0
 24 79  1  0  0  0  0
 25 80  1  0  0  0  0
 26 29  2  0  0  0  0
 26 79  1  0  0  0  0
 27 81  1  0  0  0  0
 28 30  2  0  0  0  0
 28 82  1  0  0  0  0
 29 83  1  0  0  0  0
 30 84  1  0  0  0  0
 31 85  1  0  0  0  0
 32 63  2  0  0  0  0
 33 65  1  0  0  0  0
 33 68  1  0  0  0  0
 34 69  1  0  0  0  0
 34 74  2  0  0  0  0
 35 50  1  0  0  0  0
 35 71  1  0  0  0  0
 35 75  2  0  0  0  0
 36 52  1  0  0  0  0
 36 59  1  0  0  0  0
 36 64  2  0  0  0  0
 37 60  1  0  0  0  0
 37 66  1  0  0  0  0
 37 76  2  0  0  0  0
 38 61  1  0  0  0  0
 38 72  1  0  0  0  0
 38 77  2  0  0  0  0
 39 67  1  0  0  0  0
 39 70  1  0  0  0  0
 39 78  2  0  0  0  0
 40 43  1  0  0  0  0
 41 50  1  0  0  0  0
 42 66  1  0  0  0  0
 43 45  1  0  0  0  0
 44 46  1  0  0  0  0
 44 47  1  0  0  0  0
 45 49  1  0  0  0  0
 46 51  1  0  0  0  0
 47 67  1  0  0  0  0
 48 51  1  0  0  0  0
 48 67  1  0  0  0  0
 49 71  1  0  0  0  0
 50 66  1  0  0  0  0
 51 65  1  0  0  0  0
 53 61  1  0  0  0  0
 54 62  1  0  0  0  0
 55 62  1  0  0  0  0
 56 62  1  0  0  0  0
 57 73  1  0  0  0  0
 58 64  1  0  0  0  0
 59 80  1  0  0  0  0
 60 62  1  0  0  0  0
 60 72  1  0  0  0  0
 61 73  1  0  0  0  0
 63 65  1  0  0  0  0
M  CHG  1  73   1
M  ISO  4  39 100  59 101  70 100  80 101
M  END
> <Batch ID>
0014

> <Smiles>
C=C(NCc1c(F)c(F)cc([100NH:0][100C:0](=O)N2CCCC(n3nc(-c4ccc(Oc5ccc(F)cc5F)cc4)c(C(N)=O)c3N)C2)c1Cl)[101CH2:1][101O:1]c1ccc2c(c1)CN(C(=O)C(NC(=O)C(C)NC)C(C)(C)C)C(C(=O)NC1CCCc3ccccc31)C2

> <Shape>
0.233

> <Color>
0.068

> <Negative vol penalty>
0.000

$$$$

  -OEChem-04052315533D

 88 96  0     1  0  0  0  0  0999 V2000
  -45.7403  -21.2009   19.5274 C   0  0  0  0  0  0  0  0  0  0  0  0
  -45.0441  -20.3530   20.3829 C   0  0  0  0  0  0  0  0  0  0  0  0
  -23.1992   -9.8515   19.9537 C   0  0  0  0  0  0  0  0  0  0  0  0
  -23.9125   -9.9299   22.2607 C   0  0  0  0  0  0  0  0  0  0  0  0
  -45.3427  -22.5301   19.3896 C   0  0  0  0  0  0  0  0  0  0  0  0
  -43.9506  -20.8343   21.1020 C   0  0  0  0  0  0  0  0  0  0  0  0
  -38.8720  -17.7487   22.5829 C   0  0  0  0  0  0  0  0  0  0  0  0
  -22.5070   -8.6675   20.2080 C   0  0  0  0  0  0  0  0  0  0  0  0
  -23.2204   -8.7459   22.5150 C   0  0  0  0  0  0  0  0  0  0  0  0
  -38.4771  -17.0974   23.7506 C   0  0  0  0  0  0  0  0  0  0  0  0
  -20.0232   -7.8015   23.0690 C   0  0  0  0  0  0  0  0  0  0  0  0
  -19.2462   -7.7426   24.2258 C   0  0  0  0  0  0  0  0  0  0  0  0
  -37.2606  -19.0664   24.4304 C   0  0  0  0  0  0  0  0  0  0  0  0
  -31.3064  -17.5251   24.2712 C   0  0  0  0  0  0  0  0  0  0  0  0
  -20.5649   -5.8790   25.0166 C   0  0  0  0  0  0  0  0  0  0  0  0
  -23.9020  -10.4827   20.9800 C   0  0  0  0  0  0  0  0  0  0  0  0
  -24.1239  -13.0194   20.8260 C   0  0  0  0  0  0  0  0  0  0  0  0
  -44.2378  -23.0253   20.0999 C   0  0  0  0  0  0  0  0  0  0  0  0
  -38.4724  -19.0698   22.3349 C   0  0  0  0  0  0  0  0  0  0  0  0
  -43.5387  -22.1717   20.9745 C   0  0  0  0  0  0  0  0  0  0  0  0
  -37.6496  -19.7314   23.2576 C   0  0  0  0  0  0  0  0  0  0  0  0
  -30.6296  -16.6859   23.3862 C   0  0  0  0  0  0  0  0  0  0  0  0
  -32.3644  -15.0231   23.6361 C   0  0  0  0  0  0  0  0  0  0  0  0
  -31.1586  -15.4350   23.0686 C   0  0  0  0  0  0  0  0  0  0  0  0
  -33.0413  -15.8623   24.5212 C   0  0  0  0  0  0  0  0  0  0  0  0
  -22.5176   -8.1147   21.4886 C   0  0  0  0  0  0  0  0  0  0  0  0
  -37.6737  -17.7572   24.6760 C   0  0  0  0  0  0  0  0  0  0  0  0
  -21.0711   -6.8992   22.8859 C   0  0  0  0  0  0  0  0  0  0  0  0
  -19.5170   -6.7814   25.1997 C   0  0  0  0  0  0  0  0  0  0  0  0
  -32.5123  -17.1133   24.8387 C   0  0  0  0  0  0  0  0  0  0  0  0
  -21.3419   -5.9380   23.8597 C   0  0  0  0  0  0  0  0  0  0  0  0
  -24.6176  -11.7055   20.7178 C   0  0  0  0  0  0  0  0  0  0  0  0
  -25.1855  -13.8154   20.4715 C   0  0  0  0  0  0  0  0  0  0  0  0
  -22.8220  -13.4792   21.2125 C   0  0  0  0  0  0  0  0  0  0  0  0
  -39.9887  -21.8358   21.9430 C   0  0  0  0  0  0  0  0  0  0  0  0
  -37.0125  -22.9228   21.2482 C   0  0  0  0  0  0  0  0  0  0  0  0
  -33.6375  -22.5384   21.5777 C   0  0  0  0  0  0  0  0  0  0  0  0
  -30.9349  -14.0844   20.9538 C   0  0  0  0  0  0  0  0  0  0  0  0
  -43.8747  -24.4819   19.9542 C   0  0  0  0  0  0  0  0  0  0  0  0
  -38.8848  -19.7492   21.0579 C   0  0  0  0  0  0  0  0  0  0  0  0
  -37.1768  -21.1430   23.0289 C   0  0  0  0  0  0  0  0  0  0  0  0
  -42.4760  -24.8152   20.4669 C   0  0  0  0  0  0  0  0  0  0  0  0
  -29.3610  -13.1186   17.9096 C   0  0  0  0  0  0  0  0  0  0  0  0
  -42.2427  -24.1788   21.8335 C   0  0  0  0  0  0  0  0  0  0  0  0
  -27.9287  -12.7839   18.3323 C   0  0  0  0  0  0  0  0  0  0  0  0
  -30.3781  -12.6972   18.9687 C   0  0  0  0  0  0  0  0  0  0  0  0
  -28.6787  -12.8674   20.7443 C   0  0  0  0  0  0  0  0  0  0  0  0
  -42.3321  -22.6501   21.7527 C   0  0  1  0  0  0  0  0  0  0  0  0
  -38.8436  -21.2714   21.1507 C   0  0  1  0  0  0  0  0  0  0  0  0
  -27.6133  -13.3320   19.7379 C   0  0  2  0  0  0  0  0  0  0  0  0
  -32.9337  -13.6798   23.2973 C   0  0  0  0  0  0  0  0  0  0  0  0
  -31.4607  -23.6054   20.9294 C   0  0  0  0  0  0  0  0  0  0  0  0
  -33.6349  -15.5084   27.4364 C   0  0  0  0  0  0  0  0  0  0  0  0
  -28.9712  -18.5806   23.3100 C   0  0  0  0  0  0  0  0  0  0  0  0
  -28.1671  -16.1994   23.1709 C   0  0  0  0  0  0  0  0  0  0  0  0
  -29.3162  -17.2548   21.2351 C   0  0  0  0  0  0  0  0  0  0  0  0
  -37.4416  -25.0785   23.3646 C   0  0  0  0  0  0  0  0  0  0  0  0
  -34.9716  -25.4876   23.3486 C   0  0  0  0  0  0  0  0  0  0  0  0
  -36.3114  -25.8734   21.2800 C   0  0  0  0  0  0  0  0  0  0  0  0
  -32.7729  -20.1366   20.0801 C   0  0  0  0  0  0  0  0  0  0  0  0
  -36.0421  -15.2852   26.7286 C   0  0  0  0  0  0  0  0  0  0  0  0
  -37.1374  -15.7063   25.7539 C   0  0  0  0  0  0  0  0  0  1  0  0
  -35.8730  -23.5052   22.0491 C   0  0  1  0  0  0  0  0  0  0  0  0
  -32.5151  -22.5749   20.5563 C   0  0  2  0  0  0  0  0  0  0  0  0
  -34.6814  -15.9081   26.4009 C   0  0  1  0  0  0  0  0  0  0  0  0
  -29.3397  -17.1558   22.7953 C   0  0  0  0  0  0  0  0  0  0  0  0
  -36.1597  -24.9602   22.5161 C   0  0  0  0  0  0  0  0  0  0  0  0
  -25.8936  -11.6649   20.3252 N   0  0  0  0  0  0  0  0  0  0  0  0
  -26.2106  -12.9631   20.1834 N   0  0  0  0  0  0  0  0  0  0  0  0
  -37.6118  -21.7669   21.7683 N   0  0  0  0  0  0  0  0  0  0  0  0
  -30.0171  -13.2567   20.2732 N   0  0  0  0  0  0  0  0  0  0  0  0
  -25.3329  -15.1543   20.3812 N   0  0  0  0  0  0  0  0  0  0  0  0
  -21.8487  -12.5271   21.5451 N   0  0  0  0  0  0  0  0  0  0  0  0
  -30.4689  -14.5844   22.1693 N   0  0  0  0  0  0  0  0  0  0  0  0
  -34.2376  -15.4697   25.0941 N   0  0  0  0  0  0  0  0  0  0  0  0
  -41.1166  -22.1018   21.1902 N   0  0  0  0  0  0  0  0  0  0  0  0
  -34.6798  -23.3676   21.2210 N   0  0  0  0  0  0  0  0  0  0  0  0
  -31.8564  -21.2414   20.4627 N   0  3  0  0  0  0  0  0  0  0  0  0
  -22.5256  -14.6976   21.2457 O   0  0  0  0  0  0  0  0  0  0  0  0
  -39.8582  -22.0180   23.1477 O   0  0  0  0  0  0  0  0  0  0  0  0
  -37.3534  -23.4691   20.1961 O   0  0  0  0  0  0  0  0  0  0  0  0
  -33.5924  -21.8465   22.5925 O   0  0  0  0  0  0  0  0  0  0  0  0
  -32.0416  -14.3534   20.4796 O   0  0  0  0  0  0  0  0  0  0  0  0
  -21.8421   -6.9595   21.7372 O   0  0  0  0  0  0  0  0  0  0  0  0
  -37.2874  -17.1240   25.8169 O   0  0  0  0  0  0  0  0  0  1  0  0
  -18.7717   -6.7258   26.3113 F   0  0  0  0  0  0  0  0  0  0  0  0
  -33.1541  -17.9282   25.6881 F   0  0  0  0  0  0  0  0  0  0  0  0
  -22.3480   -5.0692   23.6899 F   0  0  0  0  0  0  0  0  0  0  0  0
  1  2  1  0  0  0  0
  1  5  2  0  0  0  0
  2  6  2  0  0  0  0
  3  8  2  0  0  0  0
  3 16  1  0  0  0  0
  4  9  1  0  0  0  0
  4 16  2  0  0  0  0
  5 18  1  0  0  0  0
  6 20  1  0  0  0  0
  7 10  2  0  0  0  0
  7 19  1  0  0  0  0
  8 26  1  0  0  0  0
  9 26  2  0  0  0  0
 10 27  1  0  0  0  0
 11 12  2  0  0  0  0
 11 28  1  0  0  0  0
 12 29  1  0  0  0  0
 13 21  1  0  0  0  0
 13 27  2  0  0  0  0
 14 22  1  0  0  0  0
 14 30  2  0  0  0  0
 15 29  2  0  0  0  0
 15 31  1  0  0  0  0
 16 32  1  0  0  0  0
 17 32  1  0  0  0  0
 17 33  2  0  0  0  0
 17 34  1  0  0  0  0
 18 20  2  0  0  0  0
 18 39  1  0  0  0  0
 19 21  2  0  0  0  0
 19 40  1  0  0  0  0
 20 48  1  0  0  0  0
 21 41  1  0  0  0  0
 22 24  2  0  0  0  0
 22 66  1  0  0  0  0
 23 24  1  0  0  0  0
 23 25  2  0  0  0  0
 23 51  1  0  0  0  0
 24 74  1  0  0  0  0
 25 30  1  0  0  0  0
 25 75  1  0  0  0  0
 26 84  1  0  0  0  0
 27 85  1  0  0  0  0
 28 31  2  0  0  0  0
 28 84  1  0  0  0  0
 29 86  1  0  0  0  0
 30 87  1  0  0  0  0
 31 88  1  0  0  0  0
 32 68  2  0  0  0  0
 33 69  1  0  0  0  0
 33 72  1  0  0  0  0
 34 73  1  0  0  0  0
 34 79  2  0  0  0  0
 35 49  1  0  0  0  0
 35 76  1  0  0  0  0
 35 80  2  0  0  0  0
 36 63  1  0  0  0  0
 36 70  1  0  0  0  0
 36 81  2  0  0  0  0
 37 64  1  0  0  0  0
 37 77  1  0  0  0  0
 37 82  2  0  0  0  0
 38 71  1  0  0  0  0
 38 74  1  0  0  0  0
 38 83  2  0  0  0  0
 39 42  1  0  0  0  0
 40 49  1  0  0  0  0
 41 70  1  0  0  0  0
 42 44  1  0  0  0  0
 43 45  1  0  0  0  0
 43 46  1  0  0  0  0
 44 48  1  0  0  0  0
 45 50  1  0  0  0  0
 46 71  1  0  0  0  0
 47 50  1  0  0  0  0
 47 71  1  0  0  0  0
 48 76  1  0  0  0  0
 49 70  1  0  0  0  0
 50 69  1  0  0  0  0
 52 64  1  0  0  0  0
 53 65  1  0  0  0  0
 54 66  1  0  0  0  0
 55 66  1  0  0  0  0
 56 66  1  0  0  0  0
 57 67  1  0  0  0  0
 58 67  1  0  0  0  0
 59 67  1  0  0  0  0
 60 78  1  0  0  0  0
 61 62  1  0  0  0  0
 61 65  1  0  0  0  0
 62 85  1  0  0  0  0
 63 67  1  0  0  0  0
 63 77  1  0  0  0  0
 64 78  1  0  0  0  0
 65 75  1  0  0  0  0
 68 69  1  0  0  0  0
M  CHG  1  78   1
M  ISO  4  38 100  62 101  74 100  85 101
M  END
> <Batch ID>
0014

> <Smiles>
CNC(C)C(=O)NC(C(=O)N1Cc2cc([101O:1][101CH2:1]CC(C)Nc3c(F)cc(C(C)(C)C)c([100NH:0][100C:0](=O)N4CCCC(n5nc(-c6ccc(Oc7ccc(F)cc7F)cc6)c(C(N)=O)c5N)C4)c3C)ccc2CC1C(=O)NC1CCCc2ccccc21)C(C)(C)C

> <Shape>
0.170

> <Color>
0.185

> <Negative vol penalty>
0.000

$$$$

  -OEChem-04052315533D

 85 93  0     1  0  0  0  0  0999 V2000
  -20.7532   -9.2294   18.4149 C   0  0  0  0  0  0  0  0  0  0  0  0
  -20.9513  -10.5549   18.7881 C   0  0  0  0  0  0  0  0  0  0  0  0
  -25.4099  -27.7919   21.8321 C   0  0  0  0  0  0  0  0  0  0  0  0
  -24.5410  -29.1114   20.0042 C   0  0  0  0  0  0  0  0  0  0  0  0
  -21.4302   -8.2097   19.0826 C   0  0  0  0  0  0  0  0  0  0  0  0
  -21.8259  -10.8613   19.8300 C   0  0  0  0  0  0  0  0  0  0  0  0
  -24.8691  -14.7567   18.7299 C   0  0  0  0  0  0  0  0  0  0  0  0
  -26.4652  -27.3680   21.0244 C   0  0  0  0  0  0  0  0  0  0  0  0
  -25.5963  -28.6875   19.1966 C   0  0  0  0  0  0  0  0  0  0  0  0
  -24.3235  -16.0364   18.8211 C   0  0  0  0  0  0  0  0  0  0  0  0
  -29.1901  -25.6551   19.3320 C   0  0  0  0  0  0  0  0  0  0  0  0
  -29.5198  -24.2999   19.3514 C   0  0  0  0  0  0  0  0  0  0  0  0
  -25.3584  -16.3172   20.9820 C   0  0  0  0  0  0  0  0  0  0  0  0
  -27.2969  -23.7480   18.5826 C   0  0  0  0  0  0  0  0  0  0  0  0
  -24.4478  -28.6635   21.3220 C   0  0  0  0  0  0  0  0  0  0  0  0
  -23.3262  -30.2356   22.9888 C   0  0  0  0  0  0  0  0  0  0  0  0
  -22.3208   -8.5046   20.1268 C   0  0  0  0  0  0  0  0  0  0  0  0
  -25.6558  -14.2425   19.7707 C   0  0  0  0  0  0  0  0  0  0  0  0
  -22.5144   -9.8446   20.5132 C   0  0  0  0  0  0  0  0  0  0  0  0
  -25.9149  -15.0316   20.9005 C   0  0  0  0  0  0  0  0  0  0  0  0
  -26.5584  -27.8158   19.7067 C   0  0  0  0  0  0  0  0  0  0  0  0
  -24.5657  -16.8158   19.9485 C   0  0  0  0  0  0  0  0  0  0  0  0
  -27.9137  -26.0567   18.9379 C   0  0  0  0  0  0  0  0  0  0  0  0
  -28.5733  -23.3464   18.9767 C   0  0  0  0  0  0  0  0  0  0  0  0
  -26.9672  -25.1032   18.5632 C   0  0  0  0  0  0  0  0  0  0  0  0
  -23.3571  -29.1013   22.1556 C   0  0  0  0  0  0  0  0  0  0  0  0
  -22.0778  -30.2075   23.5609 C   0  0  0  0  0  0  0  0  0  0  0  0
  -24.2240  -22.3234   21.0486 C   0  0  0  0  0  0  0  0  0  0  0  0
  -21.8161  -22.5580   21.1106 C   0  0  0  0  0  0  0  0  0  0  0  0
  -23.0258  -21.8245   20.6997 C   0  0  0  0  0  0  0  0  0  0  0  0
  -21.9304  -23.7017   21.8202 C   0  0  0  0  0  0  0  0  0  0  0  0
  -23.2832  -24.2394   22.1984 C   0  0  0  0  0  0  0  0  0  0  0  0
  -24.3357  -31.2261   23.2246 C   0  0  0  0  0  0  0  0  0  0  0  0
  -25.4176  -11.7667   21.7500 C   0  0  0  0  0  0  0  0  0  0  0  0
  -28.3900  -12.7008   22.6525 C   0  0  0  0  0  0  0  0  0  0  0  0
  -30.6968  -15.2060   22.8756 C   0  0  0  0  0  0  0  0  0  0  0  0
  -20.3602  -25.4811   21.4254 C   0  0  0  0  0  0  0  0  0  0  0  0
  -22.9939   -7.3652   20.8503 C   0  0  0  0  0  0  0  0  0  0  0  0
  -26.2591  -12.8704   19.6452 C   0  0  0  0  0  0  0  0  0  0  0  0
  -26.7696  -14.5338   22.0363 C   0  0  0  0  0  0  0  0  0  0  0  0
  -24.1880   -7.8010   21.6955 C   0  0  0  0  0  0  0  0  0  0  0  0
  -18.8238  -28.6593   21.1288 C   0  0  0  0  0  0  0  0  0  0  0  0
  -23.8347   -9.0322   22.5239 C   0  0  0  0  0  0  0  0  0  0  0  0
  -18.9982  -29.3102   22.4973 C   0  0  0  0  0  0  0  0  0  0  0  0
  -18.5595  -27.1680   21.2709 C   0  0  0  0  0  0  0  0  0  0  0  0
  -19.8928  -27.0695   23.3643 C   0  0  0  0  0  0  0  0  0  0  0  0
  -23.4738  -10.2188   21.6221 C   0  0  1  0  0  0  0  0  0  0  0  0
  -26.6210  -12.2514   20.9918 C   0  0  1  0  0  0  0  0  0  0  0  0
  -20.0539  -28.6071   23.3669 C   0  0  1  0  0  0  0  0  0  0  0  0
  -20.4892  -21.9629   20.6976 C   0  0  0  0  0  0  0  0  0  0  0  0
  -33.0217  -15.6758   23.6949 C   0  0  0  0  0  0  0  0  0  0  0  0
  -23.7681  -21.0596   17.7642 C   0  0  0  0  0  0  0  0  0  0  0  0
  -27.3632  -12.7600   25.5251 C   0  0  0  0  0  0  0  0  0  0  0  0
  -29.3766  -14.1136   26.1433 C   0  0  0  0  0  0  0  0  0  0  0  0
  -29.6563  -11.7988   25.2566 C   0  0  0  0  0  0  0  0  0  0  0  0
  -25.7356  -23.9150   22.0828 C   0  0  0  0  0  0  0  0  0  0  0  0
  -20.2091  -24.0070   23.4845 C   0  0  0  0  0  0  0  0  0  0  0  0
  -31.6336  -15.9215   20.1610 C   0  0  0  0  0  0  0  0  0  0  0  0
  -23.8280  -18.7746   18.8195 C   0  0  0  0  0  0  0  0  0  1  0  0
  -28.9443  -13.6493   23.6880 C   0  0  1  0  0  0  0  0  0  0  0  0
  -32.1688  -15.2555   22.5081 C   0  0  2  0  0  0  0  0  0  0  0  0
  -23.9453  -20.2783   19.0595 C   0  0  2  0  0  0  0  0  0  0  0  0
  -28.8174  -13.0893   25.1329 C   0  0  0  0  0  0  0  0  0  0  0  0
  -22.2189  -28.4034   22.1922 N   0  0  0  0  0  0  0  0  0  0  0  0
  -21.4610  -29.1010   23.0555 N   0  0  0  0  0  0  0  0  0  0  0  0
  -24.3755  -23.4870   21.7716 N   0  0  0  0  0  0  0  0  0  0  0  0
  -27.3318  -13.1834   21.8696 N   0  0  0  0  0  0  0  0  0  0  0  0
  -19.6123  -26.5018   22.0367 N   0  0  0  0  0  0  0  0  0  0  0  0
  -21.4586  -31.0215   24.4420 N   0  0  0  0  0  0  0  0  0  0  0  0
  -25.5609  -31.1040   22.5550 N   0  0  0  0  0  0  0  0  0  0  0  0
  -22.9291  -20.6997   20.0028 N   0  0  0  0  0  0  0  0  0  0  0  0
  -24.6710  -10.8201   21.0747 N   0  0  0  0  0  0  0  0  0  0  0  0
  -30.3134  -13.9447   23.2797 N   0  0  0  0  0  0  0  0  0  0  0  0
  -20.8608  -24.4588   22.2507 N   0  0  0  0  0  0  0  0  0  0  0  0
  -32.3937  -16.2268   21.4004 N   0  3  0  0  0  0  0  0  0  0  0  0
  -23.3660  -25.2839   22.8453 O   0  0  0  0  0  0  0  0  0  0  0  0
  -24.1625  -32.1818   24.0184 O   0  0  0  0  0  0  0  0  0  0  0  0
  -25.1847  -12.2171   22.8656 O   0  0  0  0  0  0  0  0  0  0  0  0
  -28.8828  -11.5758   22.5376 O   0  0  0  0  0  0  0  0  0  0  0  0
  -29.9615  -16.1889   22.8143 O   0  0  0  0  0  0  0  0  0  0  0  0
  -20.5659  -25.4850   20.2037 O   0  0  0  0  0  0  0  0  0  0  0  0
  -27.5882  -27.4026   18.9184 O   0  0  0  0  0  0  0  0  0  0  0  0
  -24.0338  -18.0650   20.0403 O   0  0  0  0  0  0  0  0  0  1  0  0
  -28.8906  -22.0452   18.9939 F   0  0  0  0  0  0  0  0  0  0  0  0
  -25.7397  -25.4831   18.1825 F   0  0  0  0  0  0  0  0  0  0  0  0
  1  2  1  0  0  0  0
  1  5  2  0  0  0  0
  2  6  2  0  0  0  0
  3  8  2  0  0  0  0
  3 15  1  0  0  0  0
  4  9  1  0  0  0  0
  4 15  2  0  0  0  0
  5 17  1  0  0  0  0
  6 19  1  0  0  0  0
  7 10  2  0  0  0  0
  7 18  1  0  0  0  0
  8 21  1  0  0  0  0
  9 21  2  0  0  0  0
 10 22  1  0  0  0  0
 11 12  2  0  0  0  0
 11 23  1  0  0  0  0
 12 24  1  0  0  0  0
 13 20  1  0  0  0  0
 13 22  2  0  0  0  0
 14 24  2  0  0  0  0
 14 25  1  0  0  0  0
 15 26  1  0  0  0  0
 16 26  1  0  0  0  0
 16 27  2  0  0  0  0
 16 33  1  0  0  0  0
 17 19  2  0  0  0  0
 17 38  1  0  0  0  0
 18 20  2  0  0  0  0
 18 39  1  0  0  0  0
 19 47  1  0  0  0  0
 20 40  1  0  0  0  0
 21 82  1  0  0  0  0
 22 83  1  0  0  0  0
 23 25  2  0  0  0  0
 23 82  1  0  0  0  0
 24 84  1  0  0  0  0
 25 85  1  0  0  0  0
 26 64  2  0  0  0  0
 27 65  1  0  0  0  0
 27 69  1  0  0  0  0
 28 30  2  0  0  0  0
 28 66  1  0  0  0  0
 29 30  1  0  0  0  0
 29 31  2  0  0  0  0
 29 50  1  0  0  0  0
 30 71  1  0  0  0  0
 31 32  1  0  0  0  0
 31 74  1  0  0  0  0
 32 66  1  0  0  0  0
 32 76  2  0  0  0  0
 33 70  1  0  0  0  0
 33 77  2  0  0  0  0
 34 48  1  0  0  0  0
 34 72  1  0  0  0  0
 34 78  2  0  0  0  0
 35 60  1  0  0  0  0
 35 67  1  0  0  0  0
 35 79  2  0  0  0  0
 36 61  1  0  0  0  0
 36 73  1  0  0  0  0
 36 80  2  0  0  0  0
 37 68  1  0  0  0  0
 37 74  1  0  0  0  0
 37 81  2  0  0  0  0
 38 41  1  0  0  0  0
 39 48  1  0  0  0  0
 40 67  1  0  0  0  0
 41 43  1  0  0  0  0
 42 44  1  0  0  0  0
 42 45  1  0  0  0  0
 43 47  1  0  0  0  0
 44 49  1  0  0  0  0
 45 68  1  0  0  0  0
 46 49  1  0  0  0  0
 46 68  1  0  0  0  0
 47 72  1  0  0  0  0
 48 67  1  0  0  0  0
 49 65  1  0  0  0  0
 51 61  1  0  0  0  0
 52 62  1  0  0  0  0
 53 63  1  0  0  0  0
 54 63  1  0  0  0  0
 55 63  1  0  0  0  0
 56 66  1  0  0  0  0
 57 74  1  0  0  0  0
 58 75  1  0  0  0  0
 59 62  1  0  0  0  0
 59 83  1  0  0  0  0
 60 63  1  0  0  0  0
 60 73  1  0  0  0  0
 61 75  1  0  0  0  0
 62 71  1  0  0  0  0
 64 65  1  0  0  0  0
M  CHG  1  75   1
M  ISO  4  37 100  59 101  74 100  83 101
M  END
> <Batch ID>
0014

> <Smiles>
CNC(C)C(=O)NC(C(=O)N1Cc2cc([101O:1][101CH2:1]C(C)Nc3cn(C)c(=O)c([100N:0](C)[100C:0](=O)N4CCCC(n5nc(-c6ccc(Oc7ccc(F)cc7F)cc6)c(C(N)=O)c5N)C4)c3C)ccc2CC1C(=O)NC1CCCc2ccccc21)C(C)(C)C

> <Shape>
0.243

> <Color>
0.062

> <Negative vol penalty>
0.000

$$$$

  -OEChem-04052315533D

 90 98  0     1  0  0  0  0  0999 V2000
  -30.2463  -35.8689   19.4915 C   0  0  0  0  0  0  0  0  0  0  0  0
  -30.0718  -34.5325   19.1464 C   0  0  0  0  0  0  0  0  0  0  0  0
  -24.3849   -9.9990   20.4833 C   0  0  0  0  0  0  0  0  0  0  0  0
  -23.1248  -12.0580   20.5830 C   0  0  0  0  0  0  0  0  0  0  0  0
  -29.8691  -36.3157   20.7572 C   0  0  0  0  0  0  0  0  0  0  0  0
  -29.5209  -33.6420   20.0671 C   0  0  0  0  0  0  0  0  0  0  0  0
  -25.8641  -28.8822   18.8510 C   0  0  0  0  0  0  0  0  0  0  0  0
  -23.2544   -9.2877   20.8850 C   0  0  0  0  0  0  0  0  0  0  0  0
  -21.9942  -11.3466   20.9846 C   0  0  0  0  0  0  0  0  0  0  0  0
  -26.1139  -27.5169   18.7203 C   0  0  0  0  0  0  0  0  0  0  0  0
  -21.6001   -8.6598   23.7648 C   0  0  0  0  0  0  0  0  0  0  0  0
  -21.7637   -7.6879   24.7518 C   0  0  0  0  0  0  0  0  0  0  0  0
  -25.4757  -27.1858   21.0229 C   0  0  0  0  0  0  0  0  0  0  0  0
  -28.3449  -21.8642   23.6668 C   0  0  0  0  0  0  0  0  0  0  0  0
  -28.8618  -20.3601   21.8482 C   0  0  0  0  0  0  0  0  0  0  0  0
  -20.9607   -5.9992   23.2219 C   0  0  0  0  0  0  0  0  0  0  0  0
  -24.3202  -11.3842   20.3323 C   0  0  0  0  0  0  0  0  0  0  0  0
  -25.8782  -12.4227   18.5998 C   0  0  0  0  0  0  0  0  0  0  0  0
  -29.3043  -35.4322   21.6906 C   0  0  0  0  0  0  0  0  0  0  0  0
  -25.4280  -29.4121   20.0738 C   0  0  0  0  0  0  0  0  0  0  0  0
  -29.1370  -34.0771   21.3470 C   0  0  0  0  0  0  0  0  0  0  0  0
  -25.2187  -28.5578   21.1658 C   0  0  0  0  0  0  0  0  0  0  0  0
  -28.2609  -22.9253   22.7654 C   0  0  0  0  0  0  0  0  0  0  0  0
  -28.6454  -20.5816   23.2082 C   0  0  0  0  0  0  0  0  0  0  0  0
  -28.4773  -22.7038   21.4053 C   0  0  0  0  0  0  0  0  0  0  0  0
  -22.0590   -9.9614   21.1356 C   0  0  0  0  0  0  0  0  0  0  0  0
  -25.9225  -26.6688   19.8071 C   0  0  0  0  0  0  0  0  0  0  0  0
  -21.1167   -8.3015   22.5064 C   0  0  0  0  0  0  0  0  0  0  0  0
  -21.4440   -6.3575   24.4803 C   0  0  0  0  0  0  0  0  0  0  0  0
  -28.7777  -21.4211   20.9467 C   0  0  0  0  0  0  0  0  0  0  0  0
  -20.7970   -6.9712   22.2349 C   0  0  0  0  0  0  0  0  0  0  0  0
  -25.4879  -12.1197   19.9180 C   0  0  0  0  0  0  0  0  0  0  0  0
  -27.0461  -13.1315   18.7419 C   0  0  0  0  0  0  0  0  0  0  0  0
  -25.2421  -12.0929   17.3579 C   0  0  0  0  0  0  0  0  0  0  0  0
  -26.5931  -31.5199   22.1483 C   0  0  0  0  0  0  0  0  0  0  0  0
  -23.7158  -31.1076   23.5883 C   0  0  0  0  0  0  0  0  0  0  0  0
  -30.5205  -18.0495   23.4283 C   0  0  0  0  0  0  0  0  0  0  0  0
  -20.9898  -29.1188   24.0984 C   0  0  0  0  0  0  0  0  0  0  0  0
  -30.1461  -16.9665   21.1790 C   0  0  0  0  0  0  0  0  0  0  0  0
  -28.9557  -35.9515   23.0630 C   0  0  0  0  0  0  0  0  0  0  0  0
  -25.1373  -30.8833   20.1909 C   0  0  0  0  0  0  0  0  0  0  0  0
  -24.7321  -29.0738   22.4945 C   0  0  0  0  0  0  0  0  0  0  0  0
  -28.0332  -35.0235   23.8491 C   0  0  0  0  0  0  0  0  0  0  0  0
  -29.9821  -13.8778   22.7900 C   0  0  0  0  0  0  0  0  0  0  0  0
  -28.5245  -33.5821   23.7606 C   0  0  0  0  0  0  0  0  0  0  0  0
  -28.8321  -13.1610   22.0806 C   0  0  0  0  0  0  0  0  0  0  0  0
  -29.6654  -15.3548   23.0025 C   0  0  0  0  0  0  0  0  0  0  0  0
  -28.1584  -15.3782   21.0444 C   0  0  0  0  0  0  0  0  0  0  0  0
  -28.5199  -33.0859   22.3096 C   0  0  1  0  0  0  0  0  0  0  0  0
  -25.1892  -31.3900   21.6290 C   0  0  1  0  0  0  0  0  0  0  0  0
  -28.4401  -13.8868   20.7798 C   0  0  2  0  0  0  0  0  0  0  0  0
  -27.9376  -24.2887   23.2843 C   0  0  0  0  0  0  0  0  0  0  0  0
  -18.8198  -29.0354   25.3560 C   0  0  0  0  0  0  0  0  0  0  0  0
  -32.9786  -16.6464   21.3765 C   0  0  0  0  0  0  0  0  0  0  0  0
  -32.3936  -18.9748   20.6284 C   0  0  0  0  0  0  0  0  0  0  0  0
  -25.2333  -30.4814   26.1603 C   0  0  0  0  0  0  0  0  0  0  0  0
  -23.1229  -29.5014   27.0845 C   0  0  0  0  0  0  0  0  0  0  0  0
  -23.2084  -31.9168   26.4669 C   0  0  0  0  0  0  0  0  0  0  0  0
  -28.5045  -19.7479   25.5418 C   0  0  0  0  0  0  0  0  0  0  0  0
  -19.4137  -28.9548   21.5988 C   0  0  0  0  0  0  0  0  0  0  0  0
  -29.0262  -18.1736   23.6720 C   0  0  0  0  0  0  0  0  0  0  0  0
  -27.7936  -23.6274   19.1905 C   0  0  0  0  0  0  0  0  0  0  0  0
  -27.1730  -24.9431   18.7516 C   0  0  0  0  0  0  0  0  0  1  0  0
  -23.1706  -30.1706   24.6389 C   0  0  1  0  0  0  0  0  0  0  0  0
  -19.5022  -29.4174   24.0517 C   0  0  2  0  0  0  0  0  0  0  0  0
  -32.2951  -17.9544   21.7550 C   0  0  0  0  0  0  0  0  0  0  0  0
  -23.6948  -30.5078   26.0633 C   0  0  0  0  0  0  0  0  0  0  0  0
  -26.3387  -12.5969   20.8303 N   0  0  0  0  0  0  0  0  0  0  0  0
  -27.2755  -13.2068   20.0842 N   0  0  0  0  0  0  0  0  0  0  0  0
  -24.4679  -30.5207   22.5609 N   0  0  0  0  0  0  0  0  0  0  0  0
  -29.3001  -15.9926   21.7381 N   0  0  0  0  0  0  0  0  0  0  0  0
  -27.8889  -13.6915   17.8483 N   0  0  0  0  0  0  0  0  0  0  0  0
  -24.0481  -11.3597   17.3929 N   0  0  0  0  0  0  0  0  0  0  0  0
  -28.3937  -23.7674   20.4800 N   0  0  0  0  0  0  0  0  0  0  0  0
  -27.1752  -32.7474   21.8955 N   0  0  0  0  0  0  0  0  0  0  0  0
  -21.7180  -30.2146   24.5109 N   0  0  0  0  0  0  0  0  0  0  0  0
  -28.7307  -19.5153   24.1144 N   0  0  3  0  0  0  0  0  0  0  0  0
  -30.9017  -17.7201   22.1049 N   0  0  0  0  0  0  0  0  0  0  0  0
  -18.8561  -28.6588   22.9435 N   0  3  0  0  0  0  0  0  0  0  0  0
  -25.7269  -12.4242   16.2494 O   0  0  0  0  0  0  0  0  0  0  0  0
  -27.1095  -30.5769   22.7363 O   0  0  0  0  0  0  0  0  0  0  0  0
  -23.4770  -32.3149   23.6722 O   0  0  0  0  0  0  0  0  0  0  0  0
  -31.3304  -18.2125   24.3446 O   0  0  0  0  0  0  0  0  0  0  0  0
  -21.4586  -28.0219   23.8024 O   0  0  0  0  0  0  0  0  0  0  0  0
  -30.2431  -17.1638   19.9633 O   0  0  0  0  0  0  0  0  0  0  0  0
  -20.9556   -9.2675   21.5274 O   0  0  0  0  0  0  0  0  0  0  0  0
  -26.1679  -25.3265   19.6815 O   0  0  0  0  0  0  0  0  0  1  0  0
  -21.6027   -5.4240   25.4277 F   0  0  0  0  0  0  0  0  0  0  0  0
  -28.9866  -21.1963   19.6416 F   0  0  0  0  0  0  0  0  0  0  0  0
  -20.3333   -6.6207   21.0275 F   0  0  0  0  0  0  0  0  0  0  0  0
  1  2  1  0  0  0  0
  1  5  2  0  0  0  0
  2  6  2  0  0  0  0
  3  8  2  0  0  0  0
  3 17  1  0  0  0  0
  4  9  1  0  0  0  0
  4 17  2  0  0  0  0
  5 19  1  0  0  0  0
  6 21  1  0  0  0  0
  7 10  2  0  0  0  0
  7 20  1  0  0  0  0
  8 26  1  0  0  0  0
  9 26  2  0  0  0  0
 10 27  1  0  0  0  0
 11 12  2  0  0  0  0
 11 28  1  0  0  0  0
 12 29  1  0  0  0  0
 13 22  1  0  0  0  0
 13 27  2  0  0  0  0
 14 23  2  0  0  0  0
 14 24  1  0  0  0  0
 15 24  2  0  0  0  0
 15 30  1  0  0  0  0
 16 29  2  0  0  0  0
 16 31  1  0  0  0  0
 17 32  1  0  0  0  0
 18 32  1  0  0  0  0
 18 33  2  0  0  0  0
 18 34  1  0  0  0  0
 19 21  2  0  0  0  0
 19 40  1  0  0  0  0
 20 22  2  0  0  0  0
 20 41  1  0  0  0  0
 21 49  1  0  0  0  0
 22 42  1  0  0  0  0
 23 25  1  0  0  0  0
 23 52  1  0  0  0  0
 24 77  1  0  0  0  0
 25 30  2  0  0  0  0
 25 74  1  0  0  0  0
 26 86  1  0  0  0  0
 27 87  1  0  0  0  0
 28 31  2  0  0  0  0
 28 86  1  0  0  0  0
 29 88  1  0  0  0  0
 30 89  1  0  0  0  0
 31 90  1  0  0  0  0
 32 68  2  0  0  0  0
 33 69  1  0  0  0  0
 33 72  1  0  0  0  0
 34 73  1  0  0  0  0
 34 80  2  0  0  0  0
 35 50  1  0  0  0  0
 35 75  1  0  0  0  0
 35 81  2  0  0  0  0
 36 64  1  0  0  0  0
 36 70  1  0  0  0  0
 36 82  2  0  0  0  0
 37 61  1  0  0  0  0
 37 78  1  0  0  0  0
 37 83  2  0  0  0  0
 38 65  1  0  0  0  0
 38 76  1  0  0  0  0
 38 84  2  0  0  0  0
 39 71  1  0  0  0  0
 39 78  1  0  0  0  0
 39 85  2  0  0  0  0
 40 43  1  0  0  0  0
 41 50  1  0  0  0  0
 42 70  1  0  0  0  0
 43 45  1  0  0  0  0
 44 46  1  0  0  0  0
 44 47  1  0  0  0  0
 45 49  1  0  0  0  0
 46 51  1  0  0  0  0
 47 71  1  0  0  0  0
 48 51  1  0  0  0  0
 48 71  1  0  0  0  0
 49 75  1  0  0  0  0
 50 70  1  0  0  0  0
 51 69  1  0  0  0  0
 53 65  1  0  0  0  0
 54 66  1  0  0  0  0
 55 66  1  0  0  0  0
 56 67  1  0  0  0  0
 57 67  1  0  0  0  0
 58 67  1  0  0  0  0
 59 77  1  0  0  0  0
 60 79  1  0  0  0  0
 61 77  1  0  0  0  0
 62 63  1  0  0  0  0
 62 74  1  0  0  0  0
 63 87  1  0  0  0  0
 64 67  1  0  0  0  0
 64 76  1  0  0  0  0
 65 79  1  0  0  0  0
 66 78  1  0  0  0  0
 68 69  1  0  0  0  0
M  CHG  1  79   1
M  ISO  4  39 100  63 101  78 100  87 101
M  END
> <Batch ID>
0014

> <Smiles>
CNC(C)C(=O)NC(C(=O)N1Cc2cc([101O:1][101CH2:1]CNc3c(C)cc(N(C)CC(=O)[100N:0](C(C)C)[100C:0](=O)N4CCCC(n5nc(-c6ccc(Oc7ccc(F)cc7F)cc6)c(C(N)=O)c5N)C4)cc3F)ccc2CC1C(=O)NC1CCCc2ccccc21)C(C)(C)C

> <Shape>
0.281

> <Color>
0.074

> <Negative vol penalty>
0.000

$$$$

  -OEChem-04052315533D

 85 93  0     1  0  0  0  0  0999 V2000
  -17.2877  -25.9260   21.8185 C   0  0  0  0  0  0  0  0  0  0  0  0
  -18.5331  -25.8601   21.2018 C   0  0  0  0  0  0  0  0  0  0  0  0
  -22.1359  -12.0840   20.0497 C   0  0  0  0  0  0  0  0  0  0  0  0
  -22.2273  -13.5606   21.9598 C   0  0  0  0  0  0  0  0  0  0  0  0
  -17.0614  -26.8561   22.8322 C   0  0  0  0  0  0  0  0  0  0  0  0
  -19.5525  -26.7251   21.5979 C   0  0  0  0  0  0  0  0  0  0  0  0
  -23.9995  -24.3652   22.1457 C   0  0  0  0  0  0  0  0  0  0  0  0
  -21.1194  -11.3524   20.6639 C   0  0  0  0  0  0  0  0  0  0  0  0
  -21.2107  -12.8291   22.5739 C   0  0  0  0  0  0  0  0  0  0  0  0
  -24.7111  -24.0701   20.9837 C   0  0  0  0  0  0  0  0  0  0  0  0
  -20.9108   -9.9205   24.2713 C   0  0  0  0  0  0  0  0  0  0  0  0
  -21.0695   -9.5952   25.6183 C   0  0  0  0  0  0  0  0  0  0  0  0
  -26.1090  -26.0003   21.3568 C   0  0  0  0  0  0  0  0  0  0  0  0
  -31.3258  -18.9537   21.0001 C   0  0  0  0  0  0  0  0  0  0  0  0
  -19.0491  -10.8089   26.1494 C   0  0  0  0  0  0  0  0  0  0  0  0
  -22.6899  -13.1880   20.6977 C   0  0  0  0  0  0  0  0  0  0  0  0
  -23.5932  -15.0549   19.2123 C   0  0  0  0  0  0  0  0  0  0  0  0
  -18.0815  -27.7264   23.2474 C   0  0  0  0  0  0  0  0  0  0  0  0
  -24.3309  -25.4881   22.9174 C   0  0  0  0  0  0  0  0  0  0  0  0
  -19.3392  -27.6687   22.6171 C   0  0  0  0  0  0  0  0  0  0  0  0
  -25.4017  -26.3060   22.5296 C   0  0  0  0  0  0  0  0  0  0  0  0
  -31.8560  -20.1988   21.3383 C   0  0  0  0  0  0  0  0  0  0  0  0
  -29.8581  -21.2747   20.5088 C   0  0  0  0  0  0  0  0  0  0  0  0
  -30.0618  -18.8691   20.4163 C   0  0  0  0  0  0  0  0  0  0  0  0
  -20.6568  -11.7250   21.9259 C   0  0  0  0  0  0  0  0  0  0  0  0
  -25.7642  -24.8893   20.5875 C   0  0  0  0  0  0  0  0  0  0  0  0
  -19.8213  -10.6900   23.8633 C   0  0  0  0  0  0  0  0  0  0  0  0
  -20.1387  -10.0393   26.5574 C   0  0  0  0  0  0  0  0  0  0  0  0
  -18.8905  -11.1342   24.8023 C   0  0  0  0  0  0  0  0  0  0  0  0
  -31.1221  -21.3593   21.0926 C   0  0  0  0  0  0  0  0  0  0  0  0
  -29.3280  -20.0296   20.1706 C   0  0  0  0  0  0  0  0  0  0  0  0
  -23.7403  -13.9438   20.0641 C   0  0  0  0  0  0  0  0  0  0  0  0
  -24.8789  -15.4059   18.8805 C   0  0  0  0  0  0  0  0  0  0  0  0
  -22.4008  -15.7112   18.7614 C   0  0  0  0  0  0  0  0  0  0  0  0
  -22.8157  -28.1480   23.7736 C   0  0  0  0  0  0  0  0  0  0  0  0
  -28.5732  -24.0420   18.5031 C   0  0  0  0  0  0  0  0  0  0  0  0
  -25.4710  -28.6162   25.5770 C   0  0  0  0  0  0  0  0  0  0  0  0
  -28.7847  -27.9706   26.0768 C   0  0  0  0  0  0  0  0  0  0  0  0
  -30.1837  -16.3565   20.2801 C   0  0  0  0  0  0  0  0  0  0  0  0
  -17.7752  -28.7470   24.3148 C   0  0  0  0  0  0  0  0  0  0  0  0
  -23.5706  -25.7776   24.1826 C   0  0  0  0  0  0  0  0  0  0  0  0
  -25.8104  -27.5119   23.3340 C   0  0  0  0  0  0  0  0  0  0  0  0
  -19.0219  -29.3744   24.9333 C   0  0  0  0  0  0  0  0  0  0  0  0
  -29.2558  -12.9793   19.6396 C   0  0  0  0  0  0  0  0  0  0  0  0
  -20.0073  -29.7881   23.8449 C   0  0  0  0  0  0  0  0  0  0  0  0
  -27.7261  -13.0205   19.6229 C   0  0  0  0  0  0  0  0  0  0  0  0
  -29.8374  -13.9294   20.6850 C   0  0  0  0  0  0  0  0  0  0  0  0
  -27.8327  -15.3573   20.5794 C   0  0  0  0  0  0  0  0  0  0  0  0
  -20.4778  -28.5733   23.0359 C   0  0  1  0  0  0  0  0  0  0  0  0
  -23.6644  -27.2375   24.6153 C   0  0  1  0  0  0  0  0  0  0  0  0
  -27.2026  -14.4648   19.4977 C   0  0  2  0  0  0  0  0  0  0  0  0
  -33.2068  -20.2864   21.9645 C   0  0  0  0  0  0  0  0  0  0  0  0
  -28.6095  -24.4005   17.0368 C   0  0  0  0  0  0  0  0  0  0  0  0
  -30.6900  -28.5259   27.6126 C   0  0  0  0  0  0  0  0  0  0  0  0
  -25.7266  -31.3587   24.2644 C   0  0  0  0  0  0  0  0  0  0  0  0
  -28.0877  -31.4573   25.0914 C   0  0  0  0  0  0  0  0  0  0  0  0
  -26.2021  -31.3288   26.7195 C   0  0  0  0  0  0  0  0  0  0  0  0
  -29.1239  -25.1392   26.8685 C   0  0  0  0  0  0  0  0  0  0  0  0
  -29.1003  -22.5494   20.2636 C   0  0  0  0  0  0  0  0  0  0  0  0
  -27.8324  -24.9934   19.4181 C   0  0  0  0  0  0  0  0  0  1  0  0
  -26.8068  -29.2851   25.3595 C   0  0  1  0  0  0  0  0  0  0  0  0
  -29.5544  -27.5580   27.3184 C   0  0  2  0  0  0  0  0  0  0  0  0
  -26.6971  -30.8359   25.3423 C   0  0  0  0  0  0  0  0  0  0  0  0
  -25.0187  -13.6107   20.2610 N   0  0  0  0  0  0  0  0  0  0  0  0
  -29.1410  -22.9426   18.8652 N   0  0  0  0  0  0  0  0  0  0  0  0
  -25.6866  -14.5180   19.5282 N   0  0  0  0  0  0  0  0  0  0  0  0
  -25.0324  -27.7568   24.5597 N   0  0  0  0  0  0  0  0  0  0  0  0
  -29.2999  -15.2793   20.5019 N   0  0  0  0  0  0  0  0  0  0  0  0
  -25.3862  -16.3842   18.1008 N   0  0  0  0  0  0  0  0  0  0  0  0
  -21.1625  -15.2214   19.1984 N   0  0  0  0  0  0  0  0  0  0  0  0
  -29.5563  -17.5869   20.0874 N   0  0  0  0  0  0  0  0  0  0  0  0
  -21.4717  -27.8268   23.7770 N   0  0  0  0  0  0  0  0  0  0  0  0
  -27.6983  -28.7605   26.3883 N   0  0  0  0  0  0  0  0  0  0  0  0
  -30.1321  -26.1958   27.1410 N   0  3  0  0  0  0  0  0  0  0  0  0
  -22.4320  -16.6925   17.9807 O   0  0  0  0  0  0  0  0  0  0  0  0
  -23.3410  -29.0743   23.1672 O   0  0  0  0  0  0  0  0  0  0  0  0
  -24.8433  -28.8421   26.6146 O   0  0  0  0  0  0  0  0  0  0  0  0
  -29.1163  -27.6296   24.9435 O   0  0  0  0  0  0  0  0  0  0  0  0
  -31.4059  -16.1945   20.2352 O   0  0  0  0  0  0  0  0  0  0  0  0
  -19.6647  -11.0115   22.5254 O   0  0  0  0  0  0  0  0  0  0  0  0
  -26.4600  -24.6039   19.4534 O   0  0  0  0  0  0  0  0  0  1  0  0
  -20.2904   -9.7256   27.8507 F   0  0  0  0  0  0  0  0  0  0  0  0
  -17.8411  -11.8728   24.4162 F   0  0  0  0  0  0  0  0  0  0  0  0
  -31.6329  -22.5558   21.4196 F   0  0  0  0  0  0  0  0  0  0  0  0
  -27.7563  -19.9303   19.4456 Cl  0  0  0  0  0  0  0  0  0  0  0  0
  1  2  1  0  0  0  0
  1  5  2  0  0  0  0
  2  6  2  0  0  0  0
  3  8  2  0  0  0  0
  3 16  1  0  0  0  0
  4  9  1  0  0  0  0
  4 16  2  0  0  0  0
  5 18  1  0  0  0  0
  6 20  1  0  0  0  0
  7 10  2  0  0  0  0
  7 19  1  0  0  0  0
  8 25  1  0  0  0  0
  9 25  2  0  0  0  0
 10 26  1  0  0  0  0
 11 12  2  0  0  0  0
 11 27  1  0  0  0  0
 12 28  1  0  0  0  0
 13 21  1  0  0  0  0
 13 26  2  0  0  0  0
 14 22  1  0  0  0  0
 14 24  2  0  0  0  0
 15 28  2  0  0  0  0
 15 29  1  0  0  0  0
 16 32  1  0  0  0  0
 17 32  1  0  0  0  0
 17 33  2  0  0  0  0
 17 34  1  0  0  0  0
 18 20  2  0  0  0  0
 18 40  1  0  0  0  0
 19 21  2  0  0  0  0
 19 41  1  0  0  0  0
 20 49  1  0  0  0  0
 21 42  1  0  0  0  0
 22 30  2  0  0  0  0
 22 52  1  0  0  0  0
 23 30  1  0  0  0  0
 23 31  2  0  0  0  0
 23 59  1  0  0  0  0
 24 31  1  0  0  0  0
 24 71  1  0  0  0  0
 25 80  1  0  0  0  0
 26 81  1  0  0  0  0
 27 29  2  0  0  0  0
 27 80  1  0  0  0  0
 28 82  1  0  0  0  0
 29 83  1  0  0  0  0
 30 84  1  0  0  0  0
 31 85  1  0  0  0  0
 32 64  2  0  0  0  0
 33 66  1  0  0  0  0
 33 69  1  0  0  0  0
 34 70  1  0  0  0  0
 34 75  2  0  0  0  0
 35 50  1  0  0  0  0
 35 72  1  0  0  0  0
 35 76  2  0  0  0  0
 36 53  1  0  0  0  0
 36 60  1  0  0  0  0
 36 65  2  0  0  0  0
 37 61  1  0  0  0  0
 37 67  1  0  0  0  0
 37 77  2  0  0  0  0
 38 62  1  0  0  0  0
 38 73  1  0  0  0  0
 38 78  2  0  0  0  0
 39 68  1  0  0  0  0
 39 71  1  0  0  0  0
 39 79  2  0  0  0  0
 40 43  1  0  0  0  0
 41 50  1  0  0  0  0
 42 67  1  0  0  0  0
 43 45  1  0  0  0  0
 44 46  1  0  0  0  0
 44 47  1  0  0  0  0
 45 49  1  0  0  0  0
 46 51  1  0  0  0  0
 47 68  1  0  0  0  0
 48 51  1  0  0  0  0
 48 68  1  0  0  0  0
 49 72  1  0  0  0  0
 50 67  1  0  0  0  0
 51 66  1  0  0  0  0
 54 62  1  0  0  0  0
 55 63  1  0  0  0  0
 56 63  1  0  0  0  0
 57 63  1  0  0  0  0
 58 74  1  0  0  0  0
 59 65  1  0  0  0  0
 60 81  1  0  0  0  0
 61 63  1  0  0  0  0
 61 73  1  0  0  0  0
 62 74  1  0  0  0  0
 64 66  1  0  0  0  0
M  CHG  1  74   1
M  ISO  4  39 100  60 101  71 100  81 101
M  END
> <Batch ID>
0014

> <Smiles>
C=C(NCc1c(F)c(C)cc([100NH:0][100C:0](=O)N2CCCC(n3nc(-c4ccc(Oc5ccc(F)cc5F)cc4)c(C(N)=O)c3N)C2)c1Cl)[101CH2:1][101O:1]c1ccc2c(c1)CN(C(=O)C(NC(=O)C(C)NC)C(C)(C)C)C(C(=O)NC1CCCc3ccccc31)C2

> <Shape>
0.233

> <Color>
0.068

> <Negative vol penalty>
0.000

$$$$

  -OEChem-04052315533D

 86 94  0     1  0  0  0  0  0999 V2000
  -34.7598  -19.7240   34.3018 C   0  0  0  0  0  0  0  0  0  0  0  0
  -33.9290  -19.0351   33.4239 C   0  0  0  0  0  0  0  0  0  0  0  0
  -23.0755   -9.8681   19.9405 C   0  0  0  0  0  0  0  0  0  0  0  0
  -23.8347   -9.8747   22.2341 C   0  0  0  0  0  0  0  0  0  0  0  0
  -34.2416  -20.7518   35.0885 C   0  0  0  0  0  0  0  0  0  0  0  0
  -32.5792  -19.3730   33.3330 C   0  0  0  0  0  0  0  0  0  0  0  0
  -30.9646  -19.6522   28.5414 C   0  0  0  0  0  0  0  0  0  0  0  0
  -22.3313   -8.7152   20.1902 C   0  0  0  0  0  0  0  0  0  0  0  0
  -23.0904   -8.7217   22.4838 C   0  0  0  0  0  0  0  0  0  0  0  0
  -30.7002  -18.4496   27.8875 C   0  0  0  0  0  0  0  0  0  0  0  0
  -19.8619   -7.9247   23.0853 C   0  0  0  0  0  0  0  0  0  0  0  0
  -19.1046   -7.8849   24.2560 C   0  0  0  0  0  0  0  0  0  0  0  0
  -28.3435  -18.7454   28.3094 C   0  0  0  0  0  0  0  0  0  0  0  0
  -31.1580  -17.6733   20.5909 C   0  0  0  0  0  0  0  0  0  0  0  0
  -29.7143  -19.2881   22.3489 C   0  0  0  0  0  0  0  0  0  0  0  0
  -20.3453   -5.9471   24.9927 C   0  0  0  0  0  0  0  0  0  0  0  0
  -23.8273  -10.4479   20.9625 C   0  0  0  0  0  0  0  0  0  0  0  0
  -24.1698  -12.9730   20.8427 C   0  0  0  0  0  0  0  0  0  0  0  0
  -32.8869  -21.1089   35.0003 C   0  0  0  0  0  0  0  0  0  0  0  0
  -29.9198  -20.4063   29.0947 C   0  0  0  0  0  0  0  0  0  0  0  0
  -32.0421  -20.4057   34.1203 C   0  0  0  0  0  0  0  0  0  0  0  0
  -28.5971  -19.9585   28.9676 C   0  0  0  0  0  0  0  0  0  0  0  0
  -31.3417  -19.0559   20.5784 C   0  0  0  0  0  0  0  0  0  0  0  0
  -30.2523  -17.0981   21.4822 C   0  0  0  0  0  0  0  0  0  0  0  0
  -29.5304  -17.9055   22.3613 C   0  0  0  0  0  0  0  0  0  0  0  0
  -22.3387   -8.1420   21.4618 C   0  0  0  0  0  0  0  0  0  0  0  0
  -29.3898  -17.9946   27.7740 C   0  0  0  0  0  0  0  0  0  0  0  0
  -20.8609   -6.9757   22.8682 C   0  0  0  0  0  0  0  0  0  0  0  0
  -19.3463   -6.8961   25.2097 C   0  0  0  0  0  0  0  0  0  0  0  0
  -30.6199  -19.8634   21.4575 C   0  0  0  0  0  0  0  0  0  0  0  0
  -21.1026   -5.9869   23.8219 C   0  0  0  0  0  0  0  0  0  0  0  0
  -24.5968  -11.6386   20.7051 C   0  0  0  0  0  0  0  0  0  0  0  0
  -25.2623  -13.7222   20.4798 C   0  0  0  0  0  0  0  0  0  0  0  0
  -22.8993  -13.4891   21.2614 C   0  0  0  0  0  0  0  0  0  0  0  0
  -29.1490  -21.3573   32.0281 C   0  0  0  0  0  0  0  0  0  0  0  0
  -26.8315  -23.0030   30.4650 C   0  0  0  0  0  0  0  0  0  0  0  0
  -29.0546  -16.4012   24.2489 C   0  0  0  0  0  0  0  0  0  0  0  0
  -24.8580  -23.3055   27.6973 C   0  0  0  0  0  0  0  0  0  0  0  0
  -30.7287  -14.7663   20.6562 C   0  0  0  0  0  0  0  0  0  0  0  0
  -32.3620  -22.1952   35.9053 C   0  0  0  0  0  0  0  0  0  0  0  0
  -30.2191  -21.7147   29.7735 C   0  0  0  0  0  0  0  0  0  0  0  0
  -27.4379  -20.7409   29.5265 C   0  0  0  0  0  0  0  0  0  0  0  0
  -31.0025  -22.7412   35.4765 C   0  0  0  0  0  0  0  0  0  0  0  0
  -29.6143  -12.3530   18.2874 C   0  0  0  0  0  0  0  0  0  0  0  0
  -30.0486  -21.5979   35.1450 C   0  0  0  0  0  0  0  0  0  0  0  0
  -28.1745  -12.0618   18.7165 C   0  0  0  0  0  0  0  0  0  0  0  0
  -30.5291  -12.5815   19.4893 C   0  0  0  0  0  0  0  0  0  0  0  0
  -28.6220  -13.3063   20.8701 C   0  0  0  0  0  0  0  0  0  0  0  0
  -30.5779  -20.7594   33.9754 C   0  0  1  0  0  0  0  0  0  0  0  0
  -29.1279  -22.1452   30.7489 C   0  0  1  0  0  0  0  0  0  0  0  0
  -27.6495  -13.1334   19.6920 C   0  0  2  0  0  0  0  0  0  0  0  0
  -32.3129  -19.6680   19.6260 C   0  0  0  0  0  0  0  0  0  0  0  0
  -28.4804  -14.4224   25.6637 C   0  0  0  0  0  0  0  0  0  0  0  0
  -23.0341  -24.7284   26.7243 C   0  0  0  0  0  0  0  0  0  0  0  0
  -24.8105  -21.6853   32.3328 C   0  0  0  0  0  0  0  0  0  0  0  0
  -23.0003  -22.3725   30.7456 C   0  0  0  0  0  0  0  0  0  0  0  0
  -24.3872  -24.1081   31.8800 C   0  0  0  0  0  0  0  0  0  0  0  0
  -27.1744  -17.7463   23.2140 C   0  0  0  0  0  0  0  0  0  0  0  0
  -26.5310  -24.0681   25.3781 C   0  0  0  0  0  0  0  0  0  0  0  0
  -27.8689  -16.7060   26.4769 C   0  0  0  0  0  0  0  0  0  1  0  0
  -25.4129  -22.7093   30.0406 C   0  0  1  0  0  0  0  0  0  0  0  0
  -28.0258  -15.8178   25.2344 C   0  0  1  0  0  0  0  0  0  0  0  0
  -24.5347  -24.4987   26.8162 C   0  0  2  0  0  0  0  0  0  0  0  0
  -24.4245  -22.7029   31.2408 C   0  0  0  0  0  0  0  0  0  0  0  0
  -25.8617  -11.5425   20.2871 N   0  0  0  0  0  0  0  0  0  0  0  0
  -26.2390  -12.8259   20.1590 N   0  0  0  0  0  0  0  0  0  0  0  0
  -27.7824  -22.0108   30.1869 N   0  0  0  0  0  0  0  0  0  0  0  0
  -29.9702  -13.6124   20.3666 N   0  0  0  0  0  0  0  0  0  0  0  0
  -25.4730  -15.0536   20.4070 N   0  0  0  0  0  0  0  0  0  0  0  0
  -21.8871  -12.5801   21.5983 N   0  0  0  0  0  0  0  0  0  0  0  0
  -30.0813  -15.6915   21.4745 N   0  0  0  0  0  0  0  0  0  0  0  0
  -30.3428  -21.4388   32.7193 N   0  0  0  0  0  0  0  0  0  0  0  0
  -25.0873  -23.6825   29.0036 N   0  0  0  0  0  0  0  0  0  0  0  0
  -28.5838  -17.3325   23.2971 N   0  0  0  0  0  0  0  0  0  0  0  0
  -25.0624  -24.2838   25.4391 N   0  3  0  0  0  0  0  0  0  0  0  0
  -22.6634  -14.7198   21.3187 O   0  0  0  0  0  0  0  0  0  0  0  0
  -28.1553  -20.7237   32.3640 O   0  0  0  0  0  0  0  0  0  0  0  0
  -27.0879  -24.0763   31.0163 O   0  0  0  0  0  0  0  0  0  0  0  0
  -30.2327  -16.0393   24.3369 O   0  0  0  0  0  0  0  0  0  0  0  0
  -24.8990  -22.1538   27.2702 O   0  0  0  0  0  0  0  0  0  0  0  0
  -31.8580  -14.9348   20.1889 O   0  0  0  0  0  0  0  0  0  0  0  0
  -21.6124   -7.0170   21.7058 O   0  0  0  0  0  0  0  0  0  0  0  0
  -29.1289  -16.8208   27.1368 O   0  0  0  0  0  0  0  0  0  1  0  0
  -18.6201   -6.8589   26.3345 F   0  0  0  0  0  0  0  0  0  0  0  0
  -30.7893  -21.1930   21.4524 F   0  0  0  0  0  0  0  0  0  0  0  0
  -22.0617   -5.0732   23.6195 F   0  0  0  0  0  0  0  0  0  0  0  0
  1  2  1  0  0  0  0
  1  5  2  0  0  0  0
  2  6  2  0  0  0  0
  3  8  2  0  0  0  0
  3 17  1  0  0  0  0
  4  9  1  0  0  0  0
  4 17  2  0  0  0  0
  5 19  1  0  0  0  0
  6 21  1  0  0  0  0
  7 10  2  0  0  0  0
  7 20  1  0  0  0  0
  8 26  1  0  0  0  0
  9 26  2  0  0  0  0
 10 27  1  0  0  0  0
 11 12  2  0  0  0  0
 11 28  1  0  0  0  0
 12 29  1  0  0  0  0
 13 22  1  0  0  0  0
 13 27  2  0  0  0  0
 14 23  2  0  0  0  0
 14 24  1  0  0  0  0
 15 25  1  0  0  0  0
 15 30  2  0  0  0  0
 16 29  2  0  0  0  0
 16 31  1  0  0  0  0
 17 32  1  0  0  0  0
 18 32  1  0  0  0  0
 18 33  2  0  0  0  0
 18 34  1  0  0  0  0
 19 21  2  0  0  0  0
 19 40  1  0  0  0  0
 20 22  2  0  0  0  0
 20 41  1  0  0  0  0
 21 49  1  0  0  0  0
 22 42  1  0  0  0  0
 23 30  1  0  0  0  0
 23 52  1  0  0  0  0
 24 25  2  0  0  0  0
 24 71  1  0  0  0  0
 25 74  1  0  0  0  0
 26 82  1  0  0  0  0
 27 83  1  0  0  0  0
 28 31  2  0  0  0  0
 28 82  1  0  0  0  0
 29 84  1  0  0  0  0
 30 85  1  0  0  0  0
 31 86  1  0  0  0  0
 32 65  2  0  0  0  0
 33 66  1  0  0  0  0
 33 69  1  0  0  0  0
 34 70  1  0  0  0  0
 34 76  2  0  0  0  0
 35 50  1  0  0  0  0
 35 72  1  0  0  0  0
 35 77  2  0  0  0  0
 36 61  1  0  0  0  0
 36 67  1  0  0  0  0
 36 78  2  0  0  0  0
 37 62  1  0  0  0  0
 37 74  1  0  0  0  0
 37 79  2  0  0  0  0
 38 63  1  0  0  0  0
 38 73  1  0  0  0  0
 38 80  2  0  0  0  0
 39 68  1  0  0  0  0
 39 71  1  0  0  0  0
 39 81  2  0  0  0  0
 40 43  1  0  0  0  0
 41 50  1  0  0  0  0
 42 67  1  0  0  0  0
 43 45  1  0  0  0  0
 44 46  1  0  0  0  0
 44 47  1  0  0  0  0
 45 49  1  0  0  0  0
 46 51  1  0  0  0  0
 47 68  1  0  0  0  0
 48 51  1  0  0  0  0
 48 68  1  0  0  0  0
 49 72  1  0  0  0  0
 50 67  1  0  0  0  0
 51 66  1  0  0  0  0
 53 62  1  0  0  0  0
 54 63  1  0  0  0  0
 55 64  1  0  0  0  0
 56 64  1  0  0  0  0
 57 64  1  0  0  0  0
 58 74  1  0  0  0  0
 59 75  1  0  0  0  0
 60 62  1  0  0  0  0
 60 83  1  0  0  0  0
 61 64  1  0  0  0  0
 61 73  1  0  0  0  0
 63 75  1  0  0  0  0
 65 66  1  0  0  0  0
M  CHG  1  75   1
M  ISO  4  39 100  60 101  71 100  83 101
M  END
> <Batch ID>
0014

> <Smiles>
CNC(C)C(=O)NC(C(=O)N1Cc2cc([101O:1][101CH2:1]C(C)C(=O)N(C)c3cc(F)c(C)cc3[100NH:0][100C:0](=O)N3CCCC(n4nc(-c5ccc(Oc6ccc(F)cc6F)cc5)c(C(N)=O)c4N)C3)ccc2CC1C(=O)NC1CCCc2ccccc21)C(C)(C)C

> <Shape>
0.177

> <Color>
0.192

> <Negative vol penalty>
0.000

$$$$

  -OEChem-04052315533D

 84 92  0     1  0  0  0  0  0999 V2000
  -17.0432  -25.4591   22.2543 C   0  0  0  0  0  0  0  0  0  0  0  0
  -18.1722  -24.6807   22.0199 C   0  0  0  0  0  0  0  0  0  0  0  0
  -26.7534  -14.7563   21.5952 C   0  0  0  0  0  0  0  0  0  0  0  0
  -26.4838  -14.7228   19.1945 C   0  0  0  0  0  0  0  0  0  0  0  0
  -17.1777  -26.8260   22.4936 C   0  0  0  0  0  0  0  0  0  0  0  0
  -19.4364  -25.2692   22.0235 C   0  0  0  0  0  0  0  0  0  0  0  0
  -26.2541  -23.8415   23.6958 C   0  0  0  0  0  0  0  0  0  0  0  0
  -26.5247  -13.3811   21.6401 C   0  0  0  0  0  0  0  0  0  0  0  0
  -26.2551  -13.3476   19.2394 C   0  0  0  0  0  0  0  0  0  0  0  0
  -27.5324  -23.8926   23.1416 C   0  0  0  0  0  0  0  0  0  0  0  0
  -25.6555   -9.9384   22.4249 C   0  0  0  0  0  0  0  0  0  0  0  0
  -24.7919   -9.4548   23.4076 C   0  0  0  0  0  0  0  0  0  0  0  0
  -27.6499  -26.2488   23.6451 C   0  0  0  0  0  0  0  0  0  0  0  0
  -26.4497  -26.4184   18.6150 C   0  0  0  0  0  0  0  0  0  0  0  0
  -28.4996  -26.9871   19.7600 C   0  0  0  0  0  0  0  0  0  0  0  0
  -23.0054  -10.8064   22.5028 C   0  0  0  0  0  0  0  0  0  0  0  0
  -26.7329  -15.4272   20.3724 C   0  0  0  0  0  0  0  0  0  0  0  0
  -28.2074  -17.4997   20.1771 C   0  0  0  0  0  0  0  0  0  0  0  0
  -18.4449  -27.4298   22.5097 C   0  0  0  0  0  0  0  0  0  0  0  0
  -25.6587  -24.9979   24.2198 C   0  0  0  0  0  0  0  0  0  0  0  0
  -19.5878  -26.6458   22.2619 C   0  0  0  0  0  0  0  0  0  0  0  0
  -26.3650  -26.2092   24.2076 C   0  0  0  0  0  0  0  0  0  0  0  0
  -27.1664  -27.2662   19.4594 C   0  0  0  0  0  0  0  0  0  0  0  0
  -27.0661  -25.2914   18.0712 C   0  0  0  0  0  0  0  0  0  0  0  0
  -29.1161  -25.8602   19.2162 C   0  0  0  0  0  0  0  0  0  0  0  0
  -26.2756  -12.6767   20.4622 C   0  0  0  0  0  0  0  0  0  0  0  0
  -28.2294  -25.0969   23.1136 C   0  0  0  0  0  0  0  0  0  0  0  0
  -25.1942  -10.8561   21.4811 C   0  0  0  0  0  0  0  0  0  0  0  0
  -23.4668   -9.8888   23.4466 C   0  0  0  0  0  0  0  0  0  0  0  0
  -23.8691  -11.2901   21.5201 C   0  0  0  0  0  0  0  0  0  0  0  0
  -28.3993  -25.0123   18.3718 C   0  0  0  0  0  0  0  0  0  0  0  0
  -26.9685  -16.8479   20.3255 C   0  0  0  0  0  0  0  0  0  0  0  0
  -27.8957  -18.8373   20.1926 C   0  0  0  0  0  0  0  0  0  0  0  0
  -29.5224  -16.9457   20.0376 C   0  0  0  0  0  0  0  0  0  0  0  0
  -23.0573  -26.6901   23.5323 C   0  0  0  0  0  0  0  0  0  0  0  0
  -30.7580  -24.8859   20.5761 C   0  0  0  0  0  0  0  0  0  0  0  0
  -23.8844  -28.3209   26.2116 C   0  0  0  0  0  0  0  0  0  0  0  0
  -26.3348  -29.2476   28.3987 C   0  0  0  0  0  0  0  0  0  0  0  0
  -24.6840  -23.1050   18.5750 C   0  0  0  0  0  0  0  0  0  0  0  0
  -18.5365  -28.9196   22.7260 C   0  0  0  0  0  0  0  0  0  0  0  0
  -24.2898  -24.9205   24.8382 C   0  0  0  0  0  0  0  0  0  0  0  0
  -25.7784  -27.4748   24.7756 C   0  0  0  0  0  0  0  0  0  0  0  0
  -19.9413  -29.3978   23.0841 C   0  0  0  0  0  0  0  0  0  0  0  0
  -23.5810  -21.1988   21.3726 C   0  0  0  0  0  0  0  0  0  0  0  0
  -20.9726  -28.7708   22.1513 C   0  0  0  0  0  0  0  0  0  0  0  0
  -24.4615  -19.9486   21.3334 C   0  0  0  0  0  0  0  0  0  0  0  0
  -23.2164  -21.6766   19.9687 C   0  0  0  0  0  0  0  0  0  0  0  0
  -25.2463  -20.6407   19.0304 C   0  0  0  0  0  0  0  0  0  0  0  0
  -20.9782  -27.2430   22.2823 C   0  0  1  0  0  0  0  0  0  0  0  0
  -23.5751  -26.2677   24.8781 C   0  0  1  0  0  0  0  0  0  0  0  0
  -25.6862  -20.1537   20.4217 C   0  0  2  0  0  0  0  0  0  0  0  0
  -26.5073  -28.4710   20.0410 C   0  0  0  0  0  0  0  0  0  0  0  0
  -32.2218  -24.6333   20.8492 C   0  0  0  0  0  0  0  0  0  0  0  0
  -26.7138  -30.6149   30.4685 C   0  0  0  0  0  0  0  0  0  0  0  0
  -23.7621  -30.8736   24.5448 C   0  0  0  0  0  0  0  0  0  0  0  0
  -25.0410  -32.0351   26.3568 C   0  0  0  0  0  0  0  0  0  0  0  0
  -22.7884  -31.0783   26.8392 C   0  0  0  0  0  0  0  0  0  0  0  0
  -27.2204  -26.8813   29.9399 C   0  0  0  0  0  0  0  0  0  0  0  0
  -26.2594  -24.4113   17.1712 C   0  0  0  0  0  0  0  0  0  0  0  0
  -29.7675  -24.2321   21.5192 C   0  0  0  0  0  0  0  0  0  1  0  0
  -24.7518  -29.5203   26.5082 C   0  0  1  0  0  0  0  0  0  0  0  0
  -26.3880  -29.2361   29.9158 C   0  0  2  0  0  0  0  0  0  0  0  0
  -24.0964  -30.8536   26.0497 C   0  0  0  0  0  0  0  0  0  0  0  0
  -25.9460  -17.7011   20.4279 N   0  0  0  0  0  0  0  0  0  0  0  0
  -30.4576  -25.6092   19.5395 N   0  0  0  0  0  0  0  0  0  0  0  0
  -26.5418  -18.9028   20.3438 N   0  0  0  0  0  0  0  0  0  0  0  0
  -24.4346  -27.3493   25.3636 N   0  0  0  0  0  0  0  0  0  0  0  0
  -24.4222  -21.8531   19.1557 N   0  0  0  0  0  0  0  0  0  0  0  0
  -28.6504  -19.9520   20.0915 N   0  0  0  0  0  0  0  0  0  0  0  0
  -29.6638  -15.5513   20.0419 N   0  0  0  0  0  0  0  0  0  0  0  0
  -21.6847  -26.8409   23.4796 N   0  0  0  0  0  0  0  0  0  0  0  0
  -25.0545  -29.4626   27.9341 N   0  0  0  0  0  0  0  0  0  0  0  0
  -25.8509  -23.1882   17.8254 N   0  0  0  0  0  0  0  0  0  0  0  0
  -27.4293  -28.2814   30.3904 N   0  3  0  0  0  0  0  0  0  0  0  0
  -30.5437  -17.6660   19.9293 O   0  0  0  0  0  0  0  0  0  0  0  0
  -23.8448  -26.8676   22.6104 O   0  0  0  0  0  0  0  0  0  0  0  0
  -22.7629  -28.2453   26.7196 O   0  0  0  0  0  0  0  0  0  0  0  0
  -27.3302  -29.0860   27.6961 O   0  0  0  0  0  0  0  0  0  0  0  0
  -23.9360  -24.0781   18.7187 O   0  0  0  0  0  0  0  0  0  0  0  0
  -26.0527  -11.3347   20.5056 O   0  0  0  0  0  0  0  0  0  0  0  0
  -29.4770  -25.1497   22.5727 O   0  0  0  0  0  0  0  0  0  1  0  0
  -22.6372   -9.4231   24.3894 F   0  0  0  0  0  0  0  0  0  0  0  0
  -23.4198  -12.1707   20.6154 F   0  0  0  0  0  0  0  0  0  0  0  0
  -29.1648  -23.6126   17.6963 Cl  0  0  0  0  0  0  0  0  0  0  0  0
  1  2  1  0  0  0  0
  1  5  2  0  0  0  0
  2  6  2  0  0  0  0
  3  8  2  0  0  0  0
  3 17  1  0  0  0  0
  4  9  1  0  0  0  0
  4 17  2  0  0  0  0
  5 19  1  0  0  0  0
  6 21  1  0  0  0  0
  7 10  2  0  0  0  0
  7 20  1  0  0  0  0
  8 26  1  0  0  0  0
  9 26  2  0  0  0  0
 10 27  1  0  0  0  0
 11 12  2  0  0  0  0
 11 28  1  0  0  0  0
 12 29  1  0  0  0  0
 13 22  1  0  0  0  0
 13 27  2  0  0  0  0
 14 23  1  0  0  0  0
 14 24  2  0  0  0  0
 15 23  2  0  0  0  0
 15 25  1  0  0  0  0
 16 29  2  0  0  0  0
 16 30  1  0  0  0  0
 17 32  1  0  0  0  0
 18 32  1  0  0  0  0
 18 33  2  0  0  0  0
 18 34  1  0  0  0  0
 19 21  2  0  0  0  0
 19 40  1  0  0  0  0
 20 22  2  0  0  0  0
 20 41  1  0  0  0  0
 21 49  1  0  0  0  0
 22 42  1  0  0  0  0
 23 52  1  0  0  0  0
 24 31  1  0  0  0  0
 24 59  1  0  0  0  0
 25 31  2  0  0  0  0
 25 65  1  0  0  0  0
 26 80  1  0  0  0  0
 27 81  1  0  0  0  0
 28 30  2  0  0  0  0
 28 80  1  0  0  0  0
 29 82  1  0  0  0  0
 30 83  1  0  0  0  0
 31 84  1  0  0  0  0
 32 64  2  0  0  0  0
 33 66  1  0  0  0  0
 33 69  1  0  0  0  0
 34 70  1  0  0  0  0
 34 75  2  0  0  0  0
 35 50  1  0  0  0  0
 35 71  1  0  0  0  0
 35 76  2  0  0  0  0
 36 53  1  0  0  0  0
 36 60  1  0  0  0  0
 36 65  2  0  0  0  0
 37 61  1  0  0  0  0
 37 67  1  0  0  0  0
 37 77  2  0  0  0  0
 38 62  1  0  0  0  0
 38 72  1  0  0  0  0
 38 78  2  0  0  0  0
 39 68  1  0  0  0  0
 39 73  1  0  0  0  0
 39 79  2  0  0  0  0
 40 43  1  0  0  0  0
 41 50  1  0  0  0  0
 42 67  1  0  0  0  0
 43 45  1  0  0  0  0
 44 46  1  0  0  0  0
 44 47  1  0  0  0  0
 45 49  1  0  0  0  0
 46 51  1  0  0  0  0
 47 68  1  0  0  0  0
 48 51  1  0  0  0  0
 48 68  1  0  0  0  0
 49 71  1  0  0  0  0
 50 67  1  0  0  0  0
 51 66  1  0  0  0  0
 54 62  1  0  0  0  0
 55 63  1  0  0  0  0
 56 63  1  0  0  0  0
 57 63  1  0  0  0  0
 58 74  1  0  0  0  0
 59 73  1  0  0  0  0
 60 81  1  0  0  0  0
 61 63  1  0  0  0  0
 61 72  1  0  0  0  0
 62 74  1  0  0  0  0
 64 66  1  0  0  0  0
M  CHG  1  74   1
M  ISO  4  39 100  60 101  73 100  81 101
M  END
> <Batch ID>
0014

> <Smiles>
C=C(Nc1cc(C)cc(C[100NH:0][100C:0](=O)N2CCCC(n3nc(-c4ccc(Oc5ccc(F)cc5F)cc4)c(C(N)=O)c3N)C2)c1Cl)[101CH2:1][101O:1]c1ccc2c(c1)CN(C(=O)C(NC(=O)C(C)NC)C(C)(C)C)C(C(=O)NC1CCCc3ccccc31)C2

> <Shape>
0.207

> <Color>
0.077

> <Negative vol penalty>
0.000

$$$$

  -OEChem-04052315533D

 86 94  0     1  0  0  0  0  0999 V2000
  -32.6814  -31.5364   25.4880 C   0  0  0  0  0  0  0  0  0  0  0  0
  -32.4631  -30.4839   24.6049 C   0  0  0  0  0  0  0  0  0  0  0  0
  -23.0771   -9.8655   19.9407 C   0  0  0  0  0  0  0  0  0  0  0  0
  -23.8355   -9.8743   22.2346 C   0  0  0  0  0  0  0  0  0  0  0  0
  -32.7000  -32.8483   25.0163 C   0  0  0  0  0  0  0  0  0  0  0  0
  -32.2621  -30.7429   23.2495 C   0  0  0  0  0  0  0  0  0  0  0  0
  -34.8956  -27.6144   20.2625 C   0  0  0  0  0  0  0  0  0  0  0  0
  -22.3340   -8.7120   20.1908 C   0  0  0  0  0  0  0  0  0  0  0  0
  -23.0923   -8.7207   22.4847 C   0  0  0  0  0  0  0  0  0  0  0  0
  -34.3894  -26.3277   20.0844 C   0  0  0  0  0  0  0  0  0  0  0  0
  -19.8644   -7.9208   23.0856 C   0  0  0  0  0  0  0  0  0  0  0  0
  -19.1067   -7.8809   24.2560 C   0  0  0  0  0  0  0  0  0  0  0  0
  -33.4702  -26.9906   17.9549 C   0  0  0  0  0  0  0  0  0  0  0  0
  -31.5710  -19.3874   22.8314 C   0  0  0  0  0  0  0  0  0  0  0  0
  -20.3491   -5.9448   24.9943 C   0  0  0  0  0  0  0  0  0  0  0  0
  -23.8279  -10.4467   20.9626 C   0  0  0  0  0  0  0  0  0  0  0  0
  -24.1680  -12.9720   20.8414 C   0  0  0  0  0  0  0  0  0  0  0  0
  -32.5087  -33.1227   23.6530 C   0  0  0  0  0  0  0  0  0  0  0  0
  -34.6832  -28.6036   19.2915 C   0  0  0  0  0  0  0  0  0  0  0  0
  -32.2768  -32.0597   22.7593 C   0  0  0  0  0  0  0  0  0  0  0  0
  -33.9769  -28.2885   18.1219 C   0  0  0  0  0  0  0  0  0  0  0  0
  -32.2348  -18.2042   23.1554 C   0  0  0  0  0  0  0  0  0  0  0  0
  -30.4116  -19.3470   22.0570 C   0  0  0  0  0  0  0  0  0  0  0  0
  -30.5798  -16.9402   21.9304 C   0  0  0  0  0  0  0  0  0  0  0  0
  -22.3415   -8.1396   21.4628 C   0  0  0  0  0  0  0  0  0  0  0  0
  -33.6741  -26.0164   18.9318 C   0  0  0  0  0  0  0  0  0  0  0  0
  -20.8644   -6.9727   22.8695 C   0  0  0  0  0  0  0  0  0  0  0  0
  -19.3491   -6.8930   25.2104 C   0  0  0  0  0  0  0  0  0  0  0  0
  -21.1068   -5.9847   23.8238 C   0  0  0  0  0  0  0  0  0  0  0  0
  -31.7392  -16.9806   22.7049 C   0  0  0  0  0  0  0  0  0  0  0  0
  -29.9160  -18.1235   21.6064 C   0  0  0  0  0  0  0  0  0  0  0  0
  -24.5963  -11.6380   20.7047 C   0  0  0  0  0  0  0  0  0  0  0  0
  -25.2598  -13.7222   20.4785 C   0  0  0  0  0  0  0  0  0  0  0  0
  -22.8968  -13.4871   21.2593 C   0  0  0  0  0  0  0  0  0  0  0  0
  -33.2009  -31.4150   19.2404 C   0  0  0  0  0  0  0  0  0  0  0  0
  -34.4748  -31.5935   16.2625 C   0  0  0  0  0  0  0  0  0  0  0  0
  -35.7150  -29.9533   13.5388 C   0  0  0  0  0  0  0  0  0  0  0  0
  -30.7251  -14.7720   20.6561 C   0  0  0  0  0  0  0  0  0  0  0  0
  -32.4903  -34.5604   23.1975 C   0  0  0  0  0  0  0  0  0  0  0  0
  -35.2588  -29.9795   19.4864 C   0  0  0  0  0  0  0  0  0  0  0  0
  -33.7389  -29.3089   17.0400 C   0  0  0  0  0  0  0  0  0  0  0  0
  -32.6417  -34.7229   21.6872 C   0  0  0  0  0  0  0  0  0  0  0  0
  -29.6140  -12.3560   18.2884 C   0  0  0  0  0  0  0  0  0  0  0  0
  -31.7222  -33.7535   20.9512 C   0  0  0  0  0  0  0  0  0  0  0  0
  -28.1743  -12.0636   18.7172 C   0  0  0  0  0  0  0  0  0  0  0  0
  -30.5282  -12.5862   19.4905 C   0  0  0  0  0  0  0  0  0  0  0  0
  -28.6198  -13.3099   20.8702 C   0  0  0  0  0  0  0  0  0  0  0  0
  -32.0793  -32.2985   21.2781 C   0  0  1  0  0  0  0  0  0  0  0  0
  -34.5412  -31.0488   18.6684 C   0  0  1  0  0  0  0  0  0  0  0  0
  -27.6478  -13.1353   19.6918 C   0  0  2  0  0  0  0  0  0  0  0  0
  -33.4736  -18.2972   23.9874 C   0  0  0  0  0  0  0  0  0  0  0  0
  -36.6424  -30.3667   11.2439 C   0  0  0  0  0  0  0  0  0  0  0  0
  -31.6586  -32.1471   15.2268 C   0  0  0  0  0  0  0  0  0  0  0  0
  -32.4755  -31.6084   12.9222 C   0  0  0  0  0  0  0  0  0  0  0  0
  -33.4504  -33.5357   14.1704 C   0  0  0  0  0  0  0  0  0  0  0  0
  -28.7368  -21.0828   22.6422 C   0  0  0  0  0  0  0  0  0  0  0  0
  -38.3099  -28.7136   14.2377 C   0  0  0  0  0  0  0  0  0  0  0  0
  -31.2712  -22.2684   20.8518 C   0  0  0  0  0  0  0  0  0  0  0  0
  -31.6969  -23.0575   19.6128 C   0  0  0  0  0  0  0  0  0  0  0  0
  -30.1154  -21.3119   20.5697 C   0  0  0  0  0  0  0  0  0  0  0  0
  -32.8238  -24.0323   19.9301 C   0  0  0  0  0  0  0  0  0  1  0  0
  -34.0271  -31.1791   14.8816 C   0  0  1  0  0  0  0  0  0  0  0  0
  -36.9716  -30.1738   12.7161 C   0  0  2  0  0  0  0  0  0  0  0  0
  -32.9056  -32.0986   14.3213 C   0  0  0  0  0  0  0  0  0  0  0  0
  -25.8615  -11.5429   20.2873 N   0  0  0  0  0  0  0  0  0  0  0  0
  -26.2375  -12.8267   20.1585 N   0  0  0  0  0  0  0  0  0  0  0  0
  -34.3162  -30.6418   17.2799 N   0  0  0  0  0  0  0  0  0  0  0  0
  -29.9678  -13.6171   20.3670 N   0  0  0  0  0  0  0  0  0  0  0  0
  -25.4692  -15.0537   20.4049 N   0  0  0  0  0  0  0  0  0  0  0  0
  -21.8854  -12.5774   21.5964 N   0  0  0  0  0  0  0  0  0  0  0  0
  -30.0765  -15.6970   21.4736 N   0  0  0  0  0  0  0  0  0  0  0  0
  -33.2530  -31.8875   20.5378 N   0  0  0  0  0  0  0  0  0  0  0  0
  -35.2308  -31.1352   14.0583 N   0  0  0  0  0  0  0  0  0  0  0  0
  -29.7706  -20.5556   21.7499 N   0  0  3  0  0  0  0  0  0  0  0  0
  -37.8862  -29.0042   12.8438 N   0  3  0  0  0  0  0  0  0  0  0  0
  -22.6596  -14.7176   21.3158 O   0  0  0  0  0  0  0  0  0  0  0  0
  -32.1942  -31.2803   18.5548 O   0  0  0  0  0  0  0  0  0  0  0  0
  -34.9544  -32.7174   16.4308 O   0  0  0  0  0  0  0  0  0  0  0  0
  -35.2111  -28.8441   13.7010 O   0  0  0  0  0  0  0  0  0  0  0  0
  -31.8543  -14.9413   20.1891 O   0  0  0  0  0  0  0  0  0  0  0  0
  -21.6163   -7.0141   21.7073 O   0  0  0  0  0  0  0  0  0  0  0  0
  -33.1783  -24.7614   18.7557 O   0  0  0  0  0  0  0  0  0  1  0  0
  -18.6225   -6.8557   26.3350 F   0  0  0  0  0  0  0  0  0  0  0  0
  -22.0669   -5.0718   23.6223 F   0  0  0  0  0  0  0  0  0  0  0  0
  -32.5731  -15.5161   23.1162 Cl  0  0  0  0  0  0  0  0  0  0  0  0
  -28.4728  -18.0810   20.6412 Cl  0  0  0  0  0  0  0  0  0  0  0  0
  1  2  1  0  0  0  0
  1  5  2  0  0  0  0
  2  6  2  0  0  0  0
  3  8  2  0  0  0  0
  3 16  1  0  0  0  0
  4  9  1  0  0  0  0
  4 16  2  0  0  0  0
  5 18  1  0  0  0  0
  6 20  1  0  0  0  0
  7 10  2  0  0  0  0
  7 19  1  0  0  0  0
  8 25  1  0  0  0  0
  9 25  2  0  0  0  0
 10 26  1  0  0  0  0
 11 12  2  0  0  0  0
 11 27  1  0  0  0  0
 12 28  1  0  0  0  0
 13 21  1  0  0  0  0
 13 26  2  0  0  0  0
 14 22  2  0  0  0  0
 14 23  1  0  0  0  0
 15 28  2  0  0  0  0
 15 29  1  0  0  0  0
 16 32  1  0  0  0  0
 17 32  1  0  0  0  0
 17 33  2  0  0  0  0
 17 34  1  0  0  0  0
 18 20  2  0  0  0  0
 18 39  1  0  0  0  0
 19 21  2  0  0  0  0
 19 40  1  0  0  0  0
 20 48  1  0  0  0  0
 21 41  1  0  0  0  0
 22 30  1  0  0  0  0
 22 51  1  0  0  0  0
 23 31  2  0  0  0  0
 23 74  1  0  0  0  0
 24 30  2  0  0  0  0
 24 31  1  0  0  0  0
 24 71  1  0  0  0  0
 25 81  1  0  0  0  0
 26 82  1  0  0  0  0
 27 29  2  0  0  0  0
 27 81  1  0  0  0  0
 28 83  1  0  0  0  0
 29 84  1  0  0  0  0
 30 85  1  0  0  0  0
 31 86  1  0  0  0  0
 32 65  2  0  0  0  0
 33 66  1  0  0  0  0
 33 69  1  0  0  0  0
 34 70  1  0  0  0  0
 34 76  2  0  0  0  0
 35 49  1  0  0  0  0
 35 72  1  0  0  0  0
 35 77  2  0  0  0  0
 36 62  1  0  0  0  0
 36 67  1  0  0  0  0
 36 78  2  0  0  0  0
 37 63  1  0  0  0  0
 37 73  1  0  0  0  0
 37 79  2  0  0  0  0
 38 68  1  0  0  0  0
 38 71  1  0  0  0  0
 38 80  2  0  0  0  0
 39 42  1  0  0  0  0
 40 49  1  0  0  0  0
 41 67  1  0  0  0  0
 42 44  1  0  0  0  0
 43 45  1  0  0  0  0
 43 46  1  0  0  0  0
 44 48  1  0  0  0  0
 45 50  1  0  0  0  0
 46 68  1  0  0  0  0
 47 50  1  0  0  0  0
 47 68  1  0  0  0  0
 48 72  1  0  0  0  0
 49 67  1  0  0  0  0
 50 66  1  0  0  0  0
 52 63  1  0  0  0  0
 53 64  1  0  0  0  0
 54 64  1  0  0  0  0
 55 64  1  0  0  0  0
 56 74  1  0  0  0  0
 57 75  1  0  0  0  0
 58 59  1  0  0  0  0
 58 60  1  0  0  0  0
 59 61  1  0  0  0  0
 60 74  1  0  0  0  0
 61 82  1  0  0  0  0
 62 64  1  0  0  0  0
 62 73  1  0  0  0  0
 63 75  1  0  0  0  0
 65 66  1  0  0  0  0
M  CHG  1  75   1
M  ISO  4  38 100  61 101  71 100  82 101
M  END
> <Batch ID>
0014

> <Smiles>
CNC(C)C(=O)NC(C(=O)N1Cc2cc([101O:1][101CH2:1]CCCN(C)c3cc(C)c(Cl)c([100NH:0][100C:0](=O)N4CCCC(n5nc(-c6ccc(Oc7ccc(F)cc7F)cc6)c(C(N)=O)c5N)C4)c3Cl)ccc2CC1C(=O)NC1CCCc2ccccc21)C(C)(C)C

> <Shape>
0.195

> <Color>
0.200

> <Negative vol penalty>
0.000

$$$$

  -OEChem-04052315533D

 85 93  0     1  0  0  0  0  0999 V2000
  -26.5862  -31.6827   26.9692 C   0  0  0  0  0  0  0  0  0  0  0  0
  -26.9871  -30.4311   26.5130 C   0  0  0  0  0  0  0  0  0  0  0  0
  -23.1552   -9.7920   20.0889 C   0  0  0  0  0  0  0  0  0  0  0  0
  -23.8147  -10.0450   22.3993 C   0  0  0  0  0  0  0  0  0  0  0  0
  -25.3721  -32.2217   26.5458 C   0  0  0  0  0  0  0  0  0  0  0  0
  -26.1735  -29.7172   25.6338 C   0  0  0  0  0  0  0  0  0  0  0  0
  -28.7788  -27.6685   21.8050 C   0  0  0  0  0  0  0  0  0  0  0  0
  -22.4287   -8.6487   20.4214 C   0  0  0  0  0  0  0  0  0  0  0  0
  -23.0882   -8.9016   22.7318 C   0  0  0  0  0  0  0  0  0  0  0  0
  -29.4968  -26.5042   22.0745 C   0  0  0  0  0  0  0  0  0  0  0  0
  -19.8568   -8.0772   23.2785 C   0  0  0  0  0  0  0  0  0  0  0  0
  -19.0511   -8.1312   24.4158 C   0  0  0  0  0  0  0  0  0  0  0  0
  -27.7296  -25.1928   21.0864 C   0  0  0  0  0  0  0  0  0  0  0  0
  -31.8636  -16.9735   22.3565 C   0  0  0  0  0  0  0  0  0  0  0  0
  -20.3050   -6.3106   25.3906 C   0  0  0  0  0  0  0  0  0  0  0  0
  -23.8482  -10.4902   21.0778 C   0  0  0  0  0  0  0  0  0  0  0  0
  -24.1351  -12.9999   20.7221 C   0  0  0  0  0  0  0  0  0  0  0  0
  -24.5477  -31.5183   25.6534 C   0  0  0  0  0  0  0  0  0  0  0  0
  -27.5237  -27.6028   21.1830 C   0  0  0  0  0  0  0  0  0  0  0  0
  -24.9466  -30.2468   25.1991 C   0  0  0  0  0  0  0  0  0  0  0  0
  -26.9988  -26.3579   20.8078 C   0  0  0  0  0  0  0  0  0  0  0  0
  -32.4261  -17.9436   23.1859 C   0  0  0  0  0  0  0  0  0  0  0  0
  -30.2255  -18.8316   23.6398 C   0  0  0  0  0  0  0  0  0  0  0  0
  -30.4820  -16.9325   22.1686 C   0  0  0  0  0  0  0  0  0  0  0  0
  -22.3952   -8.2035   21.7429 C   0  0  0  0  0  0  0  0  0  0  0  0
  -28.9710  -25.2659   21.7178 C   0  0  0  0  0  0  0  0  0  0  0  0
  -20.8866   -7.1398   23.1972 C   0  0  0  0  0  0  0  0  0  0  0  0
  -19.2751   -7.2479   25.4719 C   0  0  0  0  0  0  0  0  0  0  0  0
  -21.1107   -6.2566   24.2533 C   0  0  0  0  0  0  0  0  0  0  0  0
  -31.6071  -18.8727   23.8276 C   0  0  0  0  0  0  0  0  0  0  0  0
  -29.6630  -17.8615   22.8103 C   0  0  0  0  0  0  0  0  0  0  0  0
  -24.5993  -11.6710   20.7348 C   0  0  0  0  0  0  0  0  0  0  0  0
  -25.2239  -13.7403   20.3311 C   0  0  0  0  0  0  0  0  0  0  0  0
  -22.8358  -13.5188   21.0357 C   0  0  0  0  0  0  0  0  0  0  0  0
  -24.5658  -28.4242   22.0076 C   0  0  0  0  0  0  0  0  0  0  0  0
  -23.8994  -27.5992   18.9420 C   0  0  0  0  0  0  0  0  0  0  0  0
  -29.6397  -22.0335   23.1914 C   0  0  0  0  0  0  0  0  0  0  0  0
  -24.7612  -25.7997   16.1732 C   0  0  0  0  0  0  0  0  0  0  0  0
  -30.6511  -14.9497   20.6238 C   0  0  0  0  0  0  0  0  0  0  0  0
  -23.2221  -32.1212   25.2609 C   0  0  0  0  0  0  0  0  0  0  0  0
  -26.7738  -28.8698   20.8751 C   0  0  0  0  0  0  0  0  0  0  0  0
  -25.6648  -26.2346   20.1196 C   0  0  0  0  0  0  0  0  0  0  0  0
  -22.5932  -31.4639   24.0350 C   0  0  0  0  0  0  0  0  0  0  0  0
  -29.6977  -12.2853   18.4630 C   0  0  0  0  0  0  0  0  0  0  0  0
  -22.6524  -29.9444   24.1546 C   0  0  0  0  0  0  0  0  0  0  0  0
  -28.2481  -11.9972   18.8604 C   0  0  0  0  0  0  0  0  0  0  0  0
  -30.5542  -12.6561   19.6723 C   0  0  0  0  0  0  0  0  0  0  0  0
  -28.5727  -13.4592   20.8962 C   0  0  0  0  0  0  0  0  0  0  0  0
  -24.1031  -29.4526   24.2254 C   0  0  1  0  0  0  0  0  0  0  0  0
  -25.2742  -28.6493   20.7017 C   0  0  1  0  0  0  0  0  0  0  0  0
  -27.6561  -13.1443   19.7027 C   0  0  2  0  0  0  0  0  0  0  0  0
  -33.9035  -17.9841   23.3869 C   0  0  0  0  0  0  0  0  0  0  0  0
  -24.0023  -25.2994   13.8342 C   0  0  0  0  0  0  0  0  0  0  0  0
  -21.7369  -25.7490   20.0419 C   0  0  0  0  0  0  0  0  0  0  0  0
  -21.6801  -24.6059   17.8152 C   0  0  0  0  0  0  0  0  0  0  0  0
  -21.0781  -27.0203   17.9915 C   0  0  0  0  0  0  0  0  0  0  0  0
  -27.2381  -26.9222   15.0055 C   0  0  0  0  0  0  0  0  0  0  0  0
  -29.3806  -19.8486   24.3510 C   0  0  0  0  0  0  0  0  0  0  0  0
  -28.9126  -22.9429   22.2240 C   0  0  0  0  0  0  0  0  0  1  0  0
  -23.4958  -26.3243   18.2416 C   0  0  1  0  0  0  0  0  0  0  0  0
  -24.8680  -26.1913   14.7105 C   0  0  2  0  0  0  0  0  0  0  0  0
  -22.0220  -25.9267   18.5372 C   0  0  0  0  0  0  0  0  0  0  0  0
  -25.8830  -11.5698   20.3800 N   0  0  0  0  0  0  0  0  0  0  0  0
  -26.2346  -12.8446   20.1405 N   0  0  0  0  0  0  0  0  0  0  0  0
  -24.9669  -27.5017   19.8458 N   0  0  0  0  0  0  0  0  0  0  0  0
  -29.9336  -13.7521   20.4197 N   0  0  0  0  0  0  0  0  0  0  0  0
  -25.4056  -15.0635   20.1351 N   0  0  0  0  0  0  0  0  0  0  0  0
  -21.8320  -12.6192   21.4200 N   0  0  0  0  0  0  0  0  0  0  0  0
  -29.9472  -15.9321   21.3194 N   0  0  0  0  0  0  0  0  0  0  0  0
  -24.7048  -29.4620   22.9093 N   0  0  0  0  0  0  0  0  0  0  0  0
  -28.9134  -20.8833   23.4577 N   0  0  0  0  0  0  0  0  0  0  0  0
  -23.7879  -26.5259   16.8265 N   0  0  0  0  0  0  0  0  0  0  0  0
  -26.2796  -26.0789   14.2459 N   0  3  0  0  0  0  0  0  0  0  0  0
  -22.5682  -14.7420   20.9612 O   0  0  0  0  0  0  0  0  0  0  0  0
  -23.9384  -27.3864   22.1834 O   0  0  0  0  0  0  0  0  0  0  0  0
  -23.2947  -28.6447   18.6909 O   0  0  0  0  0  0  0  0  0  0  0  0
  -30.7379  -22.3104   23.6660 O   0  0  0  0  0  0  0  0  0  0  0  0
  -25.4676  -24.9336   16.6843 O   0  0  0  0  0  0  0  0  0  0  0  0
  -31.7950  -15.1031   20.1881 O   0  0  0  0  0  0  0  0  0  0  0  0
  -21.6862   -7.0880   22.0678 O   0  0  0  0  0  0  0  0  0  0  0  0
  -29.6695  -24.1279   21.9802 O   0  0  0  0  0  0  0  0  0  1  0  0
  -18.5023   -7.3009   26.5646 F   0  0  0  0  0  0  0  0  0  0  0  0
  -22.0993   -5.3547   24.1814 F   0  0  0  0  0  0  0  0  0  0  0  0
  -32.1497  -19.8042   24.6260 F   0  0  0  0  0  0  0  0  0  0  0  0
  -27.9452  -17.8149   22.5808 Cl  0  0  0  0  0  0  0  0  0  0  0  0
  1  2  1  0  0  0  0
  1  5  2  0  0  0  0
  2  6  2  0  0  0  0
  3  8  2  0  0  0  0
  3 16  1  0  0  0  0
  4  9  1  0  0  0  0
  4 16  2  0  0  0  0
  5 18  1  0  0  0  0
  6 20  1  0  0  0  0
  7 10  2  0  0  0  0
  7 19  1  0  0  0  0
  8 25  1  0  0  0  0
  9 25  2  0  0  0  0
 10 26  1  0  0  0  0
 11 12  2  0  0  0  0
 11 27  1  0  0  0  0
 12 28  1  0  0  0  0
 13 21  1  0  0  0  0
 13 26  2  0  0  0  0
 14 22  1  0  0  0  0
 14 24  2  0  0  0  0
 15 28  2  0  0  0  0
 15 29  1  0  0  0  0
 16 32  1  0  0  0  0
 17 32  1  0  0  0  0
 17 33  2  0  0  0  0
 17 34  1  0  0  0  0
 18 20  2  0  0  0  0
 18 40  1  0  0  0  0
 19 21  2  0  0  0  0
 19 41  1  0  0  0  0
 20 49  1  0  0  0  0
 21 42  1  0  0  0  0
 22 30  2  0  0  0  0
 22 52  1  0  0  0  0
 23 30  1  0  0  0  0
 23 31  2  0  0  0  0
 23 58  1  0  0  0  0
 24 31  1  0  0  0  0
 24 69  1  0  0  0  0
 25 80  1  0  0  0  0
 26 81  1  0  0  0  0
 27 29  2  0  0  0  0
 27 80  1  0  0  0  0
 28 82  1  0  0  0  0
 29 83  1  0  0  0  0
 30 84  1  0  0  0  0
 31 85  1  0  0  0  0
 32 63  2  0  0  0  0
 33 64  1  0  0  0  0
 33 67  1  0  0  0  0
 34 68  1  0  0  0  0
 34 74  2  0  0  0  0
 35 50  1  0  0  0  0
 35 70  1  0  0  0  0
 35 75  2  0  0  0  0
 36 60  1  0  0  0  0
 36 65  1  0  0  0  0
 36 76  2  0  0  0  0
 37 59  1  0  0  0  0
 37 71  1  0  0  0  0
 37 77  2  0  0  0  0
 38 61  1  0  0  0  0
 38 72  1  0  0  0  0
 38 78  2  0  0  0  0
 39 66  1  0  0  0  0
 39 69  1  0  0  0  0
 39 79  2  0  0  0  0
 40 43  1  0  0  0  0
 41 50  1  0  0  0  0
 42 65  1  0  0  0  0
 43 45  1  0  0  0  0
 44 46  1  0  0  0  0
 44 47  1  0  0  0  0
 45 49  1  0  0  0  0
 46 51  1  0  0  0  0
 47 66  1  0  0  0  0
 48 51  1  0  0  0  0
 48 66  1  0  0  0  0
 49 70  1  0  0  0  0
 50 65  1  0  0  0  0
 51 64  1  0  0  0  0
 53 61  1  0  0  0  0
 54 62  1  0  0  0  0
 55 62  1  0  0  0  0
 56 62  1  0  0  0  0
 57 73  1  0  0  0  0
 58 71  1  0  0  0  0
 59 81  1  0  0  0  0
 60 62  1  0  0  0  0
 60 72  1  0  0  0  0
 61 73  1  0  0  0  0
 63 64  1  0  0  0  0
M  CHG  1  73   1
M  ISO  4  39 100  59 101  69 100  81 101
M  END
> <Batch ID>
0014

> <Smiles>
CNC(C)C(=O)NC(C(=O)N1Cc2cc([101O:1][101CH2:1]C(=O)NCc3c(F)c(C)cc([100NH:0][100C:0](=O)N4CCCC(n5nc(-c6ccc(Oc7ccc(F)cc7F)cc6)c(C(N)=O)c5N)C4)c3Cl)ccc2CC1C(=O)NC1CCCc2ccccc21)C(C)(C)C

> <Shape>
0.281

> <Color>
0.195

> <Negative vol penalty>
0.000

$$$$

  -OEChem-04052315533D

 80 88  0     1  0  0  0  0  0999 V2000
  -31.2113  -34.0586   21.1530 C   0  0  0  0  0  0  0  0  0  0  0  0
  -31.1601  -33.0288   20.2189 C   0  0  0  0  0  0  0  0  0  0  0  0
  -22.8442  -10.2467   20.3707 C   0  0  0  0  0  0  0  0  0  0  0  0
  -24.3926   -9.4004   22.0210 C   0  0  0  0  0  0  0  0  0  0  0  0
  -30.6123  -33.8961   22.4014 C   0  0  0  0  0  0  0  0  0  0  0  0
  -30.5108  -31.8355   20.5333 C   0  0  0  0  0  0  0  0  0  0  0  0
  -26.6710  -26.6028   17.5017 C   0  0  0  0  0  0  0  0  0  0  0  0
  -22.2038   -9.0080   20.3363 C   0  0  0  0  0  0  0  0  0  0  0  0
  -23.7522   -8.1617   21.9866 C   0  0  0  0  0  0  0  0  0  0  0  0
  -26.6406  -25.2131   17.3938 C   0  0  0  0  0  0  0  0  0  0  0  0
  -20.9445   -6.7750   23.2573 C   0  0  0  0  0  0  0  0  0  0  0  0
  -20.6693   -6.1554   24.4763 C   0  0  0  0  0  0  0  0  0  0  0  0
  -25.5729  -25.0748   19.5526 C   0  0  0  0  0  0  0  0  0  0  0  0
  -27.2323  -20.1427   17.9848 C   0  0  0  0  0  0  0  0  0  0  0  0
  -22.0252   -4.2658   23.8220 C   0  0  0  0  0  0  0  0  0  0  0  0
  -23.9386  -10.4429   21.2130 C   0  0  0  0  0  0  0  0  0  0  0  0
  -24.3013  -12.8113   22.0885 C   0  0  0  0  0  0  0  0  0  0  0  0
  -29.9469  -32.7039   22.7277 C   0  0  0  0  0  0  0  0  0  0  0  0
  -26.1615  -27.2394   18.6426 C   0  0  0  0  0  0  0  0  0  0  0  0
  -29.9034  -31.6565   21.7878 C   0  0  0  0  0  0  0  0  0  0  0  0
  -25.5957  -26.4728   19.6714 C   0  0  0  0  0  0  0  0  0  0  0  0
  -26.4575  -21.0267   17.1940 C   0  0  0  0  0  0  0  0  0  0  0  0
  -22.6578   -7.9655   21.1443 C   0  0  0  0  0  0  0  0  0  0  0  0
  -26.0941  -24.4487   18.4206 C   0  0  0  0  0  0  0  0  0  0  0  0
  -21.7601   -6.1400   22.3206 C   0  0  0  0  0  0  0  0  0  0  0  0
  -21.2097   -4.9008   24.7587 C   0  0  0  0  0  0  0  0  0  0  0  0
  -22.3004   -4.8854   22.6030 C   0  0  0  0  0  0  0  0  0  0  0  0
  -24.6009  -11.7220   21.2486 C   0  0  0  0  0  0  0  0  0  0  0  0
  -25.5442  -20.2643   16.4997 C   0  0  0  0  0  0  0  0  0  0  0  0
  -26.7691  -18.8670   17.7496 C   0  0  0  0  0  0  0  0  0  0  0  0
  -25.2096  -13.7786   21.7335 C   0  0  0  0  0  0  0  0  0  0  0  0
  -23.2923  -12.9376   23.0993 C   0  0  0  0  0  0  0  0  0  0  0  0
  -27.3900  -29.0928   20.9140 C   0  0  0  0  0  0  0  0  0  0  0  0
  -24.2930  -29.3356   21.8477 C   0  0  0  0  0  0  0  0  0  0  0  0
  -21.1582  -27.9866   21.8659 C   0  0  0  0  0  0  0  0  0  0  0  0
  -27.7076  -16.5779   17.4769 C   0  0  0  0  0  0  0  0  0  0  0  0
  -29.3551  -32.5569   24.1072 C   0  0  0  0  0  0  0  0  0  0  0  0
  -26.1775  -28.7408   18.7319 C   0  0  0  0  0  0  0  0  0  0  0  0
  -25.0172  -27.1089   20.9080 C   0  0  0  0  0  0  0  0  0  0  0  0
  -28.3633  -31.4025   24.2246 C   0  0  0  0  0  0  0  0  0  0  0  0
  -29.3239  -13.5441   18.8161 C   0  0  0  0  0  0  0  0  0  0  0  0
  -28.9317  -30.1426   23.5793 C   0  0  0  0  0  0  0  0  0  0  0  0
  -28.1897  -12.8630   19.5801 C   0  0  0  0  0  0  0  0  0  0  0  0
  -28.8029  -14.3618   17.6381 C   0  0  0  0  0  0  0  0  0  0  0  0
  -26.6291  -14.6820   18.7793 C   0  0  0  0  0  0  0  0  0  0  0  0
  -29.1869  -30.3565   22.0824 C   0  0  1  0  0  0  0  0  0  0  0  0
  -26.0971  -29.2550   20.1660 C   0  0  1  0  0  0  0  0  0  0  0  0
  -27.1185  -13.8851   19.9981 C   0  0  1  0  0  0  0  0  0  0  0  0
  -24.4989  -20.6725   15.5367 C   0  0  0  0  0  0  0  0  0  0  0  0
  -18.8428  -28.3955   22.7426 C   0  0  0  0  0  0  0  0  0  0  0  0
  -25.1923  -28.4540   24.6269 C   0  0  0  0  0  0  0  0  0  0  0  0
  -22.7975  -27.9675   25.1713 C   0  0  0  0  0  0  0  0  0  0  0  0
  -23.4998  -30.2952   24.6133 C   0  0  0  0  0  0  0  0  0  0  0  0
  -24.9834  -17.8320   16.3312 C   0  0  0  0  0  0  0  0  0  0  0  0
  -27.3799  -17.5062   19.7575 C   0  0  0  0  0  0  0  0  0  0  0  0
  -20.0212  -28.1104   19.1362 C   0  0  0  0  0  0  0  0  0  0  0  0
  -26.6093  -22.5181   17.1310 C   0  0  0  0  0  0  0  0  0  1  0  0
  -23.3930  -28.5592   22.7783 C   0  0  1  0  0  0  0  0  0  0  0  0
  -19.7980  -28.5952   21.5763 C   0  0  2  0  0  0  0  0  0  0  0  0
  -23.7332  -28.8066   24.2752 C   0  0  0  0  0  0  0  0  0  0  0  0
  -25.6197  -11.9731   20.4221 N   0  0  0  0  0  0  0  0  0  0  0  0
  -25.7431  -18.9530   16.8450 N   0  0  0  0  0  0  0  0  0  0  0  0
  -25.9682  -13.2312   20.7410 N   0  0  0  0  0  0  0  0  0  0  0  0
  -25.0618  -28.5798   20.9513 N   0  0  0  0  0  0  0  0  0  0  0  0
  -27.7540  -15.2933   18.0548 N   0  0  0  0  0  0  0  0  0  0  0  0
  -25.4253  -15.0353   22.1766 N   0  0  0  0  0  0  0  0  0  0  0  0
  -22.4435  -11.8477   23.3358 N   0  0  0  0  0  0  0  0  0  0  0  0
  -27.9453  -30.2834   21.3425 N   0  0  0  0  0  0  0  0  0  0  0  0
  -22.0254  -28.9099   22.4106 N   0  0  0  0  0  0  0  0  0  0  0  0
  -27.2150  -17.6106   18.3039 N   0  0  0  0  0  0  0  0  0  0  0  0
  -19.1977  -27.9690   20.3646 N   0  3  0  0  0  0  0  0  0  0  0  0
  -23.1372  -13.9916   23.7615 O   0  0  0  0  0  0  0  0  0  0  0  0
  -27.8491  -27.9704   21.0908 O   0  0  0  0  0  0  0  0  0  0  0  0
  -24.3078  -30.5675   21.9088 O   0  0  0  0  0  0  0  0  0  0  0  0
  -21.4237  -26.8088   21.6356 O   0  0  0  0  0  0  0  0  0  0  0  0
  -28.1032  -16.7896   16.3244 O   0  0  0  0  0  0  0  0  0  0  0  0
  -22.0330   -6.7567   21.1112 O   0  0  0  0  0  0  0  0  0  0  0  0
  -26.0638  -23.0921   18.3181 O   0  0  0  0  0  0  0  0  0  1  0  0
  -20.9465   -4.3066   25.9299 F   0  0  0  0  0  0  0  0  0  0  0  0
  -23.0856   -4.2710   21.7075 F   0  0  0  0  0  0  0  0  0  0  0  0
  1  2  1  0  0  0  0
  1  5  2  0  0  0  0
  2  6  2  0  0  0  0
  3  8  2  0  0  0  0
  3 16  1  0  0  0  0
  4  9  1  0  0  0  0
  4 16  2  0  0  0  0
  5 18  1  0  0  0  0
  6 20  1  0  0  0  0
  7 10  2  0  0  0  0
  7 19  1  0  0  0  0
  8 23  1  0  0  0  0
  9 23  2  0  0  0  0
 10 24  1  0  0  0  0
 11 12  2  0  0  0  0
 11 25  1  0  0  0  0
 12 26  1  0  0  0  0
 13 21  1  0  0  0  0
 13 24  2  0  0  0  0
 14 22  1  0  0  0  0
 14 30  2  0  0  0  0
 15 26  2  0  0  0  0
 15 27  1  0  0  0  0
 16 28  1  0  0  0  0
 17 28  1  0  0  0  0
 17 31  2  0  0  0  0
 17 32  1  0  0  0  0
 18 20  2  0  0  0  0
 18 37  1  0  0  0  0
 19 21  2  0  0  0  0
 19 38  1  0  0  0  0
 20 46  1  0  0  0  0
 21 39  1  0  0  0  0
 22 29  2  0  0  0  0
 22 57  1  0  0  0  0
 23 77  1  0  0  0  0
 24 78  1  0  0  0  0
 25 27  2  0  0  0  0
 25 77  1  0  0  0  0
 26 79  1  0  0  0  0
 27 80  1  0  0  0  0
 28 61  2  0  0  0  0
 29 49  1  0  0  0  0
 29 62  1  0  0  0  0
 30 62  1  0  0  0  0
 30 70  1  0  0  0  0
 31 63  1  0  0  0  0
 31 66  1  0  0  0  0
 32 67  1  0  0  0  0
 32 72  2  0  0  0  0
 33 47  1  0  0  0  0
 33 68  1  0  0  0  0
 33 73  2  0  0  0  0
 34 58  1  0  0  0  0
 34 64  1  0  0  0  0
 34 74  2  0  0  0  0
 35 59  1  0  0  0  0
 35 69  1  0  0  0  0
 35 75  2  0  0  0  0
 36 65  1  0  0  0  0
 36 70  1  0  0  0  0
 36 76  2  0  0  0  0
 37 40  1  0  0  0  0
 38 47  1  0  0  0  0
 39 64  1  0  0  0  0
 40 42  1  0  0  0  0
 41 43  1  0  0  0  0
 41 44  1  0  0  0  0
 42 46  1  0  0  0  0
 43 48  1  0  0  0  0
 44 65  1  0  0  0  0
 45 48  1  0  0  0  0
 45 65  1  0  0  0  0
 46 68  1  0  0  0  0
 47 64  1  0  0  0  0
 48 63  1  0  0  0  0
 50 59  1  0  0  0  0
 51 60  1  0  0  0  0
 52 60  1  0  0  0  0
 53 60  1  0  0  0  0
 54 62  1  0  0  0  0
 55 70  1  0  0  0  0
 56 71  1  0  0  0  0
 57 78  1  0  0  0  0
 58 60  1  0  0  0  0
 58 69  1  0  0  0  0
 59 71  1  0  0  0  0
 61 63  1  0  0  0  0
M  CHG  1  71   1
M  ISO  4  36 100  57 101  70 100  78 101
M  END
> <Batch ID>
0014

> <Smiles>
CNC(C)C(=O)NC(C(=O)N1Cc2cc([101O:1][101CH2:1]c3cc([100N:0](C)[100C:0](=O)N4CCCC(n5nc(-c6ccc(Oc7ccc(F)cc7F)cc6)c(C(N)=O)c5N)C4)n(C)c3C)ccc2CC1C(=O)NC1CCCc2ccccc21)C(C)(C)C

> <Shape>
0.246

> <Color>
0.119

> <Negative vol penalty>
0.000

$$$$

  -OEChem-04052315533D

 83 90  0     1  0  0  0  0  0999 V2000
  -16.6409  -24.5634   25.0407 C   0  0  0  0  0  0  0  0  0  0  0  0
  -17.5058  -23.8797   24.1922 C   0  0  0  0  0  0  0  0  0  0  0  0
  -24.6757  -12.8262   22.0316 C   0  0  0  0  0  0  0  0  0  0  0  0
  -26.4694  -12.9231   20.4160 C   0  0  0  0  0  0  0  0  0  0  0  0
  -16.5805  -25.9556   24.9984 C   0  0  0  0  0  0  0  0  0  0  0  0
  -18.3101  -24.5879   23.3000 C   0  0  0  0  0  0  0  0  0  0  0  0
  -23.9841  -23.1374   21.5093 C   0  0  0  0  0  0  0  0  0  0  0  0
  -24.0283  -11.8650   21.2553 C   0  0  0  0  0  0  0  0  0  0  0  0
  -25.8221  -11.9619   19.6397 C   0  0  0  0  0  0  0  0  0  0  0  0
  -24.4740  -22.4993   20.3707 C   0  0  0  0  0  0  0  0  0  0  0  0
  -24.2882   -8.5441   20.6747 C   0  0  0  0  0  0  0  0  0  0  0  0
  -23.7628   -7.4295   21.3282 C   0  0  0  0  0  0  0  0  0  0  0  0
  -24.8987  -24.6468   19.3573 C   0  0  0  0  0  0  0  0  0  0  0  0
  -21.5548   -8.0043   20.5334 C   0  0  0  0  0  0  0  0  0  0  0  0
  -25.8962  -13.3553   21.6119 C   0  0  0  0  0  0  0  0  0  0  0  0
  -27.5019  -14.1231   23.4394 C   0  0  0  0  0  0  0  0  0  0  0  0
  -17.3914  -26.6818   24.1120 C   0  0  0  0  0  0  0  0  0  0  0  0
  -23.9376  -24.5373   21.5763 C   0  0  0  0  0  0  0  0  0  0  0  0
  -18.2594  -25.9912   23.2448 C   0  0  0  0  0  0  0  0  0  0  0  0
  -24.4102  -25.3003   20.4989 C   0  0  0  0  0  0  0  0  0  0  0  0
  -24.6015  -11.4328   20.0593 C   0  0  0  0  0  0  0  0  0  0  0  0
  -24.9287  -23.2539   19.2933 C   0  0  0  0  0  0  0  0  0  0  0  0
  -23.4470   -9.3889   19.9506 C   0  0  0  0  0  0  0  0  0  0  0  0
  -22.3961   -7.1596   21.2576 C   0  0  0  0  0  0  0  0  0  0  0  0
  -22.0803   -9.1190   19.8799 C   0  0  0  0  0  0  0  0  0  0  0  0
  -26.5651  -14.3487   22.4131 C   0  0  0  0  0  0  0  0  0  0  0  0
  -27.8346  -15.3798   23.8828 C   0  0  0  0  0  0  0  0  0  0  0  0
  -28.0247  -12.8881   23.9465 C   0  0  0  0  0  0  0  0  0  0  0  0
  -21.6215  -26.6927   21.8819 C   0  0  0  0  0  0  0  0  0  0  0  0
  -24.1093  -28.7635   22.0940 C   0  0  0  0  0  0  0  0  0  0  0  0
  -27.3774  -29.4478   21.3883 C   0  0  0  0  0  0  0  0  0  0  0  0
  -28.8217  -21.9701   18.7505 C   0  0  0  0  0  0  0  0  0  0  0  0
  -27.7093  -20.7806   21.3009 C   0  0  0  0  0  0  0  0  0  0  0  0
  -17.2568  -28.1834   24.0693 C   0  0  0  0  0  0  0  0  0  0  0  0
  -23.4311  -25.2106   22.8223 C   0  0  0  0  0  0  0  0  0  0  0  0
  -24.4005  -26.8061   20.5290 C   0  0  0  0  0  0  0  0  0  0  0  0
  -18.4144  -28.8788   23.3575 C   0  0  0  0  0  0  0  0  0  0  0  0
  -26.0497  -19.7997   24.2943 C   0  0  0  0  0  0  0  0  0  0  0  0
  -18.7308  -28.1762   22.0410 C   0  0  0  0  0  0  0  0  0  0  0  0
  -26.0781  -18.2711   24.2442 C   0  0  0  0  0  0  0  0  0  0  0  0
  -25.8598  -20.4064   22.9058 C   0  0  0  0  0  0  0  0  0  0  0  0
  -26.8562  -18.4192   21.8418 C   0  0  0  0  0  0  0  0  0  0  0  0
  -19.1657  -26.7253   22.2806 C   0  0  1  0  0  0  0  0  0  0  0  0
  -22.9522  -26.6382   22.5775 C   0  0  1  0  0  0  0  0  0  0  0  0
  -27.1018  -17.7628   23.2111 C   0  0  2  0  0  0  0  0  0  0  0  0
  -27.7660  -18.0045   16.0912 C   0  0  0  0  0  0  0  0  0  0  0  0
  -29.1177  -31.2359   21.6555 C   0  0  0  0  0  0  0  0  0  0  0  0
  -28.4024  -23.0263   15.9247 C   0  0  0  0  0  0  0  0  0  0  0  0
  -30.4274  -21.7888   20.6908 C   0  0  0  0  0  0  0  0  0  0  0  0
  -30.5192  -20.1072   18.8562 C   0  0  0  0  0  0  0  0  0  0  0  0
  -22.8056  -30.3645   19.8474 C   0  0  0  0  0  0  0  0  0  0  0  0
  -24.9879  -31.5466   19.5178 C   0  0  0  0  0  0  0  0  0  0  0  0
  -23.7764  -31.7506   21.6888 C   0  0  0  0  0  0  0  0  0  0  0  0
  -29.1198  -27.6744   22.9939 C   0  0  0  0  0  0  0  0  0  0  0  0
  -28.1016  -19.4804   16.2519 C   0  0  0  0  0  0  0  0  0  0  0  0
  -27.6682  -20.0394   17.6018 C   0  0  0  0  0  0  0  0  0  0  0  0
  -26.4111  -23.3205   17.4348 C   0  0  0  0  0  0  0  0  0  1  0  0
  -24.9158  -29.5704   21.1054 C   0  0  1  0  0  0  0  0  0  0  0  0
  -28.5049  -29.9796   22.2546 C   0  0  2  0  0  0  0  0  0  0  0  0
  -27.3427  -22.3169   16.7576 C   0  0  2  0  0  0  0  0  0  0  0  0
  -29.5790  -20.9932   19.6827 C   0  0  0  0  0  0  0  0  0  0  0  0
  -24.1199  -30.7797   20.5382 C   0  0  0  0  0  0  0  0  0  0  0  0
  -26.3184  -15.6465   22.2162 N   0  0  0  0  0  0  0  0  0  0  0  0
  -27.1050  -16.2478   23.1250 N   0  0  0  0  0  0  0  0  0  0  0  0
  -23.8899  -27.4178   21.7669 N   0  0  0  0  0  0  0  0  0  0  0  0
  -26.8628  -19.8846   21.9744 N   0  0  0  0  0  0  0  0  0  0  0  0
  -28.6771  -15.8159   24.8433 N   0  0  0  0  0  0  0  0  0  0  0  0
  -27.5758  -11.6887   23.3772 N   0  0  0  0  0  0  0  0  0  0  0  0
  -20.5376  -26.6781   22.7389 N   0  0  0  0  0  0  0  0  0  0  0  0
  -26.1517  -29.9362   21.7889 N   0  0  0  0  0  0  0  0  0  0  0  0
  -28.6355  -20.2026   20.4414 N   0  0  0  0  0  0  0  0  0  0  0  0
  -27.9763  -21.4675   17.7405 N   0  0  0  0  0  0  0  0  0  0  0  0
  -29.5776  -28.9546   22.3953 N   0  3  0  0  0  0  0  0  0  0  0  0
  -28.8528  -12.8488   24.8879 O   0  0  0  0  0  0  0  0  0  0  0  0
  -21.5811  -26.7456   20.6583 O   0  0  0  0  0  0  0  0  0  0  0  0
  -23.6954  -29.3052   23.1220 O   0  0  0  0  0  0  0  0  0  0  0  0
  -27.5656  -28.6792   20.4479 O   0  0  0  0  0  0  0  0  0  0  0  0
  -29.0685  -23.1812   18.8491 O   0  0  0  0  0  0  0  0  0  0  0  0
  -27.6481  -22.0047   21.4583 O   0  0  0  0  0  0  0  0  0  0  0  0
  -23.9702  -10.4947   19.3017 O   0  0  0  0  0  0  0  0  0  0  0  0
  -25.4068  -22.6336   18.1804 O   0  0  0  0  0  0  0  0  0  1  0  0
  -21.8919   -6.0883   21.8839 F   0  0  0  0  0  0  0  0  0  0  0  0
  -21.2673   -9.9263   19.1848 F   0  0  0  0  0  0  0  0  0  0  0  0
  1  2  1  0  0  0  0
  1  5  2  0  0  0  0
  2  6  2  0  0  0  0
  3  8  2  0  0  0  0
  3 15  1  0  0  0  0
  4  9  1  0  0  0  0
  4 15  2  0  0  0  0
  5 17  1  0  0  0  0
  6 19  1  0  0  0  0
  7 10  2  0  0  0  0
  7 18  1  0  0  0  0
  8 21  1  0  0  0  0
  9 21  2  0  0  0  0
 10 22  1  0  0  0  0
 11 12  2  0  0  0  0
 11 23  1  0  0  0  0
 12 24  1  0  0  0  0
 13 20  1  0  0  0  0
 13 22  2  0  0  0  0
 14 24  2  0  0  0  0
 14 25  1  0  0  0  0
 15 26  1  0  0  0  0
 16 26  1  0  0  0  0
 16 27  2  0  0  0  0
 16 28  1  0  0  0  0
 17 19  2  0  0  0  0
 17 34  1  0  0  0  0
 18 20  2  0  0  0  0
 18 35  1  0  0  0  0
 19 43  1  0  0  0  0
 20 36  1  0  0  0  0
 21 80  1  0  0  0  0
 22 81  1  0  0  0  0
 23 25  2  0  0  0  0
 23 80  1  0  0  0  0
 24 82  1  0  0  0  0
 25 83  1  0  0  0  0
 26 63  2  0  0  0  0
 27 64  1  0  0  0  0
 27 67  1  0  0  0  0
 28 68  1  0  0  0  0
 28 74  2  0  0  0  0
 29 44  1  0  0  0  0
 29 69  1  0  0  0  0
 29 75  2  0  0  0  0
 30 58  1  0  0  0  0
 30 65  1  0  0  0  0
 30 76  2  0  0  0  0
 31 59  1  0  0  0  0
 31 70  1  0  0  0  0
 31 77  2  0  0  0  0
 32 61  1  0  0  0  0
 32 72  1  0  0  0  0
 32 78  2  0  0  0  0
 33 66  1  0  0  0  0
 33 71  1  0  0  0  0
 33 79  2  0  0  0  0
 34 37  1  0  0  0  0
 35 44  1  0  0  0  0
 36 65  1  0  0  0  0
 37 39  1  0  0  0  0
 38 40  1  0  0  0  0
 38 41  1  0  0  0  0
 39 43  1  0  0  0  0
 40 45  1  0  0  0  0
 41 66  1  0  0  0  0
 42 45  1  0  0  0  0
 42 66  1  0  0  0  0
 43 69  1  0  0  0  0
 44 65  1  0  0  0  0
 45 64  1  0  0  0  0
 46 55  1  0  0  0  0
 47 59  1  0  0  0  0
 48 60  1  0  0  0  0
 49 61  1  0  0  0  0
 50 61  1  0  0  0  0
 51 62  1  0  0  0  0
 52 62  1  0  0  0  0
 53 62  1  0  0  0  0
 54 73  1  0  0  0  0
 55 56  1  0  0  0  0
 56 72  1  0  0  0  0
 57 60  1  0  0  0  0
 57 81  1  0  0  0  0
 58 62  1  0  0  0  0
 58 70  1  0  0  0  0
 59 73  1  0  0  0  0
 60 72  1  0  0  0  0
 61 71  1  0  0  0  0
 63 64  1  0  0  0  0
M  CHG  1  73   1
M  ISO  4  33 100  57 101  71 100  81 101
M  END
> <Batch ID>
0014

> <Smiles>
CCCN(C(=O)C(C)(C)[100NH:0][100C:0](=O)N1CCCC(n2nc(-c3ccc(Oc4ccc(F)cc4F)cc3)c(C(N)=O)c2N)C1)C(C)[101CH2:1][101O:1]c1ccc2c(c1)CN(C(=O)C(NC(=O)C(C)NC)C(C)(C)C)C(C(=O)NC1CCCc3ccccc31)C2

> <Shape>
0.208

> <Color>
0.058

> <Negative vol penalty>
0.000

$$$$

  -OEChem-04052315533D

 84 92  0     1  0  0  0  0  0999 V2000
  -34.2327  -30.3806   17.6232 C   0  0  0  0  0  0  0  0  0  0  0  0
  -33.6473  -29.1865   18.0318 C   0  0  0  0  0  0  0  0  0  0  0  0
  -23.5956   -9.7018   21.7220 C   0  0  0  0  0  0  0  0  0  0  0  0
  -23.4422  -11.8575   22.8020 C   0  0  0  0  0  0  0  0  0  0  0  0
  -34.0198  -31.5469   18.3569 C   0  0  0  0  0  0  0  0  0  0  0  0
  -32.8494  -29.1580   19.1750 C   0  0  0  0  0  0  0  0  0  0  0  0
  -27.8815  -25.7013   20.1116 C   0  0  0  0  0  0  0  0  0  0  0  0
  -31.8279  -16.2291   22.3588 C   0  0  0  0  0  0  0  0  0  0  0  0
  -22.8718   -9.1269   22.7666 C   0  0  0  0  0  0  0  0  0  0  0  0
  -22.7184  -11.2826   23.8466 C   0  0  0  0  0  0  0  0  0  0  0  0
  -27.6908  -24.4962   20.7864 C   0  0  0  0  0  0  0  0  0  0  0  0
  -19.6395   -8.9135   23.7356 C   0  0  0  0  0  0  0  0  0  0  0  0
  -18.6127   -8.0297   23.4034 C   0  0  0  0  0  0  0  0  0  0  0  0
  -32.3454  -17.1700   23.2490 C   0  0  0  0  0  0  0  0  0  0  0  0
  -26.9911  -25.7126   22.7485 C   0  0  0  0  0  0  0  0  0  0  0  0
  -19.7238   -6.2749   24.6375 C   0  0  0  0  0  0  0  0  0  0  0  0
  -23.8808  -11.0671   21.7397 C   0  0  0  0  0  0  0  0  0  0  0  0
  -24.1140  -12.2190   19.4755 C   0  0  0  0  0  0  0  0  0  0  0  0
  -33.2110  -31.5346   19.5042 C   0  0  0  0  0  0  0  0  0  0  0  0
  -27.6383  -26.9234   20.7548 C   0  0  0  0  0  0  0  0  0  0  0  0
  -32.6265  -30.3250   19.9255 C   0  0  0  0  0  0  0  0  0  0  0  0
  -27.1769  -26.9317   22.0788 C   0  0  0  0  0  0  0  0  0  0  0  0
  -30.1448  -18.1321   23.5113 C   0  0  0  0  0  0  0  0  0  0  0  0
  -30.4688  -16.2398   22.0447 C   0  0  0  0  0  0  0  0  0  0  0  0
  -22.4332   -9.9173   23.8289 C   0  0  0  0  0  0  0  0  0  0  0  0
  -27.2483  -24.5019   22.1059 C   0  0  0  0  0  0  0  0  0  0  0  0
  -20.7085   -8.4779   24.5187 C   0  0  0  0  0  0  0  0  0  0  0  0
  -18.6548   -6.7104   23.8544 C   0  0  0  0  0  0  0  0  0  0  0  0
  -20.7507   -7.1586   24.9696 C   0  0  0  0  0  0  0  0  0  0  0  0
  -31.5038  -18.1215   23.8253 C   0  0  0  0  0  0  0  0  0  0  0  0
  -29.6273  -17.1912   22.6210 C   0  0  0  0  0  0  0  0  0  0  0  0
  -24.6289  -11.6614   20.6611 C   0  0  0  0  0  0  0  0  0  0  0  0
  -25.2231  -12.6443   18.7861 C   0  0  0  0  0  0  0  0  0  0  0  0
  -22.7545  -12.3416   19.0367 C   0  0  0  0  0  0  0  0  0  0  0  0
  -29.4136  -29.4453   21.5244 C   0  0  0  0  0  0  0  0  0  0  0  0
  -26.5581  -30.6897   22.4300 C   0  0  0  0  0  0  0  0  0  0  0  0
  -28.1023  -21.2902   23.5565 C   0  0  0  0  0  0  0  0  0  0  0  0
  -23.3488  -30.1354   23.4499 C   0  0  0  0  0  0  0  0  0  0  0  0
  -30.7139  -14.2717   20.4913 C   0  0  0  0  0  0  0  0  0  0  0  0
  -33.0483  -32.8107   20.2914 C   0  0  0  0  0  0  0  0  0  0  0  0
  -27.8232  -28.2138   20.0045 C   0  0  0  0  0  0  0  0  0  0  0  0
  -26.8821  -28.2163   22.8078 C   0  0  0  0  0  0  0  0  0  0  0  0
  -31.8852  -32.7729   21.2793 C   0  0  0  0  0  0  0  0  0  0  0  0
  -29.8763  -11.6692   18.2104 C   0  0  0  0  0  0  0  0  0  0  0  0
  -31.9003  -31.4697   22.0721 C   0  0  0  0  0  0  0  0  0  0  0  0
  -28.3873  -11.4268   18.4679 C   0  0  0  0  0  0  0  0  0  0  0  0
  -30.6290  -11.9950   19.4992 C   0  0  0  0  0  0  0  0  0  0  0  0
  -28.5706  -12.8511   20.5475 C   0  0  0  0  0  0  0  0  0  0  0  0
  -31.7344  -30.2587   21.1461 C   0  0  1  0  0  0  0  0  0  0  0  0
  -28.0373  -29.4134   20.9224 C   0  0  1  0  0  0  0  0  0  0  0  0
  -27.7585  -12.5831   19.2698 C   0  0  2  0  0  0  0  0  0  0  0  0
  -21.2672  -31.3491   24.1509 C   0  0  0  0  0  0  0  0  0  0  0  0
  -27.8145  -31.2687   25.1495 C   0  0  0  0  0  0  0  0  0  0  0  0
  -25.5075  -31.5774   26.0718 C   0  0  0  0  0  0  0  0  0  0  0  0
  -26.3419  -33.0895   24.2718 C   0  0  0  0  0  0  0  0  0  0  0  0
  -21.7898  -28.9959   21.2071 C   0  0  0  0  0  0  0  0  0  0  0  0
  -29.2437  -19.1579   24.1359 C   0  0  0  0  0  0  0  0  0  0  0  0
  -27.8923  -22.2300   22.3885 C   0  0  0  0  0  0  0  0  0  1  0  0
  -25.7516  -30.6971   23.7061 C   0  0  1  0  0  0  0  0  0  0  0  0
  -22.0292  -30.7285   22.9902 C   0  0  2  0  0  0  0  0  0  0  0  0
  -26.3612  -31.6339   24.7870 C   0  0  0  0  0  0  0  0  0  0  0  0
  -25.9616  -11.7251   20.7245 N   0  0  0  0  0  0  0  0  0  0  0  0
  -26.2934  -12.3276   19.5700 N   0  0  0  0  0  0  0  0  0  0  0  0
  -27.0843  -29.4520   22.0335 N   0  0  0  0  0  0  0  0  0  0  0  0
  -29.9788  -13.1024   20.2032 N   0  0  0  0  0  0  0  0  0  0  0  0
  -25.3776  -13.2544   17.5918 N   0  0  0  0  0  0  0  0  0  0  0  0
  -21.7375  -11.8521   19.8675 N   0  0  0  0  0  0  0  0  0  0  0  0
  -29.9819  -15.2693   21.1343 N   0  0  0  0  0  0  0  0  0  0  0  0
  -30.3495  -30.1085   20.7538 N   0  0  0  0  0  0  0  0  0  0  0  0
  -28.8915  -20.2059   23.2062 N   0  0  0  0  0  0  0  0  0  0  0  0
  -24.3852  -31.0361   23.3234 N   0  0  0  0  0  0  0  0  0  0  0  0
  -21.1733  -29.6743   22.3763 N   0  3  0  0  0  0  0  0  0  0  0  0
  -22.4518  -12.8548   17.9328 O   0  0  0  0  0  0  0  0  0  0  0  0
  -29.6115  -28.9093   22.6085 O   0  0  0  0  0  0  0  0  0  0  0  0
  -26.7095  -31.7418   21.8041 O   0  0  0  0  0  0  0  0  0  0  0  0
  -27.6176  -21.4915   24.6667 O   0  0  0  0  0  0  0  0  0  0  0  0
  -23.4495  -28.9892   23.8816 O   0  0  0  0  0  0  0  0  0  0  0  0
  -31.8979  -14.3907   20.1654 O   0  0  0  0  0  0  0  0  0  0  0  0
  -21.7267   -9.3567   24.8483 O   0  0  0  0  0  0  0  0  0  0  0  0
  -27.0621  -23.3271   22.7671 O   0  0  0  0  0  0  0  0  0  1  0  0
  -17.6680   -5.8623   23.5366 F   0  0  0  0  0  0  0  0  0  0  0  0
  -21.7745   -6.7347   25.7232 F   0  0  0  0  0  0  0  0  0  0  0  0
  -32.1879  -19.2683   24.9204 Cl  0  0  0  0  0  0  0  0  0  0  0  0
  -27.9366  -17.2018   22.2318 Cl  0  0  0  0  0  0  0  0  0  0  0  0
  1  2  1  0  0  0  0
  1  5  2  0  0  0  0
  2  6  2  0  0  0  0
  3  9  2  0  0  0  0
  3 17  1  0  0  0  0
  4 10  1  0  0  0  0
  4 17  2  0  0  0  0
  5 19  1  0  0  0  0
  6 21  1  0  0  0  0
  7 11  2  0  0  0  0
  7 20  1  0  0  0  0
  8 14  1  0  0  0  0
  8 24  2  0  0  0  0
  9 25  1  0  0  0  0
 10 25  2  0  0  0  0
 11 26  1  0  0  0  0
 12 13  2  0  0  0  0
 12 27  1  0  0  0  0
 13 28  1  0  0  0  0
 14 30  2  0  0  0  0
 15 22  1  0  0  0  0
 15 26  2  0  0  0  0
 16 28  2  0  0  0  0
 16 29  1  0  0  0  0
 17 32  1  0  0  0  0
 18 32  1  0  0  0  0
 18 33  2  0  0  0  0
 18 34  1  0  0  0  0
 19 21  2  0  0  0  0
 19 40  1  0  0  0  0
 20 22  2  0  0  0  0
 20 41  1  0  0  0  0
 21 49  1  0  0  0  0
 22 42  1  0  0  0  0
 23 30  1  0  0  0  0
 23 31  2  0  0  0  0
 23 57  1  0  0  0  0
 24 31  1  0  0  0  0
 24 68  1  0  0  0  0
 25 79  1  0  0  0  0
 26 80  1  0  0  0  0
 27 29  2  0  0  0  0
 27 79  1  0  0  0  0
 28 81  1  0  0  0  0
 29 82  1  0  0  0  0
 30 83  1  0  0  0  0
 31 84  1  0  0  0  0
 32 62  2  0  0  0  0
 33 63  1  0  0  0  0
 33 66  1  0  0  0  0
 34 67  1  0  0  0  0
 34 73  2  0  0  0  0
 35 50  1  0  0  0  0
 35 69  1  0  0  0  0
 35 74  2  0  0  0  0
 36 59  1  0  0  0  0
 36 64  1  0  0  0  0
 36 75  2  0  0  0  0
 37 58  1  0  0  0  0
 37 70  1  0  0  0  0
 37 76  2  0  0  0  0
 38 60  1  0  0  0  0
 38 71  1  0  0  0  0
 38 77  2  0  0  0  0
 39 65  1  0  0  0  0
 39 68  1  0  0  0  0
 39 78  2  0  0  0  0
 40 43  1  0  0  0  0
 41 50  1  0  0  0  0
 42 64  1  0  0  0  0
 43 45  1  0  0  0  0
 44 46  1  0  0  0  0
 44 47  1  0  0  0  0
 45 49  1  0  0  0  0
 46 51  1  0  0  0  0
 47 65  1  0  0  0  0
 48 51  1  0  0  0  0
 48 65  1  0  0  0  0
 49 69  1  0  0  0  0
 50 64  1  0  0  0  0
 51 63  1  0  0  0  0
 52 60  1  0  0  0  0
 53 61  1  0  0  0  0
 54 61  1  0  0  0  0
 55 61  1  0  0  0  0
 56 72  1  0  0  0  0
 57 70  1  0  0  0  0
 58 80  1  0  0  0  0
 59 61  1  0  0  0  0
 59 71  1  0  0  0  0
 60 72  1  0  0  0  0
 62 63  1  0  0  0  0
M  CHG  1  72   1
M  ISO  4  39 100  58 101  68 100  80 101
M  END
> <Batch ID>
0014

> <Smiles>
CNC(C)C(=O)NC(C(=O)N1Cc2cc([101O:1][101CH2:1]C(=O)NCc3c(Cl)ccc([100NH:0][100C:0](=O)N4CCCC(n5nc(-c6ccc(Oc7ccc(F)cc7F)cc6)c(C(N)=O)c5N)C4)c3Cl)ccc2CC1C(=O)NC1CCCc2ccccc21)C(C)(C)C

> <Shape>
0.232

> <Color>
0.104

> <Negative vol penalty>
0.000

$$$$

  -OEChem-04052315533D

 87 95  0     1  0  0  0  0  0999 V2000
  -30.3502  -31.6046   26.9162 C   0  0  0  0  0  0  0  0  0  0  0  0
  -30.0881  -30.5726   26.0208 C   0  0  0  0  0  0  0  0  0  0  0  0
  -24.1144  -15.3264   22.5559 C   0  0  0  0  0  0  0  0  0  0  0  0
  -23.1740  -15.4568   20.3342 C   0  0  0  0  0  0  0  0  0  0  0  0
  -29.3048  -32.3942   27.3934 C   0  0  0  0  0  0  0  0  0  0  0  0
  -28.7802  -30.3289   25.6030 C   0  0  0  0  0  0  0  0  0  0  0  0
  -26.9810  -28.3893   20.0797 C   0  0  0  0  0  0  0  0  0  0  0  0
  -23.3950  -16.4624   22.9270 C   0  0  0  0  0  0  0  0  0  0  0  0
  -22.4546  -16.5928   20.7054 C   0  0  0  0  0  0  0  0  0  0  0  0
  -26.6387  -27.1280   19.5941 C   0  0  0  0  0  0  0  0  0  0  0  0
  -19.6332  -17.3003   22.4257 C   0  0  0  0  0  0  0  0  0  0  0  0
  -18.2924  -17.3686   22.0476 C   0  0  0  0  0  0  0  0  0  0  0  0
  -24.3086  -27.6184   19.9801 C   0  0  0  0  0  0  0  0  0  0  0  0
  -28.0064  -20.8562   19.3374 C   0  0  0  0  0  0  0  0  0  0  0  0
  -18.7484  -19.3830   20.7941 C   0  0  0  0  0  0  0  0  0  0  0  0
  -24.0039  -14.8237   21.2594 C   0  0  0  0  0  0  0  0  0  0  0  0
  -24.3297  -12.3098   20.9731 C   0  0  0  0  0  0  0  0  0  0  0  0
  -27.9848  -32.1662   26.9738 C   0  0  0  0  0  0  0  0  0  0  0  0
  -25.9888  -29.2719   20.5301 C   0  0  0  0  0  0  0  0  0  0  0  0
  -27.7161  -31.1153   26.0761 C   0  0  0  0  0  0  0  0  0  0  0  0
  -24.6407  -28.8913   20.4686 C   0  0  0  0  0  0  0  0  0  0  0  0
  -27.3349  -20.1331   20.3232 C   0  0  0  0  0  0  0  0  0  0  0  0
  -29.1368  -18.8417   18.6297 C   0  0  0  0  0  0  0  0  0  0  0  0
  -28.4654  -18.1186   19.6155 C   0  0  0  0  0  0  0  0  0  0  0  0
  -22.5651  -17.0955   22.0018 C   0  0  0  0  0  0  0  0  0  0  0  0
  -25.3026  -26.7413   19.5469 C   0  0  0  0  0  0  0  0  0  0  0  0
  -20.5317  -18.2734   21.9881 C   0  0  0  0  0  0  0  0  0  0  0  0
  -17.8500  -18.4099   21.2318 C   0  0  0  0  0  0  0  0  0  0  0  0
  -28.9073  -20.2105   18.4906 C   0  0  0  0  0  0  0  0  0  0  0  0
  -20.0893  -19.3147   21.1723 C   0  0  0  0  0  0  0  0  0  0  0  0
  -27.5644  -18.7643   20.4623 C   0  0  0  0  0  0  0  0  0  0  0  0
  -24.7472  -13.6507   20.8752 C   0  0  0  0  0  0  0  0  0  0  0  0
  -25.3873  -11.5841   20.4819 C   0  0  0  0  0  0  0  0  0  0  0  0
  -23.0960  -11.7687   21.4639 C   0  0  0  0  0  0  0  0  0  0  0  0
  -25.3086  -30.6516   23.3118 C   0  0  0  0  0  0  0  0  0  0  0  0
  -23.0748  -32.2092   21.5493 C   0  0  0  0  0  0  0  0  0  0  0  0
  -25.1051  -22.8873   20.4294 C   0  0  0  0  0  0  0  0  0  0  0  0
  -21.0915  -32.2564   18.7724 C   0  0  0  0  0  0  0  0  0  0  0  0
  -28.5054  -15.7435   18.7782 C   0  0  0  0  0  0  0  0  0  0  0  0
  -26.8817  -33.0158   27.5536 C   0  0  0  0  0  0  0  0  0  0  0  0
  -26.3724  -30.6391   21.0262 C   0  0  0  0  0  0  0  0  0  0  0  0
  -23.5360  -29.8096   20.9211 C   0  0  0  0  0  0  0  0  0  0  0  0
  -25.5731  -32.9313   26.7722 C   0  0  0  0  0  0  0  0  0  0  0  0
  -29.3902  -13.1555   21.2305 C   0  0  0  0  0  0  0  0  0  0  0  0
  -25.2324  -31.4782   26.4571 C   0  0  0  0  0  0  0  0  0  0  0  0
  -28.7559  -11.9063   20.6210 C   0  0  0  0  0  0  0  0  0  0  0  0
  -29.9106  -14.0903   20.1467 C   0  0  0  0  0  0  0  0  0  0  0  0
  -28.2067  -13.2904   18.5429 C   0  0  0  0  0  0  0  0  0  0  0  0
  -26.3139  -30.8356   25.5803 C   0  0  1  0  0  0  0  0  0  0  0  0
  -25.3195  -31.2609   21.9384 C   0  0  1  0  0  0  0  0  0  0  0  0
  -27.7097  -12.2195   19.5355 C   0  0  2  0  0  0  0  0  0  0  0  0
  -30.1086  -18.1768   17.7086 C   0  0  0  0  0  0  0  0  0  0  0  0
  -19.3440  -33.6430   17.6231 C   0  0  0  0  0  0  0  0  0  0  0  0
  -21.0006  -31.2770   23.5836 C   0  0  0  0  0  0  0  0  0  0  0  0
  -19.2164  -31.8529   21.9244 C   0  0  0  0  0  0  0  0  0  0  0  0
  -20.7160  -33.6384   22.8109 C   0  0  0  0  0  0  0  0  0  0  0  0
  -24.4442  -20.5826   19.7065 C   0  0  0  0  0  0  0  0  0  0  0  0
  -22.7804  -32.5999   16.3664 C   0  0  0  0  0  0  0  0  0  0  0  0
  -26.3745  -20.8712   21.2103 C   0  0  0  0  0  0  0  0  0  0  0  0
  -23.9397  -23.3909   19.5842 C   0  0  0  0  0  0  0  0  0  0  0  0
  -23.7905  -24.9068   19.6132 C   0  0  0  0  0  0  0  0  0  1  0  0
  -21.6366  -31.9470   21.1727 C   0  0  1  0  0  0  0  0  0  0  0  0
  -20.8293  -33.3381   17.7401 C   0  0  2  0  0  0  0  0  0  0  0  0
  -20.6631  -32.1605   22.3661 C   0  0  0  0  0  0  0  0  0  0  0  0
  -25.9745  -13.7724   20.3624 N   0  0  0  0  0  0  0  0  0  0  0  0
  -26.3372  -12.4988   20.1336 N   0  0  0  0  0  0  0  0  0  0  0  0
  -23.9622  -31.1335   21.4038 N   0  0  0  0  0  0  0  0  0  0  0  0
  -28.8443  -14.4367   19.1974 N   0  0  0  0  0  0  0  0  0  0  0  0
  -25.5882  -10.2592   20.3183 N   0  0  0  0  0  0  0  0  0  0  0  0
  -22.1165  -12.6555   21.9314 N   0  0  0  0  0  0  0  0  0  0  0  0
  -28.7111  -16.7290   19.7430 N   0  0  0  0  0  0  0  0  0  0  0  0
  -26.1686  -31.2616   24.2048 N   0  0  0  0  0  0  0  0  0  0  0  0
  -21.3573  -32.7904   20.0155 N   0  0  0  0  0  0  0  0  0  0  0  0
  -25.2995  -21.5016   20.4475 N   0  0  0  0  0  0  0  0  0  0  0  0
  -21.3279  -32.9096   16.4027 N   0  3  0  0  0  0  0  0  0  0  0  0
  -22.8755  -10.5344   21.5026 O   0  0  0  0  0  0  0  0  0  0  0  0
  -24.5731  -29.6994   23.5444 O   0  0  0  0  0  0  0  0  0  0  0  0
  -23.4003  -33.3293   21.9507 O   0  0  0  0  0  0  0  0  0  0  0  0
  -25.8185  -23.6799   21.0499 O   0  0  0  0  0  0  0  0  0  0  0  0
  -21.0597  -31.0575   18.5037 O   0  0  0  0  0  0  0  0  0  0  0  0
  -28.0348  -15.9652   17.6595 O   0  0  0  0  0  0  0  0  0  0  0  0
  -21.8628  -18.2038   22.3637 O   0  0  0  0  0  0  0  0  0  0  0  0
  -24.9658  -25.5105   19.0740 O   0  0  0  0  0  0  0  0  0  1  0  0
  -16.5626  -18.4745   20.8675 F   0  0  0  0  0  0  0  0  0  0  0  0
  -29.5474  -20.9150   17.5466 F   0  0  0  0  0  0  0  0  0  0  0  0
  -20.9481  -20.2518   20.7477 F   0  0  0  0  0  0  0  0  0  0  0  0
  -26.7241  -17.8745   21.6909 Cl  0  0  0  0  0  0  0  0  0  0  0  0
  1  2  1  0  0  0  0
  1  5  2  0  0  0  0
  2  6  2  0  0  0  0
  3  8  2  0  0  0  0
  3 16  1  0  0  0  0
  4  9  1  0  0  0  0
  4 16  2  0  0  0  0
  5 18  1  0  0  0  0
  6 20  1  0  0  0  0
  7 10  2  0  0  0  0
  7 19  1  0  0  0  0
  8 25  1  0  0  0  0
  9 25  2  0  0  0  0
 10 26  1  0  0  0  0
 11 12  2  0  0  0  0
 11 27  1  0  0  0  0
 12 28  1  0  0  0  0
 13 21  1  0  0  0  0
 13 26  2  0  0  0  0
 14 22  1  0  0  0  0
 14 29  2  0  0  0  0
 15 28  2  0  0  0  0
 15 30  1  0  0  0  0
 16 32  1  0  0  0  0
 17 32  1  0  0  0  0
 17 33  2  0  0  0  0
 17 34  1  0  0  0  0
 18 20  2  0  0  0  0
 18 40  1  0  0  0  0
 19 21  2  0  0  0  0
 19 41  1  0  0  0  0
 20 49  1  0  0  0  0
 21 42  1  0  0  0  0
 22 31  2  0  0  0  0
 22 59  1  0  0  0  0
 23 24  2  0  0  0  0
 23 29  1  0  0  0  0
 23 52  1  0  0  0  0
 24 31  1  0  0  0  0
 24 71  1  0  0  0  0
 25 82  1  0  0  0  0
 26 83  1  0  0  0  0
 27 30  2  0  0  0  0
 27 82  1  0  0  0  0
 28 84  1  0  0  0  0
 29 85  1  0  0  0  0
 30 86  1  0  0  0  0
 31 87  1  0  0  0  0
 32 65  2  0  0  0  0
 33 66  1  0  0  0  0
 33 69  1  0  0  0  0
 34 70  1  0  0  0  0
 34 76  2  0  0  0  0
 35 50  1  0  0  0  0
 35 72  1  0  0  0  0
 35 77  2  0  0  0  0
 36 62  1  0  0  0  0
 36 67  1  0  0  0  0
 36 78  2  0  0  0  0
 37 60  1  0  0  0  0
 37 74  1  0  0  0  0
 37 79  2  0  0  0  0
 38 63  1  0  0  0  0
 38 73  1  0  0  0  0
 38 80  2  0  0  0  0
 39 68  1  0  0  0  0
 39 71  1  0  0  0  0
 39 81  2  0  0  0  0
 40 43  1  0  0  0  0
 41 50  1  0  0  0  0
 42 67  1  0  0  0  0
 43 45  1  0  0  0  0
 44 46  1  0  0  0  0
 44 47  1  0  0  0  0
 45 49  1  0  0  0  0
 46 51  1  0  0  0  0
 47 68  1  0  0  0  0
 48 51  1  0  0  0  0
 48 68  1  0  0  0  0
 49 72  1  0  0  0  0
 50 67  1  0  0  0  0
 51 66  1  0  0  0  0
 53 63  1  0  0  0  0
 54 64  1  0  0  0  0
 55 64  1  0  0  0  0
 56 64  1  0  0  0  0
 57 74  1  0  0  0  0
 58 75  1  0  0  0  0
 59 74  1  0  0  0  0
 60 61  1  0  0  0  0
 61 83  1  0  0  0  0
 62 64  1  0  0  0  0
 62 73  1  0  0  0  0
 63 75  1  0  0  0  0
 65 66  1  0  0  0  0
M  CHG  1  75   1
M  ISO  4  39 100  61 101  71 100  83 101
M  END
> <Batch ID>
0014

> <Smiles>
CNC(C)C(=O)NC(C(=O)N1Cc2cc([101O:1][101CH2:1]CC(=O)N(C)Cc3cc(F)c(C)c([100NH:0][100C:0](=O)N4CCCC(n5nc(-c6ccc(Oc7ccc(F)cc7F)cc6)c(C(N)=O)c5N)C4)c3Cl)ccc2CC1C(=O)NC1CCCc2ccccc21)C(C)(C)C

> <Shape>
0.248

> <Color>
0.095

> <Negative vol penalty>
0.000

$$$$

  -OEChem-04052315533D

 85 93  0     1  0  0  0  0  0999 V2000
  -29.6898  -33.8843   17.9867 C   0  0  0  0  0  0  0  0  0  0  0  0
  -30.0992  -32.8623   18.8373 C   0  0  0  0  0  0  0  0  0  0  0  0
  -23.0665   -9.8801   19.9378 C   0  0  0  0  0  0  0  0  0  0  0  0
  -23.8332   -9.8721   22.2289 C   0  0  0  0  0  0  0  0  0  0  0  0
  -28.4056  -33.8655   17.4441 C   0  0  0  0  0  0  0  0  0  0  0  0
  -29.2242  -31.8216   19.1466 C   0  0  0  0  0  0  0  0  0  0  0  0
  -30.6807  -25.9527   20.1162 C   0  0  0  0  0  0  0  0  0  0  0  0
  -22.3184   -8.7289   20.1841 C   0  0  0  0  0  0  0  0  0  0  0  0
  -23.0851   -8.7209   22.4753 C   0  0  0  0  0  0  0  0  0  0  0  0
  -30.8758  -25.2151   21.2831 C   0  0  0  0  0  0  0  0  0  0  0  0
  -19.8553   -7.9340   23.0834 C   0  0  0  0  0  0  0  0  0  0  0  0
  -19.1017   -7.8914   24.2563 C   0  0  0  0  0  0  0  0  0  0  0  0
  -28.5940  -24.4408   21.1679 C   0  0  0  0  0  0  0  0  0  0  0  0
  -32.0922  -16.5530   22.5381 C   0  0  0  0  0  0  0  0  0  0  0  0
  -20.3369   -5.9448   24.9792 C   0  0  0  0  0  0  0  0  0  0  0  0
  -23.8240  -10.4517   20.9602 C   0  0  0  0  0  0  0  0  0  0  0  0
  -24.1764  -12.9759   20.8520 C   0  0  0  0  0  0  0  0  0  0  0  0
  -27.5177  -32.8190   17.7393 C   0  0  0  0  0  0  0  0  0  0  0  0
  -29.4355  -25.9485   19.4713 C   0  0  0  0  0  0  0  0  0  0  0  0
  -27.9265  -31.7896   18.6085 C   0  0  0  0  0  0  0  0  0  0  0  0
  -28.3865  -25.1771   19.9915 C   0  0  0  0  0  0  0  0  0  0  0  0
  -32.7066  -17.4218   23.4400 C   0  0  0  0  0  0  0  0  0  0  0  0
  -29.9305  -17.4322   23.1637 C   0  0  0  0  0  0  0  0  0  0  0  0
  -30.5449  -18.3010   24.0656 C   0  0  0  0  0  0  0  0  0  0  0  0
  -30.7042  -16.5582   22.3999 C   0  0  0  0  0  0  0  0  0  0  0  0
  -22.3277   -8.1493   21.4529 C   0  0  0  0  0  0  0  0  0  0  0  0
  -29.8315  -24.4613   21.8107 C   0  0  0  0  0  0  0  0  0  0  0  0
  -20.8497   -6.9820   22.8583 C   0  0  0  0  0  0  0  0  0  0  0  0
  -19.3424   -6.8968   25.2042 C   0  0  0  0  0  0  0  0  0  0  0  0
  -21.0905   -5.9875   23.8062 C   0  0  0  0  0  0  0  0  0  0  0  0
  -31.9330  -18.2958   24.2037 C   0  0  0  0  0  0  0  0  0  0  0  0
  -24.5975  -11.6405   20.7062 C   0  0  0  0  0  0  0  0  0  0  0  0
  -25.2707  -13.7225   20.4893 C   0  0  0  0  0  0  0  0  0  0  0  0
  -22.9094  -13.4950   21.2773 C   0  0  0  0  0  0  0  0  0  0  0  0
  -27.2581  -28.1598   18.7837 C   0  0  0  0  0  0  0  0  0  0  0  0
  -25.8503  -25.7168   17.1800 C   0  0  0  0  0  0  0  0  0  0  0  0
  -29.9917  -21.5378   23.9499 C   0  0  0  0  0  0  0  0  0  0  0  0
  -25.4463  -22.3488   16.8050 C   0  0  0  0  0  0  0  0  0  0  0  0
  -30.7419  -14.7436   20.6529 C   0  0  0  0  0  0  0  0  0  0  0  0
  -26.1234  -32.8666   17.1665 C   0  0  0  0  0  0  0  0  0  0  0  0
  -29.2492  -26.7283   18.1987 C   0  0  0  0  0  0  0  0  0  0  0  0
  -27.0364  -25.1228   19.3260 C   0  0  0  0  0  0  0  0  0  0  0  0
  -25.3860  -31.5324   17.2467 C   0  0  0  0  0  0  0  0  0  0  0  0
  -29.6100  -12.3467   18.2758 C   0  0  0  0  0  0  0  0  0  0  0  0
  -25.5417  -30.9191   18.6347 C   0  0  0  0  0  0  0  0  0  0  0  0
  -28.1704  -12.0591   18.7082 C   0  0  0  0  0  0  0  0  0  0  0  0
  -30.5297  -12.5654   19.4758 C   0  0  0  0  0  0  0  0  0  0  0  0
  -28.6300  -13.2911   20.8664 C   0  0  0  0  0  0  0  0  0  0  0  0
  -27.0147  -30.6305   18.9483 C   0  0  1  0  0  0  0  0  0  0  0  0
  -27.7883  -27.0591   17.9091 C   0  0  1  0  0  0  0  0  0  0  0  0
  -27.6529  -13.1280   19.6907 C   0  0  2  0  0  0  0  0  0  0  0  0
  -34.1909  -17.4135   23.5856 C   0  0  0  0  0  0  0  0  0  0  0  0
  -28.4407  -17.4389   23.0189 C   0  0  0  0  0  0  0  0  0  0  0  0
  -24.2023  -20.6546   15.4341 C   0  0  0  0  0  0  0  0  0  0  0  0
  -23.3056  -26.3158   18.7533 C   0  0  0  0  0  0  0  0  0  0  0  0
  -22.4373  -24.0692   18.0698 C   0  0  0  0  0  0  0  0  0  0  0  0
  -22.9382  -25.7912   16.3359 C   0  0  0  0  0  0  0  0  0  0  0  0
  -27.9568  -21.1685   15.7739 C   0  0  0  0  0  0  0  0  0  0  0  0
  -29.7327  -19.2523   24.8959 C   0  0  0  0  0  0  0  0  0  0  0  0
  -29.2525  -22.5462   23.0965 C   0  0  0  0  0  0  0  0  0  1  0  0
  -24.8479  -24.6441   17.5315 C   0  0  1  0  0  0  0  0  0  0  0  0
  -25.4843  -21.4606   15.5745 C   0  0  2  0  0  0  0  0  0  0  0  0
  -23.4070  -25.2074   17.6865 C   0  0  0  0  0  0  0  0  0  0  0  0
  -25.8606  -11.5413   20.2837 N   0  0  0  0  0  0  0  0  0  0  0  0
  -26.2427  -12.8239   20.1607 N   0  0  0  0  0  0  0  0  0  0  0  0
  -26.9019  -25.9074   18.0875 N   0  0  0  0  0  0  0  0  0  0  0  0
  -29.9778  -13.5942   20.3601 N   0  0  0  0  0  0  0  0  0  0  0  0
  -25.4867  -15.0534   20.4224 N   0  0  0  0  0  0  0  0  0  0  0  0
  -21.8946  -12.5885   21.6130 N   0  0  0  0  0  0  0  0  0  0  0  0
  -30.1009  -15.6672   21.4780 N   0  0  0  0  0  0  0  0  0  0  0  0
  -27.4497  -29.4282   18.2702 N   0  0  0  0  0  0  0  0  0  0  0  0
  -29.2568  -20.3752   24.1214 N   0  0  0  0  0  0  0  0  0  0  0  0
  -24.9791  -23.6119   16.5089 N   0  0  0  0  0  0  0  0  0  0  0  0
  -26.6299  -20.5110   15.6563 N   0  3  0  0  0  0  0  0  0  0  0  0
  -22.6787  -14.7264   21.3416 O   0  0  0  0  0  0  0  0  0  0  0  0
  -26.7140  -27.8789   19.8453 O   0  0  0  0  0  0  0  0  0  0  0  0
  -25.7096  -26.3569   16.1350 O   0  0  0  0  0  0  0  0  0  0  0  0
  -31.1055  -21.7544   24.4195 O   0  0  0  0  0  0  0  0  0  0  0  0
  -25.7928  -21.9599   17.9182 O   0  0  0  0  0  0  0  0  0  0  0  0
  -31.8703  -14.9098   20.1828 O   0  0  0  0  0  0  0  0  0  0  0  0
  -21.5976   -7.0261   21.6936 O   0  0  0  0  0  0  0  0  0  0  0  0
  -30.0190  -23.7409   22.9500 O   0  0  0  0  0  0  0  0  0  1  0  0
  -18.6197   -6.8569   26.3313 F   0  0  0  0  0  0  0  0  0  0  0  0
  -22.0452   -5.0709   23.5961 F   0  0  0  0  0  0  0  0  0  0  0  0
  -32.5245  -19.1323   25.0696 F   0  0  0  0  0  0  0  0  0  0  0  0
  1  2  1  0  0  0  0
  1  5  2  0  0  0  0
  2  6  2  0  0  0  0
  3  8  2  0  0  0  0
  3 16  1  0  0  0  0
  4  9  1  0  0  0  0
  4 16  2  0  0  0  0
  5 18  1  0  0  0  0
  6 20  1  0  0  0  0
  7 10  2  0  0  0  0
  7 19  1  0  0  0  0
  8 26  1  0  0  0  0
  9 26  2  0  0  0  0
 10 27  1  0  0  0  0
 11 12  2  0  0  0  0
 11 28  1  0  0  0  0
 12 29  1  0  0  0  0
 13 21  1  0  0  0  0
 13 27  2  0  0  0  0
 14 22  2  0  0  0  0
 14 25  1  0  0  0  0
 15 29  2  0  0  0  0
 15 30  1  0  0  0  0
 16 32  1  0  0  0  0
 17 32  1  0  0  0  0
 17 33  2  0  0  0  0
 17 34  1  0  0  0  0
 18 20  2  0  0  0  0
 18 40  1  0  0  0  0
 19 21  2  0  0  0  0
 19 41  1  0  0  0  0
 20 49  1  0  0  0  0
 21 42  1  0  0  0  0
 22 31  1  0  0  0  0
 22 52  1  0  0  0  0
 23 24  1  0  0  0  0
 23 25  2  0  0  0  0
 23 53  1  0  0  0  0
 24 31  2  0  0  0  0
 24 59  1  0  0  0  0
 25 70  1  0  0  0  0
 26 81  1  0  0  0  0
 27 82  1  0  0  0  0
 28 30  2  0  0  0  0
 28 81  1  0  0  0  0
 29 83  1  0  0  0  0
 30 84  1  0  0  0  0
 31 85  1  0  0  0  0
 32 64  2  0  0  0  0
 33 65  1  0  0  0  0
 33 68  1  0  0  0  0
 34 69  1  0  0  0  0
 34 75  2  0  0  0  0
 35 50  1  0  0  0  0
 35 71  1  0  0  0  0
 35 76  2  0  0  0  0
 36 61  1  0  0  0  0
 36 66  1  0  0  0  0
 36 77  2  0  0  0  0
 37 60  1  0  0  0  0
 37 72  1  0  0  0  0
 37 78  2  0  0  0  0
 38 62  1  0  0  0  0
 38 73  1  0  0  0  0
 38 79  2  0  0  0  0
 39 67  1  0  0  0  0
 39 70  1  0  0  0  0
 39 80  2  0  0  0  0
 40 43  1  0  0  0  0
 41 50  1  0  0  0  0
 42 66  1  0  0  0  0
 43 45  1  0  0  0  0
 44 46  1  0  0  0  0
 44 47  1  0  0  0  0
 45 49  1  0  0  0  0
 46 51  1  0  0  0  0
 47 67  1  0  0  0  0
 48 51  1  0  0  0  0
 48 67  1  0  0  0  0
 49 71  1  0  0  0  0
 50 66  1  0  0  0  0
 51 65  1  0  0  0  0
 54 62  1  0  0  0  0
 55 63  1  0  0  0  0
 56 63  1  0  0  0  0
 57 63  1  0  0  0  0
 58 74  1  0  0  0  0
 59 72  1  0  0  0  0
 60 82  1  0  0  0  0
 61 63  1  0  0  0  0
 61 73  1  0  0  0  0
 62 74  1  0  0  0  0
 64 65  1  0  0  0  0
M  CHG  1  74   1
M  ISO  4  39 100  60 101  70 100  82 101
M  END
> <Batch ID>
0014

> <Smiles>
CNC(C)C(=O)NC(C(=O)N1Cc2cc([101O:1][101CH2:1]C(=O)NCc3c(C)c([100NH:0][100C:0](=O)N4CCCC(n5nc(-c6ccc(Oc7ccc(F)cc7F)cc6)c(C(N)=O)c5N)C4)cc(C)c3F)ccc2CC1C(=O)NC1CCCc2ccccc21)C(C)(C)C

> <Shape>
0.217

> <Color>
0.192

> <Negative vol penalty>
0.000

$$$$

  -OEChem-04052315533D

 86 94  0     1  0  0  0  0  0999 V2000
  -32.3758  -15.4007   15.4989 C   0  0  0  0  0  0  0  0  0  0  0  0
  -32.1484  -16.5345   16.2724 C   0  0  0  0  0  0  0  0  0  0  0  0
  -23.0926   -9.7767   20.0039 C   0  0  0  0  0  0  0  0  0  0  0  0
  -23.8192   -9.8937   22.3050 C   0  0  0  0  0  0  0  0  0  0  0  0
  -33.1478  -15.4912   14.3415 C   0  0  0  0  0  0  0  0  0  0  0  0
  -32.6941  -17.7593   15.8894 C   0  0  0  0  0  0  0  0  0  0  0  0
  -29.3742  -21.5655   16.2586 C   0  0  0  0  0  0  0  0  0  0  0  0
  -22.3594   -8.6261   20.2939 C   0  0  0  0  0  0  0  0  0  0  0  0
  -23.0860   -8.7431   22.5951 C   0  0  0  0  0  0  0  0  0  0  0  0
  -29.1334  -22.0791   17.5322 C   0  0  0  0  0  0  0  0  0  0  0  0
  -19.4005   -7.8558   21.7378 C   0  0  0  0  0  0  0  0  0  0  0  0
  -18.1014   -7.7716   21.2370 C   0  0  0  0  0  0  0  0  0  0  0  0
  -30.6259  -23.9162   17.0668 C   0  0  0  0  0  0  0  0  0  0  0  0
  -31.7328  -18.5309   24.0181 C   0  0  0  0  0  0  0  0  0  0  0  0
  -18.7039   -5.7799   20.0092 C   0  0  0  0  0  0  0  0  0  0  0  0
  -23.8226  -10.4105   21.0094 C   0  0  0  0  0  0  0  0  0  0  0  0
  -24.1351  -12.9321   20.7834 C   0  0  0  0  0  0  0  0  0  0  0  0
  -33.6952  -16.7196   13.9389 C   0  0  0  0  0  0  0  0  0  0  0  0
  -30.2525  -22.2186   15.3820 C   0  0  0  0  0  0  0  0  0  0  0  0
  -33.4753  -17.8660   14.7263 C   0  0  0  0  0  0  0  0  0  0  0  0
  -30.8742  -23.4102   15.7817 C   0  0  0  0  0  0  0  0  0  0  0  0
  -32.3443  -17.2974   23.7941 C   0  0  0  0  0  0  0  0  0  0  0  0
  -30.5422  -18.8480   23.3641 C   0  0  0  0  0  0  0  0  0  0  0  0
  -30.5749  -16.6983   22.2621 C   0  0  0  0  0  0  0  0  0  0  0  0
  -22.3560   -8.1093   21.5895 C   0  0  0  0  0  0  0  0  0  0  0  0
  -29.7616  -23.2531   17.9375 C   0  0  0  0  0  0  0  0  0  0  0  0
  -20.3514   -6.9021   21.3742 C   0  0  0  0  0  0  0  0  0  0  0  0
  -31.7654  -16.3811   22.9161 C   0  0  0  0  0  0  0  0  0  0  0  0
  -17.7531   -6.7336   20.3727 C   0  0  0  0  0  0  0  0  0  0  0  0
  -20.0030   -5.8642   20.5100 C   0  0  0  0  0  0  0  0  0  0  0  0
  -29.9633  -17.9318   22.4860 C   0  0  0  0  0  0  0  0  0  0  0  0
  -24.5806  -11.5987   20.7103 C   0  0  0  0  0  0  0  0  0  0  0  0
  -25.2231  -13.6790   20.4028 C   0  0  0  0  0  0  0  0  0  0  0  0
  -22.8525  -13.4494   21.1617 C   0  0  0  0  0  0  0  0  0  0  0  0
  -32.9925  -21.4495   13.9660 C   0  0  0  0  0  0  0  0  0  0  0  0
  -32.5664  -24.2949   12.4678 C   0  0  0  0  0  0  0  0  0  0  0  0
  -31.1476  -27.3986   12.4930 C   0  0  0  0  0  0  0  0  0  0  0  0
  -30.6730  -14.8015   20.6070 C   0  0  0  0  0  0  0  0  0  0  0  0
  -34.5624  -16.7587   12.7056 C   0  0  0  0  0  0  0  0  0  0  0  0
  -30.4809  -21.6661   14.0019 C   0  0  0  0  0  0  0  0  0  0  0  0
  -31.8102  -24.1605   14.8710 C   0  0  0  0  0  0  0  0  0  0  0  0
  -34.7930  -18.1685   12.1676 C   0  0  0  0  0  0  0  0  0  0  0  0
  -29.6225  -12.2723   18.3318 C   0  0  0  0  0  0  0  0  0  0  0  0
  -35.1626  -19.1190   13.3019 C   0  0  0  0  0  0  0  0  0  0  0  0
  -28.1805  -11.9813   18.7538 C   0  0  0  0  0  0  0  0  0  0  0  0
  -30.5173  -12.5652   19.5348 C   0  0  0  0  0  0  0  0  0  0  0  0
  -28.5819  -13.3248   20.8564 C   0  0  0  0  0  0  0  0  0  0  0  0
  -34.0296  -19.2174   14.3305 C   0  0  1  0  0  0  0  0  0  0  0  0
  -31.7918  -22.1365   13.3793 C   0  0  1  0  0  0  0  0  0  0  0  0
  -27.6284  -13.0877   19.6740 C   0  0  2  0  0  0  0  0  0  0  0  0
  -33.6185  -16.9766   24.5043 C   0  0  0  0  0  0  0  0  0  0  0  0
  -31.0119  -29.5135   11.1491 C   0  0  0  0  0  0  0  0  0  0  0  0
  -35.3710  -25.0605   13.3941 C   0  0  0  0  0  0  0  0  0  0  0  0
  -34.8177  -27.4453   12.8696 C   0  0  0  0  0  0  0  0  0  0  0  0
  -34.8251  -25.7391   11.0498 C   0  0  0  0  0  0  0  0  0  0  0  0
  -28.2175  -27.1404   12.1665 C   0  0  0  0  0  0  0  0  0  0  0  0
  -31.9918  -14.1037   23.5627 C   0  0  0  0  0  0  0  0  0  0  0  0
  -29.9213  -20.1865   23.6360 C   0  0  0  0  0  0  0  0  0  0  0  0
  -29.7018  -23.3858   21.5438 C   0  0  0  0  0  0  0  0  0  0  0  0
  -29.4481  -22.4645   22.7275 C   0  0  0  0  0  0  0  0  0  0  0  0
  -29.2216  -22.8204   20.2128 C   0  0  0  0  0  0  0  0  0  1  0  0
  -32.9589  -25.7239   12.7554 C   0  0  1  0  0  0  0  0  0  0  0  0
  -30.3753  -28.1618   11.4320 C   0  0  2  0  0  0  0  0  0  0  0  0
  -34.4771  -25.9773   12.5353 C   0  0  0  0  0  0  0  0  0  0  0  0
  -25.8525  -11.5010   20.3142 N   0  0  0  0  0  0  0  0  0  0  0  0
  -26.2154  -12.7825   20.1349 N   0  0  0  0  0  0  0  0  0  0  0  0
  -32.0061  -23.5768   13.5337 N   0  0  0  0  0  0  0  0  0  0  0  0
  -29.9332  -13.6261   20.3583 N   0  0  0  0  0  0  0  0  0  0  0  0
  -25.4182  -15.0086   20.2743 N   0  0  0  0  0  0  0  0  0  0  0  0
  -21.8471  -12.5429   21.5245 N   0  0  0  0  0  0  0  0  0  0  0  0
  -30.0026  -15.7531   21.3750 N   0  0  0  0  0  0  0  0  0  0  0  0
  -32.9723  -20.0738   13.8374 N   0  0  0  0  0  0  0  0  0  0  0  0
  -32.0886  -26.5593   11.9350 N   0  0  0  0  0  0  0  0  0  0  0  0
  -28.9706  -28.3875   11.8758 N   0  3  0  0  0  0  0  0  0  0  0  0
  -30.1042  -21.1526   22.5177 N   0  3  0  0  0  0  0  0  0  0  0  0
  -22.6004  -14.6782   21.1616 O   0  0  0  0  0  0  0  0  0  0  0  0
  -33.8727  -22.1182   14.4949 O   0  0  0  0  0  0  0  0  0  0  0  0
  -32.7436  -23.8350   11.3370 O   0  0  0  0  0  0  0  0  0  0  0  0
  -30.9396  -27.5362   13.6965 O   0  0  0  0  0  0  0  0  0  0  0  0
  -31.8066  -14.9642   20.1481 O   0  0  0  0  0  0  0  0  0  0  0  0
  -21.6405   -6.9867   21.8729 O   0  0  0  0  0  0  0  0  0  0  0  0
  -32.3690  -15.1757   22.7028 O   0  0  0  0  0  0  0  0  0  0  0  0
  -29.5289  -23.7562   19.1803 O   0  0  0  0  0  0  0  0  0  1  0  0
  -16.5051   -6.6520   19.8931 F   0  0  0  0  0  0  0  0  0  0  0  0
  -20.9118   -4.9444   20.1581 F   0  0  0  0  0  0  0  0  0  0  0  0
  -28.4832  -18.3347   21.6770 Cl  0  0  0  0  0  0  0  0  0  0  0  0
  1  2  1  0  0  0  0
  1  5  2  0  0  0  0
  2  6  2  0  0  0  0
  3  8  2  0  0  0  0
  3 16  1  0  0  0  0
  4  9  1  0  0  0  0
  4 16  2  0  0  0  0
  5 18  1  0  0  0  0
  6 20  1  0  0  0  0
  7 10  2  0  0  0  0
  7 19  1  0  0  0  0
  8 25  1  0  0  0  0
  9 25  2  0  0  0  0
 10 26  1  0  0  0  0
 11 12  2  0  0  0  0
 11 27  1  0  0  0  0
 12 29  1  0  0  0  0
 13 21  1  0  0  0  0
 13 26  2  0  0  0  0
 14 22  2  0  0  0  0
 14 23  1  0  0  0  0
 15 29  2  0  0  0  0
 15 30  1  0  0  0  0
 16 32  1  0  0  0  0
 17 32  1  0  0  0  0
 17 33  2  0  0  0  0
 17 34  1  0  0  0  0
 18 20  2  0  0  0  0
 18 39  1  0  0  0  0
 19 21  2  0  0  0  0
 19 40  1  0  0  0  0
 20 48  1  0  0  0  0
 21 41  1  0  0  0  0
 22 28  1  0  0  0  0
 22 51  1  0  0  0  0
 23 31  2  0  0  0  0
 23 58  1  0  0  0  0
 24 28  2  0  0  0  0
 24 31  1  0  0  0  0
 24 71  1  0  0  0  0
 25 81  1  0  0  0  0
 26 83  1  0  0  0  0
 27 30  2  0  0  0  0
 27 81  1  0  0  0  0
 28 82  1  0  0  0  0
 29 84  1  0  0  0  0
 30 85  1  0  0  0  0
 31 86  1  0  0  0  0
 32 65  2  0  0  0  0
 33 66  1  0  0  0  0
 33 69  1  0  0  0  0
 34 70  1  0  0  0  0
 34 76  2  0  0  0  0
 35 49  1  0  0  0  0
 35 72  1  0  0  0  0
 35 77  2  0  0  0  0
 36 62  1  0  0  0  0
 36 67  1  0  0  0  0
 36 78  2  0  0  0  0
 37 63  1  0  0  0  0
 37 73  1  0  0  0  0
 37 79  2  0  0  0  0
 38 68  1  0  0  0  0
 38 71  1  0  0  0  0
 38 80  2  0  0  0  0
 39 42  1  0  0  0  0
 40 49  1  0  0  0  0
 41 67  1  0  0  0  0
 42 44  1  0  0  0  0
 43 45  1  0  0  0  0
 43 46  1  0  0  0  0
 44 48  1  0  0  0  0
 45 50  1  0  0  0  0
 46 68  1  0  0  0  0
 47 50  1  0  0  0  0
 47 68  1  0  0  0  0
 48 72  1  0  0  0  0
 49 67  1  0  0  0  0
 50 66  1  0  0  0  0
 52 63  1  0  0  0  0
 53 64  1  0  0  0  0
 54 64  1  0  0  0  0
 55 64  1  0  0  0  0
 56 74  1  0  0  0  0
 57 82  1  0  0  0  0
 58 75  1  0  0  0  0
 59 60  1  0  0  0  0
 59 61  1  0  0  0  0
 60 75  1  0  0  0  0
 61 83  1  0  0  0  0
 62 64  1  0  0  0  0
 62 73  1  0  0  0  0
 63 74  1  0  0  0  0
 65 66  1  0  0  0  0
M  CHG  2  74   1  75   1
M  ISO  4  38 100  61 101  71 100  83 101
M  END
> <Batch ID>
0014

> <Smiles>
CNC(C)C(=O)NC(C(=O)N1Cc2cc([101O:1][101CH2:1]CCNCc3cc(C)c(OC)c([100NH:0][100C:0](=O)N4CCCC(n5nc(-c6ccc(Oc7ccc(F)cc7F)cc6)c(C(N)=O)c5N)C4)c3Cl)ccc2CC1C(=O)NC1CCCc2ccccc21)C(C)(C)C

> <Shape>
0.192

> <Color>
0.195

> <Negative vol penalty>
0.000

$$$$

  -OEChem-04052315533D

 83 91  0     1  0  0  0  0  0999 V2000
  -25.2762  -31.7537   14.6238 C   0  0  0  0  0  0  0  0  0  0  0  0
  -25.6006  -30.5180   15.1746 C   0  0  0  0  0  0  0  0  0  0  0  0
  -23.0610   -9.8928   19.8333 C   0  0  0  0  0  0  0  0  0  0  0  0
  -23.9409   -9.6624   22.0716 C   0  0  0  0  0  0  0  0  0  0  0  0
  -25.4443  -32.9162   15.3750 C   0  0  0  0  0  0  0  0  0  0  0  0
  -26.0942  -30.4443   16.4766 C   0  0  0  0  0  0  0  0  0  0  0  0
  -25.0737  -25.9901   20.5540 C   0  0  0  0  0  0  0  0  0  0  0  0
  -22.3532   -8.7011   19.9888 C   0  0  0  0  0  0  0  0  0  0  0  0
  -23.2330   -8.4706   22.2271 C   0  0  0  0  0  0  0  0  0  0  0  0
  -25.8268  -24.8826   20.9415 C   0  0  0  0  0  0  0  0  0  0  0  0
  -19.5013   -7.6752   21.4879 C   0  0  0  0  0  0  0  0  0  0  0  0
  -18.1717   -7.6513   21.0671 C   0  0  0  0  0  0  0  0  0  0  0  0
  -26.7037  -26.1385   22.8050 C   0  0  0  0  0  0  0  0  0  0  0  0
  -18.6970   -5.8823   19.5076 C   0  0  0  0  0  0  0  0  0  0  0  0
  -30.2364  -19.0471   22.8857 C   0  0  0  0  0  0  0  0  0  0  0  0
  -23.8549  -10.3735   20.8747 C   0  0  0  0  0  0  0  0  0  0  0  0
  -24.1425  -12.9039   21.0230 C   0  0  0  0  0  0  0  0  0  0  0  0
  -25.9311  -32.8558   16.6903 C   0  0  0  0  0  0  0  0  0  0  0  0
  -25.1385  -27.1856   21.2840 C   0  0  0  0  0  0  0  0  0  0  0  0
  -26.2702  -31.6072   17.2457 C   0  0  0  0  0  0  0  0  0  0  0  0
  -25.9485  -27.2589   22.4262 C   0  0  0  0  0  0  0  0  0  0  0  0
  -30.4810  -19.2966   21.5534 C   0  0  0  0  0  0  0  0  0  0  0  0
  -30.4397  -18.0533   20.8756 C   0  0  0  0  0  0  0  0  0  0  0  0
  -22.4391   -7.9900   21.1858 C   0  0  0  0  0  0  0  0  0  0  0  0
  -26.6441  -24.9576   22.0655 C   0  0  0  0  0  0  0  0  0  0  0  0
  -20.4288   -6.8027   20.9185 C   0  0  0  0  0  0  0  0  0  0  0  0
  -17.7695   -6.7549   20.0770 C   0  0  0  0  0  0  0  0  0  0  0  0
  -20.0267   -5.9063   19.9284 C   0  0  0  0  0  0  0  0  0  0  0  0
  -24.5868  -11.6043   20.7144 C   0  0  0  0  0  0  0  0  0  0  0  0
  -25.1996  -13.7159   20.6920 C   0  0  0  0  0  0  0  0  0  0  0  0
  -30.1709  -17.0818   21.8143 C   0  0  0  0  0  0  0  0  0  0  0  0
  -22.8865  -13.3384   21.5610 C   0  0  0  0  0  0  0  0  0  0  0  0
  -26.0513  -30.1612   20.6389 C   0  0  0  0  0  0  0  0  0  0  0  0
  -24.9139  -30.7418   23.6208 C   0  0  0  0  0  0  0  0  0  0  0  0
  -29.1059  -22.3082   21.8028 C   0  0  0  0  0  0  0  0  0  0  0  0
  -24.1479  -29.5274   26.7168 C   0  0  0  0  0  0  0  0  0  0  0  0
  -30.6469  -14.8694   20.7075 C   0  0  0  0  0  0  0  0  0  0  0  0
  -26.1404  -34.1437   17.4468 C   0  0  0  0  0  0  0  0  0  0  0  0
  -24.2995  -28.3628   20.8684 C   0  0  0  0  0  0  0  0  0  0  0  0
  -26.0378  -28.5127   23.2559 C   0  0  0  0  0  0  0  0  0  0  0  0
  -26.3155  -33.9454   18.9502 C   0  0  0  0  0  0  0  0  0  0  0  0
  -29.4542  -12.7085   18.1413 C   0  0  0  0  0  0  0  0  0  0  0  0
  -27.2995  -32.8135   19.2284 C   0  0  0  0  0  0  0  0  0  0  0  0
  -28.0450  -12.3355   18.6074 C   0  0  0  0  0  0  0  0  0  0  0  0
  -30.4271  -12.8241   19.3134 C   0  0  0  0  0  0  0  0  0  0  0  0
  -28.5827  -13.3427   20.8620 C   0  0  0  0  0  0  0  0  0  0  0  0
  -26.7850  -31.4840   18.6634 C   0  0  1  0  0  0  0  0  0  0  0  0
  -24.8364  -29.6926   21.3886 C   0  0  1  0  0  0  0  0  0  0  0  0
  -27.5523  -13.2782   19.7228 C   0  0  2  0  0  0  0  0  0  0  0  0
  -30.6467  -17.8388   19.4279 C   0  0  0  0  0  0  0  0  0  0  0  0
  -23.2714  -30.2495   28.9546 C   0  0  0  0  0  0  0  0  0  0  0  0
  -27.6175  -31.9974   24.2720 C   0  0  0  0  0  0  0  0  0  0  0  0
  -27.0334  -31.8269   26.7006 C   0  0  0  0  0  0  0  0  0  0  0  0
  -25.6453  -33.2372   25.1818 C   0  0  0  0  0  0  0  0  0  0  0  0
  -29.7667  -17.0440   24.2923 C   0  0  0  0  0  0  0  0  0  0  0  0
  -21.8099  -27.7244   26.5124 C   0  0  0  0  0  0  0  0  0  0  0  0
  -30.7422  -20.6438   20.9442 C   0  0  0  0  0  0  0  0  0  0  0  0
  -27.8114  -22.9903   21.4148 C   0  0  0  0  0  0  0  0  0  1  0  0
  -25.4999  -30.7188   25.0118 C   0  0  1  0  0  0  0  0  0  0  0  0
  -22.9141  -29.6909   27.5860 C   0  0  2  0  0  0  0  0  0  0  0  0
  -26.4491  -31.9219   25.2750 C   0  0  0  0  0  0  0  0  0  0  0  0
  -25.8294  -11.5868   20.2247 N   0  0  0  0  0  0  0  0  0  0  0  0
  -30.0489  -17.6974   23.0326 N   0  0  0  0  0  0  0  0  0  0  0  0
  -26.1748  -12.8856   20.2231 N   0  0  0  0  0  0  0  0  0  0  0  0
  -25.2032  -29.6387   22.8052 N   0  0  0  0  0  0  0  0  0  0  0  0
  -29.8961  -13.7364   20.3286 N   0  0  0  0  0  0  0  0  0  0  0  0
  -25.3809  -15.0519   20.7590 N   0  0  0  0  0  0  0  0  0  0  0  0
  -21.9111  -12.3726   21.8442 N   0  0  0  0  0  0  0  0  0  0  0  0
  -30.0265  -15.6810   21.6567 N   0  0  0  0  0  0  0  0  0  0  0  0
  -25.7644  -30.9291   19.5265 N   0  0  0  0  0  0  0  0  0  0  0  0
  -29.5337  -21.4259   20.8232 N   0  0  0  0  0  0  0  0  0  0  0  0
  -24.3691  -30.6379   25.9299 N   0  0  0  0  0  0  0  0  0  0  0  0
  -22.2372  -28.3770   27.7768 N   0  3  0  0  0  0  0  0  0  0  0  0
  -22.6305  -14.5487   21.7686 O   0  0  0  0  0  0  0  0  0  0  0  0
  -27.1664  -29.8504   21.0408 O   0  0  0  0  0  0  0  0  0  0  0  0
  -24.2189  -31.6998   23.2732 O   0  0  0  0  0  0  0  0  0  0  0  0
  -29.6816  -22.5304   22.8645 O   0  0  0  0  0  0  0  0  0  0  0  0
  -24.8478  -28.5173   26.7368 O   0  0  0  0  0  0  0  0  0  0  0  0
  -31.7463  -15.1169   20.2056 O   0  0  0  0  0  0  0  0  0  0  0  0
  -21.7483   -6.8271   21.3380 O   0  0  0  0  0  0  0  0  0  0  0  0
  -27.3807  -23.8783   22.4455 O   0  0  0  0  0  0  0  0  0  1  0  0
  -16.4923   -6.7310   19.6740 F   0  0  0  0  0  0  0  0  0  0  0  0
  -20.9129   -5.0648   19.3786 F   0  0  0  0  0  0  0  0  0  0  0  0
  1  2  1  0  0  0  0
  1  5  2  0  0  0  0
  2  6  2  0  0  0  0
  3  8  2  0  0  0  0
  3 16  1  0  0  0  0
  4  9  1  0  0  0  0
  4 16  2  0  0  0  0
  5 18  1  0  0  0  0
  6 20  1  0  0  0  0
  7 10  2  0  0  0  0
  7 19  1  0  0  0  0
  8 24  1  0  0  0  0
  9 24  2  0  0  0  0
 10 25  1  0  0  0  0
 11 12  2  0  0  0  0
 11 26  1  0  0  0  0
 12 27  1  0  0  0  0
 13 21  1  0  0  0  0
 13 25  2  0  0  0  0
 14 27  2  0  0  0  0
 14 28  1  0  0  0  0
 15 22  2  0  0  0  0
 15 63  1  0  0  0  0
 16 29  1  0  0  0  0
 17 29  1  0  0  0  0
 17 30  2  0  0  0  0
 17 32  1  0  0  0  0
 18 20  2  0  0  0  0
 18 38  1  0  0  0  0
 19 21  2  0  0  0  0
 19 39  1  0  0  0  0
 20 47  1  0  0  0  0
 21 40  1  0  0  0  0
 22 23  1  0  0  0  0
 22 57  1  0  0  0  0
 23 31  2  0  0  0  0
 23 50  1  0  0  0  0
 24 80  1  0  0  0  0
 25 81  1  0  0  0  0
 26 28  2  0  0  0  0
 26 80  1  0  0  0  0
 27 82  1  0  0  0  0
 28 83  1  0  0  0  0
 29 62  2  0  0  0  0
 30 64  1  0  0  0  0
 30 67  1  0  0  0  0
 31 63  1  0  0  0  0
 31 69  1  0  0  0  0
 32 68  1  0  0  0  0
 32 74  2  0  0  0  0
 33 48  1  0  0  0  0
 33 70  1  0  0  0  0
 33 75  2  0  0  0  0
 34 59  1  0  0  0  0
 34 65  1  0  0  0  0
 34 76  2  0  0  0  0
 35 58  1  0  0  0  0
 35 71  1  0  0  0  0
 35 77  2  0  0  0  0
 36 60  1  0  0  0  0
 36 72  1  0  0  0  0
 36 78  2  0  0  0  0
 37 66  1  0  0  0  0
 37 69  1  0  0  0  0
 37 79  2  0  0  0  0
 38 41  1  0  0  0  0
 39 48  1  0  0  0  0
 40 65  1  0  0  0  0
 41 43  1  0  0  0  0
 42 44  1  0  0  0  0
 42 45  1  0  0  0  0
 43 47  1  0  0  0  0
 44 49  1  0  0  0  0
 45 66  1  0  0  0  0
 46 49  1  0  0  0  0
 46 66  1  0  0  0  0
 47 70  1  0  0  0  0
 48 65  1  0  0  0  0
 49 64  1  0  0  0  0
 51 60  1  0  0  0  0
 52 61  1  0  0  0  0
 53 61  1  0  0  0  0
 54 61  1  0  0  0  0
 55 63  1  0  0  0  0
 56 73  1  0  0  0  0
 57 71  1  0  0  0  0
 58 81  1  0  0  0  0
 59 61  1  0  0  0  0
 59 72  1  0  0  0  0
 60 73  1  0  0  0  0
 62 64  1  0  0  0  0
M  CHG  1  73   1
M  ISO  4  37 100  58 101  69 100  81 101
M  END
> <Batch ID>
0014

> <Smiles>
CNC(C)C(=O)NC(C(=O)N1Cc2cc([101O:1][101CH2:1]C(=O)NCc3cn(C)c([100NH:0][100C:0](=O)N4CCCC(n5nc(-c6ccc(Oc7ccc(F)cc7F)cc6)c(C(N)=O)c5N)C4)c3C)ccc2CC1C(=O)NC1CCCc2ccccc21)C(C)(C)C

> <Shape>
0.276

> <Color>
0.198

> <Negative vol penalty>
0.000

$$$$

  -OEChem-04052315533D

 75 82  0     1  0  0  0  0  0999 V2000
  -32.6757  -26.9307   24.1935 C   0  0  0  0  0  0  0  0  0  0  0  0
  -33.2702  -25.6961   23.9527 C   0  0  0  0  0  0  0  0  0  0  0  0
  -23.1714   -9.8811   19.9137 C   0  0  0  0  0  0  0  0  0  0  0  0
  -23.5557  -10.0089   22.2955 C   0  0  0  0  0  0  0  0  0  0  0  0
  -31.2939  -27.0727   24.0744 C   0  0  0  0  0  0  0  0  0  0  0  0
  -32.4830  -24.6026   23.5938 C   0  0  0  0  0  0  0  0  0  0  0  0
  -34.0021  -20.0717   19.7637 C   0  0  0  0  0  0  0  0  0  0  0  0
  -22.3855   -8.7442   20.1014 C   0  0  0  0  0  0  0  0  0  0  0  0
  -22.7697   -8.8720   22.4833 C   0  0  0  0  0  0  0  0  0  0  0  0
  -34.4800  -18.7802   19.9813 C   0  0  0  0  0  0  0  0  0  0  0  0
  -21.1601   -5.7946   23.5550 C   0  0  0  0  0  0  0  0  0  0  0  0
  -21.6407   -4.8094   24.4175 C   0  0  0  0  0  0  0  0  0  0  0  0
  -32.2307  -17.9255   19.8106 C   0  0  0  0  0  0  0  0  0  0  0  0
  -23.5927   -4.5381   23.0199 C   0  0  0  0  0  0  0  0  0  0  0  0
  -23.7566  -10.5135   21.0107 C   0  0  0  0  0  0  0  0  0  0  0  0
  -24.1389  -13.0281   20.8149 C   0  0  0  0  0  0  0  0  0  0  0  0
  -30.4903  -25.9827   23.7044 C   0  0  0  0  0  0  0  0  0  0  0  0
  -32.6312  -20.3016   19.5785 C   0  0  0  0  0  0  0  0  0  0  0  0
  -31.0889  -24.7299   23.4710 C   0  0  0  0  0  0  0  0  0  0  0  0
  -31.7382  -19.2206   19.5883 C   0  0  0  0  0  0  0  0  0  0  0  0
  -22.1846   -8.2396   21.3862 C   0  0  0  0  0  0  0  0  0  0  0  0
  -33.5940  -17.7072   20.0076 C   0  0  0  0  0  0  0  0  0  0  0  0
  -21.8957   -6.1515   22.4248 C   0  0  0  0  0  0  0  0  0  0  0  0
  -22.8571   -4.1812   24.1500 C   0  0  0  0  0  0  0  0  0  0  0  0
  -23.1120   -5.5233   22.1573 C   0  0  0  0  0  0  0  0  0  0  0  0
  -24.5690  -11.6876   20.8173 C   0  0  0  0  0  0  0  0  0  0  0  0
  -25.2825  -13.7553   20.5922 C   0  0  0  0  0  0  0  0  0  0  0  0
  -22.8231  -13.5676   20.9979 C   0  0  0  0  0  0  0  0  0  0  0  0
  -30.4033  -21.9519   21.1331 C   0  0  0  0  0  0  0  0  0  0  0  0
  -28.5643  -21.1105   18.5969 C   0  0  0  0  0  0  0  0  0  0  0  0
  -27.9950  -18.9426   16.0234 C   0  0  0  0  0  0  0  0  0  0  0  0
  -30.8946  -12.8120   21.6977 C   0  0  0  0  0  0  0  0  0  0  0  0
  -28.9959  -26.1732   23.6345 C   0  0  0  0  0  0  0  0  0  0  0  0
  -32.1347  -21.6974   19.3183 C   0  0  0  0  0  0  0  0  0  0  0  0
  -30.2595  -19.4115   19.3746 C   0  0  0  0  0  0  0  0  0  0  0  0
  -28.2739  -25.0566   22.8848 C   0  0  0  0  0  0  0  0  0  0  0  0
  -29.5634  -13.4701   18.4935 C   0  0  0  0  0  0  0  0  0  0  0  0
  -28.7751  -23.6921   23.3473 C   0  0  0  0  0  0  0  0  0  0  0  0
  -28.0758  -13.2078   18.7242 C   0  0  0  0  0  0  0  0  0  0  0  0
  -30.4457  -12.4569   19.2251 C   0  0  0  0  0  0  0  0  0  0  0  0
  -28.6659  -12.0818   20.9026 C   0  0  0  0  0  0  0  0  0  0  0  0
  -30.2714  -23.5261   23.0554 C   0  0  1  0  0  0  0  0  0  0  0  0
  -30.6576  -21.8785   19.6540 C   0  0  1  0  0  0  0  0  0  0  0  0
  -27.7589  -13.1219   20.2273 C   0  0  2  0  0  0  0  0  0  0  0  0
  -26.3932  -18.4922   14.1448 C   0  0  0  0  0  0  0  0  0  0  0  0
  -26.5394  -20.0021   20.5923 C   0  0  0  0  0  0  0  0  0  0  0  0
  -25.4680  -18.7534   18.7052 C   0  0  0  0  0  0  0  0  0  0  0  0
  -25.5353  -21.2467   18.6695 C   0  0  0  0  0  0  0  0  0  0  0  0
  -32.9464  -11.7573   20.6572 C   0  0  0  0  0  0  0  0  0  0  0  0
  -30.1157  -19.2623   13.9840 C   0  0  0  0  0  0  0  0  0  0  0  0
  -34.0098  -14.5134   21.6426 C   0  0  0  0  0  0  0  0  0  0  0  0
  -33.1585  -13.4978   22.3926 C   0  0  0  0  0  0  0  0  0  0  0  0
  -33.1773  -15.5314   20.8726 C   0  0  0  0  0  0  0  0  0  1  0  0
  -27.6645  -19.9435   18.2691 C   0  0  1  0  0  0  0  0  0  0  0  0
  -27.6858  -19.1798   14.5562 C   0  0  2  0  0  0  0  0  0  0  0  0
  -26.3294  -19.9827   19.0650 C   0  0  0  0  0  0  0  0  0  0  0  0
  -25.8833  -11.5675   20.6121 N   0  0  0  0  0  0  0  0  0  0  0  0
  -26.2889  -12.8418   20.4787 N   0  0  0  0  0  0  0  0  0  0  0  0
  -29.8221  -20.7959   19.1303 N   0  0  0  0  0  0  0  0  0  0  0  0
  -30.0786  -12.3718   20.6452 N   0  0  0  0  0  0  0  0  0  0  0  0
  -25.5154  -15.0806   20.4843 N   0  0  0  0  0  0  0  0  0  0  0  0
  -21.7612  -12.6794   21.2161 N   0  0  0  0  0  0  0  0  0  0  0  0
  -30.4832  -23.2289   21.6549 N   0  0  0  0  0  0  0  0  0  0  0  0
  -27.4967  -19.9518   16.8199 N   0  0  0  0  0  0  0  0  0  0  0  0
  -32.2827  -12.7457   21.5051 N   0  0  0  0  0  0  0  0  0  0  0  0
  -28.7893  -18.6552   13.7029 N   0  3  0  0  0  0  0  0  0  0  0  0
  -22.5933  -14.7999   20.9523 O   0  0  0  0  0  0  0  0  0  0  0  0
  -30.1517  -20.9261   21.7545 O   0  0  0  0  0  0  0  0  0  0  0  0
  -28.1685  -22.2586   18.3806 O   0  0  0  0  0  0  0  0  0  0  0  0
  -28.6131  -17.9585   16.4232 O   0  0  0  0  0  0  0  0  0  0  0  0
  -30.4107  -13.2342   22.7559 O   0  0  0  0  0  0  0  0  0  0  0  0
  -21.4176   -7.1304   21.5699 O   0  0  0  0  0  0  0  0  0  0  0  0
  -34.0578  -16.4457   20.2205 O   0  0  0  0  0  0  0  0  0  1  0  0
  -23.3193   -3.2362   24.9792 F   0  0  0  0  0  0  0  0  0  0  0  0
  -23.8238   -5.8629   21.0738 F   0  0  0  0  0  0  0  0  0  0  0  0
  1  2  1  0  0  0  0
  1  5  2  0  0  0  0
  2  6  2  0  0  0  0
  3  8  2  0  0  0  0
  3 15  1  0  0  0  0
  4  9  1  0  0  0  0
  4 15  2  0  0  0  0
  5 17  1  0  0  0  0
  6 19  1  0  0  0  0
  7 10  2  0  0  0  0
  7 18  1  0  0  0  0
  8 21  1  0  0  0  0
  9 21  2  0  0  0  0
 10 22  1  0  0  0  0
 11 12  2  0  0  0  0
 11 23  1  0  0  0  0
 12 24  1  0  0  0  0
 13 20  1  0  0  0  0
 13 22  2  0  0  0  0
 14 24  2  0  0  0  0
 14 25  1  0  0  0  0
 15 26  1  0  0  0  0
 16 26  1  0  0  0  0
 16 27  2  0  0  0  0
 16 28  1  0  0  0  0
 17 19  2  0  0  0  0
 17 33  1  0  0  0  0
 18 20  2  0  0  0  0
 18 34  1  0  0  0  0
 19 42  1  0  0  0  0
 20 35  1  0  0  0  0
 21 72  1  0  0  0  0
 22 73  1  0  0  0  0
 23 25  2  0  0  0  0
 23 72  1  0  0  0  0
 24 74  1  0  0  0  0
 25 75  1  0  0  0  0
 26 57  2  0  0  0  0
 27 58  1  0  0  0  0
 27 61  1  0  0  0  0
 28 62  1  0  0  0  0
 28 67  2  0  0  0  0
 29 43  1  0  0  0  0
 29 63  1  0  0  0  0
 29 68  2  0  0  0  0
 30 54  1  0  0  0  0
 30 59  1  0  0  0  0
 30 69  2  0  0  0  0
 31 55  1  0  0  0  0
 31 64  1  0  0  0  0
 31 70  2  0  0  0  0
 32 60  1  0  0  0  0
 32 65  1  0  0  0  0
 32 71  2  0  0  0  0
 33 36  1  0  0  0  0
 34 43  1  0  0  0  0
 35 59  1  0  0  0  0
 36 38  1  0  0  0  0
 37 39  1  0  0  0  0
 37 40  1  0  0  0  0
 38 42  1  0  0  0  0
 39 44  1  0  0  0  0
 40 60  1  0  0  0  0
 41 44  1  0  0  0  0
 41 60  1  0  0  0  0
 42 63  1  0  0  0  0
 43 59  1  0  0  0  0
 44 58  1  0  0  0  0
 45 55  1  0  0  0  0
 46 56  1  0  0  0  0
 47 56  1  0  0  0  0
 48 56  1  0  0  0  0
 49 65  1  0  0  0  0
 50 66  1  0  0  0  0
 51 52  1  0  0  0  0
 51 53  1  0  0  0  0
 52 65  1  0  0  0  0
 53 73  1  0  0  0  0
 54 56  1  0  0  0  0
 54 64  1  0  0  0  0
 55 66  1  0  0  0  0
 57 58  1  0  0  0  0
M  CHG  1  66   1
M  ISO  4  32 100  53 101  65 100  73 101
M  END
> <Batch ID>
0014

> <Smiles>
CNC(C)C(=O)NC(C(=O)N1Cc2cc([101O:1][101CH2:1]CC[100N:0](C)[100C:0](=O)N3CCCC(n4nc(-c5ccc(Oc6ccc(F)cc6F)cc5)c(C(N)=O)c4N)C3)ccc2CC1C(=O)NC1CCCc2ccccc21)C(C)(C)C

> <Shape>
0.188

> <Color>
0.204

> <Negative vol penalty>
0.000

$$$$

  -OEChem-04052315533D

 84 92  0     1  0  0  0  0  0999 V2000
  -25.9321  -37.1152   18.5154 C   0  0  0  0  0  0  0  0  0  0  0  0
  -26.5405  -35.8753   18.3480 C   0  0  0  0  0  0  0  0  0  0  0  0
  -24.6036   -9.5324   21.6651 C   0  0  0  0  0  0  0  0  0  0  0  0
  -24.0866  -11.1025   23.4271 C   0  0  0  0  0  0  0  0  0  0  0  0
  -25.2872  -37.4178   19.7139 C   0  0  0  0  0  0  0  0  0  0  0  0
  -26.5055  -34.9378   19.3796 C   0  0  0  0  0  0  0  0  0  0  0  0
  -26.1389  -28.8510   18.8115 C   0  0  0  0  0  0  0  0  0  0  0  0
  -24.2346   -8.4761   22.4980 C   0  0  0  0  0  0  0  0  0  0  0  0
  -23.7175  -10.0462   24.2600 C   0  0  0  0  0  0  0  0  0  0  0  0
  -27.1028  -27.8448   18.8585 C   0  0  0  0  0  0  0  0  0  0  0  0
  -23.0859   -5.3902   24.0385 C   0  0  0  0  0  0  0  0  0  0  0  0
  -22.2814   -4.3878   23.4968 C   0  0  0  0  0  0  0  0  0  0  0  0
  -26.5955  -27.4758   21.1878 C   0  0  0  0  0  0  0  0  0  0  0  0
  -28.4253  -20.3777   19.2136 C   0  0  0  0  0  0  0  0  0  0  0  0
  -20.5666   -6.0217   23.0201 C   0  0  0  0  0  0  0  0  0  0  0  0
  -24.5297  -10.8456   22.1297 C   0  0  0  0  0  0  0  0  0  0  0  0
  -24.0815  -12.6544   20.3876 C   0  0  0  0  0  0  0  0  0  0  0  0
  -25.2359  -36.4799   20.7571 C   0  0  0  0  0  0  0  0  0  0  0  0
  -25.4024  -29.1851   19.9571 C   0  0  0  0  0  0  0  0  0  0  0  0
  -25.8605  -35.2287   20.5937 C   0  0  0  0  0  0  0  0  0  0  0  0
  -25.6210  -28.4848   21.1521 C   0  0  0  0  0  0  0  0  0  0  0  0
  -27.7788  -21.5926   18.8443 C   0  0  0  0  0  0  0  0  0  0  0  0
  -23.7915   -8.7330   23.7955 C   0  0  0  0  0  0  0  0  0  0  0  0
  -27.3333  -27.1590   20.0474 C   0  0  0  0  0  0  0  0  0  0  0  0
  -22.6308   -6.7084   24.0710 C   0  0  0  0  0  0  0  0  0  0  0  0
  -21.0217   -4.7035   22.9876 C   0  0  0  0  0  0  0  0  0  0  0  0
  -21.3712   -7.0241   23.5618 C   0  0  0  0  0  0  0  0  0  0  0  0
  -24.9113  -11.9371   21.2700 C   0  0  0  0  0  0  0  0  0  0  0  0
  -26.4080  -21.5003   18.9437 C   0  0  0  0  0  0  0  0  0  0  0  0
  -24.9148  -13.5799   19.8085 C   0  0  0  0  0  0  0  0  0  0  0  0
  -27.5238  -19.4031   19.5814 C   0  0  0  0  0  0  0  0  0  0  0  0
  -22.6824  -12.4981   20.1157 C   0  0  0  0  0  0  0  0  0  0  0  0
  -25.0818  -31.8013   21.7338 C   0  0  0  0  0  0  0  0  0  0  0  0
  -22.8087  -30.0354   23.2293 C   0  0  0  0  0  0  0  0  0  0  0  0
  -21.5868  -26.9453   24.0074 C   0  0  0  0  0  0  0  0  0  0  0  0
  -28.9433  -17.4067   20.1695 C   0  0  0  0  0  0  0  0  0  0  0  0
  -24.5681  -36.8701   22.0519 C   0  0  0  0  0  0  0  0  0  0  0  0
  -24.3475  -30.2547   19.8831 C   0  0  0  0  0  0  0  0  0  0  0  0
  -24.8429  -28.7915   22.4047 C   0  0  0  0  0  0  0  0  0  0  0  0
  -24.2526  -35.6818   22.9568 C   0  0  0  0  0  0  0  0  0  0  0  0
  -29.9576  -14.0023   19.9278 C   0  0  0  0  0  0  0  0  0  0  0  0
  -25.4568  -34.7505   23.0542 C   0  0  0  0  0  0  0  0  0  0  0  0
  -28.6669  -13.2205   20.1829 C   0  0  0  0  0  0  0  0  0  0  0  0
  -30.0366  -15.2625   20.7877 C   0  0  0  0  0  0  0  0  0  0  0  0
  -27.5807  -15.3697   20.9500 C   0  0  0  0  0  0  0  0  0  0  0  0
  -25.8225  -34.1760   21.6803 C   0  0  1  0  0  0  0  0  0  0  0  0
  -24.0164  -30.8625   21.2427 C   0  0  1  0  0  0  0  0  0  0  0  0
  -27.4258  -14.1261   20.0594 C   0  0  2  0  0  0  0  0  0  0  0  0
  -24.2492  -24.6592   19.4595 C   0  0  0  0  0  0  0  0  0  0  0  0
  -19.7364  -25.8208   25.2758 C   0  0  0  0  0  0  0  0  0  0  0  0
  -30.9853  -25.0372   20.1762 C   0  0  0  0  0  0  0  0  0  0  0  0
  -24.2434  -30.6399   25.8535 C   0  0  0  0  0  0  0  0  0  0  0  0
  -22.9556  -28.7696   26.9078 C   0  0  0  0  0  0  0  0  0  0  0  0
  -21.7479  -30.7455   25.9805 C   0  0  0  0  0  0  0  0  0  0  0  0
  -20.5304  -25.6630   21.5582 C   0  0  0  0  0  0  0  0  0  0  0  0
  -28.5159  -22.8218   18.4008 C   0  0  0  0  0  0  0  0  0  0  0  0
  -25.3838  -22.5297   18.6551 C   0  0  0  0  0  0  0  0  0  0  0  0
  -25.2753  -23.5822   19.7746 C   0  0  0  0  0  0  0  0  0  0  0  0
  -28.9880  -25.9011   18.8918 C   0  0  0  0  0  0  0  0  0  1  0  0
  -22.7950  -29.0770   24.3956 C   0  0  1  0  0  0  0  0  0  0  0  0
  -20.1852  -26.3675   23.9295 C   0  0  2  0  0  0  0  0  0  0  0  0
  -29.9546  -24.7405   19.0989 C   0  0  2  0  0  0  0  0  0  0  0  0
  -22.9517  -29.8033   25.7614 C   0  0  0  0  0  0  0  0  0  0  0  0
  -26.1749  -12.3696   21.2559 N   0  0  0  0  0  0  0  0  0  0  0  0
  -26.1453  -13.3687   20.3576 N   0  0  0  0  0  0  0  0  0  0  0  0
  -23.8268  -29.8499   22.2833 N   0  0  0  0  0  0  0  0  0  0  0  0
  -28.8290  -16.0732   20.6161 N   0  0  0  0  0  0  0  0  0  0  0  0
  -24.7078  -14.5456   18.8882 N   0  0  0  0  0  0  0  0  0  0  0  0
  -21.9767  -11.4981   20.7987 N   0  0  0  0  0  0  0  0  0  0  0  0
  -27.7259  -18.0685   20.0124 N   0  0  0  0  0  0  0  0  0  0  0  0
  -24.9134  -33.1091   21.3204 N   0  0  0  0  0  0  0  0  0  0  0  0
  -21.5673  -28.2988   24.2701 N   0  0  0  0  0  0  0  0  0  0  0  0
  -20.1358  -25.2607   22.9328 N   0  3  0  0  0  0  0  0  0  0  0  0
  -29.1724  -23.5426   19.5210 N   0  3  0  0  0  0  0  0  0  0  0  0
  -22.0796  -13.2129   19.2795 O   0  0  0  0  0  0  0  0  0  0  0  0
  -25.9886  -31.3714   22.4370 O   0  0  0  0  0  0  0  0  0  0  0  0
  -21.9435  -30.9116   23.1565 O   0  0  0  0  0  0  0  0  0  0  0  0
  -22.5978  -26.2635   23.8544 O   0  0  0  0  0  0  0  0  0  0  0  0
  -30.0387  -17.9149   19.9170 O   0  0  0  0  0  0  0  0  0  0  0  0
  -23.4311   -7.7026   24.6084 O   0  0  0  0  0  0  0  0  0  0  0  0
  -28.2740  -26.1769   20.0962 O   0  0  0  0  0  0  0  0  0  1  0  0
  -20.2499   -3.7410   22.4660 F   0  0  0  0  0  0  0  0  0  0  0  0
  -20.9290   -8.2888   23.5892 F   0  0  0  0  0  0  0  0  0  0  0  0
  -25.9055  -19.9537   19.4805 S   0  0  0  0  0  0  0  0  0  0  0  0
  1  2  1  0  0  0  0
  1  5  2  0  0  0  0
  2  6  2  0  0  0  0
  3  8  2  0  0  0  0
  3 16  1  0  0  0  0
  4  9  1  0  0  0  0
  4 16  2  0  0  0  0
  5 18  1  0  0  0  0
  6 20  1  0  0  0  0
  7 10  2  0  0  0  0
  7 19  1  0  0  0  0
  8 23  1  0  0  0  0
  9 23  2  0  0  0  0
 10 24  1  0  0  0  0
 11 12  2  0  0  0  0
 11 25  1  0  0  0  0
 12 26  1  0  0  0  0
 13 21  1  0  0  0  0
 13 24  2  0  0  0  0
 14 22  1  0  0  0  0
 14 31  2  0  0  0  0
 15 26  2  0  0  0  0
 15 27  1  0  0  0  0
 16 28  1  0  0  0  0
 17 28  1  0  0  0  0
 17 30  2  0  0  0  0
 17 32  1  0  0  0  0
 18 20  2  0  0  0  0
 18 37  1  0  0  0  0
 19 21  2  0  0  0  0
 19 38  1  0  0  0  0
 20 46  1  0  0  0  0
 21 39  1  0  0  0  0
 22 29  2  0  0  0  0
 22 56  1  0  0  0  0
 23 80  1  0  0  0  0
 24 81  1  0  0  0  0
 25 27  2  0  0  0  0
 25 80  1  0  0  0  0
 26 82  1  0  0  0  0
 27 83  1  0  0  0  0
 28 64  2  0  0  0  0
 29 57  1  0  0  0  0
 29 84  1  0  0  0  0
 30 65  1  0  0  0  0
 30 68  1  0  0  0  0
 31 70  1  0  0  0  0
 31 84  1  0  0  0  0
 32 69  1  0  0  0  0
 32 75  2  0  0  0  0
 33 47  1  0  0  0  0
 33 71  1  0  0  0  0
 33 76  2  0  0  0  0
 34 60  1  0  0  0  0
 34 66  1  0  0  0  0
 34 77  2  0  0  0  0
 35 61  1  0  0  0  0
 35 72  1  0  0  0  0
 35 78  2  0  0  0  0
 36 67  1  0  0  0  0
 36 70  1  0  0  0  0
 36 79  2  0  0  0  0
 37 40  1  0  0  0  0
 38 47  1  0  0  0  0
 39 66  1  0  0  0  0
 40 42  1  0  0  0  0
 41 43  1  0  0  0  0
 41 44  1  0  0  0  0
 42 46  1  0  0  0  0
 43 48  1  0  0  0  0
 44 67  1  0  0  0  0
 45 48  1  0  0  0  0
 45 67  1  0  0  0  0
 46 71  1  0  0  0  0
 47 66  1  0  0  0  0
 48 65  1  0  0  0  0
 49 58  1  0  0  0  0
 50 61  1  0  0  0  0
 51 62  1  0  0  0  0
 52 63  1  0  0  0  0
 53 63  1  0  0  0  0
 54 63  1  0  0  0  0
 55 73  1  0  0  0  0
 56 74  1  0  0  0  0
 57 58  1  0  0  0  0
 59 62  1  0  0  0  0
 59 81  1  0  0  0  0
 60 63  1  0  0  0  0
 60 72  1  0  0  0  0
 61 73  1  0  0  0  0
 62 74  1  0  0  0  0
 64 65  1  0  0  0  0
M  CHG  2  73   1  74   1
M  ISO  4  36 100  59 101  70 100  81 101
M  END
> <Batch ID>
0014

> <Smiles>
CCCc1sc([100NH:0][100C:0](=O)N2CCCC(n3nc(-c4ccc(Oc5ccc(F)cc5F)cc4)c(C(N)=O)c3N)C2)cc1CNC(C)[101CH2:1][101O:1]c1ccc2c(c1)CN(C(=O)C(NC(=O)C(C)NC)C(C)(C)C)C(C(=O)NC1CCCc3ccccc31)C2

> <Shape>
0.297

> <Color>
0.106

> <Negative vol penalty>
0.000

$$$$

  -OEChem-04052315533D

 86 94  0     1  0  0  0  0  0999 V2000
  -34.6849  -26.0234   21.7091 C   0  0  0  0  0  0  0  0  0  0  0  0
  -33.3414  -25.6740   21.6186 C   0  0  0  0  0  0  0  0  0  0  0  0
  -24.5870   -9.9821   21.7989 C   0  0  0  0  0  0  0  0  0  0  0  0
  -24.7818  -11.2393   23.8528 C   0  0  0  0  0  0  0  0  0  0  0  0
  -35.0998  -26.9517   22.6631 C   0  0  0  0  0  0  0  0  0  0  0  0
  -32.4121  -26.2517   22.4829 C   0  0  0  0  0  0  0  0  0  0  0  0
  -28.2003  -27.7372   20.0955 C   0  0  0  0  0  0  0  0  0  0  0  0
  -24.2671   -8.8378   22.5297 C   0  0  0  0  0  0  0  0  0  0  0  0
  -24.4618  -10.0951   24.5836 C   0  0  0  0  0  0  0  0  0  0  0  0
  -27.2718  -26.7499   19.7687 C   0  0  0  0  0  0  0  0  0  0  0  0
  -21.5570   -7.5595   24.0963 C   0  0  0  0  0  0  0  0  0  0  0  0
  -20.4895   -6.7816   23.6482 C   0  0  0  0  0  0  0  0  0  0  0  0
  -25.9531  -27.3613   21.6939 C   0  0  0  0  0  0  0  0  0  0  0  0
  -29.8180  -20.2235   21.2644 C   0  0  0  0  0  0  0  0  0  0  0  0
  -21.9746   -4.8940   23.3869 C   0  0  0  0  0  0  0  0  0  0  0  0
  -24.8444  -11.1828   22.4605 C   0  0  0  0  0  0  0  0  0  0  0  0
  -24.2824  -13.3289   21.2011 C   0  0  0  0  0  0  0  0  0  0  0  0
  -34.1737  -27.5484   23.5331 C   0  0  0  0  0  0  0  0  0  0  0  0
  -28.0175  -28.5381   21.2320 C   0  0  0  0  0  0  0  0  0  0  0  0
  -32.8152  -27.1878   23.4503 C   0  0  0  0  0  0  0  0  0  0  0  0
  -26.8795  -28.3598   22.0315 C   0  0  0  0  0  0  0  0  0  0  0  0
  -27.4703  -21.6472   21.7584 C   0  0  0  0  0  0  0  0  0  0  0  0
  -28.5792  -19.6034   21.1023 C   0  0  0  0  0  0  0  0  0  0  0  0
  -24.2045   -8.8943   23.9220 C   0  0  0  0  0  0  0  0  0  0  0  0
  -26.1495  -26.5599   20.5696 C   0  0  0  0  0  0  0  0  0  0  0  0
  -22.8334   -7.0047   24.1896 C   0  0  0  0  0  0  0  0  0  0  0  0
  -29.8830  -21.5555   21.6736 C   0  0  0  0  0  0  0  0  0  0  0  0
  -20.6983   -5.4488   23.2936 C   0  0  0  0  0  0  0  0  0  0  0  0
  -23.0422   -5.6719   23.8349 C   0  0  0  0  0  0  0  0  0  0  0  0
  -27.4053  -20.3152   21.3493 C   0  0  0  0  0  0  0  0  0  0  0  0
  -28.7091  -22.2673   21.9206 C   0  0  0  0  0  0  0  0  0  0  0  0
  -25.1755  -12.3650   21.7062 C   0  0  0  0  0  0  0  0  0  0  0  0
  -25.0871  -14.2431   20.5661 C   0  0  0  0  0  0  0  0  0  0  0  0
  -22.8533  -13.3923   21.2973 C   0  0  0  0  0  0  0  0  0  0  0  0
  -29.6395  -29.0166   23.9234 C   0  0  0  0  0  0  0  0  0  0  0  0
  -27.3992  -31.3121   24.4069 C   0  0  0  0  0  0  0  0  0  0  0  0
  -24.2646  -32.4868   23.7426 C   0  0  0  0  0  0  0  0  0  0  0  0
  -29.6483  -17.4324   20.4022 C   0  0  0  0  0  0  0  0  0  0  0  0
  -34.6766  -28.5112   24.5794 C   0  0  0  0  0  0  0  0  0  0  0  0
  -29.0147  -29.6166   21.5558 C   0  0  0  0  0  0  0  0  0  0  0  0
  -26.6265  -29.2068   23.2510 C   0  0  0  0  0  0  0  0  0  0  0  0
  -33.5731  -29.3575   25.2090 C   0  0  0  0  0  0  0  0  0  0  0  0
  -30.0038  -14.0404   19.3799 C   0  0  0  0  0  0  0  0  0  0  0  0
  -32.3820  -28.4840   25.5899 C   0  0  0  0  0  0  0  0  0  0  0  0
  -28.7059  -13.3814   19.8525 C   0  0  0  0  0  0  0  0  0  0  0  0
  -30.4958  -15.0967   20.3678 C   0  0  0  0  0  0  0  0  0  0  0  0
  -28.2065  -15.4586   21.2026 C   0  0  0  0  0  0  0  0  0  0  0  0
  -31.7734  -27.8113   24.3536 C   0  0  1  0  0  0  0  0  0  0  0  0
  -28.9913  -30.0307   23.0239 C   0  0  1  0  0  0  0  0  0  0  0  0
  -27.6370  -14.4333   20.2086 C   0  0  2  0  0  0  0  0  0  0  0  0
  -22.7032  -34.3664   24.3141 C   0  0  0  0  0  0  0  0  0  0  0  0
  -23.3540  -23.3912   19.7749 C   0  0  0  0  0  0  0  0  0  0  0  0
  -26.8463  -30.0254   27.1178 C   0  0  0  0  0  0  0  0  0  0  0  0
  -24.7010  -31.3126   27.2131 C   0  0  0  0  0  0  0  0  0  0  0  0
  -26.8792  -32.5260   27.1372 C   0  0  0  0  0  0  0  0  0  0  0  0
  -24.1305  -33.3861   20.9262 C   0  0  0  0  0  0  0  0  0  0  0  0
  -31.7194  -22.0313   23.1078 C   0  0  0  0  0  0  0  0  0  0  0  0
  -26.2087  -22.4149   22.0231 C   0  0  0  0  0  0  0  0  0  0  0  0
  -24.5304  -24.9945   21.3339 C   0  0  0  0  0  0  0  0  0  1  0  0
  -26.0383  -31.3574   25.0589 C   0  0  1  0  0  0  0  0  0  0  0  0
  -23.7682  -33.8667   23.3503 C   0  0  2  0  0  0  0  0  0  0  0  0
  -24.2158  -23.5365   21.0185 C   0  0  2  0  0  0  0  0  0  0  0  0
  -26.1217  -31.2879   26.6099 C   0  0  0  0  0  0  0  0  0  0  0  0
  -26.4499  -12.6411   21.4169 N   0  0  0  0  0  0  0  0  0  0  0  0
  -26.3635  -13.7887   20.7231 N   0  0  0  0  0  0  0  0  0  0  0  0
  -27.6337  -30.2439   23.5295 N   0  0  0  0  0  0  0  0  0  0  0  0
  -29.4318  -16.0613   20.6546 N   0  0  0  0  0  0  0  0  0  0  0  0
  -24.8203  -15.3833   19.8943 N   0  0  0  0  0  0  0  0  0  0  0  0
  -22.1840  -12.3709   21.9852 N   0  0  0  0  0  0  0  0  0  0  0  0
  -28.5542  -18.2502   20.6828 N   0  0  0  0  0  0  0  0  0  0  0  0
  -30.9604  -28.7533   23.6145 N   0  0  0  0  0  0  0  0  0  0  0  0
  -25.3811  -32.5558   24.5489 N   0  0  0  0  0  0  0  0  0  0  0  0
  -23.1847  -33.8369   21.9793 N   0  3  0  0  0  0  0  0  0  0  0  0
  -25.5001  -22.8158   20.7812 N   0  3  0  0  0  0  0  0  0  0  0  0
  -22.1882  -14.3183   20.7743 O   0  0  0  0  0  0  0  0  0  0  0  0
  -28.9899  -28.5115   24.8315 O   0  0  0  0  0  0  0  0  0  0  0  0
  -28.2212  -32.1960   24.6611 O   0  0  0  0  0  0  0  0  0  0  0  0
  -23.7146  -31.4514   23.3740 O   0  0  0  0  0  0  0  0  0  0  0  0
  -30.7157  -17.8471   19.9432 O   0  0  0  0  0  0  0  0  0  0  0  0
  -23.8921   -7.7781   24.6354 O   0  0  0  0  0  0  0  0  0  0  0  0
  -31.1095  -22.1323   21.8232 O   0  0  0  0  0  0  0  0  0  0  0  0
  -25.2419  -25.5965   20.2533 O   0  0  0  0  0  0  0  0  0  1  0  0
  -19.6727   -4.7015   22.8648 F   0  0  0  0  0  0  0  0  0  0  0  0
  -24.2660   -5.1330   23.9236 F   0  0  0  0  0  0  0  0  0  0  0  0
  -25.8649  -19.5432   21.1456 Cl  0  0  0  0  0  0  0  0  0  0  0  0
  -28.8070  -23.9204   22.4271 Cl  0  0  0  0  0  0  0  0  0  0  0  0
  1  2  1  0  0  0  0
  1  5  2  0  0  0  0
  2  6  2  0  0  0  0
  3  8  2  0  0  0  0
  3 16  1  0  0  0  0
  4  9  1  0  0  0  0
  4 16  2  0  0  0  0
  5 18  1  0  0  0  0
  6 20  1  0  0  0  0
  7 10  2  0  0  0  0
  7 19  1  0  0  0  0
  8 24  1  0  0  0  0
  9 24  2  0  0  0  0
 10 25  1  0  0  0  0
 11 12  2  0  0  0  0
 11 26  1  0  0  0  0
 12 28  1  0  0  0  0
 13 21  1  0  0  0  0
 13 25  2  0  0  0  0
 14 23  1  0  0  0  0
 14 27  2  0  0  0  0
 15 28  2  0  0  0  0
 15 29  1  0  0  0  0
 16 32  1  0  0  0  0
 17 32  1  0  0  0  0
 17 33  2  0  0  0  0
 17 34  1  0  0  0  0
 18 20  2  0  0  0  0
 18 39  1  0  0  0  0
 19 21  2  0  0  0  0
 19 40  1  0  0  0  0
 20 48  1  0  0  0  0
 21 41  1  0  0  0  0
 22 30  1  0  0  0  0
 22 31  2  0  0  0  0
 22 58  1  0  0  0  0
 23 30  2  0  0  0  0
 23 70  1  0  0  0  0
 24 80  1  0  0  0  0
 25 82  1  0  0  0  0
 26 29  2  0  0  0  0
 26 80  1  0  0  0  0
 27 31  1  0  0  0  0
 27 81  1  0  0  0  0
 28 83  1  0  0  0  0
 29 84  1  0  0  0  0
 30 85  1  0  0  0  0
 31 86  1  0  0  0  0
 32 64  2  0  0  0  0
 33 65  1  0  0  0  0
 33 68  1  0  0  0  0
 34 69  1  0  0  0  0
 34 75  2  0  0  0  0
 35 49  1  0  0  0  0
 35 71  1  0  0  0  0
 35 76  2  0  0  0  0
 36 60  1  0  0  0  0
 36 66  1  0  0  0  0
 36 77  2  0  0  0  0
 37 61  1  0  0  0  0
 37 72  1  0  0  0  0
 37 78  2  0  0  0  0
 38 67  1  0  0  0  0
 38 70  1  0  0  0  0
 38 79  2  0  0  0  0
 39 42  1  0  0  0  0
 40 49  1  0  0  0  0
 41 66  1  0  0  0  0
 42 44  1  0  0  0  0
 43 45  1  0  0  0  0
 43 46  1  0  0  0  0
 44 48  1  0  0  0  0
 45 50  1  0  0  0  0
 46 67  1  0  0  0  0
 47 50  1  0  0  0  0
 47 67  1  0  0  0  0
 48 71  1  0  0  0  0
 49 66  1  0  0  0  0
 50 65  1  0  0  0  0
 51 61  1  0  0  0  0
 52 62  1  0  0  0  0
 53 63  1  0  0  0  0
 54 63  1  0  0  0  0
 55 63  1  0  0  0  0
 56 73  1  0  0  0  0
 57 81  1  0  0  0  0
 58 74  1  0  0  0  0
 59 62  1  0  0  0  0
 59 82  1  0  0  0  0
 60 63  1  0  0  0  0
 60 72  1  0  0  0  0
 61 73  1  0  0  0  0
 62 74  1  0  0  0  0
 64 65  1  0  0  0  0
M  CHG  2  73   1  74   1
M  ISO  4  38 100  59 101  70 100  82 101
M  END
> <Batch ID>
0014

> <Smiles>
CNC(C)C(=O)NC(C(=O)N1Cc2cc([101O:1][101CH2:1]C(C)NCc3c(Cl)c([100NH:0][100C:0](=O)N4CCCC(n5nc(-c6ccc(Oc7ccc(F)cc7F)cc6)c(C(N)=O)c5N)C4)cc(OC)c3Cl)ccc2CC1C(=O)NC1CCCc2ccccc21)C(C)(C)C

> <Shape>
0.251

> <Color>
0.106

> <Negative vol penalty>
0.000

$$$$

  -OEChem-04052315533D

 89 97  0     1  0  0  0  0  0999 V2000
  -23.7000   -7.8794   22.4299 C   0  0  0  0  0  0  0  0  0  0  0  0
  -24.5025   -8.8574   21.8512 C   0  0  0  0  0  0  0  0  0  0  0  0
  -22.2419  -28.8864   20.8265 C   0  0  0  0  0  0  0  0  0  0  0  0
  -23.2312  -27.2600   22.3142 C   0  0  0  0  0  0  0  0  0  0  0  0
  -22.3210   -8.0688   22.5108 C   0  0  0  0  0  0  0  0  0  0  0  0
  -23.9263  -10.0249   21.3519 C   0  0  0  0  0  0  0  0  0  0  0  0
  -26.4942  -14.1817   22.6832 C   0  0  0  0  0  0  0  0  0  0  0  0
  -20.9838  -28.6110   21.3621 C   0  0  0  0  0  0  0  0  0  0  0  0
  -21.9731  -26.9847   22.8499 C   0  0  0  0  0  0  0  0  0  0  0  0
  -27.6614  -14.4633   21.9746 C   0  0  0  0  0  0  0  0  0  0  0  0
  -19.2275  -29.4157   24.1372 C   0  0  0  0  0  0  0  0  0  0  0  0
  -18.4057  -30.4981   24.4512 C   0  0  0  0  0  0  0  0  0  0  0  0
  -26.4589  -16.0799   20.6480 C   0  0  0  0  0  0  0  0  0  0  0  0
  -31.1580  -23.1612   18.6044 C   0  0  0  0  0  0  0  0  0  0  0  0
  -16.7388  -29.6809   22.9048 C   0  0  0  0  0  0  0  0  0  0  0  0
  -23.3657  -28.2108   21.3025 C   0  0  0  0  0  0  0  0  0  0  0  0
  -25.5864  -29.4616   21.1945 C   0  0  0  0  0  0  0  0  0  0  0  0
  -21.7288   -9.2435   22.0209 C   0  0  0  0  0  0  0  0  0  0  0  0
  -25.2960  -14.8403   22.3717 C   0  0  0  0  0  0  0  0  0  0  0  0
  -22.5380  -10.2296   21.4251 C   0  0  0  0  0  0  0  0  0  0  0  0
  -25.2784  -15.8067   21.3559 C   0  0  0  0  0  0  0  0  0  0  0  0
  -31.5691  -21.8999   19.1016 C   0  0  0  0  0  0  0  0  0  0  0  0
  -20.8494  -27.6603   22.3738 C   0  0  0  0  0  0  0  0  0  0  0  0
  -27.6432  -15.4104   20.9549 C   0  0  0  0  0  0  0  0  0  0  0  0
  -18.8051  -28.4660   23.2070 C   0  0  0  0  0  0  0  0  0  0  0  0
  -17.1613  -30.6307   23.8350 C   0  0  0  0  0  0  0  0  0  0  0  0
  -17.5607  -28.5986   22.5908 C   0  0  0  0  0  0  0  0  0  0  0  0
  -24.6655  -28.4944   20.7492 C   0  0  0  0  0  0  0  0  0  0  0  0
  -30.4332  -21.2116   19.4667 C   0  0  0  0  0  0  0  0  0  0  0  0
  -29.7834  -23.2054   18.6810 C   0  0  0  0  0  0  0  0  0  0  0  0
  -26.6571  -29.3335   20.3439 C   0  0  0  0  0  0  0  0  0  0  0  0
  -25.4832  -30.3925   22.2801 C   0  0  0  0  0  0  0  0  0  0  0  0
  -22.4367  -13.9220   21.3303 C   0  0  0  0  0  0  0  0  0  0  0  0
  -21.6880  -17.0398   21.8216 C   0  0  0  0  0  0  0  0  0  0  0  0
  -22.7593  -20.2687   22.0922 C   0  0  0  0  0  0  0  0  0  0  0  0
  -28.7297  -24.8039   17.0436 C   0  0  0  0  0  0  0  0  0  0  0  0
  -20.2285   -9.3825   22.0879 C   0  0  0  0  0  0  0  0  0  0  0  0
  -24.0517  -14.5446   23.1633 C   0  0  0  0  0  0  0  0  0  0  0  0
  -24.0226  -16.5563   20.9961 C   0  0  0  0  0  0  0  0  0  0  0  0
  -19.7391  -10.8124   21.8735 C   0  0  0  0  0  0  0  0  0  0  0  0
  -27.7494  -28.0193   15.8702 C   0  0  0  0  0  0  0  0  0  0  0  0
  -20.4378  -11.4414   20.6723 C   0  0  0  0  0  0  0  0  0  0  0  0
  -26.9362  -28.5965   17.0311 C   0  0  0  0  0  0  0  0  0  0  0  0
  -27.5215  -26.5173   15.7097 C   0  0  0  0  0  0  0  0  0  0  0  0
  -26.9180  -26.3011   18.0884 C   0  0  0  0  0  0  0  0  0  0  0  0
  -21.9530  -11.5205   20.8945 C   0  0  1  0  0  0  0  0  0  0  0  0
  -22.7699  -14.9036   22.4180 C   0  0  1  0  0  0  0  0  0  0  0  0
  -27.1645  -27.7992   18.3303 C   0  0  2  0  0  0  0  0  0  0  0  0
  -21.9103  -22.6018   22.4572 C   0  0  0  0  0  0  0  0  0  0  0  0
  -31.1478  -16.4350   18.6962 C   0  0  0  0  0  0  0  0  0  0  0  0
  -33.9671  -22.5965   19.4327 C   0  0  0  0  0  0  0  0  0  0  0  0
  -33.4159  -20.6732   17.9053 C   0  0  0  0  0  0  0  0  0  0  0  0
  -33.2531  -20.4080   20.3720 C   0  0  0  0  0  0  0  0  0  0  0  0
  -20.6877  -17.1239   18.9403 C   0  0  0  0  0  0  0  0  0  0  0  0
  -20.7514  -19.6237   19.0647 C   0  0  0  0  0  0  0  0  0  0  0  0
  -19.2442  -18.3391   20.5816 C   0  0  0  0  0  0  0  0  0  0  0  0
  -27.7669  -21.3653   20.9546 C   0  0  0  0  0  0  0  0  0  0  0  0
  -27.6014  -20.4069   18.6235 C   0  0  0  0  0  0  0  0  0  0  0  0
  -26.9586  -22.7647   19.0676 C   0  0  0  0  0  0  0  0  0  0  0  0
  -24.3308  -20.5755   24.5812 C   0  0  0  0  0  0  0  0  0  0  0  0
  -30.2813  -19.8374   20.0492 C   0  0  0  0  0  0  0  0  0  0  0  0
  -28.9206  -17.0088   19.7428 C   0  0  0  0  0  0  0  0  0  1  0  0
  -21.7395  -18.2961   20.9862 C   0  0  1  0  0  0  0  0  0  0  0  0
  -22.4593  -21.3469   23.1179 C   0  0  2  0  0  0  0  0  0  0  0  0
  -30.3941  -17.3797   19.6182 C   0  0  2  0  0  0  0  0  0  0  0  0
  -32.9608  -21.4188   19.2048 C   0  0  0  0  0  0  0  0  0  0  0  0
  -20.6291  -18.3304   19.8984 C   0  0  0  0  0  0  0  0  0  0  0  0
  -27.9715  -21.6577   19.4515 C   0  0  0  0  0  0  0  0  0  0  0  0
  -25.1121  -27.8030   19.6973 N   0  0  0  0  0  0  0  0  0  0  0  0
  -29.3537  -22.0150   19.2069 N   0  0  0  0  0  0  0  0  0  0  0  0
  -26.3252  -28.3365   19.4744 N   0  0  0  0  0  0  0  0  0  0  0  0
  -22.8304  -16.2273   21.7948 N   0  0  0  0  0  0  0  0  0  0  0  0
  -27.7603  -25.8270   16.9791 N   0  0  0  0  0  0  0  0  0  0  0  0
  -27.8406  -29.9777   20.2622 N   0  0  0  0  0  0  0  0  0  0  0  0
  -24.3143  -30.3901   23.0535 N   0  0  0  0  0  0  0  0  0  0  0  0
  -28.8923  -24.2427   18.3098 N   0  0  0  0  0  0  0  0  0  0  0  0
  -22.2779  -12.6230   21.7740 N   0  0  0  0  0  0  0  0  0  0  0  0
  -21.6917  -19.4124   21.9243 N   0  0  0  0  0  0  0  0  0  0  0  0
  -23.6972  -21.7114   23.8633 N   0  3  0  0  0  0  0  0  0  0  0  0
  -30.4895  -18.7565   19.0524 N   0  3  0  0  0  0  0  0  0  0  0  0
  -26.3935  -31.2136   22.5458 O   0  0  0  0  0  0  0  0  0  0  0  0
  -22.3300  -14.3144   20.1743 O   0  0  0  0  0  0  0  0  0  0  0  0
  -20.6744  -16.7922   22.4796 O   0  0  0  0  0  0  0  0  0  0  0  0
  -23.8319  -20.1958   21.4966 O   0  0  0  0  0  0  0  0  0  0  0  0
  -29.3879  -24.4702   16.0549 O   0  0  0  0  0  0  0  0  0  0  0  0
  -19.6219  -27.3915   22.8969 O   0  0  0  0  0  0  0  0  0  0  0  0
  -28.7809  -15.6867   20.2613 O   0  0  0  0  0  0  0  0  0  1  0  0
  -16.3715  -31.6693   24.1377 F   0  0  0  0  0  0  0  0  0  0  0  0
  -17.1490  -27.6887   21.6973 F   0  0  0  0  0  0  0  0  0  0  0  0
  1  2  1  0  0  0  0
  1  5  2  0  0  0  0
  2  6  2  0  0  0  0
  3  8  2  0  0  0  0
  3 16  1  0  0  0  0
  4  9  1  0  0  0  0
  4 16  2  0  0  0  0
  5 18  1  0  0  0  0
  6 20  1  0  0  0  0
  7 10  2  0  0  0  0
  7 19  1  0  0  0  0
  8 23  1  0  0  0  0
  9 23  2  0  0  0  0
 10 24  1  0  0  0  0
 11 12  2  0  0  0  0
 11 25  1  0  0  0  0
 12 26  1  0  0  0  0
 13 21  1  0  0  0  0
 13 24  2  0  0  0  0
 14 22  1  0  0  0  0
 14 30  2  0  0  0  0
 15 26  2  0  0  0  0
 15 27  1  0  0  0  0
 16 28  1  0  0  0  0
 17 28  1  0  0  0  0
 17 31  2  0  0  0  0
 17 32  1  0  0  0  0
 18 20  2  0  0  0  0
 18 37  1  0  0  0  0
 19 21  2  0  0  0  0
 19 38  1  0  0  0  0
 20 46  1  0  0  0  0
 21 39  1  0  0  0  0
 22 29  2  0  0  0  0
 22 66  1  0  0  0  0
 23 86  1  0  0  0  0
 24 87  1  0  0  0  0
 25 27  2  0  0  0  0
 25 86  1  0  0  0  0
 26 88  1  0  0  0  0
 27 89  1  0  0  0  0
 28 69  2  0  0  0  0
 29 61  1  0  0  0  0
 29 70  1  0  0  0  0
 30 70  1  0  0  0  0
 30 76  1  0  0  0  0
 31 71  1  0  0  0  0
 31 74  1  0  0  0  0
 32 75  1  0  0  0  0
 32 81  2  0  0  0  0
 33 47  1  0  0  0  0
 33 77  1  0  0  0  0
 33 82  2  0  0  0  0
 34 63  1  0  0  0  0
 34 72  1  0  0  0  0
 34 83  2  0  0  0  0
 35 64  1  0  0  0  0
 35 78  1  0  0  0  0
 35 84  2  0  0  0  0
 36 73  1  0  0  0  0
 36 76  1  0  0  0  0
 36 85  2  0  0  0  0
 37 40  1  0  0  0  0
 38 47  1  0  0  0  0
 39 72  1  0  0  0  0
 40 42  1  0  0  0  0
 41 43  1  0  0  0  0
 41 44  1  0  0  0  0
 42 46  1  0  0  0  0
 43 48  1  0  0  0  0
 44 73  1  0  0  0  0
 45 48  1  0  0  0  0
 45 73  1  0  0  0  0
 46 77  1  0  0  0  0
 47 72  1  0  0  0  0
 48 71  1  0  0  0  0
 49 64  1  0  0  0  0
 50 65  1  0  0  0  0
 51 66  1  0  0  0  0
 52 66  1  0  0  0  0
 53 66  1  0  0  0  0
 54 67  1  0  0  0  0
 55 67  1  0  0  0  0
 56 67  1  0  0  0  0
 57 68  1  0  0  0  0
 58 68  1  0  0  0  0
 59 68  1  0  0  0  0
 60 79  1  0  0  0  0
 61 80  1  0  0  0  0
 62 65  1  0  0  0  0
 62 87  1  0  0  0  0
 63 67  1  0  0  0  0
 63 78  1  0  0  0  0
 64 79  1  0  0  0  0
 65 80  1  0  0  0  0
 68 70  1  0  0  0  0
 69 71  1  0  0  0  0
M  CHG  2  79   1  80   1
M  ISO  4  36 100  62 101  76 100  87 101
M  END
> <Batch ID>
0014

> <Smiles>
CNC(C)C(=O)NC(C(=O)N1Cc2cc([101O:1][101CH2:1]C(C)NCc3c(C(C)(C)C)cc([100NH:0][100C:0](=O)N4CCCC(n5nc(-c6ccc(Oc7ccc(F)cc7F)cc6)c(C(N)=O)c5N)C4)n3C(C)(C)C)ccc2CC1C(=O)NC1CCCc2ccccc21)C(C)(C)C

> <Shape>
0.252

> <Color>
0.071

> <Negative vol penalty>
0.000

$$$$
