
  -OEChem-04052315553D

 85 93  0     1  0  0  0  0  0999 V2000
  -23.3226   -8.0649   21.1487 C   0  0  0  0  0  0  0  0  0  0  0  0
  -22.3226   -8.7452   20.4612 C   0  0  0  0  0  0  0  0  0  0  0  0
  -30.2069  -27.8126   19.2760 C   0  0  0  0  0  0  0  0  0  0  0  0
  -29.4758  -26.1063   20.8223 C   0  0  0  0  0  0  0  0  0  0  0  0
  -24.0745   -8.7268   22.1185 C   0  0  0  0  0  0  0  0  0  0  0  0
  -22.0733  -10.0878   20.7439 C   0  0  0  0  0  0  0  0  0  0  0  0
  -19.9603  -16.1593   17.5834 C   0  0  0  0  0  0  0  0  0  0  0  0
  -31.5286  -27.4011   19.4468 C   0  0  0  0  0  0  0  0  0  0  0  0
  -30.7976  -25.6948   20.9931 C   0  0  0  0  0  0  0  0  0  0  0  0
  -19.0204  -17.1787   17.7289 C   0  0  0  0  0  0  0  0  0  0  0  0
  -33.9420  -23.9601   21.5602 C   0  0  0  0  0  0  0  0  0  0  0  0
  -34.2036  -22.5902   21.5374 C   0  0  0  0  0  0  0  0  0  0  0  0
  -20.4355  -18.2411   19.3684 C   0  0  0  0  0  0  0  0  0  0  0  0
  -19.4967  -28.6580   23.4385 C   0  0  0  0  0  0  0  0  0  0  0  0
  -17.8720  -26.9008   23.1079 C   0  0  0  0  0  0  0  0  0  0  0  0
  -33.3253  -22.4599   19.2905 C   0  0  0  0  0  0  0  0  0  0  0  0
  -29.1804  -27.1652   19.9638 C   0  0  0  0  0  0  0  0  0  0  0  0
  -26.8940  -27.1191   18.8333 C   0  0  0  0  0  0  0  0  0  0  0  0
  -23.8407  -10.0808   22.4063 C   0  0  0  0  0  0  0  0  0  0  0  0
  -21.1418  -16.1674   18.3386 C   0  0  0  0  0  0  0  0  0  0  0  0
  -22.8219  -10.7681   21.7193 C   0  0  0  0  0  0  0  0  0  0  0  0
  -21.3899  -17.2220   19.2288 C   0  0  0  0  0  0  0  0  0  0  0  0
  -18.3127  -28.0218   23.8113 C   0  0  0  0  0  0  0  0  0  0  0  0
  -19.7993  -27.0523   21.6589 C   0  0  0  0  0  0  0  0  0  0  0  0
  -20.2400  -28.1733   22.3623 C   0  0  0  0  0  0  0  0  0  0  0  0
  -18.6153  -26.4160   22.0317 C   0  0  0  0  0  0  0  0  0  0  0  0
  -31.8240  -26.3422   20.3053 C   0  0  0  0  0  0  0  0  0  0  0  0
  -19.2566  -18.2183   18.6236 C   0  0  0  0  0  0  0  0  0  0  0  0
  -33.3720  -24.5799   20.4481 C   0  0  0  0  0  0  0  0  0  0  0  0
  -33.8953  -21.8401   20.4026 C   0  0  0  0  0  0  0  0  0  0  0  0
  -33.0637  -23.8298   19.3133 C   0  0  0  0  0  0  0  0  0  0  0  0
  -27.8149  -27.5903   19.7882 C   0  0  0  0  0  0  0  0  0  0  0  0
  -25.7473  -27.8334   19.0806 C   0  0  0  0  0  0  0  0  0  0  0  0
  -27.0604  -26.1247   17.8140 C   0  0  0  0  0  0  0  0  0  0  0  0
  -22.4272  -14.2384   20.5136 C   0  0  0  0  0  0  0  0  0  0  0  0
  -24.9483  -16.2627   20.2516 C   0  0  0  0  0  0  0  0  0  0  0  0
  -26.0962  -19.3690   19.4270 C   0  0  0  0  0  0  0  0  0  0  0  0
  -21.9986  -29.9606   22.6056 C   0  0  0  0  0  0  0  0  0  0  0  0
  -24.6475  -10.7410   23.4962 C   0  0  0  0  0  0  0  0  0  0  0  0
  -22.1579  -15.0744   18.1504 C   0  0  0  0  0  0  0  0  0  0  0  0
  -22.6520  -17.2879   20.0481 C   0  0  0  0  0  0  0  0  0  0  0  0
  -24.5717  -12.2655   23.4717 C   0  0  0  0  0  0  0  0  0  0  0  0
  -24.9511  -31.8666   22.0338 C   0  0  0  0  0  0  0  0  0  0  0  0
  -23.1267  -12.7255   23.3071 C   0  0  0  0  0  0  0  0  0  0  0  0
  -25.8836  -30.8852   21.3200 C   0  0  0  0  0  0  0  0  0  0  0  0
  -24.1096  -31.1733   23.1038 C   0  0  0  0  0  0  0  0  0  0  0  0
  -24.2929  -29.0172   21.9260 C   0  0  0  0  0  0  0  0  0  0  0  0
  -22.5381  -12.2315   21.9801 C   0  0  1  0  0  0  0  0  0  0  0  0
  -23.0908  -14.9135   19.3467 C   0  0  1  0  0  0  0  0  0  0  0  0
  -25.1142  -29.6573   20.7949 C   0  0  2  0  0  0  0  0  0  0  0  0
  -17.5188  -28.5391   24.9633 C   0  0  0  0  0  0  0  0  0  0  0  0
  -20.5972  -26.5306   20.5042 C   0  0  0  0  0  0  0  0  0  0  0  0
  -28.1988  -20.7368   19.3536 C   0  0  0  0  0  0  0  0  0  0  0  0
  -24.8303  -16.6022   23.2815 C   0  0  0  0  0  0  0  0  0  0  0  0
  -26.2670  -18.6382   23.0395 C   0  0  0  0  0  0  0  0  0  0  0  0
  -27.1401  -16.4078   22.3428 C   0  0  0  0  0  0  0  0  0  0  0  0
  -25.8860  -19.7472   16.4992 C   0  0  0  0  0  0  0  0  0  0  0  0
  -17.8057  -22.3999   20.7180 C   0  0  0  0  0  0  0  0  0  0  0  0
  -16.6963  -23.4559   20.6927 C   0  0  0  0  0  0  0  0  0  0  0  0
  -17.5287  -21.2819   19.7145 C   0  0  0  0  0  0  0  0  0  0  0  0
  -16.9459  -24.5960   21.6762 C   0  0  0  0  0  0  0  0  0  0  0  0
  -18.6472  -20.2482   19.7026 C   0  0  0  0  0  0  0  0  0  1  0  0
  -25.3696  -17.5400   20.9372 C   0  0  1  0  0  0  0  0  0  0  0  0
  -27.2715  -19.8156   18.5763 C   0  0  2  0  0  0  0  0  0  0  0  0
  -25.8770  -17.2951   22.3864 C   0  0  0  0  0  0  0  0  0  0  0  0
  -27.2978  -28.5312   20.5828 N   0  0  0  0  0  0  0  0  0  0  0  0
  -26.0396  -28.6571   20.1276 N   0  0  0  0  0  0  0  0  0  0  0  0
  -23.6120  -16.1925   19.8332 N   0  0  0  0  0  0  0  0  0  0  0  0
  -23.4063  -30.0226   22.5327 N   0  0  0  0  0  0  0  0  0  0  0  0
  -24.5274  -27.8310   18.5024 N   0  0  0  0  0  0  0  0  0  0  0  0
  -28.3036  -25.4881   17.6981 N   0  0  0  0  0  0  0  0  0  0  0  0
  -21.4388  -28.8361   22.0000 N   0  0  0  0  0  0  0  0  0  0  0  0
  -18.1606  -25.3012   21.3449 N   0  0  0  0  0  0  0  0  0  0  0  0
  -23.0159  -13.0438   20.8818 N   0  0  0  0  0  0  0  0  0  0  0  0
  -26.3497  -18.1704   20.0595 N   0  0  0  0  0  0  0  0  0  0  0  0
  -26.7898  -20.5437   17.3685 N   0  3  0  0  0  0  0  0  0  0  0  0
  -26.1390  -25.8217   17.0185 O   0  0  0  0  0  0  0  0  0  0  0  0
  -21.4540  -14.7634   21.0418 O   0  0  0  0  0  0  0  0  0  0  0  0
  -25.7763  -15.3634   20.0867 O   0  0  0  0  0  0  0  0  0  0  0  0
  -25.0585  -20.0205   19.5238 O   0  0  0  0  0  0  0  0  0  0  0  0
  -21.3365  -30.8538   23.1403 O   0  0  0  0  0  0  0  0  0  0  0  0
  -33.1136  -25.9402   20.4720 O   0  0  0  0  0  0  0  0  0  0  0  0
  -18.3406  -19.2142   18.7680 O   0  0  0  0  0  0  0  0  0  1  0  0
  -34.1479  -20.5249   20.3803 F   0  0  0  0  0  0  0  0  0  0  0  0
  -32.5170  -24.4199   18.2415 F   0  0  0  0  0  0  0  0  0  0  0  0
  1  2  1  0  0  0  0
  1  5  2  0  0  0  0
  2  6  2  0  0  0  0
  3  8  2  0  0  0  0
  3 17  1  0  0  0  0
  4  9  1  0  0  0  0
  4 17  2  0  0  0  0
  5 19  1  0  0  0  0
  6 21  1  0  0  0  0
  7 10  2  0  0  0  0
  7 20  1  0  0  0  0
  8 27  1  0  0  0  0
  9 27  2  0  0  0  0
 10 28  1  0  0  0  0
 11 12  2  0  0  0  0
 11 29  1  0  0  0  0
 12 30  1  0  0  0  0
 13 22  1  0  0  0  0
 13 28  2  0  0  0  0
 14 23  1  0  0  0  0
 14 25  2  0  0  0  0
 15 23  2  0  0  0  0
 15 26  1  0  0  0  0
 16 30  2  0  0  0  0
 16 31  1  0  0  0  0
 17 32  1  0  0  0  0
 18 32  1  0  0  0  0
 18 33  2  0  0  0  0
 18 34  1  0  0  0  0
 19 21  2  0  0  0  0
 19 39  1  0  0  0  0
 20 22  2  0  0  0  0
 20 40  1  0  0  0  0
 21 48  1  0  0  0  0
 22 41  1  0  0  0  0
 23 51  1  0  0  0  0
 24 25  1  0  0  0  0
 24 26  2  0  0  0  0
 24 52  1  0  0  0  0
 25 72  1  0  0  0  0
 26 73  1  0  0  0  0
 27 82  1  0  0  0  0
 28 83  1  0  0  0  0
 29 31  2  0  0  0  0
 29 82  1  0  0  0  0
 30 84  1  0  0  0  0
 31 85  1  0  0  0  0
 32 66  2  0  0  0  0
 33 67  1  0  0  0  0
 33 70  1  0  0  0  0
 34 71  1  0  0  0  0
 34 77  2  0  0  0  0
 35 49  1  0  0  0  0
 35 74  1  0  0  0  0
 35 78  2  0  0  0  0
 36 63  1  0  0  0  0
 36 68  1  0  0  0  0
 36 79  2  0  0  0  0
 37 64  1  0  0  0  0
 37 75  1  0  0  0  0
 37 80  2  0  0  0  0
 38 69  1  0  0  0  0
 38 72  1  0  0  0  0
 38 81  2  0  0  0  0
 39 42  1  0  0  0  0
 40 49  1  0  0  0  0
 41 68  1  0  0  0  0
 42 44  1  0  0  0  0
 43 45  1  0  0  0  0
 43 46  1  0  0  0  0
 44 48  1  0  0  0  0
 45 50  1  0  0  0  0
 46 69  1  0  0  0  0
 47 50  1  0  0  0  0
 47 69  1  0  0  0  0
 48 74  1  0  0  0  0
 49 68  1  0  0  0  0
 50 67  1  0  0  0  0
 53 64  1  0  0  0  0
 54 65  1  0  0  0  0
 55 65  1  0  0  0  0
 56 65  1  0  0  0  0
 57 76  1  0  0  0  0
 58 59  1  0  0  0  0
 58 60  1  0  0  0  0
 59 61  1  0  0  0  0
 60 62  1  0  0  0  0
 61 73  1  0  0  0  0
 62 83  1  0  0  0  0
 63 65  1  0  0  0  0
 63 75  1  0  0  0  0
 64 76  1  0  0  0  0
 66 67  1  0  0  0  0
M  CHG  1  76   1
M  ISO  4  38 100  62 101  72 100  83 101
M  END
> <Batch ID>
0015

> <Smiles>
CNC(C)C(=O)NC(C(=O)N1Cc2cc([101O:1][101CH2:1]CCCCNc3cc(C)cc([100NH:0][100C:0](=O)N4CCCC(n5nc(-c6ccc(Oc7ccc(F)cc7F)cc6)c(C(N)=O)c5N)C4)c3C)ccc2CC1C(=O)NC1CCCc2ccccc21)C(C)(C)C

> <Shape>
0.233

> <Color>
0.089

> <Negative vol penalty>
0.000

$$$$

  -OEChem-04052315553D

 86 94  0     1  0  0  0  0  0999 V2000
  -21.5198  -27.7116   15.3464 C   0  0  0  0  0  0  0  0  0  0  0  0
  -22.1575  -26.9549   16.3242 C   0  0  0  0  0  0  0  0  0  0  0  0
  -23.0738   -9.8692   19.9428 C   0  0  0  0  0  0  0  0  0  0  0  0
  -23.8313   -9.8789   22.2369 C   0  0  0  0  0  0  0  0  0  0  0  0
  -20.2997  -27.2860   14.8227 C   0  0  0  0  0  0  0  0  0  0  0  0
  -21.5750  -25.7728   16.7798 C   0  0  0  0  0  0  0  0  0  0  0  0
  -24.9097  -21.9793   17.1465 C   0  0  0  0  0  0  0  0  0  0  0  0
  -22.3286   -8.7172   20.1936 C   0  0  0  0  0  0  0  0  0  0  0  0
  -23.0860   -8.7268   22.4878 C   0  0  0  0  0  0  0  0  0  0  0  0
  -25.7562  -21.9806   18.2542 C   0  0  0  0  0  0  0  0  0  0  0  0
  -19.3780   -7.9257   21.6430 C   0  0  0  0  0  0  0  0  0  0  0  0
  -18.0716   -7.8800   21.1565 C   0  0  0  0  0  0  0  0  0  0  0  0
  -24.3416  -20.3491   19.3295 C   0  0  0  0  0  0  0  0  0  0  0  0
  -31.9620  -17.0757   22.1221 C   0  0  0  0  0  0  0  0  0  0  0  0
  -18.6308   -5.9344   19.8377 C   0  0  0  0  0  0  0  0  0  0  0  0
  -23.8253  -10.4501   20.9644 C   0  0  0  0  0  0  0  0  0  0  0  0
  -24.1697  -12.9747   20.8409 C   0  0  0  0  0  0  0  0  0  0  0  0
  -19.7066  -26.0930   15.2651 C   0  0  0  0  0  0  0  0  0  0  0  0
  -23.7649  -21.1697   17.1264 C   0  0  0  0  0  0  0  0  0  0  0  0
  -20.3452  -25.3315   16.2625 C   0  0  0  0  0  0  0  0  0  0  0  0
  -23.4836  -20.3375   18.2192 C   0  0  0  0  0  0  0  0  0  0  0  0
  -32.4806  -18.2905   22.5704 C   0  0  0  0  0  0  0  0  0  0  0  0
  -29.7326  -18.0047   22.1840 C   0  0  0  0  0  0  0  0  0  0  0  0
  -30.2512  -19.2194   22.6323 C   0  0  0  0  0  0  0  0  0  0  0  0
  -30.5880  -16.9328   21.9288 C   0  0  0  0  0  0  0  0  0  0  0  0
  -22.3346   -8.1460   21.4662 C   0  0  0  0  0  0  0  0  0  0  0  0
  -25.4707  -21.1676   19.3472 C   0  0  0  0  0  0  0  0  0  0  0  0
  -20.3109   -6.9757   21.2269 C   0  0  0  0  0  0  0  0  0  0  0  0
  -17.6980   -6.8843   20.2539 C   0  0  0  0  0  0  0  0  0  0  0  0
  -19.9373   -5.9801   20.3243 C   0  0  0  0  0  0  0  0  0  0  0  0
  -31.6253  -19.3623   22.8255 C   0  0  0  0  0  0  0  0  0  0  0  0
  -24.5958  -11.6398   20.7057 C   0  0  0  0  0  0  0  0  0  0  0  0
  -25.2630  -13.7226   20.4777 C   0  0  0  0  0  0  0  0  0  0  0  0
  -22.8993  -13.4924   21.2578 C   0  0  0  0  0  0  0  0  0  0  0  0
  -20.6384  -21.7101   16.9349 C   0  0  0  0  0  0  0  0  0  0  0  0
  -20.4857  -18.4755   16.7446 C   0  0  0  0  0  0  0  0  0  0  0  0
  -21.9423  -15.4621   17.4114 C   0  0  0  0  0  0  0  0  0  0  0  0
  -30.7300  -14.7631   20.6566 C   0  0  0  0  0  0  0  0  0  0  0  0
  -18.3638  -25.6981   14.7034 C   0  0  0  0  0  0  0  0  0  0  0  0
  -22.8764  -21.1599   15.9128 C   0  0  0  0  0  0  0  0  0  0  0  0
  -22.2782  -19.4347   18.2388 C   0  0  0  0  0  0  0  0  0  0  0  0
  -17.9966  -24.2407   14.9706 C   0  0  0  0  0  0  0  0  0  0  0  0
  -29.6157  -12.3468   18.2908 C   0  0  0  0  0  0  0  0  0  0  0  0
  -18.2687  -23.8801   16.4276 C   0  0  0  0  0  0  0  0  0  0  0  0
  -28.1753  -12.0573   18.7192 C   0  0  0  0  0  0  0  0  0  0  0  0
  -30.5298  -12.5765   19.4930 C   0  0  0  0  0  0  0  0  0  0  0  0
  -28.6221  -13.3049   20.8712 C   0  0  0  0  0  0  0  0  0  0  0  0
  -19.7571  -24.0306   16.7645 C   0  0  1  0  0  0  0  0  0  0  0  0
  -21.4599  -20.6796   16.2132 C   0  0  1  0  0  0  0  0  0  0  0  0
  -27.6503  -13.1309   19.6926 C   0  0  2  0  0  0  0  0  0  0  0  0
  -33.9503  -18.4399   22.7763 C   0  0  0  0  0  0  0  0  0  0  0  0
  -28.2575  -17.8538   21.9793 C   0  0  0  0  0  0  0  0  0  0  0  0
  -21.5608  -12.9935   17.1707 C   0  0  0  0  0  0  0  0  0  0  0  0
  -28.7559  -23.4159   22.2344 C   0  0  0  0  0  0  0  0  0  0  0  0
  -25.9840  -23.5069   20.8956 C   0  0  0  0  0  0  0  0  0  0  0  0
  -18.5078  -18.5572   19.0665 C   0  0  0  0  0  0  0  0  0  0  0  0
  -18.8980  -16.1060   19.3940 C   0  0  0  0  0  0  0  0  0  0  0  0
  -17.9223  -16.9368   17.2538 C   0  0  0  0  0  0  0  0  0  0  0  0
  -24.3466  -15.1382   15.7162 C   0  0  0  0  0  0  0  0  0  0  0  0
  -29.3506  -20.3867   22.9104 C   0  0  0  0  0  0  0  0  0  0  0  0
  -20.3679  -17.3501   17.7440 C   0  0  1  0  0  0  0  0  0  0  0  0
  -22.1680  -14.2381   16.5422 C   0  0  2  0  0  0  0  0  0  0  0  0
  -27.9184  -22.1799   21.9246 C   0  0  1  0  0  0  0  0  0  0  0  0
  -26.9936  -22.3786   20.7147 C   0  0  1  0  0  0  0  0  0  1  0  0
  -18.9457  -17.2559   18.3653 C   0  0  0  0  0  0  0  0  0  0  0  0
  -25.8610  -11.5421   20.2889 N   0  0  0  0  0  0  0  0  0  0  0  0
  -26.2393  -12.8251   20.1590 N   0  0  0  0  0  0  0  0  0  0  0  0
  -21.4364  -19.4653   17.0313 N   0  0  0  0  0  0  0  0  0  0  0  0
  -29.9709  -13.6092   20.3683 N   0  0  0  0  0  0  0  0  0  0  0  0
  -25.4747  -15.0537   20.4029 N   0  0  0  0  0  0  0  0  0  0  0  0
  -21.8861  -12.5847   21.5953 N   0  0  0  0  0  0  0  0  0  0  0  0
  -30.0827  -15.6900   21.4730 N   0  0  0  0  0  0  0  0  0  0  0  0
  -20.5077  -22.9043   16.2522 N   0  0  0  0  0  0  0  0  0  0  0  0
  -20.7980  -16.1411   17.0499 N   0  0  0  0  0  0  0  0  0  0  0  0
  -23.6267  -14.0026   16.3479 N   0  3  0  0  0  0  0  0  0  0  0  0
  -28.8570  -21.0480   21.6756 N   0  3  0  0  0  0  0  0  0  0  0  0
  -22.6642  -14.7233   21.3130 O   0  0  0  0  0  0  0  0  0  0  0  0
  -20.1575  -21.4411   18.0295 O   0  0  0  0  0  0  0  0  0  0  0  0
  -19.7660  -18.4725   15.7428 O   0  0  0  0  0  0  0  0  0  0  0  0
  -22.7029  -15.7815   18.3224 O   0  0  0  0  0  0  0  0  0  0  0  0
  -31.8597  -14.9300   20.1899 O   0  0  0  0  0  0  0  0  0  0  0  0
  -21.6073   -7.0220   21.7114 O   0  0  0  0  0  0  0  0  0  0  0  0
  -26.2949  -21.1673   20.4300 O   0  0  0  0  0  0  0  0  0  1  0  0
  -16.4429   -6.8397   19.7879 F   0  0  0  0  0  0  0  0  0  0  0  0
  -20.8287   -5.0641   19.9217 F   0  0  0  0  0  0  0  0  0  0  0  0
  -32.1248  -20.5309   23.2550 F   0  0  0  0  0  0  0  0  0  0  0  0
  1  2  1  0  0  0  0
  1  5  2  0  0  0  0
  2  6  2  0  0  0  0
  3  8  2  0  0  0  0
  3 16  1  0  0  0  0
  4  9  1  0  0  0  0
  4 16  2  0  0  0  0
  5 18  1  0  0  0  0
  6 20  1  0  0  0  0
  7 10  2  0  0  0  0
  7 19  1  0  0  0  0
  8 26  1  0  0  0  0
  9 26  2  0  0  0  0
 10 27  1  0  0  0  0
 11 12  2  0  0  0  0
 11 28  1  0  0  0  0
 12 29  1  0  0  0  0
 13 21  1  0  0  0  0
 13 27  2  0  0  0  0
 14 22  2  0  0  0  0
 14 25  1  0  0  0  0
 15 29  2  0  0  0  0
 15 30  1  0  0  0  0
 16 32  1  0  0  0  0
 17 32  1  0  0  0  0
 17 33  2  0  0  0  0
 17 34  1  0  0  0  0
 18 20  2  0  0  0  0
 18 39  1  0  0  0  0
 19 21  2  0  0  0  0
 19 40  1  0  0  0  0
 20 48  1  0  0  0  0
 21 41  1  0  0  0  0
 22 31  1  0  0  0  0
 22 51  1  0  0  0  0
 23 24  1  0  0  0  0
 23 25  2  0  0  0  0
 23 52  1  0  0  0  0
 24 31  2  0  0  0  0
 24 60  1  0  0  0  0
 25 72  1  0  0  0  0
 26 82  1  0  0  0  0
 27 83  1  0  0  0  0
 28 30  2  0  0  0  0
 28 82  1  0  0  0  0
 29 84  1  0  0  0  0
 30 85  1  0  0  0  0
 31 86  1  0  0  0  0
 32 66  2  0  0  0  0
 33 67  1  0  0  0  0
 33 70  1  0  0  0  0
 34 71  1  0  0  0  0
 34 77  2  0  0  0  0
 35 49  1  0  0  0  0
 35 73  1  0  0  0  0
 35 78  2  0  0  0  0
 36 61  1  0  0  0  0
 36 68  1  0  0  0  0
 36 79  2  0  0  0  0
 37 62  1  0  0  0  0
 37 74  1  0  0  0  0
 37 80  2  0  0  0  0
 38 69  1  0  0  0  0
 38 72  1  0  0  0  0
 38 81  2  0  0  0  0
 39 42  1  0  0  0  0
 40 49  1  0  0  0  0
 41 68  1  0  0  0  0
 42 44  1  0  0  0  0
 43 45  1  0  0  0  0
 43 46  1  0  0  0  0
 44 48  1  0  0  0  0
 45 50  1  0  0  0  0
 46 69  1  0  0  0  0
 47 50  1  0  0  0  0
 47 69  1  0  0  0  0
 48 73  1  0  0  0  0
 49 68  1  0  0  0  0
 50 67  1  0  0  0  0
 53 62  1  0  0  0  0
 54 63  1  0  0  0  0
 55 64  1  0  0  0  0
 56 65  1  0  0  0  0
 57 65  1  0  0  0  0
 58 65  1  0  0  0  0
 59 75  1  0  0  0  0
 60 76  1  0  0  0  0
 61 65  1  0  0  0  0
 61 74  1  0  0  0  0
 62 75  1  0  0  0  0
 63 64  1  0  0  0  0
 63 76  1  0  0  0  0
 64 83  1  0  0  0  0
 66 67  1  0  0  0  0
M  CHG  2  75   1  76   1
M  ISO  4  38 100  64 101  72 100  83 101
M  END
> <Batch ID>
0015

> <Smiles>
CNC(C)C(=O)NC(C(=O)N1Cc2cc([101O:1][101CH:1](C)C(C)NCc3c(C)c([100NH:0][100C:0](=O)N4CCCC(n5nc(-c6ccc(Oc7ccc(F)cc7F)cc6)c(C(N)=O)c5N)C4)cc(C)c3F)ccc2CC1C(=O)NC1CCCc2ccccc21)C(C)(C)C

> <Shape>
0.169

> <Color>
0.191

> <Negative vol penalty>
0.000

$$$$

  -OEChem-04052315553D

 85 93  0     1  0  0  0  0  0999 V2000
  -28.8634  -24.1250   17.3091 C   0  0  0  0  0  0  0  0  0  0  0  0
  -27.7047  -24.2230   18.0728 C   0  0  0  0  0  0  0  0  0  0  0  0
  -21.6231  -11.4135   20.7462 C   0  0  0  0  0  0  0  0  0  0  0  0
  -23.8318  -11.8598   21.6175 C   0  0  0  0  0  0  0  0  0  0  0  0
  -29.9950  -24.8582   17.6640 C   0  0  0  0  0  0  0  0  0  0  0  0
  -27.6773  -25.0536   19.1925 C   0  0  0  0  0  0  0  0  0  0  0  0
  -23.4554  -27.8391   19.4420 C   0  0  0  0  0  0  0  0  0  0  0  0
  -21.9750  -10.0801   20.5370 C   0  0  0  0  0  0  0  0  0  0  0  0
  -24.1838  -10.5264   21.4084 C   0  0  0  0  0  0  0  0  0  0  0  0
  -22.2994  -27.2040   19.8937 C   0  0  0  0  0  0  0  0  0  0  0  0
  -23.6935   -7.5531   22.9381 C   0  0  0  0  0  0  0  0  0  0  0  0
  -24.3777   -6.8969   23.9612 C   0  0  0  0  0  0  0  0  0  0  0  0
  -22.6268  -28.1745   22.0778 C   0  0  0  0  0  0  0  0  0  0  0  0
  -22.0823  -23.5667   24.0533 C   0  0  0  0  0  0  0  0  0  0  0  0
  -26.2335   -6.5003   22.4658 C   0  0  0  0  0  0  0  0  0  0  0  0
  -22.5515  -12.3034   21.2864 C   0  0  0  0  0  0  0  0  0  0  0  0
  -21.6186  -14.2382   22.6625 C   0  0  0  0  0  0  0  0  0  0  0  0
  -29.9783  -25.7056   18.7831 C   0  0  0  0  0  0  0  0  0  0  0  0
  -24.2131  -28.6392   20.3093 C   0  0  0  0  0  0  0  0  0  0  0  0
  -28.8100  -25.7979   19.5635 C   0  0  0  0  0  0  0  0  0  0  0  0
  -23.7906  -28.8207   21.6340 C   0  0  0  0  0  0  0  0  0  0  0  0
  -23.1738  -22.8017   24.4643 C   0  0  0  0  0  0  0  0  0  0  0  0
  -23.6361  -21.7586   23.6619 C   0  0  0  0  0  0  0  0  0  0  0  0
  -21.4529  -23.2885   22.8399 C   0  0  0  0  0  0  0  0  0  0  0  0
  -23.0067  -21.4804   22.4485 C   0  0  0  0  0  0  0  0  0  0  0  0
  -23.2553   -9.6365   20.8681 C   0  0  0  0  0  0  0  0  0  0  0  0
  -21.8865  -27.3693   21.2125 C   0  0  0  0  0  0  0  0  0  0  0  0
  -24.2793   -7.6829   21.6788 C   0  0  0  0  0  0  0  0  0  0  0  0
  -21.9152  -22.2454   22.0375 C   0  0  0  0  0  0  0  0  0  0  0  0
  -25.6477   -6.3705   23.7251 C   0  0  0  0  0  0  0  0  0  0  0  0
  -25.5492   -7.1565   21.4427 C   0  0  0  0  0  0  0  0  0  0  0  0
  -22.1887  -13.6810   21.5022 C   0  0  0  0  0  0  0  0  0  0  0  0
  -21.4676  -15.5706   22.3651 C   0  0  0  0  0  0  0  0  0  0  0  0
  -21.2578  -13.6078   23.8987 C   0  0  0  0  0  0  0  0  0  0  0  0
  -27.1830  -28.5355   21.4373 C   0  0  0  0  0  0  0  0  0  0  0  0
  -26.3896  -31.4175   22.6971 C   0  0  0  0  0  0  0  0  0  0  0  0
  -23.9362  -33.5393   23.7579 C   0  0  0  0  0  0  0  0  0  0  0  0
  -23.4081  -20.3372   20.2398 C   0  0  0  0  0  0  0  0  0  0  0  0
  -31.2408  -26.4422   19.1547 C   0  0  0  0  0  0  0  0  0  0  0  0
  -25.4430  -29.3389   19.7994 C   0  0  0  0  0  0  0  0  0  0  0  0
  -24.5576  -29.6856   22.5995 C   0  0  0  0  0  0  0  0  0  0  0  0
  -31.0112  -27.5863   20.1389 C   0  0  0  0  0  0  0  0  0  0  0  0
  -21.9197  -18.0356   17.9672 C   0  0  0  0  0  0  0  0  0  0  0  0
  -30.1138  -27.1321   21.2857 C   0  0  0  0  0  0  0  0  0  0  0  0
  -21.8101  -16.7434   18.7798 C   0  0  0  0  0  0  0  0  0  0  0  0
  -23.1983  -18.8049   18.2948 C   0  0  0  0  0  0  0  0  0  0  0  0
  -23.3012  -17.7843   20.5347 C   0  0  0  0  0  0  0  0  0  0  0  0
  -28.7333  -26.7070   20.7708 C   0  0  1  0  0  0  0  0  0  0  0  0
  -26.4190  -29.7167   20.9094 C   0  0  1  0  0  0  0  0  0  0  0  0
  -21.9979  -17.0075   20.2866 C   0  0  2  0  0  0  0  0  0  0  0  0
  -23.8297  -23.1206   25.7680 C   0  0  0  0  0  0  0  0  0  0  0  0
  -24.8076  -20.9413   24.1092 C   0  0  0  0  0  0  0  0  0  0  0  0
  -23.5981  -35.8095   24.7724 C   0  0  0  0  0  0  0  0  0  0  0  0
  -18.4058  -25.4182   22.7946 C   0  0  0  0  0  0  0  0  0  0  0  0
  -27.2687  -30.3331   25.4103 C   0  0  0  0  0  0  0  0  0  0  0  0
  -26.0480  -32.2350   26.4878 C   0  0  0  0  0  0  0  0  0  0  0  0
  -27.9623  -32.6924   24.9553 C   0  0  0  0  0  0  0  0  0  0  0  0
  -22.3741  -34.4768   21.4255 C   0  0  0  0  0  0  0  0  0  0  0  0
  -20.2197  -21.0443   20.8806 C   0  0  0  0  0  0  0  0  0  0  0  0
  -20.7158  -26.3898   23.0363 C   0  0  0  0  0  0  0  0  0  1  0  0
  -25.7691  -31.8840   23.9918 C   0  0  1  0  0  0  0  0  0  0  0  0
  -23.6884  -35.0112   23.4812 C   0  0  2  0  0  0  0  0  0  0  0  0
  -19.8411  -25.1529   23.2295 C   0  0  2  0  0  0  0  0  0  0  0  0
  -26.7484  -31.7682   25.1939 C   0  0  0  0  0  0  0  0  0  0  0  0
  -22.3863  -14.5854   20.5394 N   0  0  0  0  0  0  0  0  0  0  0  0
  -21.9378  -15.7244   21.0941 N   0  0  0  0  0  0  0  0  0  0  0  0
  -25.7568  -30.3436   22.0551 N   0  0  0  0  0  0  0  0  0  0  0  0
  -23.3065  -19.0220   19.7391 N   0  0  0  0  0  0  0  0  0  0  0  0
  -20.9797  -16.6139   23.0693 N   0  0  0  0  0  0  0  0  0  0  0  0
  -21.4808  -12.2310   24.0366 N   0  0  0  0  0  0  0  0  0  0  0  0
  -23.4725  -20.4215   21.6302 N   0  0  0  0  0  0  0  0  0  0  0  0
  -20.3723  -24.0558   22.4456 N   0  0  0  0  0  0  0  0  0  0  0  0
  -27.9228  -27.8699   20.4786 N   0  0  0  0  0  0  0  0  0  0  0  0
  -25.2815  -33.2369   23.7465 N   0  0  0  0  0  0  0  0  0  0  0  0
  -22.4147  -35.1895   22.7284 N   0  3  0  0  0  0  0  0  0  0  0  0
  -20.7375  -14.2435   24.8467 O   0  0  0  0  0  0  0  0  0  0  0  0
  -27.1081  -28.2500   22.6267 O   0  0  0  0  0  0  0  0  0  0  0  0
  -27.3945  -31.9895   22.2674 O   0  0  0  0  0  0  0  0  0  0  0  0
  -23.0275  -32.7387   23.9671 O   0  0  0  0  0  0  0  0  0  0  0  0
  -23.4085  -21.3182   19.4917 O   0  0  0  0  0  0  0  0  0  0  0  0
  -23.5990   -8.3354   20.6643 O   0  0  0  0  0  0  0  0  0  0  0  0
  -21.2978  -21.9754   20.8501 O   0  0  0  0  0  0  0  0  0  0  0  0
  -20.7588  -26.7500   21.6562 O   0  0  0  0  0  0  0  0  0  1  0  0
  -26.3053   -5.7416   24.7081 F   0  0  0  0  0  0  0  0  0  0  0  0
  -26.1175   -7.2791   20.2353 F   0  0  0  0  0  0  0  0  0  0  0  0
  1  2  1  0  0  0  0
  1  5  2  0  0  0  0
  2  6  2  0  0  0  0
  3  8  2  0  0  0  0
  3 16  1  0  0  0  0
  4  9  1  0  0  0  0
  4 16  2  0  0  0  0
  5 18  1  0  0  0  0
  6 20  1  0  0  0  0
  7 10  2  0  0  0  0
  7 19  1  0  0  0  0
  8 26  1  0  0  0  0
  9 26  2  0  0  0  0
 10 27  1  0  0  0  0
 11 12  2  0  0  0  0
 11 28  1  0  0  0  0
 12 30  1  0  0  0  0
 13 21  1  0  0  0  0
 13 27  2  0  0  0  0
 14 22  2  0  0  0  0
 14 24  1  0  0  0  0
 15 30  2  0  0  0  0
 15 31  1  0  0  0  0
 16 32  1  0  0  0  0
 17 32  1  0  0  0  0
 17 33  2  0  0  0  0
 17 34  1  0  0  0  0
 18 20  2  0  0  0  0
 18 39  1  0  0  0  0
 19 21  2  0  0  0  0
 19 40  1  0  0  0  0
 20 48  1  0  0  0  0
 21 41  1  0  0  0  0
 22 23  1  0  0  0  0
 22 51  1  0  0  0  0
 23 25  2  0  0  0  0
 23 52  1  0  0  0  0
 24 29  2  0  0  0  0
 24 72  1  0  0  0  0
 25 29  1  0  0  0  0
 25 71  1  0  0  0  0
 26 81  1  0  0  0  0
 27 83  1  0  0  0  0
 28 31  2  0  0  0  0
 28 81  1  0  0  0  0
 29 82  1  0  0  0  0
 30 84  1  0  0  0  0
 31 85  1  0  0  0  0
 32 65  2  0  0  0  0
 33 66  1  0  0  0  0
 33 69  1  0  0  0  0
 34 70  1  0  0  0  0
 34 76  2  0  0  0  0
 35 49  1  0  0  0  0
 35 73  1  0  0  0  0
 35 77  2  0  0  0  0
 36 61  1  0  0  0  0
 36 67  1  0  0  0  0
 36 78  2  0  0  0  0
 37 62  1  0  0  0  0
 37 74  1  0  0  0  0
 37 79  2  0  0  0  0
 38 68  1  0  0  0  0
 38 71  1  0  0  0  0
 38 80  2  0  0  0  0
 39 42  1  0  0  0  0
 40 49  1  0  0  0  0
 41 67  1  0  0  0  0
 42 44  1  0  0  0  0
 43 45  1  0  0  0  0
 43 46  1  0  0  0  0
 44 48  1  0  0  0  0
 45 50  1  0  0  0  0
 46 68  1  0  0  0  0
 47 50  1  0  0  0  0
 47 68  1  0  0  0  0
 48 73  1  0  0  0  0
 49 67  1  0  0  0  0
 50 66  1  0  0  0  0
 53 62  1  0  0  0  0
 54 63  1  0  0  0  0
 55 64  1  0  0  0  0
 56 64  1  0  0  0  0
 57 64  1  0  0  0  0
 58 75  1  0  0  0  0
 59 82  1  0  0  0  0
 60 63  1  0  0  0  0
 60 83  1  0  0  0  0
 61 64  1  0  0  0  0
 61 74  1  0  0  0  0
 62 75  1  0  0  0  0
 63 72  1  0  0  0  0
 65 66  1  0  0  0  0
M  CHG  1  75   1
M  ISO  4  38 100  60 101  71 100  83 101
M  END
> <Batch ID>
0015

> <Smiles>
CNC(C)C(=O)NC(C(=O)N1Cc2cc([101O:1][101CH2:1]C(C)Nc3cc(C)c(C)c([100NH:0][100C:0](=O)N4CCCC(n5nc(-c6ccc(Oc7ccc(F)cc7F)cc6)c(C(N)=O)c5N)C4)c3OC)ccc2CC1C(=O)NC1CCCc2ccccc21)C(C)(C)C

> <Shape>
0.241

> <Color>
0.064

> <Negative vol penalty>
0.000

$$$$

  -OEChem-04052315553D

 85 93  0     1  0  0  0  0  0999 V2000
  -19.5746  -15.2898   16.9777 C   0  0  0  0  0  0  0  0  0  0  0  0
  -20.4250  -16.3458   17.2890 C   0  0  0  0  0  0  0  0  0  0  0  0
  -20.2988  -27.8738   23.3920 C   0  0  0  0  0  0  0  0  0  0  0  0
  -21.4200  -25.7973   22.8743 C   0  0  0  0  0  0  0  0  0  0  0  0
  -19.8002  -14.0290   17.5285 C   0  0  0  0  0  0  0  0  0  0  0  0
  -21.5010  -16.1419   18.1522 C   0  0  0  0  0  0  0  0  0  0  0  0
  -27.0024  -18.8184   17.8741 C   0  0  0  0  0  0  0  0  0  0  0  0
  -19.0822  -27.3143   23.0017 C   0  0  0  0  0  0  0  0  0  0  0  0
  -20.2034  -25.2377   22.4840 C   0  0  0  0  0  0  0  0  0  0  0  0
  -27.5528  -19.9039   18.5542 C   0  0  0  0  0  0  0  0  0  0  0  0
  -17.4790  -23.9121   23.9811 C   0  0  0  0  0  0  0  0  0  0  0  0
  -17.1852  -22.6251   24.4315 C   0  0  0  0  0  0  0  0  0  0  0  0
  -28.5705  -18.3907   20.1334 C   0  0  0  0  0  0  0  0  0  0  0  0
  -31.7429  -25.6476   20.5545 C   0  0  0  0  0  0  0  0  0  0  0  0
  -17.0432  -21.8573   22.1451 C   0  0  0  0  0  0  0  0  0  0  0  0
  -21.4677  -27.1154   23.3283 C   0  0  0  0  0  0  0  0  0  0  0  0
  -23.2935  -27.6787   25.0185 C   0  0  0  0  0  0  0  0  0  0  0  0
  -20.8851  -13.8072   18.3913 C   0  0  0  0  0  0  0  0  0  0  0  0
  -27.2232  -17.5093   18.3257 C   0  0  0  0  0  0  0  0  0  0  0  0
  -21.7405  -14.8773   18.7161 C   0  0  0  0  0  0  0  0  0  0  0  0
  -28.0238  -17.2902   19.4559 C   0  0  0  0  0  0  0  0  0  0  0  0
  -31.6929  -26.9355   21.0878 C   0  0  0  0  0  0  0  0  0  0  0  0
  -29.4427  -25.8523   19.8444 C   0  0  0  0  0  0  0  0  0  0  0  0
  -30.6178  -25.1060   19.9327 C   0  0  0  0  0  0  0  0  0  0  0  0
  -29.3926  -27.1402   20.3777 C   0  0  0  0  0  0  0  0  0  0  0  0
  -19.0345  -25.9962   22.5478 C   0  0  0  0  0  0  0  0  0  0  0  0
  -28.3346  -19.6903   19.6857 C   0  0  0  0  0  0  0  0  0  0  0  0
  -17.5549  -24.1717   22.6127 C   0  0  0  0  0  0  0  0  0  0  0  0
  -16.9673  -21.5977   23.5136 C   0  0  0  0  0  0  0  0  0  0  0  0
  -17.3370  -23.1443   21.6947 C   0  0  0  0  0  0  0  0  0  0  0  0
  -30.5178  -27.6818   20.9995 C   0  0  0  0  0  0  0  0  0  0  0  0
  -22.7249  -27.6930   23.7308 C   0  0  0  0  0  0  0  0  0  0  0  0
  -24.4810  -28.3542   24.8770 C   0  0  0  0  0  0  0  0  0  0  0  0
  -22.7930  -27.1060   26.2339 C   0  0  0  0  0  0  0  0  0  0  0  0
  -25.3642  -15.1572   19.3820 C   0  0  0  0  0  0  0  0  0  0  0  0
  -28.1337  -13.4692   19.3289 C   0  0  0  0  0  0  0  0  0  0  0  0
  -31.5451  -13.4959   19.4186 C   0  0  0  0  0  0  0  0  0  0  0  0
  -28.1088  -29.3023   20.2246 C   0  0  0  0  0  0  0  0  0  0  0  0
  -21.0609  -12.4383   18.9995 C   0  0  0  0  0  0  0  0  0  0  0  0
  -26.6444  -16.3476   17.5654 C   0  0  0  0  0  0  0  0  0  0  0  0
  -28.3078  -15.9032   19.9697 C   0  0  0  0  0  0  0  0  0  0  0  0
  -22.4423  -12.2158   19.6099 C   0  0  0  0  0  0  0  0  0  0  0  0
  -26.5494  -31.7818   22.2488 C   0  0  0  0  0  0  0  0  0  0  0  0
  -22.8448  -13.4101   20.4693 C   0  0  0  0  0  0  0  0  0  0  0  0
  -25.4473  -31.0121   22.9803 C   0  0  0  0  0  0  0  0  0  0  0  0
  -26.7326  -31.2852   20.8158 C   0  0  0  0  0  0  0  0  0  0  0  0
  -25.8403  -29.0681   21.4139 C   0  0  0  0  0  0  0  0  0  0  0  0
  -22.9329  -14.6897   19.6289 C   0  0  1  0  0  0  0  0  0  0  0  0
  -26.5102  -15.0862   18.4129 C   0  0  1  0  0  0  0  0  0  0  0  0
  -25.6631  -29.4892   22.8819 C   0  0  2  0  0  0  0  0  0  0  0  0
  -32.8975  -27.5111   21.7528 C   0  0  0  0  0  0  0  0  0  0  0  0
  -28.2350  -25.2700   19.1774 C   0  0  0  0  0  0  0  0  0  0  0  0
  -33.5284  -11.9585   19.3958 C   0  0  0  0  0  0  0  0  0  0  0  0
  -31.5927  -21.7598   20.3057 C   0  0  0  0  0  0  0  0  0  0  0  0
  -27.5998  -12.7411   22.2435 C   0  0  0  0  0  0  0  0  0  0  0  0
  -29.9961  -12.0416   22.4351 C   0  0  0  0  0  0  0  0  0  0  0  0
  -28.4784  -10.8642   20.8435 C   0  0  0  0  0  0  0  0  0  0  0  0
  -31.1084  -23.6015   18.0207 C   0  0  0  0  0  0  0  0  0  0  0  0
  -32.5830  -14.6832   16.9142 C   0  0  0  0  0  0  0  0  0  0  0  0
  -29.1858  -21.9086   19.5827 C   0  0  0  0  0  0  0  0  0  1  0  0
  -29.2488  -13.2133   20.3138 C   0  0  1  0  0  0  0  0  0  0  0  0
  -32.5810  -12.7996   18.5545 C   0  0  2  0  0  0  0  0  0  0  0  0
  -30.3627  -22.6528   20.2099 C   0  0  2  0  0  0  0  0  0  0  0  0
  -28.8240  -12.2414   21.4507 C   0  0  0  0  0  0  0  0  0  0  0  0
  -23.4883  -28.3275   22.8371 N   0  0  0  0  0  0  0  0  0  0  0  0
  -24.5487  -28.7182   23.5644 N   0  0  0  0  0  0  0  0  0  0  0  0
  -27.7143  -14.8004   19.1956 N   0  0  0  0  0  0  0  0  0  0  0  0
  -26.9363  -29.8349   20.8011 N   0  0  0  0  0  0  0  0  0  0  0  0
  -25.4634  -28.6665   25.7487 N   0  0  0  0  0  0  0  0  0  0  0  0
  -21.5564  -26.4470   26.2024 N   0  0  0  0  0  0  0  0  0  0  0  0
  -28.2078  -27.9133   20.2981 N   0  0  0  0  0  0  0  0  0  0  0  0
  -24.1628  -14.7100   18.8664 N   0  0  0  0  0  0  0  0  0  0  0  0
  -30.3890  -12.7526   19.5288 N   0  0  0  0  0  0  0  0  0  0  0  0
  -30.6882  -23.8126   19.4042 N   0  0  3  0  0  0  0  0  0  0  0  0
  -33.3858  -13.8024   17.8011 N   0  3  0  0  0  0  0  0  0  0  0  0
  -23.4160  -27.1907   27.3194 O   0  0  0  0  0  0  0  0  0  0  0  0
  -25.5561  -15.5848   20.5143 O   0  0  0  0  0  0  0  0  0  0  0  0
  -27.6573  -12.5238   18.6958 O   0  0  0  0  0  0  0  0  0  0  0  0
  -31.7433  -14.5880   19.9463 O   0  0  0  0  0  0  0  0  0  0  0  0
  -28.9750  -30.0272   19.7283 O   0  0  0  0  0  0  0  0  0  0  0  0
  -17.8474  -25.4498   22.1671 O   0  0  0  0  0  0  0  0  0  0  0  0
  -28.8726  -20.7481   20.3517 O   0  0  0  0  0  0  0  0  0  1  0  0
  -16.6867  -20.3615   23.9463 F   0  0  0  0  0  0  0  0  0  0  0  0
  -17.4096  -23.3874   20.3789 F   0  0  0  0  0  0  0  0  0  0  0  0
  -30.4721  -28.9195   21.5153 F   0  0  0  0  0  0  0  0  0  0  0  0
  1  2  1  0  0  0  0
  1  5  2  0  0  0  0
  2  6  2  0  0  0  0
  3  8  2  0  0  0  0
  3 16  1  0  0  0  0
  4  9  1  0  0  0  0
  4 16  2  0  0  0  0
  5 18  1  0  0  0  0
  6 20  1  0  0  0  0
  7 10  2  0  0  0  0
  7 19  1  0  0  0  0
  8 26  1  0  0  0  0
  9 26  2  0  0  0  0
 10 27  1  0  0  0  0
 11 12  2  0  0  0  0
 11 28  1  0  0  0  0
 12 29  1  0  0  0  0
 13 21  1  0  0  0  0
 13 27  2  0  0  0  0
 14 22  2  0  0  0  0
 14 24  1  0  0  0  0
 15 29  2  0  0  0  0
 15 30  1  0  0  0  0
 16 32  1  0  0  0  0
 17 32  1  0  0  0  0
 17 33  2  0  0  0  0
 17 34  1  0  0  0  0
 18 20  2  0  0  0  0
 18 39  1  0  0  0  0
 19 21  2  0  0  0  0
 19 40  1  0  0  0  0
 20 48  1  0  0  0  0
 21 41  1  0  0  0  0
 22 31  1  0  0  0  0
 22 51  1  0  0  0  0
 23 24  2  0  0  0  0
 23 25  1  0  0  0  0
 23 52  1  0  0  0  0
 24 74  1  0  0  0  0
 25 31  2  0  0  0  0
 25 71  1  0  0  0  0
 26 81  1  0  0  0  0
 27 82  1  0  0  0  0
 28 30  2  0  0  0  0
 28 81  1  0  0  0  0
 29 83  1  0  0  0  0
 30 84  1  0  0  0  0
 31 85  1  0  0  0  0
 32 65  2  0  0  0  0
 33 66  1  0  0  0  0
 33 69  1  0  0  0  0
 34 70  1  0  0  0  0
 34 76  2  0  0  0  0
 35 49  1  0  0  0  0
 35 72  1  0  0  0  0
 35 77  2  0  0  0  0
 36 61  1  0  0  0  0
 36 67  1  0  0  0  0
 36 78  2  0  0  0  0
 37 62  1  0  0  0  0
 37 73  1  0  0  0  0
 37 79  2  0  0  0  0
 38 68  1  0  0  0  0
 38 71  1  0  0  0  0
 38 80  2  0  0  0  0
 39 42  1  0  0  0  0
 40 49  1  0  0  0  0
 41 67  1  0  0  0  0
 42 44  1  0  0  0  0
 43 45  1  0  0  0  0
 43 46  1  0  0  0  0
 44 48  1  0  0  0  0
 45 50  1  0  0  0  0
 46 68  1  0  0  0  0
 47 50  1  0  0  0  0
 47 68  1  0  0  0  0
 48 72  1  0  0  0  0
 49 67  1  0  0  0  0
 50 66  1  0  0  0  0
 53 62  1  0  0  0  0
 54 63  1  0  0  0  0
 55 64  1  0  0  0  0
 56 64  1  0  0  0  0
 57 64  1  0  0  0  0
 58 74  1  0  0  0  0
 59 75  1  0  0  0  0
 60 63  1  0  0  0  0
 60 82  1  0  0  0  0
 61 64  1  0  0  0  0
 61 73  1  0  0  0  0
 62 75  1  0  0  0  0
 63 74  1  0  0  0  0
 65 66  1  0  0  0  0
M  CHG  1  75   1
M  ISO  4  38 100  60 101  71 100  82 101
M  END
> <Batch ID>
0015

> <Smiles>
CNC(C)C(=O)NC(C(=O)N1Cc2cc([101O:1][101CH2:1]C(C)N(C)c3cc(C)c(F)c([100NH:0][100C:0](=O)N4CCCC(n5nc(-c6ccc(Oc7ccc(F)cc7F)cc6)c(C(N)=O)c5N)C4)c3C)ccc2CC1C(=O)NC1CCCc2ccccc21)C(C)(C)C

> <Shape>
0.249

> <Color>
0.064

> <Negative vol penalty>
0.000

$$$$

  -OEChem-04052315553D

 83 91  0     1  0  0  0  0  0999 V2000
  -17.7997  -25.8462   22.9731 C   0  0  0  0  0  0  0  0  0  0  0  0
  -19.0111  -25.5904   22.3387 C   0  0  0  0  0  0  0  0  0  0  0  0
  -25.6546  -14.4813   20.4772 C   0  0  0  0  0  0  0  0  0  0  0  0
  -25.1025  -15.8105   18.5367 C   0  0  0  0  0  0  0  0  0  0  0  0
  -17.3548  -27.1593   23.1203 C   0  0  0  0  0  0  0  0  0  0  0  0
  -19.7779  -26.6476   21.8501 C   0  0  0  0  0  0  0  0  0  0  0  0
  -25.8900  -26.9954   21.6876 C   0  0  0  0  0  0  0  0  0  0  0  0
  -24.5700  -13.6450   20.2130 C   0  0  0  0  0  0  0  0  0  0  0  0
  -24.0179  -14.9742   18.2724 C   0  0  0  0  0  0  0  0  0  0  0  0
  -26.8162  -26.7606   20.6723 C   0  0  0  0  0  0  0  0  0  0  0  0
  -21.2186  -13.7003   20.6482 C   0  0  0  0  0  0  0  0  0  0  0  0
  -20.4025  -13.3402   21.7205 C   0  0  0  0  0  0  0  0  0  0  0  0
  -26.8501  -29.1189   20.1660 C   0  0  0  0  0  0  0  0  0  0  0  0
  -32.1803  -24.0570   17.3915 C   0  0  0  0  0  0  0  0  0  0  0  0
  -30.6070  -24.8456   19.5562 C   0  0  0  0  0  0  0  0  0  0  0  0
  -20.9151  -11.0119   21.3287 C   0  0  0  0  0  0  0  0  0  0  0  0
  -25.9208  -15.5641   19.6392 C   0  0  0  0  0  0  0  0  0  0  0  0
  -28.3592  -16.2867   19.4394 C   0  0  0  0  0  0  0  0  0  0  0  0
  -18.1211  -28.2338   22.6418 C   0  0  0  0  0  0  0  0  0  0  0  0
  -25.4279  -28.2945   21.9429 C   0  0  0  0  0  0  0  0  0  0  0  0
  -19.3422  -27.9763   21.9899 C   0  0  0  0  0  0  0  0  0  0  0  0
  -25.9199  -29.3679   21.1868 C   0  0  0  0  0  0  0  0  0  0  0  0
  -31.5821  -23.0954   18.2058 C   0  0  0  0  0  0  0  0  0  0  0  0
  -31.9920  -25.4129   17.6596 C   0  0  0  0  0  0  0  0  0  0  0  0
  -30.7954  -23.4897   19.2881 C   0  0  0  0  0  0  0  0  0  0  0  0
  -31.2053  -25.8071   18.7419 C   0  0  0  0  0  0  0  0  0  0  0  0
  -23.7516  -13.8914   19.1106 C   0  0  0  0  0  0  0  0  0  0  0  0
  -27.2942  -27.8220   19.9094 C   0  0  0  0  0  0  0  0  0  0  0  0
  -21.8829  -12.7162   19.9161 C   0  0  0  0  0  0  0  0  0  0  0  0
  -20.2507  -11.9960   22.0608 C   0  0  0  0  0  0  0  0  0  0  0  0
  -21.7312  -11.3721   20.2564 C   0  0  0  0  0  0  0  0  0  0  0  0
  -27.0407  -16.4287   19.9119 C   0  0  0  0  0  0  0  0  0  0  0  0
  -29.0339  -17.3549   19.9781 C   0  0  0  0  0  0  0  0  0  0  0  0
  -28.9235  -15.2794   18.5894 C   0  0  0  0  0  0  0  0  0  0  0  0
  -22.5924  -29.7274   21.8399 C   0  0  0  0  0  0  0  0  0  0  0  0
  -24.2403  -32.2181   23.1061 C   0  0  0  0  0  0  0  0  0  0  0  0
  -27.2411  -33.7838   23.5431 C   0  0  0  0  0  0  0  0  0  0  0  0
  -29.3736  -22.7678   21.2384 C   0  0  0  0  0  0  0  0  0  0  0  0
  -17.5764  -29.6331   22.7821 C   0  0  0  0  0  0  0  0  0  0  0  0
  -24.4489  -28.5347   23.0593 C   0  0  0  0  0  0  0  0  0  0  0  0
  -25.4708  -30.7840   21.4343 C   0  0  0  0  0  0  0  0  0  0  0  0
  -18.6270  -30.7199   22.5693 C   0  0  0  0  0  0  0  0  0  0  0  0
  -27.6436  -20.6725   23.5393 C   0  0  0  0  0  0  0  0  0  0  0  0
  -19.4569  -30.4237   21.3242 C   0  0  0  0  0  0  0  0  0  0  0  0
  -27.4410  -19.3700   22.7619 C   0  0  0  0  0  0  0  0  0  0  0  0
  -27.5126  -21.8980   22.6367 C   0  0  0  0  0  0  0  0  0  0  0  0
  -28.1572  -20.5766   20.6599 C   0  0  0  0  0  0  0  0  0  0  0  0
  -20.2140  -29.0980   21.4685 C   0  0  1  0  0  0  0  0  0  0  0  0
  -23.6591  -29.8293   22.8932 C   0  0  1  0  0  0  0  0  0  0  0  0
  -28.3441  -19.3121   21.5142 C   0  0  2  0  0  0  0  0  0  0  0  0
  -31.8012  -21.6504   17.8947 C   0  0  0  0  0  0  0  0  0  0  0  0
  -32.6447  -26.4223   16.7721 C   0  0  0  0  0  0  0  0  0  0  0  0
  -28.2659  -35.8208   24.5907 C   0  0  0  0  0  0  0  0  0  0  0  0
  -23.1502  -33.9337   20.8305 C   0  0  0  0  0  0  0  0  0  0  0  0
  -24.9095  -35.6338   21.3625 C   0  0  0  0  0  0  0  0  0  0  0  0
  -23.1783  -35.0586   23.0640 C   0  0  0  0  0  0  0  0  0  0  0  0
  -31.4270  -27.7130   20.3162 C   0  0  0  0  0  0  0  0  0  0  0  0
  -28.9493  -32.1506   25.3246 C   0  0  0  0  0  0  0  0  0  0  0  0
  -30.4000  -28.0545   18.0630 C   0  0  0  0  0  0  0  0  0  0  0  0
  -29.1180  -28.6462   18.6247 C   0  0  0  0  0  0  0  0  0  1  0  0
  -25.0054  -33.3909   22.5421 C   0  0  1  0  0  0  0  0  0  0  0  0
  -27.9082  -34.3551   24.7813 C   0  0  2  0  0  0  0  0  0  0  0  0
  -24.0681  -34.4774   21.9436 C   0  0  0  0  0  0  0  0  0  0  0  0
  -26.8850  -17.5024   20.6911 N   0  0  0  0  0  0  0  0  0  0  0  0
  -28.1145  -18.0447   20.7123 N   0  0  0  0  0  0  0  0  0  0  0  0
  -24.5078  -30.9668   22.5328 N   0  0  0  0  0  0  0  0  0  0  0  0
  -28.4001  -21.7750   21.4782 N   0  0  0  0  0  0  0  0  0  0  0  0
  -30.3181  -17.7620   19.8907 N   0  0  0  0  0  0  0  0  0  0  0  0
  -28.0895  -14.2533   18.1247 N   0  0  0  0  0  0  0  0  0  0  0  0
  -30.1807  -22.5273   20.1270 N   0  0  0  0  0  0  0  0  0  0  0  0
  -21.3772  -29.2695   22.3123 N   0  0  0  0  0  0  0  0  0  0  0  0
  -25.8670  -33.8712   23.6170 N   0  0  0  0  0  0  0  0  0  0  0  0
  -31.0062  -27.1646   19.0266 N   0  0  3  0  0  0  0  0  0  0  0  0
  -29.1570  -33.6029   25.0905 N   0  3  0  0  0  0  0  0  0  0  0  0
  -30.1353  -15.2798   18.2653 O   0  0  0  0  0  0  0  0  0  0  0  0
  -22.8522  -30.0423   20.6845 O   0  0  0  0  0  0  0  0  0  0  0  0
  -23.4402  -32.4042   24.0263 O   0  0  0  0  0  0  0  0  0  0  0  0
  -27.8755  -33.3109   22.6027 O   0  0  0  0  0  0  0  0  0  0  0  0
  -29.5010  -23.7446   21.9811 O   0  0  0  0  0  0  0  0  0  0  0  0
  -22.6934  -13.0754   18.8522 O   0  0  0  0  0  0  0  0  0  0  0  0
  -28.1978  -27.5955   18.9174 O   0  0  0  0  0  0  0  0  0  1  0  0
  -19.4682  -11.6504   23.0916 F   0  0  0  0  0  0  0  0  0  0  0  0
  -22.3678  -10.4223   19.5574 F   0  0  0  0  0  0  0  0  0  0  0  0
  1  2  1  0  0  0  0
  1  5  2  0  0  0  0
  2  6  2  0  0  0  0
  3  8  2  0  0  0  0
  3 17  1  0  0  0  0
  4  9  1  0  0  0  0
  4 17  2  0  0  0  0
  5 19  1  0  0  0  0
  6 21  1  0  0  0  0
  7 10  2  0  0  0  0
  7 20  1  0  0  0  0
  8 27  1  0  0  0  0
  9 27  2  0  0  0  0
 10 28  1  0  0  0  0
 11 12  2  0  0  0  0
 11 29  1  0  0  0  0
 12 30  1  0  0  0  0
 13 22  1  0  0  0  0
 13 28  2  0  0  0  0
 14 23  2  0  0  0  0
 14 24  1  0  0  0  0
 15 25  2  0  0  0  0
 15 26  1  0  0  0  0
 16 30  2  0  0  0  0
 16 31  1  0  0  0  0
 17 32  1  0  0  0  0
 18 32  1  0  0  0  0
 18 33  2  0  0  0  0
 18 34  1  0  0  0  0
 19 21  2  0  0  0  0
 19 39  1  0  0  0  0
 20 22  2  0  0  0  0
 20 40  1  0  0  0  0
 21 48  1  0  0  0  0
 22 41  1  0  0  0  0
 23 25  1  0  0  0  0
 23 51  1  0  0  0  0
 24 26  2  0  0  0  0
 24 52  1  0  0  0  0
 25 70  1  0  0  0  0
 26 73  1  0  0  0  0
 27 80  1  0  0  0  0
 28 81  1  0  0  0  0
 29 31  2  0  0  0  0
 29 80  1  0  0  0  0
 30 82  1  0  0  0  0
 31 83  1  0  0  0  0
 32 64  2  0  0  0  0
 33 65  1  0  0  0  0
 33 68  1  0  0  0  0
 34 69  1  0  0  0  0
 34 75  2  0  0  0  0
 35 49  1  0  0  0  0
 35 71  1  0  0  0  0
 35 76  2  0  0  0  0
 36 61  1  0  0  0  0
 36 66  1  0  0  0  0
 36 77  2  0  0  0  0
 37 62  1  0  0  0  0
 37 72  1  0  0  0  0
 37 78  2  0  0  0  0
 38 67  1  0  0  0  0
 38 70  1  0  0  0  0
 38 79  2  0  0  0  0
 39 42  1  0  0  0  0
 40 49  1  0  0  0  0
 41 66  1  0  0  0  0
 42 44  1  0  0  0  0
 43 45  1  0  0  0  0
 43 46  1  0  0  0  0
 44 48  1  0  0  0  0
 45 50  1  0  0  0  0
 46 67  1  0  0  0  0
 47 50  1  0  0  0  0
 47 67  1  0  0  0  0
 48 71  1  0  0  0  0
 49 66  1  0  0  0  0
 50 65  1  0  0  0  0
 53 62  1  0  0  0  0
 54 63  1  0  0  0  0
 55 63  1  0  0  0  0
 56 63  1  0  0  0  0
 57 73  1  0  0  0  0
 58 74  1  0  0  0  0
 59 60  1  0  0  0  0
 59 73  1  0  0  0  0
 60 81  1  0  0  0  0
 61 63  1  0  0  0  0
 61 72  1  0  0  0  0
 62 74  1  0  0  0  0
 64 65  1  0  0  0  0
M  CHG  1  74   1
M  ISO  4  38 100  60 101  70 100  81 101
M  END
> <Batch ID>
0015

> <Smiles>
CNC(C)C(=O)NC(C(=O)N1Cc2cc([101O:1][101CH2:1]CN(C)c3cc([100NH:0][100C:0](=O)N4CCCC(n5nc(-c6ccc(Oc7ccc(F)cc7F)cc6)c(C(N)=O)c5N)C4)c(C)cc3C)ccc2CC1C(=O)NC1CCCc2ccccc21)C(C)(C)C

> <Shape>
0.296

> <Color>
0.095

> <Negative vol penalty>
0.000

$$$$

  -OEChem-04052315553D

 83 91  0     1  0  0  0  0  0999 V2000
  -36.6774  -11.4827   20.9709 C   0  0  0  0  0  0  0  0  0  0  0  0
  -36.0903  -12.7439   20.9737 C   0  0  0  0  0  0  0  0  0  0  0  0
  -23.0738   -9.8691   19.9412 C   0  0  0  0  0  0  0  0  0  0  0  0
  -23.8314   -9.8772   22.2353 C   0  0  0  0  0  0  0  0  0  0  0  0
  -37.6483  -11.1649   21.9198 C   0  0  0  0  0  0  0  0  0  0  0  0
  -36.4730  -13.6878   21.9261 C   0  0  0  0  0  0  0  0  0  0  0  0
  -37.2081  -18.2806   19.9235 C   0  0  0  0  0  0  0  0  0  0  0  0
  -31.2066  -18.3957   23.7530 C   0  0  0  0  0  0  0  0  0  0  0  0
  -31.5771  -19.3797   22.8365 C   0  0  0  0  0  0  0  0  0  0  0  0
  -22.3290   -8.7165   20.1912 C   0  0  0  0  0  0  0  0  0  0  0  0
  -23.0866   -8.7246   22.4854 C   0  0  0  0  0  0  0  0  0  0  0  0
  -36.0741  -19.0395   19.6376 C   0  0  0  0  0  0  0  0  0  0  0  0
  -19.9421   -5.9776   20.3191 C   0  0  0  0  0  0  0  0  0  0  0  0
  -18.6369   -5.9301   19.8296 C   0  0  0  0  0  0  0  0  0  0  0  0
  -36.3995  -20.2836   21.6786 C   0  0  0  0  0  0  0  0  0  0  0  0
  -18.0715   -7.8742   21.1479 C   0  0  0  0  0  0  0  0  0  0  0  0
  -23.8250  -10.4494   20.9632 C   0  0  0  0  0  0  0  0  0  0  0  0
  -24.1685  -12.9742   20.8418 C   0  0  0  0  0  0  0  0  0  0  0  0
  -38.0500  -12.1086   22.8783 C   0  0  0  0  0  0  0  0  0  0  0  0
  -37.9414  -18.5106   21.0965 C   0  0  0  0  0  0  0  0  0  0  0  0
  -37.4492  -13.3819   22.8895 C   0  0  0  0  0  0  0  0  0  0  0  0
  -37.5440  -19.5280   21.9758 C   0  0  0  0  0  0  0  0  0  0  0  0
  -30.7107  -17.1728   23.3009 C   0  0  0  0  0  0  0  0  0  0  0  0
  -30.9558  -17.9181   21.0159 C   0  0  0  0  0  0  0  0  0  0  0  0
  -31.4517  -19.1410   21.4680 C   0  0  0  0  0  0  0  0  0  0  0  0
  -30.5853  -16.9340   21.9324 C   0  0  0  0  0  0  0  0  0  0  0  0
  -22.3354   -8.1443   21.4633 C   0  0  0  0  0  0  0  0  0  0  0  0
  -35.6679  -20.0393   20.5166 C   0  0  0  0  0  0  0  0  0  0  0  0
  -20.3121   -6.9734   21.2232 C   0  0  0  0  0  0  0  0  0  0  0  0
  -17.7016   -6.8783   20.2439 C   0  0  0  0  0  0  0  0  0  0  0  0
  -19.3768   -7.9217   21.6375 C   0  0  0  0  0  0  0  0  0  0  0  0
  -24.5951  -11.6396   20.7054 C   0  0  0  0  0  0  0  0  0  0  0  0
  -25.2614  -13.7228   20.4791 C   0  0  0  0  0  0  0  0  0  0  0  0
  -22.8979  -13.4911   21.2592 C   0  0  0  0  0  0  0  0  0  0  0  0
  -38.6588  -16.7854   23.6679 C   0  0  0  0  0  0  0  0  0  0  0  0
  -40.4978  -19.3555   24.3993 C   0  0  0  0  0  0  0  0  0  0  0  0
  -41.0927  -22.6945   24.0197 C   0  0  0  0  0  0  0  0  0  0  0  0
  -30.7280  -14.7654   20.6585 C   0  0  0  0  0  0  0  0  0  0  0  0
  -39.0692  -11.7031   23.9134 C   0  0  0  0  0  0  0  0  0  0  0  0
  -39.1777  -17.7012   21.3771 C   0  0  0  0  0  0  0  0  0  0  0  0
  -38.3082  -19.8282   23.2384 C   0  0  0  0  0  0  0  0  0  0  0  0
  -39.6884  -12.8855   24.6543 C   0  0  0  0  0  0  0  0  0  0  0  0
  -29.6145  -12.3506   18.2907 C   0  0  0  0  0  0  0  0  0  0  0  0
  -38.6054  -13.8639   25.0978 C   0  0  0  0  0  0  0  0  0  0  0  0
  -28.1743  -12.0601   18.7191 C   0  0  0  0  0  0  0  0  0  0  0  0
  -30.5286  -12.5797   19.4931 C   0  0  0  0  0  0  0  0  0  0  0  0
  -28.6207  -13.3062   20.8720 C   0  0  0  0  0  0  0  0  0  0  0  0
  -37.8556  -14.4410   23.8911 C   0  0  1  0  0  0  0  0  0  0  0  0
  -39.5538  -17.6778   22.8554 C   0  0  1  0  0  0  0  0  0  0  0  0
  -27.6489  -13.1327   19.6934 C   0  0  2  0  0  0  0  0  0  0  0  0
  -30.3222  -16.1385   24.3072 C   0  0  0  0  0  0  0  0  0  0  0  0
  -30.8210  -17.6652   19.5458 C   0  0  0  0  0  0  0  0  0  0  0  0
  -42.6451  -24.5168   24.7723 C   0  0  0  0  0  0  0  0  0  0  0  0
  -32.1534  -22.4087   19.8396 C   0  0  0  0  0  0  0  0  0  0  0  0
  -39.0827  -19.4418   27.1012 C   0  0  0  0  0  0  0  0  0  0  0  0
  -39.9548  -21.7688   27.4053 C   0  0  0  0  0  0  0  0  0  0  0  0
  -41.5466  -19.8591   27.2002 C   0  0  0  0  0  0  0  0  0  0  0  0
  -42.0035  -23.2202   21.2533 C   0  0  0  0  0  0  0  0  0  0  0  0
  -33.8197  -21.2808   21.3526 C   0  0  0  0  0  0  0  0  0  1  0  0
  -40.2821  -20.6437   25.1563 C   0  0  1  0  0  0  0  0  0  0  0  0
  -42.3658  -23.4623   23.7127 C   0  0  2  0  0  0  0  0  0  0  0  0
  -32.3448  -21.4194   20.9816 C   0  0  2  0  0  0  0  0  0  0  0  0
  -40.2008  -20.4217   26.6930 C   0  0  0  0  0  0  0  0  0  0  0  0
  -25.8603  -11.5428   20.2885 N   0  0  0  0  0  0  0  0  0  0  0  0
  -26.2381  -12.8260   20.1596 N   0  0  0  0  0  0  0  0  0  0  0  0
  -39.5065  -19.0053   23.4717 N   0  0  0  0  0  0  0  0  0  0  0  0
  -29.9694  -13.6114   20.3693 N   0  0  0  0  0  0  0  0  0  0  0  0
  -25.4727  -15.0541   20.4054 N   0  0  0  0  0  0  0  0  0  0  0  0
  -21.8851  -12.5827   21.5961 N   0  0  0  0  0  0  0  0  0  0  0  0
  -30.0804  -15.6913   21.4756 N   0  0  0  0  0  0  0  0  0  0  0  0
  -31.8234  -20.1296   20.5756 N   0  0  0  0  0  0  0  0  0  0  0  0
  -38.6466  -15.4687   23.2488 N   0  0  0  0  0  0  0  0  0  0  0  0
  -41.3496  -21.5462   24.7386 N   0  0  0  0  0  0  0  0  0  0  0  0
  -42.2549  -24.1418   22.3910 N   0  3  0  0  0  0  0  0  0  0  0  0
  -22.6623  -14.7219   21.3154 O   0  0  0  0  0  0  0  0  0  0  0  0
  -38.0273  -17.2561   24.6067 O   0  0  0  0  0  0  0  0  0  0  0  0
  -41.5121  -18.6883   24.6178 O   0  0  0  0  0  0  0  0  0  0  0  0
  -39.9812  -23.0771   23.6611 O   0  0  0  0  0  0  0  0  0  0  0  0
  -31.8577  -14.9331   20.1918 O   0  0  0  0  0  0  0  0  0  0  0  0
  -21.6085   -7.0198   21.7077 O   0  0  0  0  0  0  0  0  0  0  0  0
  -34.5610  -20.7811   20.2403 O   0  0  0  0  0  0  0  0  0  1  0  0
  -16.4486   -6.8334   19.7725 F   0  0  0  0  0  0  0  0  0  0  0  0
  -19.7267   -8.8814   22.5049 F   0  0  0  0  0  0  0  0  0  0  0  0
  1  2  1  0  0  0  0
  1  5  2  0  0  0  0
  2  6  2  0  0  0  0
  3 10  2  0  0  0  0
  3 17  1  0  0  0  0
  4 11  1  0  0  0  0
  4 17  2  0  0  0  0
  5 19  1  0  0  0  0
  6 21  1  0  0  0  0
  7 12  2  0  0  0  0
  7 20  1  0  0  0  0
  8  9  2  0  0  0  0
  8 23  1  0  0  0  0
  9 25  1  0  0  0  0
 10 27  1  0  0  0  0
 11 27  2  0  0  0  0
 12 28  1  0  0  0  0
 13 14  2  0  0  0  0
 13 29  1  0  0  0  0
 14 30  1  0  0  0  0
 15 22  1  0  0  0  0
 15 28  2  0  0  0  0
 16 30  2  0  0  0  0
 16 31  1  0  0  0  0
 17 32  1  0  0  0  0
 18 32  1  0  0  0  0
 18 33  2  0  0  0  0
 18 34  1  0  0  0  0
 19 21  2  0  0  0  0
 19 39  1  0  0  0  0
 20 22  2  0  0  0  0
 20 40  1  0  0  0  0
 21 48  1  0  0  0  0
 22 41  1  0  0  0  0
 23 26  2  0  0  0  0
 23 51  1  0  0  0  0
 24 25  2  0  0  0  0
 24 26  1  0  0  0  0
 24 52  1  0  0  0  0
 25 71  1  0  0  0  0
 26 70  1  0  0  0  0
 27 80  1  0  0  0  0
 28 81  1  0  0  0  0
 29 31  2  0  0  0  0
 29 80  1  0  0  0  0
 30 82  1  0  0  0  0
 31 83  1  0  0  0  0
 32 64  2  0  0  0  0
 33 65  1  0  0  0  0
 33 68  1  0  0  0  0
 34 69  1  0  0  0  0
 34 75  2  0  0  0  0
 35 49  1  0  0  0  0
 35 72  1  0  0  0  0
 35 76  2  0  0  0  0
 36 60  1  0  0  0  0
 36 66  1  0  0  0  0
 36 77  2  0  0  0  0
 37 61  1  0  0  0  0
 37 73  1  0  0  0  0
 37 78  2  0  0  0  0
 38 67  1  0  0  0  0
 38 70  1  0  0  0  0
 38 79  2  0  0  0  0
 39 42  1  0  0  0  0
 40 49  1  0  0  0  0
 41 66  1  0  0  0  0
 42 44  1  0  0  0  0
 43 45  1  0  0  0  0
 43 46  1  0  0  0  0
 44 48  1  0  0  0  0
 45 50  1  0  0  0  0
 46 67  1  0  0  0  0
 47 50  1  0  0  0  0
 47 67  1  0  0  0  0
 48 72  1  0  0  0  0
 49 66  1  0  0  0  0
 50 65  1  0  0  0  0
 53 61  1  0  0  0  0
 54 62  1  0  0  0  0
 55 63  1  0  0  0  0
 56 63  1  0  0  0  0
 57 63  1  0  0  0  0
 58 74  1  0  0  0  0
 59 62  1  0  0  0  0
 59 81  1  0  0  0  0
 60 63  1  0  0  0  0
 60 73  1  0  0  0  0
 61 74  1  0  0  0  0
 62 71  1  0  0  0  0
 64 65  1  0  0  0  0
M  CHG  1  74   1
M  ISO  4  38 100  59 101  70 100  81 101
M  END
> <Batch ID>
0015

> <Smiles>
CNC(C)C(=O)NC(C(=O)N1Cc2cc([101O:1][101CH2:1]C(C)Nc3ccc(C)c([100NH:0][100C:0](=O)N4CCCC(n5nc(-c6ccc(Oc7ccc(F)cc7F)cc6)c(C(N)=O)c5N)C4)c3C)ccc2CC1C(=O)NC1CCCc2ccccc21)C(C)(C)C

> <Shape>
0.158

> <Color>
0.196

> <Negative vol penalty>
0.000

$$$$

  -OEChem-04052315553D

 86 94  0     1  0  0  0  0  0999 V2000
  -33.1654  -25.8608   20.9107 C   0  0  0  0  0  0  0  0  0  0  0  0
  -31.8988  -25.3577   20.6313 C   0  0  0  0  0  0  0  0  0  0  0  0
  -22.9690  -10.4376   21.5773 C   0  0  0  0  0  0  0  0  0  0  0  0
  -24.7059   -8.7590   21.6308 C   0  0  0  0  0  0  0  0  0  0  0  0
  -33.3110  -26.9251   21.7994 C   0  0  0  0  0  0  0  0  0  0  0  0
  -30.7771  -25.9180   21.2414 C   0  0  0  0  0  0  0  0  0  0  0  0
  -26.9680  -26.6681   17.9897 C   0  0  0  0  0  0  0  0  0  0  0  0
  -22.0008   -9.4344   21.5341 C   0  0  0  0  0  0  0  0  0  0  0  0
  -23.7377   -7.7558   21.5877 C   0  0  0  0  0  0  0  0  0  0  0  0
  -26.2083  -25.5554   17.6313 C   0  0  0  0  0  0  0  0  0  0  0  0
  -21.6056   -6.2598   23.7410 C   0  0  0  0  0  0  0  0  0  0  0  0
  -21.7519   -5.1821   24.6143 C   0  0  0  0  0  0  0  0  0  0  0  0
  -24.5052  -26.2187   19.2056 C   0  0  0  0  0  0  0  0  0  0  0  0
  -29.0200  -19.5825   20.3556 C   0  0  0  0  0  0  0  0  0  0  0  0
  -21.8575   -3.6712   22.7320 C   0  0  0  0  0  0  0  0  0  0  0  0
  -24.3216  -10.0999   21.6256 C   0  0  0  0  0  0  0  0  0  0  0  0
  -25.8707  -11.7396   22.8170 C   0  0  0  0  0  0  0  0  0  0  0  0
  -32.1896  -27.5051   22.4133 C   0  0  0  0  0  0  0  0  0  0  0  0
  -26.5062  -27.5601   18.9682 C   0  0  0  0  0  0  0  0  0  0  0  0
  -30.9079  -26.9903   22.1402 C   0  0  0  0  0  0  0  0  0  0  0  0
  -25.2597  -27.3434   19.5728 C   0  0  0  0  0  0  0  0  0  0  0  0
  -28.8685  -20.9478   20.5978 C   0  0  0  0  0  0  0  0  0  0  0  0
  -26.6385  -19.3807   20.0023 C   0  0  0  0  0  0  0  0  0  0  0  0
  -26.4869  -20.7460   20.2445 C   0  0  0  0  0  0  0  0  0  0  0  0
  -27.9051  -18.7990   20.0578 C   0  0  0  0  0  0  0  0  0  0  0  0
  -22.3852   -8.0935   21.5393 C   0  0  0  0  0  0  0  0  0  0  0  0
  -24.9780  -25.3290   18.2414 C   0  0  0  0  0  0  0  0  0  0  0  0
  -21.5852   -6.0433   22.3631 C   0  0  0  0  0  0  0  0  0  0  0  0
  -21.8779   -3.8878   24.1098 C   0  0  0  0  0  0  0  0  0  0  0  0
  -21.7112   -4.7489   21.8587 C   0  0  0  0  0  0  0  0  0  0  0  0
  -27.6019  -21.5295   20.5423 C   0  0  0  0  0  0  0  0  0  0  0  0
  -25.3222  -11.1357   21.6697 C   0  0  0  0  0  0  0  0  0  0  0  0
  -26.7707  -12.6540   22.3267 C   0  0  0  0  0  0  0  0  0  0  0  0
  -25.5917  -11.4957   24.2020 C   0  0  0  0  0  0  0  0  0  0  0  0
  -27.5496  -28.4976   21.8206 C   0  0  0  0  0  0  0  0  0  0  0  0
  -25.0628  -30.5705   21.6162 C   0  0  0  0  0  0  0  0  0  0  0  0
  -22.0147  -31.3153   20.2742 C   0  0  0  0  0  0  0  0  0  0  0  0
  -27.7180  -16.8065   18.5779 C   0  0  0  0  0  0  0  0  0  0  0  0
  -32.4011  -28.6232   23.4032 C   0  0  0  0  0  0  0  0  0  0  0  0
  -27.3255  -28.7702   19.3243 C   0  0  0  0  0  0  0  0  0  0  0  0
  -24.7097  -28.2821   20.6143 C   0  0  0  0  0  0  0  0  0  0  0  0
  -31.1287  -29.4047   23.7202 C   0  0  0  0  0  0  0  0  0  0  0  0
  -28.5864  -13.3390   17.6654 C   0  0  0  0  0  0  0  0  0  0  0  0
  -29.9702  -28.4507   23.9932 C   0  0  0  0  0  0  0  0  0  0  0  0
  -27.8029  -12.5126   18.6838 C   0  0  0  0  0  0  0  0  0  0  0  0
  -27.8909  -14.6605   17.3525 C   0  0  0  0  0  0  0  0  0  0  0  0
  -26.8086  -14.6561   19.5793 C   0  0  0  0  0  0  0  0  0  0  0  0
  -29.6648  -27.5875   22.7631 C   0  0  1  0  0  0  0  0  0  0  0  0
  -26.9924  -29.3328   20.7027 C   0  0  1  0  0  0  0  0  0  0  0  0
  -27.5056  -13.3377   19.9478 C   0  0  1  0  0  0  0  0  0  0  0  0
  -30.0626  -21.7827   20.9162 C   0  0  0  0  0  0  0  0  0  0  0  0
  -25.4400  -18.5421   19.6848 C   0  0  0  0  0  0  0  0  0  0  0  0
  -20.2130  -33.0613   20.3259 C   0  0  0  0  0  0  0  0  0  0  0  0
  -22.6731  -21.8051   17.3717 C   0  0  0  0  0  0  0  0  0  0  0  0
  -24.1319  -29.5260   24.3277 C   0  0  0  0  0  0  0  0  0  0  0  0
  -21.9003  -30.5716   23.8863 C   0  0  0  0  0  0  0  0  0  0  0  0
  -23.9376  -32.0028   24.0412 C   0  0  0  0  0  0  0  0  0  0  0  0
  -28.8796  -16.6063   20.7642 C   0  0  0  0  0  0  0  0  0  0  0  0
  -22.3277  -31.8900   17.3879 C   0  0  0  0  0  0  0  0  0  0  0  0
  -25.1349  -21.3938   20.1874 C   0  0  0  0  0  0  0  0  0  0  0  0
  -23.3911  -23.6847   18.9002 C   0  0  0  0  0  0  0  0  0  1  0  0
  -23.6059  -30.5345   22.0099 C   0  0  1  0  0  0  0  0  0  0  0  0
  -21.4791  -32.5826   19.6326 C   0  0  2  0  0  0  0  0  0  0  0  0
  -23.2719  -22.1757   18.7188 C   0  0  2  0  0  0  0  0  0  0  0  0
  -23.4049  -30.6398   23.5481 C   0  0  0  0  0  0  0  0  0  0  0  0
  -25.8310  -11.6254   20.5360 N   0  0  0  0  0  0  0  0  0  0  0  0
  -26.7087  -12.5467   20.9685 N   0  0  0  0  0  0  0  0  0  0  0  0
  -25.5508  -29.4476   20.9330 N   0  0  0  0  0  0  0  0  0  0  0  0
  -27.5789  -15.4040   18.5737 N   0  0  0  0  0  0  0  0  0  0  0  0
  -27.6010  -13.5314   22.9293 N   0  0  0  0  0  0  0  0  0  0  0  0
  -24.6390  -10.5214   24.5302 N   0  0  0  0  0  0  0  0  0  0  0  0
  -28.9230  -28.3502   21.7821 N   0  0  0  0  0  0  0  0  0  0  0  0
  -22.9509  -31.5922   21.2479 N   0  0  0  0  0  0  0  0  0  0  0  0
  -28.0853  -17.3878   19.8108 N   0  0  0  0  0  0  0  0  0  0  0  0
  -21.1660  -32.3432   18.1954 N   0  3  0  0  0  0  0  0  0  0  0  0
  -24.6369  -21.5799   18.8007 N   0  3  0  0  0  0  0  0  0  0  0  0
  -26.1581  -12.1346   25.1210 O   0  0  0  0  0  0  0  0  0  0  0  0
  -26.7899  -28.0234   22.6570 O   0  0  0  0  0  0  0  0  0  0  0  0
  -25.7411  -31.5616   21.8979 O   0  0  0  0  0  0  0  0  0  0  0  0
  -21.6375  -30.1923   19.9470 O   0  0  0  0  0  0  0  0  0  0  0  0
  -27.5560  -17.4813   17.5541 O   0  0  0  0  0  0  0  0  0  0  0  0
  -21.4407   -7.1144   21.4974 O   0  0  0  0  0  0  0  0  0  0  0  0
  -24.2347  -24.2433   17.8940 O   0  0  0  0  0  0  0  0  0  1  0  0
  -22.0199   -2.8531   24.9485 F   0  0  0  0  0  0  0  0  0  0  0  0
  -21.6935   -4.5348   20.5359 F   0  0  0  0  0  0  0  0  0  0  0  0
  -27.4570  -22.8429   20.7735 F   0  0  0  0  0  0  0  0  0  0  0  0
  1  2  1  0  0  0  0
  1  5  2  0  0  0  0
  2  6  2  0  0  0  0
  3  8  2  0  0  0  0
  3 16  1  0  0  0  0
  4  9  1  0  0  0  0
  4 16  2  0  0  0  0
  5 18  1  0  0  0  0
  6 20  1  0  0  0  0
  7 10  2  0  0  0  0
  7 19  1  0  0  0  0
  8 26  1  0  0  0  0
  9 26  2  0  0  0  0
 10 27  1  0  0  0  0
 11 12  2  0  0  0  0
 11 28  1  0  0  0  0
 12 29  1  0  0  0  0
 13 21  1  0  0  0  0
 13 27  2  0  0  0  0
 14 22  2  0  0  0  0
 14 25  1  0  0  0  0
 15 29  2  0  0  0  0
 15 30  1  0  0  0  0
 16 32  1  0  0  0  0
 17 32  1  0  0  0  0
 17 33  2  0  0  0  0
 17 34  1  0  0  0  0
 18 20  2  0  0  0  0
 18 39  1  0  0  0  0
 19 21  2  0  0  0  0
 19 40  1  0  0  0  0
 20 48  1  0  0  0  0
 21 41  1  0  0  0  0
 22 31  1  0  0  0  0
 22 51  1  0  0  0  0
 23 24  1  0  0  0  0
 23 25  2  0  0  0  0
 23 52  1  0  0  0  0
 24 31  2  0  0  0  0
 24 60  1  0  0  0  0
 25 74  1  0  0  0  0
 26 82  1  0  0  0  0
 27 83  1  0  0  0  0
 28 30  2  0  0  0  0
 28 82  1  0  0  0  0
 29 84  1  0  0  0  0
 30 85  1  0  0  0  0
 31 86  1  0  0  0  0
 32 66  2  0  0  0  0
 33 67  1  0  0  0  0
 33 70  1  0  0  0  0
 34 71  1  0  0  0  0
 34 77  2  0  0  0  0
 35 49  1  0  0  0  0
 35 72  1  0  0  0  0
 35 78  2  0  0  0  0
 36 62  1  0  0  0  0
 36 68  1  0  0  0  0
 36 79  2  0  0  0  0
 37 63  1  0  0  0  0
 37 73  1  0  0  0  0
 37 80  2  0  0  0  0
 38 69  1  0  0  0  0
 38 74  1  0  0  0  0
 38 81  2  0  0  0  0
 39 42  1  0  0  0  0
 40 49  1  0  0  0  0
 41 68  1  0  0  0  0
 42 44  1  0  0  0  0
 43 45  1  0  0  0  0
 43 46  1  0  0  0  0
 44 48  1  0  0  0  0
 45 50  1  0  0  0  0
 46 69  1  0  0  0  0
 47 50  1  0  0  0  0
 47 69  1  0  0  0  0
 48 72  1  0  0  0  0
 49 68  1  0  0  0  0
 50 67  1  0  0  0  0
 53 63  1  0  0  0  0
 54 64  1  0  0  0  0
 55 65  1  0  0  0  0
 56 65  1  0  0  0  0
 57 65  1  0  0  0  0
 58 74  1  0  0  0  0
 59 75  1  0  0  0  0
 60 76  1  0  0  0  0
 61 64  1  0  0  0  0
 61 83  1  0  0  0  0
 62 65  1  0  0  0  0
 62 73  1  0  0  0  0
 63 75  1  0  0  0  0
 64 76  1  0  0  0  0
 66 67  1  0  0  0  0
M  CHG  2  75   1  76   1
M  ISO  4  38 100  61 101  74 100  83 101
M  END
> <Batch ID>
0015

> <Smiles>
CNC(C)C(=O)NC(C(=O)N1Cc2cc([101O:1][101CH2:1]C(C)NCc3c(C)c([100N:0](C)[100C:0](=O)N4CCCC(n5nc(-c6ccc(Oc7ccc(F)cc7F)cc6)c(C(N)=O)c5N)C4)cc(C)c3F)ccc2CC1C(=O)NC1CCCc2ccccc21)C(C)(C)C

> <Shape>
0.264

> <Color>
0.091

> <Negative vol penalty>
0.000

$$$$

  -OEChem-04052315553D

 84 92  0     1  0  0  0  0  0999 V2000
  -17.1295  -26.0957   21.8491 C   0  0  0  0  0  0  0  0  0  0  0  0
  -18.4219  -25.6357   21.6178 C   0  0  0  0  0  0  0  0  0  0  0  0
  -24.8252  -14.3295   20.8801 C   0  0  0  0  0  0  0  0  0  0  0  0
  -26.6890  -12.7996   20.7297 C   0  0  0  0  0  0  0  0  0  0  0  0
  -16.9281  -27.3749   22.3659 C   0  0  0  0  0  0  0  0  0  0  0  0
  -19.5137  -26.4551   21.9021 C   0  0  0  0  0  0  0  0  0  0  0  0
  -23.2140  -23.9897   24.3260 C   0  0  0  0  0  0  0  0  0  0  0  0
  -23.9377  -13.2574   20.7871 C   0  0  0  0  0  0  0  0  0  0  0  0
  -25.8015  -11.7275   20.6367 C   0  0  0  0  0  0  0  0  0  0  0  0
  -24.0395  -23.1678   23.5600 C   0  0  0  0  0  0  0  0  0  0  0  0
  -22.7111  -10.8550   22.8260 C   0  0  0  0  0  0  0  0  0  0  0  0
  -21.6310  -10.8292   23.7083 C   0  0  0  0  0  0  0  0  0  0  0  0
  -25.7197  -24.8983   23.5248 C   0  0  0  0  0  0  0  0  0  0  0  0
  -27.4670  -24.9673   20.2967 C   0  0  0  0  0  0  0  0  0  0  0  0
  -30.0845  -24.0053   20.2181 C   0  0  0  0  0  0  0  0  0  0  0  0
  -20.1023  -10.8636   21.8377 C   0  0  0  0  0  0  0  0  0  0  0  0
  -26.2008  -14.1006   20.8513 C   0  0  0  0  0  0  0  0  0  0  0  0
  -27.6658  -15.7591   22.1206 C   0  0  0  0  0  0  0  0  0  0  0  0
  -18.0184  -28.2068   22.6657 C   0  0  0  0  0  0  0  0  0  0  0  0
  -23.6314  -25.2784   24.6885 C   0  0  0  0  0  0  0  0  0  0  0  0
  -19.3267  -27.7471   22.4221 C   0  0  0  0  0  0  0  0  0  0  0  0
  -24.8987  -25.7337   24.2976 C   0  0  0  0  0  0  0  0  0  0  0  0
  -28.5300  -25.8108   20.6191 C   0  0  0  0  0  0  0  0  0  0  0  0
  -27.7127  -23.6426   19.9350 C   0  0  0  0  0  0  0  0  0  0  0  0
  -29.0214  -23.1617   19.8957 C   0  0  0  0  0  0  0  0  0  0  0  0
  -24.4258  -11.9564   20.6655 C   0  0  0  0  0  0  0  0  0  0  0  0
  -25.2914  -23.6231   23.1569 C   0  0  0  0  0  0  0  0  0  0  0  0
  -22.4867  -10.8852   21.4496 C   0  0  0  0  0  0  0  0  0  0  0  0
  -20.3266  -10.8335   23.2141 C   0  0  0  0  0  0  0  0  0  0  0  0
  -29.8387  -25.3299   20.5798 C   0  0  0  0  0  0  0  0  0  0  0  0
  -21.1823  -10.8895   20.9555 C   0  0  0  0  0  0  0  0  0  0  0  0
  -27.1181  -15.2076   20.9468 C   0  0  0  0  0  0  0  0  0  0  0  0
  -28.4697  -16.7807   21.6773 C   0  0  0  0  0  0  0  0  0  0  0  0
  -27.4658  -15.3815   23.4892 C   0  0  0  0  0  0  0  0  0  0  0  0
  -22.5734  -28.2216   24.1212 C   0  0  0  0  0  0  0  0  0  0  0  0
  -24.9151  -29.0465   26.2089 C   0  0  0  0  0  0  0  0  0  0  0  0
  -27.8863  -28.2562   27.6901 C   0  0  0  0  0  0  0  0  0  0  0  0
  -28.9285  -21.2874   18.2606 C   0  0  0  0  0  0  0  0  0  0  0  0
  -17.7495  -29.5994   23.1784 C   0  0  0  0  0  0  0  0  0  0  0  0
  -22.7401  -26.1427   25.5376 C   0  0  0  0  0  0  0  0  0  0  0  0
  -25.4021  -27.1013   24.6777 C   0  0  0  0  0  0  0  0  0  0  0  0
  -18.9725  -30.2649   23.8042 C   0  0  0  0  0  0  0  0  0  0  0  0
  -30.0267  -17.9880   17.0284 C   0  0  0  0  0  0  0  0  0  0  0  0
  -20.1953  -30.0822   22.9108 C   0  0  0  0  0  0  0  0  0  0  0  0
  -29.3543  -17.0204   18.0008 C   0  0  0  0  0  0  0  0  0  0  0  0
  -29.2171  -19.2694   16.8531 C   0  0  0  0  0  0  0  0  0  0  0  0
  -28.2339  -18.9958   19.1090 C   0  0  0  0  0  0  0  0  0  0  0  0
  -20.5375  -28.5971   22.7409 C   0  0  1  0  0  0  0  0  0  0  0  0
  -23.0570  -27.6300   25.4149 C   0  0  1  0  0  0  0  0  0  0  0  0
  -29.0471  -17.7131   19.3398 C   0  0  1  0  0  0  0  0  0  0  0  0
  -28.2638  -27.2264   21.0063 C   0  0  0  0  0  0  0  0  0  0  0  0
  -29.5700  -29.1443   29.3253 C   0  0  0  0  0  0  0  0  0  0  0  0
  -25.9549  -30.9763   24.0864 C   0  0  0  0  0  0  0  0  0  0  0  0
  -28.1058  -31.1093   25.3608 C   0  0  0  0  0  0  0  0  0  0  0  0
  -25.9815  -31.8779   26.4190 C   0  0  0  0  0  0  0  0  0  0  0  0
  -30.1940  -21.0058   20.3793 C   0  0  0  0  0  0  0  0  0  0  0  0
  -25.7429  -23.1597   18.5044 C   0  0  0  0  0  0  0  0  0  0  0  0
  -27.4912  -25.9636   29.5195 C   0  0  0  0  0  0  0  0  0  0  0  0
  -26.3679  -21.5992   20.3544 C   0  0  0  0  0  0  0  0  0  0  0  0
  -25.4614  -21.8880   21.5393 C   0  0  0  0  0  0  0  0  0  1  0  0
  -26.3772  -29.4027   26.0893 C   0  0  1  0  0  0  0  0  0  0  0  0
  -28.3275  -28.2868   29.1423 C   0  0  2  0  0  0  0  0  0  0  0  0
  -26.5949  -30.8165   25.4799 C   0  0  0  0  0  0  0  0  0  0  0  0
  -27.5385  -15.8277   19.8409 N   0  0  0  0  0  0  0  0  0  0  0  0
  -28.3587  -16.7794   20.3179 N   0  0  0  0  0  0  0  0  0  0  0  0
  -24.4913  -27.9114   25.5034 N   0  0  0  0  0  0  0  0  0  0  0  0
  -28.8998  -19.8832   18.1431 N   0  0  0  0  0  0  0  0  0  0  0  0
  -29.2535  -17.6712   22.3216 N   0  0  0  0  0  0  0  0  0  0  0  0
  -26.6072  -14.3094   23.7679 N   0  0  0  0  0  0  0  0  0  0  0  0
  -21.2122  -28.0959   23.9191 N   0  0  0  0  0  0  0  0  0  0  0  0
  -26.9493  -29.2312   27.4203 N   0  0  0  0  0  0  0  0  0  0  0  0
  -29.3011  -21.7948   19.5242 N   0  0  0  0  0  0  0  0  0  0  0  0
  -26.6297  -22.8129   19.6153 N   0  0  3  0  0  0  0  0  0  0  0  0
  -28.6331  -26.9086   29.6199 N   0  3  0  0  0  0  0  0  0  0  0  0
  -28.0188  -15.9878   24.4379 O   0  0  0  0  0  0  0  0  0  0  0  0
  -23.3756  -28.7541   23.3631 O   0  0  0  0  0  0  0  0  0  0  0  0
  -24.1777  -29.7455   26.9084 O   0  0  0  0  0  0  0  0  0  0  0  0
  -28.3314  -27.4506   26.8755 O   0  0  0  0  0  0  0  0  0  0  0  0
  -28.6708  -22.0276   17.3038 O   0  0  0  0  0  0  0  0  0  0  0  0
  -23.5601  -10.9101   20.5750 O   0  0  0  0  0  0  0  0  0  0  0  0
  -26.0988  -22.8230   22.4087 O   0  0  0  0  0  0  0  0  0  1  0  0
  -19.2895  -10.8071   24.0615 F   0  0  0  0  0  0  0  0  0  0  0  0
  -30.8665  -26.1328   20.8893 F   0  0  0  0  0  0  0  0  0  0  0  0
  -20.9606  -10.9173   19.6342 F   0  0  0  0  0  0  0  0  0  0  0  0
  1  2  1  0  0  0  0
  1  5  2  0  0  0  0
  2  6  2  0  0  0  0
  3  8  2  0  0  0  0
  3 17  1  0  0  0  0
  4  9  1  0  0  0  0
  4 17  2  0  0  0  0
  5 19  1  0  0  0  0
  6 21  1  0  0  0  0
  7 10  2  0  0  0  0
  7 20  1  0  0  0  0
  8 26  1  0  0  0  0
  9 26  2  0  0  0  0
 10 27  1  0  0  0  0
 11 12  2  0  0  0  0
 11 28  1  0  0  0  0
 12 29  1  0  0  0  0
 13 22  1  0  0  0  0
 13 27  2  0  0  0  0
 14 23  2  0  0  0  0
 14 24  1  0  0  0  0
 15 25  1  0  0  0  0
 15 30  2  0  0  0  0
 16 29  2  0  0  0  0
 16 31  1  0  0  0  0
 17 32  1  0  0  0  0
 18 32  1  0  0  0  0
 18 33  2  0  0  0  0
 18 34  1  0  0  0  0
 19 21  2  0  0  0  0
 19 39  1  0  0  0  0
 20 22  2  0  0  0  0
 20 40  1  0  0  0  0
 21 48  1  0  0  0  0
 22 41  1  0  0  0  0
 23 30  1  0  0  0  0
 23 51  1  0  0  0  0
 24 25  2  0  0  0  0
 24 73  1  0  0  0  0
 25 72  1  0  0  0  0
 26 80  1  0  0  0  0
 27 81  1  0  0  0  0
 28 31  2  0  0  0  0
 28 80  1  0  0  0  0
 29 82  1  0  0  0  0
 30 83  1  0  0  0  0
 31 84  1  0  0  0  0
 32 64  2  0  0  0  0
 33 65  1  0  0  0  0
 33 68  1  0  0  0  0
 34 69  1  0  0  0  0
 34 75  2  0  0  0  0
 35 49  1  0  0  0  0
 35 70  1  0  0  0  0
 35 76  2  0  0  0  0
 36 61  1  0  0  0  0
 36 66  1  0  0  0  0
 36 77  2  0  0  0  0
 37 62  1  0  0  0  0
 37 71  1  0  0  0  0
 37 78  2  0  0  0  0
 38 67  1  0  0  0  0
 38 72  1  0  0  0  0
 38 79  2  0  0  0  0
 39 42  1  0  0  0  0
 40 49  1  0  0  0  0
 41 66  1  0  0  0  0
 42 44  1  0  0  0  0
 43 45  1  0  0  0  0
 43 46  1  0  0  0  0
 44 48  1  0  0  0  0
 45 50  1  0  0  0  0
 46 67  1  0  0  0  0
 47 50  1  0  0  0  0
 47 67  1  0  0  0  0
 48 70  1  0  0  0  0
 49 66  1  0  0  0  0
 50 65  1  0  0  0  0
 52 62  1  0  0  0  0
 53 63  1  0  0  0  0
 54 63  1  0  0  0  0
 55 63  1  0  0  0  0
 56 72  1  0  0  0  0
 57 73  1  0  0  0  0
 58 74  1  0  0  0  0
 59 60  1  0  0  0  0
 59 73  1  0  0  0  0
 60 81  1  0  0  0  0
 61 63  1  0  0  0  0
 61 71  1  0  0  0  0
 62 74  1  0  0  0  0
 64 65  1  0  0  0  0
M  CHG  1  74   1
M  ISO  4  38 100  60 101  72 100  81 101
M  END
> <Batch ID>
0015

> <Smiles>
CNC(C)C(=O)NC(C(=O)N1Cc2cc([101O:1][101CH2:1]CN(C)c3cc(C)c(F)cc3[100N:0](C)[100C:0](=O)N3CCCC(n4nc(-c5ccc(Oc6ccc(F)cc6F)cc5)c(C(N)=O)c4N)C3)ccc2CC1C(=O)NC1CCCc2ccccc21)C(C)(C)C

> <Shape>
0.240

> <Color>
0.064

> <Negative vol penalty>
0.000

$$$$

  -OEChem-04052315553D

 84 92  0     1  0  0  0  0  0999 V2000
  -18.7985  -26.7218   20.4996 C   0  0  0  0  0  0  0  0  0  0  0  0
  -19.4881  -26.5683   21.6980 C   0  0  0  0  0  0  0  0  0  0  0  0
  -23.1160   -9.8042   20.0249 C   0  0  0  0  0  0  0  0  0  0  0  0
  -23.8449   -9.9408   22.3243 C   0  0  0  0  0  0  0  0  0  0  0  0
  -19.2723  -26.1085   19.3405 C   0  0  0  0  0  0  0  0  0  0  0  0
  -20.6515  -25.8005   21.7383 C   0  0  0  0  0  0  0  0  0  0  0  0
  -26.9817  -25.4277   25.0709 C   0  0  0  0  0  0  0  0  0  0  0  0
  -31.3143  -19.2867   21.1714 C   0  0  0  0  0  0  0  0  0  0  0  0
  -31.4211  -19.6002   22.5263 C   0  0  0  0  0  0  0  0  0  0  0  0
  -22.3883   -8.6525   20.3240 C   0  0  0  0  0  0  0  0  0  0  0  0
  -23.1171   -8.7891   22.6235 C   0  0  0  0  0  0  0  0  0  0  0  0
  -27.7750  -24.5255   25.7783 C   0  0  0  0  0  0  0  0  0  0  0  0
  -20.0477   -5.8811   20.5621 C   0  0  0  0  0  0  0  0  0  0  0  0
  -18.7497   -5.7857   20.0605 C   0  0  0  0  0  0  0  0  0  0  0  0
  -28.5430  -23.5782   23.6970 C   0  0  0  0  0  0  0  0  0  0  0  0
  -18.1345   -7.7830   21.2728 C   0  0  0  0  0  0  0  0  0  0  0  0
  -23.8444  -10.4484   21.0251 C   0  0  0  0  0  0  0  0  0  0  0  0
  -24.1455  -12.9697   20.7807 C   0  0  0  0  0  0  0  0  0  0  0  0
  -20.4474  -25.3408   19.3646 C   0  0  0  0  0  0  0  0  0  0  0  0
  -26.9547  -25.4047   23.6690 C   0  0  0  0  0  0  0  0  0  0  0  0
  -21.1407  -25.1754   20.5788 C   0  0  0  0  0  0  0  0  0  0  0  0
  -27.7505  -24.4828   22.9741 C   0  0  0  0  0  0  0  0  0  0  0  0
  -30.8431  -18.0334   20.7805 C   0  0  0  0  0  0  0  0  0  0  0  0
  -30.5855  -17.4070   23.0996 C   0  0  0  0  0  0  0  0  0  0  0  0
  -31.0567  -18.6604   23.4904 C   0  0  0  0  0  0  0  0  0  0  0  0
  -30.4787  -17.0935   21.7446 C   0  0  0  0  0  0  0  0  0  0  0  0
  -22.3887   -8.1449   21.6233 C   0  0  0  0  0  0  0  0  0  0  0  0
  -28.5536  -23.5986   25.0915 C   0  0  0  0  0  0  0  0  0  0  0  0
  -20.3892   -6.9274   21.4191 C   0  0  0  0  0  0  0  0  0  0  0  0
  -17.7931   -6.7366   20.4158 C   0  0  0  0  0  0  0  0  0  0  0  0
  -19.4326   -7.8784   21.7744 C   0  0  0  0  0  0  0  0  0  0  0  0
  -24.5968  -11.6378   20.7166 C   0  0  0  0  0  0  0  0  0  0  0  0
  -25.2297  -13.7187   20.3934 C   0  0  0  0  0  0  0  0  0  0  0  0
  -22.8611  -13.4840   21.1569 C   0  0  0  0  0  0  0  0  0  0  0  0
  -24.7129  -24.8825   21.4769 C   0  0  0  0  0  0  0  0  0  0  0  0
  -27.0755  -25.7299   19.4220 C   0  0  0  0  0  0  0  0  0  0  0  0
  -30.4213  -26.0121   18.8116 C   0  0  0  0  0  0  0  0  0  0  0  0
  -30.6748  -14.8667   20.5831 C   0  0  0  0  0  0  0  0  0  0  0  0
  -20.8947  -24.6583   18.0963 C   0  0  0  0  0  0  0  0  0  0  0  0
  -26.1142  -26.4023   22.9201 C   0  0  0  0  0  0  0  0  0  0  0  0
  -27.7726  -24.4303   21.4690 C   0  0  0  0  0  0  0  0  0  0  0  0
  -22.3401  -24.1697   18.1447 C   0  0  0  0  0  0  0  0  0  0  0  0
  -29.6328  -12.3167   18.3272 C   0  0  0  0  0  0  0  0  0  0  0  0
  -22.6128  -23.4385   19.4554 C   0  0  0  0  0  0  0  0  0  0  0  0
  -28.1926  -12.0223   18.7530 C   0  0  0  0  0  0  0  0  0  0  0  0
  -30.5278  -12.6221   19.5270 C   0  0  0  0  0  0  0  0  0  0  0  0
  -28.5906  -13.3825   20.8455 C   0  0  0  0  0  0  0  0  0  0  0  0
  -22.4200  -24.3707   20.6576 C   0  0  1  0  0  0  0  0  0  0  0  0
  -25.7698  -25.9502   21.5044 C   0  0  1  0  0  0  0  0  0  0  0  0
  -27.6367  -13.1328   19.6660 C   0  0  2  0  0  0  0  0  0  0  0  0
  -30.7401  -17.7272   19.3214 C   0  0  0  0  0  0  0  0  0  0  0  0
  -30.1963  -16.3995   24.1372 C   0  0  0  0  0  0  0  0  0  0  0  0
  -32.0472  -26.7003   17.0283 C   0  0  0  0  0  0  0  0  0  0  0  0
  -26.5537  -23.1142   17.9402 C   0  0  0  0  0  0  0  0  0  0  0  0
  -28.7646  -23.3997   16.8006 C   0  0  0  0  0  0  0  0  0  0  0  0
  -26.9605  -25.0885   16.4600 C   0  0  0  0  0  0  0  0  0  0  0  0
  -32.4790  -19.3527   25.4030 C   0  0  0  0  0  0  0  0  0  0  0  0
  -31.5499  -28.1596   20.5067 C   0  0  0  0  0  0  0  0  0  0  0  0
  -29.7789  -20.4102   26.2668 C   0  0  0  0  0  0  0  0  0  0  0  0
  -30.0234  -19.0090   25.7200 C   0  0  0  0  0  0  0  0  0  0  0  0
  -29.5649  -21.4476   25.1709 C   0  0  0  0  0  0  0  0  0  1  0  0
  -28.1640  -24.9914   18.6813 C   0  0  1  0  0  0  0  0  0  0  0  0
  -31.2488  -27.1502   18.2420 C   0  0  2  0  0  0  0  0  0  0  0  0
  -27.6090  -24.1479   17.4989 C   0  0  0  0  0  0  0  0  0  0  0  0
  -25.8686  -11.5429   20.3197 N   0  0  0  0  0  0  0  0  0  0  0  0
  -26.2257  -12.8246   20.1308 N   0  0  0  0  0  0  0  0  0  0  0  0
  -26.9290  -25.4222   20.7820 N   0  0  0  0  0  0  0  0  0  0  0  0
  -29.9399  -13.6863   20.3436 N   0  0  0  0  0  0  0  0  0  0  0  0
  -25.4188  -15.0482   20.2553 N   0  0  0  0  0  0  0  0  0  0  0  0
  -21.8601  -12.5756   21.5273 N   0  0  0  0  0  0  0  0  0  0  0  0
  -30.0012  -15.8207   21.3451 N   0  0  0  0  0  0  0  0  0  0  0  0
  -23.5617  -25.2477   20.8054 N   0  0  0  0  0  0  0  0  0  0  0  0
  -29.1454  -25.9970   18.2890 N   0  0  0  0  0  0  0  0  0  0  0  0
  -31.1725  -18.9947   24.8473 N   0  0  3  0  0  0  0  0  0  0  0  0
  -32.2012  -27.6620   19.2677 N   0  3  0  0  0  0  0  0  0  0  0  0
  -22.6035  -14.7116   21.1484 O   0  0  0  0  0  0  0  0  0  0  0  0
  -24.9267  -23.8066   22.0231 O   0  0  0  0  0  0  0  0  0  0  0  0
  -26.3854  -26.5549   18.8179 O   0  0  0  0  0  0  0  0  0  0  0  0
  -30.8637  -25.2140   19.6349 O   0  0  0  0  0  0  0  0  0  0  0  0
  -31.8071  -15.0310   20.1217 O   0  0  0  0  0  0  0  0  0  0  0  0
  -21.6785   -7.0212   21.9155 O   0  0  0  0  0  0  0  0  0  0  0  0
  -29.3283  -22.7164   25.7795 O   0  0  0  0  0  0  0  0  0  1  0  0
  -16.5470   -6.6457   19.9329 F   0  0  0  0  0  0  0  0  0  0  0  0
  -19.7549   -8.8865   22.5963 F   0  0  0  0  0  0  0  0  0  0  0  0
  1  2  1  0  0  0  0
  1  5  2  0  0  0  0
  2  6  2  0  0  0  0
  3 10  2  0  0  0  0
  3 17  1  0  0  0  0
  4 11  1  0  0  0  0
  4 17  2  0  0  0  0
  5 19  1  0  0  0  0
  6 21  1  0  0  0  0
  7 12  2  0  0  0  0
  7 20  1  0  0  0  0
  8  9  2  0  0  0  0
  8 23  1  0  0  0  0
  9 25  1  0  0  0  0
 10 27  1  0  0  0  0
 11 27  2  0  0  0  0
 12 28  1  0  0  0  0
 13 14  2  0  0  0  0
 13 29  1  0  0  0  0
 14 30  1  0  0  0  0
 15 22  1  0  0  0  0
 15 28  2  0  0  0  0
 16 30  2  0  0  0  0
 16 31  1  0  0  0  0
 17 32  1  0  0  0  0
 18 32  1  0  0  0  0
 18 33  2  0  0  0  0
 18 34  1  0  0  0  0
 19 21  2  0  0  0  0
 19 39  1  0  0  0  0
 20 22  2  0  0  0  0
 20 40  1  0  0  0  0
 21 48  1  0  0  0  0
 22 41  1  0  0  0  0
 23 26  2  0  0  0  0
 23 51  1  0  0  0  0
 24 25  2  0  0  0  0
 24 26  1  0  0  0  0
 24 52  1  0  0  0  0
 25 74  1  0  0  0  0
 26 71  1  0  0  0  0
 27 81  1  0  0  0  0
 28 82  1  0  0  0  0
 29 31  2  0  0  0  0
 29 81  1  0  0  0  0
 30 83  1  0  0  0  0
 31 84  1  0  0  0  0
 32 65  2  0  0  0  0
 33 66  1  0  0  0  0
 33 69  1  0  0  0  0
 34 70  1  0  0  0  0
 34 76  2  0  0  0  0
 35 49  1  0  0  0  0
 35 72  1  0  0  0  0
 35 77  2  0  0  0  0
 36 62  1  0  0  0  0
 36 67  1  0  0  0  0
 36 78  2  0  0  0  0
 37 63  1  0  0  0  0
 37 73  1  0  0  0  0
 37 79  2  0  0  0  0
 38 68  1  0  0  0  0
 38 71  1  0  0  0  0
 38 80  2  0  0  0  0
 39 42  1  0  0  0  0
 40 49  1  0  0  0  0
 41 67  1  0  0  0  0
 42 44  1  0  0  0  0
 43 45  1  0  0  0  0
 43 46  1  0  0  0  0
 44 48  1  0  0  0  0
 45 50  1  0  0  0  0
 46 68  1  0  0  0  0
 47 50  1  0  0  0  0
 47 68  1  0  0  0  0
 48 72  1  0  0  0  0
 49 67  1  0  0  0  0
 50 66  1  0  0  0  0
 53 63  1  0  0  0  0
 54 64  1  0  0  0  0
 55 64  1  0  0  0  0
 56 64  1  0  0  0  0
 57 74  1  0  0  0  0
 58 75  1  0  0  0  0
 59 60  1  0  0  0  0
 59 61  1  0  0  0  0
 60 74  1  0  0  0  0
 61 82  1  0  0  0  0
 62 64  1  0  0  0  0
 62 73  1  0  0  0  0
 63 75  1  0  0  0  0
 65 66  1  0  0  0  0
M  CHG  1  75   1
M  ISO  4  38 100  61 101  71 100  82 101
M  END
> <Batch ID>
0015

> <Smiles>
CNC(C)C(=O)NC(C(=O)N1Cc2cc([101O:1][101CH2:1]CCN(C)c3ccc(C)c([100NH:0][100C:0](=O)N4CCCC(n5nc(-c6ccc(Oc7ccc(F)cc7F)cc6)c(C(N)=O)c5N)C4)c3C)ccc2CC1C(=O)NC1CCCc2ccccc21)C(C)(C)C

> <Shape>
0.229

> <Color>
0.222

> <Negative vol penalty>
0.000

$$$$

  -OEChem-04052315553D

 85 93  0     1  0  0  0  0  0999 V2000
  -19.1746  -33.9730   21.3018 C   0  0  0  0  0  0  0  0  0  0  0  0
  -20.4782  -33.6554   20.9340 C   0  0  0  0  0  0  0  0  0  0  0  0
  -26.1257  -12.2377   19.6403 C   0  0  0  0  0  0  0  0  0  0  0  0
  -25.1970  -13.5307   21.4577 C   0  0  0  0  0  0  0  0  0  0  0  0
  -18.5515  -33.2705   22.3324 C   0  0  0  0  0  0  0  0  0  0  0  0
  -21.1598  -32.6357   21.5973 C   0  0  0  0  0  0  0  0  0  0  0  0
  -25.2188  -28.7402   19.1774 C   0  0  0  0  0  0  0  0  0  0  0  0
  -25.4498  -11.1072   20.0992 C   0  0  0  0  0  0  0  0  0  0  0  0
  -24.5210  -12.4002   21.9165 C   0  0  0  0  0  0  0  0  0  0  0  0
  -26.6128  -28.7252   19.1660 C   0  0  0  0  0  0  0  0  0  0  0  0
  -22.3087   -9.8618   19.9756 C   0  0  0  0  0  0  0  0  0  0  0  0
  -21.6423   -9.0782   19.0336 C   0  0  0  0  0  0  0  0  0  0  0  0
  -29.1225  -23.5804   18.9709 C   0  0  0  0  0  0  0  0  0  0  0  0
  -26.6065  -27.2488   21.0737 C   0  0  0  0  0  0  0  0  0  0  0  0
  -31.4568  -22.1620   19.5381 C   0  0  0  0  0  0  0  0  0  0  0  0
  -23.0131   -7.1834   19.6402 C   0  0  0  0  0  0  0  0  0  0  0  0
  -25.9994  -13.4495   20.3196 C   0  0  0  0  0  0  0  0  0  0  0  0
  -30.3547  -24.0582   18.5248 C   0  0  0  0  0  0  0  0  0  0  0  0
  -26.2286  -15.5741   18.9263 C   0  0  0  0  0  0  0  0  0  0  0  0
  -19.2224  -32.2352   23.0023 C   0  0  0  0  0  0  0  0  0  0  0  0
  -24.5071  -28.0171   20.1454 C   0  0  0  0  0  0  0  0  0  0  0  0
  -20.5455  -31.9195   22.6388 C   0  0  0  0  0  0  0  0  0  0  0  0
  -25.2034  -27.2542   21.0936 C   0  0  0  0  0  0  0  0  0  0  0  0
  -30.2245  -21.6843   19.9843 C   0  0  0  0  0  0  0  0  0  0  0  0
  -24.6474  -11.1884   21.2373 C   0  0  0  0  0  0  0  0  0  0  0  0
  -27.3070  -27.9818   20.1161 C   0  0  0  0  0  0  0  0  0  0  0  0
  -23.3274   -9.3064   20.7499 C   0  0  0  0  0  0  0  0  0  0  0  0
  -21.9945   -7.7389   18.8659 C   0  0  0  0  0  0  0  0  0  0  0  0
  -29.0574  -22.3935   19.7007 C   0  0  0  0  0  0  0  0  0  0  0  0
  -23.6796   -7.9671   20.5822 C   0  0  0  0  0  0  0  0  0  0  0  0
  -31.5218  -23.3489   18.8083 C   0  0  0  0  0  0  0  0  0  0  0  0
  -26.6979  -14.6176   19.8464 C   0  0  0  0  0  0  0  0  0  0  0  0
  -27.2587  -16.4754   18.8125 C   0  0  0  0  0  0  0  0  0  0  0  0
  -30.3737  -25.3148   17.7594 C   0  0  0  0  0  0  0  0  0  0  0  0
  -24.9736  -15.6419   18.2362 C   0  0  0  0  0  0  0  0  0  0  0  0
  -22.4841  -28.7781   22.4761 C   0  0  0  0  0  0  0  0  0  0  0  0
  -22.2049  -25.5585   22.7555 C   0  0  0  0  0  0  0  0  0  0  0  0
  -23.5792  -22.4763   22.2474 C   0  0  0  0  0  0  0  0  0  0  0  0
  -31.2244  -19.6528   21.0887 C   0  0  0  0  0  0  0  0  0  0  0  0
  -18.5244  -31.5357   24.1416 C   0  0  0  0  0  0  0  0  0  0  0  0
  -23.0030  -28.0222   20.1276 C   0  0  0  0  0  0  0  0  0  0  0  0
  -24.4860  -26.4443   22.1415 C   0  0  0  0  0  0  0  0  0  0  0  0
  -19.1835  -30.2186   24.5431 C   0  0  0  0  0  0  0  0  0  0  0  0
  -32.0370  -16.2426   20.4663 C   0  0  0  0  0  0  0  0  0  0  0  0
  -20.6944  -30.3920   24.6612 C   0  0  0  0  0  0  0  0  0  0  0  0
  -30.6818  -15.5945   20.1739 C   0  0  0  0  0  0  0  0  0  0  0  0
  -31.9309  -17.3152   21.5489 C   0  0  0  0  0  0  0  0  0  0  0  0
  -29.5566  -17.6961   21.0131 C   0  0  0  0  0  0  0  0  0  0  0  0
  -21.3091  -30.8034   23.3179 C   0  0  1  0  0  0  0  0  0  0  0  0
  -22.3883  -27.6606   21.4762 C   0  0  1  0  0  0  0  0  0  0  0  0
  -29.6012  -16.6544   19.8832 C   0  0  2  0  0  0  0  0  0  0  0  0
  -23.1308  -20.0346   22.6146 C   0  0  0  0  0  0  0  0  0  0  0  0
  -22.8765  -25.8826   25.7142 C   0  0  0  0  0  0  0  0  0  0  0  0
  -23.3459  -23.4250   25.8054 C   0  0  0  0  0  0  0  0  0  0  0  0
  -21.0575  -24.2356   25.2318 C   0  0  0  0  0  0  0  0  0  0  0  0
  -30.5628  -27.7719   17.7229 C   0  0  0  0  0  0  0  0  0  0  0  0
  -23.6620  -21.9056   19.3446 C   0  0  0  0  0  0  0  0  0  0  0  0
  -30.6565  -26.6295   19.9103 C   0  0  0  0  0  0  0  0  0  0  0  0
  -29.3064  -26.7835   20.5875 C   0  0  0  0  0  0  0  0  0  1  0  0
  -22.9213  -24.4875   23.5422 C   0  0  1  0  0  0  0  0  0  0  0  0
  -23.0060  -21.2038   21.6502 C   0  0  2  0  0  0  0  0  0  0  0  0
  -22.5641  -24.5244   25.0550 C   0  0  0  0  0  0  0  0  0  0  0  0
  -27.9303  -14.8861   20.2858 N   0  0  0  0  0  0  0  0  0  0  0  0
  -28.2441  -16.0215   19.6390 N   0  0  0  0  0  0  0  0  0  0  0  0
  -23.0154  -26.4866   22.0866 N   0  0  0  0  0  0  0  0  0  0  0  0
  -30.8907  -18.2866   21.2036 N   0  0  0  0  0  0  0  0  0  0  0  0
  -27.4086  -17.6040   18.0872 N   0  0  0  0  0  0  0  0  0  0  0  0
  -24.0279  -14.6340   18.4689 N   0  0  0  0  0  0  0  0  0  0  0  0
  -30.1606  -20.4774   20.7240 N   0  0  0  0  0  0  0  0  0  0  0  0
  -21.4190  -29.6578   22.4404 N   0  0  0  0  0  0  0  0  0  0  0  0
  -22.6110  -23.2222   22.8856 N   0  0  0  0  0  0  0  0  0  0  0  0
  -30.5286  -26.5179   18.4815 N   0  0  0  0  0  0  0  0  0  0  0  0
  -23.7231  -20.8535   20.3916 N   0  3  0  0  0  0  0  0  0  0  0  0
  -30.2626  -25.2104   16.5384 O   0  0  0  0  0  0  0  0  0  0  0  0
  -24.7055  -16.5598   17.4244 O   0  0  0  0  0  0  0  0  0  0  0  0
  -23.4518  -28.8370   23.2255 O   0  0  0  0  0  0  0  0  0  0  0  0
  -20.9717  -25.5668   22.7295 O   0  0  0  0  0  0  0  0  0  0  0  0
  -24.7678  -22.7765   22.1600 O   0  0  0  0  0  0  0  0  0  0  0  0
  -32.3754  -20.0573   21.2717 O   0  0  0  0  0  0  0  0  0  0  0  0
  -23.9875  -10.0855   21.6852 O   0  0  0  0  0  0  0  0  0  0  0  0
  -28.6677  -27.9659   20.1076 O   0  0  0  0  0  0  0  0  0  1  0  0
  -21.3534   -6.9861   17.9624 F   0  0  0  0  0  0  0  0  0  0  0  0
  -27.8673  -21.9428   20.1226 F   0  0  0  0  0  0  0  0  0  0  0  0
  -24.6566   -7.4276   21.3239 F   0  0  0  0  0  0  0  0  0  0  0  0
  -33.0670  -23.9073   18.2757 Cl  0  0  0  0  0  0  0  0  0  0  0  0
  1  2  1  0  0  0  0
  1  5  2  0  0  0  0
  2  6  2  0  0  0  0
  3  8  2  0  0  0  0
  3 17  1  0  0  0  0
  4  9  1  0  0  0  0
  4 17  2  0  0  0  0
  5 20  1  0  0  0  0
  6 22  1  0  0  0  0
  7 10  2  0  0  0  0
  7 21  1  0  0  0  0
  8 25  1  0  0  0  0
  9 25  2  0  0  0  0
 10 26  1  0  0  0  0
 11 12  2  0  0  0  0
 11 27  1  0  0  0  0
 12 28  1  0  0  0  0
 13 18  1  0  0  0  0
 13 29  2  0  0  0  0
 14 23  1  0  0  0  0
 14 26  2  0  0  0  0
 15 24  2  0  0  0  0
 15 31  1  0  0  0  0
 16 28  2  0  0  0  0
 16 30  1  0  0  0  0
 17 32  1  0  0  0  0
 18 31  2  0  0  0  0
 18 34  1  0  0  0  0
 19 32  1  0  0  0  0
 19 33  2  0  0  0  0
 19 35  1  0  0  0  0
 20 22  2  0  0  0  0
 20 40  1  0  0  0  0
 21 23  2  0  0  0  0
 21 41  1  0  0  0  0
 22 49  1  0  0  0  0
 23 42  1  0  0  0  0
 24 29  1  0  0  0  0
 24 69  1  0  0  0  0
 25 80  1  0  0  0  0
 26 81  1  0  0  0  0
 27 30  2  0  0  0  0
 27 80  1  0  0  0  0
 28 82  1  0  0  0  0
 29 83  1  0  0  0  0
 30 84  1  0  0  0  0
 31 85  1  0  0  0  0
 32 63  2  0  0  0  0
 33 64  1  0  0  0  0
 33 67  1  0  0  0  0
 34 72  1  0  0  0  0
 34 74  2  0  0  0  0
 35 68  1  0  0  0  0
 35 75  2  0  0  0  0
 36 50  1  0  0  0  0
 36 70  1  0  0  0  0
 36 76  2  0  0  0  0
 37 60  1  0  0  0  0
 37 65  1  0  0  0  0
 37 77  2  0  0  0  0
 38 61  1  0  0  0  0
 38 71  1  0  0  0  0
 38 78  2  0  0  0  0
 39 66  1  0  0  0  0
 39 69  1  0  0  0  0
 39 79  2  0  0  0  0
 40 43  1  0  0  0  0
 41 50  1  0  0  0  0
 42 65  1  0  0  0  0
 43 45  1  0  0  0  0
 44 46  1  0  0  0  0
 44 47  1  0  0  0  0
 45 49  1  0  0  0  0
 46 51  1  0  0  0  0
 47 66  1  0  0  0  0
 48 51  1  0  0  0  0
 48 66  1  0  0  0  0
 49 70  1  0  0  0  0
 50 65  1  0  0  0  0
 51 64  1  0  0  0  0
 52 61  1  0  0  0  0
 53 62  1  0  0  0  0
 54 62  1  0  0  0  0
 55 62  1  0  0  0  0
 56 72  1  0  0  0  0
 57 73  1  0  0  0  0
 58 59  1  0  0  0  0
 58 72  1  0  0  0  0
 59 81  1  0  0  0  0
 60 62  1  0  0  0  0
 60 71  1  0  0  0  0
 61 73  1  0  0  0  0
 63 64  1  0  0  0  0
M  CHG  1  73   1
M  ISO  4  39 100  59 101  69 100  81 101
M  END
> <Batch ID>
0015

> <Smiles>
CNC(C)C(=O)NC(C(=O)N1Cc2cc([101O:1][101CH2:1]CN(C)C(=O)c3cc(F)c([100NH:0][100C:0](=O)N4CCCC(n5nc(-c6ccc(Oc7ccc(F)cc7F)cc6)c(C(N)=O)c5N)C4)cc3Cl)ccc2CC1C(=O)NC1CCCc2ccccc21)C(C)(C)C

> <Shape>
0.242

> <Color>
0.078

> <Negative vol penalty>
0.000

$$$$

  -OEChem-04052315553D

 84 92  0     1  0  0  0  0  0999 V2000
  -27.4629  -36.4697   23.9080 C   0  0  0  0  0  0  0  0  0  0  0  0
  -27.9388  -35.3630   23.2123 C   0  0  0  0  0  0  0  0  0  0  0  0
  -25.1216  -14.6398   20.8240 C   0  0  0  0  0  0  0  0  0  0  0  0
  -26.6401  -12.7621   20.7495 C   0  0  0  0  0  0  0  0  0  0  0  0
  -26.4583  -36.3128   24.8620 C   0  0  0  0  0  0  0  0  0  0  0  0
  -27.4112  -34.0984   23.4710 C   0  0  0  0  0  0  0  0  0  0  0  0
  -26.5667  -29.5664   19.4393 C   0  0  0  0  0  0  0  0  0  0  0  0
  -24.0635  -13.7977   20.4825 C   0  0  0  0  0  0  0  0  0  0  0  0
  -25.5819  -11.9199   20.4080 C   0  0  0  0  0  0  0  0  0  0  0  0
  -27.3175  -28.4327   19.1317 C   0  0  0  0  0  0  0  0  0  0  0  0
  -23.0285  -10.3660   21.9849 C   0  0  0  0  0  0  0  0  0  0  0  0
  -22.9368   -9.1419   22.6472 C   0  0  0  0  0  0  0  0  0  0  0  0
  -25.9385  -27.1240   20.6165 C   0  0  0  0  0  0  0  0  0  0  0  0
  -23.1268   -7.9848   20.5349 C   0  0  0  0  0  0  0  0  0  0  0  0
  -26.4100  -14.1220   20.9575 C   0  0  0  0  0  0  0  0  0  0  0  0
  -27.9564  -15.3060   22.6050 C   0  0  0  0  0  0  0  0  0  0  0  0
  -25.9113  -35.0471   25.1256 C   0  0  0  0  0  0  0  0  0  0  0  0
  -25.5012  -29.4896   20.3477 C   0  0  0  0  0  0  0  0  0  0  0  0
  -26.3993  -33.9242   24.4303 C   0  0  0  0  0  0  0  0  0  0  0  0
  -25.1741  -28.2576   20.9321 C   0  0  0  0  0  0  0  0  0  0  0  0
  -24.2936  -12.4377   20.2745 C   0  0  0  0  0  0  0  0  0  0  0  0
  -27.0053  -27.2118   19.7225 C   0  0  0  0  0  0  0  0  0  0  0  0
  -23.1694  -10.3996   20.5975 C   0  0  0  0  0  0  0  0  0  0  0  0
  -22.9859   -7.9513   21.9222 C   0  0  0  0  0  0  0  0  0  0  0  0
  -23.2185   -9.2089   19.8725 C   0  0  0  0  0  0  0  0  0  0  0  0
  -27.5036  -14.9915   21.3097 C   0  0  0  0  0  0  0  0  0  0  0  0
  -29.0092  -16.1644   22.4017 C   0  0  0  0  0  0  0  0  0  0  0  0
  -27.4690  -14.8619   23.8782 C   0  0  0  0  0  0  0  0  0  0  0  0
  -24.8527  -30.8174   23.1620 C   0  0  0  0  0  0  0  0  0  0  0  0
  -28.8148  -22.3454   18.8683 C   0  0  0  0  0  0  0  0  0  0  0  0
  -21.9945  -29.3361   22.7637 C   0  0  0  0  0  0  0  0  0  0  0  0
  -20.2148  -26.8194   21.2989 C   0  0  0  0  0  0  0  0  0  0  0  0
  -30.3633  -25.2695   20.4037 C   0  0  0  0  0  0  0  0  0  0  0  0
  -30.4600  -19.8631   17.9773 C   0  0  0  0  0  0  0  0  0  0  0  0
  -24.8600  -34.9199   26.1995 C   0  0  0  0  0  0  0  0  0  0  0  0
  -24.6842  -30.7162   20.6486 C   0  0  0  0  0  0  0  0  0  0  0  0
  -24.0272  -28.1178   21.8982 C   0  0  0  0  0  0  0  0  0  0  0  0
  -24.0920  -33.6018   26.1470 C   0  0  0  0  0  0  0  0  0  0  0  0
  -27.6203  -20.6547   15.9003 C   0  0  0  0  0  0  0  0  0  0  0  0
  -32.4198  -17.2435   19.2441 C   0  0  0  0  0  0  0  0  0  0  0  0
  -25.0539  -32.4297   25.9802 C   0  0  0  0  0  0  0  0  0  0  0  0
  -27.7343  -21.9798   16.6433 C   0  0  0  0  0  0  0  0  0  0  0  0
  -31.4310  -16.3814   20.0257 C   0  0  0  0  0  0  0  0  0  0  0  0
  -31.7839  -17.7748   17.9658 C   0  0  0  0  0  0  0  0  0  0  0  0
  -28.1594  -19.6487   16.9037 C   0  0  0  0  0  0  0  0  0  0  0  0
  -29.5305  -17.7256   18.9926 C   0  0  0  0  0  0  0  0  0  0  0  0
  -25.8349  -32.5398   24.6651 C   0  0  1  0  0  0  0  0  0  0  0  0
  -23.9444  -30.6296   21.9800 C   0  0  1  0  0  0  0  0  0  0  0  0
  -29.0005  -21.8197   17.4800 C   0  0  2  0  0  0  0  0  0  0  0  0
  -30.1277  -17.1517   20.2939 C   0  0  1  0  0  0  0  0  0  0  0  0
  -17.9061  -25.8415   21.1944 C   0  0  0  0  0  0  0  0  0  0  0  0
  -22.4079  -28.0728   25.5102 C   0  0  0  0  0  0  0  0  0  0  0  0
  -20.6087  -26.4256   24.9463 C   0  0  0  0  0  0  0  0  0  0  0  0
  -20.0764  -28.8598   25.0643 C   0  0  0  0  0  0  0  0  0  0  0  0
  -20.0042  -27.3304   18.3914 C   0  0  0  0  0  0  0  0  0  0  0  0
  -31.4075  -26.8290   21.8447 C   0  0  0  0  0  0  0  0  0  0  0  0
  -27.8534  -25.1095   20.4415 C   0  0  0  0  0  0  0  0  0  1  0  0
  -21.4338  -27.9807   23.1209 C   0  0  1  0  0  0  0  0  0  0  0  0
  -18.8856  -26.8202   20.5656 C   0  0  2  0  0  0  0  0  0  0  0  0
  -29.1637  -24.3474   20.3009 C   0  0  1  0  0  0  0  0  0  0  0  0
  -21.1546  -27.8374   24.6437 C   0  0  0  0  0  0  0  0  0  0  0  0
  -28.2108  -15.6006   20.3542 N   0  0  0  0  0  0  0  0  0  0  0  0
  -29.1185  -16.3066   21.0497 N   0  0  0  0  0  0  0  0  0  0  0  0
  -23.2623  -29.3471   22.1651 N   0  0  0  0  0  0  0  0  0  0  0  0
  -30.5373  -18.4898   18.2430 N   0  0  0  0  0  0  0  0  0  0  0  0
  -29.2156  -20.3789   17.6044 N   0  0  0  0  0  0  0  0  0  0  0  0
  -29.8428  -16.8039   23.2494 N   0  0  0  0  0  0  0  0  0  0  0  0
  -26.3795  -13.9808   23.9061 N   0  0  0  0  0  0  0  0  0  0  0  0
  -25.0063  -32.1347   23.5498 N   0  0  0  0  0  0  0  0  0  0  0  0
  -29.2506  -23.6453   19.0406 N   0  0  0  0  0  0  0  0  0  0  0  0
  -20.2588  -27.7898   22.2774 N   0  0  0  0  0  0  0  0  0  0  0  0
  -19.0811  -26.4379   19.1385 N   0  3  0  0  0  0  0  0  0  0  0  0
  -27.9739  -15.2484   24.9595 O   0  0  0  0  0  0  0  0  0  0  0  0
  -25.3743  -29.8393   23.6846 O   0  0  0  0  0  0  0  0  0  0  0  0
  -28.3115  -21.6270   19.7240 O   0  0  0  0  0  0  0  0  0  0  0  0
  -21.3289  -30.3474   23.0005 O   0  0  0  0  0  0  0  0  0  0  0  0
  -21.1218  -26.0338   21.0329 O   0  0  0  0  0  0  0  0  0  0  0  0
  -31.1839  -25.4550   19.5143 O   0  0  0  0  0  0  0  0  0  0  0  0
  -31.4592  -20.5905   18.0486 O   0  0  0  0  0  0  0  0  0  0  0  0
  -23.2612  -11.6156   19.9415 O   0  0  0  0  0  0  0  0  0  0  0  0
  -27.7418  -26.0964   19.4225 O   0  0  0  0  0  0  0  0  0  1  0  0
  -30.3526  -25.8878   21.6220 O   0  0  0  0  0  0  0  0  0  0  0  0
  -22.8993   -6.7758   22.5586 F   0  0  0  0  0  0  0  0  0  0  0  0
  -23.3549   -9.2347   18.5397 F   0  0  0  0  0  0  0  0  0  0  0  0
  1  2  1  0  0  0  0
  1  5  2  0  0  0  0
  2  6  2  0  0  0  0
  3  8  2  0  0  0  0
  3 15  1  0  0  0  0
  4  9  1  0  0  0  0
  4 15  2  0  0  0  0
  5 17  1  0  0  0  0
  6 19  1  0  0  0  0
  7 10  2  0  0  0  0
  7 18  1  0  0  0  0
  8 21  1  0  0  0  0
  9 21  2  0  0  0  0
 10 22  1  0  0  0  0
 11 12  2  0  0  0  0
 11 23  1  0  0  0  0
 12 24  1  0  0  0  0
 13 20  1  0  0  0  0
 13 22  2  0  0  0  0
 14 24  2  0  0  0  0
 14 25  1  0  0  0  0
 15 26  1  0  0  0  0
 16 26  1  0  0  0  0
 16 27  2  0  0  0  0
 16 28  1  0  0  0  0
 17 19  2  0  0  0  0
 17 35  1  0  0  0  0
 18 20  2  0  0  0  0
 18 36  1  0  0  0  0
 19 47  1  0  0  0  0
 20 37  1  0  0  0  0
 21 80  1  0  0  0  0
 22 81  1  0  0  0  0
 23 25  2  0  0  0  0
 23 80  1  0  0  0  0
 24 83  1  0  0  0  0
 25 84  1  0  0  0  0
 26 62  2  0  0  0  0
 27 63  1  0  0  0  0
 27 67  1  0  0  0  0
 28 68  1  0  0  0  0
 28 73  2  0  0  0  0
 29 48  1  0  0  0  0
 29 69  1  0  0  0  0
 29 74  2  0  0  0  0
 30 49  1  0  0  0  0
 30 70  1  0  0  0  0
 30 75  2  0  0  0  0
 31 58  1  0  0  0  0
 31 64  1  0  0  0  0
 31 76  2  0  0  0  0
 32 59  1  0  0  0  0
 32 71  1  0  0  0  0
 32 77  2  0  0  0  0
 33 60  1  0  0  0  0
 33 78  2  0  0  0  0
 33 82  1  0  0  0  0
 34 65  1  0  0  0  0
 34 66  1  0  0  0  0
 34 79  2  0  0  0  0
 35 38  1  0  0  0  0
 36 48  1  0  0  0  0
 37 64  1  0  0  0  0
 38 41  1  0  0  0  0
 39 42  1  0  0  0  0
 39 45  1  0  0  0  0
 40 43  1  0  0  0  0
 40 44  1  0  0  0  0
 41 47  1  0  0  0  0
 42 49  1  0  0  0  0
 43 50  1  0  0  0  0
 44 65  1  0  0  0  0
 45 66  1  0  0  0  0
 46 50  1  0  0  0  0
 46 65  1  0  0  0  0
 47 69  1  0  0  0  0
 48 64  1  0  0  0  0
 49 66  1  0  0  0  0
 50 63  1  0  0  0  0
 51 59  1  0  0  0  0
 52 61  1  0  0  0  0
 53 61  1  0  0  0  0
 54 61  1  0  0  0  0
 55 72  1  0  0  0  0
 56 82  1  0  0  0  0
 57 60  1  0  0  0  0
 57 81  1  0  0  0  0
 58 61  1  0  0  0  0
 58 71  1  0  0  0  0
 59 72  1  0  0  0  0
 60 70  1  0  0  0  0
 62 63  1  0  0  0  0
M  CHG  1  72   1
M  ISO  4  34 100  57 101  66 100  81 101
M  END
> <Batch ID>
0015

> <Smiles>
CNC(C)C(=O)NC(C(=O)N1Cc2cc([101O:1][101CH2:1]C(NC(=O)C3CCC[100N:0]3[100C:0](=O)N3CCCC(n4nc(-c5ccc(Oc6ccc(F)cc6F)cc5)c(C(N)=O)c4N)C3)C(=O)OC)ccc2CC1C(=O)NC1CCCc2ccccc21)C(C)(C)C

> <Shape>
0.328

> <Color>
0.085

> <Negative vol penalty>
0.000

$$$$

  -OEChem-04052315553D

 86 94  0     1  0  0  0  0  0999 V2000
  -17.5282  -25.8347   21.2483 C   0  0  0  0  0  0  0  0  0  0  0  0
  -18.8561  -25.5243   20.9731 C   0  0  0  0  0  0  0  0  0  0  0  0
  -26.3312  -13.0447   21.9249 C   0  0  0  0  0  0  0  0  0  0  0  0
  -26.0485  -12.8181   19.5363 C   0  0  0  0  0  0  0  0  0  0  0  0
  -17.2149  -27.0109   21.9282 C   0  0  0  0  0  0  0  0  0  0  0  0
  -19.8715  -26.3906   21.3769 C   0  0  0  0  0  0  0  0  0  0  0  0
  -23.7743  -23.9560   23.4948 C   0  0  0  0  0  0  0  0  0  0  0  0
  -25.1563  -12.3221   22.1326 C   0  0  0  0  0  0  0  0  0  0  0  0
  -24.8736  -12.0954   19.7439 C   0  0  0  0  0  0  0  0  0  0  0  0
  -24.6691  -23.3190   22.6361 C   0  0  0  0  0  0  0  0  0  0  0  0
  -21.6095  -10.5006   19.6364 C   0  0  0  0  0  0  0  0  0  0  0  0
  -20.5023  -10.8239   18.8521 C   0  0  0  0  0  0  0  0  0  0  0  0
  -26.1904  -25.1787   22.8514 C   0  0  0  0  0  0  0  0  0  0  0  0
  -32.5427  -20.7815   20.7224 C   0  0  0  0  0  0  0  0  0  0  0  0
  -32.1547  -22.9779   19.0467 C   0  0  0  0  0  0  0  0  0  0  0  0
  -20.5392  -13.0752   19.7281 C   0  0  0  0  0  0  0  0  0  0  0  0
  -26.7773  -13.2927   20.6268 C   0  0  0  0  0  0  0  0  0  0  0  0
  -29.2972  -13.5264   20.3056 C   0  0  0  0  0  0  0  0  0  0  0  0
  -18.2276  -27.8872   22.3490 C   0  0  0  0  0  0  0  0  0  0  0  0
  -24.0766  -25.2162   24.0305 C   0  0  0  0  0  0  0  0  0  0  0  0
  -19.5713  -27.5803   22.0619 C   0  0  0  0  0  0  0  0  0  0  0  0
  -25.2989  -25.8285   23.7187 C   0  0  0  0  0  0  0  0  0  0  0  0
  -33.4216  -21.0158   19.6650 C   0  0  0  0  0  0  0  0  0  0  0  0
  -33.2277  -22.1140   18.8272 C   0  0  0  0  0  0  0  0  0  0  0  0
  -31.4697  -21.6453   20.9420 C   0  0  0  0  0  0  0  0  0  0  0  0
  -31.2757  -22.7435   20.1041 C   0  0  0  0  0  0  0  0  0  0  0  0
  -24.4275  -11.8475   21.0420 C   0  0  0  0  0  0  0  0  0  0  0  0
  -25.8761  -23.9316   22.3120 C   0  0  0  0  0  0  0  0  0  0  0  0
  -22.1815  -11.4645   20.4667 C   0  0  0  0  0  0  0  0  0  0  0  0
  -19.9672  -12.1112   18.8979 C   0  0  0  0  0  0  0  0  0  0  0  0
  -21.6464  -12.7518   20.5125 C   0  0  0  0  0  0  0  0  0  0  0  0
  -27.9906  -14.0395   20.4117 C   0  0  0  0  0  0  0  0  0  0  0  0
  -30.0857  -14.6333   20.1064 C   0  0  0  0  0  0  0  0  0  0  0  0
  -29.7571  -12.1704   20.3803 C   0  0  0  0  0  0  0  0  0  0  0  0
  -22.7634  -28.1051   23.8474 C   0  0  0  0  0  0  0  0  0  0  0  0
  -25.0231  -28.8449   26.0539 C   0  0  0  0  0  0  0  0  0  0  0  0
  -28.0523  -28.1262   27.4519 C   0  0  0  0  0  0  0  0  0  0  0  0
  -29.8290  -20.1960   22.1624 C   0  0  0  0  0  0  0  0  0  0  0  0
  -17.8369  -29.1700   23.0393 C   0  0  0  0  0  0  0  0  0  0  0  0
  -23.1125  -25.8781   24.9765 C   0  0  0  0  0  0  0  0  0  0  0  0
  -25.6798  -27.1718   24.2834 C   0  0  0  0  0  0  0  0  0  0  0  0
  -18.9965  -29.8501   23.7625 C   0  0  0  0  0  0  0  0  0  0  0  0
  -28.7898  -19.2643   18.7073 C   0  0  0  0  0  0  0  0  0  0  0  0
  -20.2307  -29.8959   22.8673 C   0  0  0  0  0  0  0  0  0  0  0  0
  -28.9701  -17.7463   18.6449 C   0  0  0  0  0  0  0  0  0  0  0  0
  -29.8028  -19.9312   19.6308 C   0  0  0  0  0  0  0  0  0  0  0  0
  -29.2622  -18.0161   21.1528 C   0  0  0  0  0  0  0  0  0  0  0  0
  -20.7025  -28.4824   22.5054 C   0  0  1  0  0  0  0  0  0  0  0  0
  -23.2971  -27.3904   25.0565 C   0  0  1  0  0  0  0  0  0  0  0  0
  -29.5997  -17.1624   19.9233 C   0  0  1  0  0  0  0  0  0  0  0  0
  -34.5622  -20.0763   19.4483 C   0  0  0  0  0  0  0  0  0  0  0  0
  -34.1562  -22.3852   17.6893 C   0  0  0  0  0  0  0  0  0  0  0  0
  -31.8232  -21.9213   24.0966 C   0  0  0  0  0  0  0  0  0  0  0  0
  -29.6510  -28.9315   29.2106 C   0  0  0  0  0  0  0  0  0  0  0  0
  -28.3430  -23.2614   18.8060 C   0  0  0  0  0  0  0  0  0  0  0  0
  -25.8890  -31.1243   24.2197 C   0  0  0  0  0  0  0  0  0  0  0  0
  -28.0197  -31.2731   25.5259 C   0  0  0  0  0  0  0  0  0  0  0  0
  -25.8359  -31.7050   26.6516 C   0  0  0  0  0  0  0  0  0  0  0  0
  -30.4500  -25.0373   20.5699 C   0  0  0  0  0  0  0  0  0  0  0  0
  -27.8605  -25.5841   28.9551 C   0  0  0  0  0  0  0  0  0  0  0  0
  -30.6458  -22.2628   23.2059 C   0  0  0  0  0  0  0  0  0  0  0  0
  -27.9689  -23.9973   21.1844 C   0  0  0  0  0  0  0  0  0  1  0  0
  -26.4482  -29.3401   26.0002 C   0  0  1  0  0  0  0  0  0  0  0  0
  -28.4889  -28.0009   28.9004 C   0  0  2  0  0  0  0  0  0  0  0  0
  -28.8328  -23.1592   20.2445 C   0  0  2  0  0  0  0  0  0  0  0  0
  -26.5405  -30.8362   25.5870 C   0  0  0  0  0  0  0  0  0  0  0  0
  -27.9473  -15.3690   20.2902 N   0  0  0  0  0  0  0  0  0  0  0  0
  -29.2365  -15.7006   20.1057 N   0  0  0  0  0  0  0  0  0  0  0  0
  -24.7010  -27.7816   25.1987 N   0  0  0  0  0  0  0  0  0  0  0  0
  -29.7173  -19.4020   21.0027 N   0  0  0  0  0  0  0  0  0  0  0  0
  -31.4156  -14.7880   19.9337 N   0  0  0  0  0  0  0  0  0  0  0  0
  -28.8134  -11.1554   20.5890 N   0  0  0  0  0  0  0  0  0  0  0  0
  -21.4186  -27.8892   23.6143 N   0  0  0  0  0  0  0  0  0  0  0  0
  -27.0331  -29.0429   27.3032 N   0  0  0  0  0  0  0  0  0  0  0  0
  -30.5759  -21.3827   22.0418 N   0  0  0  0  0  0  0  0  0  0  0  0
  -30.2051  -23.6213   20.3054 N   0  0  3  0  0  0  0  0  0  0  0  0
  -28.9147  -26.6032   29.1940 N   0  3  0  0  0  0  0  0  0  0  0  0
  -30.9708  -11.8694   20.2817 O   0  0  0  0  0  0  0  0  0  0  0  0
  -23.5156  -28.8021   23.1766 O   0  0  0  0  0  0  0  0  0  0  0  0
  -24.2269  -29.3770   26.8315 O   0  0  0  0  0  0  0  0  0  0  0  0
  -28.5666  -27.4786   26.5427 O   0  0  0  0  0  0  0  0  0  0  0  0
  -29.2479  -19.8988   23.2134 O   0  0  0  0  0  0  0  0  0  0  0  0
  -23.2811  -11.1422   21.2442 O   0  0  0  0  0  0  0  0  0  0  0  0
  -26.7509  -23.3123   21.4736 O   0  0  0  0  0  0  0  0  0  1  0  0
  -18.9049  -12.4221   18.1435 F   0  0  0  0  0  0  0  0  0  0  0  0
  -22.1923  -13.6825   21.3073 F   0  0  0  0  0  0  0  0  0  0  0  0
  1  2  1  0  0  0  0
  1  5  2  0  0  0  0
  2  6  2  0  0  0  0
  3  8  2  0  0  0  0
  3 17  1  0  0  0  0
  4  9  1  0  0  0  0
  4 17  2  0  0  0  0
  5 19  1  0  0  0  0
  6 21  1  0  0  0  0
  7 10  2  0  0  0  0
  7 20  1  0  0  0  0
  8 27  1  0  0  0  0
  9 27  2  0  0  0  0
 10 28  1  0  0  0  0
 11 12  2  0  0  0  0
 11 29  1  0  0  0  0
 12 30  1  0  0  0  0
 13 22  1  0  0  0  0
 13 28  2  0  0  0  0
 14 23  2  0  0  0  0
 14 25  1  0  0  0  0
 15 24  2  0  0  0  0
 15 26  1  0  0  0  0
 16 30  2  0  0  0  0
 16 31  1  0  0  0  0
 17 32  1  0  0  0  0
 18 32  1  0  0  0  0
 18 33  2  0  0  0  0
 18 34  1  0  0  0  0
 19 21  2  0  0  0  0
 19 39  1  0  0  0  0
 20 22  2  0  0  0  0
 20 40  1  0  0  0  0
 21 48  1  0  0  0  0
 22 41  1  0  0  0  0
 23 24  1  0  0  0  0
 23 51  1  0  0  0  0
 24 52  1  0  0  0  0
 25 26  2  0  0  0  0
 25 75  1  0  0  0  0
 26 76  1  0  0  0  0
 27 83  1  0  0  0  0
 28 84  1  0  0  0  0
 29 31  2  0  0  0  0
 29 83  1  0  0  0  0
 30 85  1  0  0  0  0
 31 86  1  0  0  0  0
 32 67  2  0  0  0  0
 33 68  1  0  0  0  0
 33 71  1  0  0  0  0
 34 72  1  0  0  0  0
 34 78  2  0  0  0  0
 35 49  1  0  0  0  0
 35 73  1  0  0  0  0
 35 79  2  0  0  0  0
 36 63  1  0  0  0  0
 36 69  1  0  0  0  0
 36 80  2  0  0  0  0
 37 64  1  0  0  0  0
 37 74  1  0  0  0  0
 37 81  2  0  0  0  0
 38 70  1  0  0  0  0
 38 75  1  0  0  0  0
 38 82  2  0  0  0  0
 39 42  1  0  0  0  0
 40 49  1  0  0  0  0
 41 69  1  0  0  0  0
 42 44  1  0  0  0  0
 43 45  1  0  0  0  0
 43 46  1  0  0  0  0
 44 48  1  0  0  0  0
 45 50  1  0  0  0  0
 46 70  1  0  0  0  0
 47 50  1  0  0  0  0
 47 70  1  0  0  0  0
 48 73  1  0  0  0  0
 49 69  1  0  0  0  0
 50 68  1  0  0  0  0
 53 61  1  0  0  0  0
 54 64  1  0  0  0  0
 55 65  1  0  0  0  0
 56 66  1  0  0  0  0
 57 66  1  0  0  0  0
 58 66  1  0  0  0  0
 59 76  1  0  0  0  0
 60 77  1  0  0  0  0
 61 75  1  0  0  0  0
 62 65  1  0  0  0  0
 62 84  1  0  0  0  0
 63 66  1  0  0  0  0
 63 74  1  0  0  0  0
 64 77  1  0  0  0  0
 65 76  1  0  0  0  0
 67 68  1  0  0  0  0
M  CHG  1  77   1
M  ISO  4  38 100  62 101  75 100  84 101
M  END
> <Batch ID>
0015

> <Smiles>
CC[100N:0](c1cc(C)c(C)cc1N(C)C(C)[101CH2:1][101O:1]c1ccc2c(c1)CN(C(=O)C(NC(=O)C(C)NC)C(C)(C)C)C(C(=O)NC1CCCc3ccccc31)C2)[100C:0](=O)N1CCCC(n2nc(-c3ccc(Oc4ccc(F)cc4F)cc3)c(C(N)=O)c2N)C1

> <Shape>
0.253

> <Color>
0.083

> <Negative vol penalty>
0.000

$$$$

  -OEChem-04052315553D

 82 90  0     1  0  0  0  0  0999 V2000
  -28.9755  -31.6186   26.9845 C   0  0  0  0  0  0  0  0  0  0  0  0
  -28.7982  -30.5297   26.1370 C   0  0  0  0  0  0  0  0  0  0  0  0
  -24.4956   -9.8709   22.2169 C   0  0  0  0  0  0  0  0  0  0  0  0
  -24.8520  -11.5918   23.8749 C   0  0  0  0  0  0  0  0  0  0  0  0
  -27.8866  -32.4201   27.3250 C   0  0  0  0  0  0  0  0  0  0  0  0
  -27.5316  -30.2410   25.6303 C   0  0  0  0  0  0  0  0  0  0  0  0
  -27.6181  -29.1582   20.6841 C   0  0  0  0  0  0  0  0  0  0  0  0
  -24.2415   -8.9470   23.2305 C   0  0  0  0  0  0  0  0  0  0  0  0
  -24.5978  -10.6678   24.8885 C   0  0  0  0  0  0  0  0  0  0  0  0
  -28.0470  -27.8829   20.3189 C   0  0  0  0  0  0  0  0  0  0  0  0
  -23.1447   -6.2200   25.3696 C   0  0  0  0  0  0  0  0  0  0  0  0
  -22.0498   -5.3702   25.2130 C   0  0  0  0  0  0  0  0  0  0  0  0
  -25.7507  -27.1935   20.0524 C   0  0  0  0  0  0  0  0  0  0  0  0
  -27.2006  -19.6957   19.0113 C   0  0  0  0  0  0  0  0  0  0  0  0
  -29.6019  -19.6169   18.7575 C   0  0  0  0  0  0  0  0  0  0  0  0
  -20.5781   -7.2838   25.1184 C   0  0  0  0  0  0  0  0  0  0  0  0
  -24.8009  -11.1933   22.5391 C   0  0  0  0  0  0  0  0  0  0  0  0
  -24.1284  -12.9721   20.8386 C   0  0  0  0  0  0  0  0  0  0  0  0
  -26.6078  -32.1467   26.8146 C   0  0  0  0  0  0  0  0  0  0  0  0
  -26.2497  -29.4581   20.7469 C   0  0  0  0  0  0  0  0  0  0  0  0
  -26.4243  -31.0387   25.9654 C   0  0  0  0  0  0  0  0  0  0  0  0
  -25.3071  -28.4741   20.4162 C   0  0  0  0  0  0  0  0  0  0  0  0
  -27.2533  -21.0879   19.0782 C   0  0  0  0  0  0  0  0  0  0  0  0
  -28.3749  -18.9602   18.8511 C   0  0  0  0  0  0  0  0  0  0  0  0
  -24.2926   -9.3454   24.5663 C   0  0  0  0  0  0  0  0  0  0  0  0
  -27.1132  -26.8995   20.0058 C   0  0  0  0  0  0  0  0  0  0  0  0
  -22.9563   -7.6018   25.4008 C   0  0  0  0  0  0  0  0  0  0  0  0
  -28.4803  -21.7447   18.9846 C   0  0  0  0  0  0  0  0  0  0  0  0
  -20.7665   -5.9021   25.0873 C   0  0  0  0  0  0  0  0  0  0  0  0
  -29.6546  -21.0092   18.8243 C   0  0  0  0  0  0  0  0  0  0  0  0
  -21.6730   -8.1337   25.2751 C   0  0  0  0  0  0  0  0  0  0  0  0
  -25.0640  -12.1481   21.4925 C   0  0  0  0  0  0  0  0  0  0  0  0
  -24.8745  -13.6890   19.9354 C   0  0  0  0  0  0  0  0  0  0  0  0
  -22.7117  -13.0798   21.0306 C   0  0  0  0  0  0  0  0  0  0  0  0
  -24.2564  -30.3696   23.0490 C   0  0  0  0  0  0  0  0  0  0  0  0
  -22.1581  -30.6379   20.5899 C   0  0  0  0  0  0  0  0  0  0  0  0
  -21.2517  -29.6925   17.4384 C   0  0  0  0  0  0  0  0  0  0  0  0
  -29.3929  -16.6670   18.6245 C   0  0  0  0  0  0  0  0  0  0  0  0
  -25.4524  -33.0134   27.2487 C   0  0  0  0  0  0  0  0  0  0  0  0
  -25.8039  -30.8463   21.1167 C   0  0  0  0  0  0  0  0  0  0  0  0
  -23.8270  -28.7511   20.4486 C   0  0  0  0  0  0  0  0  0  0  0  0
  -24.2132  -32.8612   26.3704 C   0  0  0  0  0  0  0  0  0  0  0  0
  -29.6787  -13.1225   18.4452 C   0  0  0  0  0  0  0  0  0  0  0  0
  -23.9142  -31.3865   26.1200 C   0  0  0  0  0  0  0  0  0  0  0  0
  -28.4266  -12.6208   19.1682 C   0  0  0  0  0  0  0  0  0  0  0  0
  -30.2451  -14.3815   19.0992 C   0  0  0  0  0  0  0  0  0  0  0  0
  -28.0300  -14.9740   20.0000 C   0  0  0  0  0  0  0  0  0  0  0  0
  -25.0704  -30.7078   25.3758 C   0  0  1  0  0  0  0  0  0  0  0  0
  -24.3738  -30.8935   21.6457 C   0  0  1  0  0  0  0  0  0  0  0  0
  -27.3858  -13.7447   19.3386 C   0  0  2  0  0  0  0  0  0  0  0  0
  -25.9865  -21.8593   19.2514 C   0  0  0  0  0  0  0  0  0  0  0  0
  -19.4680  -30.0522   15.7103 C   0  0  0  0  0  0  0  0  0  0  0  0
  -20.2652  -28.8438   22.1736 C   0  0  0  0  0  0  0  0  0  0  0  0
  -18.9675  -28.4699   20.0655 C   0  0  0  0  0  0  0  0  0  0  0  0
  -19.1586  -30.7668   21.0197 C   0  0  0  0  0  0  0  0  0  0  0  0
  -23.1958  -30.7811   15.4905 C   0  0  0  0  0  0  0  0  0  0  0  0
  -28.7596  -25.1953   20.2083 C   0  0  0  0  0  0  0  0  0  1  0  0
  -28.7118  -23.6853   20.3397 C   0  0  0  0  0  0  0  0  0  0  0  0
  -21.1743  -29.7107   19.9180 C   0  0  1  0  0  0  0  0  0  0  0  0
  -20.8256  -30.5024   16.2273 C   0  0  2  0  0  0  0  0  0  0  0  0
  -19.9192  -29.4417   20.7954 C   0  0  0  0  0  0  0  0  0  0  0  0
  -26.3093  -12.3242   21.0428 N   0  0  0  0  0  0  0  0  0  0  0  0
  -26.1614  -13.2670   20.0966 N   0  0  0  0  0  0  0  0  0  0  0  0
  -23.4408  -30.1217   20.8223 N   0  0  0  0  0  0  0  0  0  0  0  0
  -29.2038  -15.4037   19.2238 N   0  0  0  0  0  0  0  0  0  0  0  0
  -24.5487  -14.6328   19.0268 N   0  0  0  0  0  0  0  0  0  0  0  0
  -22.1053  -12.2699   22.0006 N   0  0  0  0  0  0  0  0  0  0  0  0
  -28.3218  -17.5459   18.7817 N   0  0  0  0  0  0  0  0  0  0  0  0
  -25.0341  -31.0463   23.9692 N   0  0  0  0  0  0  0  0  0  0  0  0
  -20.8786  -30.3022   18.6175 N   0  0  0  0  0  0  0  0  0  0  0  0
  -21.8204  -30.3526   15.1278 N   0  3  0  0  0  0  0  0  0  0  0  0
  -22.0019  -13.8591   20.3506 O   0  0  0  0  0  0  0  0  0  0  0  0
  -23.5140  -29.4224   23.2802 O   0  0  0  0  0  0  0  0  0  0  0  0
  -21.8037  -31.7805   20.8908 O   0  0  0  0  0  0  0  0  0  0  0  0
  -21.8520  -28.6240   17.3476 O   0  0  0  0  0  0  0  0  0  0  0  0
  -30.4174  -16.9390   17.9933 O   0  0  0  0  0  0  0  0  0  0  0  0
  -24.0445   -8.4442   25.5556 O   0  0  0  0  0  0  0  0  0  0  0  0
  -27.5291  -25.6537   19.6496 O   0  0  0  0  0  0  0  0  0  1  0  0
  -28.5486  -23.1116   19.0483 O   0  0  0  0  0  0  0  0  0  0  0  0
  -19.7153   -5.0859   24.9353 F   0  0  0  0  0  0  0  0  0  0  0  0
  -30.8369  -21.6340   18.7336 F   0  0  0  0  0  0  0  0  0  0  0  0
  -21.4859   -9.4603   25.3031 F   0  0  0  0  0  0  0  0  0  0  0  0
  1  2  1  0  0  0  0
  1  5  2  0  0  0  0
  2  6  2  0  0  0  0
  3  8  2  0  0  0  0
  3 17  1  0  0  0  0
  4  9  1  0  0  0  0
  4 17  2  0  0  0  0
  5 19  1  0  0  0  0
  6 21  1  0  0  0  0
  7 10  2  0  0  0  0
  7 20  1  0  0  0  0
  8 25  1  0  0  0  0
  9 25  2  0  0  0  0
 10 26  1  0  0  0  0
 11 12  2  0  0  0  0
 11 27  1  0  0  0  0
 12 29  1  0  0  0  0
 13 22  1  0  0  0  0
 13 26  2  0  0  0  0
 14 23  2  0  0  0  0
 14 24  1  0  0  0  0
 15 24  2  0  0  0  0
 15 30  1  0  0  0  0
 16 29  2  0  0  0  0
 16 31  1  0  0  0  0
 17 32  1  0  0  0  0
 18 32  1  0  0  0  0
 18 33  2  0  0  0  0
 18 34  1  0  0  0  0
 19 21  2  0  0  0  0
 19 39  1  0  0  0  0
 20 22  2  0  0  0  0
 20 40  1  0  0  0  0
 21 48  1  0  0  0  0
 22 41  1  0  0  0  0
 23 28  1  0  0  0  0
 23 51  1  0  0  0  0
 24 68  1  0  0  0  0
 25 77  1  0  0  0  0
 26 78  1  0  0  0  0
 27 31  2  0  0  0  0
 27 77  1  0  0  0  0
 28 30  2  0  0  0  0
 28 79  1  0  0  0  0
 29 80  1  0  0  0  0
 30 81  1  0  0  0  0
 31 82  1  0  0  0  0
 32 62  2  0  0  0  0
 33 63  1  0  0  0  0
 33 66  1  0  0  0  0
 34 67  1  0  0  0  0
 34 72  2  0  0  0  0
 35 49  1  0  0  0  0
 35 69  1  0  0  0  0
 35 73  2  0  0  0  0
 36 59  1  0  0  0  0
 36 64  1  0  0  0  0
 36 74  2  0  0  0  0
 37 60  1  0  0  0  0
 37 70  1  0  0  0  0
 37 75  2  0  0  0  0
 38 65  1  0  0  0  0
 38 68  1  0  0  0  0
 38 76  2  0  0  0  0
 39 42  1  0  0  0  0
 40 49  1  0  0  0  0
 41 64  1  0  0  0  0
 42 44  1  0  0  0  0
 43 45  1  0  0  0  0
 43 46  1  0  0  0  0
 44 48  1  0  0  0  0
 45 50  1  0  0  0  0
 46 65  1  0  0  0  0
 47 50  1  0  0  0  0
 47 65  1  0  0  0  0
 48 69  1  0  0  0  0
 49 64  1  0  0  0  0
 50 63  1  0  0  0  0
 52 60  1  0  0  0  0
 53 61  1  0  0  0  0
 54 61  1  0  0  0  0
 55 61  1  0  0  0  0
 56 71  1  0  0  0  0
 57 58  1  0  0  0  0
 57 78  1  0  0  0  0
 58 79  1  0  0  0  0
 59 61  1  0  0  0  0
 59 70  1  0  0  0  0
 60 71  1  0  0  0  0
 62 63  1  0  0  0  0
M  CHG  1  71   1
M  ISO  4  38 100  57 101  68 100  78 101
M  END
> <Batch ID>
0015

> <Smiles>
CNC(C)C(=O)NC(C(=O)N1Cc2cc([101O:1][101CH2:1]COc3c(C)cc([100NH:0][100C:0](=O)N4CCCC(n5nc(-c6ccc(Oc7ccc(F)cc7F)cc6)c(C(N)=O)c5N)C4)cc3F)ccc2CC1C(=O)NC1CCCc2ccccc21)C(C)(C)C

> <Shape>
0.298

> <Color>
0.123

> <Negative vol penalty>
0.000

$$$$

  -OEChem-04052315553D

 90 98  0     1  0  0  0  0  0999 V2000
  -28.5973  -15.2069   23.4327 C   0  0  0  0  0  0  0  0  0  0  0  0
  -28.7295  -34.4247   17.9647 C   0  0  0  0  0  0  0  0  0  0  0  0
  -29.6905  -33.5645   18.4862 C   0  0  0  0  0  0  0  0  0  0  0  0
  -23.2369   -9.8119   19.9186 C   0  0  0  0  0  0  0  0  0  0  0  0
  -23.7957   -9.9241   22.2664 C   0  0  0  0  0  0  0  0  0  0  0  0
  -27.4340  -34.4153   18.4799 C   0  0  0  0  0  0  0  0  0  0  0  0
  -29.3568  -32.6951   19.5241 C   0  0  0  0  0  0  0  0  0  0  0  0
  -30.0972  -25.5690   18.7750 C   0  0  0  0  0  0  0  0  0  0  0  0
  -22.5192   -8.6376   20.1456 C   0  0  0  0  0  0  0  0  0  0  0  0
  -23.0780   -8.7498   22.4934 C   0  0  0  0  0  0  0  0  0  0  0  0
  -30.4090  -24.2093   18.7845 C   0  0  0  0  0  0  0  0  0  0  0  0
  -19.8430   -7.8390   22.8483 C   0  0  0  0  0  0  0  0  0  0  0  0
  -18.9902   -7.8055   23.9516 C   0  0  0  0  0  0  0  0  0  0  0  0
  -29.4542  -23.9948   20.9959 C   0  0  0  0  0  0  0  0  0  0  0  0
  -29.9849  -17.6452   23.3355 C   0  0  0  0  0  0  0  0  0  0  0  0
  -30.7151  -19.5342   22.0181 C   0  0  0  0  0  0  0  0  0  0  0  0
  -20.2373   -5.9457   24.8590 C   0  0  0  0  0  0  0  0  0  0  0  0
  -23.8752  -10.4552   20.9791 C   0  0  0  0  0  0  0  0  0  0  0  0
  -24.1287  -12.9871   20.7986 C   0  0  0  0  0  0  0  0  0  0  0  0
  -27.0817  -33.5386   19.5181 C   0  0  0  0  0  0  0  0  0  0  0  0
  -29.4482  -26.1442   19.8710 C   0  0  0  0  0  0  0  0  0  0  0  0
  -28.0557  -32.6749   20.0546 C   0  0  0  0  0  0  0  0  0  0  0  0
  -29.1283  -25.3536   20.9870 C   0  0  0  0  0  0  0  0  0  0  0  0
  -29.9637  -16.8529   22.1878 C   0  0  0  0  0  0  0  0  0  0  0  0
  -30.6940  -18.7419   20.8703 C   0  0  0  0  0  0  0  0  0  0  0  0
  -22.4397   -8.1066   21.4329 C   0  0  0  0  0  0  0  0  0  0  0  0
  -30.0885  -23.4242   19.8923 C   0  0  0  0  0  0  0  0  0  0  0  0
  -20.8929   -6.9258   22.7504 C   0  0  0  0  0  0  0  0  0  0  0  0
  -19.1873   -6.8589   24.9570 C   0  0  0  0  0  0  0  0  0  0  0  0
  -30.3606  -18.9859   23.2507 C   0  0  0  0  0  0  0  0  0  0  0  0
  -21.0901   -5.9792   23.7557 C   0  0  0  0  0  0  0  0  0  0  0  0
  -30.3183  -17.4012   20.9552 C   0  0  0  0  0  0  0  0  0  0  0  0
  -24.6172  -11.6679   20.7452 C   0  0  0  0  0  0  0  0  0  0  0  0
  -25.2184  -13.7691   20.5027 C   0  0  0  0  0  0  0  0  0  0  0  0
  -22.8080  -13.4632   21.0898 C   0  0  0  0  0  0  0  0  0  0  0  0
  -27.9756  -29.2359   21.4036 C   0  0  0  0  0  0  0  0  0  0  0  0
  -26.0838  -26.9179   22.0807 C   0  0  0  0  0  0  0  0  0  0  0  0
  -24.0547  -24.1810   22.2508 C   0  0  0  0  0  0  0  0  0  0  0  0
  -31.0313  -13.4973   21.6075 C   0  0  0  0  0  0  0  0  0  0  0  0
  -25.6811  -33.5979   20.0745 C   0  0  0  0  0  0  0  0  0  0  0  0
  -29.1483  -27.6175   19.9299 C   0  0  0  0  0  0  0  0  0  0  0  0
  -28.4614  -26.0226   22.1578 C   0  0  0  0  0  0  0  0  0  0  0  0
  -25.3099  -32.3829   20.9208 C   0  0  0  0  0  0  0  0  0  0  0  0
  -29.5470  -13.0322   18.2486 C   0  0  0  0  0  0  0  0  0  0  0  0
  -26.4298  -32.0543   21.9031 C   0  0  0  0  0  0  0  0  0  0  0  0
  -28.0947  -12.6849   18.5714 C   0  0  0  0  0  0  0  0  0  0  0  0
  -30.4935  -12.6098   19.3682 C   0  0  0  0  0  0  0  0  0  0  0  0
  -28.6708  -12.8008   21.0281 C   0  0  0  0  0  0  0  0  0  0  0  0
  -27.7257  -31.6999   21.1639 C   0  0  1  0  0  0  0  0  0  0  0  0
  -27.8347  -27.9371   20.6657 C   0  0  1  0  0  0  0  0  0  0  0  0
  -27.6856  -13.2551   19.9406 C   0  0  2  0  0  0  0  0  0  0  0  0
  -33.1755  -20.5157   19.6868 C   0  0  0  0  0  0  0  0  0  0  0  0
  -21.8463  -23.4201   23.1680 C   0  0  0  0  0  0  0  0  0  0  0  0
  -27.2991  -26.7705   24.8745 C   0  0  0  0  0  0  0  0  0  0  0  0
  -25.4736  -25.1783   25.5075 C   0  0  0  0  0  0  0  0  0  0  0  0
  -24.9099  -27.5071   24.8133 C   0  0  0  0  0  0  0  0  0  0  0  0
  -30.0656  -19.2112   17.4465 C   0  0  0  0  0  0  0  0  0  0  0  0
  -28.6877  -19.8021   19.4620 C   0  0  0  0  0  0  0  0  0  0  0  0
  -31.6853  -14.9603   23.4814 C   0  0  0  0  0  0  0  0  0  0  0  0
  -23.0159  -23.5595   19.5502 C   0  0  0  0  0  0  0  0  0  0  0  0
  -32.4430  -19.3104   19.2036 C   0  0  0  0  0  0  0  0  0  0  0  0
  -30.4011  -21.4327   18.6298 C   0  0  0  0  0  0  0  0  0  1  0  0
  -29.5544  -15.4218   22.3273 C   0  0  1  0  0  0  0  0  0  0  0  0
  -25.6954  -25.8506   23.0723 C   0  0  1  0  0  0  0  0  0  0  0  0
  -22.5737  -24.0056   21.9676 C   0  0  2  0  0  0  0  0  0  0  0  0
  -25.8616  -26.3210   24.5449 C   0  0  0  0  0  0  0  0  0  0  0  0
  -30.0597  -19.9429   18.7929 C   0  0  0  0  0  0  0  0  0  0  0  0
  -27.8441  -15.0498   24.3015 N   0  0  0  0  0  0  0  0  0  0  0  0
  -25.9162  -11.6111   20.4392 N   0  0  0  0  0  0  0  0  0  0  0  0
  -26.2531  -12.9044   20.2976 N   0  0  0  0  0  0  0  0  0  0  0  0
  -27.4255  -26.9526   21.6818 N   0  0  0  0  0  0  0  0  0  0  0  0
  -30.0573  -13.1294   20.6647 N   0  0  0  0  0  0  0  0  0  0  0  0
  -25.3830  -15.1051   20.4004 N   0  0  0  0  0  0  0  0  0  0  0  0
  -21.8065  -12.5242   21.3723 N   0  0  0  0  0  0  0  0  0  0  0  0
  -27.6602  -30.3492   20.6482 N   0  0  0  0  0  0  0  0  0  0  0  0
  -24.3380  -25.4446   22.7243 N   0  0  0  0  0  0  0  0  0  0  0  0
  -31.0548  -19.3229   19.6526 N   0  0  3  0  0  0  0  0  0  0  0  0
  -30.7041  -14.5352   22.4932 N   0  0  0  0  0  0  0  0  0  0  0  0
  -22.3728  -23.0940   20.8059 N   0  3  0  0  0  0  0  0  0  0  0  0
  -22.5205  -14.6842   21.0831 O   0  0  0  0  0  0  0  0  0  0  0  0
  -28.3419  -29.2298   22.5730 O   0  0  0  0  0  0  0  0  0  0  0  0
  -25.2242  -27.7045   21.6736 O   0  0  0  0  0  0  0  0  0  0  0  0
  -24.8774  -23.2853   22.0735 O   0  0  0  0  0  0  0  0  0  0  0  0
  -32.1341  -12.9369   21.6487 O   0  0  0  0  0  0  0  0  0  0  0  0
  -21.7392   -6.9609   21.6548 O   0  0  0  0  0  0  0  0  0  0  0  0
  -30.3916  -22.0965   19.8930 O   0  0  0  0  0  0  0  0  0  1  0  0
  -18.3693   -6.8278   26.0171 F   0  0  0  0  0  0  0  0  0  0  0  0
  -30.3809  -19.7468   24.3530 F   0  0  0  0  0  0  0  0  0  0  0  0
  -22.0977   -5.1002   23.6677 F   0  0  0  0  0  0  0  0  0  0  0  0
  -30.2900  -16.4117   19.5322 Cl  0  0  0  0  0  0  0  0  0  0  0  0
  1 63  1  0  0  0  0
  1 68  3  0  0  0  0
  2  3  1  0  0  0  0
  2  6  2  0  0  0  0
  3  7  2  0  0  0  0
  4  9  2  0  0  0  0
  4 18  1  0  0  0  0
  5 10  1  0  0  0  0
  5 18  2  0  0  0  0
  6 20  1  0  0  0  0
  7 22  1  0  0  0  0
  8 11  2  0  0  0  0
  8 21  1  0  0  0  0
  9 26  1  0  0  0  0
 10 26  2  0  0  0  0
 11 27  1  0  0  0  0
 12 13  2  0  0  0  0
 12 28  1  0  0  0  0
 13 29  1  0  0  0  0
 14 23  1  0  0  0  0
 14 27  2  0  0  0  0
 15 24  2  0  0  0  0
 15 30  1  0  0  0  0
 16 25  1  0  0  0  0
 16 30  2  0  0  0  0
 17 29  2  0  0  0  0
 17 31  1  0  0  0  0
 18 33  1  0  0  0  0
 19 33  1  0  0  0  0
 19 34  2  0  0  0  0
 19 35  1  0  0  0  0
 20 22  2  0  0  0  0
 20 40  1  0  0  0  0
 21 23  2  0  0  0  0
 21 41  1  0  0  0  0
 22 49  1  0  0  0  0
 23 42  1  0  0  0  0
 24 32  1  0  0  0  0
 24 63  1  0  0  0  0
 25 32  2  0  0  0  0
 25 77  1  0  0  0  0
 26 85  1  0  0  0  0
 27 86  1  0  0  0  0
 28 31  2  0  0  0  0
 28 85  1  0  0  0  0
 29 87  1  0  0  0  0
 30 88  1  0  0  0  0
 31 89  1  0  0  0  0
 32 90  1  0  0  0  0
 33 69  2  0  0  0  0
 34 70  1  0  0  0  0
 34 73  1  0  0  0  0
 35 74  1  0  0  0  0
 35 80  2  0  0  0  0
 36 50  1  0  0  0  0
 36 75  1  0  0  0  0
 36 81  2  0  0  0  0
 37 64  1  0  0  0  0
 37 71  1  0  0  0  0
 37 82  2  0  0  0  0
 38 65  1  0  0  0  0
 38 76  1  0  0  0  0
 38 83  2  0  0  0  0
 39 72  1  0  0  0  0
 39 78  1  0  0  0  0
 39 84  2  0  0  0  0
 40 43  1  0  0  0  0
 41 50  1  0  0  0  0
 42 71  1  0  0  0  0
 43 45  1  0  0  0  0
 44 46  1  0  0  0  0
 44 47  1  0  0  0  0
 45 49  1  0  0  0  0
 46 51  1  0  0  0  0
 47 72  1  0  0  0  0
 48 51  1  0  0  0  0
 48 72  1  0  0  0  0
 49 75  1  0  0  0  0
 50 71  1  0  0  0  0
 51 70  1  0  0  0  0
 52 61  1  0  0  0  0
 53 65  1  0  0  0  0
 54 66  1  0  0  0  0
 55 66  1  0  0  0  0
 56 66  1  0  0  0  0
 57 67  1  0  0  0  0
 58 67  1  0  0  0  0
 59 78  1  0  0  0  0
 60 79  1  0  0  0  0
 61 77  1  0  0  0  0
 62 67  1  0  0  0  0
 62 86  1  0  0  0  0
 63 78  1  0  0  0  0
 64 66  1  0  0  0  0
 64 76  1  0  0  0  0
 65 79  1  0  0  0  0
 67 77  1  0  0  0  0
 69 70  1  0  0  0  0
M  CHG  1  79   1
M  ISO  4  39 100  62 101  78 100  86 101
M  END
> <Batch ID>
0015

> <Smiles>
CCN(c1cc(F)cc(C(C#N)[100N:0](C)[100C:0](=O)N2CCCC(n3nc(-c4ccc(Oc5ccc(F)cc5F)cc4)c(C(N)=O)c3N)C2)c1Cl)C(C)(C)[101CH2:1][101O:1]c1ccc2c(c1)CN(C(=O)C(NC(=O)C(C)NC)C(C)(C)C)C(C(=O)NC1CCCc3ccccc31)C2

> <Shape>
0.278

> <Color>
0.178

> <Negative vol penalty>
0.000

$$$$

  -OEChem-04052315553D

 84 92  0     1  0  0  0  0  0999 V2000
  -27.3049  -31.8836   27.2259 C   0  0  0  0  0  0  0  0  0  0  0  0
  -27.5645  -30.6500   26.6373 C   0  0  0  0  0  0  0  0  0  0  0  0
  -23.1167   -9.8012   20.1092 C   0  0  0  0  0  0  0  0  0  0  0  0
  -23.7969  -10.0408   22.4151 C   0  0  0  0  0  0  0  0  0  0  0  0
  -26.0893  -32.5248   26.9910 C   0  0  0  0  0  0  0  0  0  0  0  0
  -26.6080  -30.0564   25.8143 C   0  0  0  0  0  0  0  0  0  0  0  0
  -28.6077  -28.1634   21.5643 C   0  0  0  0  0  0  0  0  0  0  0  0
  -22.3757   -8.6684   20.4455 C   0  0  0  0  0  0  0  0  0  0  0  0
  -23.0559   -8.9079   22.7514 C   0  0  0  0  0  0  0  0  0  0  0  0
  -29.2715  -26.9412   21.6623 C   0  0  0  0  0  0  0  0  0  0  0  0
  -19.8166   -8.1310   23.3206 C   0  0  0  0  0  0  0  0  0  0  0  0
  -19.0201   -8.1954   24.4639 C   0  0  0  0  0  0  0  0  0  0  0  0
  -27.3169  -25.8177   20.8040 C   0  0  0  0  0  0  0  0  0  0  0  0
  -31.4536  -19.6169   22.3078 C   0  0  0  0  0  0  0  0  0  0  0  0
  -20.2538   -6.3548   25.4269 C   0  0  0  0  0  0  0  0  0  0  0  0
  -23.8274  -10.4874   21.0940 C   0  0  0  0  0  0  0  0  0  0  0  0
  -24.1491  -12.9932   20.7397 C   0  0  0  0  0  0  0  0  0  0  0  0
  -25.1214  -31.9432   26.1569 C   0  0  0  0  0  0  0  0  0  0  0  0
  -27.2876  -28.2207   21.0949 C   0  0  0  0  0  0  0  0  0  0  0  0
  -25.3778  -30.6898   25.5691 C   0  0  0  0  0  0  0  0  0  0  0  0
  -26.6395  -27.0421   20.6986 C   0  0  0  0  0  0  0  0  0  0  0  0
  -29.6700  -17.9983   22.3545 C   0  0  0  0  0  0  0  0  0  0  0  0
  -30.1636  -19.2567   22.6854 C   0  0  0  0  0  0  0  0  0  0  0  0
  -22.3453   -8.2217   21.7665 C   0  0  0  0  0  0  0  0  0  0  0  0
  -28.6251  -25.7678   21.2849 C   0  0  0  0  0  0  0  0  0  0  0  0
  -20.8317   -7.1785   23.2304 C   0  0  0  0  0  0  0  0  0  0  0  0
  -19.2387   -7.3073   25.5170 C   0  0  0  0  0  0  0  0  0  0  0  0
  -21.0503   -6.2904   24.2836 C   0  0  0  0  0  0  0  0  0  0  0  0
  -24.5935  -11.6574   20.7472 C   0  0  0  0  0  0  0  0  0  0  0  0
  -32.2237  -18.7026   21.6033 C   0  0  0  0  0  0  0  0  0  0  0  0
  -25.2459  -13.7178   20.3417 C   0  0  0  0  0  0  0  0  0  0  0  0
  -30.4852  -17.1249   21.6487 C   0  0  0  0  0  0  0  0  0  0  0  0
  -22.8600  -13.5309   21.0636 C   0  0  0  0  0  0  0  0  0  0  0  0
  -24.5076  -29.1482   22.3258 C   0  0  0  0  0  0  0  0  0  0  0  0
  -23.4365  -28.6064   19.3123 C   0  0  0  0  0  0  0  0  0  0  0  0
  -23.8479  -26.9813   16.3396 C   0  0  0  0  0  0  0  0  0  0  0  0
  -30.6926  -14.8456   20.5962 C   0  0  0  0  0  0  0  0  0  0  0  0
  -23.8033  -32.6521   25.9706 C   0  0  0  0  0  0  0  0  0  0  0  0
  -26.5948  -29.5499   20.9700 C   0  0  0  0  0  0  0  0  0  0  0  0
  -25.2295  -27.0520   20.1691 C   0  0  0  0  0  0  0  0  0  0  0  0
  -22.9936  -32.1310   24.7860 C   0  0  0  0  0  0  0  0  0  0  0  0
  -29.6837  -12.1989   18.4387 C   0  0  0  0  0  0  0  0  0  0  0  0
  -22.9630  -30.6059   24.7898 C   0  0  0  0  0  0  0  0  0  0  0  0
  -28.2329  -11.9320   18.8464 C   0  0  0  0  0  0  0  0  0  0  0  0
  -30.5545  -12.5551   19.6422 C   0  0  0  0  0  0  0  0  0  0  0  0
  -28.5942  -13.3858   20.8818 C   0  0  0  0  0  0  0  0  0  0  0  0
  -24.3755  -30.0254   24.6504 C   0  0  1  0  0  0  0  0  0  0  0  0
  -25.0737  -29.4326   20.9634 C   0  0  1  0  0  0  0  0  0  0  0  0
  -27.6643  -13.0864   19.6946 C   0  0  2  0  0  0  0  0  0  0  0  0
  -28.2857  -17.5988   22.7543 C   0  0  0  0  0  0  0  0  0  0  0  0
  -33.6088  -19.0100   21.1642 C   0  0  0  0  0  0  0  0  0  0  0  0
  -22.7913  -26.7112   14.0795 C   0  0  0  0  0  0  0  0  0  0  0  0
  -21.2952  -26.8065   20.5311 C   0  0  0  0  0  0  0  0  0  0  0  0
  -20.9038  -25.8466   18.2522 C   0  0  0  0  0  0  0  0  0  0  0  0
  -20.4914  -28.2711   18.6700 C   0  0  0  0  0  0  0  0  0  0  0  0
  -29.4174  -20.1890   24.8612 C   0  0  0  0  0  0  0  0  0  0  0  0
  -26.2436  -28.0437   14.9643 C   0  0  0  0  0  0  0  0  0  0  0  0
  -29.3041  -22.3955   22.3872 C   0  0  0  0  0  0  0  0  0  0  0  0
  -28.5305  -21.1254   22.7200 C   0  0  0  0  0  0  0  0  0  0  0  0
  -28.4682  -23.4199   21.6289 C   0  0  0  0  0  0  0  0  0  1  0  0
  -22.8689  -27.4162   18.5772 C   0  0  1  0  0  0  0  0  0  0  0  0
  -23.8111  -27.4791   14.9060 C   0  0  2  0  0  0  0  0  0  0  0  0
  -21.4157  -27.0843   19.0194 C   0  0  0  0  0  0  0  0  0  0  0  0
  -25.8729  -11.5377   20.3827 N   0  0  0  0  0  0  0  0  0  0  0  0
  -26.2418  -12.8074   20.1424 N   0  0  0  0  0  0  0  0  0  0  0  0
  -31.7236  -17.4975   21.2976 N   0  3  0  0  0  0  0  0  0  0  0  0
  -24.5922  -28.3756   20.0717 N   0  0  0  0  0  0  0  0  0  0  0  0
  -29.9558  -13.6591   20.3957 N   0  0  0  0  0  0  0  0  0  0  0  0
  -25.4460  -15.0384   20.1463 N   0  0  0  0  0  0  0  0  0  0  0  0
  -21.8458  -12.6458   21.4540 N   0  0  0  0  0  0  0  0  0  0  0  0
  -30.0086  -15.8374   21.2983 N   0  0  0  0  0  0  0  0  0  0  0  0
  -24.8200  -30.1022   23.2753 N   0  0  0  0  0  0  0  0  0  0  0  0
  -23.0083  -27.7103   17.1550 N   0  0  0  0  0  0  0  0  0  0  0  0
  -29.3779  -20.1741   23.3977 N   0  0  3  0  0  0  0  0  0  0  0  0
  -25.1486  -27.3203   14.2680 N   0  3  0  0  0  0  0  0  0  0  0  0
  -22.6102  -14.7581   20.9927 O   0  0  0  0  0  0  0  0  0  0  0  0
  -23.8357  -28.1386   22.5022 O   0  0  0  0  0  0  0  0  0  0  0  0
  -22.8791  -29.7021   19.2104 O   0  0  0  0  0  0  0  0  0  0  0  0
  -24.5484  -26.0377   16.6993 O   0  0  0  0  0  0  0  0  0  0  0  0
  -31.8355  -14.9825   20.1523 O   0  0  0  0  0  0  0  0  0  0  0  0
  -21.6221   -7.1165   22.0951 O   0  0  0  0  0  0  0  0  0  0  0  0
  -29.2704  -24.5735   21.3801 O   0  0  0  0  0  0  0  0  0  1  0  0
  -18.4748   -7.3702   26.6155 F   0  0  0  0  0  0  0  0  0  0  0  0
  -22.0247   -5.3740   24.2032 F   0  0  0  0  0  0  0  0  0  0  0  0
  1  2  1  0  0  0  0
  1  5  2  0  0  0  0
  2  6  2  0  0  0  0
  3  8  2  0  0  0  0
  3 16  1  0  0  0  0
  4  9  1  0  0  0  0
  4 16  2  0  0  0  0
  5 18  1  0  0  0  0
  6 20  1  0  0  0  0
  7 10  2  0  0  0  0
  7 19  1  0  0  0  0
  8 24  1  0  0  0  0
  9 24  2  0  0  0  0
 10 25  1  0  0  0  0
 11 12  2  0  0  0  0
 11 26  1  0  0  0  0
 12 27  1  0  0  0  0
 13 21  1  0  0  0  0
 13 25  2  0  0  0  0
 14 23  1  0  0  0  0
 14 30  2  0  0  0  0
 15 27  2  0  0  0  0
 15 28  1  0  0  0  0
 16 29  1  0  0  0  0
 17 29  1  0  0  0  0
 17 31  2  0  0  0  0
 17 33  1  0  0  0  0
 18 20  2  0  0  0  0
 18 38  1  0  0  0  0
 19 21  2  0  0  0  0
 19 39  1  0  0  0  0
 20 47  1  0  0  0  0
 21 40  1  0  0  0  0
 22 23  2  0  0  0  0
 22 32  1  0  0  0  0
 22 50  1  0  0  0  0
 23 74  1  0  0  0  0
 24 81  1  0  0  0  0
 25 82  1  0  0  0  0
 26 28  2  0  0  0  0
 26 81  1  0  0  0  0
 27 83  1  0  0  0  0
 28 84  1  0  0  0  0
 29 64  2  0  0  0  0
 30 51  1  0  0  0  0
 30 66  1  0  0  0  0
 31 65  1  0  0  0  0
 31 69  1  0  0  0  0
 32 66  2  0  0  0  0
 32 71  1  0  0  0  0
 33 70  1  0  0  0  0
 33 76  2  0  0  0  0
 34 48  1  0  0  0  0
 34 72  1  0  0  0  0
 34 77  2  0  0  0  0
 35 61  1  0  0  0  0
 35 67  1  0  0  0  0
 35 78  2  0  0  0  0
 36 62  1  0  0  0  0
 36 73  1  0  0  0  0
 36 79  2  0  0  0  0
 37 68  1  0  0  0  0
 37 71  1  0  0  0  0
 37 80  2  0  0  0  0
 38 41  1  0  0  0  0
 39 48  1  0  0  0  0
 40 67  1  0  0  0  0
 41 43  1  0  0  0  0
 42 44  1  0  0  0  0
 42 45  1  0  0  0  0
 43 47  1  0  0  0  0
 44 49  1  0  0  0  0
 45 68  1  0  0  0  0
 46 49  1  0  0  0  0
 46 68  1  0  0  0  0
 47 72  1  0  0  0  0
 48 67  1  0  0  0  0
 49 65  1  0  0  0  0
 52 62  1  0  0  0  0
 53 63  1  0  0  0  0
 54 63  1  0  0  0  0
 55 63  1  0  0  0  0
 56 74  1  0  0  0  0
 57 75  1  0  0  0  0
 58 59  1  0  0  0  0
 58 60  1  0  0  0  0
 59 74  1  0  0  0  0
 60 82  1  0  0  0  0
 61 63  1  0  0  0  0
 61 73  1  0  0  0  0
 62 75  1  0  0  0  0
 64 65  1  0  0  0  0
M  CHG  2  66   1  75   1
M  ISO  4  37 100  60 101  71 100  82 101
M  END
> <Batch ID>
0015

> <Smiles>
CNC(C)C(=O)NC(C(=O)N1Cc2cc([101O:1][101CH2:1]CCN(C)c3cc(C)nc([100NH:0][100C:0](=O)N4CCCC(n5nc(-c6ccc(Oc7ccc(F)cc7F)cc6)c(C(N)=O)c5N)C4)c3C)ccc2CC1C(=O)NC1CCCc2ccccc21)C(C)(C)C

> <Shape>
0.312

> <Color>
0.214

> <Negative vol penalty>
0.000

$$$$

  -OEChem-04052315553D

 77 84  0     1  0  0  0  0  0999 V2000
  -17.7900  -25.3064   25.2653 C   0  0  0  0  0  0  0  0  0  0  0  0
  -19.0079  -24.7329   24.9175 C   0  0  0  0  0  0  0  0  0  0  0  0
  -25.6972  -13.8663   20.1141 C   0  0  0  0  0  0  0  0  0  0  0  0
  -24.4299  -13.2891   22.0884 C   0  0  0  0  0  0  0  0  0  0  0  0
  -17.3960  -26.5066   24.6776 C   0  0  0  0  0  0  0  0  0  0  0  0
  -19.8374  -25.3655   23.9909 C   0  0  0  0  0  0  0  0  0  0  0  0
  -24.3105  -23.4334   23.3110 C   0  0  0  0  0  0  0  0  0  0  0  0
  -25.8905  -12.5120   19.8422 C   0  0  0  0  0  0  0  0  0  0  0  0
  -24.6232  -11.9347   21.8165 C   0  0  0  0  0  0  0  0  0  0  0  0
  -24.5170  -22.2277   22.6421 C   0  0  0  0  0  0  0  0  0  0  0  0
  -23.3187   -9.5996   19.7510 C   0  0  0  0  0  0  0  0  0  0  0  0
  -22.2155   -8.7536   19.8642 C   0  0  0  0  0  0  0  0  0  0  0  0
  -25.2579  -23.4422   20.6941 C   0  0  0  0  0  0  0  0  0  0  0  0
  -23.3702   -7.4747   21.5578 C   0  0  0  0  0  0  0  0  0  0  0  0
  -24.9670  -14.2549   21.2373 C   0  0  0  0  0  0  0  0  0  0  0  0
  -23.7071  -16.4673   21.0765 C   0  0  0  0  0  0  0  0  0  0  0  0
  -18.2161  -27.1471   23.7342 C   0  0  0  0  0  0  0  0  0  0  0  0
  -24.5662  -24.6549   22.6716 C   0  0  0  0  0  0  0  0  0  0  0  0
  -19.4683  -26.5896   23.4046 C   0  0  0  0  0  0  0  0  0  0  0  0
  -25.0563  -24.6620   21.3579 C   0  0  0  0  0  0  0  0  0  0  0  0
  -25.3535  -11.5462   20.6933 C   0  0  0  0  0  0  0  0  0  0  0  0
  -24.9880  -22.2320   21.3325 C   0  0  0  0  0  0  0  0  0  0  0  0
  -24.4476   -9.3832   20.5411 C   0  0  0  0  0  0  0  0  0  0  0  0
  -22.2412   -7.6911   20.7676 C   0  0  0  0  0  0  0  0  0  0  0  0
  -24.4733   -8.3207   21.4445 C   0  0  0  0  0  0  0  0  0  0  0  0
  -24.7674  -15.6538   21.5190 C   0  0  0  0  0  0  0  0  0  0  0  0
  -23.9762  -17.7033   21.6116 C   0  0  0  0  0  0  0  0  0  0  0  0
  -22.5797  -16.1353   20.2552 C   0  0  0  0  0  0  0  0  0  0  0  0
  -22.8054  -27.1739   21.8603 C   0  0  0  0  0  0  0  0  0  0  0  0
  -25.6786  -28.4201   21.0152 C   0  0  0  0  0  0  0  0  0  0  0  0
  -28.9099  -27.8680   20.0660 C   0  0  0  0  0  0  0  0  0  0  0  0
  -26.7713  -18.8953   19.5977 C   0  0  0  0  0  0  0  0  0  0  0  0
  -28.8510  -19.0391   20.7987 C   0  0  0  0  0  0  0  0  0  0  0  0
  -17.7441  -28.4484   23.1350 C   0  0  0  0  0  0  0  0  0  0  0  0
  -24.3637  -25.9461   23.4160 C   0  0  0  0  0  0  0  0  0  0  0  0
  -25.3655  -25.9459   20.6337 C   0  0  0  0  0  0  0  0  0  0  0  0
  -18.4771  -28.8106   21.8474 C   0  0  0  0  0  0  0  0  0  0  0  0
  -28.0342  -17.6481   24.1055 C   0  0  0  0  0  0  0  0  0  0  0  0
  -19.9797  -28.6910   22.0535 C   0  0  0  0  0  0  0  0  0  0  0  0
  -26.6269  -18.1816   24.3713 C   0  0  0  0  0  0  0  0  0  0  0  0
  -28.8438  -18.5837   23.2226 C   0  0  0  0  0  0  0  0  0  0  0  0
  -26.7843  -19.4991   22.2042 C   0  0  0  0  0  0  0  0  0  0  0  0
  -20.3732  -27.2440   22.3764 C   0  0  1  0  0  0  0  0  0  0  0  0
  -24.1684  -27.1442   22.4920 C   0  0  1  0  0  0  0  0  0  0  0  0
  -25.8742  -18.6353   23.1032 C   0  0  1  0  0  0  0  0  0  0  0  0
  -31.0049  -29.0830   19.4087 C   0  0  0  0  0  0  0  0  0  0  0  0
  -24.4809  -28.9942   18.2683 C   0  0  0  0  0  0  0  0  0  0  0  0
  -26.8071  -29.3042   17.3959 C   0  0  0  0  0  0  0  0  0  0  0  0
  -25.9322  -30.8178   19.1754 C   0  0  0  0  0  0  0  0  0  0  0  0
  -28.7288  -20.1133   18.5920 C   0  0  0  0  0  0  0  0  0  0  0  0
  -30.4210  -26.7331   22.3436 C   0  0  0  0  0  0  0  0  0  0  0  0
  -25.6736  -21.1350   19.3379 C   0  0  0  0  0  0  0  0  0  1  0  0
  -26.5126  -28.4268   19.7569 C   0  0  1  0  0  0  0  0  0  0  0  0
  -30.2186  -28.4631   20.5534 C   0  0  2  0  0  0  0  0  0  0  0  0
  -25.8125  -19.7312   18.7596 C   0  0  2  0  0  0  0  0  0  0  0  0
  -25.9257  -29.3614   18.6618 C   0  0  0  0  0  0  0  0  0  0  0  0
  -25.6448  -16.3172   22.2767 N   0  0  0  0  0  0  0  0  0  0  0  0
  -25.1363  -17.5606   22.3144 N   0  0  0  0  0  0  0  0  0  0  0  0
  -25.1453  -27.1824   21.4018 N   0  0  0  0  0  0  0  0  0  0  0  0
  -28.1227  -18.9270   21.9993 N   0  0  0  0  0  0  0  0  0  0  0  0
  -23.3313  -18.8874   21.5447 N   0  0  0  0  0  0  0  0  0  0  0  0
  -22.4563  -14.8189   19.7903 N   0  0  0  0  0  0  0  0  0  0  0  0
  -21.7649  -27.2095   22.7688 N   0  0  0  0  0  0  0  0  0  0  0  0
  -27.8701  -28.7677   20.1687 N   0  0  0  0  0  0  0  0  0  0  0  0
  -28.1048  -19.3107   19.6437 N   0  0  0  0  0  0  0  0  0  0  0  0
  -24.4590  -19.0926   18.7570 N   0  3  0  0  0  0  0  0  0  0  0  0
  -31.0620  -27.4106   21.1872 N   0  3  0  0  0  0  0  0  0  0  0  0
  -21.7163  -16.9849   19.9294 O   0  0  0  0  0  0  0  0  0  0  0  0
  -22.7053  -27.1665   20.6390 O   0  0  0  0  0  0  0  0  0  0  0  0
  -25.5126  -29.4729   21.6363 O   0  0  0  0  0  0  0  0  0  0  0  0
  -28.8198  -26.7210   19.6337 O   0  0  0  0  0  0  0  0  0  0  0  0
  -26.3569  -17.8987   20.1992 O   0  0  0  0  0  0  0  0  0  0  0  0
  -30.0729  -18.8601   20.7331 O   0  0  0  0  0  0  0  0  0  0  0  0
  -25.5418  -10.2245   20.4282 O   0  0  0  0  0  0  0  0  0  0  0  0
  -25.1912  -21.0487   20.6727 O   0  0  0  0  0  0  0  0  0  1  0  0
  -21.1812   -6.8797   20.8773 F   0  0  0  0  0  0  0  0  0  0  0  0
  -25.5546   -8.1085   22.2072 F   0  0  0  0  0  0  0  0  0  0  0  0
  1  2  1  0  0  0  0
  1  5  2  0  0  0  0
  2  6  2  0  0  0  0
  3  8  2  0  0  0  0
  3 15  1  0  0  0  0
  4  9  1  0  0  0  0
  4 15  2  0  0  0  0
  5 17  1  0  0  0  0
  6 19  1  0  0  0  0
  7 10  2  0  0  0  0
  7 18  1  0  0  0  0
  8 21  1  0  0  0  0
  9 21  2  0  0  0  0
 10 22  1  0  0  0  0
 11 12  2  0  0  0  0
 11 23  1  0  0  0  0
 12 24  1  0  0  0  0
 13 20  1  0  0  0  0
 13 22  2  0  0  0  0
 14 24  2  0  0  0  0
 14 25  1  0  0  0  0
 15 26  1  0  0  0  0
 16 26  1  0  0  0  0
 16 27  2  0  0  0  0
 16 28  1  0  0  0  0
 17 19  2  0  0  0  0
 17 34  1  0  0  0  0
 18 20  2  0  0  0  0
 18 35  1  0  0  0  0
 19 43  1  0  0  0  0
 20 36  1  0  0  0  0
 21 74  1  0  0  0  0
 22 75  1  0  0  0  0
 23 25  2  0  0  0  0
 23 74  1  0  0  0  0
 24 76  1  0  0  0  0
 25 77  1  0  0  0  0
 26 57  2  0  0  0  0
 27 58  1  0  0  0  0
 27 61  1  0  0  0  0
 28 62  1  0  0  0  0
 28 68  2  0  0  0  0
 29 44  1  0  0  0  0
 29 63  1  0  0  0  0
 29 69  2  0  0  0  0
 30 53  1  0  0  0  0
 30 59  1  0  0  0  0
 30 70  2  0  0  0  0
 31 54  1  0  0  0  0
 31 64  1  0  0  0  0
 31 71  2  0  0  0  0
 32 55  1  0  0  0  0
 32 65  1  0  0  0  0
 32 72  2  0  0  0  0
 33 60  1  0  0  0  0
 33 65  1  0  0  0  0
 33 73  2  0  0  0  0
 34 37  1  0  0  0  0
 35 44  1  0  0  0  0
 36 59  1  0  0  0  0
 37 39  1  0  0  0  0
 38 40  1  0  0  0  0
 38 41  1  0  0  0  0
 39 43  1  0  0  0  0
 40 45  1  0  0  0  0
 41 60  1  0  0  0  0
 42 45  1  0  0  0  0
 42 60  1  0  0  0  0
 43 63  1  0  0  0  0
 44 59  1  0  0  0  0
 45 58  1  0  0  0  0
 46 54  1  0  0  0  0
 47 56  1  0  0  0  0
 48 56  1  0  0  0  0
 49 56  1  0  0  0  0
 50 65  1  0  0  0  0
 51 67  1  0  0  0  0
 52 55  1  0  0  0  0
 52 75  1  0  0  0  0
 53 56  1  0  0  0  0
 53 64  1  0  0  0  0
 54 67  1  0  0  0  0
 55 66  1  0  0  0  0
 57 58  1  0  0  0  0
M  CHG  2  66   1  67   1
M  ISO  4  33 100  52 101  65 100  75 101
M  END
> <Batch ID>
0015

> <Smiles>
CNC(C)C(=O)NC(C(=O)N1Cc2cc([101O:1][101CH2:1]C(N)C(=O)[100N:0](C)[100C:0](=O)N3CCCC(n4nc(-c5ccc(Oc6ccc(F)cc6F)cc5)c(C(N)=O)c4N)C3)ccc2CC1C(=O)NC1CCCc2ccccc21)C(C)(C)C

> <Shape>
0.194

> <Color>
0.061

> <Negative vol penalty>
0.000

$$$$

  -OEChem-04052315553D

 89 97  0     1  0  0  0  0  0999 V2000
  -26.0554  -35.4804   22.3334 C   0  0  0  0  0  0  0  0  0  0  0  0
  -26.2012  -34.2778   21.6493 C   0  0  0  0  0  0  0  0  0  0  0  0
  -26.8473  -12.4860   21.5667 C   0  0  0  0  0  0  0  0  0  0  0  0
  -26.3856  -13.6653   19.5093 C   0  0  0  0  0  0  0  0  0  0  0  0
  -25.3448  -35.5173   23.5324 C   0  0  0  0  0  0  0  0  0  0  0  0
  -25.6374  -33.1112   22.1645 C   0  0  0  0  0  0  0  0  0  0  0  0
  -23.2534  -30.3800   18.6287 C   0  0  0  0  0  0  0  0  0  0  0  0
  -25.5284  -12.0337   21.6036 C   0  0  0  0  0  0  0  0  0  0  0  0
  -25.0666  -13.2130   19.5460 C   0  0  0  0  0  0  0  0  0  0  0  0
  -24.0453  -29.6121   17.7759 C   0  0  0  0  0  0  0  0  0  0  0  0
  -23.6775   -9.6279   20.1139 C   0  0  0  0  0  0  0  0  0  0  0  0
  -23.4615   -8.2832   20.4154 C   0  0  0  0  0  0  0  0  0  0  0  0
  -23.5535  -27.6523   19.0937 C   0  0  0  0  0  0  0  0  0  0  0  0
  -29.2739  -22.0803   17.2394 C   0  0  0  0  0  0  0  0  0  0  0  0
  -30.2911  -22.2882   19.8287 C   0  0  0  0  0  0  0  0  0  0  0  0
  -22.1627   -8.9255   22.3487 C   0  0  0  0  0  0  0  0  0  0  0  0
  -27.2759  -13.3019   20.5196 C   0  0  0  0  0  0  0  0  0  0  0  0
  -29.7377  -13.1367   19.8715 C   0  0  0  0  0  0  0  0  0  0  0  0
  -24.7638  -34.3523   24.0576 C   0  0  0  0  0  0  0  0  0  0  0  0
  -22.6133  -29.7908   19.7285 C   0  0  0  0  0  0  0  0  0  0  0  0
  -24.9195  -33.1322   23.3723 C   0  0  0  0  0  0  0  0  0  0  0  0
  -22.7520  -28.4144   19.9574 C   0  0  0  0  0  0  0  0  0  0  0  0
  -29.7048  -20.9376   17.9132 C   0  0  0  0  0  0  0  0  0  0  0  0
  -29.3516  -23.3270   17.8602 C   0  0  0  0  0  0  0  0  0  0  0  0
  -30.2134  -21.0415   19.2079 C   0  0  0  0  0  0  0  0  0  0  0  0
  -24.6380  -12.3972   20.5932 C   0  0  0  0  0  0  0  0  0  0  0  0
  -24.1978  -28.2487   18.0100 C   0  0  0  0  0  0  0  0  0  0  0  0
  -23.1362  -10.6213   20.9298 C   0  0  0  0  0  0  0  0  0  0  0  0
  -29.8602  -23.4309   19.1549 C   0  0  0  0  0  0  0  0  0  0  0  0
  -22.7041   -7.9320   21.5328 C   0  0  0  0  0  0  0  0  0  0  0  0
  -22.3788  -10.2701   22.0472 C   0  0  0  0  0  0  0  0  0  0  0  0
  -28.6381  -13.7699   20.4813 C   0  0  0  0  0  0  0  0  0  0  0  0
  -30.7963  -13.9774   20.1147 C   0  0  0  0  0  0  0  0  0  0  0  0
  -29.7969  -11.8994   19.1495 C   0  0  0  0  0  0  0  0  0  0  0  0
  -22.7663  -30.1700   22.8807 C   0  0  0  0  0  0  0  0  0  0  0  0
  -20.2849  -28.0809   22.8609 C   0  0  0  0  0  0  0  0  0  0  0  0
  -26.9410  -26.0986   17.0513 C   0  0  0  0  0  0  0  0  0  0  0  0
  -18.6084  -25.5889   21.2403 C   0  0  0  0  0  0  0  0  0  0  0  0
  -31.1876  -19.8409   21.1968 C   0  0  0  0  0  0  0  0  0  0  0  0
  -24.0450  -34.4327   25.3811 C   0  0  0  0  0  0  0  0  0  0  0  0
  -21.7410  -30.6278   20.6234 C   0  0  0  0  0  0  0  0  0  0  0  0
  -22.0695  -27.7299   21.1125 C   0  0  0  0  0  0  0  0  0  0  0  0
  -23.1596  -33.2228   25.6678 C   0  0  0  0  0  0  0  0  0  0  0  0
  -32.3615  -17.2071   23.2854 C   0  0  0  0  0  0  0  0  0  0  0  0
  -23.9096  -31.9290   25.3668 C   0  0  0  0  0  0  0  0  0  0  0  0
  -31.6446  -15.9682   22.7440 C   0  0  0  0  0  0  0  0  0  0  0  0
  -31.4695  -18.4462   23.2341 C   0  0  0  0  0  0  0  0  0  0  0  0
  -30.1587  -17.4908   21.3799 C   0  0  0  0  0  0  0  0  0  0  0  0
  -24.3014  -31.8501   23.8864 C   0  0  1  0  0  0  0  0  0  0  0  0
  -21.5509  -30.0207   22.0100 C   0  0  1  0  0  0  0  0  0  0  0  0
  -31.0395  -16.2309   21.3510 C   0  0  2  0  0  0  0  0  0  0  0  0
  -28.8179  -26.2470   21.1485 C   0  0  0  0  0  0  0  0  0  0  0  0
  -16.6399  -24.0528   21.4904 C   0  0  0  0  0  0  0  0  0  0  0  0
  -21.8734  -26.3690   24.8246 C   0  0  0  0  0  0  0  0  0  0  0  0
  -20.3347  -24.4646   24.3013 C   0  0  0  0  0  0  0  0  0  0  0  0
  -19.4316  -26.5477   25.3347 C   0  0  0  0  0  0  0  0  0  0  0  0
  -17.2901  -26.6976   18.8337 C   0  0  0  0  0  0  0  0  0  0  0  0
  -28.8834  -24.5470   17.1208 C   0  0  0  0  0  0  0  0  0  0  0  0
  -25.6242  -26.3636   17.7494 C   0  0  0  0  0  0  0  0  0  1  0  0
  -29.2186  -24.7954   20.9940 C   0  0  0  0  0  0  0  0  0  0  0  0
  -20.1522  -26.5780   22.9115 C   0  0  1  0  0  0  0  0  0  0  0  0
  -17.1309  -25.3889   20.9552 C   0  0  2  0  0  0  0  0  0  0  0  0
  -29.6097  -19.6151   17.2239 C   0  0  0  0  0  0  0  0  0  0  0  0
  -20.4625  -26.0028   24.3223 C   0  0  0  0  0  0  0  0  0  0  0  0
  -28.9677  -14.9236   21.0681 N   0  0  0  0  0  0  0  0  0  0  0  0
  -30.2863  -15.0221   20.8280 N   0  0  0  0  0  0  0  0  0  0  0  0
  -21.2324  -28.5922   21.9628 N   0  0  0  0  0  0  0  0  0  0  0  0
  -30.9356  -18.6343   21.8834 N   0  0  0  0  0  0  0  0  0  0  0  0
  -32.1042  -13.9175   19.7860 N   0  0  0  0  0  0  0  0  0  0  0  0
  -28.6163  -11.1607   18.9919 N   0  0  0  0  0  0  0  0  0  0  0  0
  -30.6578  -19.8925   19.9079 N   0  0  0  0  0  0  0  0  0  0  0  0
  -23.1581  -31.4801   23.0800 N   0  0  0  0  0  0  0  0  0  0  0  0
  -27.6029  -25.0121   17.6013 N   0  0  0  0  0  0  0  0  0  0  0  0
  -18.8130  -26.2697   22.4218 N   0  0  0  0  0  0  0  0  0  0  0  0
  -16.8765  -25.4292   19.4873 N   0  3  0  0  0  0  0  0  0  0  0  0
  -30.8682  -11.4538   18.6728 O   0  0  0  0  0  0  0  0  0  0  0  0
  -23.3077  -29.1707   23.3390 O   0  0  0  0  0  0  0  0  0  0  0  0
  -19.5690  -28.7759   23.5863 O   0  0  0  0  0  0  0  0  0  0  0  0
  -27.3460  -26.7824   16.1151 O   0  0  0  0  0  0  0  0  0  0  0  0
  -19.4927  -25.1788   20.4918 O   0  0  0  0  0  0  0  0  0  0  0  0
  -31.8496  -20.7501   21.7040 O   0  0  0  0  0  0  0  0  0  0  0  0
  -23.3509  -11.9558   20.6287 O   0  0  0  0  0  0  0  0  0  0  0  0
  -24.9706  -27.4970   17.1796 O   0  0  0  0  0  0  0  0  0  1  0  0
  -29.9438  -24.6407   19.7757 O   0  0  0  0  0  0  0  0  0  0  0  0
  -22.4954   -6.6408   21.8214 F   0  0  0  0  0  0  0  0  0  0  0  0
  -21.8551  -11.2201   22.8341 F   0  0  0  0  0  0  0  0  0  0  0  0
  -29.0897  -19.6936   15.9644 F   0  0  0  0  0  0  0  0  0  0  0  0
  -30.8143  -18.9910   17.0761 F   0  0  0  0  0  0  0  0  0  0  0  0
  -28.8168  -18.7320   17.8956 F   0  0  0  0  0  0  0  0  0  0  0  0
  1  2  1  0  0  0  0
  1  5  2  0  0  0  0
  2  6  2  0  0  0  0
  3  8  2  0  0  0  0
  3 17  1  0  0  0  0
  4  9  1  0  0  0  0
  4 17  2  0  0  0  0
  5 19  1  0  0  0  0
  6 21  1  0  0  0  0
  7 10  2  0  0  0  0
  7 20  1  0  0  0  0
  8 26  1  0  0  0  0
  9 26  2  0  0  0  0
 10 27  1  0  0  0  0
 11 12  2  0  0  0  0
 11 28  1  0  0  0  0
 12 30  1  0  0  0  0
 13 22  1  0  0  0  0
 13 27  2  0  0  0  0
 14 23  2  0  0  0  0
 14 24  1  0  0  0  0
 15 25  2  0  0  0  0
 15 29  1  0  0  0  0
 16 30  2  0  0  0  0
 16 31  1  0  0  0  0
 17 32  1  0  0  0  0
 18 32  1  0  0  0  0
 18 33  2  0  0  0  0
 18 34  1  0  0  0  0
 19 21  2  0  0  0  0
 19 40  1  0  0  0  0
 20 22  2  0  0  0  0
 20 41  1  0  0  0  0
 21 49  1  0  0  0  0
 22 42  1  0  0  0  0
 23 25  1  0  0  0  0
 23 63  1  0  0  0  0
 24 29  2  0  0  0  0
 24 58  1  0  0  0  0
 25 71  1  0  0  0  0
 26 82  1  0  0  0  0
 27 83  1  0  0  0  0
 28 31  2  0  0  0  0
 28 82  1  0  0  0  0
 29 84  1  0  0  0  0
 30 85  1  0  0  0  0
 31 86  1  0  0  0  0
 32 65  2  0  0  0  0
 33 66  1  0  0  0  0
 33 69  1  0  0  0  0
 34 70  1  0  0  0  0
 34 76  2  0  0  0  0
 35 50  1  0  0  0  0
 35 72  1  0  0  0  0
 35 77  2  0  0  0  0
 36 61  1  0  0  0  0
 36 67  1  0  0  0  0
 36 78  2  0  0  0  0
 37 59  1  0  0  0  0
 37 73  1  0  0  0  0
 37 79  2  0  0  0  0
 38 62  1  0  0  0  0
 38 74  1  0  0  0  0
 38 80  2  0  0  0  0
 39 68  1  0  0  0  0
 39 71  1  0  0  0  0
 39 81  2  0  0  0  0
 40 43  1  0  0  0  0
 41 50  1  0  0  0  0
 42 67  1  0  0  0  0
 43 45  1  0  0  0  0
 44 46  1  0  0  0  0
 44 47  1  0  0  0  0
 45 49  1  0  0  0  0
 46 51  1  0  0  0  0
 47 68  1  0  0  0  0
 48 51  1  0  0  0  0
 48 68  1  0  0  0  0
 49 72  1  0  0  0  0
 50 67  1  0  0  0  0
 51 66  1  0  0  0  0
 52 60  1  0  0  0  0
 53 62  1  0  0  0  0
 54 64  1  0  0  0  0
 55 64  1  0  0  0  0
 56 64  1  0  0  0  0
 57 75  1  0  0  0  0
 58 73  1  0  0  0  0
 59 83  1  0  0  0  0
 60 84  1  0  0  0  0
 61 64  1  0  0  0  0
 61 74  1  0  0  0  0
 62 75  1  0  0  0  0
 63 87  1  0  0  0  0
 63 88  1  0  0  0  0
 63 89  1  0  0  0  0
 65 66  1  0  0  0  0
M  CHG  1  75   1
M  ISO  4  39 100  59 101  71 100  83 101
M  END
> <Batch ID>
0015

> <Smiles>
CCOc1cc([100NH:0][100C:0](=O)N2CCCC(n3nc(-c4ccc(Oc5ccc(F)cc5F)cc4)c(C(N)=O)c3N)C2)c(C(F)(F)F)cc1CNC(=O)[101CH2:1][101O:1]c1ccc2c(c1)CN(C(=O)C(NC(=O)C(C)NC)C(C)(C)C)C(C(=O)NC1CCCc3ccccc31)C2

> <Shape>
0.335

> <Color>
0.059

> <Negative vol penalty>
0.000

$$$$

  -OEChem-04052315553D

 86 94  0     1  0  0  0  0  0999 V2000
  -22.7822  -21.1473   27.2767 C   0  0  0  0  0  0  0  0  0  0  0  0
  -23.8974  -21.0261   26.4540 C   0  0  0  0  0  0  0  0  0  0  0  0
  -19.6150  -28.5575   23.7605 C   0  0  0  0  0  0  0  0  0  0  0  0
  -19.9179  -26.8884   22.0402 C   0  0  0  0  0  0  0  0  0  0  0  0
  -21.9527  -20.0473   27.4912 C   0  0  0  0  0  0  0  0  0  0  0  0
  -24.1845  -19.8045   25.8461 C   0  0  0  0  0  0  0  0  0  0  0  0
  -25.4421  -20.3105   20.9668 C   0  0  0  0  0  0  0  0  0  0  0  0
  -18.2316  -28.4122   23.6579 C   0  0  0  0  0  0  0  0  0  0  0  0
  -18.5344  -26.7431   21.9376 C   0  0  0  0  0  0  0  0  0  0  0  0
  -26.7359  -20.7468   20.6847 C   0  0  0  0  0  0  0  0  0  0  0  0
  -16.0621  -25.1878   23.6373 C   0  0  0  0  0  0  0  0  0  0  0  0
  -15.5507  -23.8914   23.5786 C   0  0  0  0  0  0  0  0  0  0  0  0
  -27.3992  -18.4710   20.2372 C   0  0  0  0  0  0  0  0  0  0  0  0
  -14.5799  -24.3721   21.4190 C   0  0  0  0  0  0  0  0  0  0  0  0
  -20.4582  -27.7956   22.9516 C   0  0  0  0  0  0  0  0  0  0  0  0
  -22.7572  -27.2315   23.9024 C   0  0  0  0  0  0  0  0  0  0  0  0
  -22.2244  -18.8142   26.8779 C   0  0  0  0  0  0  0  0  0  0  0  0
  -25.1194  -18.9477   20.8967 C   0  0  0  0  0  0  0  0  0  0  0  0
  -23.3587  -18.6866   26.0536 C   0  0  0  0  0  0  0  0  0  0  0  0
  -26.0999  -18.0204   20.5164 C   0  0  0  0  0  0  0  0  0  0  0  0
  -17.6913  -27.5051   22.7465 C   0  0  0  0  0  0  0  0  0  0  0  0
  -27.7154  -19.8267   20.3226 C   0  0  0  0  0  0  0  0  0  0  0  0
  -15.8323  -26.0764   22.5869 C   0  0  0  0  0  0  0  0  0  0  0  0
  -14.8096  -23.4836   22.4695 C   0  0  0  0  0  0  0  0  0  0  0  0
  -15.0912  -25.6686   21.4778 C   0  0  0  0  0  0  0  0  0  0  0  0
  -21.8874  -27.9456   23.0567 C   0  0  0  0  0  0  0  0  0  0  0  0
  -24.0018  -27.7420   23.6250 C   0  0  0  0  0  0  0  0  0  0  0  0
  -22.4662  -26.1989   24.8536 C   0  0  0  0  0  0  0  0  0  0  0  0
  -24.0971  -16.7747   22.9792 C   0  0  0  0  0  0  0  0  0  0  0  0
  -23.8836  -14.9086   20.3345 C   0  0  0  0  0  0  0  0  0  0  0  0
  -24.9256  -14.2688   17.1483 C   0  0  0  0  0  0  0  0  0  0  0  0
  -27.8575  -29.4497   19.9695 C   0  0  0  0  0  0  0  0  0  0  0  0
  -21.3254  -17.6408   27.1774 C   0  0  0  0  0  0  0  0  0  0  0  0
  -23.7124  -18.4964   21.1781 C   0  0  0  0  0  0  0  0  0  0  0  0
  -25.7995  -16.5486   20.4068 C   0  0  0  0  0  0  0  0  0  0  0  0
  -21.4895  -16.4820   26.1974 C   0  0  0  0  0  0  0  0  0  0  0  0
  -25.3702  -31.8049   20.9406 C   0  0  0  0  0  0  0  0  0  0  0  0
  -22.9674  -16.1794   25.9711 C   0  0  0  0  0  0  0  0  0  0  0  0
  -28.9128  -25.7919   18.7846 C   0  0  0  0  0  0  0  0  0  0  0  0
  -31.3011  -26.6138   18.7231 C   0  0  0  0  0  0  0  0  0  0  0  0
  -24.3119  -30.9513   21.6415 C   0  0  0  0  0  0  0  0  0  0  0  0
  -29.3385  -24.6160   19.6623 C   0  0  0  0  0  0  0  0  0  0  0  0
  -31.7296  -25.4393   19.6012 C   0  0  0  0  0  0  0  0  0  0  0  0
  -25.9954  -31.0696   19.7572 C   0  0  0  0  0  0  0  0  0  0  0  0
  -25.4855  -28.8843   20.7762 C   0  0  0  0  0  0  0  0  0  0  0  0
  -23.6895  -17.3847   25.3567 C   0  0  1  0  0  0  0  0  0  0  0  0
  -23.6247  -17.0260   21.5751 C   0  0  1  0  0  0  0  0  0  0  0  0
  -29.8327  -27.0129   18.9262 C   0  0  0  0  0  0  0  0  0  0  0  0
  -24.8663  -29.5621   22.0104 C   0  0  2  0  0  0  0  0  0  0  0  0
  -30.8022  -24.2340   19.4279 C   0  0  0  0  0  0  0  0  0  0  0  0
  -24.5998  -12.6527   15.2563 C   0  0  0  0  0  0  0  0  0  0  0  0
  -33.2957  -22.5073   19.2665 C   0  0  0  0  0  0  0  0  0  0  0  0
  -32.9873  -22.4053   21.7646 C   0  0  0  0  0  0  0  0  0  0  0  0
  -25.5918  -12.8499   21.8021 C   0  0  0  0  0  0  0  0  0  0  0  0
  -26.0198  -11.7381   19.6001 C   0  0  0  0  0  0  0  0  0  0  0  0
  -23.6939  -11.8856   20.4895 C   0  0  0  0  0  0  0  0  0  0  0  0
  -23.9361  -16.3981   15.3465 C   0  0  0  0  0  0  0  0  0  0  0  0
  -29.6209  -27.7283   20.2634 C   0  0  0  0  0  0  0  0  0  0  0  0
  -30.7354  -21.8765   19.7887 C   0  0  0  0  0  0  0  0  0  0  0  0
  -24.8188  -13.9716   19.6089 C   0  0  1  0  0  0  0  0  0  0  0  0
  -24.1525  -13.9669   15.8772 C   0  0  2  0  0  0  0  0  0  0  0  0
  -32.6488  -23.1530   20.4832 C   0  0  0  0  0  0  0  0  0  0  0  0
  -25.0376  -12.6387   20.3790 C   0  0  0  0  0  0  0  0  0  0  0  0
  -29.2747  -21.6463   20.1377 C   0  0  0  0  0  0  0  0  0  1  0  0
  -22.5253  -28.8417   22.2990 N   0  0  0  0  0  0  0  0  0  0  0  0
  -23.8092  -28.6940   22.6676 N   0  0  0  0  0  0  0  0  0  0  0  0
  -24.4108  -16.1559   20.6980 N   0  0  0  0  0  0  0  0  0  0  0  0
  -26.5031  -29.7604   20.1746 N   0  0  0  0  0  0  0  0  0  0  0  0
  -25.2311  -27.4650   24.1092 N   0  0  0  0  0  0  0  0  0  0  0  0
  -21.1341  -25.7937   25.0133 N   0  0  0  0  0  0  0  0  0  0  0  0
  -23.4003  -17.4797   23.9419 N   0  0  0  0  0  0  0  0  0  0  0  0
  -24.2691  -13.8036   18.2680 N   0  0  0  0  0  0  0  0  0  0  0  0
  -28.2577  -28.1906   20.3999 N   0  0  0  0  0  0  0  0  0  0  0  0
  -31.1950  -23.1582   20.3073 N   0  0  1  0  0  0  0  0  0  0  0  0
  -24.3561  -15.0527   14.8769 N   0  3  0  0  0  0  0  0  0  0  0  0
  -23.3589  -25.6632   25.5534 O   0  0  0  0  0  0  0  0  0  0  0  0
  -25.0241  -15.9974   23.1748 O   0  0  0  0  0  0  0  0  0  0  0  0
  -22.7259  -14.5499   20.5637 O   0  0  0  0  0  0  0  0  0  0  0  0
  -26.0057  -14.8552   17.1476 O   0  0  0  0  0  0  0  0  0  0  0  0
  -28.6525  -30.2381   19.4468 O   0  0  0  0  0  0  0  0  0  0  0  0
  -16.3413  -27.3629   22.6463 O   0  0  0  0  0  0  0  0  0  0  0  0
  -28.9792  -20.2497   20.0474 O   0  0  0  0  0  0  0  0  0  1  0  0
  -14.3199  -22.2381   22.4125 F   0  0  0  0  0  0  0  0  0  0  0  0
  -14.8682  -26.5174   20.4650 F   0  0  0  0  0  0  0  0  0  0  0  0
  -29.0288  -22.0796   21.3982 F   0  0  0  0  0  0  0  0  0  0  0  0
  -28.4822  -22.3323   19.2785 F   0  0  0  0  0  0  0  0  0  0  0  0
  1  2  1  0  0  0  0
  1  5  2  0  0  0  0
  2  6  2  0  0  0  0
  3  8  2  0  0  0  0
  3 15  1  0  0  0  0
  4  9  1  0  0  0  0
  4 15  2  0  0  0  0
  5 17  1  0  0  0  0
  6 19  1  0  0  0  0
  7 10  2  0  0  0  0
  7 18  1  0  0  0  0
  8 21  1  0  0  0  0
  9 21  2  0  0  0  0
 10 22  1  0  0  0  0
 11 12  2  0  0  0  0
 11 23  1  0  0  0  0
 12 24  1  0  0  0  0
 13 20  1  0  0  0  0
 13 22  2  0  0  0  0
 14 24  2  0  0  0  0
 14 25  1  0  0  0  0
 15 26  1  0  0  0  0
 16 26  1  0  0  0  0
 16 27  2  0  0  0  0
 16 28  1  0  0  0  0
 17 19  2  0  0  0  0
 17 33  1  0  0  0  0
 18 20  2  0  0  0  0
 18 34  1  0  0  0  0
 19 46  1  0  0  0  0
 20 35  1  0  0  0  0
 21 81  1  0  0  0  0
 22 82  1  0  0  0  0
 23 25  2  0  0  0  0
 23 81  1  0  0  0  0
 24 83  1  0  0  0  0
 25 84  1  0  0  0  0
 26 65  2  0  0  0  0
 27 66  1  0  0  0  0
 27 69  1  0  0  0  0
 28 70  1  0  0  0  0
 28 76  2  0  0  0  0
 29 47  1  0  0  0  0
 29 71  1  0  0  0  0
 29 77  2  0  0  0  0
 30 60  1  0  0  0  0
 30 67  1  0  0  0  0
 30 78  2  0  0  0  0
 31 61  1  0  0  0  0
 31 72  1  0  0  0  0
 31 79  2  0  0  0  0
 32 68  1  0  0  0  0
 32 73  1  0  0  0  0
 32 80  2  0  0  0  0
 33 36  1  0  0  0  0
 34 47  1  0  0  0  0
 35 67  1  0  0  0  0
 36 38  1  0  0  0  0
 37 41  1  0  0  0  0
 37 44  1  0  0  0  0
 38 46  1  0  0  0  0
 39 42  1  0  0  0  0
 39 48  1  0  0  0  0
 40 43  1  0  0  0  0
 40 48  1  0  0  0  0
 41 49  1  0  0  0  0
 42 50  1  0  0  0  0
 43 50  1  0  0  0  0
 44 68  1  0  0  0  0
 45 49  1  0  0  0  0
 45 68  1  0  0  0  0
 46 71  1  0  0  0  0
 47 67  1  0  0  0  0
 48 58  1  0  0  0  0
 49 66  1  0  0  0  0
 50 74  1  0  0  0  0
 51 61  1  0  0  0  0
 52 62  1  0  0  0  0
 53 62  1  0  0  0  0
 54 63  1  0  0  0  0
 55 63  1  0  0  0  0
 56 63  1  0  0  0  0
 57 75  1  0  0  0  0
 58 73  1  0  0  0  0
 59 64  1  0  0  0  0
 59 74  1  0  0  0  0
 60 63  1  0  0  0  0
 60 72  1  0  0  0  0
 61 75  1  0  0  0  0
 62 74  1  0  0  0  0
 64 82  1  0  0  0  0
 64 85  1  0  0  0  0
 64 86  1  0  0  0  0
 65 66  1  0  0  0  0
M  CHG  1  75   1
M  ISO  4  32 100  64 101  73 100  82 101
M  END
> <Batch ID>
0015

> <Smiles>
CNC(C)C(=O)NC(C(=O)N1Cc2cc([101O:1][101C:1](F)(F)CN(C(C)C)C3CCC(C[100NH:0][100C:0](=O)N4CCCC(n5nc(-c6ccc(Oc7ccc(F)cc7F)cc6)c(C(N)=O)c5N)C4)CC3)ccc2CC1C(=O)NC1CCCc2ccccc21)C(C)(C)C

> <Shape>
0.209

> <Color>
0.063

> <Negative vol penalty>
0.000

$$$$

  -OEChem-04052315553D

 93101  0     1  0  0  0  0  0999 V2000
  -19.1100  -27.2522   26.3277 C   0  0  0  0  0  0  0  0  0  0  0  0
  -20.4666  -27.3780   26.0508 C   0  0  0  0  0  0  0  0  0  0  0  0
  -18.6664  -18.2819   22.9879 C   0  0  0  0  0  0  0  0  0  0  0  0
  -20.5722  -19.6646   22.4466 C   0  0  0  0  0  0  0  0  0  0  0  0
  -18.1750  -27.4371   25.3114 C   0  0  0  0  0  0  0  0  0  0  0  0
  -20.8882  -27.7005   24.7604 C   0  0  0  0  0  0  0  0  0  0  0  0
  -26.4972  -28.1597   22.4245 C   0  0  0  0  0  0  0  0  0  0  0  0
  -18.3039  -19.1758   23.9954 C   0  0  0  0  0  0  0  0  0  0  0  0
  -20.2097  -20.5586   23.4541 C   0  0  0  0  0  0  0  0  0  0  0  0
  -27.4108  -27.3334   21.7717 C   0  0  0  0  0  0  0  0  0  0  0  0
  -20.4582  -20.7527   26.8203 C   0  0  0  0  0  0  0  0  0  0  0  0
  -21.4649  -21.2198   27.6653 C   0  0  0  0  0  0  0  0  0  0  0  0
  -26.6513  -28.1835   19.6457 C   0  0  0  0  0  0  0  0  0  0  0  0
  -28.1874  -14.2054   21.0586 C   0  0  0  0  0  0  0  0  0  0  0  0
  -29.9503  -15.8522   20.9274 C   0  0  0  0  0  0  0  0  0  0  0  0
  -20.9988  -23.4856   26.9681 C   0  0  0  0  0  0  0  0  0  0  0  0
  -19.8005  -18.5263   22.2135 C   0  0  0  0  0  0  0  0  0  0  0  0
  -19.7721  -17.6318   19.8246 C   0  0  0  0  0  0  0  0  0  0  0  0
  -18.5868  -27.7497   24.0053 C   0  0  0  0  0  0  0  0  0  0  0  0
  -25.6447  -28.9975   21.6912 C   0  0  0  0  0  0  0  0  0  0  0  0
  -19.9588  -27.9146   23.7265 C   0  0  0  0  0  0  0  0  0  0  0  0
  -25.7295  -29.0214   20.2918 C   0  0  0  0  0  0  0  0  0  0  0  0
  -29.5218  -14.5643   21.2491 C   0  0  0  0  0  0  0  0  0  0  0  0
  -27.2816  -15.1342   20.5464 C   0  0  0  0  0  0  0  0  0  0  0  0
  -19.0756  -20.3142   24.2285 C   0  0  0  0  0  0  0  0  0  0  0  0
  -27.4860  -27.3431   20.3819 C   0  0  0  0  0  0  0  0  0  0  0  0
  -19.7218  -21.6520   26.0492 C   0  0  0  0  0  0  0  0  0  0  0  0
  -29.0445  -16.7811   20.4152 C   0  0  0  0  0  0  0  0  0  0  0  0
  -27.7101  -16.4221   20.2247 C   0  0  0  0  0  0  0  0  0  0  0  0
  -21.7352  -22.5862   27.7392 C   0  0  0  0  0  0  0  0  0  0  0  0
  -19.9920  -23.0184   26.1232 C   0  0  0  0  0  0  0  0  0  0  0  0
  -20.1758  -17.6029   21.1729 C   0  0  0  0  0  0  0  0  0  0  0  0
  -20.3971  -16.5491   19.2558 C   0  0  0  0  0  0  0  0  0  0  0  0
  -18.9093  -18.5548   19.1469 C   0  0  0  0  0  0  0  0  0  0  0  0
  -22.4945  -29.2452   21.3468 C   0  0  0  0  0  0  0  0  0  0  0  0
  -23.2811  -31.8851   19.6337 C   0  0  0  0  0  0  0  0  0  0  0  0
  -25.6172  -33.5485   17.7837 C   0  0  0  0  0  0  0  0  0  0  0  0
  -25.3562  -13.5118   20.6295 C   0  0  0  0  0  0  0  0  0  0  0  0
  -17.5320  -27.9469   22.9453 C   0  0  0  0  0  0  0  0  0  0  0  0
  -24.6831  -29.9024   22.4116 C   0  0  0  0  0  0  0  0  0  0  0  0
  -24.8507  -29.9175   19.4592 C   0  0  0  0  0  0  0  0  0  0  0  0
  -18.0873  -27.8464   21.5282 C   0  0  0  0  0  0  0  0  0  0  0  0
  -22.0625  -12.1914   20.3381 C   0  0  0  0  0  0  0  0  0  0  0  0
  -19.3249  -28.7207   21.3917 C   0  0  0  0  0  0  0  0  0  0  0  0
  -21.1685  -13.4324   20.3903 C   0  0  0  0  0  0  0  0  0  0  0  0
  -23.2692  -12.3223   21.2657 C   0  0  0  0  0  0  0  0  0  0  0  0
  -23.1750  -14.7803   21.1281 C   0  0  0  0  0  0  0  0  0  0  0  0
  -20.4422  -28.2347   22.3235 C   0  0  1  0  0  0  0  0  0  0  0  0
  -23.5072  -30.3378   21.5427 C   0  0  1  0  0  0  0  0  0  0  0  0
  -21.9808  -14.7222   20.1616 C   0  0  2  0  0  0  0  0  0  0  0  0
  -25.9562  -35.6679   16.4835 C   0  0  0  0  0  0  0  0  0  0  0  0
  -28.4114  -21.2635   18.3231 C   0  0  0  0  0  0  0  0  0  0  0  0
  -21.6054  -30.7496   17.3505 C   0  0  0  0  0  0  0  0  0  0  0  0
  -22.7290  -32.3732   15.8112 C   0  0  0  0  0  0  0  0  0  0  0  0
  -21.3462  -33.2107   17.7109 C   0  0  0  0  0  0  0  0  0  0  0  0
  -27.8311  -34.4131   19.5472 C   0  0  0  0  0  0  0  0  0  0  0  0
  -31.8872  -20.9179   19.7239 C   0  0  0  0  0  0  0  0  0  0  0  0
  -26.1427  -18.1551   20.6670 C   0  0  0  0  0  0  0  0  0  0  0  0
  -29.0637  -24.2556   19.3316 C   0  0  0  0  0  0  0  0  0  0  0  0
  -29.4154  -22.9029   19.9648 C   0  0  0  0  0  0  0  0  0  0  0  0
  -29.7887  -20.2838   20.9049 C   0  0  0  0  0  0  0  0  0  0  0  0
  -28.7128  -25.3058   20.3800 C   0  0  0  0  0  0  0  0  0  1  0  0
  -30.0339  -18.8103   21.1630 C   0  0  0  0  0  0  0  0  0  0  0  0
  -23.5982  -32.1637   18.1843 C   0  0  1  0  0  0  0  0  0  0  0  0
  -26.1058  -34.9848   17.8340 C   0  0  2  0  0  0  0  0  0  0  0  0
  -29.6977  -21.8035   18.9343 C   0  0  1  0  0  0  0  0  0  0  0  0
  -30.4899  -13.5718   21.7985 C   0  0  0  0  0  0  0  0  0  0  0  0
  -22.3351  -32.1059   17.2795 C   0  0  0  0  0  0  0  0  0  0  0  0
  -20.9938  -16.5826   21.4445 N   0  0  0  0  0  0  0  0  0  0  0  0
  -21.1092  -15.9603   20.2590 N   0  0  0  0  0  0  0  0  0  0  0  0
  -23.9223  -30.7792   20.2096 N   0  0  0  0  0  0  0  0  0  0  0  0
  -23.9927  -13.5651   20.9884 N   0  0  0  0  0  0  0  0  0  0  0  0
  -20.4016  -16.0528   18.0004 N   0  0  0  0  0  0  0  0  0  0  0  0
  -18.3512  -19.6102   19.8812 N   0  0  0  0  0  0  0  0  0  0  0  0
  -25.9299  -14.7534   20.3577 N   0  0  0  0  0  0  0  0  0  0  0  0
  -21.5148  -29.2050   22.3205 N   0  0  0  0  0  0  0  0  0  0  0  0
  -24.2940  -33.4457   18.1578 N   0  0  0  0  0  0  0  0  0  0  0  0
  -27.5427  -35.0298   18.2267 N   0  3  0  0  0  0  0  0  0  0  0  0
  -30.4078  -20.6676   19.5858 N   0  3  1  0  0  0  0  0  0  0  0  0
  -18.6281  -18.4375   17.9300 O   0  0  0  0  0  0  0  0  0  0  0  0
  -22.5937  -28.4952   20.3828 O   0  0  0  0  0  0  0  0  0  0  0  0
  -22.4989  -32.6257   20.2348 O   0  0  0  0  0  0  0  0  0  0  0  0
  -26.3363  -32.6118   17.4428 O   0  0  0  0  0  0  0  0  0  0  0  0
  -25.9627  -12.4411   20.5414 O   0  0  0  0  0  0  0  0  0  0  0  0
  -18.7221  -21.1868   25.2114 O   0  0  0  0  0  0  0  0  0  0  0  0
  -26.8303  -17.3370   19.7240 O   0  0  0  0  0  0  0  0  0  0  0  0
  -28.3765  -26.5371   19.7421 O   0  0  0  0  0  0  0  0  0  1  0  0
  -29.4793  -18.0427   20.1029 O   0  0  0  0  0  0  0  0  0  0  0  0
  -22.7010  -23.0347   28.5518 F   0  0  0  0  0  0  0  0  0  0  0  0
  -19.2871  -23.8874   25.3857 F   0  0  0  0  0  0  0  0  0  0  0  0
  -29.9320  -12.3547   22.0691 F   0  0  0  0  0  0  0  0  0  0  0  0
  -31.5351  -13.3058   20.9604 F   0  0  0  0  0  0  0  0  0  0  0  0
  -31.0559  -13.9835   22.9703 F   0  0  0  0  0  0  0  0  0  0  0  0
  1  2  1  0  0  0  0
  1  5  2  0  0  0  0
  2  6  2  0  0  0  0
  3  8  2  0  0  0  0
  3 17  1  0  0  0  0
  4  9  1  0  0  0  0
  4 17  2  0  0  0  0
  5 19  1  0  0  0  0
  6 21  1  0  0  0  0
  7 10  2  0  0  0  0
  7 20  1  0  0  0  0
  8 25  1  0  0  0  0
  9 25  2  0  0  0  0
 10 26  1  0  0  0  0
 11 12  2  0  0  0  0
 11 27  1  0  0  0  0
 12 30  1  0  0  0  0
 13 22  1  0  0  0  0
 13 26  2  0  0  0  0
 14 23  1  0  0  0  0
 14 24  2  0  0  0  0
 15 23  2  0  0  0  0
 15 28  1  0  0  0  0
 16 30  2  0  0  0  0
 16 31  1  0  0  0  0
 17 32  1  0  0  0  0
 18 32  1  0  0  0  0
 18 33  2  0  0  0  0
 18 34  1  0  0  0  0
 19 21  2  0  0  0  0
 19 39  1  0  0  0  0
 20 22  2  0  0  0  0
 20 40  1  0  0  0  0
 21 48  1  0  0  0  0
 22 41  1  0  0  0  0
 23 67  1  0  0  0  0
 24 29  1  0  0  0  0
 24 75  1  0  0  0  0
 25 85  1  0  0  0  0
 26 87  1  0  0  0  0
 27 31  2  0  0  0  0
 27 85  1  0  0  0  0
 28 29  2  0  0  0  0
 28 88  1  0  0  0  0
 29 86  1  0  0  0  0
 30 89  1  0  0  0  0
 31 90  1  0  0  0  0
 32 69  2  0  0  0  0
 33 70  1  0  0  0  0
 33 73  1  0  0  0  0
 34 74  1  0  0  0  0
 34 80  2  0  0  0  0
 35 49  1  0  0  0  0
 35 76  1  0  0  0  0
 35 81  2  0  0  0  0
 36 64  1  0  0  0  0
 36 71  1  0  0  0  0
 36 82  2  0  0  0  0
 37 65  1  0  0  0  0
 37 77  1  0  0  0  0
 37 83  2  0  0  0  0
 38 72  1  0  0  0  0
 38 75  1  0  0  0  0
 38 84  2  0  0  0  0
 39 42  1  0  0  0  0
 40 49  1  0  0  0  0
 41 71  1  0  0  0  0
 42 44  1  0  0  0  0
 43 45  1  0  0  0  0
 43 46  1  0  0  0  0
 44 48  1  0  0  0  0
 45 50  1  0  0  0  0
 46 72  1  0  0  0  0
 47 50  1  0  0  0  0
 47 72  1  0  0  0  0
 48 76  1  0  0  0  0
 49 71  1  0  0  0  0
 50 70  1  0  0  0  0
 51 65  1  0  0  0  0
 52 66  1  0  0  0  0
 53 68  1  0  0  0  0
 54 68  1  0  0  0  0
 55 68  1  0  0  0  0
 56 78  1  0  0  0  0
 57 79  1  0  0  0  0
 58 86  1  0  0  0  0
 59 60  1  0  0  0  0
 59 62  1  0  0  0  0
 60 66  1  0  0  0  0
 61 63  1  0  0  0  0
 61 79  1  0  0  0  0
 62 87  1  0  0  0  0
 63 88  1  0  0  0  0
 64 68  1  0  0  0  0
 64 77  1  0  0  0  0
 65 78  1  0  0  0  0
 66 79  1  0  0  0  0
 67 91  1  0  0  0  0
 67 92  1  0  0  0  0
 67 93  1  0  0  0  0
 69 70  1  0  0  0  0
M  CHG  2  78   1  79   1
M  ISO  4  38 100  62 101  75 100  87 101
M  END
> <Batch ID>
0015

> <Smiles>
CNC(C)C(=O)NC(C(=O)N1Cc2cc([101O:1][101CH2:1]CCC(C)N(C)CCOc3cc(C(F)(F)F)cc([100NH:0][100C:0](=O)N4CCCC(n5nc(-c6ccc(Oc7ccc(F)cc7F)cc6)c(C(N)=O)c5N)C4)c3OC)ccc2CC1C(=O)NC1CCCc2ccccc21)C(C)(C)C

> <Shape>
0.211

> <Color>
0.104

> <Negative vol penalty>
0.000

$$$$

  -OEChem-04052315552D

  0  0  0     0  0  0  0  0  0999 V2000
M  END
$$$$

  -OEChem-04052315553D

 84 92  0     1  0  0  0  0  0999 V2000
  -22.2062  -29.9977   17.4806 C   0  0  0  0  0  0  0  0  0  0  0  0
  -23.3246  -29.1976   17.6918 C   0  0  0  0  0  0  0  0  0  0  0  0
  -22.9816   -9.9126   19.9873 C   0  0  0  0  0  0  0  0  0  0  0  0
  -23.7129   -9.9543   22.2896 C   0  0  0  0  0  0  0  0  0  0  0  0
  -21.7205  -30.8010   18.5115 C   0  0  0  0  0  0  0  0  0  0  0  0
  -23.9586  -29.2013   18.9337 C   0  0  0  0  0  0  0  0  0  0  0  0
  -26.6778  -24.4580   21.6929 C   0  0  0  0  0  0  0  0  0  0  0  0
  -22.2071   -8.7836   20.2538 C   0  0  0  0  0  0  0  0  0  0  0  0
  -22.9384   -8.8253   22.5561 C   0  0  0  0  0  0  0  0  0  0  0  0
  -28.0124  -24.0650   21.7841 C   0  0  0  0  0  0  0  0  0  0  0  0
  -23.1560   -5.4853   22.0782 C   0  0  0  0  0  0  0  0  0  0  0  0
  -23.7376   -4.4624   22.8271 C   0  0  0  0  0  0  0  0  0  0  0  0
  -28.1864  -25.1732   23.9197 C   0  0  0  0  0  0  0  0  0  0  0  0
  -31.5588  -19.0173   21.4056 C   0  0  0  0  0  0  0  0  0  0  0  0
  -31.2708  -18.3328   23.7046 C   0  0  0  0  0  0  0  0  0  0  0  0
  -22.0198   -4.7158   24.5071 C   0  0  0  0  0  0  0  0  0  0  0  0
  -23.7346  -10.4979   21.0052 C   0  0  0  0  0  0  0  0  0  0  0  0
  -24.1387  -13.0108   20.8323 C   0  0  0  0  0  0  0  0  0  0  0  0
  -22.3431  -30.8072   19.7697 C   0  0  0  0  0  0  0  0  0  0  0  0
  -26.0896  -25.2221   22.7111 C   0  0  0  0  0  0  0  0  0  0  0  0
  -23.4816  -30.0064   19.9820 C   0  0  0  0  0  0  0  0  0  0  0  0
  -26.8435  -25.5724   23.8402 C   0  0  0  0  0  0  0  0  0  0  0  0
  -31.6750  -19.2856   22.7694 C   0  0  0  0  0  0  0  0  0  0  0  0
  -31.0382  -17.7963   20.9768 C   0  0  0  0  0  0  0  0  0  0  0  0
  -30.7503  -17.1118   23.2758 C   0  0  0  0  0  0  0  0  0  0  0  0
  -30.6340  -16.8435   21.9119 C   0  0  0  0  0  0  0  0  0  0  0  0
  -22.1854   -8.2399   21.5381 C   0  0  0  0  0  0  0  0  0  0  0  0
  -28.7677  -24.4251   22.8963 C   0  0  0  0  0  0  0  0  0  0  0  0
  -22.0063   -6.1235   22.5437 C   0  0  0  0  0  0  0  0  0  0  0  0
  -23.1695   -4.0776   24.0416 C   0  0  0  0  0  0  0  0  0  0  0  0
  -21.4382   -5.7387   23.7581 C   0  0  0  0  0  0  0  0  0  0  0  0
  -24.5353  -11.6639   20.7305 C   0  0  0  0  0  0  0  0  0  0  0  0
  -25.2530  -13.7255   20.4663 C   0  0  0  0  0  0  0  0  0  0  0  0
  -22.8759  -13.5663   21.2229 C   0  0  0  0  0  0  0  0  0  0  0  0
  -24.7894  -28.1179   22.8761 C   0  0  0  0  0  0  0  0  0  0  0  0
  -24.0516  -27.1883   25.8951 C   0  0  0  0  0  0  0  0  0  0  0  0
  -24.7502  -25.1712   28.5578 C   0  0  0  0  0  0  0  0  0  0  0  0
  -30.7403  -14.6442   20.6879 C   0  0  0  0  0  0  0  0  0  0  0  0
  -21.8101  -31.7277   20.8389 C   0  0  0  0  0  0  0  0  0  0  0  0
  -24.6413  -25.6152   22.6101 C   0  0  0  0  0  0  0  0  0  0  0  0
  -26.2533  -26.3747   24.9701 C   0  0  0  0  0  0  0  0  0  0  0  0
  -22.3151  -31.3912   22.2396 C   0  0  0  0  0  0  0  0  0  0  0  0
  -29.5974  -12.2038   18.3609 C   0  0  0  0  0  0  0  0  0  0  0  0
  -23.8218  -31.1538   22.2211 C   0  0  0  0  0  0  0  0  0  0  0  0
  -28.1459  -11.9566   18.7783 C   0  0  0  0  0  0  0  0  0  0  0  0
  -30.5028  -12.4383   19.5688 C   0  0  0  0  0  0  0  0  0  0  0  0
  -28.5969  -13.2396   20.9084 C   0  0  0  0  0  0  0  0  0  0  0  0
  -24.1819  -29.9643   21.3229 C   0  0  1  0  0  0  0  0  0  0  0  0
  -24.2906  -26.8288   23.4654 C   0  0  1  0  0  0  0  0  0  0  0  0
  -27.6348  -13.0625   19.7223 C   0  0  2  0  0  0  0  0  0  0  0  0
  -30.9256  -17.5383   19.5089 C   0  0  0  0  0  0  0  0  0  0  0  0
  -30.3261  -16.1107   24.3016 C   0  0  0  0  0  0  0  0  0  0  0  0
  -23.9978  -24.6671   30.8981 C   0  0  0  0  0  0  0  0  0  0  0  0
  -32.3281  -22.5726   25.6370 C   0  0  0  0  0  0  0  0  0  0  0  0
  -25.4080  -29.7386   26.8779 C   0  0  0  0  0  0  0  0  0  0  0  0
  -25.4734  -28.7369   29.1715 C   0  0  0  0  0  0  0  0  0  0  0  0
  -23.2809  -29.1657   28.0617 C   0  0  0  0  0  0  0  0  0  0  0  0
  -24.0904  -22.3702   27.8662 C   0  0  0  0  0  0  0  0  0  0  0  0
  -32.2346  -20.5990   23.2306 C   0  0  0  0  0  0  0  0  0  0  0  0
  -30.5959  -23.8338   24.2977 C   0  0  0  0  0  0  0  0  0  1  0  0
  -24.7379  -27.2712   27.2371 C   0  0  1  0  0  0  0  0  0  0  0  0
  -23.8565  -24.3057   29.4276 C   0  0  2  0  0  0  0  0  0  0  0  0
  -31.7326  -22.8186   24.2602 C   0  0  2  0  0  0  0  0  0  0  0  0
  -24.7370  -28.7146   27.8150 C   0  0  0  0  0  0  0  0  0  0  0  0
  -25.8026  -11.5283   20.3309 N   0  0  0  0  0  0  0  0  0  0  0  0
  -26.2119  -12.7993   20.1783 N   0  0  0  0  0  0  0  0  0  0  0  0
  -24.8350  -26.7406   24.8219 N   0  0  0  0  0  0  0  0  0  0  0  0
  -29.9580  -13.5021   20.4152 N   0  0  0  0  0  0  0  0  0  0  0  0
  -25.4964  -15.0495   20.3657 N   0  0  0  0  0  0  0  0  0  0  0  0
  -21.8383  -12.6895   21.5676 N   0  0  0  0  0  0  0  0  0  0  0  0
  -30.1053  -15.6031   21.4766 N   0  0  0  0  0  0  0  0  0  0  0  0
  -23.9033  -28.7164   22.0009 N   0  0  0  0  0  0  0  0  0  0  0  0
  -24.0848  -26.2851   28.0912 N   0  0  0  0  0  0  0  0  0  0  0  0
  -24.2080  -22.8671   29.2613 N   0  3  0  0  0  0  0  0  0  0  0  0
  -31.1952  -21.5249   23.7481 N   0  3  0  0  0  0  0  0  0  0  0  0
  -22.6687  -14.8032   21.2492 O   0  0  0  0  0  0  0  0  0  0  0  0
  -25.8956  -28.5391   23.1933 O   0  0  0  0  0  0  0  0  0  0  0  0
  -22.8621  -27.5022   25.8038 O   0  0  0  0  0  0  0  0  0  0  0  0
  -25.9225  -24.8894   28.3193 O   0  0  0  0  0  0  0  0  0  0  0  0
  -31.8788  -14.7752   20.2312 O   0  0  0  0  0  0  0  0  0  0  0  0
  -21.4296   -7.1384   21.7985 O   0  0  0  0  0  0  0  0  0  0  0  0
  -30.0707  -24.0434   22.9875 O   0  0  0  0  0  0  0  0  0  1  0  0
  -23.7273   -3.0943   24.7600 F   0  0  0  0  0  0  0  0  0  0  0  0
  -20.3331   -6.3474   24.2099 F   0  0  0  0  0  0  0  0  0  0  0  0
  1  2  1  0  0  0  0
  1  5  2  0  0  0  0
  2  6  2  0  0  0  0
  3  8  2  0  0  0  0
  3 17  1  0  0  0  0
  4  9  1  0  0  0  0
  4 17  2  0  0  0  0
  5 19  1  0  0  0  0
  6 21  1  0  0  0  0
  7 10  2  0  0  0  0
  7 20  1  0  0  0  0
  8 27  1  0  0  0  0
  9 27  2  0  0  0  0
 10 28  1  0  0  0  0
 11 12  2  0  0  0  0
 11 29  1  0  0  0  0
 12 30  1  0  0  0  0
 13 22  1  0  0  0  0
 13 28  2  0  0  0  0
 14 23  1  0  0  0  0
 14 24  2  0  0  0  0
 15 23  2  0  0  0  0
 15 25  1  0  0  0  0
 16 30  2  0  0  0  0
 16 31  1  0  0  0  0
 17 32  1  0  0  0  0
 18 32  1  0  0  0  0
 18 33  2  0  0  0  0
 18 34  1  0  0  0  0
 19 21  2  0  0  0  0
 19 39  1  0  0  0  0
 20 22  2  0  0  0  0
 20 40  1  0  0  0  0
 21 48  1  0  0  0  0
 22 41  1  0  0  0  0
 23 59  1  0  0  0  0
 24 26  1  0  0  0  0
 24 51  1  0  0  0  0
 25 26  2  0  0  0  0
 25 52  1  0  0  0  0
 26 71  1  0  0  0  0
 27 81  1  0  0  0  0
 28 82  1  0  0  0  0
 29 31  2  0  0  0  0
 29 81  1  0  0  0  0
 30 83  1  0  0  0  0
 31 84  1  0  0  0  0
 32 65  2  0  0  0  0
 33 66  1  0  0  0  0
 33 69  1  0  0  0  0
 34 70  1  0  0  0  0
 34 76  2  0  0  0  0
 35 49  1  0  0  0  0
 35 72  1  0  0  0  0
 35 77  2  0  0  0  0
 36 61  1  0  0  0  0
 36 67  1  0  0  0  0
 36 78  2  0  0  0  0
 37 62  1  0  0  0  0
 37 73  1  0  0  0  0
 37 79  2  0  0  0  0
 38 68  1  0  0  0  0
 38 71  1  0  0  0  0
 38 80  2  0  0  0  0
 39 42  1  0  0  0  0
 40 49  1  0  0  0  0
 41 67  1  0  0  0  0
 42 44  1  0  0  0  0
 43 45  1  0  0  0  0
 43 46  1  0  0  0  0
 44 48  1  0  0  0  0
 45 50  1  0  0  0  0
 46 68  1  0  0  0  0
 47 50  1  0  0  0  0
 47 68  1  0  0  0  0
 48 72  1  0  0  0  0
 49 67  1  0  0  0  0
 50 66  1  0  0  0  0
 53 62  1  0  0  0  0
 54 63  1  0  0  0  0
 55 64  1  0  0  0  0
 56 64  1  0  0  0  0
 57 64  1  0  0  0  0
 58 74  1  0  0  0  0
 59 75  1  0  0  0  0
 60 63  1  0  0  0  0
 60 82  1  0  0  0  0
 61 64  1  0  0  0  0
 61 73  1  0  0  0  0
 62 74  1  0  0  0  0
 63 75  1  0  0  0  0
 65 66  1  0  0  0  0
M  CHG  2  74   1  75   1
M  ISO  4  38 100  60 101  71 100  82 101
M  END
> <Batch ID>
0015

> <Smiles>
CNC(C)C(=O)NC(C(=O)N1Cc2cc([101O:1][101CH2:1]C(C)NCc3cc(C)c([100NH:0][100C:0](=O)N4CCCC(n5nc(-c6ccc(Oc7ccc(F)cc7F)cc6)c(C(N)=O)c5N)C4)c(C)c3)ccc2CC1C(=O)NC1CCCc2ccccc21)C(C)(C)C

> <Shape>
0.237

> <Color>
0.198

> <Negative vol penalty>
0.000

$$$$

  -OEChem-04052315553D

 90 98  0     1  0  0  0  0  0999 V2000
  -26.8251  -36.2626   21.7837 C   0  0  0  0  0  0  0  0  0  0  0  0
  -27.5200  -35.2771   21.0900 C   0  0  0  0  0  0  0  0  0  0  0  0
  -24.3070   -9.0919   20.1549 C   0  0  0  0  0  0  0  0  0  0  0  0
  -22.8762  -10.5775   21.4131 C   0  0  0  0  0  0  0  0  0  0  0  0
  -26.1710  -35.9462   22.9737 C   0  0  0  0  0  0  0  0  0  0  0  0
  -27.5623  -33.9747   21.5866 C   0  0  0  0  0  0  0  0  0  0  0  0
  -27.6317  -28.7917   18.3251 C   0  0  0  0  0  0  0  0  0  0  0  0
  -23.5150   -8.0081   20.5339 C   0  0  0  0  0  0  0  0  0  0  0  0
  -22.0842   -9.4937   21.7921 C   0  0  0  0  0  0  0  0  0  0  0  0
  -28.6662  -27.9416   17.9367 C   0  0  0  0  0  0  0  0  0  0  0  0
  -19.8931   -7.0709   23.3856 C   0  0  0  0  0  0  0  0  0  0  0  0
  -19.5054   -6.9874   24.7228 C   0  0  0  0  0  0  0  0  0  0  0  0
  -28.2082  -26.5264   19.8358 C   0  0  0  0  0  0  0  0  0  0  0  0
  -29.7138  -19.8140   19.0168 C   0  0  0  0  0  0  0  0  0  0  0  0
  -21.8258   -6.8982   25.3899 C   0  0  0  0  0  0  0  0  0  0  0  0
  -23.9876  -10.3766   20.5945 C   0  0  0  0  0  0  0  0  0  0  0  0
  -24.6472  -12.3087   19.0650 C   0  0  0  0  0  0  0  0  0  0  0  0
  -26.1972  -34.6371   23.4801 C   0  0  0  0  0  0  0  0  0  0  0  0
  -26.8834  -28.5209   19.4798 C   0  0  0  0  0  0  0  0  0  0  0  0
  -26.9091  -33.6408   22.7852 C   0  0  0  0  0  0  0  0  0  0  0  0
  -27.1630  -27.3732   20.2353 C   0  0  0  0  0  0  0  0  0  0  0  0
  -27.5083  -20.7151   19.4176 C   0  0  0  0  0  0  0  0  0  0  0  0
  -28.1719  -18.6379   20.4577 C   0  0  0  0  0  0  0  0  0  0  0  0
  -22.4036   -8.2090   21.3525 C   0  0  0  0  0  0  0  0  0  0  0  0
  -28.9565  -26.8103   18.6937 C   0  0  0  0  0  0  0  0  0  0  0  0
  -21.2471   -7.0679   23.0504 C   0  0  0  0  0  0  0  0  0  0  0  0
  -28.7575  -20.8067   18.8037 C   0  0  0  0  0  0  0  0  0  0  0  0
  -29.4210  -18.7295   19.8438 C   0  0  0  0  0  0  0  0  0  0  0  0
  -27.2155  -19.6307   20.2446 C   0  0  0  0  0  0  0  0  0  0  0  0
  -20.4718   -6.9011   25.7250 C   0  0  0  0  0  0  0  0  0  0  0  0
  -22.2134   -6.9816   24.0525 C   0  0  0  0  0  0  0  0  0  0  0  0
  -24.8057  -11.4965   20.2038 C   0  0  0  0  0  0  0  0  0  0  0  0
  -25.6692  -13.2224   19.1499 C   0  0  0  0  0  0  0  0  0  0  0  0
  -23.6640  -12.2432   18.0235 C   0  0  0  0  0  0  0  0  0  0  0  0
  -26.3907  -30.0237   22.2371 C   0  0  0  0  0  0  0  0  0  0  0  0
  -24.2650  -27.6213   22.7189 C   0  0  0  0  0  0  0  0  0  0  0  0
  -23.2770  -24.4372   21.9892 C   0  0  0  0  0  0  0  0  0  0  0  0
  -28.7714  -16.8026   22.0759 C   0  0  0  0  0  0  0  0  0  0  0  0
  -25.5148  -34.3536   24.7948 C   0  0  0  0  0  0  0  0  0  0  0  0
  -25.7533  -29.4334   19.8704 C   0  0  0  0  0  0  0  0  0  0  0  0
  -26.3762  -27.0268   21.4720 C   0  0  0  0  0  0  0  0  0  0  0  0
  -25.2944  -32.8662   25.0583 C   0  0  0  0  0  0  0  0  0  0  0  0
  -29.7109  -13.3703   22.1936 C   0  0  0  0  0  0  0  0  0  0  0  0
  -26.5635  -32.0764   24.7547 C   0  0  0  0  0  0  0  0  0  0  0  0
  -28.5055  -12.6437   21.5928 C   0  0  0  0  0  0  0  0  0  0  0  0
  -29.2865  -14.5703   23.0384 C   0  0  0  0  0  0  0  0  0  0  0  0
  -27.1927  -14.7967   21.7602 C   0  0  0  0  0  0  0  0  0  0  0  0
  -26.9573  -32.2111   23.2788 C   0  0  1  0  0  0  0  0  0  0  0  0
  -25.3916  -29.3372   21.3493 C   0  0  1  0  0  0  0  0  0  0  0  0
  -27.5732  -13.6192   20.8479 C   0  0  2  0  0  0  0  0  0  0  0  0
  -21.8249  -22.3905   21.9961 C   0  0  0  0  0  0  0  0  0  0  0  0
  -24.3722  -22.6266   16.1863 C   0  0  0  0  0  0  0  0  0  0  0  0
  -25.6896  -24.3235   17.5127 C   0  0  0  0  0  0  0  0  0  0  0  0
  -25.6762  -27.0723   25.3679 C   0  0  0  0  0  0  0  0  0  0  0  0
  -24.5367  -24.8439   25.4332 C   0  0  0  0  0  0  0  0  0  0  0  0
  -23.1810  -26.9375   25.4677 C   0  0  0  0  0  0  0  0  0  0  0  0
  -21.7197  -25.3925   19.6608 C   0  0  0  0  0  0  0  0  0  0  0  0
  -30.3767  -16.6723   19.1294 C   0  0  0  0  0  0  0  0  0  0  0  0
  -25.8586  -20.1473   22.1282 C   0  0  0  0  0  0  0  0  0  0  0  0
  -26.4847  -21.7806   19.1879 C   0  0  0  0  0  0  0  0  0  0  0  0
  -30.5237  -23.7414   17.6082 C   0  0  0  0  0  0  0  0  0  0  0  0
  -29.8322  -24.5995   18.6559 C   0  0  0  0  0  0  0  0  0  1  0  0
  -30.4274  -22.2590   17.9331 C   0  0  0  0  0  0  0  0  0  0  0  0
  -24.3313  -26.2410   23.3268 C   0  0  1  0  0  0  0  0  0  0  0  0
  -21.9202  -23.8622   21.6247 C   0  0  2  0  0  0  0  0  0  0  0  0
  -25.0466  -22.9460   17.5108 C   0  0  0  0  0  0  0  0  0  0  0  0
  -24.4476  -26.2810   24.8767 C   0  0  0  0  0  0  0  0  0  0  0  0
  -25.8465  -11.8619   20.9569 N   0  0  0  0  0  0  0  0  0  0  0  0
  -26.3513  -12.9138   20.2899 N   0  0  0  0  0  0  0  0  0  0  0  0
  -25.2852  -27.9534   21.8163 N   0  0  0  0  0  0  0  0  0  0  0  0
  -28.4088  -15.4524   22.2662 N   0  0  0  0  0  0  0  0  0  0  0  0
  -26.0419  -14.2517   18.3599 N   0  0  0  0  0  0  0  0  0  0  0  0
  -22.6852  -11.2424   18.0907 N   0  0  0  0  0  0  0  0  0  0  0  0
  -27.8761  -17.5359   21.2979 N   0  0  0  0  0  0  0  0  0  0  0  0
  -26.1245  -31.3621   22.4540 N   0  0  0  0  0  0  0  0  0  0  0  0
  -23.1621  -25.5212   22.8336 N   0  0  0  0  0  0  0  0  0  0  0  0
  -21.6783  -23.9939   20.1601 N   0  3  0  0  0  0  0  0  0  0  0  0
  -26.1049  -21.9313   17.7576 N   0  3  0  0  0  0  0  0  0  0  0  0
  -23.6636  -13.0381   17.0531 O   0  0  0  0  0  0  0  0  0  0  0  0
  -27.3327  -29.3858   22.6927 O   0  0  0  0  0  0  0  0  0  0  0  0
  -23.3382  -28.3742   23.0280 O   0  0  0  0  0  0  0  0  0  0  0  0
  -24.3332  -23.9692   21.5700 O   0  0  0  0  0  0  0  0  0  0  0  0
  -29.8141  -17.2667   22.5442 O   0  0  0  0  0  0  0  0  0  0  0  0
  -21.6303   -7.1516   21.7223 O   0  0  0  0  0  0  0  0  0  0  0  0
  -30.3706  -17.7710   20.0382 O   0  0  0  0  0  0  0  0  0  0  0  0
  -25.9921  -19.5446   20.8438 O   0  0  0  0  0  0  0  0  0  0  0  0
  -29.9662  -25.9793   18.3172 O   0  0  0  0  0  0  0  0  0  1  0  0
  -29.0631  -21.8648   17.9878 O   0  0  0  0  0  0  0  0  0  0  0  0
  -20.0994   -6.8225   27.0093 F   0  0  0  0  0  0  0  0  0  0  0  0
  -23.5158   -6.9795   23.7368 F   0  0  0  0  0  0  0  0  0  0  0  0
  1  2  1  0  0  0  0
  1  5  2  0  0  0  0
  2  6  2  0  0  0  0
  3  8  2  0  0  0  0
  3 16  1  0  0  0  0
  4  9  1  0  0  0  0
  4 16  2  0  0  0  0
  5 18  1  0  0  0  0
  6 20  1  0  0  0  0
  7 10  2  0  0  0  0
  7 19  1  0  0  0  0
  8 24  1  0  0  0  0
  9 24  2  0  0  0  0
 10 25  1  0  0  0  0
 11 12  2  0  0  0  0
 11 26  1  0  0  0  0
 12 30  1  0  0  0  0
 13 21  1  0  0  0  0
 13 25  2  0  0  0  0
 14 27  1  0  0  0  0
 14 28  2  0  0  0  0
 15 30  2  0  0  0  0
 15 31  1  0  0  0  0
 16 32  1  0  0  0  0
 17 32  1  0  0  0  0
 17 33  2  0  0  0  0
 17 34  1  0  0  0  0
 18 20  2  0  0  0  0
 18 39  1  0  0  0  0
 19 21  2  0  0  0  0
 19 40  1  0  0  0  0
 20 48  1  0  0  0  0
 21 41  1  0  0  0  0
 22 27  2  0  0  0  0
 22 29  1  0  0  0  0
 22 60  1  0  0  0  0
 23 28  1  0  0  0  0
 23 29  2  0  0  0  0
 23 74  1  0  0  0  0
 24 84  1  0  0  0  0
 25 87  1  0  0  0  0
 26 31  2  0  0  0  0
 26 84  1  0  0  0  0
 27 88  1  0  0  0  0
 28 85  1  0  0  0  0
 29 86  1  0  0  0  0
 30 89  1  0  0  0  0
 31 90  1  0  0  0  0
 32 68  2  0  0  0  0
 33 69  1  0  0  0  0
 33 72  1  0  0  0  0
 34 73  1  0  0  0  0
 34 79  2  0  0  0  0
 35 49  1  0  0  0  0
 35 75  1  0  0  0  0
 35 80  2  0  0  0  0
 36 64  1  0  0  0  0
 36 70  1  0  0  0  0
 36 81  2  0  0  0  0
 37 65  1  0  0  0  0
 37 76  1  0  0  0  0
 37 82  2  0  0  0  0
 38 71  1  0  0  0  0
 38 74  1  0  0  0  0
 38 83  2  0  0  0  0
 39 42  1  0  0  0  0
 40 49  1  0  0  0  0
 41 70  1  0  0  0  0
 42 44  1  0  0  0  0
 43 45  1  0  0  0  0
 43 46  1  0  0  0  0
 44 48  1  0  0  0  0
 45 50  1  0  0  0  0
 46 71  1  0  0  0  0
 47 50  1  0  0  0  0
 47 71  1  0  0  0  0
 48 75  1  0  0  0  0
 49 70  1  0  0  0  0
 50 69  1  0  0  0  0
 51 65  1  0  0  0  0
 52 66  1  0  0  0  0
 53 66  1  0  0  0  0
 54 67  1  0  0  0  0
 55 67  1  0  0  0  0
 56 67  1  0  0  0  0
 57 77  1  0  0  0  0
 58 85  1  0  0  0  0
 59 86  1  0  0  0  0
 60 78  1  0  0  0  0
 61 62  1  0  0  0  0
 61 63  1  0  0  0  0
 62 87  1  0  0  0  0
 63 88  1  0  0  0  0
 64 67  1  0  0  0  0
 64 76  1  0  0  0  0
 65 77  1  0  0  0  0
 66 78  1  0  0  0  0
 68 69  1  0  0  0  0
M  CHG  2  77   1  78   1
M  ISO  4  38 100  62 101  74 100  87 101
M  END
> <Batch ID>
0015

> <Smiles>
CNC(C)C(=O)NC(C(=O)N1Cc2cc([101O:1][101CH2:1]CCOc3cc(OC)c([100NH:0][100C:0](=O)N4CCCC(n5nc(-c6ccc(Oc7ccc(F)cc7F)cc6)c(C(N)=O)c5N)C4)c(OC)c3CNC(C)C)ccc2CC1C(=O)NC1CCCc2ccccc21)C(C)(C)C

> <Shape>
0.272

> <Color>
0.109

> <Negative vol penalty>
0.000

$$$$

  -OEChem-04052315553D

 96104  0     1  0  0  0  0  0999 V2000
  -22.0485  -18.5389   15.1378 C   0  0  0  0  0  0  0  0  0  0  0  0
  -23.0648  -18.9292   16.0040 C   0  0  0  0  0  0  0  0  0  0  0  0
  -25.1780  -31.0522   21.0444 C   0  0  0  0  0  0  0  0  0  0  0  0
  -24.5167  -29.5373   22.8064 C   0  0  0  0  0  0  0  0  0  0  0  0
  -21.3308  -17.3703   15.3887 C   0  0  0  0  0  0  0  0  0  0  0  0
  -23.3631  -18.1515   17.1223 C   0  0  0  0  0  0  0  0  0  0  0  0
  -28.3438  -17.4932   17.7582 C   0  0  0  0  0  0  0  0  0  0  0  0
  -24.5960  -32.1132   21.7380 C   0  0  0  0  0  0  0  0  0  0  0  0
  -23.9347  -30.5984   23.5002 C   0  0  0  0  0  0  0  0  0  0  0  0
  -29.0604  -18.5528   18.3128 C   0  0  0  0  0  0  0  0  0  0  0  0
  -25.3771  -34.1041   24.3571 C   0  0  0  0  0  0  0  0  0  0  0  0
  -26.1034  -35.2909   24.4546 C   0  0  0  0  0  0  0  0  0  0  0  0
  -29.0155  -17.4519   20.4588 C   0  0  0  0  0  0  0  0  0  0  0  0
  -28.7971  -21.4258   25.1733 C   0  0  0  0  0  0  0  0  0  0  0  0
  -26.6766  -22.0114   26.1720 C   0  0  0  0  0  0  0  0  0  0  0  0
  -24.3291  -36.4704   23.3155 C   0  0  0  0  0  0  0  0  0  0  0  0
  -25.1383  -29.7643   21.5785 C   0  0  0  0  0  0  0  0  0  0  0  0
  -27.0658  -28.2093   20.9664 C   0  0  0  0  0  0  0  0  0  0  0  0
  -21.6269  -16.5728   16.5054 C   0  0  0  0  0  0  0  0  0  0  0  0
  -27.9476  -16.4084   18.5535 C   0  0  0  0  0  0  0  0  0  0  0  0
  -22.6477  -16.9718   17.3892 C   0  0  0  0  0  0  0  0  0  0  0  0
  -28.2962  -16.3787   19.9113 C   0  0  0  0  0  0  0  0  0  0  0  0
  -27.8616  -21.2760   26.1970 C   0  0  0  0  0  0  0  0  0  0  0  0
  -28.5477  -22.3111   24.1246 C   0  0  0  0  0  0  0  0  0  0  0  0
  -27.3627  -23.0465   24.0996 C   0  0  0  0  0  0  0  0  0  0  0  0
  -26.4272  -22.8967   25.1233 C   0  0  0  0  0  0  0  0  0  0  0  0
  -23.9744  -31.8863   22.9660 C   0  0  0  0  0  0  0  0  0  0  0  0
  -29.3939  -18.5336   19.6639 C   0  0  0  0  0  0  0  0  0  0  0  0
  -24.1268  -34.1003   23.7386 C   0  0  0  0  0  0  0  0  0  0  0  0
  -25.5794  -36.4740   23.9339 C   0  0  0  0  0  0  0  0  0  0  0  0
  -23.6028  -35.2835   23.2178 C   0  0  0  0  0  0  0  0  0  0  0  0
  -25.7388  -28.6678   20.8622 C   0  0  0  0  0  0  0  0  0  0  0  0
  -27.1350  -27.1558   20.0878 C   0  0  0  0  0  0  0  0  0  0  0  0
  -28.1397  -28.6925   21.7842 C   0  0  0  0  0  0  0  0  0  0  0  0
  -25.1540  -15.1542   19.4060 C   0  0  0  0  0  0  0  0  0  0  0  0
  -27.0291  -12.8653   20.7355 C   0  0  0  0  0  0  0  0  0  0  0  0
  -20.6059  -22.9867   23.2793 C   0  0  0  0  0  0  0  0  0  0  0  0
  -30.0698  -11.9950   22.0174 C   0  0  0  0  0  0  0  0  0  0  0  0
  -23.0157  -23.4207   17.8674 C   0  0  0  0  0  0  0  0  0  0  0  0
  -20.7921  -15.3430   16.7611 C   0  0  0  0  0  0  0  0  0  0  0  0
  -27.1982  -15.2607   17.9342 C   0  0  0  0  0  0  0  0  0  0  0  0
  -27.9122  -15.2277   20.8037 C   0  0  0  0  0  0  0  0  0  0  0  0
  -21.4204  -14.3779   17.7631 C   0  0  0  0  0  0  0  0  0  0  0  0
  -25.2024  -25.5385   16.0209 C   0  0  0  0  0  0  0  0  0  0  0  0
  -21.9282  -15.1343   18.9865 C   0  0  0  0  0  0  0  0  0  0  0  0
  -25.7076  -26.5393   17.0616 C   0  0  0  0  0  0  0  0  0  0  0  0
  -23.7423  -25.1619   16.2622 C   0  0  0  0  0  0  0  0  0  0  0  0
  -23.9499  -25.6768   18.6634 C   0  0  0  0  0  0  0  0  0  0  0  0
  -23.0175  -16.1418   18.5993 C   0  0  1  0  0  0  0  0  0  0  0  0
  -26.4007  -14.4497   18.9509 C   0  0  1  0  0  0  0  0  0  0  0  0
  -25.4341  -26.0442   18.4946 C   0  0  2  0  0  0  0  0  0  0  0  0
  -28.1295  -20.3309   27.3191 C   0  0  0  0  0  0  0  0  0  0  0  0
  -27.0996  -23.9958   22.9731 C   0  0  0  0  0  0  0  0  0  0  0  0
  -19.6667  -24.1284   23.1741 C   0  0  0  0  0  0  0  0  0  0  0  0
  -31.2886  -10.0653   23.0607 C   0  0  0  0  0  0  0  0  0  0  0  0
  -29.9707  -23.3415   20.0789 C   0  0  0  0  0  0  0  0  0  0  0  0
  -25.5424  -13.3464   23.3562 C   0  0  0  0  0  0  0  0  0  0  0  0
  -27.3828  -12.1321   24.5423 C   0  0  0  0  0  0  0  0  0  0  0  0
  -25.9990  -10.9419   22.8420 C   0  0  0  0  0  0  0  0  0  0  0  0
  -25.1504  -24.9296   25.7537 C   0  0  0  0  0  0  0  0  0  0  0  0
  -32.0711  -11.9304   19.8381 C   0  0  0  0  0  0  0  0  0  0  0  0
  -29.5706  -22.4536   23.0363 C   0  0  0  0  0  0  0  0  0  0  0  0
  -20.8255  -21.7942   19.7623 C   0  0  0  0  0  0  0  0  0  0  0  0
  -23.3010  -22.1260   25.3676 C   0  0  0  0  0  0  0  0  0  0  0  0
  -20.3401  -22.7565   20.8399 C   0  0  0  0  0  0  0  0  0  0  0  0
  -22.3427  -21.7720   19.5960 C   0  0  0  0  0  0  0  0  0  0  0  0
  -24.0451  -23.1009   24.4565 C   0  0  0  0  0  0  0  0  0  0  0  0
  -22.0228  -21.5667   24.7543 C   0  0  0  0  0  0  0  0  0  0  0  0
  -29.9036  -20.8563   19.6267 C   0  0  0  0  0  0  0  0  0  1  0  0
  -27.6828  -12.6678   22.0818 C   0  0  1  0  0  0  0  0  0  0  0  0
  -30.9624  -10.7932   21.7659 C   0  0  2  0  0  0  0  0  0  0  0  0
  -30.1527  -21.9488   20.6604 C   0  0  2  0  0  0  0  0  0  0  0  0
  -26.6575  -12.2948   23.1895 C   0  0  0  0  0  0  0  0  0  0  0  0
  -25.0172  -27.9633   19.9864 N   0  0  0  0  0  0  0  0  0  0  0  0
  -25.8938  -27.0516   19.5322 N   0  0  0  0  0  0  0  0  0  0  0  0
  -27.1747  -14.1323   20.1529 N   0  0  0  0  0  0  0  0  0  0  0  0
  -23.5508  -24.6992   17.6388 N   0  0  0  0  0  0  0  0  0  0  0  0
  -28.1360  -26.3178   19.7440 N   0  0  0  0  0  0  0  0  0  0  0  0
  -27.8968  -29.7835   22.6299 N   0  0  0  0  0  0  0  0  0  0  0  0
  -24.2783  -15.4649   18.3832 N   0  0  0  0  0  0  0  0  0  0  0  0
  -20.8977  -22.3623   22.1356 N   0  0  0  0  0  0  0  0  0  0  0  0
  -28.7349  -11.6768   21.8832 N   0  0  0  0  0  0  0  0  0  0  0  0
  -22.8730  -23.0579   19.2011 N   0  0  0  0  0  0  0  0  0  0  0  0
  -25.2210  -23.6314   25.1153 N   0  0  3  0  0  0  0  0  0  0  0  0
  -21.0905  -22.6616   24.4830 N   0  3  0  0  0  0  0  0  0  0  0  0
  -32.2416  -11.2215   21.1325 N   0  3  0  0  0  0  0  0  0  0  0  0
  -29.1751  -21.7785   21.7741 N   0  3  0  0  0  0  0  0  0  0  0  0
  -29.2854  -28.1827   21.7535 O   0  0  0  0  0  0  0  0  0  0  0  0
  -24.9975  -15.3965   20.5969 O   0  0  0  0  0  0  0  0  0  0  0  0
  -26.4181  -11.9278   20.2165 O   0  0  0  0  0  0  0  0  0  0  0  0
  -30.5123  -13.1042   22.3079 O   0  0  0  0  0  0  0  0  0  0  0  0
  -22.6942  -22.6569   16.9507 O   0  0  0  0  0  0  0  0  0  0  0  0
  -23.4066  -32.9214   23.6432 O   0  0  0  0  0  0  0  0  0  0  0  0
  -30.0927  -19.5669   20.2080 O   0  0  0  0  0  0  0  0  0  1  0  0
  -26.2763  -37.6140   24.0290 F   0  0  0  0  0  0  0  0  0  0  0  0
  -22.4016  -35.2864   22.6237 F   0  0  0  0  0  0  0  0  0  0  0  0
  1  2  1  0  0  0  0
  1  5  2  0  0  0  0
  2  6  2  0  0  0  0
  3  8  2  0  0  0  0
  3 17  1  0  0  0  0
  4  9  1  0  0  0  0
  4 17  2  0  0  0  0
  5 19  1  0  0  0  0
  6 21  1  0  0  0  0
  7 10  2  0  0  0  0
  7 20  1  0  0  0  0
  8 27  1  0  0  0  0
  9 27  2  0  0  0  0
 10 28  1  0  0  0  0
 11 12  2  0  0  0  0
 11 29  1  0  0  0  0
 12 30  1  0  0  0  0
 13 22  1  0  0  0  0
 13 28  2  0  0  0  0
 14 23  2  0  0  0  0
 14 24  1  0  0  0  0
 15 23  1  0  0  0  0
 15 26  2  0  0  0  0
 16 30  2  0  0  0  0
 16 31  1  0  0  0  0
 17 32  1  0  0  0  0
 18 32  1  0  0  0  0
 18 33  2  0  0  0  0
 18 34  1  0  0  0  0
 19 21  2  0  0  0  0
 19 40  1  0  0  0  0
 20 22  2  0  0  0  0
 20 41  1  0  0  0  0
 21 49  1  0  0  0  0
 22 42  1  0  0  0  0
 23 52  1  0  0  0  0
 24 25  2  0  0  0  0
 24 62  1  0  0  0  0
 25 26  1  0  0  0  0
 25 53  1  0  0  0  0
 26 84  1  0  0  0  0
 27 93  1  0  0  0  0
 28 94  1  0  0  0  0
 29 31  2  0  0  0  0
 29 93  1  0  0  0  0
 30 95  1  0  0  0  0
 31 96  1  0  0  0  0
 32 74  2  0  0  0  0
 33 75  1  0  0  0  0
 33 78  1  0  0  0  0
 34 79  1  0  0  0  0
 34 88  2  0  0  0  0
 35 50  1  0  0  0  0
 35 80  1  0  0  0  0
 35 89  2  0  0  0  0
 36 70  1  0  0  0  0
 36 76  1  0  0  0  0
 36 90  2  0  0  0  0
 37 54  1  0  0  0  0
 37 81  1  0  0  0  0
 37 85  2  0  0  0  0
 38 71  1  0  0  0  0
 38 82  1  0  0  0  0
 38 91  2  0  0  0  0
 39 77  1  0  0  0  0
 39 83  1  0  0  0  0
 39 92  2  0  0  0  0
 40 43  1  0  0  0  0
 41 50  1  0  0  0  0
 42 76  1  0  0  0  0
 43 45  1  0  0  0  0
 44 46  1  0  0  0  0
 44 47  1  0  0  0  0
 45 49  1  0  0  0  0
 46 51  1  0  0  0  0
 47 77  1  0  0  0  0
 48 51  1  0  0  0  0
 48 77  1  0  0  0  0
 49 80  1  0  0  0  0
 50 76  1  0  0  0  0
 51 75  1  0  0  0  0
 55 71  1  0  0  0  0
 56 72  1  0  0  0  0
 57 73  1  0  0  0  0
 58 73  1  0  0  0  0
 59 73  1  0  0  0  0
 60 84  1  0  0  0  0
 61 86  1  0  0  0  0
 62 87  1  0  0  0  0
 63 65  1  0  0  0  0
 63 66  1  0  0  0  0
 64 67  1  0  0  0  0
 64 68  1  0  0  0  0
 65 81  1  0  0  0  0
 66 83  1  0  0  0  0
 67 84  1  0  0  0  0
 68 85  1  0  0  0  0
 69 72  1  0  0  0  0
 69 94  1  0  0  0  0
 70 73  1  0  0  0  0
 70 82  1  0  0  0  0
 71 86  1  0  0  0  0
 72 87  1  0  0  0  0
 74 75  1  0  0  0  0
M  CHG  3  85   1  86   1  87   1
M  ISO  4  39 100  69 101  83 100  94 101
M  END
> <Batch ID>
0015

> <Smiles>
CNC(C)C(=O)NC(C(=O)N1Cc2cc([101O:1][101CH2:1]C(C)NCc3cc(C)cc(N(C)CCCNC(C)=NCCC[100NH:0][100C:0](=O)N4CCCC(n5nc(-c6ccc(Oc7ccc(F)cc7F)cc6)c(C(N)=O)c5N)C4)c3C)ccc2CC1C(=O)NC1CCCc2ccccc21)C(C)(C)C

> <Shape>
0.206

> <Color>
0.070

> <Negative vol penalty>
0.000

$$$$

  -OEChem-04052315553D

 85 93  0     1  0  0  0  0  0999 V2000
  -29.5611  -14.3133   27.3692 C   0  0  0  0  0  0  0  0  0  0  0  0
  -29.1891  -14.8580   26.1443 C   0  0  0  0  0  0  0  0  0  0  0  0
  -23.1706   -9.8484   19.9135 C   0  0  0  0  0  0  0  0  0  0  0  0
  -23.8267   -9.9032   22.2380 C   0  0  0  0  0  0  0  0  0  0  0  0
  -28.5943  -13.7571   28.2059 C   0  0  0  0  0  0  0  0  0  0  0  0
  -27.8502  -14.8458   25.7549 C   0  0  0  0  0  0  0  0  0  0  0  0
  -26.3534  -19.2738   23.8062 C   0  0  0  0  0  0  0  0  0  0  0  0
  -22.4429   -8.6814   20.1464 C   0  0  0  0  0  0  0  0  0  0  0  0
  -23.0990   -8.7362   22.4709 C   0  0  0  0  0  0  0  0  0  0  0  0
  -26.7259  -19.5492   22.4912 C   0  0  0  0  0  0  0  0  0  0  0  0
  -19.8662   -7.8708   22.9406 C   0  0  0  0  0  0  0  0  0  0  0  0
  -19.0587   -7.8284   24.0772 C   0  0  0  0  0  0  0  0  0  0  0  0
  -24.5289  -18.8966   21.7386 C   0  0  0  0  0  0  0  0  0  0  0  0
  -28.5101  -16.1848   16.5446 C   0  0  0  0  0  0  0  0  0  0  0  0
  -27.4697  -13.9109   15.3077 C   0  0  0  0  0  0  0  0  0  0  0  0
  -20.3099   -5.9304   24.8953 C   0  0  0  0  0  0  0  0  0  0  0  0
  -23.8626  -10.4592   20.9593 C   0  0  0  0  0  0  0  0  0  0  0  0
  -24.1516  -12.9899   20.8190 C   0  0  0  0  0  0  0  0  0  0  0  0
  -27.2416  -13.7467   27.8308 C   0  0  0  0  0  0  0  0  0  0  0  0
  -25.0672  -18.7965   24.0965 C   0  0  0  0  0  0  0  0  0  0  0  0
  -26.8647  -14.2877   26.5867 C   0  0  0  0  0  0  0  0  0  0  0  0
  -24.1417  -18.6184   23.0583 C   0  0  0  0  0  0  0  0  0  0  0  0
  -27.3114  -16.2632   15.8357 C   0  0  0  0  0  0  0  0  0  0  0  0
  -28.6684  -13.8325   16.0166 C   0  0  0  0  0  0  0  0  0  0  0  0
  -22.4070   -8.1254   21.4251 C   0  0  0  0  0  0  0  0  0  0  0  0
  -25.8146  -19.3579   21.4569 C   0  0  0  0  0  0  0  0  0  0  0  0
  -20.8955   -6.9429   22.7813 C   0  0  0  0  0  0  0  0  0  0  0  0
  -19.2806   -6.8582   25.0545 C   0  0  0  0  0  0  0  0  0  0  0  0
  -29.1886  -14.9694   16.6350 C   0  0  0  0  0  0  0  0  0  0  0  0
  -26.7912  -15.1263   15.2173 C   0  0  0  0  0  0  0  0  0  0  0  0
  -21.1174   -5.9728   23.7587 C   0  0  0  0  0  0  0  0  0  0  0  0
  -24.6150  -11.6644   20.7192 C   0  0  0  0  0  0  0  0  0  0  0  0
  -25.2415  -13.7600   20.4941 C   0  0  0  0  0  0  0  0  0  0  0  0
  -22.8522  -13.4812   21.1737 C   0  0  0  0  0  0  0  0  0  0  0  0
  -23.8996  -16.1340   25.3816 C   0  0  0  0  0  0  0  0  0  0  0  0
  -21.0855  -17.7350   25.1814 C   0  0  0  0  0  0  0  0  0  0  0  0
  -26.4849  -18.6660   17.9727 C   0  0  0  0  0  0  0  0  0  0  0  0
  -19.2468  -20.1852   23.6773 C   0  0  0  0  0  0  0  0  0  0  0  0
  -30.1701  -12.2152   17.2084 C   0  0  0  0  0  0  0  0  0  0  0  0
  -26.2390  -13.0919   28.7476 C   0  0  0  0  0  0  0  0  0  0  0  0
  -24.6723  -18.5296   25.5231 C   0  0  0  0  0  0  0  0  0  0  0  0
  -22.7420  -18.1273   23.3193 C   0  0  0  0  0  0  0  0  0  0  0  0
  -24.7916  -13.4553   28.4264 C   0  0  0  0  0  0  0  0  0  0  0  0
  -30.0208  -13.7498   20.5723 C   0  0  0  0  0  0  0  0  0  0  0  0
  -24.5330  -13.3426   26.9273 C   0  0  0  0  0  0  0  0  0  0  0  0
  -28.6003  -13.4249   21.0306 C   0  0  0  0  0  0  0  0  0  0  0  0
  -30.5571  -12.7005   19.6032 C   0  0  0  0  0  0  0  0  0  0  0  0
  -28.2521  -12.1542   18.8752 C   0  0  0  0  0  0  0  0  0  0  0  0
  -25.4191  -14.3155   26.1400 C   0  0  1  0  0  0  0  0  0  0  0  0
  -23.5023  -17.5585   25.6476 C   0  0  1  0  0  0  0  0  0  0  0  0
  -27.6741  -13.2177   19.8209 C   0  0  1  0  0  0  0  0  0  0  0  0
  -16.9665  -21.2325   23.7013 C   0  0  0  0  0  0  0  0  0  0  0  0
  -19.9665  -15.3275   23.6775 C   0  0  0  0  0  0  0  0  0  0  0  0
  -18.0684  -16.7724   22.9176 C   0  0  0  0  0  0  0  0  0  0  0  0
  -18.4020  -16.3319   25.3501 C   0  0  0  0  0  0  0  0  0  0  0  0
  -29.4568  -11.7510   14.9046 C   0  0  0  0  0  0  0  0  0  0  0  0
  -20.3428  -22.8314   24.4225 C   0  0  0  0  0  0  0  0  0  0  0  0
  -26.5832  -17.5728   15.7410 C   0  0  0  0  0  0  0  0  0  0  0  0
  -25.5492  -18.8547   19.1477 C   0  0  0  0  0  0  0  0  0  1  0  0
  -20.0029  -17.8677   24.1376 C   0  0  1  0  0  0  0  0  0  0  0  0
  -18.3826  -21.2928   24.2525 C   0  0  2  0  0  0  0  0  0  0  0  0
  -19.1369  -16.5823   24.0152 C   0  0  0  0  0  0  0  0  0  0  0  0
  -25.8992  -11.5928   20.3590 N   0  0  0  0  0  0  0  0  0  0  0  0
  -26.2520  -12.8831   20.2294 N   0  0  0  0  0  0  0  0  0  0  0  0
  -22.4056  -17.8743   24.7301 N   0  0  0  0  0  0  0  0  0  0  0  0
  -29.6367  -12.4704   18.4884 N   0  0  0  0  0  0  0  0  0  0  0  0
  -25.4244  -15.0950   20.4117 N   0  0  0  0  0  0  0  0  0  0  0  0
  -21.8472  -12.5530   21.4785 N   0  0  0  0  0  0  0  0  0  0  0  0
  -24.8896  -15.6600   26.2210 N   0  0  0  0  0  0  0  0  0  0  0  0
  -25.9033  -17.9035   16.9719 N   0  0  0  0  0  0  0  0  0  0  0  0
  -19.2472  -19.0667   24.4836 N   0  0  0  0  0  0  0  0  0  0  0  0
  -29.3677  -12.5742   16.1086 N   0  0  0  0  0  0  0  0  0  0  0  0
  -18.9600  -22.6259   23.9201 N   0  3  0  0  0  0  0  0  0  0  0  0
  -22.5855  -14.7066   21.2032 O   0  0  0  0  0  0  0  0  0  0  0  0
  -23.3477  -15.5106   24.4824 O   0  0  0  0  0  0  0  0  0  0  0  0
  -20.7710  -17.5228   26.3552 O   0  0  0  0  0  0  0  0  0  0  0  0
  -27.6163  -19.1423   17.9413 O   0  0  0  0  0  0  0  0  0  0  0  0
  -19.8574  -20.2994   22.6167 O   0  0  0  0  0  0  0  0  0  0  0  0
  -31.2623  -11.6548   17.0544 O   0  0  0  0  0  0  0  0  0  0  0  0
  -21.6968   -6.9868   21.6528 O   0  0  0  0  0  0  0  0  0  0  0  0
  -26.1758  -19.6253   20.1724 O   0  0  0  0  0  0  0  0  0  1  0  0
  -18.5061   -6.8186   26.1466 F   0  0  0  0  0  0  0  0  0  0  0  0
  -30.3401  -14.9056   17.3189 F   0  0  0  0  0  0  0  0  0  0  0  0
  -25.6402  -15.1921   14.5339 F   0  0  0  0  0  0  0  0  0  0  0  0
  -22.1054   -5.0795   23.6118 F   0  0  0  0  0  0  0  0  0  0  0  0
  1  2  1  0  0  0  0
  1  5  2  0  0  0  0
  2  6  2  0  0  0  0
  3  8  2  0  0  0  0
  3 17  1  0  0  0  0
  4  9  1  0  0  0  0
  4 17  2  0  0  0  0
  5 19  1  0  0  0  0
  6 21  1  0  0  0  0
  7 10  2  0  0  0  0
  7 20  1  0  0  0  0
  8 25  1  0  0  0  0
  9 25  2  0  0  0  0
 10 26  1  0  0  0  0
 11 12  2  0  0  0  0
 11 27  1  0  0  0  0
 12 28  1  0  0  0  0
 13 22  1  0  0  0  0
 13 26  2  0  0  0  0
 14 23  1  0  0  0  0
 14 29  2  0  0  0  0
 15 24  2  0  0  0  0
 15 30  1  0  0  0  0
 16 28  2  0  0  0  0
 16 31  1  0  0  0  0
 17 32  1  0  0  0  0
 18 32  1  0  0  0  0
 18 33  2  0  0  0  0
 18 34  1  0  0  0  0
 19 21  2  0  0  0  0
 19 40  1  0  0  0  0
 20 22  2  0  0  0  0
 20 41  1  0  0  0  0
 21 49  1  0  0  0  0
 22 42  1  0  0  0  0
 23 30  2  0  0  0  0
 23 58  1  0  0  0  0
 24 29  1  0  0  0  0
 24 72  1  0  0  0  0
 25 80  1  0  0  0  0
 26 81  1  0  0  0  0
 27 31  2  0  0  0  0
 27 80  1  0  0  0  0
 28 82  1  0  0  0  0
 29 83  1  0  0  0  0
 30 84  1  0  0  0  0
 31 85  1  0  0  0  0
 32 63  2  0  0  0  0
 33 64  1  0  0  0  0
 33 67  1  0  0  0  0
 34 68  1  0  0  0  0
 34 74  2  0  0  0  0
 35 50  1  0  0  0  0
 35 69  1  0  0  0  0
 35 75  2  0  0  0  0
 36 60  1  0  0  0  0
 36 65  1  0  0  0  0
 36 76  2  0  0  0  0
 37 59  1  0  0  0  0
 37 70  1  0  0  0  0
 37 77  2  0  0  0  0
 38 61  1  0  0  0  0
 38 71  1  0  0  0  0
 38 78  2  0  0  0  0
 39 66  1  0  0  0  0
 39 72  1  0  0  0  0
 39 79  2  0  0  0  0
 40 43  1  0  0  0  0
 41 50  1  0  0  0  0
 42 65  1  0  0  0  0
 43 45  1  0  0  0  0
 44 46  1  0  0  0  0
 44 47  1  0  0  0  0
 45 49  1  0  0  0  0
 46 51  1  0  0  0  0
 47 66  1  0  0  0  0
 48 51  1  0  0  0  0
 48 66  1  0  0  0  0
 49 69  1  0  0  0  0
 50 65  1  0  0  0  0
 51 64  1  0  0  0  0
 52 61  1  0  0  0  0
 53 62  1  0  0  0  0
 54 62  1  0  0  0  0
 55 62  1  0  0  0  0
 56 72  1  0  0  0  0
 57 73  1  0  0  0  0
 58 70  1  0  0  0  0
 59 81  1  0  0  0  0
 60 62  1  0  0  0  0
 60 71  1  0  0  0  0
 61 73  1  0  0  0  0
 63 64  1  0  0  0  0
M  CHG  1  73   1
M  ISO  4  39 100  59 101  72 100  81 101
M  END
> <Batch ID>
0015

> <Smiles>
CNC(C)C(=O)NC(C(=O)N1Cc2cc([101O:1][101CH2:1]C(=O)NCc3cc(F)c([100N:0](C)[100C:0](=O)N4CCCC(n5nc(-c6ccc(Oc7ccc(F)cc7F)cc6)c(C(N)=O)c5N)C4)cc3F)ccc2CC1C(=O)NC1CCCc2ccccc21)C(C)(C)C

> <Shape>
0.150

> <Color>
0.175

> <Negative vol penalty>
0.000

$$$$

  -OEChem-04052315553D

 85 93  0     1  0  0  0  0  0999 V2000
  -29.4338  -35.8752   23.2120 C   0  0  0  0  0  0  0  0  0  0  0  0
  -29.5814  -34.5138   22.9668 C   0  0  0  0  0  0  0  0  0  0  0  0
  -24.5080   -9.5646   21.6582 C   0  0  0  0  0  0  0  0  0  0  0  0
  -23.1069  -11.2225   20.5973 C   0  0  0  0  0  0  0  0  0  0  0  0
  -28.2156  -36.3710   23.6748 C   0  0  0  0  0  0  0  0  0  0  0  0
  -28.5111  -33.6471   23.1853 C   0  0  0  0  0  0  0  0  0  0  0  0
  -27.1216  -28.6278   19.9633 C   0  0  0  0  0  0  0  0  0  0  0  0
  -23.4366   -9.1726   22.4607 C   0  0  0  0  0  0  0  0  0  0  0  0
  -22.0354  -10.8305   21.3998 C   0  0  0  0  0  0  0  0  0  0  0  0
  -27.3682  -27.2734   20.1839 C   0  0  0  0  0  0  0  0  0  0  0  0
  -20.6549   -7.2757   22.1498 C   0  0  0  0  0  0  0  0  0  0  0  0
  -20.4251   -5.9084   22.3018 C   0  0  0  0  0  0  0  0  0  0  0  0
  -25.1722  -27.0376   21.1540 C   0  0  0  0  0  0  0  0  0  0  0  0
  -27.8948  -19.3456   19.6946 C   0  0  0  0  0  0  0  0  0  0  0  0
  -25.4819  -19.8023   18.3710 C   0  0  0  0  0  0  0  0  0  0  0  0
  -20.7403   -6.1207   24.6878 C   0  0  0  0  0  0  0  0  0  0  0  0
  -24.3432  -10.5896   20.7265 C   0  0  0  0  0  0  0  0  0  0  0  0
  -25.7985  -10.4819   18.6341 C   0  0  0  0  0  0  0  0  0  0  0  0
  -27.1269  -35.5113   23.8899 C   0  0  0  0  0  0  0  0  0  0  0  0
  -25.9004  -29.2006   20.3470 C   0  0  0  0  0  0  0  0  0  0  0  0
  -27.2776  -34.1316   23.6527 C   0  0  0  0  0  0  0  0  0  0  0  0
  -24.9115  -28.3989   20.9349 C   0  0  0  0  0  0  0  0  0  0  0  0
  -27.3593  -20.6326   19.6451 C   0  0  0  0  0  0  0  0  0  0  0  0
  -26.1528  -20.8610   18.9833 C   0  0  0  0  0  0  0  0  0  0  0  0
  -27.2239  -18.2870   19.0823 C   0  0  0  0  0  0  0  0  0  0  0  0
  -22.2003   -9.8055   22.3315 C   0  0  0  0  0  0  0  0  0  0  0  0
  -26.3946  -26.4788   20.7820 C   0  0  0  0  0  0  0  0  0  0  0  0
  -20.9274   -8.0656   23.2667 C   0  0  0  0  0  0  0  0  0  0  0  0
  -26.0174  -18.5153   18.4205 C   0  0  0  0  0  0  0  0  0  0  0  0
  -20.4678   -5.3309   23.5708 C   0  0  0  0  0  0  0  0  0  0  0  0
  -20.9701   -7.4881   24.5357 C   0  0  0  0  0  0  0  0  0  0  0  0
  -25.4497  -10.9954   19.8977 C   0  0  0  0  0  0  0  0  0  0  0  0
  -26.9152  -11.1941   18.2704 C   0  0  0  0  0  0  0  0  0  0  0  0
  -25.1693   -9.4532   17.8585 C   0  0  0  0  0  0  0  0  0  0  0  0
  -25.0350  -31.4845   22.3812 C   0  0  0  0  0  0  0  0  0  0  0  0
  -22.1046  -30.9929   21.0799 C   0  0  0  0  0  0  0  0  0  0  0  0
  -19.9794  -28.8857   19.4398 C   0  0  0  0  0  0  0  0  0  0  0  0
  -28.9713  -16.6034   19.7595 C   0  0  0  0  0  0  0  0  0  0  0  0
  -25.8442  -36.0869   24.4358 C   0  0  0  0  0  0  0  0  0  0  0  0
  -25.6397  -30.6572   20.0778 C   0  0  0  0  0  0  0  0  0  0  0  0
  -23.5763  -28.9610   21.3467 C   0  0  0  0  0  0  0  0  0  0  0  0
  -24.6452  -35.1543   24.2846 C   0  0  0  0  0  0  0  0  0  0  0  0
  -30.6664  -13.4975   20.1564 C   0  0  0  0  0  0  0  0  0  0  0  0
  -25.0100  -33.7401   24.7251 C   0  0  0  0  0  0  0  0  0  0  0  0
  -29.5537  -12.4565   20.0140 C   0  0  0  0  0  0  0  0  0  0  0  0
  -30.1821  -14.7490   20.8865 C   0  0  0  0  0  0  0  0  0  0  0  0
  -27.8591  -14.3236   20.1851 C   0  0  0  0  0  0  0  0  0  0  0  0
  -26.1323  -33.1632   23.8539 C   0  0  1  0  0  0  0  0  0  0  0  0
  -24.5571  -31.2465   20.9767 C   0  0  1  0  0  0  0  0  0  0  0  0
  -28.2816  -13.0718   19.3988 C   0  0  2  0  0  0  0  0  0  0  0  0
  -25.5598  -22.2301   18.9162 C   0  0  0  0  0  0  0  0  0  0  0  0
  -17.6378  -28.7514   18.5476 C   0  0  0  0  0  0  0  0  0  0  0  0
  -27.3934  -23.7105   23.4458 C   0  0  0  0  0  0  0  0  0  0  0  0
  -21.0493  -30.5996   23.9157 C   0  0  0  0  0  0  0  0  0  0  0  0
  -18.9968  -29.5561   22.9324 C   0  0  0  0  0  0  0  0  0  0  0  0
  -19.5523  -31.9336   22.4211 C   0  0  0  0  0  0  0  0  0  0  0  0
  -20.9348  -28.4921   16.6665 C   0  0  0  0  0  0  0  0  0  0  0  0
  -24.3959  -16.7855   18.6046 C   0  0  0  0  0  0  0  0  0  0  0  0
  -28.0994  -21.7562   20.3089 C   0  0  0  0  0  0  0  0  0  0  0  0
  -27.9872  -24.7703   21.2301 C   0  0  0  0  0  0  0  0  0  1  0  0
  -20.9364  -30.0876   21.3876 C   0  0  1  0  0  0  0  0  0  0  0  0
  -19.0847  -29.0969   18.2317 C   0  0  2  0  0  0  0  0  0  0  0  0
  -28.0433  -23.5102   22.0863 C   0  0  2  0  0  0  0  0  0  0  0  0
  -20.1595  -30.5338   22.6583 C   0  0  0  0  0  0  0  0  0  0  0  0
  -26.2779  -11.9592   20.3091 N   0  0  0  0  0  0  0  0  0  0  0  0
  -27.1581  -12.0570   19.2983 N   0  0  0  0  0  0  0  0  0  0  0  0
  -23.3714  -30.3921   21.0682 N   0  0  0  0  0  0  0  0  0  0  0  0
  -28.9766  -15.2787   20.2454 N   0  0  0  0  0  0  0  0  0  0  0  0
  -27.7032  -11.1601   17.1748 N   0  0  0  0  0  0  0  0  0  0  0  0
  -24.0309   -8.8244   18.3810 N   0  0  0  0  0  0  0  0  0  0  0  0
  -27.7816  -16.9857   19.1405 N   0  0  0  0  0  0  0  0  0  0  0  0
  -25.6078  -32.7266   22.5777 N   0  0  0  0  0  0  0  0  0  0  0  0
  -20.1249  -30.0424   20.1761 N   0  0  0  0  0  0  0  0  0  0  0  0
  -19.5354  -28.2417   17.0975 N   0  3  0  0  0  0  0  0  0  0  0  0
  -27.3103  -22.4223   21.3762 N   0  3  0  0  0  0  0  0  0  0  0  0
  -25.6133   -9.0907   16.7428 O   0  0  0  0  0  0  0  0  0  0  0  0
  -24.8932  -30.6069   23.2246 O   0  0  0  0  0  0  0  0  0  0  0  0
  -21.8999  -32.1876   20.8511 O   0  0  0  0  0  0  0  0  0  0  0  0
  -20.4946  -27.8020   19.7058 O   0  0  0  0  0  0  0  0  0  0  0  0
  -29.9595  -17.3351   19.8591 O   0  0  0  0  0  0  0  0  0  0  0  0
  -21.1545   -9.4231   23.1142 O   0  0  0  0  0  0  0  0  0  0  0  0
  -25.3477  -17.4945   17.8144 O   0  0  0  0  0  0  0  0  0  0  0  0
  -26.6331  -25.1567   20.9990 O   0  0  0  0  0  0  0  0  0  1  0  0
  -20.2456   -4.0180   23.7168 F   0  0  0  0  0  0  0  0  0  0  0  0
  -21.2303   -8.2420   25.6126 F   0  0  0  0  0  0  0  0  0  0  0  0
  1  2  1  0  0  0  0
  1  5  2  0  0  0  0
  2  6  2  0  0  0  0
  3  8  2  0  0  0  0
  3 17  1  0  0  0  0
  4  9  1  0  0  0  0
  4 17  2  0  0  0  0
  5 19  1  0  0  0  0
  6 21  1  0  0  0  0
  7 10  2  0  0  0  0
  7 20  1  0  0  0  0
  8 26  1  0  0  0  0
  9 26  2  0  0  0  0
 10 27  1  0  0  0  0
 11 12  2  0  0  0  0
 11 28  1  0  0  0  0
 12 30  1  0  0  0  0
 13 22  1  0  0  0  0
 13 27  2  0  0  0  0
 14 23  1  0  0  0  0
 14 25  2  0  0  0  0
 15 24  1  0  0  0  0
 15 29  2  0  0  0  0
 16 30  2  0  0  0  0
 16 31  1  0  0  0  0
 17 32  1  0  0  0  0
 18 32  1  0  0  0  0
 18 33  2  0  0  0  0
 18 34  1  0  0  0  0
 19 21  2  0  0  0  0
 19 39  1  0  0  0  0
 20 22  2  0  0  0  0
 20 40  1  0  0  0  0
 21 48  1  0  0  0  0
 22 41  1  0  0  0  0
 23 24  2  0  0  0  0
 23 59  1  0  0  0  0
 24 51  1  0  0  0  0
 25 29  1  0  0  0  0
 25 71  1  0  0  0  0
 26 81  1  0  0  0  0
 27 83  1  0  0  0  0
 28 31  2  0  0  0  0
 28 81  1  0  0  0  0
 29 82  1  0  0  0  0
 30 84  1  0  0  0  0
 31 85  1  0  0  0  0
 32 65  2  0  0  0  0
 33 66  1  0  0  0  0
 33 69  1  0  0  0  0
 34 70  1  0  0  0  0
 34 76  2  0  0  0  0
 35 49  1  0  0  0  0
 35 72  1  0  0  0  0
 35 77  2  0  0  0  0
 36 61  1  0  0  0  0
 36 67  1  0  0  0  0
 36 78  2  0  0  0  0
 37 62  1  0  0  0  0
 37 73  1  0  0  0  0
 37 79  2  0  0  0  0
 38 68  1  0  0  0  0
 38 71  1  0  0  0  0
 38 80  2  0  0  0  0
 39 42  1  0  0  0  0
 40 49  1  0  0  0  0
 41 67  1  0  0  0  0
 42 44  1  0  0  0  0
 43 45  1  0  0  0  0
 43 46  1  0  0  0  0
 44 48  1  0  0  0  0
 45 50  1  0  0  0  0
 46 68  1  0  0  0  0
 47 50  1  0  0  0  0
 47 68  1  0  0  0  0
 48 72  1  0  0  0  0
 49 67  1  0  0  0  0
 50 66  1  0  0  0  0
 52 62  1  0  0  0  0
 53 63  1  0  0  0  0
 54 64  1  0  0  0  0
 55 64  1  0  0  0  0
 56 64  1  0  0  0  0
 57 74  1  0  0  0  0
 58 82  1  0  0  0  0
 59 75  1  0  0  0  0
 60 63  1  0  0  0  0
 60 83  1  0  0  0  0
 61 64  1  0  0  0  0
 61 73  1  0  0  0  0
 62 74  1  0  0  0  0
 63 75  1  0  0  0  0
 65 66  1  0  0  0  0
M  CHG  2  74   1  75   1
M  ISO  4  38 100  60 101  71 100  83 101
M  END
> <Batch ID>
0015

> <Smiles>
CNC(C)C(=O)NC(C(=O)N1Cc2cc([101O:1][101CH2:1]C(C)NCc3cc([100NH:0][100C:0](=O)N4CCCC(n5nc(-c6ccc(Oc7ccc(F)cc7F)cc6)c(C(N)=O)c5N)C4)c(OC)cc3C)ccc2CC1C(=O)NC1CCCc2ccccc21)C(C)(C)C

> <Shape>
0.279

> <Color>
0.069

> <Negative vol penalty>
0.000

$$$$

  -OEChem-04052315553D

 88 96  0     1  0  0  0  0  0999 V2000
  -16.8752  -16.9516   18.2582 C   0  0  0  0  0  0  0  0  0  0  0  0
  -17.8172  -16.7127   19.2536 C   0  0  0  0  0  0  0  0  0  0  0  0
  -23.2576   -9.8353   19.9496 C   0  0  0  0  0  0  0  0  0  0  0  0
  -23.8559   -9.9488   22.2876 C   0  0  0  0  0  0  0  0  0  0  0  0
  -17.2726  -17.5073   17.0428 C   0  0  0  0  0  0  0  0  0  0  0  0
  -19.1576  -17.0283   19.0337 C   0  0  0  0  0  0  0  0  0  0  0  0
  -21.2697  -19.3926   22.9826 C   0  0  0  0  0  0  0  0  0  0  0  0
  -22.5478   -8.6586   20.1883 C   0  0  0  0  0  0  0  0  0  0  0  0
  -23.1460   -8.7720   22.5264 C   0  0  0  0  0  0  0  0  0  0  0  0
  -21.6412  -18.6054   24.0717 C   0  0  0  0  0  0  0  0  0  0  0  0
  -23.2387   -5.3799   20.6321 C   0  0  0  0  0  0  0  0  0  0  0  0
  -23.4140   -4.3251   19.7364 C   0  0  0  0  0  0  0  0  0  0  0  0
  -23.9280  -18.6334   23.3043 C   0  0  0  0  0  0  0  0  0  0  0  0
  -29.6754  -13.0213   25.4717 C   0  0  0  0  0  0  0  0  0  0  0  0
  -29.3390  -14.6021   23.6759 C   0  0  0  0  0  0  0  0  0  0  0  0
  -21.0546   -4.3730   19.2183 C   0  0  0  0  0  0  0  0  0  0  0  0
  -23.9117  -10.4804   20.9992 C   0  0  0  0  0  0  0  0  0  0  0  0
  -24.1537  -13.0132   20.8153 C   0  0  0  0  0  0  0  0  0  0  0  0
  -18.6170  -17.8388   16.8115 C   0  0  0  0  0  0  0  0  0  0  0  0
  -22.2243  -19.7976   22.0387 C   0  0  0  0  0  0  0  0  0  0  0  0
  -19.5736  -17.5877   17.8136 C   0  0  0  0  0  0  0  0  0  0  0  0
  -23.5665  -19.4278   22.2055 C   0  0  0  0  0  0  0  0  0  0  0  0
  -30.0788  -13.5710   24.2549 C   0  0  0  0  0  0  0  0  0  0  0  0
  -22.4919   -8.1269   21.4767 C   0  0  0  0  0  0  0  0  0  0  0  0
  -22.9700  -18.2233   24.2312 C   0  0  0  0  0  0  0  0  0  0  0  0
  -21.9714   -5.9312   20.8210 C   0  0  0  0  0  0  0  0  0  0  0  0
  -27.7922  -14.5337   25.5307 C   0  0  0  0  0  0  0  0  0  0  0  0
  -22.3220   -3.8217   19.0294 C   0  0  0  0  0  0  0  0  0  0  0  0
  -28.5321  -13.5026   26.1096 C   0  0  0  0  0  0  0  0  0  0  0  0
  -28.1957  -15.0834   24.3138 C   0  0  0  0  0  0  0  0  0  0  0  0
  -20.8794   -5.4278   20.1141 C   0  0  0  0  0  0  0  0  0  0  0  0
  -24.6456  -11.6957   20.7532 C   0  0  0  0  0  0  0  0  0  0  0  0
  -25.2356  -13.7989   20.5012 C   0  0  0  0  0  0  0  0  0  0  0  0
  -22.8365  -13.4848   21.1291 C   0  0  0  0  0  0  0  0  0  0  0  0
  -22.6437  -19.3177   18.9246 C   0  0  0  0  0  0  0  0  0  0  0  0
  -25.0628  -21.4425   19.3192 C   0  0  0  0  0  0  0  0  0  0  0  0
  -27.3127  -22.9135   21.4217 C   0  0  0  0  0  0  0  0  0  0  0  0
  -30.9649  -13.1177   21.0653 C   0  0  0  0  0  0  0  0  0  0  0  0
  -19.0064  -18.3937   15.4642 C   0  0  0  0  0  0  0  0  0  0  0  0
  -21.8122  -20.6689   20.8839 C   0  0  0  0  0  0  0  0  0  0  0  0
  -24.6334  -19.8534   21.2312 C   0  0  0  0  0  0  0  0  0  0  0  0
  -20.3862  -19.0465   15.4501 C   0  0  0  0  0  0  0  0  0  0  0  0
  -29.3107  -13.7539   18.0106 C   0  0  0  0  0  0  0  0  0  0  0  0
  -21.4061  -18.1541   16.1503 C   0  0  0  0  0  0  0  0  0  0  0  0
  -27.8654  -13.4155   18.3730 C   0  0  0  0  0  0  0  0  0  0  0  0
  -30.3048  -12.7752   18.6386 C   0  0  0  0  0  0  0  0  0  0  0  0
  -28.7092  -12.2898   20.4665 C   0  0  0  0  0  0  0  0  0  0  0  0
  -21.0329  -17.9394   17.6221 C   0  0  1  0  0  0  0  0  0  0  0  0
  -22.7776  -20.5947   19.7050 C   0  0  1  0  0  0  0  0  0  0  0  0
  -27.6945  -13.2933   19.8971 C   0  0  2  0  0  0  0  0  0  0  0  0
  -32.3772  -14.1347   23.3825 C   0  0  0  0  0  0  0  0  0  0  0  0
  -29.1847  -24.5846   21.4469 C   0  0  0  0  0  0  0  0  0  0  0  0
  -32.4040  -10.4352   22.2107 C   0  0  0  0  0  0  0  0  0  0  0  0
  -30.2543  -10.4468   23.5154 C   0  0  0  0  0  0  0  0  0  0  0  0
  -26.9115  -19.3873   18.0276 C   0  0  0  0  0  0  0  0  0  0  0  0
  -28.8595  -20.6764   18.9285 C   0  0  0  0  0  0  0  0  0  0  0  0
  -27.3039  -21.7472   17.2986 C   0  0  0  0  0  0  0  0  0  0  0  0
  -25.8761  -24.6678   23.3238 C   0  0  0  0  0  0  0  0  0  0  0  0
  -24.2912  -15.3571   26.0061 C   0  0  0  0  0  0  0  0  0  0  0  0
  -24.4426  -16.5740   25.1069 C   0  0  0  0  0  0  0  0  0  1  0  0
  -25.4386  -14.3745   25.8316 C   0  0  0  0  0  0  0  0  0  0  0  0
  -31.3009  -13.0560   23.5729 C   0  0  2  0  0  0  0  0  0  0  0  0
  -26.5275  -21.3418   19.6703 C   0  0  1  0  0  0  0  0  0  0  0  0
  -27.6910  -24.3682   21.6341 C   0  0  2  0  0  0  0  0  0  0  0  0
  -30.9815  -10.9757   22.2859 C   0  0  0  0  0  0  0  0  0  0  0  0
  -27.3804  -20.7784   18.4987 C   0  0  0  0  0  0  0  0  0  0  0  0
  -25.9393  -11.6433   20.4251 N   0  0  0  0  0  0  0  0  0  0  0  0
  -26.2695  -12.9377   20.2783 N   0  0  0  0  0  0  0  0  0  0  0  0
  -24.1795  -20.6994   20.1151 N   0  0  0  0  0  0  0  0  0  0  0  0
  -30.0762  -12.6525   20.0848 N   0  0  0  0  0  0  0  0  0  0  0  0
  -25.3939  -15.1354   20.3966 N   0  0  0  0  0  0  0  0  0  0  0  0
  -21.8432  -12.5424   21.4282 N   0  0  0  0  0  0  0  0  0  0  0  0
  -21.3804  -19.1047   18.4068 N   0  0  0  0  0  0  0  0  0  0  0  0
  -26.9320  -22.6697   20.1191 N   0  0  0  0  0  0  0  0  0  0  0  0
  -30.9876  -12.4318   22.2889 N   0  0  0  0  0  0  0  0  0  0  0  0
  -27.3220  -24.8038   23.0107 N   0  3  0  0  0  0  0  0  0  0  0  0
  -22.5449  -14.7048   21.1276 O   0  0  0  0  0  0  0  0  0  0  0  0
  -23.6150  -18.5810   18.8001 O   0  0  0  0  0  0  0  0  0  0  0  0
  -24.7145  -22.1598   18.3780 O   0  0  0  0  0  0  0  0  0  0  0  0
  -27.3545  -22.0764   22.3206 O   0  0  0  0  0  0  0  0  0  0  0  0
  -31.6935  -14.0976   20.8626 O   0  0  0  0  0  0  0  0  0  0  0  0
  -21.7992   -6.9788   21.7101 O   0  0  0  0  0  0  0  0  0  0  0  0
  -23.3352  -17.4545   25.2929 O   0  0  0  0  0  0  0  0  0  1  0  0
  -26.6689  -15.0067   26.1576 O   0  0  0  0  0  0  0  0  0  0  0  0
  -22.4907   -2.8098   18.1681 F   0  0  0  0  0  0  0  0  0  0  0  0
  -28.1496  -12.9706   27.2786 F   0  0  0  0  0  0  0  0  0  0  0  0
  -27.4887  -16.0738   23.7524 F   0  0  0  0  0  0  0  0  0  0  0  0
  -19.6597   -5.9541   20.2905 F   0  0  0  0  0  0  0  0  0  0  0  0
  1  2  1  0  0  0  0
  1  5  2  0  0  0  0
  2  6  2  0  0  0  0
  3  8  2  0  0  0  0
  3 17  1  0  0  0  0
  4  9  1  0  0  0  0
  4 17  2  0  0  0  0
  5 19  1  0  0  0  0
  6 21  1  0  0  0  0
  7 10  2  0  0  0  0
  7 20  1  0  0  0  0
  8 24  1  0  0  0  0
  9 24  2  0  0  0  0
 10 25  1  0  0  0  0
 11 12  2  0  0  0  0
 11 26  1  0  0  0  0
 12 28  1  0  0  0  0
 13 22  1  0  0  0  0
 13 25  2  0  0  0  0
 14 23  1  0  0  0  0
 14 29  2  0  0  0  0
 15 23  2  0  0  0  0
 15 30  1  0  0  0  0
 16 28  2  0  0  0  0
 16 31  1  0  0  0  0
 17 32  1  0  0  0  0
 18 32  1  0  0  0  0
 18 33  2  0  0  0  0
 18 34  1  0  0  0  0
 19 21  2  0  0  0  0
 19 39  1  0  0  0  0
 20 22  2  0  0  0  0
 20 40  1  0  0  0  0
 21 48  1  0  0  0  0
 22 41  1  0  0  0  0
 23 62  1  0  0  0  0
 24 82  1  0  0  0  0
 25 83  1  0  0  0  0
 26 31  2  0  0  0  0
 26 82  1  0  0  0  0
 27 29  1  0  0  0  0
 27 30  2  0  0  0  0
 27 84  1  0  0  0  0
 28 85  1  0  0  0  0
 29 86  1  0  0  0  0
 30 87  1  0  0  0  0
 31 88  1  0  0  0  0
 32 67  2  0  0  0  0
 33 68  1  0  0  0  0
 33 71  1  0  0  0  0
 34 72  1  0  0  0  0
 34 77  2  0  0  0  0
 35 49  1  0  0  0  0
 35 73  1  0  0  0  0
 35 78  2  0  0  0  0
 36 63  1  0  0  0  0
 36 69  1  0  0  0  0
 36 79  2  0  0  0  0
 37 64  1  0  0  0  0
 37 74  1  0  0  0  0
 37 80  2  0  0  0  0
 38 70  1  0  0  0  0
 38 75  1  0  0  0  0
 38 81  2  0  0  0  0
 39 42  1  0  0  0  0
 40 49  1  0  0  0  0
 41 69  1  0  0  0  0
 42 44  1  0  0  0  0
 43 45  1  0  0  0  0
 43 46  1  0  0  0  0
 44 48  1  0  0  0  0
 45 50  1  0  0  0  0
 46 70  1  0  0  0  0
 47 50  1  0  0  0  0
 47 70  1  0  0  0  0
 48 73  1  0  0  0  0
 49 69  1  0  0  0  0
 50 68  1  0  0  0  0
 51 62  1  0  0  0  0
 52 64  1  0  0  0  0
 53 65  1  0  0  0  0
 54 65  1  0  0  0  0
 55 66  1  0  0  0  0
 56 66  1  0  0  0  0
 57 66  1  0  0  0  0
 58 76  1  0  0  0  0
 59 60  1  0  0  0  0
 59 61  1  0  0  0  0
 60 83  1  0  0  0  0
 61 84  1  0  0  0  0
 62 75  1  0  0  0  0
 63 66  1  0  0  0  0
 63 74  1  0  0  0  0
 64 76  1  0  0  0  0
 65 75  1  0  0  0  0
 67 68  1  0  0  0  0
M  CHG  1  76   1
M  ISO  4  38 100  60 101  75 100  83 101
M  END
> <Batch ID>
0015

> <Smiles>
CNC(C)C(=O)NC(C(=O)N1Cc2cc([101O:1][101CH2:1]CCOc3c(F)cc(C(C)[100N:0](C(C)C)[100C:0](=O)N4CCCC(n5nc(-c6ccc(Oc7ccc(F)cc7F)cc6)c(C(N)=O)c5N)C4)cc3F)ccc2CC1C(=O)NC1CCCc2ccccc21)C(C)(C)C

> <Shape>
0.143

> <Color>
0.182

> <Negative vol penalty>
0.000

$$$$

  -OEChem-04052315553D

 83 91  0     1  0  0  0  0  0999 V2000
  -40.3228  -27.5719   28.2999 C   0  0  0  0  0  0  0  0  0  0  0  0
  -39.9425  -26.2504   28.0891 C   0  0  0  0  0  0  0  0  0  0  0  0
  -23.0004   -9.8944   19.9811 C   0  0  0  0  0  0  0  0  0  0  0  0
  -23.7258   -9.9450   22.2851 C   0  0  0  0  0  0  0  0  0  0  0  0
  -39.7727  -28.5874   27.5188 C   0  0  0  0  0  0  0  0  0  0  0  0
  -39.0111  -25.9437   27.0978 C   0  0  0  0  0  0  0  0  0  0  0  0
  -38.8859  -20.9256   23.5894 C   0  0  0  0  0  0  0  0  0  0  0  0
  -22.2337   -8.7600   20.2474 C   0  0  0  0  0  0  0  0  0  0  0  0
  -22.9590   -8.8106   22.5514 C   0  0  0  0  0  0  0  0  0  0  0  0
  -38.1576  -19.7398   23.6742 C   0  0  0  0  0  0  0  0  0  0  0  0
  -23.2027   -5.4716   22.0791 C   0  0  0  0  0  0  0  0  0  0  0  0
  -23.7901   -4.4543   22.8310 C   0  0  0  0  0  0  0  0  0  0  0  0
  -36.5310  -20.6358   22.1345 C   0  0  0  0  0  0  0  0  0  0  0  0
  -32.0601  -16.5376   22.5532 C   0  0  0  0  0  0  0  0  0  0  0  0
  -30.4976  -18.3455   23.9929 C   0  0  0  0  0  0  0  0  0  0  0  0
  -22.0665   -4.6973   24.5064 C   0  0  0  0  0  0  0  0  0  0  0  0
  -23.7465  -10.4868   21.0000 C   0  0  0  0  0  0  0  0  0  0  0  0
  -24.1323  -13.0024   20.8242 C   0  0  0  0  0  0  0  0  0  0  0  0
  -38.8413  -28.2920   26.5110 C   0  0  0  0  0  0  0  0  0  0  0  0
  -38.4357  -21.9813   22.7837 C   0  0  0  0  0  0  0  0  0  0  0  0
  -38.4470  -26.9564   26.3034 C   0  0  0  0  0  0  0  0  0  0  0  0
  -37.2567  -21.8330   22.0393 C   0  0  0  0  0  0  0  0  0  0  0  0
  -32.6636  -17.4285   23.4408 C   0  0  0  0  0  0  0  0  0  0  0  0
  -31.8823  -18.3324   24.1607 C   0  0  0  0  0  0  0  0  0  0  0  0
  -30.6754  -16.5507   22.3854 C   0  0  0  0  0  0  0  0  0  0  0  0
  -22.2130   -8.2181   21.5325 C   0  0  0  0  0  0  0  0  0  0  0  0
  -36.9784  -19.5958   22.9490 C   0  0  0  0  0  0  0  0  0  0  0  0
  -22.0472   -6.1019   22.5408 C   0  0  0  0  0  0  0  0  0  0  0  0
  -29.8942  -17.4546   23.1053 C   0  0  0  0  0  0  0  0  0  0  0  0
  -23.2220   -4.0671   24.0447 C   0  0  0  0  0  0  0  0  0  0  0  0
  -21.4790   -5.7147   23.7545 C   0  0  0  0  0  0  0  0  0  0  0  0
  -24.5392  -11.6583   20.7254 C   0  0  0  0  0  0  0  0  0  0  0  0
  -25.2421  -13.7248   20.4598 C   0  0  0  0  0  0  0  0  0  0  0  0
  -22.8644  -13.5490   21.2109 C   0  0  0  0  0  0  0  0  0  0  0  0
  -37.5347  -24.9828   23.3158 C   0  0  0  0  0  0  0  0  0  0  0  0
  -37.4204  -25.1116   20.0766 C   0  0  0  0  0  0  0  0  0  0  0  0
  -37.1003  -23.4374   17.1200 C   0  0  0  0  0  0  0  0  0  0  0  0
  -30.7218  -14.6849   20.6934 C   0  0  0  0  0  0  0  0  0  0  0  0
  -38.2386  -29.4285   25.7237 C   0  0  0  0  0  0  0  0  0  0  0  0
  -39.2468  -23.2440   22.6823 C   0  0  0  0  0  0  0  0  0  0  0  0
  -36.7410  -22.9288   21.1438 C   0  0  0  0  0  0  0  0  0  0  0  0
  -37.5390  -28.9791   24.4436 C   0  0  0  0  0  0  0  0  0  0  0  0
  -29.6028  -12.2325   18.3673 C   0  0  0  0  0  0  0  0  0  0  0  0
  -36.6405  -27.7777   24.7198 C   0  0  0  0  0  0  0  0  0  0  0  0
  -28.1522  -11.9750   18.7815 C   0  0  0  0  0  0  0  0  0  0  0  0
  -30.5035  -12.4756   19.5770 C   0  0  0  0  0  0  0  0  0  0  0  0
  -28.5884  -13.2646   20.9108 C   0  0  0  0  0  0  0  0  0  0  0  0
  -37.4580  -26.5811   25.2212 C   0  0  1  0  0  0  0  0  0  0  0  0
  -38.4251  -24.4473   22.2303 C   0  0  1  0  0  0  0  0  0  0  0  0
  -27.6306  -13.0786   19.7226 C   0  0  2  0  0  0  0  0  0  0  0  0
  -32.5053  -19.2964   25.1163 C   0  0  0  0  0  0  0  0  0  0  0  0
  -26.4422  -16.6030   23.6985 C   0  0  0  0  0  0  0  0  0  0  0  0
  -37.0071  -23.8172   14.6412 C   0  0  0  0  0  0  0  0  0  0  0  0
  -34.5572  -26.1320   20.3430 C   0  0  0  0  0  0  0  0  0  0  0  0
  -34.2124  -25.5888   17.9234 C   0  0  0  0  0  0  0  0  0  0  0  0
  -35.9165  -27.2848   18.5886 C   0  0  0  0  0  0  0  0  0  0  0  0
  -39.5149  -21.7892   16.6596 C   0  0  0  0  0  0  0  0  0  0  0  0
  -34.1637  -17.3976   23.6045 C   0  0  0  0  0  0  0  0  0  0  0  0
  -27.7529  -17.2347   24.1165 C   0  0  0  0  0  0  0  0  0  0  0  0
  -34.8521  -18.5347   22.8573 C   0  0  0  0  0  0  0  0  0  1  0  0
  -36.3655  -24.8366   19.0323 C   0  0  1  0  0  0  0  0  0  0  0  0
  -37.9005  -23.5059   15.8318 C   0  0  2  0  0  0  0  0  0  0  0  0
  -35.2714  -25.9404   18.9901 C   0  0  0  0  0  0  0  0  0  0  0  0
  -25.8084  -11.5317   20.3291 N   0  0  0  0  0  0  0  0  0  0  0  0
  -26.2086  -12.8054   20.1756 N   0  0  0  0  0  0  0  0  0  0  0  0
  -37.5662  -24.1466   21.0832 N   0  0  0  0  0  0  0  0  0  0  0  0
  -29.9487  -13.5365   20.4205 N   0  0  0  0  0  0  0  0  0  0  0  0
  -25.4758  -15.0505   20.3579 N   0  0  0  0  0  0  0  0  0  0  0  0
  -21.8325  -12.6650   21.5544 N   0  0  0  0  0  0  0  0  0  0  0  0
  -30.0778  -15.6401   21.4791 N   0  0  0  0  0  0  0  0  0  0  0  0
  -38.1355  -25.9341   24.1181 N   0  0  0  0  0  0  0  0  0  0  0  0
  -37.0770  -24.6521   17.7720 N   0  0  0  0  0  0  0  0  0  0  0  0
  -38.5861  -22.2072   15.5782 N   0  3  0  0  0  0  0  0  0  0  0  0
  -22.6479  -14.7843   21.2348 O   0  0  0  0  0  0  0  0  0  0  0  0
  -36.3872  -24.5651   23.4170 O   0  0  0  0  0  0  0  0  0  0  0  0
  -38.0953  -26.1412   19.9979 O   0  0  0  0  0  0  0  0  0  0  0  0
  -36.5478  -22.4101   17.5070 O   0  0  0  0  0  0  0  0  0  0  0  0
  -31.8604  -14.8236   20.2393 O   0  0  0  0  0  0  0  0  0  0  0  0
  -21.4647   -7.1113   21.7928 O   0  0  0  0  0  0  0  0  0  0  0  0
  -36.2653  -18.4397   23.0304 O   0  0  0  0  0  0  0  0  0  1  0  0
  -28.5398  -17.4843   22.9539 O   0  0  0  0  0  0  0  0  0  0  0  0
  -23.7854   -3.0890   24.7659 F   0  0  0  0  0  0  0  0  0  0  0  0
  -20.3683   -6.3157   24.2027 F   0  0  0  0  0  0  0  0  0  0  0  0
  1  2  1  0  0  0  0
  1  5  2  0  0  0  0
  2  6  2  0  0  0  0
  3  8  2  0  0  0  0
  3 17  1  0  0  0  0
  4  9  1  0  0  0  0
  4 17  2  0  0  0  0
  5 19  1  0  0  0  0
  6 21  1  0  0  0  0
  7 10  2  0  0  0  0
  7 20  1  0  0  0  0
  8 26  1  0  0  0  0
  9 26  2  0  0  0  0
 10 27  1  0  0  0  0
 11 12  2  0  0  0  0
 11 28  1  0  0  0  0
 12 30  1  0  0  0  0
 13 22  1  0  0  0  0
 13 27  2  0  0  0  0
 14 23  2  0  0  0  0
 14 25  1  0  0  0  0
 15 24  2  0  0  0  0
 15 29  1  0  0  0  0
 16 30  2  0  0  0  0
 16 31  1  0  0  0  0
 17 32  1  0  0  0  0
 18 32  1  0  0  0  0
 18 33  2  0  0  0  0
 18 34  1  0  0  0  0
 19 21  2  0  0  0  0
 19 39  1  0  0  0  0
 20 22  2  0  0  0  0
 20 40  1  0  0  0  0
 21 48  1  0  0  0  0
 22 41  1  0  0  0  0
 23 24  1  0  0  0  0
 23 58  1  0  0  0  0
 24 51  1  0  0  0  0
 25 29  2  0  0  0  0
 25 70  1  0  0  0  0
 26 79  1  0  0  0  0
 27 80  1  0  0  0  0
 28 31  2  0  0  0  0
 28 79  1  0  0  0  0
 29 81  1  0  0  0  0
 30 82  1  0  0  0  0
 31 83  1  0  0  0  0
 32 64  2  0  0  0  0
 33 65  1  0  0  0  0
 33 68  1  0  0  0  0
 34 69  1  0  0  0  0
 34 74  2  0  0  0  0
 35 49  1  0  0  0  0
 35 71  1  0  0  0  0
 35 75  2  0  0  0  0
 36 61  1  0  0  0  0
 36 66  1  0  0  0  0
 36 76  2  0  0  0  0
 37 62  1  0  0  0  0
 37 72  1  0  0  0  0
 37 77  2  0  0  0  0
 38 67  1  0  0  0  0
 38 70  1  0  0  0  0
 38 78  2  0  0  0  0
 39 42  1  0  0  0  0
 40 49  1  0  0  0  0
 41 66  1  0  0  0  0
 42 44  1  0  0  0  0
 43 45  1  0  0  0  0
 43 46  1  0  0  0  0
 44 48  1  0  0  0  0
 45 50  1  0  0  0  0
 46 67  1  0  0  0  0
 47 50  1  0  0  0  0
 47 67  1  0  0  0  0
 48 71  1  0  0  0  0
 49 66  1  0  0  0  0
 50 65  1  0  0  0  0
 52 59  1  0  0  0  0
 53 62  1  0  0  0  0
 54 63  1  0  0  0  0
 55 63  1  0  0  0  0
 56 63  1  0  0  0  0
 57 73  1  0  0  0  0
 58 60  1  0  0  0  0
 59 81  1  0  0  0  0
 60 80  1  0  0  0  0
 61 63  1  0  0  0  0
 61 72  1  0  0  0  0
 62 73  1  0  0  0  0
 64 65  1  0  0  0  0
M  CHG  1  73   1
M  ISO  4  38 100  60 101  70 100  80 101
M  END
> <Batch ID>
0015

> <Smiles>
CCOc1cc(C)c(C[101CH2:1][101O:1]c2ccc3c(c2)CN(C(=O)C(NC(=O)C(C)NC)C(C)(C)C)C(C(=O)NC2CCCc4ccccc42)C3)cc1[100NH:0][100C:0](=O)N1CCCC(n2nc(-c3ccc(Oc4ccc(F)cc4F)cc3)c(C(N)=O)c2N)C1

> <Shape>
0.174

> <Color>
0.202

> <Negative vol penalty>
0.000

$$$$

  -OEChem-04052315553D

 84 92  0     1  0  0  0  0  0999 V2000
  -18.4377  -27.9736   23.0518 C   0  0  0  0  0  0  0  0  0  0  0  0
  -19.6860  -27.8759   23.6582 C   0  0  0  0  0  0  0  0  0  0  0  0
  -24.2880  -13.7755   20.6201 C   0  0  0  0  0  0  0  0  0  0  0  0
  -26.6783  -13.4942   20.8304 C   0  0  0  0  0  0  0  0  0  0  0  0
  -18.2827  -27.6077   21.7154 C   0  0  0  0  0  0  0  0  0  0  0  0
  -20.7798  -27.4111   22.9288 C   0  0  0  0  0  0  0  0  0  0  0  0
  -26.6037  -29.2273   23.4671 C   0  0  0  0  0  0  0  0  0  0  0  0
  -32.2606  -23.8432   22.2319 C   0  0  0  0  0  0  0  0  0  0  0  0
  -24.1509  -12.4128   20.3555 C   0  0  0  0  0  0  0  0  0  0  0  0
  -26.5412  -12.1315   20.5658 C   0  0  0  0  0  0  0  0  0  0  0  0
  -27.6973  -28.6839   24.1399 C   0  0  0  0  0  0  0  0  0  0  0  0
  -24.1092   -9.5256   22.1149 C   0  0  0  0  0  0  0  0  0  0  0  0
  -32.2268  -23.4323   20.8994 C   0  0  0  0  0  0  0  0  0  0  0  0
  -23.0893   -8.8372   22.7716 C   0  0  0  0  0  0  0  0  0  0  0  0
  -28.4109  -27.6107   22.1007 C   0  0  0  0  0  0  0  0  0  0  0  0
  -22.1116   -8.2530   20.6409 C   0  0  0  0  0  0  0  0  0  0  0  0
  -25.5517  -14.3162   20.8574 C   0  0  0  0  0  0  0  0  0  0  0  0
  -25.6577  -16.3538   22.3886 C   0  0  0  0  0  0  0  0  0  0  0  0
  -19.3772  -27.1474   20.9665 C   0  0  0  0  0  0  0  0  0  0  0  0
  -26.3991  -28.9571   22.1064 C   0  0  0  0  0  0  0  0  0  0  0  0
  -20.6390  -27.0375   21.5815 C   0  0  0  0  0  0  0  0  0  0  0  0
  -27.3153  -28.1539   21.4124 C   0  0  0  0  0  0  0  0  0  0  0  0
  -31.1851  -23.5642   23.0752 C   0  0  0  0  0  0  0  0  0  0  0  0
  -30.0420  -22.4636   21.2534 C   0  0  0  0  0  0  0  0  0  0  0  0
  -25.2775  -11.5908   20.3284 C   0  0  0  0  0  0  0  0  0  0  0  0
  -28.5995  -27.8732   23.4574 C   0  0  0  0  0  0  0  0  0  0  0  0
  -24.1303   -9.5779   20.7211 C   0  0  0  0  0  0  0  0  0  0  0  0
  -22.0905   -8.2009   22.0346 C   0  0  0  0  0  0  0  0  0  0  0  0
  -31.1176  -22.7425   20.4101 C   0  0  0  0  0  0  0  0  0  0  0  0
  -23.1315   -8.9415   19.9841 C   0  0  0  0  0  0  0  0  0  0  0  0
  -30.0758  -22.8744   22.5859 C   0  0  0  0  0  0  0  0  0  0  0  0
  -25.6941  -15.7238   21.1302 C   0  0  0  0  0  0  0  0  0  0  0  0
  -25.8398  -17.6865   22.1108 C   0  0  0  0  0  0  0  0  0  0  0  0
  -25.4756  -15.7851   23.6922 C   0  0  0  0  0  0  0  0  0  0  0  0
  -24.1126  -27.5294   20.4219 C   0  0  0  0  0  0  0  0  0  0  0  0
  -25.8659  -28.5650   17.8969 C   0  0  0  0  0  0  0  0  0  0  0  0
  -30.7669  -25.2869   24.7872 C   0  0  0  0  0  0  0  0  0  0  0  0
  -28.9003  -29.5526   16.6870 C   0  0  0  0  0  0  0  0  0  0  0  0
  -28.4681  -21.7837   19.4076 C   0  0  0  0  0  0  0  0  0  0  0  0
  -19.1508  -26.7188   19.5383 C   0  0  0  0  0  0  0  0  0  0  0  0
  -25.2293  -29.5725   21.3887 C   0  0  0  0  0  0  0  0  0  0  0  0
  -27.1520  -27.8499   19.9463 C   0  0  0  0  0  0  0  0  0  0  0  0
  -20.4390  -26.5908   18.7293 C   0  0  0  0  0  0  0  0  0  0  0  0
  -25.7947  -20.1678   17.6991 C   0  0  0  0  0  0  0  0  0  0  0  0
  -21.4930  -25.8239   19.5215 C   0  0  0  0  0  0  0  0  0  0  0  0
  -25.5272  -18.9194   18.5430 C   0  0  0  0  0  0  0  0  0  0  0  0
  -27.2840  -20.5026   17.6380 C   0  0  0  0  0  0  0  0  0  0  0  0
  -27.6822  -19.3641   19.7861 C   0  0  0  0  0  0  0  0  0  0  0  0
  -21.8547  -26.5614   20.8164 C   0  0  1  0  0  0  0  0  0  0  0  0
  -24.8360  -28.8126   20.1257 C   0  0  1  0  0  0  0  0  0  0  0  0
  -26.1897  -19.0246   19.9307 C   0  0  2  0  0  0  0  0  0  0  0  0
  -30.0299  -30.3019   14.5751 C   0  0  0  0  0  0  0  0  0  0  0  0
  -25.8790  -25.6863   16.8854 C   0  0  0  0  0  0  0  0  0  0  0  0
  -27.7602  -26.3065   15.3541 C   0  0  0  0  0  0  0  0  0  0  0  0
  -25.5385  -27.4144   15.1099 C   0  0  0  0  0  0  0  0  0  0  0  0
  -31.8422  -23.1083   25.4606 C   0  0  0  0  0  0  0  0  0  0  0  0
  -29.6207  -32.1708   17.8639 C   0  0  0  0  0  0  0  0  0  0  0  0
  -30.1553  -26.0842   23.6442 C   0  0  0  0  0  0  0  0  0  1  0  0
  -27.0058  -28.0009   17.0836 C   0  0  1  0  0  0  0  0  0  0  0  0
  -29.3071  -30.7436   15.8382 C   0  0  2  0  0  0  0  0  0  0  0  0
  -26.5482  -26.8560   16.1364 C   0  0  0  0  0  0  0  0  0  0  0  0
  -25.8842  -16.5855   20.1275 N   0  0  0  0  0  0  0  0  0  0  0  0
  -25.9688  -17.7705   20.7557 N   0  0  0  0  0  0  0  0  0  0  0  0
  -25.9888  -28.4698   19.2903 N   0  0  0  0  0  0  0  0  0  0  0  0
  -27.8426  -20.5903   18.9890 N   0  0  0  0  0  0  0  0  0  0  0  0
  -25.9005  -18.7830   22.8960 N   0  0  0  0  0  0  0  0  0  0  0  0
  -25.3024  -14.3984   23.7979 N   0  0  0  0  0  0  0  0  0  0  0  0
  -28.9319  -21.7611   20.7225 N   0  0  0  0  0  0  0  0  0  0  0  0
  -22.7426  -27.6692   20.5359 N   0  0  0  0  0  0  0  0  0  0  0  0
  -27.6185  -29.1340   16.3988 N   0  0  0  0  0  0  0  0  0  0  0  0
  -31.2582  -24.0069   24.4530 N   0  0  0  0  0  0  0  0  0  0  0  0
  -30.2126  -31.6430   16.6077 N   0  3  0  0  0  0  0  0  0  0  0  0
  -25.4505  -16.4879   24.7309 O   0  0  0  0  0  0  0  0  0  0  0  0
  -24.7501  -26.4891   20.5370 O   0  0  0  0  0  0  0  0  0  0  0  0
  -24.9053  -29.0778   17.3174 O   0  0  0  0  0  0  0  0  0  0  0  0
  -30.7711  -25.7789   25.9184 O   0  0  0  0  0  0  0  0  0  0  0  0
  -29.6465  -29.0422   17.5196 O   0  0  0  0  0  0  0  0  0  0  0  0
  -28.5596  -22.7639   18.6639 O   0  0  0  0  0  0  0  0  0  0  0  0
  -25.1441  -10.2611   20.0705 O   0  0  0  0  0  0  0  0  0  0  0  0
  -29.6674  -27.3411   24.1119 O   0  0  0  0  0  0  0  0  0  1  0  0
  -21.1119   -7.5385   22.6654 F   0  0  0  0  0  0  0  0  0  0  0  0
  -31.0979  -22.3538   19.1270 F   0  0  0  0  0  0  0  0  0  0  0  0
  -23.1472   -8.9872   18.6449 F   0  0  0  0  0  0  0  0  0  0  0  0
  -28.7387  -22.5274   23.6367 Cl  0  0  0  0  0  0  0  0  0  0  0  0
  1  2  1  0  0  0  0
  1  5  2  0  0  0  0
  2  6  2  0  0  0  0
  3  9  2  0  0  0  0
  3 17  1  0  0  0  0
  4 10  1  0  0  0  0
  4 17  2  0  0  0  0
  5 19  1  0  0  0  0
  6 21  1  0  0  0  0
  7 11  2  0  0  0  0
  7 20  1  0  0  0  0
  8 13  2  0  0  0  0
  8 23  1  0  0  0  0
  9 25  1  0  0  0  0
 10 25  2  0  0  0  0
 11 26  1  0  0  0  0
 12 14  2  0  0  0  0
 12 27  1  0  0  0  0
 13 29  1  0  0  0  0
 14 28  1  0  0  0  0
 15 22  1  0  0  0  0
 15 26  2  0  0  0  0
 16 28  2  0  0  0  0
 16 30  1  0  0  0  0
 17 32  1  0  0  0  0
 18 32  1  0  0  0  0
 18 33  2  0  0  0  0
 18 34  1  0  0  0  0
 19 21  2  0  0  0  0
 19 40  1  0  0  0  0
 20 22  2  0  0  0  0
 20 41  1  0  0  0  0
 21 49  1  0  0  0  0
 22 42  1  0  0  0  0
 23 31  2  0  0  0  0
 23 71  1  0  0  0  0
 24 29  2  0  0  0  0
 24 31  1  0  0  0  0
 24 68  1  0  0  0  0
 25 79  1  0  0  0  0
 26 80  1  0  0  0  0
 27 30  2  0  0  0  0
 27 79  1  0  0  0  0
 28 81  1  0  0  0  0
 29 82  1  0  0  0  0
 30 83  1  0  0  0  0
 31 84  1  0  0  0  0
 32 62  2  0  0  0  0
 33 63  1  0  0  0  0
 33 66  1  0  0  0  0
 34 67  1  0  0  0  0
 34 73  2  0  0  0  0
 35 50  1  0  0  0  0
 35 69  1  0  0  0  0
 35 74  2  0  0  0  0
 36 59  1  0  0  0  0
 36 64  1  0  0  0  0
 36 75  2  0  0  0  0
 37 58  1  0  0  0  0
 37 71  1  0  0  0  0
 37 76  2  0  0  0  0
 38 60  1  0  0  0  0
 38 70  1  0  0  0  0
 38 77  2  0  0  0  0
 39 65  1  0  0  0  0
 39 68  1  0  0  0  0
 39 78  2  0  0  0  0
 40 43  1  0  0  0  0
 41 50  1  0  0  0  0
 42 64  1  0  0  0  0
 43 45  1  0  0  0  0
 44 46  1  0  0  0  0
 44 47  1  0  0  0  0
 45 49  1  0  0  0  0
 46 51  1  0  0  0  0
 47 65  1  0  0  0  0
 48 51  1  0  0  0  0
 48 65  1  0  0  0  0
 49 69  1  0  0  0  0
 50 64  1  0  0  0  0
 51 63  1  0  0  0  0
 52 60  1  0  0  0  0
 53 61  1  0  0  0  0
 54 61  1  0  0  0  0
 55 61  1  0  0  0  0
 56 71  1  0  0  0  0
 57 72  1  0  0  0  0
 58 80  1  0  0  0  0
 59 61  1  0  0  0  0
 59 70  1  0  0  0  0
 60 72  1  0  0  0  0
 62 63  1  0  0  0  0
M  CHG  1  72   1
M  ISO  4  39 100  58 101  68 100  80 101
M  END
> <Batch ID>
0015

> <Smiles>
CNC(C)C(=O)NC(C(=O)N1Cc2cc([101O:1][101CH2:1]C(=O)N(C)c3ccc(F)c([100NH:0][100C:0](=O)N4CCCC(n5nc(-c6ccc(Oc7ccc(F)cc7F)cc6)c(C(N)=O)c5N)C4)c3Cl)ccc2CC1C(=O)NC1CCCc2ccccc21)C(C)(C)C

> <Shape>
0.203

> <Color>
0.082

> <Negative vol penalty>
0.000

$$$$

  -OEChem-04052315553D

 93101  0     1  0  0  0  0  0999 V2000
  -16.8615  -29.2059   24.3599 C   0  0  0  0  0  0  0  0  0  0  0  0
  -17.2252  -28.1939   23.4772 C   0  0  0  0  0  0  0  0  0  0  0  0
  -25.0816  -15.0829   21.6076 C   0  0  0  0  0  0  0  0  0  0  0  0
  -26.4654  -14.9269   19.6333 C   0  0  0  0  0  0  0  0  0  0  0  0
  -17.5921  -30.3928   24.3970 C   0  0  0  0  0  0  0  0  0  0  0  0
  -18.3191  -28.3687   22.6304 C   0  0  0  0  0  0  0  0  0  0  0  0
  -22.2690  -24.0685   20.7833 C   0  0  0  0  0  0  0  0  0  0  0  0
  -24.2902  -14.0358   21.1358 C   0  0  0  0  0  0  0  0  0  0  0  0
  -25.6740  -13.8796   19.1614 C   0  0  0  0  0  0  0  0  0  0  0  0
  -22.3580  -23.3175   19.6120 C   0  0  0  0  0  0  0  0  0  0  0  0
  -22.1214  -11.1641   20.6213 C   0  0  0  0  0  0  0  0  0  0  0  0
  -21.7687  -10.1604   21.5234 C   0  0  0  0  0  0  0  0  0  0  0  0
  -23.9475  -24.9005   18.7249 C   0  0  0  0  0  0  0  0  0  0  0  0
  -32.0290  -23.1626   17.6520 C   0  0  0  0  0  0  0  0  0  0  0  0
  -24.1051   -9.6578   21.8777 C   0  0  0  0  0  0  0  0  0  0  0  0
  -26.1692  -15.5286   20.8563 C   0  0  0  0  0  0  0  0  0  0  0  0
  -28.1331  -16.5117   22.1540 C   0  0  0  0  0  0  0  0  0  0  0  0
  -18.7015  -30.5784   23.5570 C   0  0  0  0  0  0  0  0  0  0  0  0
  -23.0116  -25.2489   20.9300 C   0  0  0  0  0  0  0  0  0  0  0  0
  -19.0645  -29.5597   22.6554 C   0  0  0  0  0  0  0  0  0  0  0  0
  -23.8681  -25.6633   19.9001 C   0  0  0  0  0  0  0  0  0  0  0  0
  -32.0692  -23.2317   16.2595 C   0  0  0  0  0  0  0  0  0  0  0  0
  -30.9354  -22.9120   15.5124 C   0  0  0  0  0  0  0  0  0  0  0  0
  -29.7616  -22.5232   16.1579 C   0  0  0  0  0  0  0  0  0  0  0  0
  -29.7215  -22.4541   17.5504 C   0  0  0  0  0  0  0  0  0  0  0  0
  -24.5864  -13.4341   19.9127 C   0  0  0  0  0  0  0  0  0  0  0  0
  -23.1951  -23.7350   18.5814 C   0  0  0  0  0  0  0  0  0  0  0  0
  -23.4660  -11.4147   20.3473 C   0  0  0  0  0  0  0  0  0  0  0  0
  -30.8552  -22.7737   18.2975 C   0  0  0  0  0  0  0  0  0  0  0  0
  -22.7605   -9.4073   22.1516 C   0  0  0  0  0  0  0  0  0  0  0  0
  -24.4578  -10.6616   20.9756 C   0  0  0  0  0  0  0  0  0  0  0  0
  -26.9867  -16.6106   21.3429 C   0  0  0  0  0  0  0  0  0  0  0  0
  -28.5391  -17.8114   22.3347 C   0  0  0  0  0  0  0  0  0  0  0  0
  -28.7739  -15.3490   22.6955 C   0  0  0  0  0  0  0  0  0  0  0  0
  -22.2892  -28.3159   21.3488 C   0  0  0  0  0  0  0  0  0  0  0  0
  -25.5004  -28.6234   21.6894 C   0  0  0  0  0  0  0  0  0  0  0  0
  -28.6144  -27.3884   21.0377 C   0  0  0  0  0  0  0  0  0  0  0  0
  -27.7946  -22.8029   19.1353 C   0  0  0  0  0  0  0  0  0  0  0  0
  -19.4318  -31.8973   23.5998 C   0  0  0  0  0  0  0  0  0  0  0  0
  -22.9247  -26.0334   22.2104 C   0  0  0  0  0  0  0  0  0  0  0  0
  -24.7017  -26.9123   20.0162 C   0  0  0  0  0  0  0  0  0  0  0  0
  -20.8047  -31.8551   22.9337 C   0  0  0  0  0  0  0  0  0  0  0  0
  -26.8238  -22.2788   22.5206 C   0  0  0  0  0  0  0  0  0  0  0  0
  -20.7203  -31.1562   21.5805 C   0  0  0  0  0  0  0  0  0  0  0  0
  -26.8657  -20.7571   22.6783 C   0  0  0  0  0  0  0  0  0  0  0  0
  -26.3259  -22.6921   21.1367 C   0  0  0  0  0  0  0  0  0  0  0  0
  -27.0837  -20.5573   20.1684 C   0  0  0  0  0  0  0  0  0  0  0  0
  -20.2599  -29.7020   21.7385 C   0  0  1  0  0  0  0  0  0  0  0  0
  -23.3358  -27.4933   22.0457 C   0  0  1  0  0  0  0  0  0  0  0  0
  -27.6405  -20.0920   21.5238 C   0  0  2  0  0  0  0  0  0  0  0  0
  -33.3376  -23.6535   15.5929 C   0  0  0  0  0  0  0  0  0  0  0  0
  -31.1142  -27.1987   21.1487 C   0  0  0  0  0  0  0  0  0  0  0  0
  -31.6171  -21.9190   21.7895 C   0  0  0  0  0  0  0  0  0  0  0  0
  -31.5095  -20.4086   19.7748 C   0  0  0  0  0  0  0  0  0  0  0  0
  -32.4160  -22.6933   13.4861 C   0  0  0  0  0  0  0  0  0  0  0  0
  -30.5717  -24.4061   13.5169 C   0  0  0  0  0  0  0  0  0  0  0  0
  -30.0410  -21.9896   13.2707 C   0  0  0  0  0  0  0  0  0  0  0  0
  -25.3968  -30.7793   19.5327 C   0  0  0  0  0  0  0  0  0  0  0  0
  -27.8769  -30.5478   19.2804 C   0  0  0  0  0  0  0  0  0  0  0  0
  -26.9108  -31.2980   21.4545 C   0  0  0  0  0  0  0  0  0  0  0  0
  -23.7215  -21.3620   14.9999 C   0  0  0  0  0  0  0  0  0  0  0  0
  -24.9595  -20.5803   17.0516 C   0  0  0  0  0  0  0  0  0  0  0  0
  -28.4927  -25.6574   23.4351 C   0  0  0  0  0  0  0  0  0  0  0  0
  -28.5420  -22.1836   15.3508 C   0  0  0  0  0  0  0  0  0  0  0  0
  -27.2588  -22.1133   16.1725 C   0  0  0  0  0  0  0  0  0  0  0  0
  -24.5258  -23.0425   16.7360 C   0  0  0  0  0  0  0  0  0  1  0  0
  -26.6549  -28.8828   20.7520 C   0  0  1  0  0  0  0  0  0  0  0  0
  -29.8148  -27.1568   21.9377 C   0  0  2  0  0  0  0  0  0  0  0  0
  -31.7630  -21.8213   20.2786 C   0  0  0  0  0  0  0  0  0  0  0  0
  -30.9815  -22.9887   14.0190 C   0  0  0  0  0  0  0  0  0  0  0  0
  -26.6928  -30.3544   20.2516 C   0  0  0  0  0  0  0  0  0  0  0  0
  -24.7982  -21.7078   16.0308 C   0  0  0  0  0  0  0  0  0  0  0  0
  -26.6838  -17.8733   21.0302 N   0  0  0  0  0  0  0  0  0  0  0  0
  -27.6457  -18.5798   21.6480 N   0  0  0  0  0  0  0  0  0  0  0  0
  -24.5773  -27.6486   21.2850 N   0  0  0  0  0  0  0  0  0  0  0  0
  -27.1092  -22.0264   20.0935 N   0  0  0  0  0  0  0  0  0  0  0  0
  -29.5694  -18.3604   23.0125 N   0  0  0  0  0  0  0  0  0  0  0  0
  -28.2256  -14.0908   22.4116 N   0  0  0  0  0  0  0  0  0  0  0  0
  -28.5322  -22.0613   18.2130 N   0  0  0  0  0  0  0  0  0  0  0  0
  -21.3531  -28.8730   22.1991 N   0  0  0  0  0  0  0  0  0  0  0  0
  -27.8586  -28.4614   21.4605 N   0  0  0  0  0  0  0  0  0  0  0  0
  -29.7130  -25.8283   22.6053 N   0  3  0  0  0  0  0  0  0  0  0  0
  -26.0982  -21.8339   15.2944 N   0  3  0  0  0  0  0  0  0  0  0  0
  -29.7926  -15.4247   23.4235 O   0  0  0  0  0  0  0  0  0  0  0  0
  -22.3288  -28.4375   20.1301 O   0  0  0  0  0  0  0  0  0  0  0  0
  -25.4243  -29.2570   22.7450 O   0  0  0  0  0  0  0  0  0  0  0  0
  -28.3735  -26.6899   20.0557 O   0  0  0  0  0  0  0  0  0  0  0  0
  -27.7539  -24.0358   19.1497 O   0  0  0  0  0  0  0  0  0  0  0  0
  -23.8145  -12.4120   19.4521 O   0  0  0  0  0  0  0  0  0  0  0  0
  -23.2833  -23.0042   17.4369 O   0  0  0  0  0  0  0  0  0  1  0  0
  -30.8392  -22.7135   19.6593 O   0  0  0  0  0  0  0  0  0  0  0  0
  -22.4217   -8.4445   23.0190 F   0  0  0  0  0  0  0  0  0  0  0  0
  -25.7513  -10.8985   20.7173 F   0  0  0  0  0  0  0  0  0  0  0  0
  1  2  1  0  0  0  0
  1  5  2  0  0  0  0
  2  6  2  0  0  0  0
  3  8  2  0  0  0  0
  3 16  1  0  0  0  0
  4  9  1  0  0  0  0
  4 16  2  0  0  0  0
  5 18  1  0  0  0  0
  6 20  1  0  0  0  0
  7 10  2  0  0  0  0
  7 19  1  0  0  0  0
  8 26  1  0  0  0  0
  9 26  2  0  0  0  0
 10 27  1  0  0  0  0
 11 12  2  0  0  0  0
 11 28  1  0  0  0  0
 12 30  1  0  0  0  0
 13 21  1  0  0  0  0
 13 27  2  0  0  0  0
 14 22  2  0  0  0  0
 14 29  1  0  0  0  0
 15 30  2  0  0  0  0
 15 31  1  0  0  0  0
 16 32  1  0  0  0  0
 17 32  1  0  0  0  0
 17 33  2  0  0  0  0
 17 34  1  0  0  0  0
 18 20  2  0  0  0  0
 18 39  1  0  0  0  0
 19 21  2  0  0  0  0
 19 40  1  0  0  0  0
 20 48  1  0  0  0  0
 21 41  1  0  0  0  0
 22 23  1  0  0  0  0
 22 51  1  0  0  0  0
 23 24  2  0  0  0  0
 23 70  1  0  0  0  0
 24 25  1  0  0  0  0
 24 64  1  0  0  0  0
 25 29  2  0  0  0  0
 25 79  1  0  0  0  0
 26 89  1  0  0  0  0
 27 90  1  0  0  0  0
 28 31  2  0  0  0  0
 28 89  1  0  0  0  0
 29 91  1  0  0  0  0
 30 92  1  0  0  0  0
 31 93  1  0  0  0  0
 32 73  2  0  0  0  0
 33 74  1  0  0  0  0
 33 77  1  0  0  0  0
 34 78  1  0  0  0  0
 34 84  2  0  0  0  0
 35 49  1  0  0  0  0
 35 80  1  0  0  0  0
 35 85  2  0  0  0  0
 36 67  1  0  0  0  0
 36 75  1  0  0  0  0
 36 86  2  0  0  0  0
 37 68  1  0  0  0  0
 37 81  1  0  0  0  0
 37 87  2  0  0  0  0
 38 76  1  0  0  0  0
 38 79  1  0  0  0  0
 38 88  2  0  0  0  0
 39 42  1  0  0  0  0
 40 49  1  0  0  0  0
 41 75  1  0  0  0  0
 42 44  1  0  0  0  0
 43 45  1  0  0  0  0
 43 46  1  0  0  0  0
 44 48  1  0  0  0  0
 45 50  1  0  0  0  0
 46 76  1  0  0  0  0
 47 50  1  0  0  0  0
 47 76  1  0  0  0  0
 48 80  1  0  0  0  0
 49 75  1  0  0  0  0
 50 74  1  0  0  0  0
 52 68  1  0  0  0  0
 53 69  1  0  0  0  0
 54 69  1  0  0  0  0
 55 70  1  0  0  0  0
 56 70  1  0  0  0  0
 57 70  1  0  0  0  0
 58 71  1  0  0  0  0
 59 71  1  0  0  0  0
 60 71  1  0  0  0  0
 61 72  1  0  0  0  0
 62 72  1  0  0  0  0
 63 82  1  0  0  0  0
 64 65  1  0  0  0  0
 65 83  1  0  0  0  0
 66 72  1  0  0  0  0
 66 90  1  0  0  0  0
 67 71  1  0  0  0  0
 67 81  1  0  0  0  0
 68 82  1  0  0  0  0
 69 91  1  0  0  0  0
 72 83  1  0  0  0  0
 73 74  1  0  0  0  0
M  CHG  2  82   1  83   1
M  ISO  4  38 100  66 101  79 100  90 101
M  END
> <Batch ID>
0015

> <Smiles>
CNC(C)C(=O)NC(C(=O)N1Cc2cc([101O:1][101CH2:1]C(C)(C)NCCc3c([100NH:0][100C:0](=O)N4CCCC(n5nc(-c6ccc(Oc7ccc(F)cc7F)cc6)c(C(N)=O)c5N)C4)c(OC(C)C)cc(C)c3C(C)(C)C)ccc2CC1C(=O)NC1CCCc2ccccc21)C(C)(C)C

> <Shape>
0.225

> <Color>
0.055

> <Negative vol penalty>
0.000

$$$$

  -OEChem-04052315553D

 87 95  0     1  0  0  0  0  0999 V2000
  -27.8052  -24.5203   16.5570 C   0  0  0  0  0  0  0  0  0  0  0  0
  -26.6374  -24.7352   17.2819 C   0  0  0  0  0  0  0  0  0  0  0  0
  -25.4338  -14.8645   19.9939 C   0  0  0  0  0  0  0  0  0  0  0  0
  -23.0886  -14.5319   20.4698 C   0  0  0  0  0  0  0  0  0  0  0  0
  -29.0232  -24.9934   17.0432 C   0  0  0  0  0  0  0  0  0  0  0  0
  -26.6872  -25.4226   18.4942 C   0  0  0  0  0  0  0  0  0  0  0  0
  -23.0034  -28.8705   18.9253 C   0  0  0  0  0  0  0  0  0  0  0  0
  -25.7294  -13.6414   20.5957 C   0  0  0  0  0  0  0  0  0  0  0  0
  -23.3842  -13.3087   21.0715 C   0  0  0  0  0  0  0  0  0  0  0  0
  -21.7301  -28.4046   19.2500 C   0  0  0  0  0  0  0  0  0  0  0  0
  -23.4797   -9.9307   22.4125 C   0  0  0  0  0  0  0  0  0  0  0  0
  -22.6703   -8.8395   22.0969 C   0  0  0  0  0  0  0  0  0  0  0  0
  -22.0895  -29.0425   21.5485 C   0  0  0  0  0  0  0  0  0  0  0  0
  -16.7973  -21.3604   22.5682 C   0  0  0  0  0  0  0  0  0  0  0  0
  -18.9123  -23.1769   22.6687 C   0  0  0  0  0  0  0  0  0  0  0  0
  -23.2795   -9.0606   19.7695 C   0  0  0  0  0  0  0  0  0  0  0  0
  -24.1134  -15.3098   19.9310 C   0  0  0  0  0  0  0  0  0  0  0  0
  -23.4999  -16.8027   17.9555 C   0  0  0  0  0  0  0  0  0  0  0  0
  -29.0866  -25.6953   18.2572 C   0  0  0  0  0  0  0  0  0  0  0  0
  -23.8349  -29.4168   19.9135 C   0  0  0  0  0  0  0  0  0  0  0  0
  -27.9075  -25.9044   18.9977 C   0  0  0  0  0  0  0  0  0  0  0  0
  -23.3720  -29.5169   21.2332 C   0  0  0  0  0  0  0  0  0  0  0  0
  -18.0795  -20.9594   22.1929 C   0  0  0  0  0  0  0  0  0  0  0  0
  -19.1370  -21.8676   22.2432 C   0  0  0  0  0  0  0  0  0  0  0  0
  -17.6301  -23.5779   23.0439 C   0  0  0  0  0  0  0  0  0  0  0  0
  -24.7046  -12.8635   21.1345 C   0  0  0  0  0  0  0  0  0  0  0  0
  -21.2741  -28.4879   20.5624 C   0  0  0  0  0  0  0  0  0  0  0  0
  -24.1889  -10.5870   21.4065 C   0  0  0  0  0  0  0  0  0  0  0  0
  -22.5702   -8.4044   20.7754 C   0  0  0  0  0  0  0  0  0  0  0  0
  -16.5726  -22.6697   22.9936 C   0  0  0  0  0  0  0  0  0  0  0  0
  -24.0889  -10.1519   20.0850 C   0  0  0  0  0  0  0  0  0  0  0  0
  -23.8074  -16.5735   19.3100 C   0  0  0  0  0  0  0  0  0  0  0  0
  -23.2905  -18.1578   17.8754 C   0  0  0  0  0  0  0  0  0  0  0  0
  -23.4112  -15.8737   16.8669 C   0  0  0  0  0  0  0  0  0  0  0  0
  -26.6695  -28.6542   21.1329 C   0  0  0  0  0  0  0  0  0  0  0  0
  -26.3127  -31.4668   22.7091 C   0  0  0  0  0  0  0  0  0  0  0  0
  -24.2044  -33.8565   23.9301 C   0  0  0  0  0  0  0  0  0  0  0  0
  -21.5952  -22.2692   21.8663 C   0  0  0  0  0  0  0  0  0  0  0  0
  -30.4330  -26.1464   18.7655 C   0  0  0  0  0  0  0  0  0  0  0  0
  -25.1955  -29.9394   19.5418 C   0  0  0  0  0  0  0  0  0  0  0  0
  -24.2179  -30.1135   22.3272 C   0  0  0  0  0  0  0  0  0  0  0  0
  -30.3464  -27.1919   19.8744 C   0  0  0  0  0  0  0  0  0  0  0  0
  -24.5919  -22.2765   19.9435 C   0  0  0  0  0  0  0  0  0  0  0  0
  -29.3173  -26.7763   20.9208 C   0  0  0  0  0  0  0  0  0  0  0  0
  -24.6995  -20.8372   19.4345 C   0  0  0  0  0  0  0  0  0  0  0  0
  -24.0275  -22.3358   21.3618 C   0  0  0  0  0  0  0  0  0  0  0  0
  -22.8636  -20.1877   21.0452 C   0  0  0  0  0  0  0  0  0  0  0  0
  -27.9172  -26.6672   20.3047 C   0  0  1  0  0  0  0  0  0  0  0  0
  -26.1541  -30.0059   20.7266 C   0  0  1  0  0  0  0  0  0  0  0  0
  -23.3663  -20.0811   19.5962 C   0  0  2  0  0  0  0  0  0  0  0  0
  -24.2040  -36.0182   25.2047 C   0  0  0  0  0  0  0  0  0  0  0  0
  -26.8277  -29.9372   25.2985 C   0  0  0  0  0  0  0  0  0  0  0  0
  -25.8922  -31.8895   26.5560 C   0  0  0  0  0  0  0  0  0  0  0  0
  -27.9447  -32.1709   25.1666 C   0  0  0  0  0  0  0  0  0  0  0  0
  -16.0605  -25.3172   23.8634 C   0  0  0  0  0  0  0  0  0  0  0  0
  -22.9698  -35.3209   21.6739 C   0  0  0  0  0  0  0  0  0  0  0  0
  -18.7473  -26.4730   22.1760 C   0  0  0  0  0  0  0  0  0  0  0  0
  -18.4805  -25.8555   23.5434 C   0  0  0  0  0  0  0  0  0  0  0  0
  -19.8450  -27.5299   22.2043 C   0  0  0  0  0  0  0  0  0  1  0  0
  -25.7062  -31.8843   24.0269 C   0  0  1  0  0  0  0  0  0  0  0  0
  -24.2317  -35.3709   23.8288 C   0  0  2  0  0  0  0  0  0  0  0  0
  -18.2908  -19.5507   21.7414 C   0  0  0  0  0  0  0  0  0  0  0  0
  -26.5773  -31.4574   25.2420 C   0  0  0  0  0  0  0  0  0  0  0  0
  -23.7958  -17.6932   20.0380 N   0  0  0  0  0  0  0  0  0  0  0  0
  -23.4785  -18.6392   19.1376 N   0  0  0  0  0  0  0  0  0  0  0  0
  -25.5432  -30.6048   21.9151 N   0  0  0  0  0  0  0  0  0  0  0  0
  -22.7624  -21.6020   21.4381 N   0  0  0  0  0  0  0  0  0  0  0  0
  -22.9660  -18.9726   16.8492 N   0  0  0  0  0  0  0  0  0  0  0  0
  -23.6564  -14.5179   17.1240 N   0  0  0  0  0  0  0  0  0  0  0  0
  -20.4466  -21.4785   21.8672 N   0  0  0  0  0  0  0  0  0  0  0  0
  -27.3390  -27.9821   20.1281 N   0  0  0  0  0  0  0  0  0  0  0  0
  -25.4753  -33.3218   23.9329 N   0  0  0  0  0  0  0  0  0  0  0  0
  -17.4060  -24.8952   23.4693 N   0  0  3  0  0  0  0  0  0  0  0  0
  -23.0552  -35.8597   23.0557 N   0  3  0  0  0  0  0  0  0  0  0  0
  -23.1391  -16.2375   15.6977 O   0  0  0  0  0  0  0  0  0  0  0  0
  -26.4756  -28.2516   22.2739 O   0  0  0  0  0  0  0  0  0  0  0  0
  -27.4252  -31.8956   22.3925 O   0  0  0  0  0  0  0  0  0  0  0  0
  -23.1601  -33.2126   24.0034 O   0  0  0  0  0  0  0  0  0  0  0  0
  -21.6081  -23.4620   22.1811 O   0  0  0  0  0  0  0  0  0  0  0  0
  -24.9927  -11.6698   21.7215 O   0  0  0  0  0  0  0  0  0  0  0  0
  -20.0319  -28.0334   20.8822 O   0  0  0  0  0  0  0  0  0  1  0  0
  -21.7941   -7.3555   20.4728 F   0  0  0  0  0  0  0  0  0  0  0  0
  -15.3365  -23.0443   23.3526 F   0  0  0  0  0  0  0  0  0  0  0  0
  -24.7688  -10.7777   19.1145 F   0  0  0  0  0  0  0  0  0  0  0  0
  -17.1520  -18.7985   21.7529 F   0  0  0  0  0  0  0  0  0  0  0  0
  -18.7713  -19.4541   20.4677 F   0  0  0  0  0  0  0  0  0  0  0  0
  -19.1836  -18.8798   22.5241 F   0  0  0  0  0  0  0  0  0  0  0  0
  1  2  1  0  0  0  0
  1  5  2  0  0  0  0
  2  6  2  0  0  0  0
  3  8  2  0  0  0  0
  3 17  1  0  0  0  0
  4  9  1  0  0  0  0
  4 17  2  0  0  0  0
  5 19  1  0  0  0  0
  6 21  1  0  0  0  0
  7 10  2  0  0  0  0
  7 20  1  0  0  0  0
  8 26  1  0  0  0  0
  9 26  2  0  0  0  0
 10 27  1  0  0  0  0
 11 12  2  0  0  0  0
 11 28  1  0  0  0  0
 12 29  1  0  0  0  0
 13 22  1  0  0  0  0
 13 27  2  0  0  0  0
 14 23  2  0  0  0  0
 14 30  1  0  0  0  0
 15 24  2  0  0  0  0
 15 25  1  0  0  0  0
 16 29  2  0  0  0  0
 16 31  1  0  0  0  0
 17 32  1  0  0  0  0
 18 32  1  0  0  0  0
 18 33  2  0  0  0  0
 18 34  1  0  0  0  0
 19 21  2  0  0  0  0
 19 39  1  0  0  0  0
 20 22  2  0  0  0  0
 20 40  1  0  0  0  0
 21 48  1  0  0  0  0
 22 41  1  0  0  0  0
 23 24  1  0  0  0  0
 23 62  1  0  0  0  0
 24 70  1  0  0  0  0
 25 30  2  0  0  0  0
 25 73  1  0  0  0  0
 26 80  1  0  0  0  0
 27 81  1  0  0  0  0
 28 31  2  0  0  0  0
 28 80  1  0  0  0  0
 29 82  1  0  0  0  0
 30 83  1  0  0  0  0
 31 84  1  0  0  0  0
 32 64  2  0  0  0  0
 33 65  1  0  0  0  0
 33 68  1  0  0  0  0
 34 69  1  0  0  0  0
 34 75  2  0  0  0  0
 35 49  1  0  0  0  0
 35 71  1  0  0  0  0
 35 76  2  0  0  0  0
 36 60  1  0  0  0  0
 36 66  1  0  0  0  0
 36 77  2  0  0  0  0
 37 61  1  0  0  0  0
 37 72  1  0  0  0  0
 37 78  2  0  0  0  0
 38 67  1  0  0  0  0
 38 70  1  0  0  0  0
 38 79  2  0  0  0  0
 39 42  1  0  0  0  0
 40 49  1  0  0  0  0
 41 66  1  0  0  0  0
 42 44  1  0  0  0  0
 43 45  1  0  0  0  0
 43 46  1  0  0  0  0
 44 48  1  0  0  0  0
 45 50  1  0  0  0  0
 46 67  1  0  0  0  0
 47 50  1  0  0  0  0
 47 67  1  0  0  0  0
 48 71  1  0  0  0  0
 49 66  1  0  0  0  0
 50 65  1  0  0  0  0
 51 61  1  0  0  0  0
 52 63  1  0  0  0  0
 53 63  1  0  0  0  0
 54 63  1  0  0  0  0
 55 73  1  0  0  0  0
 56 74  1  0  0  0  0
 57 58  1  0  0  0  0
 57 59  1  0  0  0  0
 58 73  1  0  0  0  0
 59 81  1  0  0  0  0
 60 63  1  0  0  0  0
 60 72  1  0  0  0  0
 61 74  1  0  0  0  0
 62 85  1  0  0  0  0
 62 86  1  0  0  0  0
 62 87  1  0  0  0  0
 64 65  1  0  0  0  0
M  CHG  1  74   1
M  ISO  4  38 100  59 101  70 100  81 101
M  END
> <Batch ID>
0015

> <Smiles>
CNC(C)C(=O)NC(C(=O)N1Cc2cc([101O:1][101CH2:1]CCN(C)c3cc([100NH:0][100C:0](=O)N4CCCC(n5nc(-c6ccc(Oc7ccc(F)cc7F)cc6)c(C(N)=O)c5N)C4)c(C(F)(F)F)cc3F)ccc2CC1C(=O)NC1CCCc2ccccc21)C(C)(C)C

> <Shape>
0.259

> <Color>
0.077

> <Negative vol penalty>
0.000

$$$$

  -OEChem-04052315553D

 86 94  0     1  0  0  0  0  0999 V2000
  -29.5576  -23.1418   16.9891 C   0  0  0  0  0  0  0  0  0  0  0  0
  -28.5932  -22.9565   17.9732 C   0  0  0  0  0  0  0  0  0  0  0  0
  -25.3130  -12.6669   19.4866 C   0  0  0  0  0  0  0  0  0  0  0  0
  -24.9088  -13.8448   21.5569 C   0  0  0  0  0  0  0  0  0  0  0  0
  -29.9767  -24.4299   16.6630 C   0  0  0  0  0  0  0  0  0  0  0  0
  -28.0389  -24.0598   18.6232 C   0  0  0  0  0  0  0  0  0  0  0  0
  -24.2834  -23.1975   21.6820 C   0  0  0  0  0  0  0  0  0  0  0  0
  -25.1968  -11.4491   20.1568 C   0  0  0  0  0  0  0  0  0  0  0  0
  -24.7926  -12.6271   22.2271 C   0  0  0  0  0  0  0  0  0  0  0  0
  -24.4466  -22.5762   22.9194 C   0  0  0  0  0  0  0  0  0  0  0  0
  -24.6486   -8.0271   21.2543 C   0  0  0  0  0  0  0  0  0  0  0  0
  -23.8841   -7.0268   20.6539 C   0  0  0  0  0  0  0  0  0  0  0  0
  -24.2369  -24.7155   24.0143 C   0  0  0  0  0  0  0  0  0  0  0  0
  -30.9362  -21.1075   22.3021 C   0  0  0  0  0  0  0  0  0  0  0  0
  -21.9472   -8.4696   20.7164 C   0  0  0  0  0  0  0  0  0  0  0  0
  -25.1691  -13.8648   20.1867 C   0  0  0  0  0  0  0  0  0  0  0  0
  -24.2584  -15.8556   18.8772 C   0  0  0  0  0  0  0  0  0  0  0  0
  -29.4358  -25.5483   17.3186 C   0  0  0  0  0  0  0  0  0  0  0  0
  -24.1064  -24.5862   21.6006 C   0  0  0  0  0  0  0  0  0  0  0  0
  -28.4314  -25.3692   18.2914 C   0  0  0  0  0  0  0  0  0  0  0  0
  -24.0692  -25.3516   22.7749 C   0  0  0  0  0  0  0  0  0  0  0  0
  -29.2666  -21.3959   24.5183 C   0  0  0  0  0  0  0  0  0  0  0  0
  -29.6141  -20.6671   22.2412 C   0  0  0  0  0  0  0  0  0  0  0  0
  -24.9366  -11.4292   21.5270 C   0  0  0  0  0  0  0  0  0  0  0  0
  -24.4262  -23.3356   24.0856 C   0  0  0  0  0  0  0  0  0  0  0  0
  -24.0624   -9.2487   21.5859 C   0  0  0  0  0  0  0  0  0  0  0  0
  -22.5334   -7.2481   20.3849 C   0  0  0  0  0  0  0  0  0  0  0  0
  -31.4236  -21.6920   23.4711 C   0  0  0  0  0  0  0  0  0  0  0  0
  -22.7117   -9.4699   21.3169 C   0  0  0  0  0  0  0  0  0  0  0  0
  -30.5888  -21.8362   24.5792 C   0  0  0  0  0  0  0  0  0  0  0  0
  -28.7793  -20.8113   23.3493 C   0  0  0  0  0  0  0  0  0  0  0  0
  -25.2895  -15.1230   19.4951 C   0  0  0  0  0  0  0  0  0  0  0  0
  -24.8843  -16.9671   18.3680 C   0  0  0  0  0  0  0  0  0  0  0  0
  -22.8597  -15.5580   18.7729 C   0  0  0  0  0  0  0  0  0  0  0  0
  -25.7268  -26.9804   20.2794 C   0  0  0  0  0  0  0  0  0  0  0  0
  -23.1548  -28.7218   21.2147 C   0  0  0  0  0  0  0  0  0  0  0  0
  -20.4909  -29.0522   23.3221 C   0  0  0  0  0  0  0  0  0  0  0  0
  -29.8819  -19.8817   19.8626 C   0  0  0  0  0  0  0  0  0  0  0  0
  -29.9200  -26.9203   16.9208 C   0  0  0  0  0  0  0  0  0  0  0  0
  -23.9051  -25.2378   20.2600 C   0  0  0  0  0  0  0  0  0  0  0  0
  -23.8619  -26.8431   22.7431 C   0  0  0  0  0  0  0  0  0  0  0  0
  -29.6045  -27.9876   17.9637 C   0  0  0  0  0  0  0  0  0  0  0  0
  -29.1228  -18.4416   16.6961 C   0  0  0  0  0  0  0  0  0  0  0  0
  -28.1407  -27.9014   18.3692 C   0  0  0  0  0  0  0  0  0  0  0  0
  -27.9558  -17.4984   16.9971 C   0  0  0  0  0  0  0  0  0  0  0  0
  -30.1398  -18.4674   17.8357 C   0  0  0  0  0  0  0  0  0  0  0  0
  -28.4115  -17.8095   19.4634 C   0  0  0  0  0  0  0  0  0  0  0  0
  -27.8365  -26.5525   19.0332 C   0  0  1  0  0  0  0  0  0  0  0  0
  -24.2463  -26.7247   20.2610 C   0  0  1  0  0  0  0  0  0  0  0  0
  -27.3284  -17.7993   18.3724 C   0  0  2  0  0  0  0  0  0  0  0  0
  -18.5929  -30.5995   23.8703 C   0  0  0  0  0  0  0  0  0  0  0  0
  -27.2618  -23.6593   27.8141 C   0  0  0  0  0  0  0  0  0  0  0  0
  -24.2017  -23.6866   27.4689 C   0  0  0  0  0  0  0  0  0  0  0  0
  -25.0988  -30.6017   22.6279 C   0  0  0  0  0  0  0  0  0  0  0  0
  -23.1591  -31.5322   23.9085 C   0  0  0  0  0  0  0  0  0  0  0  0
  -23.2293  -31.7465   21.4242 C   0  0  0  0  0  0  0  0  0  0  0  0
  -18.4697  -26.9882   22.6791 C   0  0  0  0  0  0  0  0  0  0  0  0
  -28.4025  -21.5737   25.7319 C   0  0  0  0  0  0  0  0  0  0  0  0
  -22.7767  -29.4855   22.4609 C   0  0  1  0  0  0  0  0  0  0  0  0
  -19.0347  -29.3913   23.0594 C   0  0  2  0  0  0  0  0  0  0  0  0
  -26.5155  -22.8437   26.7639 C   0  0  1  0  0  0  0  0  0  0  0  0
  -25.1974  -23.5012   26.3292 C   0  0  1  0  0  0  0  0  0  1  0  0
  -23.5718  -30.8137   22.6062 C   0  0  0  0  0  0  0  0  0  0  0  0
  -26.4802  -15.7189   19.3891 N   0  0  0  0  0  0  0  0  0  0  0  0
  -26.2012  -16.8376   18.6987 N   0  0  0  0  0  0  0  0  0  0  0  0
  -23.6761  -27.4346   21.4077 N   0  0  0  0  0  0  0  0  0  0  0  0
  -29.4740  -18.7626   19.1064 N   0  0  0  0  0  0  0  0  0  0  0  0
  -24.4313  -18.0327   17.6740 N   0  0  0  0  0  0  0  0  0  0  0  0
  -22.3834  -14.3742   19.3526 N   0  0  0  0  0  0  0  0  0  0  0  0
  -29.1548  -20.0809   21.0357 N   0  0  0  0  0  0  0  0  0  0  0  0
  -26.4068  -26.4260   19.2118 N   0  0  0  0  0  0  0  0  0  0  0  0
  -21.3289  -29.6582   22.4102 N   0  0  0  0  0  0  0  0  0  0  0  0
  -18.1614  -28.2387   23.4196 N   0  3  0  0  0  0  0  0  0  0  0  0
  -27.4213  -22.6796   25.5905 N   0  3  0  0  0  0  0  0  0  0  0  0
  -22.0589  -16.3113   18.1689 O   0  0  0  0  0  0  0  0  0  0  0  0
  -26.2158  -27.6338   21.1936 O   0  0  0  0  0  0  0  0  0  0  0  0
  -22.9871  -29.2453   20.1104 O   0  0  0  0  0  0  0  0  0  0  0  0
  -20.8494  -28.3256   24.2463 O   0  0  0  0  0  0  0  0  0  0  0  0
  -30.7900  -20.6254   19.4829 O   0  0  0  0  0  0  0  0  0  0  0  0
  -24.8229  -10.2411   22.1812 O   0  0  0  0  0  0  0  0  0  0  0  0
  -24.5859  -22.7318   25.2947 O   0  0  0  0  0  0  0  0  0  1  0  0
  -21.7998   -6.2879   19.8069 F   0  0  0  0  0  0  0  0  0  0  0  0
  -32.6926  -22.1166   23.5292 F   0  0  0  0  0  0  0  0  0  0  0  0
  -22.1432  -10.6418   21.6320 F   0  0  0  0  0  0  0  0  0  0  0  0
  -31.0674  -22.4004   25.6971 F   0  0  0  0  0  0  0  0  0  0  0  0
  -27.1347  -20.2671   23.2781 Cl  0  0  0  0  0  0  0  0  0  0  0  0
  1  2  1  0  0  0  0
  1  5  2  0  0  0  0
  2  6  2  0  0  0  0
  3  8  2  0  0  0  0
  3 16  1  0  0  0  0
  4  9  1  0  0  0  0
  4 16  2  0  0  0  0
  5 18  1  0  0  0  0
  6 20  1  0  0  0  0
  7 10  2  0  0  0  0
  7 19  1  0  0  0  0
  8 24  1  0  0  0  0
  9 24  2  0  0  0  0
 10 25  1  0  0  0  0
 11 12  2  0  0  0  0
 11 26  1  0  0  0  0
 12 27  1  0  0  0  0
 13 21  1  0  0  0  0
 13 25  2  0  0  0  0
 14 23  2  0  0  0  0
 14 28  1  0  0  0  0
 15 27  2  0  0  0  0
 15 29  1  0  0  0  0
 16 32  1  0  0  0  0
 17 32  1  0  0  0  0
 17 33  2  0  0  0  0
 17 34  1  0  0  0  0
 18 20  2  0  0  0  0
 18 39  1  0  0  0  0
 19 21  2  0  0  0  0
 19 40  1  0  0  0  0
 20 48  1  0  0  0  0
 21 41  1  0  0  0  0
 22 30  1  0  0  0  0
 22 31  2  0  0  0  0
 22 58  1  0  0  0  0
 23 31  1  0  0  0  0
 23 70  1  0  0  0  0
 24 80  1  0  0  0  0
 25 81  1  0  0  0  0
 26 29  2  0  0  0  0
 26 80  1  0  0  0  0
 27 82  1  0  0  0  0
 28 30  2  0  0  0  0
 28 83  1  0  0  0  0
 29 84  1  0  0  0  0
 30 85  1  0  0  0  0
 31 86  1  0  0  0  0
 32 64  2  0  0  0  0
 33 65  1  0  0  0  0
 33 68  1  0  0  0  0
 34 69  1  0  0  0  0
 34 75  2  0  0  0  0
 35 49  1  0  0  0  0
 35 71  1  0  0  0  0
 35 76  2  0  0  0  0
 36 59  1  0  0  0  0
 36 66  1  0  0  0  0
 36 77  2  0  0  0  0
 37 60  1  0  0  0  0
 37 72  1  0  0  0  0
 37 78  2  0  0  0  0
 38 67  1  0  0  0  0
 38 70  1  0  0  0  0
 38 79  2  0  0  0  0
 39 42  1  0  0  0  0
 40 49  1  0  0  0  0
 41 66  1  0  0  0  0
 42 44  1  0  0  0  0
 43 45  1  0  0  0  0
 43 46  1  0  0  0  0
 44 48  1  0  0  0  0
 45 50  1  0  0  0  0
 46 67  1  0  0  0  0
 47 50  1  0  0  0  0
 47 67  1  0  0  0  0
 48 71  1  0  0  0  0
 49 66  1  0  0  0  0
 50 65  1  0  0  0  0
 51 60  1  0  0  0  0
 52 61  1  0  0  0  0
 53 62  1  0  0  0  0
 54 63  1  0  0  0  0
 55 63  1  0  0  0  0
 56 63  1  0  0  0  0
 57 73  1  0  0  0  0
 58 74  1  0  0  0  0
 59 63  1  0  0  0  0
 59 72  1  0  0  0  0
 60 73  1  0  0  0  0
 61 62  1  0  0  0  0
 61 74  1  0  0  0  0
 62 81  1  0  0  0  0
 64 65  1  0  0  0  0
M  CHG  2  73   1  74   1
M  ISO  4  38 100  62 101  70 100  81 101
M  END
> <Batch ID>
0015

> <Smiles>
CNC(C)C(=O)NC(C(=O)N1Cc2cc([101O:1][101CH:1](C)C(C)NCc3c(F)c(F)cc([100NH:0][100C:0](=O)N4CCCC(n5nc(-c6ccc(Oc7ccc(F)cc7F)cc6)c(C(N)=O)c5N)C4)c3Cl)ccc2CC1C(=O)NC1CCCc2ccccc21)C(C)(C)C

> <Shape>
0.223

> <Color>
0.044

> <Negative vol penalty>
0.000

$$$$

  -OEChem-04052315553D

 81 89  0     1  0  0  0  0  0999 V2000
  -25.5994   -7.9726   25.9395 C   0  0  0  0  0  0  0  0  0  0  0  0
  -25.9230   -9.3020   25.6880 C   0  0  0  0  0  0  0  0  0  0  0  0
  -23.1992   -9.8520   19.9528 C   0  0  0  0  0  0  0  0  0  0  0  0
  -23.9122   -9.9296   22.2599 C   0  0  0  0  0  0  0  0  0  0  0  0
  -24.4762   -7.6627   26.7053 C   0  0  0  0  0  0  0  0  0  0  0  0
  -25.1230  -10.3223   26.2011 C   0  0  0  0  0  0  0  0  0  0  0  0
  -27.8371  -14.0770   28.2459 C   0  0  0  0  0  0  0  0  0  0  0  0
  -32.5178  -17.1071   24.8416 C   0  0  0  0  0  0  0  0  0  0  0  0
  -22.5069   -8.6680   20.2065 C   0  0  0  0  0  0  0  0  0  0  0  0
  -23.2198   -8.7456   22.5137 C   0  0  0  0  0  0  0  0  0  0  0  0
  -28.4247  -14.9883   27.3696 C   0  0  0  0  0  0  0  0  0  0  0  0
  -20.0225   -7.8013   23.0668 C   0  0  0  0  0  0  0  0  0  0  0  0
  -33.2292  -16.2118   24.0429 C   0  0  0  0  0  0  0  0  0  0  0  0
  -19.2452   -7.7421   24.2235 C   0  0  0  0  0  0  0  0  0  0  0  0
  -26.6337  -16.5463   27.7985 C   0  0  0  0  0  0  0  0  0  0  0  0
  -20.5636   -5.8781   25.0138 C   0  0  0  0  0  0  0  0  0  0  0  0
  -23.9019  -10.4828   20.9795 C   0  0  0  0  0  0  0  0  0  0  0  0
  -24.1241  -13.0195   20.8264 C   0  0  0  0  0  0  0  0  0  0  0  0
  -23.6675   -8.6799   27.2362 C   0  0  0  0  0  0  0  0  0  0  0  0
  -26.6357  -14.3897   28.8979 C   0  0  0  0  0  0  0  0  0  0  0  0
  -23.9872  -10.0257   26.9736 C   0  0  0  0  0  0  0  0  0  0  0  0
  -26.0343  -15.6383   28.6846 C   0  0  0  0  0  0  0  0  0  0  0  0
  -31.1268  -17.1656   24.7551 C   0  0  0  0  0  0  0  0  0  0  0  0
  -31.1586  -15.4335   23.0711 C   0  0  0  0  0  0  0  0  0  0  0  0
  -22.5172   -8.1148   21.4870 C   0  0  0  0  0  0  0  0  0  0  0  0
  -27.8215  -16.2220   27.1435 C   0  0  0  0  0  0  0  0  0  0  0  0
  -21.0703   -6.8989   22.8836 C   0  0  0  0  0  0  0  0  0  0  0  0
  -19.5158   -6.7805   25.1970 C   0  0  0  0  0  0  0  0  0  0  0  0
  -32.5496  -15.3750   23.1576 C   0  0  0  0  0  0  0  0  0  0  0  0
  -21.3408   -5.9374   23.8571 C   0  0  0  0  0  0  0  0  0  0  0  0
  -30.4473  -16.3289   23.8699 C   0  0  0  0  0  0  0  0  0  0  0  0
  -24.6177  -11.7056   20.7178 C   0  0  0  0  0  0  0  0  0  0  0  0
  -25.1859  -13.8155   20.4723 C   0  0  0  0  0  0  0  0  0  0  0  0
  -22.8222  -13.4793   21.2128 C   0  0  0  0  0  0  0  0  0  0  0  0
  -23.7055  -13.1578   28.9136 C   0  0  0  0  0  0  0  0  0  0  0  0
  -23.2186  -15.3475   31.2568 C   0  0  0  0  0  0  0  0  0  0  0  0
  -24.1382  -18.3007   32.6988 C   0  0  0  0  0  0  0  0  0  0  0  0
  -30.9352  -14.0837   20.9558 C   0  0  0  0  0  0  0  0  0  0  0  0
  -22.4368   -8.2950   28.0185 C   0  0  0  0  0  0  0  0  0  0  0  0
  -26.0287  -13.4064   29.8607 C   0  0  0  0  0  0  0  0  0  0  0  0
  -24.7546  -16.0305   29.3754 C   0  0  0  0  0  0  0  0  0  0  0  0
  -21.8533   -9.4422   28.8393 C   0  0  0  0  0  0  0  0  0  0  0  0
  -29.3618  -13.1192   17.9110 C   0  0  0  0  0  0  0  0  0  0  0  0
  -21.7673  -10.7112   27.9972 C   0  0  0  0  0  0  0  0  0  0  0  0
  -27.9294  -12.7845   18.3332 C   0  0  0  0  0  0  0  0  0  0  0  0
  -30.3786  -12.6973   18.9701 C   0  0  0  0  0  0  0  0  0  0  0  0
  -28.6789  -12.8670   20.7454 C   0  0  0  0  0  0  0  0  0  0  0  0
  -23.1581  -11.1610   27.5337 C   0  0  1  0  0  0  0  0  0  0  0  0
  -24.5344  -13.6257   30.0762 C   0  0  1  0  0  0  0  0  0  0  0  0
  -27.6138  -13.3321   19.7390 C   0  0  2  0  0  0  0  0  0  0  0  0
  -23.5297  -19.8493   34.5774 C   0  0  0  0  0  0  0  0  0  0  0  0
  -20.8183  -16.3415   29.6566 C   0  0  0  0  0  0  0  0  0  0  0  0
  -20.8406  -18.4226   31.0482 C   0  0  0  0  0  0  0  0  0  0  0  0
  -20.4432  -16.2081   32.1256 C   0  0  0  0  0  0  0  0  0  0  0  0
  -26.7915  -17.9865   33.9718 C   0  0  0  0  0  0  0  0  0  0  0  0
  -30.3622  -18.1327   25.6194 C   0  0  0  0  0  0  0  0  0  0  0  0
  -22.7613  -16.7856   31.2978 C   0  0  1  0  0  0  0  0  0  0  0  0
  -24.3975  -18.6771   34.1464 C   0  0  2  0  0  0  0  0  0  0  0  0
  -21.2389  -16.9316   31.0174 C   0  0  0  0  0  0  0  0  0  0  0  0
  -25.8938  -11.6650   20.3254 N   0  0  0  0  0  0  0  0  0  0  0  0
  -26.2110  -12.9632   20.1841 N   0  0  0  0  0  0  0  0  0  0  0  0
  -24.1965  -15.0324   30.3027 N   0  0  0  0  0  0  0  0  0  0  0  0
  -30.0174  -13.2564   20.2747 N   0  0  0  0  0  0  0  0  0  0  0  0
  -25.3334  -15.1544   20.3825 N   0  0  0  0  0  0  0  0  0  0  0  0
  -21.8487  -12.5272   21.5449 N   0  0  0  0  0  0  0  0  0  0  0  0
  -30.4691  -14.5834   22.1714 N   0  0  0  0  0  0  0  0  0  0  0  0
  -23.8627  -11.8181   28.6136 N   0  0  0  0  0  0  0  0  0  0  0  0
  -23.1837  -17.3115   32.5914 N   0  0  0  0  0  0  0  0  0  0  0  0
  -29.7336  -17.4676   26.7517 N   0  0  0  0  0  0  0  0  0  1  0  0
  -25.8264  -19.0559   34.3352 N   0  3  0  0  0  0  0  0  0  0  0  0
  -22.5259  -14.6977   21.2463 O   0  0  0  0  0  0  0  0  0  0  0  0
  -22.9761  -13.9529   28.3327 O   0  0  0  0  0  0  0  0  0  0  0  0
  -22.7315  -14.5352   32.0470 O   0  0  0  0  0  0  0  0  0  0  0  0
  -24.7213  -18.8337   31.7573 O   0  0  0  0  0  0  0  0  0  0  0  0
  -32.0420  -14.3528   20.4819 O   0  0  0  0  0  0  0  0  0  0  0  0
  -21.8415   -6.9596   21.7350 O   0  0  0  0  0  0  0  0  0  0  0  0
  -28.3925  -17.1131   26.2881 O   0  0  0  0  0  0  0  0  0  1  0  0
  -18.7703   -6.7247   26.3084 F   0  0  0  0  0  0  0  0  0  0  0  0
  -33.2434  -14.5186   22.3944 F   0  0  0  0  0  0  0  0  0  0  0  0
  -22.3468   -5.0685   23.6872 F   0  0  0  0  0  0  0  0  0  0  0  0
  -29.1094  -16.3865   23.7886 F   0  0  0  0  0  0  0  0  0  0  0  0
  1  2  1  0  0  0  0
  1  5  2  0  0  0  0
  2  6  2  0  0  0  0
  3  9  2  0  0  0  0
  3 17  1  0  0  0  0
  4 10  1  0  0  0  0
  4 17  2  0  0  0  0
  5 19  1  0  0  0  0
  6 21  1  0  0  0  0
  7 11  2  0  0  0  0
  7 20  1  0  0  0  0
  8 13  2  0  0  0  0
  8 23  1  0  0  0  0
  9 25  1  0  0  0  0
 10 25  2  0  0  0  0
 11 26  1  0  0  0  0
 12 14  2  0  0  0  0
 12 27  1  0  0  0  0
 13 29  1  0  0  0  0
 14 28  1  0  0  0  0
 15 22  1  0  0  0  0
 15 26  2  0  0  0  0
 16 28  2  0  0  0  0
 16 30  1  0  0  0  0
 17 32  1  0  0  0  0
 18 32  1  0  0  0  0
 18 33  2  0  0  0  0
 18 34  1  0  0  0  0
 19 21  2  0  0  0  0
 19 39  1  0  0  0  0
 20 22  2  0  0  0  0
 20 40  1  0  0  0  0
 21 48  1  0  0  0  0
 22 41  1  0  0  0  0
 23 31  2  0  0  0  0
 23 56  1  0  0  0  0
 24 29  2  0  0  0  0
 24 31  1  0  0  0  0
 24 66  1  0  0  0  0
 25 76  1  0  0  0  0
 26 77  1  0  0  0  0
 27 30  2  0  0  0  0
 27 76  1  0  0  0  0
 28 78  1  0  0  0  0
 29 79  1  0  0  0  0
 30 80  1  0  0  0  0
 31 81  1  0  0  0  0
 32 60  2  0  0  0  0
 33 61  1  0  0  0  0
 33 64  1  0  0  0  0
 34 65  1  0  0  0  0
 34 71  2  0  0  0  0
 35 49  1  0  0  0  0
 35 67  1  0  0  0  0
 35 72  2  0  0  0  0
 36 57  1  0  0  0  0
 36 62  1  0  0  0  0
 36 73  2  0  0  0  0
 37 58  1  0  0  0  0
 37 68  1  0  0  0  0
 37 74  2  0  0  0  0
 38 63  1  0  0  0  0
 38 66  1  0  0  0  0
 38 75  2  0  0  0  0
 39 42  1  0  0  0  0
 40 49  1  0  0  0  0
 41 62  1  0  0  0  0
 42 44  1  0  0  0  0
 43 45  1  0  0  0  0
 43 46  1  0  0  0  0
 44 48  1  0  0  0  0
 45 50  1  0  0  0  0
 46 63  1  0  0  0  0
 47 50  1  0  0  0  0
 47 63  1  0  0  0  0
 48 67  1  0  0  0  0
 49 62  1  0  0  0  0
 50 61  1  0  0  0  0
 51 58  1  0  0  0  0
 52 59  1  0  0  0  0
 53 59  1  0  0  0  0
 54 59  1  0  0  0  0
 55 70  1  0  0  0  0
 56 69  1  0  0  0  0
 57 59  1  0  0  0  0
 57 68  1  0  0  0  0
 58 70  1  0  0  0  0
 60 61  1  0  0  0  0
 69 77  1  0  0  0  0
M  CHG  1  70   1
M  ISO  4  38 100  66 100  69 101  77 101
M  END
> <Batch ID>
0015

> <Smiles>
CNC(C)C(=O)NC(C(=O)N1Cc2cc([101O:1][101NH:1]Cc3ccc(F)c([100NH:0][100C:0](=O)N4CCCC(n5nc(-c6ccc(Oc7ccc(F)cc7F)cc6)c(C(N)=O)c5N)C4)c3F)ccc2CC1C(=O)NC1CCCc2ccccc21)C(C)(C)C

> <Shape>
0.159

> <Color>
0.198

> <Negative vol penalty>
0.000

$$$$

  -OEChem-04052315553D

 85 93  0     1  0  0  0  0  0999 V2000
  -29.1338  -33.9128   13.3316 C   0  0  0  0  0  0  0  0  0  0  0  0
  -29.3931  -33.1081   14.4365 C   0  0  0  0  0  0  0  0  0  0  0  0
  -22.9158  -10.0195   19.9535 C   0  0  0  0  0  0  0  0  0  0  0  0
  -23.8779   -9.7105   22.1480 C   0  0  0  0  0  0  0  0  0  0  0  0
  -28.1914  -34.9363   13.4218 C   0  0  0  0  0  0  0  0  0  0  0  0
  -28.7108  -33.3274   15.6327 C   0  0  0  0  0  0  0  0  0  0  0  0
  -27.0540  -29.0308   17.7397 C   0  0  0  0  0  0  0  0  0  0  0  0
  -22.1397   -8.8744   20.1325 C   0  0  0  0  0  0  0  0  0  0  0  0
  -23.1018   -8.5654   22.3271 C   0  0  0  0  0  0  0  0  0  0  0  0
  -27.9891  -28.2551   18.4236 C   0  0  0  0  0  0  0  0  0  0  0  0
  -23.1721   -5.3300   21.3485 C   0  0  0  0  0  0  0  0  0  0  0  0
  -23.7967   -4.1997   21.8757 C   0  0  0  0  0  0  0  0  0  0  0  0
  -27.1947  -29.1537   20.5167 C   0  0  0  0  0  0  0  0  0  0  0  0
  -30.7593  -18.6509   23.0921 C   0  0  0  0  0  0  0  0  0  0  0  0
  -31.0777  -18.8726   20.7075 C   0  0  0  0  0  0  0  0  0  0  0  0
  -22.2663   -4.2262   23.7451 C   0  0  0  0  0  0  0  0  0  0  0  0
  -23.7850  -10.4375   20.9613 C   0  0  0  0  0  0  0  0  0  0  0  0
  -24.2427  -12.9425   21.1143 C   0  0  0  0  0  0  0  0  0  0  0  0
  -27.4903  -35.1620   14.6169 C   0  0  0  0  0  0  0  0  0  0  0  0
  -26.1881  -29.8834   18.4396 C   0  0  0  0  0  0  0  0  0  0  0  0
  -27.7591  -34.3558   15.7394 C   0  0  0  0  0  0  0  0  0  0  0  0
  -26.2478  -29.9372   19.8395 C   0  0  0  0  0  0  0  0  0  0  0  0
  -30.5588  -16.7144   21.6615 C   0  0  0  0  0  0  0  0  0  0  0  0
  -22.2327   -8.1474   21.3193 C   0  0  0  0  0  0  0  0  0  0  0  0
  -28.0615  -28.3186   19.8121 C   0  0  0  0  0  0  0  0  0  0  0  0
  -22.0948   -5.9085   22.0195 C   0  0  0  0  0  0  0  0  0  0  0  0
  -31.0384  -19.4442   21.9793 C   0  0  0  0  0  0  0  0  0  0  0  0
  -23.3438   -3.6478   23.0740 C   0  0  0  0  0  0  0  0  0  0  0  0
  -30.5196  -17.2860   22.9332 C   0  0  0  0  0  0  0  0  0  0  0  0
  -30.8379  -17.5077   20.5486 C   0  0  0  0  0  0  0  0  0  0  0  0
  -21.6419   -5.3565   23.2178 C   0  0  0  0  0  0  0  0  0  0  0  0
  -24.5874  -11.6200   20.7767 C   0  0  0  0  0  0  0  0  0  0  0  0
  -25.3345  -13.6877   20.7415 C   0  0  0  0  0  0  0  0  0  0  0  0
  -23.0428  -13.4517   21.7115 C   0  0  0  0  0  0  0  0  0  0  0  0
  -25.6933  -33.0227   18.4977 C   0  0  0  0  0  0  0  0  0  0  0  0
  -23.2270  -32.2049   20.4395 C   0  0  0  0  0  0  0  0  0  0  0  0
  -21.8709  -29.9412   22.6036 C   0  0  0  0  0  0  0  0  0  0  0  0
  -30.8404  -14.4869   20.5189 C   0  0  0  0  0  0  0  0  0  0  0  0
  -26.5151  -36.3107   14.6805 C   0  0  0  0  0  0  0  0  0  0  0  0
  -25.1670  -30.6936   17.6890 C   0  0  0  0  0  0  0  0  0  0  0  0
  -25.3271  -30.8212   20.6391 C   0  0  0  0  0  0  0  0  0  0  0  0
  -25.5645  -36.2374   15.8727 C   0  0  0  0  0  0  0  0  0  0  0  0
  -29.3966  -12.4331   17.9942 C   0  0  0  0  0  0  0  0  0  0  0  0
  -26.3336  -35.9131   17.1495 C   0  0  0  0  0  0  0  0  0  0  0  0
  -27.9883  -12.1472   18.5208 C   0  0  0  0  0  0  0  0  0  0  0  0
  -30.4263  -12.4740   19.1219 C   0  0  0  0  0  0  0  0  0  0  0  0
  -28.6903  -13.0953   20.7559 C   0  0  0  0  0  0  0  0  0  0  0  0
  -27.0216  -34.5465   17.0470 C   0  0  1  0  0  0  0  0  0  0  0  0
  -24.6815  -31.9123   18.4677 C   0  0  1  0  0  0  0  0  0  0  0  0
  -27.6082  -13.1087   19.6639 C   0  0  2  0  0  0  0  0  0  0  0  0
  -19.8618  -29.5673   24.0600 C   0  0  0  0  0  0  0  0  0  0  0  0
  -24.3389  -34.1848   22.4775 C   0  0  0  0  0  0  0  0  0  0  0  0
  -22.9027  -33.0958   24.2152 C   0  0  0  0  0  0  0  0  0  0  0  0
  -21.8487  -34.2113   22.2487 C   0  0  0  0  0  0  0  0  0  0  0  0
  -21.1023  -27.5008   21.1161 C   0  0  0  0  0  0  0  0  0  0  0  0
  -30.1334  -23.9632   20.4893 C   0  0  0  0  0  0  0  0  0  0  0  0
  -29.7306  -25.3473   20.9983 C   0  0  0  0  0  0  0  0  0  0  0  0
  -30.5508  -23.0058   21.6043 C   0  0  0  0  0  0  0  0  0  0  0  0
  -29.3467  -26.3191   19.8906 C   0  0  0  0  0  0  0  0  0  1  0  0
  -30.9108  -21.6317   21.0551 C   0  0  0  0  0  0  0  0  0  0  0  0
  -23.0556  -32.0132   21.9271 C   0  0  1  0  0  0  0  0  0  0  0  0
  -20.4805  -29.3380   22.6898 C   0  0  2  0  0  0  0  0  0  0  0  0
  -23.0553  -33.3610   22.7022 C   0  0  0  0  0  0  0  0  0  0  0  0
  -25.8031  -11.5272   20.2313 N   0  0  0  0  0  0  0  0  0  0  0  0
  -26.2317  -12.8009   20.2231 N   0  0  0  0  0  0  0  0  0  0  0  0
  -24.3502  -31.5988   19.8591 N   0  0  0  0  0  0  0  0  0  0  0  0
  -30.0015  -13.4086   20.1664 N   0  0  0  0  0  0  0  0  0  0  0  0
  -25.6049  -15.0086   20.8096 N   0  0  0  0  0  0  0  0  0  0  0  0
  -22.0203  -12.5482   22.0317 N   0  0  0  0  0  0  0  0  0  0  0  0
  -30.3170  -15.3276   21.5008 N   0  0  0  0  0  0  0  0  0  0  0  0
  -26.0625  -33.4815   17.2476 N   0  0  0  0  0  0  0  0  0  0  0  0
  -21.8406  -31.2243   22.0997 N   0  0  0  0  0  0  0  0  0  0  0  0
  -20.5362  -27.8700   22.4390 N   0  3  0  0  0  0  0  0  0  0  0  0
  -22.8755  -14.6740   21.9389 O   0  0  0  0  0  0  0  0  0  0  0  0
  -26.1073  -33.4339   19.5753 O   0  0  0  0  0  0  0  0  0  0  0  0
  -22.3910  -32.8621   19.8142 O   0  0  0  0  0  0  0  0  0  0  0  0
  -22.8823  -29.3361   22.9521 O   0  0  0  0  0  0  0  0  0  0  0  0
  -31.9300  -14.6680   19.9695 O   0  0  0  0  0  0  0  0  0  0  0  0
  -21.4753   -7.0301   21.4944 O   0  0  0  0  0  0  0  0  0  0  0  0
  -28.9738  -27.5631   20.4820 O   0  0  0  0  0  0  0  0  0  1  0  0
  -31.2746  -20.7853   22.1367 O   0  0  0  0  0  0  0  0  0  0  0  0
  -23.9426   -2.5614   23.5794 F   0  0  0  0  0  0  0  0  0  0  0  0
  -30.2540  -16.5327   24.0099 F   0  0  0  0  0  0  0  0  0  0  0  0
  -30.8808  -16.9688   19.3217 F   0  0  0  0  0  0  0  0  0  0  0  0
  -20.6065   -5.9071   23.8665 F   0  0  0  0  0  0  0  0  0  0  0  0
  1  2  1  0  0  0  0
  1  5  2  0  0  0  0
  2  6  2  0  0  0  0
  3  8  2  0  0  0  0
  3 17  1  0  0  0  0
  4  9  1  0  0  0  0
  4 17  2  0  0  0  0
  5 19  1  0  0  0  0
  6 21  1  0  0  0  0
  7 10  2  0  0  0  0
  7 20  1  0  0  0  0
  8 24  1  0  0  0  0
  9 24  2  0  0  0  0
 10 25  1  0  0  0  0
 11 12  2  0  0  0  0
 11 26  1  0  0  0  0
 12 28  1  0  0  0  0
 13 22  1  0  0  0  0
 13 25  2  0  0  0  0
 14 27  1  0  0  0  0
 14 29  2  0  0  0  0
 15 27  2  0  0  0  0
 15 30  1  0  0  0  0
 16 28  2  0  0  0  0
 16 31  1  0  0  0  0
 17 32  1  0  0  0  0
 18 32  1  0  0  0  0
 18 33  2  0  0  0  0
 18 34  1  0  0  0  0
 19 21  2  0  0  0  0
 19 39  1  0  0  0  0
 20 22  2  0  0  0  0
 20 40  1  0  0  0  0
 21 48  1  0  0  0  0
 22 41  1  0  0  0  0
 23 29  1  0  0  0  0
 23 30  2  0  0  0  0
 23 70  1  0  0  0  0
 24 79  1  0  0  0  0
 25 80  1  0  0  0  0
 26 31  2  0  0  0  0
 26 79  1  0  0  0  0
 27 81  1  0  0  0  0
 28 82  1  0  0  0  0
 29 83  1  0  0  0  0
 30 84  1  0  0  0  0
 31 85  1  0  0  0  0
 32 64  2  0  0  0  0
 33 65  1  0  0  0  0
 33 68  1  0  0  0  0
 34 69  1  0  0  0  0
 34 74  2  0  0  0  0
 35 49  1  0  0  0  0
 35 71  1  0  0  0  0
 35 75  2  0  0  0  0
 36 61  1  0  0  0  0
 36 66  1  0  0  0  0
 36 76  2  0  0  0  0
 37 62  1  0  0  0  0
 37 72  1  0  0  0  0
 37 77  2  0  0  0  0
 38 67  1  0  0  0  0
 38 70  1  0  0  0  0
 38 78  2  0  0  0  0
 39 42  1  0  0  0  0
 40 49  1  0  0  0  0
 41 66  1  0  0  0  0
 42 44  1  0  0  0  0
 43 45  1  0  0  0  0
 43 46  1  0  0  0  0
 44 48  1  0  0  0  0
 45 50  1  0  0  0  0
 46 67  1  0  0  0  0
 47 50  1  0  0  0  0
 47 67  1  0  0  0  0
 48 71  1  0  0  0  0
 49 66  1  0  0  0  0
 50 65  1  0  0  0  0
 51 62  1  0  0  0  0
 52 63  1  0  0  0  0
 53 63  1  0  0  0  0
 54 63  1  0  0  0  0
 55 73  1  0  0  0  0
 56 57  1  0  0  0  0
 56 58  1  0  0  0  0
 57 59  1  0  0  0  0
 58 60  1  0  0  0  0
 59 80  1  0  0  0  0
 60 81  1  0  0  0  0
 61 63  1  0  0  0  0
 61 72  1  0  0  0  0
 62 73  1  0  0  0  0
 64 65  1  0  0  0  0
M  CHG  1  73   1
M  ISO  4  38 100  59 101  70 100  80 101
M  END
> <Batch ID>
0015

> <Smiles>
CNC(C)C(=O)NC(C(=O)N1Cc2cc([101O:1][101CH2:1]CCCCOc3cc(F)c([100NH:0][100C:0](=O)N4CCCC(n5nc(-c6ccc(Oc7ccc(F)cc7F)cc6)c(C(N)=O)c5N)C4)c(F)c3)ccc2CC1C(=O)NC1CCCc2ccccc21)C(C)(C)C

> <Shape>
0.308

> <Color>
0.205

> <Negative vol penalty>
0.000

$$$$

  -OEChem-04052315553D

 84 92  0     1  0  0  0  0  0999 V2000
  -19.8614  -10.2436   21.7752 C   0  0  0  0  0  0  0  0  0  0  0  0
  -20.4759  -11.3314   22.3871 C   0  0  0  0  0  0  0  0  0  0  0  0
  -26.3150  -29.3231   23.3653 C   0  0  0  0  0  0  0  0  0  0  0  0
  -27.3237  -30.9046   21.8426 C   0  0  0  0  0  0  0  0  0  0  0  0
  -20.6352   -9.2776   21.1332 C   0  0  0  0  0  0  0  0  0  0  0  0
  -21.8647  -11.4533   22.3584 C   0  0  0  0  0  0  0  0  0  0  0  0
  -23.3795  -16.1530   21.2347 C   0  0  0  0  0  0  0  0  0  0  0  0
  -26.6132  -30.1647   24.4369 C   0  0  0  0  0  0  0  0  0  0  0  0
  -27.6218  -31.7462   22.9143 C   0  0  0  0  0  0  0  0  0  0  0  0
  -23.3247  -17.1009   22.2556 C   0  0  0  0  0  0  0  0  0  0  0  0
  -28.3270  -34.4774   25.2081 C   0  0  0  0  0  0  0  0  0  0  0  0
  -28.0604  -35.8383   25.0585 C   0  0  0  0  0  0  0  0  0  0  0  0
  -25.6915  -16.8248   22.6310 C   0  0  0  0  0  0  0  0  0  0  0  0
  -26.6388  -21.5317   20.5645 C   0  0  0  0  0  0  0  0  0  0  0  0
  -24.2158  -21.9220   21.8911 C   0  0  0  0  0  0  0  0  0  0  0  0
  -25.7221  -35.3416   24.7078 C   0  0  0  0  0  0  0  0  0  0  0  0
  -26.6703  -29.6930   22.0681 C   0  0  0  0  0  0  0  0  0  0  0  0
  -25.1906  -28.8217   20.1816 C   0  0  0  0  0  0  0  0  0  0  0  0
  -22.0335   -9.3928   21.0883 C   0  0  0  0  0  0  0  0  0  0  0  0
  -24.5908  -15.5249   20.9110 C   0  0  0  0  0  0  0  0  0  0  0  0
  -22.6580  -10.4873   21.7164 C   0  0  0  0  0  0  0  0  0  0  0  0
  -25.7596  -15.8711   21.6038 C   0  0  0  0  0  0  0  0  0  0  0  0
  -26.5243  -21.2097   21.9168 C   0  0  0  0  0  0  0  0  0  0  0  0
  -25.5417  -22.0490   19.8754 C   0  0  0  0  0  0  0  0  0  0  0  0
  -25.3129  -21.4048   22.5801 C   0  0  0  0  0  0  0  0  0  0  0  0
  -27.2666  -31.3762   24.2114 C   0  0  0  0  0  0  0  0  0  0  0  0
  -24.4802  -17.4348   22.9559 C   0  0  0  0  0  0  0  0  0  0  0  0
  -27.2912  -33.5485   25.1074 C   0  0  0  0  0  0  0  0  0  0  0  0
  -26.7580  -36.2704   24.8085 C   0  0  0  0  0  0  0  0  0  0  0  0
  -24.3303  -22.2441   20.5387 C   0  0  0  0  0  0  0  0  0  0  0  0
  -25.9888  -33.9807   24.8573 C   0  0  0  0  0  0  0  0  0  0  0  0
  -26.3631  -28.8238   20.9608 C   0  0  0  0  0  0  0  0  0  0  0  0
  -25.3881  -27.8163   19.2668 C   0  0  0  0  0  0  0  0  0  0  0  0
  -24.0271  -29.6541   20.2761 C   0  0  0  0  0  0  0  0  0  0  0  0
  -25.6435  -12.5259   20.9525 C   0  0  0  0  0  0  0  0  0  0  0  0
  -28.2545  -13.8345   19.5408 C   0  0  0  0  0  0  0  0  0  0  0  0
  -30.1730  -16.6045   18.9996 C   0  0  0  0  0  0  0  0  0  0  0  0
  -26.8937  -22.8013   17.9267 C   0  0  0  0  0  0  0  0  0  0  0  0
  -22.8310   -8.2989   20.4233 C   0  0  0  0  0  0  0  0  0  0  0  0
  -24.6384  -14.5240   19.7892 C   0  0  0  0  0  0  0  0  0  0  0  0
  -27.0888  -15.2405   21.2814 C   0  0  0  0  0  0  0  0  0  0  0  0
  -24.2720   -8.6973   20.1146 C   0  0  0  0  0  0  0  0  0  0  0  0
  -29.5338  -25.1764   18.1056 C   0  0  0  0  0  0  0  0  0  0  0  0
  -24.9078   -9.3788   21.3221 C   0  0  0  0  0  0  0  0  0  0  0  0
  -28.8458  -26.3418   18.8157 C   0  0  0  0  0  0  0  0  0  0  0  0
  -29.1028  -23.8243   18.6751 C   0  0  0  0  0  0  0  0  0  0  0  0
  -26.9470  -24.7899   19.4132 C   0  0  0  0  0  0  0  0  0  0  0  0
  -24.1602  -10.6675   21.6853 C   0  0  1  0  0  0  0  0  0  0  0  0
  -25.8257  -13.5712   19.8885 C   0  0  1  0  0  0  0  0  0  0  0  0
  -27.3178  -26.1594   18.8232 C   0  0  1  0  0  0  0  0  0  0  0  0
  -27.7153  -20.6575   22.6305 C   0  0  0  0  0  0  0  0  0  0  0  0
  -32.2655  -17.3547   17.8351 C   0  0  0  0  0  0  0  0  0  0  0  0
  -24.1634  -20.4323   26.0118 C   0  0  0  0  0  0  0  0  0  0  0  0
  -29.9361  -12.5264   21.7251 C   0  0  0  0  0  0  0  0  0  0  0  0
  -31.8198  -14.0482   21.0893 C   0  0  0  0  0  0  0  0  0  0  0  0
  -30.9294  -12.4092   19.4329 C   0  0  0  0  0  0  0  0  0  0  0  0
  -24.5519  -22.0465   17.5780 C   0  0  0  0  0  0  0  0  0  0  0  0
  -28.6814  -18.5141   17.3003 C   0  0  0  0  0  0  0  0  0  0  0  0
  -23.4476  -19.3882   23.8357 C   0  0  0  0  0  0  0  0  0  1  0  0
  -29.5469  -14.4386   20.0346 C   0  0  1  0  0  0  0  0  0  0  0  0
  -30.7572  -17.1924   17.7278 C   0  0  2  0  0  0  0  0  0  0  0  0
  -23.9358  -20.6613   24.5234 C   0  0  2  0  0  0  0  0  0  0  0  0
  -30.5328  -13.3663   20.5781 C   0  0  0  0  0  0  0  0  0  0  0  0
  -27.2404  -27.8935   20.5748 N   0  0  0  0  0  0  0  0  0  0  0  0
  -26.6188  -27.2974   19.5432 N   0  0  0  0  0  0  0  0  0  0  0  0
  -27.0828  -14.2631   20.1805 N   0  0  0  0  0  0  0  0  0  0  0  0
  -27.6375  -23.7127   18.6998 N   0  0  0  0  0  0  0  0  0  0  0  0
  -24.6273  -27.3344   18.2612 N   0  0  0  0  0  0  0  0  0  0  0  0
  -23.9887  -30.6379   21.2737 N   0  0  0  0  0  0  0  0  0  0  0  0
  -25.1815  -21.0913   23.9204 N   0  0  0  0  0  0  0  0  0  0  0  0
  -24.5236  -11.7353   20.7785 N   0  0  0  0  0  0  0  0  0  0  0  0
  -30.0755  -15.2309   18.9295 N   0  0  0  0  0  0  0  0  0  0  0  0
  -25.6628  -22.3817   18.4755 N   0  0  0  0  0  0  0  0  0  0  0  0
  -30.1590  -18.5294   17.4527 N   0  3  0  0  0  0  0  0  0  0  0  0
  -23.0435  -29.5184   19.5095 O   0  0  0  0  0  0  0  0  0  0  0  0
  -26.4594  -12.4419   21.8629 O   0  0  0  0  0  0  0  0  0  0  0  0
  -28.2829  -13.0179   18.6167 O   0  0  0  0  0  0  0  0  0  0  0  0
  -29.8401  -17.2945   19.9607 O   0  0  0  0  0  0  0  0  0  0  0  0
  -27.2862  -22.4126   16.8200 O   0  0  0  0  0  0  0  0  0  0  0  0
  -27.5575  -32.1978   25.2569 O   0  0  0  0  0  0  0  0  0  0  0  0
  -24.4293  -18.3592   23.9533 O   0  0  0  0  0  0  0  0  0  1  0  0
  -26.5018  -37.5775   24.6664 F   0  0  0  0  0  0  0  0  0  0  0  0
  -23.2693  -22.7406   19.8866 F   0  0  0  0  0  0  0  0  0  0  0  0
  -24.9894  -33.0931   24.7608 F   0  0  0  0  0  0  0  0  0  0  0  0
  1  2  1  0  0  0  0
  1  5  2  0  0  0  0
  2  6  2  0  0  0  0
  3  8  2  0  0  0  0
  3 17  1  0  0  0  0
  4  9  1  0  0  0  0
  4 17  2  0  0  0  0
  5 19  1  0  0  0  0
  6 21  1  0  0  0  0
  7 10  2  0  0  0  0
  7 20  1  0  0  0  0
  8 26  1  0  0  0  0
  9 26  2  0  0  0  0
 10 27  1  0  0  0  0
 11 12  2  0  0  0  0
 11 28  1  0  0  0  0
 12 29  1  0  0  0  0
 13 22  1  0  0  0  0
 13 27  2  0  0  0  0
 14 23  1  0  0  0  0
 14 24  2  0  0  0  0
 15 25  1  0  0  0  0
 15 30  2  0  0  0  0
 16 29  2  0  0  0  0
 16 31  1  0  0  0  0
 17 32  1  0  0  0  0
 18 32  1  0  0  0  0
 18 33  2  0  0  0  0
 18 34  1  0  0  0  0
 19 21  2  0  0  0  0
 19 39  1  0  0  0  0
 20 22  2  0  0  0  0
 20 40  1  0  0  0  0
 21 48  1  0  0  0  0
 22 41  1  0  0  0  0
 23 25  2  0  0  0  0
 23 51  1  0  0  0  0
 24 30  1  0  0  0  0
 24 73  1  0  0  0  0
 25 70  1  0  0  0  0
 26 80  1  0  0  0  0
 27 81  1  0  0  0  0
 28 31  2  0  0  0  0
 28 80  1  0  0  0  0
 29 82  1  0  0  0  0
 30 83  1  0  0  0  0
 31 84  1  0  0  0  0
 32 64  2  0  0  0  0
 33 65  1  0  0  0  0
 33 68  1  0  0  0  0
 34 69  1  0  0  0  0
 34 75  2  0  0  0  0
 35 49  1  0  0  0  0
 35 71  1  0  0  0  0
 35 76  2  0  0  0  0
 36 60  1  0  0  0  0
 36 66  1  0  0  0  0
 36 77  2  0  0  0  0
 37 61  1  0  0  0  0
 37 72  1  0  0  0  0
 37 78  2  0  0  0  0
 38 67  1  0  0  0  0
 38 73  1  0  0  0  0
 38 79  2  0  0  0  0
 39 42  1  0  0  0  0
 40 49  1  0  0  0  0
 41 66  1  0  0  0  0
 42 44  1  0  0  0  0
 43 45  1  0  0  0  0
 43 46  1  0  0  0  0
 44 48  1  0  0  0  0
 45 50  1  0  0  0  0
 46 67  1  0  0  0  0
 47 50  1  0  0  0  0
 47 67  1  0  0  0  0
 48 71  1  0  0  0  0
 49 66  1  0  0  0  0
 50 65  1  0  0  0  0
 52 61  1  0  0  0  0
 53 62  1  0  0  0  0
 54 63  1  0  0  0  0
 55 63  1  0  0  0  0
 56 63  1  0  0  0  0
 57 73  1  0  0  0  0
 58 74  1  0  0  0  0
 59 62  1  0  0  0  0
 59 81  1  0  0  0  0
 60 63  1  0  0  0  0
 60 72  1  0  0  0  0
 61 74  1  0  0  0  0
 62 70  1  0  0  0  0
 64 65  1  0  0  0  0
M  CHG  1  74   1
M  ISO  4  38 100  59 101  73 100  81 101
M  END
> <Batch ID>
0015

> <Smiles>
CNC(C)C(=O)NC(C(=O)N1Cc2cc([101O:1][101CH2:1]C(C)Nc3cc(F)c([100N:0](C)[100C:0](=O)N4CCCC(n5nc(-c6ccc(Oc7ccc(F)cc7F)cc6)c(C(N)=O)c5N)C4)cc3C)ccc2CC1C(=O)NC1CCCc2ccccc21)C(C)(C)C

> <Shape>
0.292

> <Color>
0.051

> <Negative vol penalty>
0.000

$$$$

  -OEChem-04052315553D

 85 93  0     1  0  0  0  0  0999 V2000
  -26.3642  -36.5349   16.7311 C   0  0  0  0  0  0  0  0  0  0  0  0
  -26.6872  -35.1837   16.6573 C   0  0  0  0  0  0  0  0  0  0  0  0
  -24.5718   -8.8908   20.7767 C   0  0  0  0  0  0  0  0  0  0  0  0
  -22.8944  -10.6294   20.8058 C   0  0  0  0  0  0  0  0  0  0  0  0
  -26.2473  -37.1556   17.9740 C   0  0  0  0  0  0  0  0  0  0  0  0
  -26.8946  -34.4527   17.8265 C   0  0  0  0  0  0  0  0  0  0  0  0
  -25.4829  -28.5720   18.7908 C   0  0  0  0  0  0  0  0  0  0  0  0
  -23.6989   -8.0373   21.4512 C   0  0  0  0  0  0  0  0  0  0  0  0
  -22.0214   -9.7758   21.4803 C   0  0  0  0  0  0  0  0  0  0  0  0
  -26.2443  -27.4050   18.7455 C   0  0  0  0  0  0  0  0  0  0  0  0
  -21.0321   -6.0994   20.6988 C   0  0  0  0  0  0  0  0  0  0  0  0
  -20.9209   -4.7883   20.2361 C   0  0  0  0  0  0  0  0  0  0  0  0
  -26.5675  -27.5302   21.1327 C   0  0  0  0  0  0  0  0  0  0  0  0
  -25.6128  -20.8205   20.1363 C   0  0  0  0  0  0  0  0  0  0  0  0
  -21.6699   -3.9676   22.3815 C   0  0  0  0  0  0  0  0  0  0  0  0
  -24.1696  -10.1869   20.4540 C   0  0  0  0  0  0  0  0  0  0  0  0
  -25.2046  -11.2218   18.3647 C   0  0  0  0  0  0  0  0  0  0  0  0
  -26.4439  -36.4296   19.1593 C   0  0  0  0  0  0  0  0  0  0  0  0
  -25.2668  -29.2340   20.0080 C   0  0  0  0  0  0  0  0  0  0  0  0
  -26.7815  -35.0646   19.0864 C   0  0  0  0  0  0  0  0  0  0  0  0
  -25.8009  -28.7041   21.1912 C   0  0  0  0  0  0  0  0  0  0  0  0
  -24.7979  -20.0984   21.0082 C   0  0  0  0  0  0  0  0  0  0  0  0
  -26.8346  -20.2896   19.7228 C   0  0  0  0  0  0  0  0  0  0  0  0
  -26.4267  -18.3145   21.0530 C   0  0  0  0  0  0  0  0  0  0  0  0
  -22.4237   -8.4797   21.8030 C   0  0  0  0  0  0  0  0  0  0  0  0
  -26.7891  -26.8855   19.9161 C   0  0  0  0  0  0  0  0  0  0  0  0
  -21.4623   -6.3447   22.0028 C   0  0  0  0  0  0  0  0  0  0  0  0
  -21.2397   -3.7224   21.0774 C   0  0  0  0  0  0  0  0  0  0  0  0
  -21.7812   -5.2788   22.8442 C   0  0  0  0  0  0  0  0  0  0  0  0
  -25.2048  -18.8454   21.4665 C   0  0  0  0  0  0  0  0  0  0  0  0
  -27.2415  -19.0366   20.1811 C   0  0  0  0  0  0  0  0  0  0  0  0
  -25.0711  -11.0694   19.7578 C   0  0  0  0  0  0  0  0  0  0  0  0
  -26.1854  -12.1718   18.2157 C   0  0  0  0  0  0  0  0  0  0  0  0
  -24.5046  -10.5637   17.3005 C   0  0  0  0  0  0  0  0  0  0  0  0
  -25.9879  -32.1088   21.1567 C   0  0  0  0  0  0  0  0  0  0  0  0
  -24.1835  -31.1287   23.6678 C   0  0  0  0  0  0  0  0  0  0  0  0
  -22.8987  -28.5341   25.4745 C   0  0  0  0  0  0  0  0  0  0  0  0
  -28.1468  -16.5982   21.7177 C   0  0  0  0  0  0  0  0  0  0  0  0
  -26.3531  -37.1550   20.4785 C   0  0  0  0  0  0  0  0  0  0  0  0
  -24.4209  -30.4772   20.0439 C   0  0  0  0  0  0  0  0  0  0  0  0
  -25.5813  -29.3656   22.5264 C   0  0  0  0  0  0  0  0  0  0  0  0
  -26.2206  -36.2216   21.6790 C   0  0  0  0  0  0  0  0  0  0  0  0
  -30.0761  -13.9118   20.3995 C   0  0  0  0  0  0  0  0  0  0  0  0
  -27.2322  -35.0838   21.5849 C   0  0  0  0  0  0  0  0  0  0  0  0
  -29.0235  -12.8945   19.9530 C   0  0  0  0  0  0  0  0  0  0  0  0
  -29.6626  -14.6294   21.6831 C   0  0  0  0  0  0  0  0  0  0  0  0
  -27.2796  -14.2328   21.1999 C   0  0  0  0  0  0  0  0  0  0  0  0
  -26.9897  -34.2322   20.3329 C   0  0  1  0  0  0  0  0  0  0  0  0
  -24.6947  -31.3512   21.2640 C   0  0  1  0  0  0  0  0  0  0  0  0
  -27.6219  -13.5309   19.8756 C   0  0  2  0  0  0  0  0  0  0  0  0
  -23.4924  -20.6693   21.4490 C   0  0  0  0  0  0  0  0  0  0  0  0
  -21.4929  -28.0462   27.4952 C   0  0  0  0  0  0  0  0  0  0  0  0
  -26.5414  -31.8275   25.4739 C   0  0  0  0  0  0  0  0  0  0  0  0
  -25.4699  -30.4669   27.2819 C   0  0  0  0  0  0  0  0  0  0  0  0
  -24.3037  -32.4794   26.3807 C   0  0  0  0  0  0  0  0  0  0  0  0
  -28.9346  -20.4618   18.4111 C   0  0  0  0  0  0  0  0  0  0  0  0
  -20.8559  -27.1297   23.8578 C   0  0  0  0  0  0  0  0  0  0  0  0
  -27.5735  -23.4043   19.3550 C   0  0  0  0  0  0  0  0  0  0  0  0
  -27.2532  -22.3103   18.3437 C   0  0  0  0  0  0  0  0  0  0  0  0
  -27.2139  -24.7991   18.8566 C   0  0  0  0  0  0  0  0  0  1  0  0
  -24.4563  -30.3947   24.9584 C   0  0  1  0  0  0  0  0  0  0  0  0
  -21.4969  -28.2621   25.9898 C   0  0  2  0  0  0  0  0  0  0  0  0
  -25.1988  -31.2805   25.9984 C   0  0  0  0  0  0  0  0  0  0  0  0
  -25.9008  -11.8591   20.4448 N   0  0  0  0  0  0  0  0  0  0  0  0
  -26.5651  -12.5168   19.4794 N   0  0  0  0  0  0  0  0  0  0  0  0
  -24.7524  -30.5822   22.5087 N   0  0  0  0  0  0  0  0  0  0  0  0
  -28.3267  -15.2109   21.5343 N   0  0  0  0  0  0  0  0  0  0  0  0
  -26.7514  -12.7371   17.1283 N   0  0  0  0  0  0  0  0  0  0  0  0
  -23.5276   -9.6144   17.6300 N   0  0  0  0  0  0  0  0  0  0  0  0
  -26.8398  -17.0415   21.5184 N   0  0  0  0  0  0  0  0  0  0  0  0
  -25.8697  -33.3389   20.5384 N   0  0  0  0  0  0  0  0  0  0  0  0
  -23.1690  -29.8850   25.4182 N   0  0  0  0  0  0  0  0  0  0  0  0
  -27.6519  -21.0177   18.8462 N   0  0  3  0  0  0  0  0  0  0  0  0
  -20.9327  -27.0459   25.3390 N   0  3  0  0  0  0  0  0  0  0  0  0
  -24.7502  -10.7981   16.0929 O   0  0  0  0  0  0  0  0  0  0  0  0
  -27.0165  -31.6145   21.6032 O   0  0  0  0  0  0  0  0  0  0  0  0
  -23.4851  -32.1454   23.6863 O   0  0  0  0  0  0  0  0  0  0  0  0
  -23.6774  -27.6377   25.1574 O   0  0  0  0  0  0  0  0  0  0  0  0
  -29.0885  -17.3427   22.0022 O   0  0  0  0  0  0  0  0  0  0  0  0
  -21.5716   -7.6469   22.4610 O   0  0  0  0  0  0  0  0  0  0  0  0
  -27.5332  -25.7469   19.8745 O   0  0  0  0  0  0  0  0  0  1  0  0
  -21.1313   -2.4633   20.6334 F   0  0  0  0  0  0  0  0  0  0  0  0
  -22.1939   -5.5081   24.0983 F   0  0  0  0  0  0  0  0  0  0  0  0
  -24.4198  -18.1524   22.3051 F   0  0  0  0  0  0  0  0  0  0  0  0
  -28.4169  -18.5265   19.7828 F   0  0  0  0  0  0  0  0  0  0  0  0
  1  2  1  0  0  0  0
  1  5  2  0  0  0  0
  2  6  2  0  0  0  0
  3  8  2  0  0  0  0
  3 16  1  0  0  0  0
  4  9  1  0  0  0  0
  4 16  2  0  0  0  0
  5 18  1  0  0  0  0
  6 20  1  0  0  0  0
  7 10  2  0  0  0  0
  7 19  1  0  0  0  0
  8 25  1  0  0  0  0
  9 25  2  0  0  0  0
 10 26  1  0  0  0  0
 11 12  2  0  0  0  0
 11 27  1  0  0  0  0
 12 28  1  0  0  0  0
 13 21  1  0  0  0  0
 13 26  2  0  0  0  0
 14 22  2  0  0  0  0
 14 23  1  0  0  0  0
 15 28  2  0  0  0  0
 15 29  1  0  0  0  0
 16 32  1  0  0  0  0
 17 32  1  0  0  0  0
 17 33  2  0  0  0  0
 17 34  1  0  0  0  0
 18 20  2  0  0  0  0
 18 39  1  0  0  0  0
 19 21  2  0  0  0  0
 19 40  1  0  0  0  0
 20 48  1  0  0  0  0
 21 41  1  0  0  0  0
 22 30  1  0  0  0  0
 22 51  1  0  0  0  0
 23 31  2  0  0  0  0
 23 73  1  0  0  0  0
 24 30  2  0  0  0  0
 24 31  1  0  0  0  0
 24 70  1  0  0  0  0
 25 80  1  0  0  0  0
 26 81  1  0  0  0  0
 27 29  2  0  0  0  0
 27 80  1  0  0  0  0
 28 82  1  0  0  0  0
 29 83  1  0  0  0  0
 30 84  1  0  0  0  0
 31 85  1  0  0  0  0
 32 64  2  0  0  0  0
 33 65  1  0  0  0  0
 33 68  1  0  0  0  0
 34 69  1  0  0  0  0
 34 75  2  0  0  0  0
 35 49  1  0  0  0  0
 35 71  1  0  0  0  0
 35 76  2  0  0  0  0
 36 61  1  0  0  0  0
 36 66  1  0  0  0  0
 36 77  2  0  0  0  0
 37 62  1  0  0  0  0
 37 72  1  0  0  0  0
 37 78  2  0  0  0  0
 38 67  1  0  0  0  0
 38 70  1  0  0  0  0
 38 79  2  0  0  0  0
 39 42  1  0  0  0  0
 40 49  1  0  0  0  0
 41 66  1  0  0  0  0
 42 44  1  0  0  0  0
 43 45  1  0  0  0  0
 43 46  1  0  0  0  0
 44 48  1  0  0  0  0
 45 50  1  0  0  0  0
 46 67  1  0  0  0  0
 47 50  1  0  0  0  0
 47 67  1  0  0  0  0
 48 71  1  0  0  0  0
 49 66  1  0  0  0  0
 50 65  1  0  0  0  0
 52 62  1  0  0  0  0
 53 63  1  0  0  0  0
 54 63  1  0  0  0  0
 55 63  1  0  0  0  0
 56 73  1  0  0  0  0
 57 74  1  0  0  0  0
 58 59  1  0  0  0  0
 58 60  1  0  0  0  0
 59 73  1  0  0  0  0
 60 81  1  0  0  0  0
 61 63  1  0  0  0  0
 61 72  1  0  0  0  0
 62 74  1  0  0  0  0
 64 65  1  0  0  0  0
M  CHG  1  74   1
M  ISO  4  38 100  60 101  70 100  81 101
M  END
> <Batch ID>
0015

> <Smiles>
CNC(C)C(=O)NC(C(=O)N1Cc2cc([101O:1][101CH2:1]CCN(C)c3cc(C)c(F)c([100NH:0][100C:0](=O)N4CCCC(n5nc(-c6ccc(Oc7ccc(F)cc7F)cc6)c(C(N)=O)c5N)C4)c3F)ccc2CC1C(=O)NC1CCCc2ccccc21)C(C)(C)C

> <Shape>
0.252

> <Color>
0.107

> <Negative vol penalty>
0.000

$$$$

  -OEChem-04052315553D

 85 93  0     1  0  0  0  0  0999 V2000
  -30.0825  -24.2789   18.1762 C   0  0  0  0  0  0  0  0  0  0  0  0
  -28.8927  -24.9571   17.9368 C   0  0  0  0  0  0  0  0  0  0  0  0
  -26.5302  -13.6296   21.0799 C   0  0  0  0  0  0  0  0  0  0  0  0
  -24.6209  -13.9013   19.6247 C   0  0  0  0  0  0  0  0  0  0  0  0
  -30.6296  -24.2698   19.4575 C   0  0  0  0  0  0  0  0  0  0  0  0
  -28.2559  -25.6365   18.9760 C   0  0  0  0  0  0  0  0  0  0  0  0
  -22.9300  -28.5942   19.0973 C   0  0  0  0  0  0  0  0  0  0  0  0
  -25.8989  -12.5560   21.7078 C   0  0  0  0  0  0  0  0  0  0  0  0
  -23.9896  -12.8276   20.2526 C   0  0  0  0  0  0  0  0  0  0  0  0
  -21.5991  -28.3054   19.3955 C   0  0  0  0  0  0  0  0  0  0  0  0
  -25.3434   -9.2800   21.0813 C   0  0  0  0  0  0  0  0  0  0  0  0
  -26.1003   -8.1333   21.3215 C   0  0  0  0  0  0  0  0  0  0  0  0
  -21.9197  -29.1617   21.6277 C   0  0  0  0  0  0  0  0  0  0  0  0
  -21.8743  -23.8267   19.3794 C   0  0  0  0  0  0  0  0  0  0  0  0
  -22.0197  -25.3197   21.7315 C   0  0  0  0  0  0  0  0  0  0  0  0
  -25.6986   -8.3649   23.6926 C   0  0  0  0  0  0  0  0  0  0  0  0
  -25.8912  -14.3023   20.0383 C   0  0  0  0  0  0  0  0  0  0  0  0
  -27.3908  -15.3616   18.2672 C   0  0  0  0  0  0  0  0  0  0  0  0
  -29.9920  -24.9392   20.5150 C   0  0  0  0  0  0  0  0  0  0  0  0
  -23.7702  -29.1598   20.0671 C   0  0  0  0  0  0  0  0  0  0  0  0
  -28.8048  -25.6591   20.2709 C   0  0  0  0  0  0  0  0  0  0  0  0
  -23.2602  -29.4591   21.3386 C   0  0  0  0  0  0  0  0  0  0  0  0
  -23.0978  -24.3482   19.7999 C   0  0  0  0  0  0  0  0  0  0  0  0
  -20.7963  -24.7983   21.3109 C   0  0  0  0  0  0  0  0  0  0  0  0
  -24.6286  -12.1549   21.2942 C   0  0  0  0  0  0  0  0  0  0  0  0
  -21.0945  -28.5864   20.6617 C   0  0  0  0  0  0  0  0  0  0  0  0
  -24.7641   -9.9693   22.1467 C   0  0  0  0  0  0  0  0  0  0  0  0
  -26.2779   -7.6757   22.6272 C   0  0  0  0  0  0  0  0  0  0  0  0
  -23.1705  -25.0946   20.9760 C   0  0  0  0  0  0  0  0  0  0  0  0
  -24.9417   -9.5117   23.4524 C   0  0  0  0  0  0  0  0  0  0  0  0
  -20.7235  -24.0518   20.1349 C   0  0  0  0  0  0  0  0  0  0  0  0
  -26.5426  -15.4118   19.3897 C   0  0  0  0  0  0  0  0  0  0  0  0
  -27.7448  -16.6700   18.0456 C   0  0  0  0  0  0  0  0  0  0  0  0
  -27.8201  -14.2331   17.4940 C   0  0  0  0  0  0  0  0  0  0  0  0
  -26.4424  -28.2483   21.5272 C   0  0  0  0  0  0  0  0  0  0  0  0
  -26.3275  -31.2452   22.7632 C   0  0  0  0  0  0  0  0  0  0  0  0
  -24.4433  -33.9680   23.5898 C   0  0  0  0  0  0  0  0  0  0  0  0
  -25.0304  -21.7518   19.3350 C   0  0  0  0  0  0  0  0  0  0  0  0
  -30.6321  -24.9034   21.8804 C   0  0  0  0  0  0  0  0  0  0  0  0
  -25.1963  -29.4901   19.7213 C   0  0  0  0  0  0  0  0  0  0  0  0
  -24.1153  -30.0851   22.4088 C   0  0  0  0  0  0  0  0  0  0  0  0
  -29.6646  -25.2716   23.0004 C   0  0  0  0  0  0  0  0  0  0  0  0
  -28.3781  -20.8193   20.3456 C   0  0  0  0  0  0  0  0  0  0  0  0
  -28.9334  -26.5598   22.6531 C   0  0  0  0  0  0  0  0  0  0  0  0
  -28.3593  -19.3090   20.1032 C   0  0  0  0  0  0  0  0  0  0  0  0
  -27.0350  -21.3105   20.8776 C   0  0  0  0  0  0  0  0  0  0  0  0
  -25.8470  -19.4537   19.7755 C   0  0  0  0  0  0  0  0  0  0  0  0
  -28.0784  -26.3795   21.3924 C   0  0  1  0  0  0  0  0  0  0  0  0
  -26.1001  -29.5911   20.9462 C   0  0  1  0  0  0  0  0  0  0  0  0
  -27.1693  -18.8987   19.2156 C   0  0  2  0  0  0  0  0  0  0  0  0
  -24.6239  -36.2497   24.6186 C   0  0  0  0  0  0  0  0  0  0  0  0
  -26.5479  -29.9776   25.5299 C   0  0  0  0  0  0  0  0  0  0  0  0
  -25.7776  -32.1491   26.5096 C   0  0  0  0  0  0  0  0  0  0  0  0
  -27.9113  -32.0513   25.2209 C   0  0  0  0  0  0  0  0  0  0  0  0
  -19.6108  -24.5801   23.4806 C   0  0  0  0  0  0  0  0  0  0  0  0
  -23.4859  -35.2851   21.1185 C   0  0  0  0  0  0  0  0  0  0  0  0
  -24.3264  -24.1061   18.9899 C   0  0  0  0  0  0  0  0  0  0  0  0
  -18.2868  -27.0475   22.3342 C   0  0  0  0  0  0  0  0  0  0  0  0
  -18.5196  -25.7542   21.5624 C   0  0  0  0  0  0  0  0  0  0  0  0
  -19.4928  -27.9792   22.3115 C   0  0  0  0  0  0  0  0  0  1  0  0
  -25.7103  -31.8729   23.9896 C   0  0  1  0  0  0  0  0  0  0  0  0
  -24.6437  -35.4493   23.3256 C   0  0  2  0  0  0  0  0  0  0  0  0
  -26.4709  -31.4992   25.2932 C   0  0  0  0  0  0  0  0  0  0  0  0
  -26.3685  -16.6538   19.8492 N   0  0  0  0  0  0  0  0  0  0  0  0
  -27.1122  -17.3961   19.0113 N   0  0  0  0  0  0  0  0  0  0  0  0
  -25.5048  -30.3835   22.0241 N   0  0  0  0  0  0  0  0  0  0  0  0
  -25.9469  -20.9030   19.9775 N   0  0  0  0  0  0  0  0  0  0  0  0
  -28.5326  -17.2588   17.1208 N   0  0  0  0  0  0  0  0  0  0  0  0
  -27.3618  -12.9599   17.8588 N   0  0  0  0  0  0  0  0  0  0  0  0
  -27.5704  -27.6688   20.9782 N   0  0  0  0  0  0  0  0  0  0  0  0
  -25.6454  -33.3063   23.7258 N   0  0  0  0  0  0  0  0  0  0  0  0
  -25.1893  -23.1095   19.5844 N   0  0  0  0  0  0  0  0  0  0  0  0
  -19.6571  -25.0414   22.0917 N   0  0  3  0  0  0  0  0  0  0  0  0
  -23.5661  -35.9672   22.4359 N   0  3  0  0  0  0  0  0  0  0  0  0
  -28.6005  -14.3485   16.5187 O   0  0  0  0  0  0  0  0  0  0  0  0
  -25.7364  -27.7739   22.4093 O   0  0  0  0  0  0  0  0  0  0  0  0
  -27.4943  -31.5153   22.4678 O   0  0  0  0  0  0  0  0  0  0  0  0
  -23.3316  -33.4503   23.6714 O   0  0  0  0  0  0  0  0  0  0  0  0
  -24.1392  -21.3313   18.5894 O   0  0  0  0  0  0  0  0  0  0  0  0
  -24.0123  -11.1072   21.9065 O   0  0  0  0  0  0  0  0  0  0  0  0
  -19.7959  -28.3049   20.9556 O   0  0  0  0  0  0  0  0  0  1  0  0
  -27.0034   -6.5736   22.8576 F   0  0  0  0  0  0  0  0  0  0  0  0
  -24.3416  -25.6001   21.3879 F   0  0  0  0  0  0  0  0  0  0  0  0
  -24.3867  -10.1690   24.4799 F   0  0  0  0  0  0  0  0  0  0  0  0
  -19.2286  -23.3882   19.5787 Cl  0  0  0  0  0  0  0  0  0  0  0  0
  1  2  1  0  0  0  0
  1  5  2  0  0  0  0
  2  6  2  0  0  0  0
  3  8  2  0  0  0  0
  3 17  1  0  0  0  0
  4  9  1  0  0  0  0
  4 17  2  0  0  0  0
  5 19  1  0  0  0  0
  6 21  1  0  0  0  0
  7 10  2  0  0  0  0
  7 20  1  0  0  0  0
  8 25  1  0  0  0  0
  9 25  2  0  0  0  0
 10 26  1  0  0  0  0
 11 12  2  0  0  0  0
 11 27  1  0  0  0  0
 12 28  1  0  0  0  0
 13 22  1  0  0  0  0
 13 26  2  0  0  0  0
 14 23  2  0  0  0  0
 14 31  1  0  0  0  0
 15 24  1  0  0  0  0
 15 29  2  0  0  0  0
 16 28  2  0  0  0  0
 16 30  1  0  0  0  0
 17 32  1  0  0  0  0
 18 32  1  0  0  0  0
 18 33  2  0  0  0  0
 18 34  1  0  0  0  0
 19 21  2  0  0  0  0
 19 39  1  0  0  0  0
 20 22  2  0  0  0  0
 20 40  1  0  0  0  0
 21 48  1  0  0  0  0
 22 41  1  0  0  0  0
 23 29  1  0  0  0  0
 23 57  1  0  0  0  0
 24 31  2  0  0  0  0
 24 73  1  0  0  0  0
 25 80  1  0  0  0  0
 26 81  1  0  0  0  0
 27 30  2  0  0  0  0
 27 80  1  0  0  0  0
 28 82  1  0  0  0  0
 29 83  1  0  0  0  0
 30 84  1  0  0  0  0
 31 85  1  0  0  0  0
 32 64  2  0  0  0  0
 33 65  1  0  0  0  0
 33 68  1  0  0  0  0
 34 69  1  0  0  0  0
 34 75  2  0  0  0  0
 35 49  1  0  0  0  0
 35 70  1  0  0  0  0
 35 76  2  0  0  0  0
 36 61  1  0  0  0  0
 36 66  1  0  0  0  0
 36 77  2  0  0  0  0
 37 62  1  0  0  0  0
 37 71  1  0  0  0  0
 37 78  2  0  0  0  0
 38 67  1  0  0  0  0
 38 72  1  0  0  0  0
 38 79  2  0  0  0  0
 39 42  1  0  0  0  0
 40 49  1  0  0  0  0
 41 66  1  0  0  0  0
 42 44  1  0  0  0  0
 43 45  1  0  0  0  0
 43 46  1  0  0  0  0
 44 48  1  0  0  0  0
 45 50  1  0  0  0  0
 46 67  1  0  0  0  0
 47 50  1  0  0  0  0
 47 67  1  0  0  0  0
 48 70  1  0  0  0  0
 49 66  1  0  0  0  0
 50 65  1  0  0  0  0
 51 62  1  0  0  0  0
 52 63  1  0  0  0  0
 53 63  1  0  0  0  0
 54 63  1  0  0  0  0
 55 73  1  0  0  0  0
 56 74  1  0  0  0  0
 57 72  1  0  0  0  0
 58 59  1  0  0  0  0
 58 60  1  0  0  0  0
 59 73  1  0  0  0  0
 60 81  1  0  0  0  0
 61 63  1  0  0  0  0
 61 71  1  0  0  0  0
 62 74  1  0  0  0  0
 64 65  1  0  0  0  0
M  CHG  1  74   1
M  ISO  4  38 100  60 101  72 100  81 101
M  END
> <Batch ID>
0015

> <Smiles>
CNC(C)C(=O)NC(C(=O)N1Cc2cc([101O:1][101CH2:1]CCN(C)c3cc(F)c(C[100NH:0][100C:0](=O)N4CCCC(n5nc(-c6ccc(Oc7ccc(F)cc7F)cc6)c(C(N)=O)c5N)C4)cc3Cl)ccc2CC1C(=O)NC1CCCc2ccccc21)C(C)(C)C

> <Shape>
0.286

> <Color>
0.064

> <Negative vol penalty>
0.000

$$$$

  -OEChem-04052315553D

 90 98  0     1  0  0  0  0  0999 V2000
  -36.7683  -28.2860   19.0874 C   0  0  0  0  0  0  0  0  0  0  0  0
  -35.5716  -27.5911   19.2303 C   0  0  0  0  0  0  0  0  0  0  0  0
  -23.0001   -9.8935   19.9805 C   0  0  0  0  0  0  0  0  0  0  0  0
  -23.7244   -9.9445   22.2847 C   0  0  0  0  0  0  0  0  0  0  0  0
  -37.7554  -28.1808   20.0664 C   0  0  0  0  0  0  0  0  0  0  0  0
  -35.3618  -26.7896   20.3519 C   0  0  0  0  0  0  0  0  0  0  0  0
  -30.1436  -24.5640   24.7261 C   0  0  0  0  0  0  0  0  0  0  0  0
  -22.2336   -8.7589   20.2465 C   0  0  0  0  0  0  0  0  0  0  0  0
  -22.9579   -8.8099   22.5508 C   0  0  0  0  0  0  0  0  0  0  0  0
  -29.6070  -23.3898   25.2524 C   0  0  0  0  0  0  0  0  0  0  0  0
  -21.4763   -5.7167   23.7536 C   0  0  0  0  0  0  0  0  0  0  0  0
  -22.0622   -4.7010   24.5090 C   0  0  0  0  0  0  0  0  0  0  0  0
  -31.3515  -23.3463   26.9180 C   0  0  0  0  0  0  0  0  0  0  0  0
  -31.6156  -19.3368   22.7723 C   0  0  0  0  0  0  0  0  0  0  0  0
  -23.7891   -4.4540   22.8376 C   0  0  0  0  0  0  0  0  0  0  0  0
  -23.7456  -10.4863   20.9996 C   0  0  0  0  0  0  0  0  0  0  0  0
  -24.1307  -13.0019   20.8237 C   0  0  0  0  0  0  0  0  0  0  0  0
  -37.5537  -27.3852   21.2053 C   0  0  0  0  0  0  0  0  0  0  0  0
  -31.2964  -25.1333   25.2859 C   0  0  0  0  0  0  0  0  0  0  0  0
  -36.3477  -26.6726   21.3464 C   0  0  0  0  0  0  0  0  0  0  0  0
  -31.8992  -24.5292   26.3985 C   0  0  0  0  0  0  0  0  0  0  0  0
  -31.2144  -18.3832   23.7078 C   0  0  0  0  0  0  0  0  0  0  0  0
  -30.7031  -17.1581   23.2796 C   0  0  0  0  0  0  0  0  0  0  0  0
  -30.9940  -17.8403   20.9803 C   0  0  0  0  0  0  0  0  0  0  0  0
  -31.5053  -19.0654   21.4085 C   0  0  0  0  0  0  0  0  0  0  0  0
  -30.5929  -16.8866   21.9158 C   0  0  0  0  0  0  0  0  0  0  0  0
  -22.2124   -8.2171   21.5317 C   0  0  0  0  0  0  0  0  0  0  0  0
  -30.2126  -22.7792   26.3467 C   0  0  0  0  0  0  0  0  0  0  0  0
  -22.0468   -6.1011   22.5401 C   0  0  0  0  0  0  0  0  0  0  0  0
  -23.2186   -4.0696   24.0510 C   0  0  0  0  0  0  0  0  0  0  0  0
  -23.2032   -5.4697   22.0821 C   0  0  0  0  0  0  0  0  0  0  0  0
  -24.5380  -11.6580   20.7252 C   0  0  0  0  0  0  0  0  0  0  0  0
  -25.2405  -13.7246   20.4597 C   0  0  0  0  0  0  0  0  0  0  0  0
  -22.8625  -13.5482   21.2098 C   0  0  0  0  0  0  0  0  0  0  0  0
  -34.2302  -25.7542   24.2319 C   0  0  0  0  0  0  0  0  0  0  0  0
  -34.5410  -27.1994   27.1193 C   0  0  0  0  0  0  0  0  0  0  0  0
  -33.5012  -27.4513   30.3600 C   0  0  0  0  0  0  0  0  0  0  0  0
  -30.7197  -14.6863   20.6957 C   0  0  0  0  0  0  0  0  0  0  0  0
  -38.6688  -27.2652   22.2137 C   0  0  0  0  0  0  0  0  0  0  0  0
  -31.8473  -26.4147   24.7232 C   0  0  0  0  0  0  0  0  0  0  0  0
  -33.1267  -25.1113   27.0489 C   0  0  0  0  0  0  0  0  0  0  0  0
  -38.2183  -26.6909   23.5544 C   0  0  0  0  0  0  0  0  0  0  0  0
  -29.6026  -12.2333   18.3693 C   0  0  0  0  0  0  0  0  0  0  0  0
  -37.3448  -25.4587   23.3410 C   0  0  0  0  0  0  0  0  0  0  0  0
  -28.1518  -11.9755   18.7829 C   0  0  0  0  0  0  0  0  0  0  0  0
  -30.5026  -12.4768   19.5794 C   0  0  0  0  0  0  0  0  0  0  0  0
  -28.5867  -13.2655   20.9123 C   0  0  0  0  0  0  0  0  0  0  0  0
  -36.0729  -25.8126   22.5610 C   0  0  1  0  0  0  0  0  0  0  0  0
  -33.3220  -26.6264   25.0517 C   0  0  1  0  0  0  0  0  0  0  0  0
  -27.6295  -13.0790   19.7237 C   0  0  2  0  0  0  0  0  0  0  0  0
  -30.2716  -16.1409   24.2897 C   0  0  0  0  0  0  0  0  0  0  0  0
  -30.8788  -17.5512   19.5153 C   0  0  0  0  0  0  0  0  0  0  0  0
  -33.9700  -28.6957   32.4881 C   0  0  0  0  0  0  0  0  0  0  0  0
  -28.7688  -19.0359   27.8927 C   0  0  0  0  0  0  0  0  0  0  0  0
  -32.2700  -23.8348   20.0482 C   0  0  0  0  0  0  0  0  0  0  0  0
  -33.2643  -21.9983   18.6548 C   0  0  0  0  0  0  0  0  0  0  0  0
  -30.7825  -22.2419   18.8204 C   0  0  0  0  0  0  0  0  0  0  0  0
  -37.0328  -25.4954   27.5638 C   0  0  0  0  0  0  0  0  0  0  0  0
  -36.8996  -26.0603   29.9993 C   0  0  0  0  0  0  0  0  0  0  0  0
  -37.2449  -27.8704   28.3180 C   0  0  0  0  0  0  0  0  0  0  0  0
  -30.7725  -28.5952   30.4285 C   0  0  0  0  0  0  0  0  0  0  0  0
  -31.3426  -18.7010   25.1685 C   0  0  0  0  0  0  0  0  0  0  0  0
  -32.0524  -21.4261   20.8139 C   0  0  0  0  0  0  0  0  0  0  0  0
  -30.6037  -20.7220   27.4740 C   0  0  0  0  0  0  0  0  0  1  0  0
  -34.9816  -26.7577   28.4940 C   0  0  1  0  0  0  0  0  0  0  0  0
  -33.1433  -28.6554   31.2123 C   0  0  2  0  0  0  0  0  0  0  0  0
  -30.1358  -19.2846   27.2760 C   0  0  2  0  0  0  0  0  0  0  0  0
  -32.1067  -22.3742   19.5953 C   0  0  0  0  0  0  0  0  0  0  0  0
  -36.5177  -26.5337   28.5805 C   0  0  0  0  0  0  0  0  0  0  0  0
  -25.8074  -11.5316   20.3295 N   0  0  0  0  0  0  0  0  0  0  0  0
  -26.2073  -12.8054   20.1761 N   0  0  0  0  0  0  0  0  0  0  0  0
  -33.6313  -26.3619   26.4583 N   0  0  0  0  0  0  0  0  0  0  0  0
  -29.9472  -13.5377   20.4225 N   0  0  0  0  0  0  0  0  0  0  0  0
  -25.4738  -15.0503   20.3578 N   0  0  0  0  0  0  0  0  0  0  0  0
  -21.8307  -12.6639   21.5530 N   0  0  0  0  0  0  0  0  0  0  0  0
  -30.0751  -15.6414   21.4810 N   0  0  0  0  0  0  0  0  0  0  0  0
  -31.9185  -20.0438   20.4771 N   0  0  0  0  0  0  0  0  0  0  0  0
  -35.1098  -26.4553   23.4293 N   0  0  0  0  0  0  0  0  0  0  0  0
  -34.4697  -27.7557   29.4269 N   0  0  0  0  0  0  0  0  0  0  0  0
  -31.7017  -28.6143   31.5875 N   0  3  0  0  0  0  0  0  0  0  0  0
  -30.0416  -19.0149   25.8120 N   0  3  0  0  0  0  0  0  0  0  0  0
  -22.6456  -14.7835   21.2335 O   0  0  0  0  0  0  0  0  0  0  0  0
  -34.1405  -24.5353   24.3220 O   0  0  0  0  0  0  0  0  0  0  0  0
  -34.9822  -28.2524   26.6521 O   0  0  0  0  0  0  0  0  0  0  0  0
  -32.9769  -26.3498   30.5096 O   0  0  0  0  0  0  0  0  0  0  0  0
  -31.8586  -14.8253   20.2421 O   0  0  0  0  0  0  0  0  0  0  0  0
  -21.4644   -7.1102   21.7917 O   0  0  0  0  0  0  0  0  0  0  0  0
  -29.6913  -21.6326   26.8620 O   0  0  0  0  0  0  0  0  0  1  0  0
  -23.7820   -3.0953   24.7773 F   0  0  0  0  0  0  0  0  0  0  0  0
  -23.7565   -5.8355   20.9177 F   0  0  0  0  0  0  0  0  0  0  0  0
  1  2  1  0  0  0  0
  1  5  2  0  0  0  0
  2  6  2  0  0  0  0
  3  8  2  0  0  0  0
  3 16  1  0  0  0  0
  4  9  1  0  0  0  0
  4 16  2  0  0  0  0
  5 18  1  0  0  0  0
  6 20  1  0  0  0  0
  7 10  2  0  0  0  0
  7 19  1  0  0  0  0
  8 27  1  0  0  0  0
  9 27  2  0  0  0  0
 10 28  1  0  0  0  0
 11 12  2  0  0  0  0
 11 29  1  0  0  0  0
 12 30  1  0  0  0  0
 13 21  1  0  0  0  0
 13 28  2  0  0  0  0
 14 22  1  0  0  0  0
 14 25  2  0  0  0  0
 15 30  2  0  0  0  0
 15 31  1  0  0  0  0
 16 32  1  0  0  0  0
 17 32  1  0  0  0  0
 17 33  2  0  0  0  0
 17 34  1  0  0  0  0
 18 20  2  0  0  0  0
 18 39  1  0  0  0  0
 19 21  2  0  0  0  0
 19 40  1  0  0  0  0
 20 48  1  0  0  0  0
 21 41  1  0  0  0  0
 22 23  2  0  0  0  0
 22 62  1  0  0  0  0
 23 26  1  0  0  0  0
 23 51  1  0  0  0  0
 24 25  1  0  0  0  0
 24 26  2  0  0  0  0
 24 52  1  0  0  0  0
 25 77  1  0  0  0  0
 26 76  1  0  0  0  0
 27 87  1  0  0  0  0
 28 88  1  0  0  0  0
 29 31  2  0  0  0  0
 29 87  1  0  0  0  0
 30 89  1  0  0  0  0
 31 90  1  0  0  0  0
 32 70  2  0  0  0  0
 33 71  1  0  0  0  0
 33 74  1  0  0  0  0
 34 75  1  0  0  0  0
 34 82  2  0  0  0  0
 35 49  1  0  0  0  0
 35 78  1  0  0  0  0
 35 83  2  0  0  0  0
 36 65  1  0  0  0  0
 36 72  1  0  0  0  0
 36 84  2  0  0  0  0
 37 66  1  0  0  0  0
 37 79  1  0  0  0  0
 37 85  2  0  0  0  0
 38 73  1  0  0  0  0
 38 76  1  0  0  0  0
 38 86  2  0  0  0  0
 39 42  1  0  0  0  0
 40 49  1  0  0  0  0
 41 72  1  0  0  0  0
 42 44  1  0  0  0  0
 43 45  1  0  0  0  0
 43 46  1  0  0  0  0
 44 48  1  0  0  0  0
 45 50  1  0  0  0  0
 46 73  1  0  0  0  0
 47 50  1  0  0  0  0
 47 73  1  0  0  0  0
 48 78  1  0  0  0  0
 49 72  1  0  0  0  0
 50 71  1  0  0  0  0
 53 66  1  0  0  0  0
 54 67  1  0  0  0  0
 55 68  1  0  0  0  0
 56 68  1  0  0  0  0
 57 68  1  0  0  0  0
 58 69  1  0  0  0  0
 59 69  1  0  0  0  0
 60 69  1  0  0  0  0
 61 80  1  0  0  0  0
 62 81  1  0  0  0  0
 63 68  1  0  0  0  0
 63 77  1  0  0  0  0
 64 67  1  0  0  0  0
 64 88  1  0  0  0  0
 65 69  1  0  0  0  0
 65 79  1  0  0  0  0
 66 80  1  0  0  0  0
 67 81  1  0  0  0  0
 70 71  1  0  0  0  0
M  CHG  2  80   1  81   1
M  ISO  4  38 100  64 101  76 100  88 101
M  END
> <Batch ID>
0015

> <Smiles>
CNC(C)C(=O)NC(C(=O)N1Cc2cc([101O:1][101CH2:1]C(C)NCc3cc(NCC(C)(C)C)c(C)c([100NH:0][100C:0](=O)N4CCCC(n5nc(-c6ccc(Oc7ccc(F)cc7F)cc6)c(C(N)=O)c5N)C4)c3C)ccc2CC1C(=O)NC1CCCc2ccccc21)C(C)(C)C

> <Shape>
0.182

> <Color>
0.190

> <Negative vol penalty>
0.000

$$$$

  -OEChem-04052315553D

 89 97  0     1  0  0  0  0  0999 V2000
  -25.7950  -34.6579   26.1301 C   0  0  0  0  0  0  0  0  0  0  0  0
  -26.4248  -33.4901   25.7120 C   0  0  0  0  0  0  0  0  0  0  0  0
  -24.4038   -9.7236   21.4076 C   0  0  0  0  0  0  0  0  0  0  0  0
  -24.8562  -10.7658   23.5398 C   0  0  0  0  0  0  0  0  0  0  0  0
  -24.4030  -34.7363   26.1299 C   0  0  0  0  0  0  0  0  0  0  0  0
  -25.6629  -32.3994   25.2944 C   0  0  0  0  0  0  0  0  0  0  0  0
  -27.4461  -30.2960   21.0470 C   0  0  0  0  0  0  0  0  0  0  0  0
  -24.0634   -8.5382   22.0592 C   0  0  0  0  0  0  0  0  0  0  0  0
  -24.5158   -9.5804   24.1914 C   0  0  0  0  0  0  0  0  0  0  0  0
  -28.5583  -29.4639   21.1669 C   0  0  0  0  0  0  0  0  0  0  0  0
  -22.7287   -5.3483   23.1808 C   0  0  0  0  0  0  0  0  0  0  0  0
  -21.5769   -4.6841   22.7591 C   0  0  0  0  0  0  0  0  0  0  0  0
  -27.1154  -27.5327   21.0782 C   0  0  0  0  0  0  0  0  0  0  0  0
  -30.2892  -19.6290   21.3322 C   0  0  0  0  0  0  0  0  0  0  0  0
  -29.3589  -21.6539   22.2654 C   0  0  0  0  0  0  0  0  0  0  0  0
  -20.2529   -6.6270   23.3153 C   0  0  0  0  0  0  0  0  0  0  0  0
  -24.8002  -10.8374   22.1479 C   0  0  0  0  0  0  0  0  0  0  0  0
  -24.2927  -13.1246   21.1386 C   0  0  0  0  0  0  0  0  0  0  0  0
  -23.6238  -33.6495   25.7029 C   0  0  0  0  0  0  0  0  0  0  0  0
  -26.1571  -29.7521   20.9526 C   0  0  0  0  0  0  0  0  0  0  0  0
  -24.2591  -32.4629   25.2897 C   0  0  0  0  0  0  0  0  0  0  0  0
  -25.9888  -28.3600   20.9546 C   0  0  0  0  0  0  0  0  0  0  0  0
  -30.4652  -20.9099   21.8556 C   0  0  0  0  0  0  0  0  0  0  0  0
  -27.9004  -19.8362   21.6284 C   0  0  0  0  0  0  0  0  0  0  0  0
  -29.0068  -19.0922   21.2186 C   0  0  0  0  0  0  0  0  0  0  0  0
  -24.1194   -8.4666   23.4511 C   0  0  0  0  0  0  0  0  0  0  0  0
  -28.3928  -28.0821   21.1855 C   0  0  0  0  0  0  0  0  0  0  0  0
  -22.6426   -6.6518   23.6698 C   0  0  0  0  0  0  0  0  0  0  0  0
  -28.0764  -21.1171   22.1518 C   0  0  0  0  0  0  0  0  0  0  0  0
  -20.3390   -5.3234   22.8263 C   0  0  0  0  0  0  0  0  0  0  0  0
  -21.4047   -7.2912   23.7370 C   0  0  0  0  0  0  0  0  0  0  0  0
  -25.1525  -12.0620   21.4753 C   0  0  0  0  0  0  0  0  0  0  0  0
  -25.1062  -14.0414   20.5188 C   0  0  0  0  0  0  0  0  0  0  0  0
  -22.8845  -13.2700   21.3658 C   0  0  0  0  0  0  0  0  0  0  0  0
  -23.5189  -29.9150   22.7181 C   0  0  0  0  0  0  0  0  0  0  0  0
  -22.2313  -28.2518   20.2486 C   0  0  0  0  0  0  0  0  0  0  0  0
  -22.7201  -26.1584   17.5981 C   0  0  0  0  0  0  0  0  0  0  0  0
  -29.8561  -16.9332   20.2369 C   0  0  0  0  0  0  0  0  0  0  0  0
  -22.1212  -33.7647   25.7651 C   0  0  0  0  0  0  0  0  0  0  0  0
  -24.9701  -30.6626   20.7969 C   0  0  0  0  0  0  0  0  0  0  0  0
  -24.6279  -27.7256   20.8359 C   0  0  0  0  0  0  0  0  0  0  0  0
  -21.3943  -32.6961   24.9527 C   0  0  0  0  0  0  0  0  0  0  0  0
  -29.8817  -13.6373   18.8900 C   0  0  0  0  0  0  0  0  0  0  0  0
  -21.9931  -31.3197   25.2243 C   0  0  0  0  0  0  0  0  0  0  0  0
  -28.5829  -13.0211   19.4149 C   0  0  0  0  0  0  0  0  0  0  0  0
  -30.5278  -14.5617   19.9205 C   0  0  0  0  0  0  0  0  0  0  0  0
  -28.3465  -14.9889   20.9830 C   0  0  0  0  0  0  0  0  0  0  0  0
  -23.4675  -31.2672   24.8061 C   0  0  1  0  0  0  0  0  0  0  0  0
  -23.6581  -30.0126   21.2252 C   0  0  1  0  0  0  0  0  0  0  0  0
  -27.6253  -14.1008   19.9560 C   0  0  2  0  0  0  0  0  0  0  0  0
  -26.5205  -19.2699   21.5106 C   0  0  0  0  0  0  0  0  0  0  0  0
  -21.4723  -24.9426   15.7919 C   0  0  0  0  0  0  0  0  0  0  0  0
  -34.3382  -22.6270   21.9788 C   0  0  0  0  0  0  0  0  0  0  0  0
  -21.2801  -26.1960   22.2928 C   0  0  0  0  0  0  0  0  0  0  0  0
  -20.9060  -24.5948   20.4049 C   0  0  0  0  0  0  0  0  0  0  0  0
  -19.6199  -26.7301   20.5003 C   0  0  0  0  0  0  0  0  0  0  0  0
  -24.1724  -27.6029   15.4619 C   0  0  0  0  0  0  0  0  0  0  0  0
  -32.4011  -21.9100   19.5870 C   0  0  0  0  0  0  0  0  0  0  0  0
  -27.2815  -23.1576   23.0793 C   0  0  0  0  0  0  0  0  0  0  0  0
  -31.8443  -21.4881   21.9771 C   0  0  0  0  0  0  0  0  0  0  0  0
  -31.9222  -25.6460   21.6504 C   0  0  0  0  0  0  0  0  0  0  0  0
  -31.3815  -26.6429   22.6810 C   0  0  0  0  0  0  0  0  0  0  0  0
  -32.6806  -24.5020   22.3331 C   0  0  0  0  0  0  0  0  0  0  0  0
  -30.5948  -27.7753   22.0298 C   0  0  0  0  0  0  0  0  0  1  0  0
  -22.0776  -26.7888   19.9098 C   0  0  1  0  0  0  0  0  0  0  0  0
  -22.2201  -26.2130   16.1658 C   0  0  2  0  0  0  0  0  0  0  0  0
  -33.2288  -23.4608   21.3510 C   0  0  2  0  0  0  0  0  0  0  0  0
  -20.9965  -26.0891   20.7812 C   0  0  0  0  0  0  0  0  0  0  0  0
  -26.4154  -12.2820   21.1004 N   0  0  0  0  0  0  0  0  0  0  0  0
  -26.3551  -13.4934   20.5215 N   0  0  0  0  0  0  0  0  0  0  0  0
  -23.4979  -28.6582   20.6920 N   0  0  0  0  0  0  0  0  0  0  0  0
  -29.5629  -15.5609   20.3847 N   0  0  0  0  0  0  0  0  0  0  0  0
  -24.8679  -15.2547   19.9771 N   0  0  0  0  0  0  0  0  0  0  0  0
  -22.2022  -12.2331   22.0166 N   0  0  0  0  0  0  0  0  0  0  0  0
  -28.8503  -17.7891   20.6845 N   0  0  0  0  0  0  0  0  0  0  0  0
  -23.5809  -31.1320   23.3697 N   0  0  0  0  0  0  0  0  0  0  0  0
  -21.8206  -26.7268   18.4751 N   0  0  0  0  0  0  0  0  0  0  0  0
  -23.3631  -26.3800   15.2242 N   0  3  0  0  0  0  0  0  0  0  0  0
  -32.1401  -22.5340   20.9335 N   0  3  1  0  0  0  0  0  0  0  0  0
  -22.2470  -14.2821   20.9878 O   0  0  0  0  0  0  0  0  0  0  0  0
  -23.3650  -28.8170   23.2401 O   0  0  0  0  0  0  0  0  0  0  0  0
  -21.2653  -29.0077   20.1176 O   0  0  0  0  0  0  0  0  0  0  0  0
  -23.7989  -25.6579   17.9084 O   0  0  0  0  0  0  0  0  0  0  0  0
  -30.9093  -17.3202   19.7242 O   0  0  0  0  0  0  0  0  0  0  0  0
  -23.7871   -7.3102   24.0873 O   0  0  0  0  0  0  0  0  0  0  0  0
  -27.0078  -21.8591   22.5570 O   0  0  0  0  0  0  0  0  0  0  0  0
  -29.4766  -27.2676   21.3030 O   0  0  0  0  0  0  0  0  0  1  0  0
  -19.2332   -4.6860   22.4199 F   0  0  0  0  0  0  0  0  0  0  0  0
  -21.3159   -8.5438   24.2048 F   0  0  0  0  0  0  0  0  0  0  0  0
  1  2  1  0  0  0  0
  1  5  2  0  0  0  0
  2  6  2  0  0  0  0
  3  8  2  0  0  0  0
  3 17  1  0  0  0  0
  4  9  1  0  0  0  0
  4 17  2  0  0  0  0
  5 19  1  0  0  0  0
  6 21  1  0  0  0  0
  7 10  2  0  0  0  0
  7 20  1  0  0  0  0
  8 26  1  0  0  0  0
  9 26  2  0  0  0  0
 10 27  1  0  0  0  0
 11 12  2  0  0  0  0
 11 28  1  0  0  0  0
 12 30  1  0  0  0  0
 13 22  1  0  0  0  0
 13 27  2  0  0  0  0
 14 23  1  0  0  0  0
 14 25  2  0  0  0  0
 15 23  2  0  0  0  0
 15 29  1  0  0  0  0
 16 30  2  0  0  0  0
 16 31  1  0  0  0  0
 17 32  1  0  0  0  0
 18 32  1  0  0  0  0
 18 33  2  0  0  0  0
 18 34  1  0  0  0  0
 19 21  2  0  0  0  0
 19 39  1  0  0  0  0
 20 22  2  0  0  0  0
 20 40  1  0  0  0  0
 21 48  1  0  0  0  0
 22 41  1  0  0  0  0
 23 60  1  0  0  0  0
 24 25  1  0  0  0  0
 24 29  2  0  0  0  0
 24 51  1  0  0  0  0
 25 75  1  0  0  0  0
 26 85  1  0  0  0  0
 27 87  1  0  0  0  0
 28 31  2  0  0  0  0
 28 85  1  0  0  0  0
 29 86  1  0  0  0  0
 30 88  1  0  0  0  0
 31 89  1  0  0  0  0
 32 69  2  0  0  0  0
 33 70  1  0  0  0  0
 33 73  1  0  0  0  0
 34 74  1  0  0  0  0
 34 80  2  0  0  0  0
 35 49  1  0  0  0  0
 35 76  1  0  0  0  0
 35 81  2  0  0  0  0
 36 65  1  0  0  0  0
 36 71  1  0  0  0  0
 36 82  2  0  0  0  0
 37 66  1  0  0  0  0
 37 77  1  0  0  0  0
 37 83  2  0  0  0  0
 38 72  1  0  0  0  0
 38 75  1  0  0  0  0
 38 84  2  0  0  0  0
 39 42  1  0  0  0  0
 40 49  1  0  0  0  0
 41 71  1  0  0  0  0
 42 44  1  0  0  0  0
 43 45  1  0  0  0  0
 43 46  1  0  0  0  0
 44 48  1  0  0  0  0
 45 50  1  0  0  0  0
 46 72  1  0  0  0  0
 47 50  1  0  0  0  0
 47 72  1  0  0  0  0
 48 76  1  0  0  0  0
 49 71  1  0  0  0  0
 50 70  1  0  0  0  0
 52 66  1  0  0  0  0
 53 67  1  0  0  0  0
 54 68  1  0  0  0  0
 55 68  1  0  0  0  0
 56 68  1  0  0  0  0
 57 78  1  0  0  0  0
 58 79  1  0  0  0  0
 59 86  1  0  0  0  0
 60 79  1  0  0  0  0
 61 62  1  0  0  0  0
 61 63  1  0  0  0  0
 62 64  1  0  0  0  0
 63 67  1  0  0  0  0
 64 87  1  0  0  0  0
 65 68  1  0  0  0  0
 65 77  1  0  0  0  0
 66 78  1  0  0  0  0
 67 79  1  0  0  0  0
 69 70  1  0  0  0  0
M  CHG  2  78   1  79   1
M  ISO  4  38 100  64 101  75 100  87 101
M  END
> <Batch ID>
0015

> <Smiles>
CNC(C)C(=O)NC(C(=O)N1Cc2cc([101O:1][101CH2:1]CCCC(C)N(C)Cc3cc([100NH:0][100C:0](=O)N4CCCC(n5nc(-c6ccc(Oc7ccc(F)cc7F)cc6)c(C(N)=O)c5N)C4)c(C)c(OC)c3)ccc2CC1C(=O)NC1CCCc2ccccc21)C(C)(C)C

> <Shape>
0.286

> <Color>
0.132

> <Negative vol penalty>
0.000

$$$$

  -OEChem-04052315553D

 80 87  0     1  0  0  0  0  0999 V2000
  -18.8200  -32.9196   19.8649 C   0  0  0  0  0  0  0  0  0  0  0  0
  -20.0823  -32.4613   19.5016 C   0  0  0  0  0  0  0  0  0  0  0  0
  -25.7196  -13.4531   21.4283 C   0  0  0  0  0  0  0  0  0  0  0  0
  -25.4313  -13.9235   19.0762 C   0  0  0  0  0  0  0  0  0  0  0  0
  -18.3544  -32.7201   21.1639 C   0  0  0  0  0  0  0  0  0  0  0  0
  -20.8803  -31.8042   20.4376 C   0  0  0  0  0  0  0  0  0  0  0  0
  -24.7797  -27.2044   19.3685 C   0  0  0  0  0  0  0  0  0  0  0  0
  -24.6885  -12.5157   21.3673 C   0  0  0  0  0  0  0  0  0  0  0  0
  -24.4002  -12.9861   19.0151 C   0  0  0  0  0  0  0  0  0  0  0  0
  -26.1618  -27.1690   19.1889 C   0  0  0  0  0  0  0  0  0  0  0  0
  -24.2798   -9.3270   20.3195 C   0  0  0  0  0  0  0  0  0  0  0  0
  -24.4845   -8.0966   20.9438 C   0  0  0  0  0  0  0  0  0  0  0  0
  -26.4451  -26.6257   21.5221 C   0  0  0  0  0  0  0  0  0  0  0  0
  -22.5799   -8.5049   22.3731 C   0  0  0  0  0  0  0  0  0  0  0  0
  -26.0910  -14.1571   20.2827 C   0  0  0  0  0  0  0  0  0  0  0  0
  -28.5278  -14.8961   20.1309 C   0  0  0  0  0  0  0  0  0  0  0  0
  -19.1431  -32.0516   22.1135 C   0  0  0  0  0  0  0  0  0  0  0  0
  -24.2195  -26.9611   20.6309 C   0  0  0  0  0  0  0  0  0  0  0  0
  -20.4253  -31.5967   21.7508 C   0  0  0  0  0  0  0  0  0  0  0  0
  -25.0554  -26.6561   21.7146 C   0  0  0  0  0  0  0  0  0  0  0  0
  -24.0288  -12.2822   20.1607 C   0  0  0  0  0  0  0  0  0  0  0  0
  -26.9949  -26.8825   20.2664 C   0  0  0  0  0  0  0  0  0  0  0  0
  -23.2252  -10.1465   20.7220 C   0  0  0  0  0  0  0  0  0  0  0  0
  -23.6346   -7.6855   21.9706 C   0  0  0  0  0  0  0  0  0  0  0  0
  -22.3752   -9.7354   21.7488 C   0  0  0  0  0  0  0  0  0  0  0  0
  -27.1556  -15.1259   20.3453 C   0  0  0  0  0  0  0  0  0  0  0  0
  -29.1132  -16.1264   20.3043 C   0  0  0  0  0  0  0  0  0  0  0  0
  -29.2122  -13.6793   19.8041 C   0  0  0  0  0  0  0  0  0  0  0  0
  -22.4597  -28.6516   22.6677 C   0  0  0  0  0  0  0  0  0  0  0  0
  -22.3504  -25.8475   24.2947 C   0  0  0  0  0  0  0  0  0  0  0  0
  -23.7813  -22.8187   24.9470 C   0  0  0  0  0  0  0  0  0  0  0  0
  -26.5337  -21.6663   19.8638 C   0  0  0  0  0  0  0  0  0  0  0  0
  -18.6161  -31.9013   23.5186 C   0  0  0  0  0  0  0  0  0  0  0  0
  -22.7253  -26.9767   20.8022 C   0  0  0  0  0  0  0  0  0  0  0  0
  -24.5028  -26.3675   23.0856 C   0  0  0  0  0  0  0  0  0  0  0  0
  -19.3727  -30.8648   24.3453 C   0  0  0  0  0  0  0  0  0  0  0  0
  -28.5477  -20.2606   22.6332 C   0  0  0  0  0  0  0  0  0  0  0  0
  -20.8783  -31.0531   24.1891 C   0  0  0  0  0  0  0  0  0  0  0  0
  -28.4691  -18.7573   22.3725 C   0  0  0  0  0  0  0  0  0  0  0  0
  -27.3179  -20.9929   22.1051 C   0  0  0  0  0  0  0  0  0  0  0  0
  -26.9570  -19.2332   20.4058 C   0  0  0  0  0  0  0  0  0  0  0  0
  -21.3104  -30.8575   22.7308 C   0  0  1  0  0  0  0  0  0  0  0  0
  -22.2918  -27.2197   22.2446 C   0  0  1  0  0  0  0  0  0  0  0  0
  -28.2023  -18.4718   20.8844 C   0  0  2  0  0  0  0  0  0  0  0  0
  -23.4822  -20.7600   26.3505 C   0  0  0  0  0  0  0  0  0  0  0  0
  -23.3567  -27.3709   26.7394 C   0  0  0  0  0  0  0  0  0  0  0  0
  -23.9356  -25.1711   27.7853 C   0  0  0  0  0  0  0  0  0  0  0  0
  -21.5633  -25.6955   27.2198 C   0  0  0  0  0  0  0  0  0  0  0  0
  -31.2513  -26.7013   19.9117 C   0  0  0  0  0  0  0  0  0  0  0  0
  -31.1589  -24.5707   21.2118 C   0  0  0  0  0  0  0  0  0  0  0  0
  -25.9596  -22.1318   17.5115 C   0  0  0  0  0  0  0  0  0  0  0  0
  -23.5402  -21.0855   22.5602 C   0  0  0  0  0  0  0  0  0  0  0  0
  -29.2492  -23.3758   19.1738 C   0  0  0  0  0  0  0  0  0  0  0  0
  -29.0673  -22.6126   17.8559 C   0  0  0  0  0  0  0  0  0  0  0  0
  -30.0747  -24.6513   18.9599 C   0  0  0  0  0  0  0  0  0  0  0  0
  -28.2399  -21.3422   18.0236 C   0  0  0  0  0  0  0  0  0  0  0  0
  -29.0854  -25.9679   20.9364 C   0  0  0  0  0  0  0  0  0  1  0  0
  -23.1997  -25.1950   25.3586 C   0  0  1  0  0  0  0  0  0  0  0  0
  -23.1943  -21.4202   25.0111 C   0  0  2  0  0  0  0  0  0  0  0  0
  -23.0247  -25.8654   26.7505 C   0  0  0  0  0  0  0  0  0  0  0  0
  -30.3745  -25.4799   20.2410 C   0  0  0  0  0  0  0  0  0  0  0  0
  -26.8853  -16.4019   20.6331 N   0  0  0  0  0  0  0  0  0  0  0  0
  -28.0957  -16.9849   20.6008 N   0  0  0  0  0  0  0  0  0  0  0  0
  -23.0357  -26.4009   23.2039 N   0  0  0  0  0  0  0  0  0  0  0  0
  -27.0624  -20.6700   20.7009 N   0  0  0  0  0  0  0  0  0  0  0  0
  -30.3939  -16.5469   20.2307 N   0  0  0  0  0  0  0  0  0  0  0  0
  -28.4585  -12.5062   19.6627 N   0  0  0  0  0  0  0  0  0  0  0  0
  -21.3623  -29.4488   22.4036 N   0  0  0  0  0  0  0  0  0  0  0  0
  -22.8660  -23.7750   25.3332 N   0  0  0  0  0  0  0  0  0  0  0  0
  -26.8885  -21.6165   18.5072 N   0  0  0  0  0  0  0  0  0  0  0  0
  -23.7698  -20.5670   23.9333 N   0  3  0  0  0  0  0  0  0  0  0  0
  -30.4571  -13.6305   19.6585 O   0  0  0  0  0  0  0  0  0  0  0  0
  -23.5068  -29.0067   23.1961 O   0  0  0  0  0  0  0  0  0  0  0  0
  -21.1236  -25.8593   24.4232 O   0  0  0  0  0  0  0  0  0  0  0  0
  -24.9374  -23.0403   24.5935 O   0  0  0  0  0  0  0  0  0  0  0  0
  -25.7947  -22.5554   20.3057 O   0  0  0  0  0  0  0  0  0  0  0  0
  -23.0228  -11.3674   20.1007 O   0  0  0  0  0  0  0  0  0  0  0  0
  -28.3539  -26.8477   20.0927 O   0  0  0  0  0  0  0  0  0  1  0  0
  -23.8303   -6.5033   22.5689 F   0  0  0  0  0  0  0  0  0  0  0  0
  -21.3597  -10.5178   22.1390 F   0  0  0  0  0  0  0  0  0  0  0  0
  1  2  1  0  0  0  0
  1  5  2  0  0  0  0
  2  6  2  0  0  0  0
  3  8  2  0  0  0  0
  3 15  1  0  0  0  0
  4  9  1  0  0  0  0
  4 15  2  0  0  0  0
  5 17  1  0  0  0  0
  6 19  1  0  0  0  0
  7 10  2  0  0  0  0
  7 18  1  0  0  0  0
  8 21  1  0  0  0  0
  9 21  2  0  0  0  0
 10 22  1  0  0  0  0
 11 12  2  0  0  0  0
 11 23  1  0  0  0  0
 12 24  1  0  0  0  0
 13 20  1  0  0  0  0
 13 22  2  0  0  0  0
 14 24  2  0  0  0  0
 14 25  1  0  0  0  0
 15 26  1  0  0  0  0
 16 26  1  0  0  0  0
 16 27  2  0  0  0  0
 16 28  1  0  0  0  0
 17 19  2  0  0  0  0
 17 33  1  0  0  0  0
 18 20  2  0  0  0  0
 18 34  1  0  0  0  0
 19 42  1  0  0  0  0
 20 35  1  0  0  0  0
 21 77  1  0  0  0  0
 22 78  1  0  0  0  0
 23 25  2  0  0  0  0
 23 77  1  0  0  0  0
 24 79  1  0  0  0  0
 25 80  1  0  0  0  0
 26 62  2  0  0  0  0
 27 63  1  0  0  0  0
 27 66  1  0  0  0  0
 28 67  1  0  0  0  0
 28 72  2  0  0  0  0
 29 43  1  0  0  0  0
 29 68  1  0  0  0  0
 29 73  2  0  0  0  0
 30 58  1  0  0  0  0
 30 64  1  0  0  0  0
 30 74  2  0  0  0  0
 31 59  1  0  0  0  0
 31 69  1  0  0  0  0
 31 75  2  0  0  0  0
 32 65  1  0  0  0  0
 32 70  1  0  0  0  0
 32 76  2  0  0  0  0
 33 36  1  0  0  0  0
 34 43  1  0  0  0  0
 35 64  1  0  0  0  0
 36 38  1  0  0  0  0
 37 39  1  0  0  0  0
 37 40  1  0  0  0  0
 38 42  1  0  0  0  0
 39 44  1  0  0  0  0
 40 65  1  0  0  0  0
 41 44  1  0  0  0  0
 41 65  1  0  0  0  0
 42 68  1  0  0  0  0
 43 64  1  0  0  0  0
 44 63  1  0  0  0  0
 45 59  1  0  0  0  0
 46 60  1  0  0  0  0
 47 60  1  0  0  0  0
 48 60  1  0  0  0  0
 49 61  1  0  0  0  0
 50 61  1  0  0  0  0
 51 70  1  0  0  0  0
 52 71  1  0  0  0  0
 53 54  1  0  0  0  0
 53 55  1  0  0  0  0
 54 56  1  0  0  0  0
 55 61  1  0  0  0  0
 56 70  1  0  0  0  0
 57 61  1  0  0  0  0
 57 78  1  0  0  0  0
 58 60  1  0  0  0  0
 58 69  1  0  0  0  0
 59 71  1  0  0  0  0
 62 63  1  0  0  0  0
M  CHG  1  71   1
M  ISO  4  32 100  57 101  70 100  78 101
M  END
> <Batch ID>
0015

> <Smiles>
CNC(C)C(=O)NC(C(=O)N1Cc2cc([101O:1][101CH2:1]C(C)(C)CCCC[100N:0](C)[100C:0](=O)N3CCCC(n4nc(-c5ccc(Oc6ccc(F)cc6F)cc5)c(C(N)=O)c4N)C3)ccc2CC1C(=O)NC1CCCc2ccccc21)C(C)(C)C

> <Shape>
0.216

> <Color>
0.097

> <Negative vol penalty>
0.000

$$$$

  -OEChem-04052315553D

 80 87  0     1  0  0  0  0  0999 V2000
  -27.2088  -34.5144   21.8008 C   0  0  0  0  0  0  0  0  0  0  0  0
  -27.4807  -33.1666   21.5888 C   0  0  0  0  0  0  0  0  0  0  0  0
  -26.4990  -12.4759   20.9641 C   0  0  0  0  0  0  0  0  0  0  0  0
  -24.6458  -13.7675   20.1073 C   0  0  0  0  0  0  0  0  0  0  0  0
  -26.0985  -34.8900   22.5558 C   0  0  0  0  0  0  0  0  0  0  0  0
  -26.6430  -32.1936   22.1325 C   0  0  0  0  0  0  0  0  0  0  0  0
  -25.5375  -28.5164   18.8309 C   0  0  0  0  0  0  0  0  0  0  0  0
  -25.6410  -11.4020   21.2012 C   0  0  0  0  0  0  0  0  0  0  0  0
  -23.7877  -12.6937   20.3444 C   0  0  0  0  0  0  0  0  0  0  0  0
  -26.5121  -27.5440   18.6109 C   0  0  0  0  0  0  0  0  0  0  0  0
  -24.1734   -8.9424   19.4042 C   0  0  0  0  0  0  0  0  0  0  0  0
  -24.6027   -7.6723   19.0192 C   0  0  0  0  0  0  0  0  0  0  0  0
  -25.3474  -26.0478   20.1021 C   0  0  0  0  0  0  0  0  0  0  0  0
  -24.4345   -6.9213   21.3093 C   0  0  0  0  0  0  0  0  0  0  0  0
  -26.0014  -13.6587   20.4172 C   0  0  0  0  0  0  0  0  0  0  0  0
  -27.6146  -15.0324   18.9966 C   0  0  0  0  0  0  0  0  0  0  0  0
  -25.2412  -33.9212   23.1010 C   0  0  0  0  0  0  0  0  0  0  0  0
  -24.4645  -28.2652   19.6981 C   0  0  0  0  0  0  0  0  0  0  0  0
  -25.5208  -32.5565   22.8966 C   0  0  0  0  0  0  0  0  0  0  0  0
  -24.3591  -27.0177   20.3295 C   0  0  0  0  0  0  0  0  0  0  0  0
  -24.2853  -11.5109   20.8913 C   0  0  0  0  0  0  0  0  0  0  0  0
  -26.4187  -26.3106   19.2488 C   0  0  0  0  0  0  0  0  0  0  0  0
  -23.8747   -9.2019   20.7418 C   0  0  0  0  0  0  0  0  0  0  0  0
  -24.7333   -6.6618   19.9717 C   0  0  0  0  0  0  0  0  0  0  0  0
  -24.0052   -8.1914   21.6943 C   0  0  0  0  0  0  0  0  0  0  0  0
  -26.8871  -14.7685   20.1726 C   0  0  0  0  0  0  0  0  0  0  0  0
  -28.2969  -16.1931   19.2682 C   0  0  0  0  0  0  0  0  0  0  0  0
  -27.6686  -14.2945   17.7686 C   0  0  0  0  0  0  0  0  0  0  0  0
  -23.4272  -29.5504   22.4140 C   0  0  0  0  0  0  0  0  0  0  0  0
  -20.9420  -27.5125   21.9747 C   0  0  0  0  0  0  0  0  0  0  0  0
  -19.7705  -24.6331   20.5665 C   0  0  0  0  0  0  0  0  0  0  0  0
  -28.6022  -21.2173   21.1723 C   0  0  0  0  0  0  0  0  0  0  0  0
  -24.0799  -34.3746   23.9498 C   0  0  0  0  0  0  0  0  0  0  0  0
  -23.4071  -29.3149   19.9040 C   0  0  0  0  0  0  0  0  0  0  0  0
  -23.2160  -26.6909   21.2541 C   0  0  0  0  0  0  0  0  0  0  0  0
  -23.0310  -33.2890   24.1768 C   0  0  0  0  0  0  0  0  0  0  0  0
  -28.9826  -18.6857   23.6050 C   0  0  0  0  0  0  0  0  0  0  0  0
  -23.6992  -31.9742   24.5664 C   0  0  0  0  0  0  0  0  0  0  0  0
  -28.5191  -17.4515   22.8324 C   0  0  0  0  0  0  0  0  0  0  0  0
  -28.1232  -19.9131   23.2962 C   0  0  0  0  0  0  0  0  0  0  0  0
  -27.5446  -18.9801   21.0787 C   0  0  0  0  0  0  0  0  0  0  0  0
  -24.6217  -31.4719   23.4492 C   0  0  1  0  0  0  0  0  0  0  0  0
  -22.6338  -29.1366   21.2069 C   0  0  1  0  0  0  0  0  0  0  0  0
  -28.4285  -17.7478   21.3254 C   0  0  2  0  0  0  0  0  0  0  0  0
  -17.7090  -23.2099   20.4176 C   0  0  0  0  0  0  0  0  0  0  0  0
  -21.4604  -26.4707   24.7953 C   0  0  0  0  0  0  0  0  0  0  0  0
  -20.0530  -24.4754   24.2419 C   0  0  0  0  0  0  0  0  0  0  0  0
  -19.0443  -26.7568   24.2166 C   0  0  0  0  0  0  0  0  0  0  0  0
  -31.4767  -22.5037   22.8242 C   0  0  0  0  0  0  0  0  0  0  0  0
  -32.0517  -24.1684   21.0646 C   0  0  0  0  0  0  0  0  0  0  0  0
  -31.4235  -21.8396   20.4174 C   0  0  0  0  0  0  0  0  0  0  0  0
  -27.8208  -22.8424   22.9480 C   0  0  0  0  0  0  0  0  0  0  0  0
  -19.6075  -24.9724   17.6310 C   0  0  0  0  0  0  0  0  0  0  0  0
  -27.6294  -24.4515   20.1055 C   0  0  0  0  0  0  0  0  0  1  0  0
  -20.6436  -26.0882   22.3761 C   0  0  1  0  0  0  0  0  0  0  0  0
  -18.5055  -24.3381   19.7808 C   0  0  2  0  0  0  0  0  0  0  0  0
  -29.6182  -23.4546   21.3731 C   0  0  2  0  0  0  0  0  0  0  0  0
  -29.0892  -23.9959   20.0235 C   0  0  1  0  0  0  0  0  0  0  0  0
  -20.3230  -25.9543   23.8916 C   0  0  0  0  0  0  0  0  0  0  0  0
  -31.1175  -22.9863   21.3985 C   0  0  0  0  0  0  0  0  0  0  0  0
  -27.0886  -15.6875   21.1208 N   0  0  0  0  0  0  0  0  0  0  0  0
  -27.9505  -16.5401   20.5409 N   0  0  0  0  0  0  0  0  0  0  0  0
  -22.2107  -27.7523   21.4281 N   0  0  0  0  0  0  0  0  0  0  0  0
  -28.0242  -20.1317   21.8467 N   0  0  0  0  0  0  0  0  0  0  0  0
  -29.1535  -16.9405   18.5401 N   0  0  0  0  0  0  0  0  0  0  0  0
  -26.9051  -13.1244   17.6581 N   0  0  0  0  0  0  0  0  0  0  0  0
  -23.8465  -30.8668   22.3875 N   0  0  0  0  0  0  0  0  0  0  0  0
  -19.5730  -25.6319   21.4963 N   0  0  0  0  0  0  0  0  0  0  0  0
  -28.7273  -22.4212   21.8816 N   0  0  0  0  0  0  0  0  0  0  0  0
  -18.8433  -23.9446   18.3837 N   0  3  0  0  0  0  0  0  0  0  0  0
  -28.3857  -14.6529   16.8038 O   0  0  0  0  0  0  0  0  0  0  0  0
  -23.6418  -28.7360   23.3042 O   0  0  0  0  0  0  0  0  0  0  0  0
  -20.0785  -28.3791   22.1335 O   0  0  0  0  0  0  0  0  0  0  0  0
  -20.8270  -24.0345   20.3770 O   0  0  0  0  0  0  0  0  0  0  0  0
  -28.9793  -21.1199   19.9973 O   0  0  0  0  0  0  0  0  0  0  0  0
  -29.1910  -23.0081   18.9998 O   0  0  0  0  0  0  0  0  0  0  0  0
  -23.4478  -10.4631   21.1223 O   0  0  0  0  0  0  0  0  0  0  0  0
  -27.3690  -25.3599   19.0363 O   0  0  0  0  0  0  0  0  0  1  0  0
  -25.1441   -5.4418   19.6016 F   0  0  0  0  0  0  0  0  0  0  0  0
  -23.7186   -8.4344   22.9806 F   0  0  0  0  0  0  0  0  0  0  0  0
  1  2  1  0  0  0  0
  1  5  2  0  0  0  0
  2  6  2  0  0  0  0
  3  8  2  0  0  0  0
  3 15  1  0  0  0  0
  4  9  1  0  0  0  0
  4 15  2  0  0  0  0
  5 17  1  0  0  0  0
  6 19  1  0  0  0  0
  7 10  2  0  0  0  0
  7 18  1  0  0  0  0
  8 21  1  0  0  0  0
  9 21  2  0  0  0  0
 10 22  1  0  0  0  0
 11 12  2  0  0  0  0
 11 23  1  0  0  0  0
 12 24  1  0  0  0  0
 13 20  1  0  0  0  0
 13 22  2  0  0  0  0
 14 24  2  0  0  0  0
 14 25  1  0  0  0  0
 15 26  1  0  0  0  0
 16 26  1  0  0  0  0
 16 27  2  0  0  0  0
 16 28  1  0  0  0  0
 17 19  2  0  0  0  0
 17 33  1  0  0  0  0
 18 20  2  0  0  0  0
 18 34  1  0  0  0  0
 19 42  1  0  0  0  0
 20 35  1  0  0  0  0
 21 77  1  0  0  0  0
 22 78  1  0  0  0  0
 23 25  2  0  0  0  0
 23 77  1  0  0  0  0
 24 79  1  0  0  0  0
 25 80  1  0  0  0  0
 26 61  2  0  0  0  0
 27 62  1  0  0  0  0
 27 65  1  0  0  0  0
 28 66  1  0  0  0  0
 28 71  2  0  0  0  0
 29 43  1  0  0  0  0
 29 67  1  0  0  0  0
 29 72  2  0  0  0  0
 30 55  1  0  0  0  0
 30 63  1  0  0  0  0
 30 73  2  0  0  0  0
 31 56  1  0  0  0  0
 31 68  1  0  0  0  0
 31 74  2  0  0  0  0
 32 64  1  0  0  0  0
 32 69  1  0  0  0  0
 32 75  2  0  0  0  0
 33 36  1  0  0  0  0
 34 43  1  0  0  0  0
 35 63  1  0  0  0  0
 36 38  1  0  0  0  0
 37 39  1  0  0  0  0
 37 40  1  0  0  0  0
 38 42  1  0  0  0  0
 39 44  1  0  0  0  0
 40 64  1  0  0  0  0
 41 44  1  0  0  0  0
 41 64  1  0  0  0  0
 42 67  1  0  0  0  0
 43 63  1  0  0  0  0
 44 62  1  0  0  0  0
 45 56  1  0  0  0  0
 46 59  1  0  0  0  0
 47 59  1  0  0  0  0
 48 59  1  0  0  0  0
 49 60  1  0  0  0  0
 50 60  1  0  0  0  0
 51 60  1  0  0  0  0
 52 69  1  0  0  0  0
 53 70  1  0  0  0  0
 54 58  1  0  0  0  0
 54 78  1  0  0  0  0
 55 59  1  0  0  0  0
 55 68  1  0  0  0  0
 56 70  1  0  0  0  0
 57 58  1  0  0  0  0
 57 60  1  0  0  0  0
 57 69  1  0  0  0  0
 58 76  1  0  0  0  0
 61 62  1  0  0  0  0
M  CHG  1  70   1
M  ISO  4  32 100  54 101  69 100  78 101
M  END
> <Batch ID>
0015

> <Smiles>
CNC(C)C(=O)NC(C(=O)N1Cc2cc([101O:1][101CH2:1]C(O)C([100N:0](C)[100C:0](=O)N3CCCC(n4nc(-c5ccc(Oc6ccc(F)cc6F)cc5)c(C(N)=O)c4N)C3)C(C)(C)C)ccc2CC1C(=O)NC1CCCc2ccccc21)C(C)(C)C

> <Shape>
0.264

> <Color>
0.072

> <Negative vol penalty>
0.000

$$$$

  -OEChem-04052315553D

 91 98  0     1  0  0  0  0  0999 V2000
  -22.7661   -7.8245   20.5792 C   0  0  0  0  0  0  0  0  0  0  0  0
  -21.9697   -8.9564   20.4381 C   0  0  0  0  0  0  0  0  0  0  0  0
  -27.9905  -25.3776   18.0325 C   0  0  0  0  0  0  0  0  0  0  0  0
  -28.0695  -24.6452   20.3335 C   0  0  0  0  0  0  0  0  0  0  0  0
  -23.9566   -7.8968   21.3012 C   0  0  0  0  0  0  0  0  0  0  0  0
  -22.3628  -10.1611   21.0199 C   0  0  0  0  0  0  0  0  0  0  0  0
  -22.0415  -17.2388   19.9622 C   0  0  0  0  0  0  0  0  0  0  0  0
  -29.1924  -24.7160   17.7806 C   0  0  0  0  0  0  0  0  0  0  0  0
  -29.2714  -23.9836   20.0816 C   0  0  0  0  0  0  0  0  0  0  0  0
  -21.6642  -18.4099   20.6180 C   0  0  0  0  0  0  0  0  0  0  0  0
  -32.5434  -22.4023   20.1355 C   0  0  0  0  0  0  0  0  0  0  0  0
  -33.5722  -22.5502   21.0657 C   0  0  0  0  0  0  0  0  0  0  0  0
  -23.7804  -18.4358   21.7759 C   0  0  0  0  0  0  0  0  0  0  0  0
  -33.5689  -24.9368   20.6897 C   0  0  0  0  0  0  0  0  0  0  0  0
  -27.4291  -25.3423   19.3089 C   0  0  0  0  0  0  0  0  0  0  0  0
  -24.8869  -25.5021   19.4480 C   0  0  0  0  0  0  0  0  0  0  0  0
  -24.3694   -9.1054   21.8840 C   0  0  0  0  0  0  0  0  0  0  0  0
  -23.2887  -16.6506   20.2168 C   0  0  0  0  0  0  0  0  0  0  0  0
  -23.5593  -10.2493   21.7516 C   0  0  0  0  0  0  0  0  0  0  0  0
  -24.1721  -17.2588   21.1200 C   0  0  0  0  0  0  0  0  0  0  0  0
  -29.8328  -24.0190   18.8052 C   0  0  0  0  0  0  0  0  0  0  0  0
  -22.5326  -19.0070   21.5272 C   0  0  0  0  0  0  0  0  0  0  0  0
  -32.0274  -23.5216   19.4824 C   0  0  0  0  0  0  0  0  0  0  0  0
  -34.0850  -23.8175   21.3428 C   0  0  0  0  0  0  0  0  0  0  0  0
  -32.5401  -24.7888   19.7595 C   0  0  0  0  0  0  0  0  0  0  0  0
  -26.1879  -26.0260   19.5699 C   0  0  0  0  0  0  0  0  0  0  0  0
  -24.0634  -26.5409   19.8078 C   0  0  0  0  0  0  0  0  0  0  0  0
  -24.4608  -24.1936   19.0457 C   0  0  0  0  0  0  0  0  0  0  0  0
  -24.2543  -13.8609   21.3953 C   0  0  0  0  0  0  0  0  0  0  0  0
  -27.1891  -14.9722   20.5742 C   0  0  0  0  0  0  0  0  0  0  0  0
  -29.1951  -17.6578   19.9334 C   0  0  0  0  0  0  0  0  0  0  0  0
  -21.7952  -26.5450   24.9842 C   0  0  0  0  0  0  0  0  0  0  0  0
  -23.8342  -30.9873   23.5079 C   0  0  0  0  0  0  0  0  0  0  0  0
  -25.6407   -9.1232   22.6953 C   0  0  0  0  0  0  0  0  0  0  0  0
  -23.6914  -15.4020   19.4811 C   0  0  0  0  0  0  0  0  0  0  0  0
  -25.5305  -16.6782   21.4134 C   0  0  0  0  0  0  0  0  0  0  0  0
  -26.1722  -10.5288   22.9639 C   0  0  0  0  0  0  0  0  0  0  0  0
  -24.5567  -31.4540   20.0529 C   0  0  0  0  0  0  0  0  0  0  0  0
  -25.0449  -11.4463   23.4268 C   0  0  0  0  0  0  0  0  0  0  0  0
  -24.9300  -30.0532   19.5648 C   0  0  0  0  0  0  0  0  0  0  0  0
  -25.0528  -31.7071   21.4748 C   0  0  0  0  0  0  0  0  0  0  0  0
  -25.0115  -29.2946   21.9766 C   0  0  0  0  0  0  0  0  0  0  0  0
  -23.9642  -11.5804   22.3471 C   0  0  1  0  0  0  0  0  0  0  0  0
  -24.7771  -14.6081   20.2011 C   0  0  1  0  0  0  0  0  0  0  0  0
  -24.4839  -28.9725   20.5680 C   0  0  2  0  0  0  0  0  0  0  0  0
  -18.2420  -23.6234   27.5553 C   0  0  0  0  0  0  0  0  0  0  0  0
  -31.5561  -18.2525   19.3259 C   0  0  0  0  0  0  0  0  0  0  0  0
  -28.0652  -14.4142   23.4432 C   0  0  0  0  0  0  0  0  0  0  0  0
  -30.0618  -15.8709   23.0429 C   0  0  0  0  0  0  0  0  0  0  0  0
  -29.7467  -13.7928   21.6993 C   0  0  0  0  0  0  0  0  0  0  0  0
  -23.6643  -23.7388   27.0212 C   0  0  0  0  0  0  0  0  0  0  0  0
  -24.2126  -26.1641   26.9737 C   0  0  0  0  0  0  0  0  0  0  0  0
  -24.3364  -24.8212   24.8744 C   0  0  0  0  0  0  0  0  0  0  0  0
  -20.3826  -27.6057   26.7578 C   0  0  0  0  0  0  0  0  0  0  0  0
  -28.3450  -18.9354   17.4028 C   0  0  0  0  0  0  0  0  0  0  0  0
  -19.7053  -23.6975   27.1504 C   0  0  0  0  0  0  0  0  0  0  0  0
  -21.2976  -22.6274   23.4317 C   0  0  0  0  0  0  0  0  0  0  0  0
  -21.5437  -22.4586   21.9343 C   0  0  0  0  0  0  0  0  0  0  0  0
  -21.1414  -30.0603   25.2236 C   0  0  0  0  0  0  0  0  0  0  0  0
  -22.6423  -30.1115   25.5008 C   0  0  0  0  0  0  0  0  0  0  0  0
  -20.6722  -28.7496   24.5963 C   0  0  0  0  0  0  0  0  0  0  0  0
  -19.8549  -24.1647   25.7114 C   0  0  0  0  0  0  0  0  0  0  0  0
  -21.5207  -24.0692   23.8630 C   0  0  0  0  0  0  0  0  0  0  0  0
  -21.2827  -21.0297   21.4792 C   0  0  0  0  0  0  0  0  0  1  0  0
  -28.2553  -15.7876   21.2652 C   0  0  1  0  0  0  0  0  0  0  0  0
  -30.1630  -17.9443   18.7996 C   0  0  2  0  0  0  0  0  0  0  0  0
  -22.0285  -25.3602   25.9309 C   0  0  2  0  0  0  0  0  0  0  0  0
  -29.0059  -14.9765   22.3588 C   0  0  0  0  0  0  0  0  0  0  0  0
  -23.5371  -25.0278   26.1774 C   0  0  0  0  0  0  0  0  0  0  0  0
  -26.1955  -27.2986   19.9752 N   0  0  0  0  0  0  0  0  0  0  0  0
  -24.8891  -27.5832   20.1111 N   0  0  0  0  0  0  0  0  0  0  0  0
  -25.8758  -15.4530   20.6736 N   0  0  0  0  0  0  0  0  0  0  0  0
  -24.5940  -30.6476   22.3764 N   0  0  0  0  0  0  0  0  0  0  0  0
  -22.7209  -26.6552   19.8910 N   0  0  0  0  0  0  0  0  0  0  0  0
  -25.4380  -23.2466   18.7099 N   0  0  0  0  0  0  0  0  0  0  0  0
  -24.3981  -12.4893   21.3079 N   0  0  0  0  0  0  0  0  0  0  0  0
  -29.1178  -16.3093   20.2105 N   0  0  0  0  0  0  0  0  0  0  0  0
  -23.4344  -29.9224   24.3059 N   0  0  0  0  0  0  0  0  0  0  0  0
  -20.9823  -27.5916   25.4287 N   0  0  0  0  0  0  0  0  0  0  0  0
  -29.6937  -19.1112   18.0003 N   0  3  0  0  0  0  0  0  0  0  0  0
  -21.3123  -24.1768   25.3470 N   0  3  1  0  0  0  0  0  0  0  0  0
  -23.2490  -23.8786   18.9699 O   0  0  0  0  0  0  0  0  0  0  0  0
  -23.7586  -14.4827   22.3276 O   0  0  0  0  0  0  0  0  0  0  0  0
  -27.5106  -13.9504   19.9627 O   0  0  0  0  0  0  0  0  0  0  0  0
  -28.5728  -18.5422   20.5175 O   0  0  0  0  0  0  0  0  0  0  0  0
  -22.3068  -26.5267   23.8587 O   0  0  0  0  0  0  0  0  0  0  0  0
  -23.5299  -32.1528   23.7835 O   0  0  0  0  0  0  0  0  0  0  0  0
  -31.0055  -23.3731   18.5597 O   0  0  0  0  0  0  0  0  0  0  0  0
  -22.1639  -20.1580   22.1740 O   0  0  0  0  0  0  0  0  0  1  0  0
  -35.0719  -23.9596   22.2372 F   0  0  0  0  0  0  0  0  0  0  0  0
  -32.0476  -25.8680   19.1361 F   0  0  0  0  0  0  0  0  0  0  0  0
  1  2  1  0  0  0  0
  1  5  2  0  0  0  0
  2  6  2  0  0  0  0
  3  8  2  0  0  0  0
  3 15  1  0  0  0  0
  4  9  1  0  0  0  0
  4 15  2  0  0  0  0
  5 17  1  0  0  0  0
  6 19  1  0  0  0  0
  7 10  2  0  0  0  0
  7 18  1  0  0  0  0
  8 21  1  0  0  0  0
  9 21  2  0  0  0  0
 10 22  1  0  0  0  0
 11 12  2  0  0  0  0
 11 23  1  0  0  0  0
 12 24  1  0  0  0  0
 13 20  1  0  0  0  0
 13 22  2  0  0  0  0
 14 24  2  0  0  0  0
 14 25  1  0  0  0  0
 15 26  1  0  0  0  0
 16 26  1  0  0  0  0
 16 27  2  0  0  0  0
 16 28  1  0  0  0  0
 17 19  2  0  0  0  0
 17 34  1  0  0  0  0
 18 20  2  0  0  0  0
 18 35  1  0  0  0  0
 19 43  1  0  0  0  0
 20 36  1  0  0  0  0
 21 88  1  0  0  0  0
 22 89  1  0  0  0  0
 23 25  2  0  0  0  0
 23 88  1  0  0  0  0
 24 90  1  0  0  0  0
 25 91  1  0  0  0  0
 26 70  2  0  0  0  0
 27 71  1  0  0  0  0
 27 74  1  0  0  0  0
 28 75  1  0  0  0  0
 28 82  2  0  0  0  0
 29 44  1  0  0  0  0
 29 76  1  0  0  0  0
 29 83  2  0  0  0  0
 30 65  1  0  0  0  0
 30 72  1  0  0  0  0
 30 84  2  0  0  0  0
 31 66  1  0  0  0  0
 31 77  1  0  0  0  0
 31 85  2  0  0  0  0
 32 67  1  0  0  0  0
 32 79  1  0  0  0  0
 32 86  2  0  0  0  0
 33 73  1  0  0  0  0
 33 78  1  0  0  0  0
 33 87  2  0  0  0  0
 34 37  1  0  0  0  0
 35 44  1  0  0  0  0
 36 72  1  0  0  0  0
 37 39  1  0  0  0  0
 38 40  1  0  0  0  0
 38 41  1  0  0  0  0
 39 43  1  0  0  0  0
 40 45  1  0  0  0  0
 41 73  1  0  0  0  0
 42 45  1  0  0  0  0
 42 73  1  0  0  0  0
 43 76  1  0  0  0  0
 44 72  1  0  0  0  0
 45 71  1  0  0  0  0
 46 56  1  0  0  0  0
 47 66  1  0  0  0  0
 48 68  1  0  0  0  0
 49 68  1  0  0  0  0
 50 68  1  0  0  0  0
 51 69  1  0  0  0  0
 52 69  1  0  0  0  0
 53 69  1  0  0  0  0
 54 79  1  0  0  0  0
 55 80  1  0  0  0  0
 56 62  1  0  0  0  0
 57 58  1  0  0  0  0
 57 63  1  0  0  0  0
 58 64  1  0  0  0  0
 59 60  1  0  0  0  0
 59 61  1  0  0  0  0
 60 78  1  0  0  0  0
 61 79  1  0  0  0  0
 62 81  1  0  0  0  0
 63 81  1  0  0  0  0
 64 89  1  0  0  0  0
 65 68  1  0  0  0  0
 65 77  1  0  0  0  0
 66 80  1  0  0  0  0
 67 69  1  0  0  0  0
 67 81  1  0  0  0  0
 70 71  1  0  0  0  0
M  CHG  2  80   1  81   1
M  ISO  4  33 100  64 101  78 100  89 101
M  END
> <Batch ID>
0015

> <Smiles>
CCCN(CCC[101CH2:1][101O:1]c1ccc2c(c1)CN(C(=O)C(NC(=O)C(C)NC)C(C)(C)C)C(C(=O)NC1CCCc3ccccc31)C2)C(C(=O)N(C)CCC[100NH:0][100C:0](=O)N1CCCC(n2nc(-c3ccc(Oc4ccc(F)cc4F)cc3)c(C(N)=O)c2N)C1)C(C)(C)C

> <Shape>
0.217

> <Color>
0.055

> <Negative vol penalty>
0.000

$$$$

  -OEChem-04052315553D

 85 92  0     1  0  0  0  0  0999 V2000
  -24.5980  -18.1641   21.6945 C   0  0  0  0  0  0  0  0  0  0  0  0
  -25.2795  -19.2802   21.2201 C   0  0  0  0  0  0  0  0  0  0  0  0
  -27.5723  -12.3502   22.9658 C   0  0  0  0  0  0  0  0  0  0  0  0
  -26.3566  -12.8201   20.9316 C   0  0  0  0  0  0  0  0  0  0  0  0
  -23.2056  -18.1767   21.7646 C   0  0  0  0  0  0  0  0  0  0  0  0
  -24.5689  -20.4093   20.8144 C   0  0  0  0  0  0  0  0  0  0  0  0
  -26.5960  -24.7104   22.5571 C   0  0  0  0  0  0  0  0  0  0  0  0
  -26.4931  -11.6035   23.4383 C   0  0  0  0  0  0  0  0  0  0  0  0
  -25.2774  -12.0733   21.4040 C   0  0  0  0  0  0  0  0  0  0  0  0
  -27.7260  -25.1941   21.8991 C   0  0  0  0  0  0  0  0  0  0  0  0
  -24.4387   -8.8114   21.6811 C   0  0  0  0  0  0  0  0  0  0  0  0
  -23.8356   -7.9162   20.7976 C   0  0  0  0  0  0  0  0  0  0  0  0
  -26.3460  -26.7654   20.6969 C   0  0  0  0  0  0  0  0  0  0  0  0
  -21.7395   -9.0940   21.0350 C   0  0  0  0  0  0  0  0  0  0  0  0
  -27.5041  -12.9586   21.7124 C   0  0  0  0  0  0  0  0  0  0  0  0
  -29.7081  -13.2639   20.4648 C   0  0  0  0  0  0  0  0  0  0  0  0
  -22.4780  -19.3100   21.3687 C   0  0  0  0  0  0  0  0  0  0  0  0
  -25.3289  -25.2441   22.2814 C   0  0  0  0  0  0  0  0  0  0  0  0
  -23.1654  -20.4366   20.8781 C   0  0  0  0  0  0  0  0  0  0  0  0
  -25.2018  -26.2885   21.3546 C   0  0  0  0  0  0  0  0  0  0  0  0
  -25.3457  -11.4650   22.6574 C   0  0  0  0  0  0  0  0  0  0  0  0
  -27.6007  -26.2198   20.9667 C   0  0  0  0  0  0  0  0  0  0  0  0
  -23.6921   -9.8478   22.2417 C   0  0  0  0  0  0  0  0  0  0  0  0
  -22.4861   -8.0575   20.4745 C   0  0  0  0  0  0  0  0  0  0  0  0
  -22.3426   -9.9891   21.9186 C   0  0  0  0  0  0  0  0  0  0  0  0
  -28.6183  -13.7306   21.2241 C   0  0  0  0  0  0  0  0  0  0  0  0
  -30.4842  -14.3780   20.2573 C   0  0  0  0  0  0  0  0  0  0  0  0
  -29.9933  -11.9417   19.9894 C   0  0  0  0  0  0  0  0  0  0  0  0
  -22.6129  -24.0829   21.1071 C   0  0  0  0  0  0  0  0  0  0  0  0
  -21.4834  -27.0299   21.8566 C   0  0  0  0  0  0  0  0  0  0  0  0
  -29.1112  -20.8066   16.9318 C   0  0  0  0  0  0  0  0  0  0  0  0
  -30.5535  -26.1486   18.8633 C   0  0  0  0  0  0  0  0  0  0  0  0
  -22.1482  -30.3275   22.4317 C   0  0  0  0  0  0  0  0  0  0  0  0
  -29.2586  -20.2378   20.1459 C   0  0  0  0  0  0  0  0  0  0  0  0
  -20.9715  -19.2594   21.4182 C   0  0  0  0  0  0  0  0  0  0  0  0
  -24.1234  -24.7295   23.0193 C   0  0  0  0  0  0  0  0  0  0  0  0
  -23.8667  -26.9095   21.0377 C   0  0  0  0  0  0  0  0  0  0  0  0
  -20.3123  -20.6328   21.3211 C   0  0  0  0  0  0  0  0  0  0  0  0
  -31.6084  -18.5816   22.2465 C   0  0  0  0  0  0  0  0  0  0  0  0
  -20.9391  -21.4473   20.1939 C   0  0  0  0  0  0  0  0  0  0  0  0
  -31.2068  -17.1084   22.1542 C   0  0  0  0  0  0  0  0  0  0  0  0
  -30.3895  -19.5013   22.2232 C   0  0  0  0  0  0  0  0  0  0  0  0
  -29.0762  -17.8192   20.9906 C   0  0  0  0  0  0  0  0  0  0  0  0
  -22.4312  -21.6894   20.4520 C   0  0  1  0  0  0  0  0  0  0  0  0
  -22.8138  -24.9959   22.2835 C   0  0  1  0  0  0  0  0  0  0  0  0
  -30.2747  -16.8555   20.9540 C   0  0  2  0  0  0  0  0  0  0  0  0
  -21.0164  -32.4980   22.9842 C   0  0  0  0  0  0  0  0  0  0  0  0
  -33.6543  -26.3598   17.8957 C   0  0  0  0  0  0  0  0  0  0  0  0
  -20.5054  -27.2507   18.9748 C   0  0  0  0  0  0  0  0  0  0  0  0
  -20.2610  -29.7183   19.3203 C   0  0  0  0  0  0  0  0  0  0  0  0
  -18.9096  -28.1293   20.6882 C   0  0  0  0  0  0  0  0  0  0  0  0
  -23.6485  -30.5977   24.9684 C   0  0  0  0  0  0  0  0  0  0  0  0
  -28.0807  -20.8204   18.0407 C   0  0  0  0  0  0  0  0  0  0  0  0
  -29.7721  -25.7748   20.1048 C   0  0  0  0  0  0  0  0  0  1  0  0
  -32.0026  -22.9976   16.7470 C   0  0  0  0  0  0  0  0  0  0  0  0
  -31.1175  -23.3887   15.5587 C   0  0  0  0  0  0  0  0  0  0  0  0
  -33.0688  -24.0490   17.0850 C   0  0  0  0  0  0  0  0  0  0  0  0
  -30.0988  -22.3068   15.2063 C   0  0  0  0  0  0  0  0  0  0  0  0
  -21.3877  -28.3531   21.1363 C   0  0  1  0  0  0  0  0  0  0  0  0
  -21.7094  -31.2647   23.5424 C   0  0  2  0  0  0  0  0  0  0  0  0
  -32.5164  -25.4131   17.5249 C   0  0  1  0  0  0  0  0  0  0  0  0
  -20.2909  -28.3500   20.0342 C   0  0  0  0  0  0  0  0  0  0  0  0
  -28.6920  -15.0391   21.4817 N   0  0  0  0  0  0  0  0  0  0  0  0
  -29.8374  -15.4042   20.8810 N   0  0  0  0  0  0  0  0  0  0  0  0
  -22.7169  -26.3677   21.7807 N   0  0  0  0  0  0  0  0  0  0  0  0
  -29.5478  -19.2111   21.0599 N   0  0  0  0  0  0  0  0  0  0  0  0
  -31.6499  -14.5702   19.6042 N   0  0  0  0  0  0  0  0  0  0  0  0
  -29.0904  -10.9135   20.2924 N   0  0  0  0  0  0  0  0  0  0  0  0
  -22.6107  -22.7397   21.4314 N   0  0  0  0  0  0  0  0  0  0  0  0
  -29.2204  -22.0493   16.3220 N   0  0  0  0  0  0  0  0  0  0  0  0
  -21.1952  -29.3665   22.1680 N   0  0  0  0  0  0  0  0  0  0  0  0
  -31.6107  -25.2799   18.6424 N   0  0  0  0  0  0  0  0  0  0  0  0
  -28.4594  -19.8763   19.0683 N   0  0  0  0  0  0  0  0  0  0  0  0
  -22.8867  -31.7082   24.3412 N   0  3  0  0  0  0  0  0  0  0  0  0
  -31.0269  -11.6765   19.3299 O   0  0  0  0  0  0  0  0  0  0  0  0
  -22.4690  -24.5617   19.9883 O   0  0  0  0  0  0  0  0  0  0  0  0
  -20.5021  -26.6030   22.4701 O   0  0  0  0  0  0  0  0  0  0  0  0
  -29.7341  -19.8002   16.6033 O   0  0  0  0  0  0  0  0  0  0  0  0
  -30.2615  -27.1115   18.1594 O   0  0  0  0  0  0  0  0  0  0  0  0
  -23.2268  -30.4391   21.8532 O   0  0  0  0  0  0  0  0  0  0  0  0
  -29.6858  -21.3898   20.2775 O   0  0  0  0  0  0  0  0  0  0  0  0
  -24.2925  -10.7362   23.1181 O   0  0  0  0  0  0  0  0  0  0  0  0
  -28.7020  -26.6933   20.3226 O   0  0  0  0  0  0  0  0  0  1  0  0
  -21.9075   -7.1988   19.6248 F   0  0  0  0  0  0  0  0  0  0  0  0
  -21.6206  -10.9836   22.4530 F   0  0  0  0  0  0  0  0  0  0  0  0
  1  2  1  0  0  0  0
  1  5  2  0  0  0  0
  2  6  2  0  0  0  0
  3  8  2  0  0  0  0
  3 15  1  0  0  0  0
  4  9  1  0  0  0  0
  4 15  2  0  0  0  0
  5 17  1  0  0  0  0
  6 19  1  0  0  0  0
  7 10  2  0  0  0  0
  7 18  1  0  0  0  0
  8 21  1  0  0  0  0
  9 21  2  0  0  0  0
 10 22  1  0  0  0  0
 11 12  2  0  0  0  0
 11 23  1  0  0  0  0
 12 24  1  0  0  0  0
 13 20  1  0  0  0  0
 13 22  2  0  0  0  0
 14 24  2  0  0  0  0
 14 25  1  0  0  0  0
 15 26  1  0  0  0  0
 16 26  1  0  0  0  0
 16 27  2  0  0  0  0
 16 28  1  0  0  0  0
 17 19  2  0  0  0  0
 17 35  1  0  0  0  0
 18 20  2  0  0  0  0
 18 36  1  0  0  0  0
 19 44  1  0  0  0  0
 20 37  1  0  0  0  0
 21 82  1  0  0  0  0
 22 83  1  0  0  0  0
 23 25  2  0  0  0  0
 23 82  1  0  0  0  0
 24 84  1  0  0  0  0
 25 85  1  0  0  0  0
 26 63  2  0  0  0  0
 27 64  1  0  0  0  0
 27 67  1  0  0  0  0
 28 68  1  0  0  0  0
 28 75  2  0  0  0  0
 29 45  1  0  0  0  0
 29 69  1  0  0  0  0
 29 76  2  0  0  0  0
 30 59  1  0  0  0  0
 30 65  1  0  0  0  0
 30 77  2  0  0  0  0
 31 53  1  0  0  0  0
 31 70  1  0  0  0  0
 31 78  2  0  0  0  0
 32 54  1  0  0  0  0
 32 72  1  0  0  0  0
 32 79  2  0  0  0  0
 33 60  1  0  0  0  0
 33 71  1  0  0  0  0
 33 80  2  0  0  0  0
 34 66  1  0  0  0  0
 34 73  1  0  0  0  0
 34 81  2  0  0  0  0
 35 38  1  0  0  0  0
 36 45  1  0  0  0  0
 37 65  1  0  0  0  0
 38 40  1  0  0  0  0
 39 41  1  0  0  0  0
 39 42  1  0  0  0  0
 40 44  1  0  0  0  0
 41 46  1  0  0  0  0
 42 66  1  0  0  0  0
 43 46  1  0  0  0  0
 43 66  1  0  0  0  0
 44 69  1  0  0  0  0
 45 65  1  0  0  0  0
 46 64  1  0  0  0  0
 47 60  1  0  0  0  0
 48 61  1  0  0  0  0
 49 62  1  0  0  0  0
 50 62  1  0  0  0  0
 51 62  1  0  0  0  0
 52 74  1  0  0  0  0
 53 73  1  0  0  0  0
 54 83  1  0  0  0  0
 55 56  1  0  0  0  0
 55 57  1  0  0  0  0
 56 58  1  0  0  0  0
 57 61  1  0  0  0  0
 58 70  1  0  0  0  0
 59 62  1  0  0  0  0
 59 71  1  0  0  0  0
 60 74  1  0  0  0  0
 61 72  1  0  0  0  0
 63 64  1  0  0  0  0
M  CHG  1  74   1
M  ISO  4  34 100  54 101  73 100  83 101
M  END
> <Batch ID>
0015

> <Smiles>
CNC(C)C(=O)NC(C(=O)N1Cc2cc([101O:1][101CH2:1]C(=O)NC(C)CCCCNC(=O)C[100NH:0][100C:0](=O)N3CCCC(n4nc(-c5ccc(Oc6ccc(F)cc6F)cc5)c(C(N)=O)c4N)C3)ccc2CC1C(=O)NC1CCCc2ccccc21)C(C)(C)C

> <Shape>
0.227

> <Color>
0.071

> <Negative vol penalty>
0.000

$$$$

  -OEChem-04052315553D

 75 82  0     1  0  0  0  0  0999 V2000
  -32.6757  -26.9307   24.1935 C   0  0  0  0  0  0  0  0  0  0  0  0
  -33.2702  -25.6961   23.9527 C   0  0  0  0  0  0  0  0  0  0  0  0
  -23.1714   -9.8811   19.9137 C   0  0  0  0  0  0  0  0  0  0  0  0
  -23.5557  -10.0089   22.2955 C   0  0  0  0  0  0  0  0  0  0  0  0
  -31.2939  -27.0727   24.0744 C   0  0  0  0  0  0  0  0  0  0  0  0
  -32.4830  -24.6026   23.5938 C   0  0  0  0  0  0  0  0  0  0  0  0
  -34.0021  -20.0717   19.7637 C   0  0  0  0  0  0  0  0  0  0  0  0
  -22.3855   -8.7442   20.1014 C   0  0  0  0  0  0  0  0  0  0  0  0
  -22.7697   -8.8720   22.4833 C   0  0  0  0  0  0  0  0  0  0  0  0
  -34.4800  -18.7802   19.9813 C   0  0  0  0  0  0  0  0  0  0  0  0
  -21.1601   -5.7946   23.5550 C   0  0  0  0  0  0  0  0  0  0  0  0
  -21.6407   -4.8094   24.4175 C   0  0  0  0  0  0  0  0  0  0  0  0
  -32.2307  -17.9255   19.8106 C   0  0  0  0  0  0  0  0  0  0  0  0
  -23.5927   -4.5381   23.0199 C   0  0  0  0  0  0  0  0  0  0  0  0
  -23.7566  -10.5135   21.0107 C   0  0  0  0  0  0  0  0  0  0  0  0
  -24.1389  -13.0281   20.8149 C   0  0  0  0  0  0  0  0  0  0  0  0
  -30.4903  -25.9827   23.7044 C   0  0  0  0  0  0  0  0  0  0  0  0
  -32.6312  -20.3016   19.5785 C   0  0  0  0  0  0  0  0  0  0  0  0
  -31.0889  -24.7299   23.4710 C   0  0  0  0  0  0  0  0  0  0  0  0
  -31.7382  -19.2206   19.5883 C   0  0  0  0  0  0  0  0  0  0  0  0
  -22.1846   -8.2396   21.3862 C   0  0  0  0  0  0  0  0  0  0  0  0
  -33.5940  -17.7072   20.0076 C   0  0  0  0  0  0  0  0  0  0  0  0
  -21.8957   -6.1515   22.4248 C   0  0  0  0  0  0  0  0  0  0  0  0
  -22.8571   -4.1812   24.1500 C   0  0  0  0  0  0  0  0  0  0  0  0
  -23.1120   -5.5233   22.1573 C   0  0  0  0  0  0  0  0  0  0  0  0
  -24.5690  -11.6876   20.8173 C   0  0  0  0  0  0  0  0  0  0  0  0
  -25.2825  -13.7553   20.5922 C   0  0  0  0  0  0  0  0  0  0  0  0
  -22.8231  -13.5676   20.9979 C   0  0  0  0  0  0  0  0  0  0  0  0
  -30.4033  -21.9519   21.1331 C   0  0  0  0  0  0  0  0  0  0  0  0
  -28.5643  -21.1105   18.5969 C   0  0  0  0  0  0  0  0  0  0  0  0
  -27.9950  -18.9426   16.0234 C   0  0  0  0  0  0  0  0  0  0  0  0
  -30.8946  -12.8120   21.6977 C   0  0  0  0  0  0  0  0  0  0  0  0
  -28.9959  -26.1732   23.6345 C   0  0  0  0  0  0  0  0  0  0  0  0
  -32.1347  -21.6974   19.3183 C   0  0  0  0  0  0  0  0  0  0  0  0
  -30.2595  -19.4115   19.3746 C   0  0  0  0  0  0  0  0  0  0  0  0
  -28.2739  -25.0566   22.8848 C   0  0  0  0  0  0  0  0  0  0  0  0
  -29.5634  -13.4701   18.4935 C   0  0  0  0  0  0  0  0  0  0  0  0
  -28.7751  -23.6921   23.3473 C   0  0  0  0  0  0  0  0  0  0  0  0
  -28.0758  -13.2078   18.7242 C   0  0  0  0  0  0  0  0  0  0  0  0
  -30.4457  -12.4569   19.2251 C   0  0  0  0  0  0  0  0  0  0  0  0
  -28.6659  -12.0818   20.9026 C   0  0  0  0  0  0  0  0  0  0  0  0
  -30.2714  -23.5261   23.0554 C   0  0  1  0  0  0  0  0  0  0  0  0
  -30.6576  -21.8785   19.6540 C   0  0  1  0  0  0  0  0  0  0  0  0
  -27.7589  -13.1219   20.2273 C   0  0  2  0  0  0  0  0  0  0  0  0
  -26.3932  -18.4922   14.1448 C   0  0  0  0  0  0  0  0  0  0  0  0
  -26.5394  -20.0021   20.5923 C   0  0  0  0  0  0  0  0  0  0  0  0
  -25.4680  -18.7534   18.7052 C   0  0  0  0  0  0  0  0  0  0  0  0
  -25.5353  -21.2467   18.6695 C   0  0  0  0  0  0  0  0  0  0  0  0
  -32.9464  -11.7573   20.6572 C   0  0  0  0  0  0  0  0  0  0  0  0
  -30.1157  -19.2623   13.9840 C   0  0  0  0  0  0  0  0  0  0  0  0
  -34.0098  -14.5134   21.6426 C   0  0  0  0  0  0  0  0  0  0  0  0
  -33.1585  -13.4978   22.3926 C   0  0  0  0  0  0  0  0  0  0  0  0
  -33.1773  -15.5314   20.8726 C   0  0  0  0  0  0  0  0  0  1  0  0
  -27.6645  -19.9435   18.2691 C   0  0  1  0  0  0  0  0  0  0  0  0
  -27.6858  -19.1798   14.5562 C   0  0  2  0  0  0  0  0  0  0  0  0
  -26.3294  -19.9827   19.0650 C   0  0  0  0  0  0  0  0  0  0  0  0
  -25.8833  -11.5675   20.6121 N   0  0  0  0  0  0  0  0  0  0  0  0
  -26.2889  -12.8418   20.4787 N   0  0  0  0  0  0  0  0  0  0  0  0
  -29.8221  -20.7959   19.1303 N   0  0  0  0  0  0  0  0  0  0  0  0
  -30.0786  -12.3718   20.6452 N   0  0  0  0  0  0  0  0  0  0  0  0
  -25.5154  -15.0806   20.4843 N   0  0  0  0  0  0  0  0  0  0  0  0
  -21.7612  -12.6794   21.2161 N   0  0  0  0  0  0  0  0  0  0  0  0
  -30.4832  -23.2289   21.6549 N   0  0  0  0  0  0  0  0  0  0  0  0
  -27.4967  -19.9518   16.8199 N   0  0  0  0  0  0  0  0  0  0  0  0
  -32.2827  -12.7457   21.5051 N   0  0  0  0  0  0  0  0  0  0  0  0
  -28.7893  -18.6552   13.7029 N   0  3  0  0  0  0  0  0  0  0  0  0
  -22.5933  -14.7999   20.9523 O   0  0  0  0  0  0  0  0  0  0  0  0
  -30.1517  -20.9261   21.7545 O   0  0  0  0  0  0  0  0  0  0  0  0
  -28.1685  -22.2586   18.3806 O   0  0  0  0  0  0  0  0  0  0  0  0
  -28.6131  -17.9585   16.4232 O   0  0  0  0  0  0  0  0  0  0  0  0
  -30.4107  -13.2342   22.7559 O   0  0  0  0  0  0  0  0  0  0  0  0
  -21.4176   -7.1304   21.5699 O   0  0  0  0  0  0  0  0  0  0  0  0
  -34.0578  -16.4457   20.2205 O   0  0  0  0  0  0  0  0  0  1  0  0
  -23.3193   -3.2362   24.9792 F   0  0  0  0  0  0  0  0  0  0  0  0
  -23.8238   -5.8629   21.0738 F   0  0  0  0  0  0  0  0  0  0  0  0
  1  2  1  0  0  0  0
  1  5  2  0  0  0  0
  2  6  2  0  0  0  0
  3  8  2  0  0  0  0
  3 15  1  0  0  0  0
  4  9  1  0  0  0  0
  4 15  2  0  0  0  0
  5 17  1  0  0  0  0
  6 19  1  0  0  0  0
  7 10  2  0  0  0  0
  7 18  1  0  0  0  0
  8 21  1  0  0  0  0
  9 21  2  0  0  0  0
 10 22  1  0  0  0  0
 11 12  2  0  0  0  0
 11 23  1  0  0  0  0
 12 24  1  0  0  0  0
 13 20  1  0  0  0  0
 13 22  2  0  0  0  0
 14 24  2  0  0  0  0
 14 25  1  0  0  0  0
 15 26  1  0  0  0  0
 16 26  1  0  0  0  0
 16 27  2  0  0  0  0
 16 28  1  0  0  0  0
 17 19  2  0  0  0  0
 17 33  1  0  0  0  0
 18 20  2  0  0  0  0
 18 34  1  0  0  0  0
 19 42  1  0  0  0  0
 20 35  1  0  0  0  0
 21 72  1  0  0  0  0
 22 73  1  0  0  0  0
 23 25  2  0  0  0  0
 23 72  1  0  0  0  0
 24 74  1  0  0  0  0
 25 75  1  0  0  0  0
 26 57  2  0  0  0  0
 27 58  1  0  0  0  0
 27 61  1  0  0  0  0
 28 62  1  0  0  0  0
 28 67  2  0  0  0  0
 29 43  1  0  0  0  0
 29 63  1  0  0  0  0
 29 68  2  0  0  0  0
 30 54  1  0  0  0  0
 30 59  1  0  0  0  0
 30 69  2  0  0  0  0
 31 55  1  0  0  0  0
 31 64  1  0  0  0  0
 31 70  2  0  0  0  0
 32 60  1  0  0  0  0
 32 65  1  0  0  0  0
 32 71  2  0  0  0  0
 33 36  1  0  0  0  0
 34 43  1  0  0  0  0
 35 59  1  0  0  0  0
 36 38  1  0  0  0  0
 37 39  1  0  0  0  0
 37 40  1  0  0  0  0
 38 42  1  0  0  0  0
 39 44  1  0  0  0  0
 40 60  1  0  0  0  0
 41 44  1  0  0  0  0
 41 60  1  0  0  0  0
 42 63  1  0  0  0  0
 43 59  1  0  0  0  0
 44 58  1  0  0  0  0
 45 55  1  0  0  0  0
 46 56  1  0  0  0  0
 47 56  1  0  0  0  0
 48 56  1  0  0  0  0
 49 65  1  0  0  0  0
 50 66  1  0  0  0  0
 51 52  1  0  0  0  0
 51 53  1  0  0  0  0
 52 65  1  0  0  0  0
 53 73  1  0  0  0  0
 54 56  1  0  0  0  0
 54 64  1  0  0  0  0
 55 66  1  0  0  0  0
 57 58  1  0  0  0  0
M  CHG  1  66   1
M  ISO  4  32 100  53 101  65 100  73 101
M  END
> <Batch ID>
0015

> <Smiles>
CNC(C)C(=O)NC(C(=O)N1Cc2cc([101O:1][101CH2:1]CC[100N:0](C)[100C:0](=O)N3CCCC(n4nc(-c5ccc(Oc6ccc(F)cc6F)cc5)c(C(N)=O)c4N)C3)ccc2CC1C(=O)NC1CCCc2ccccc21)C(C)(C)C

> <Shape>
0.188

> <Color>
0.204

> <Negative vol penalty>
0.000

$$$$

  -OEChem-04052315553D

 85 93  0     1  0  0  0  0  0999 V2000
  -30.1372  -25.5329   17.2908 C   0  0  0  0  0  0  0  0  0  0  0  0
  -28.7499  -25.5725   17.3868 C   0  0  0  0  0  0  0  0  0  0  0  0
  -26.1571  -15.5243   22.6064 C   0  0  0  0  0  0  0  0  0  0  0  0
  -24.5584  -16.1339   20.9007 C   0  0  0  0  0  0  0  0  0  0  0  0
  -30.9214  -25.9714   18.3568 C   0  0  0  0  0  0  0  0  0  0  0  0
  -28.1460  -26.0497   18.5496 C   0  0  0  0  0  0  0  0  0  0  0  0
  -22.9166  -29.2116   18.9508 C   0  0  0  0  0  0  0  0  0  0  0  0
  -26.5501  -14.4238   21.8449 C   0  0  0  0  0  0  0  0  0  0  0  0
  -24.9513  -15.0333   20.1391 C   0  0  0  0  0  0  0  0  0  0  0  0
  -21.6102  -28.8295   19.2530 C   0  0  0  0  0  0  0  0  0  0  0  0
  -28.5131  -13.8275   19.1572 C   0  0  0  0  0  0  0  0  0  0  0  0
  -29.8805  -13.5861   19.0241 C   0  0  0  0  0  0  0  0  0  0  0  0
  -21.9614  -29.4694   21.5522 C   0  0  0  0  0  0  0  0  0  0  0  0
  -19.4285  -25.3751   26.6245 C   0  0  0  0  0  0  0  0  0  0  0  0
  -29.5976  -11.4174   20.0507 C   0  0  0  0  0  0  0  0  0  0  0  0
  -25.1612  -16.3794   22.1344 C   0  0  0  0  0  0  0  0  0  0  0  0
  -25.2942  -18.8156   22.8791 C   0  0  0  0  0  0  0  0  0  0  0  0
  -30.3268  -26.4633   19.5295 C   0  0  0  0  0  0  0  0  0  0  0  0
  -23.7600  -29.7161   19.9510 C   0  0  0  0  0  0  0  0  0  0  0  0
  -28.9230  -26.4940   19.6329 C   0  0  0  0  0  0  0  0  0  0  0  0
  -23.2772  -29.8596   21.2596 C   0  0  0  0  0  0  0  0  0  0  0  0
  -19.8668  -24.0520   26.5702 C   0  0  0  0  0  0  0  0  0  0  0  0
  -19.0561  -23.8765   24.3011 C   0  0  0  0  0  0  0  0  0  0  0  0
  -18.6178  -25.1997   24.3554 C   0  0  0  0  0  0  0  0  0  0  0  0
  -19.6806  -23.3027   25.4085 C   0  0  0  0  0  0  0  0  0  0  0  0
  -25.9472  -14.1783   20.6112 C   0  0  0  0  0  0  0  0  0  0  0  0
  -21.1334  -28.9557   20.5544 C   0  0  0  0  0  0  0  0  0  0  0  0
  -27.6880  -12.8638   19.7370 C   0  0  0  0  0  0  0  0  0  0  0  0
  -30.4227  -12.3811   19.4709 C   0  0  0  0  0  0  0  0  0  0  0  0
  -18.8040  -25.9489   25.5171 C   0  0  0  0  0  0  0  0  0  0  0  0
  -28.2302  -11.6588   20.1838 C   0  0  0  0  0  0  0  0  0  0  0  0
  -24.7545  -17.5161   22.9209 C   0  0  0  0  0  0  0  0  0  0  0  0
  -24.5685  -19.5188   23.8094 C   0  0  0  0  0  0  0  0  0  0  0  0
  -26.3564  -19.3403   22.0716 C   0  0  0  0  0  0  0  0  0  0  0  0
  -26.5158  -28.7924   21.2378 C   0  0  0  0  0  0  0  0  0  0  0  0
  -26.3030  -31.6391   22.7782 C   0  0  0  0  0  0  0  0  0  0  0  0
  -24.3232  -34.1689   23.9305 C   0  0  0  0  0  0  0  0  0  0  0  0
  -19.7209  -20.9028   26.1734 C   0  0  0  0  0  0  0  0  0  0  0  0
  -31.2158  -26.8821   20.6736 C   0  0  0  0  0  0  0  0  0  0  0  0
  -25.1580  -30.1488   19.6031 C   0  0  0  0  0  0  0  0  0  0  0  0
  -24.1361  -30.4146   22.3654 C   0  0  0  0  0  0  0  0  0  0  0  0
  -30.4983  -27.7233   21.7262 C   0  0  0  0  0  0  0  0  0  0  0  0
  -21.2943  -17.9234   27.3245 C   0  0  0  0  0  0  0  0  0  0  0  0
  -29.1568  -27.0942   22.0886 C   0  0  0  0  0  0  0  0  0  0  0  0
  -22.3791  -17.6588   26.2780 C   0  0  0  0  0  0  0  0  0  0  0  0
  -20.0244  -18.4919   26.6937 C   0  0  0  0  0  0  0  0  0  0  0  0
  -21.3115  -19.4140   24.8062 C   0  0  0  0  0  0  0  0  0  0  0  0
  -28.2308  -27.0280   20.8681 C   0  0  1  0  0  0  0  0  0  0  0  0
  -26.0943  -30.1688   20.8074 C   0  0  1  0  0  0  0  0  0  0  0  0
  -22.6327  -18.9016   25.4024 C   0  0  2  0  0  0  0  0  0  0  0  0
  -20.5317  -23.4653   27.7731 C   0  0  0  0  0  0  0  0  0  0  0  0
  -18.8527  -23.0777   23.0516 C   0  0  0  0  0  0  0  0  0  0  0  0
  -24.4316  -36.3405   25.1834 C   0  0  0  0  0  0  0  0  0  0  0  0
  -17.5994  -25.6522   20.0878 C   0  0  0  0  0  0  0  0  0  0  0  0
  -26.6680  -30.1095   25.3930 C   0  0  0  0  0  0  0  0  0  0  0  0
  -25.8305  -32.1302   26.6110 C   0  0  0  0  0  0  0  0  0  0  0  0
  -27.9248  -32.2677   25.2628 C   0  0  0  0  0  0  0  0  0  0  0  0
  -23.2292  -35.6819   21.6342 C   0  0  0  0  0  0  0  0  0  0  0  0
  -17.9438  -25.8380   23.1767 C   0  0  0  0  0  0  0  0  0  0  0  0
  -19.2928  -27.5277   20.0762 C   0  0  0  0  0  0  0  0  0  1  0  0
  -25.6966  -32.1083   24.0787 C   0  0  1  0  0  0  0  0  0  0  0  0
  -24.4472  -35.6774   23.8148 C   0  0  2  0  0  0  0  0  0  0  0  0
  -18.2360  -26.7809   20.8823 C   0  0  2  0  0  0  0  0  0  0  0  0
  -26.5141  -31.6416   25.3162 C   0  0  0  0  0  0  0  0  0  0  0  0
  -23.7627  -17.3979   23.8076 N   0  0  0  0  0  0  0  0  0  0  0  0
  -23.6734  -18.6322   24.3317 N   0  0  0  0  0  0  0  0  0  0  0  0
  -25.4976  -30.8178   21.9766 N   0  0  0  0  0  0  0  0  0  0  0  0
  -20.3413  -19.6694   25.8825 N   0  0  0  0  0  0  0  0  0  0  0  0
  -24.6152  -20.8029   24.2235 N   0  0  0  0  0  0  0  0  0  0  0  0
  -26.9950  -18.4810   21.1671 N   0  0  0  0  0  0  0  0  0  0  0  0
  -20.1247  -21.9582   25.3563 N   0  0  0  0  0  0  0  0  0  0  0  0
  -27.6512  -28.3272   20.6023 N   0  0  0  0  0  0  0  0  0  0  0  0
  -25.5579  -33.5562   23.9656 N   0  0  0  0  0  0  0  0  0  0  0  0
  -23.3196  -36.2298   23.0121 N   0  3  0  0  0  0  0  0  0  0  0  0
  -18.8888  -26.1911   22.0869 N   0  3  0  0  0  0  0  0  0  0  0  0
  -26.7392  -20.5314   22.1616 O   0  0  0  0  0  0  0  0  0  0  0  0
  -25.8604  -28.1970   22.0850 O   0  0  0  0  0  0  0  0  0  0  0  0
  -27.4463  -31.9943   22.4812 O   0  0  0  0  0  0  0  0  0  0  0  0
  -23.2394  -33.5921   23.9879 O   0  0  0  0  0  0  0  0  0  0  0  0
  -18.9127  -21.0206   27.0980 O   0  0  0  0  0  0  0  0  0  0  0  0
  -26.3305  -13.1046   19.8677 O   0  0  0  0  0  0  0  0  0  0  0  0
  -19.8590  -28.5829   20.8523 O   0  0  0  0  0  0  0  0  0  1  0  0
  -31.7355  -12.1489   19.3416 F   0  0  0  0  0  0  0  0  0  0  0  0
  -18.3874  -27.2215   25.5791 F   0  0  0  0  0  0  0  0  0  0  0  0
  -27.4423  -10.7288   20.7406 F   0  0  0  0  0  0  0  0  0  0  0  0
  1  2  1  0  0  0  0
  1  5  2  0  0  0  0
  2  6  2  0  0  0  0
  3  8  2  0  0  0  0
  3 16  1  0  0  0  0
  4  9  1  0  0  0  0
  4 16  2  0  0  0  0
  5 18  1  0  0  0  0
  6 20  1  0  0  0  0
  7 10  2  0  0  0  0
  7 19  1  0  0  0  0
  8 26  1  0  0  0  0
  9 26  2  0  0  0  0
 10 27  1  0  0  0  0
 11 12  2  0  0  0  0
 11 28  1  0  0  0  0
 12 29  1  0  0  0  0
 13 21  1  0  0  0  0
 13 27  2  0  0  0  0
 14 22  1  0  0  0  0
 14 30  2  0  0  0  0
 15 29  2  0  0  0  0
 15 31  1  0  0  0  0
 16 32  1  0  0  0  0
 17 32  1  0  0  0  0
 17 33  2  0  0  0  0
 17 34  1  0  0  0  0
 18 20  2  0  0  0  0
 18 39  1  0  0  0  0
 19 21  2  0  0  0  0
 19 40  1  0  0  0  0
 20 48  1  0  0  0  0
 21 41  1  0  0  0  0
 22 25  2  0  0  0  0
 22 51  1  0  0  0  0
 23 24  2  0  0  0  0
 23 25  1  0  0  0  0
 23 52  1  0  0  0  0
 24 30  1  0  0  0  0
 24 59  1  0  0  0  0
 25 71  1  0  0  0  0
 26 81  1  0  0  0  0
 27 82  1  0  0  0  0
 28 31  2  0  0  0  0
 28 81  1  0  0  0  0
 29 83  1  0  0  0  0
 30 84  1  0  0  0  0
 31 85  1  0  0  0  0
 32 65  2  0  0  0  0
 33 66  1  0  0  0  0
 33 69  1  0  0  0  0
 34 70  1  0  0  0  0
 34 76  2  0  0  0  0
 35 49  1  0  0  0  0
 35 72  1  0  0  0  0
 35 77  2  0  0  0  0
 36 61  1  0  0  0  0
 36 67  1  0  0  0  0
 36 78  2  0  0  0  0
 37 62  1  0  0  0  0
 37 73  1  0  0  0  0
 37 79  2  0  0  0  0
 38 68  1  0  0  0  0
 38 71  1  0  0  0  0
 38 80  2  0  0  0  0
 39 42  1  0  0  0  0
 40 49  1  0  0  0  0
 41 67  1  0  0  0  0
 42 44  1  0  0  0  0
 43 45  1  0  0  0  0
 43 46  1  0  0  0  0
 44 48  1  0  0  0  0
 45 50  1  0  0  0  0
 46 68  1  0  0  0  0
 47 50  1  0  0  0  0
 47 68  1  0  0  0  0
 48 72  1  0  0  0  0
 49 67  1  0  0  0  0
 50 66  1  0  0  0  0
 53 62  1  0  0  0  0
 54 63  1  0  0  0  0
 55 64  1  0  0  0  0
 56 64  1  0  0  0  0
 57 64  1  0  0  0  0
 58 74  1  0  0  0  0
 59 75  1  0  0  0  0
 60 63  1  0  0  0  0
 60 82  1  0  0  0  0
 61 64  1  0  0  0  0
 61 73  1  0  0  0  0
 62 74  1  0  0  0  0
 63 75  1  0  0  0  0
 65 66  1  0  0  0  0
M  CHG  2  74   1  75   1
M  ISO  4  38 100  60 101  71 100  82 101
M  END
> <Batch ID>
0015

> <Smiles>
CNC(C)C(=O)NC(C(=O)N1Cc2cc([101O:1][101CH2:1]C(C)NCc3c(F)cc(C)c([100NH:0][100C:0](=O)N4CCCC(n5nc(-c6ccc(Oc7ccc(F)cc7F)cc6)c(C(N)=O)c5N)C4)c3C)ccc2CC1C(=O)NC1CCCc2ccccc21)C(C)(C)C

> <Shape>
0.278

> <Color>
0.075

> <Negative vol penalty>
0.000

$$$$

  -OEChem-04052315553D

 85 93  0     1  0  0  0  0  0999 V2000
  -25.5118  -33.1348   18.5829 C   0  0  0  0  0  0  0  0  0  0  0  0
  -25.9958  -31.9044   19.0155 C   0  0  0  0  0  0  0  0  0  0  0  0
  -23.1052   -9.7668   20.0021 C   0  0  0  0  0  0  0  0  0  0  0  0
  -23.6367  -10.0479   22.3421 C   0  0  0  0  0  0  0  0  0  0  0  0
  -24.4948  -33.7713   19.2931 C   0  0  0  0  0  0  0  0  0  0  0  0
  -25.4637  -31.3102   20.1593 C   0  0  0  0  0  0  0  0  0  0  0  0
  -24.5360  -26.3717   19.5304 C   0  0  0  0  0  0  0  0  0  0  0  0
  -22.3520   -8.6337   20.3093 C   0  0  0  0  0  0  0  0  0  0  0  0
  -22.8834   -8.9148   22.6493 C   0  0  0  0  0  0  0  0  0  0  0  0
  -25.6264  -25.5055   19.5965 C   0  0  0  0  0  0  0  0  0  0  0  0
  -23.2606   -5.5580   22.5051 C   0  0  0  0  0  0  0  0  0  0  0  0
  -23.8130   -4.6332   23.3912 C   0  0  0  0  0  0  0  0  0  0  0  0
  -25.0388  -24.9487   21.8689 C   0  0  0  0  0  0  0  0  0  0  0  0
  -30.6321  -19.1943   20.0538 C   0  0  0  0  0  0  0  0  0  0  0  0
  -21.9509   -4.9620   24.8952 C   0  0  0  0  0  0  0  0  0  0  0  0
  -23.7477  -10.4739   21.0185 C   0  0  0  0  0  0  0  0  0  0  0  0
  -24.0744  -12.9761   20.6447 C   0  0  0  0  0  0  0  0  0  0  0  0
  -23.9432  -33.1800   20.4407 C   0  0  0  0  0  0  0  0  0  0  0  0
  -23.6936  -26.5414   20.6386 C   0  0  0  0  0  0  0  0  0  0  0  0
  -24.4392  -31.9400   20.8862 C   0  0  0  0  0  0  0  0  0  0  0  0
  -23.9368  -25.8157   21.8134 C   0  0  0  0  0  0  0  0  0  0  0  0
  -30.3269  -20.0357   21.1236 C   0  0  0  0  0  0  0  0  0  0  0  0
  -29.8697  -19.4969   22.3262 C   0  0  0  0  0  0  0  0  0  0  0  0
  -29.7176  -18.1167   22.4590 C   0  0  0  0  0  0  0  0  0  0  0  0
  -30.4801  -17.8141   20.1865 C   0  0  0  0  0  0  0  0  0  0  0  0
  -30.0229  -17.2753   21.3892 C   0  0  0  0  0  0  0  0  0  0  0  0
  -22.2410   -8.2077   21.6328 C   0  0  0  0  0  0  0  0  0  0  0  0
  -25.8797  -24.7960   20.7668 C   0  0  0  0  0  0  0  0  0  0  0  0
  -22.0534   -6.1849   22.8141 C   0  0  0  0  0  0  0  0  0  0  0  0
  -23.1582   -4.3352   24.5862 C   0  0  0  0  0  0  0  0  0  0  0  0
  -21.3986   -5.8869   24.0091 C   0  0  0  0  0  0  0  0  0  0  0  0
  -24.5264  -11.6441   20.7018 C   0  0  0  0  0  0  0  0  0  0  0  0
  -25.1894  -13.7027   20.3050 C   0  0  0  0  0  0  0  0  0  0  0  0
  -22.7639  -13.5089   20.8778 C   0  0  0  0  0  0  0  0  0  0  0  0
  -22.9065  -28.9923   22.5033 C   0  0  0  0  0  0  0  0  0  0  0  0
  -20.8177  -26.8564   23.7671 C   0  0  0  0  0  0  0  0  0  0  0  0
  -19.9953  -23.5918   24.3268 C   0  0  0  0  0  0  0  0  0  0  0  0
  -30.6015  -14.8760   20.8843 C   0  0  0  0  0  0  0  0  0  0  0  0
  -22.8779  -33.9283   21.2022 C   0  0  0  0  0  0  0  0  0  0  0  0
  -22.5060  -27.4593   20.5423 C   0  0  0  0  0  0  0  0  0  0  0  0
  -23.0508  -25.9470   23.0243 C   0  0  0  0  0  0  0  0  0  0  0  0
  -22.1094  -33.0554   22.1910 C   0  0  0  0  0  0  0  0  0  0  0  0
  -29.7485  -12.1880   18.7107 C   0  0  0  0  0  0  0  0  0  0  0  0
  -23.0723  -32.2014   23.0097 C   0  0  0  0  0  0  0  0  0  0  0  0
  -28.2767  -11.9165   19.0302 C   0  0  0  0  0  0  0  0  0  0  0  0
  -30.5392  -12.5698   19.9608 C   0  0  0  0  0  0  0  0  0  0  0  0
  -28.4990  -13.4049   21.0605 C   0  0  0  0  0  0  0  0  0  0  0  0
  -23.8705  -31.2518   22.1082 C   0  0  1  0  0  0  0  0  0  0  0  0
  -22.0135  -27.9439   21.9024 C   0  0  1  0  0  0  0  0  0  0  0  0
  -27.6480  -13.0798   19.8221 C   0  0  2  0  0  0  0  0  0  0  0  0
  -29.5432  -20.4021   23.4717 C   0  0  0  0  0  0  0  0  0  0  0  0
  -29.2265  -17.5433   23.7520 C   0  0  0  0  0  0  0  0  0  0  0  0
  -18.2483  -22.1601   25.4201 C   0  0  0  0  0  0  0  0  0  0  0  0
  -29.5968  -24.2832   22.0617 C   0  0  0  0  0  0  0  0  0  0  0  0
  -21.9963  -27.5125   26.5040 C   0  0  0  0  0  0  0  0  0  0  0  0
  -20.9222  -25.4309   27.3881 C   0  0  0  0  0  0  0  0  0  0  0  0
  -19.5075  -27.2695   26.4710 C   0  0  0  0  0  0  0  0  0  0  0  0
  -19.2749  -22.3077   21.7595 C   0  0  0  0  0  0  0  0  0  0  0  0
  -30.4991  -21.5165   20.9545 C   0  0  0  0  0  0  0  0  0  0  0  0
  -28.0829  -24.2752   20.0385 C   0  0  0  0  0  0  0  0  0  1  0  0
  -20.8690  -25.8451   24.8868 C   0  0  1  0  0  0  0  0  0  0  0  0
  -18.6951  -22.8329   24.1316 C   0  0  2  0  0  0  0  0  0  0  0  0
  -29.3524  -23.7174   20.6722 C   0  0  2  0  0  0  0  0  0  0  0  0
  -20.8418  -26.5133   26.2905 C   0  0  0  0  0  0  0  0  0  0  0  0
  -25.8270  -11.5284   20.4208 N   0  0  0  0  0  0  0  0  0  0  0  0
  -26.2019  -12.7970   20.1837 N   0  0  0  0  0  0  0  0  0  0  0  0
  -21.9059  -26.8616   22.8829 N   0  0  0  0  0  0  0  0  0  0  0  0
  -29.8867  -13.6809   20.6570 N   0  0  0  0  0  0  0  0  0  0  0  0
  -30.7956  -16.9820   19.0887 N   0  0  0  0  0  0  0  0  0  0  0  0
  -25.3927  -15.0216   20.1012 N   0  0  0  0  0  0  0  0  0  0  0  0
  -21.7330  -12.6224   21.2177 N   0  0  0  0  0  0  0  0  0  0  0  0
  -29.8679  -15.8735   21.5257 N   0  0  0  0  0  0  0  0  0  0  0  0
  -23.0562  -30.1203   21.7193 N   0  0  0  0  0  0  0  0  0  0  0  0
  -19.7716  -24.9143   24.6467 N   0  0  0  0  0  0  0  0  0  0  0  0
  -18.8598  -21.7836   23.0861 N   0  3  0  0  0  0  0  0  0  0  0  0
  -29.2110  -22.2372   20.7910 N   0  3  0  0  0  0  0  0  0  0  0  0
  -22.5110  -14.7330   20.7714 O   0  0  0  0  0  0  0  0  0  0  0  0
  -23.4203  -28.7932   23.5978 O   0  0  0  0  0  0  0  0  0  0  0  0
  -19.8446  -27.6089   23.6760 O   0  0  0  0  0  0  0  0  0  0  0  0
  -21.0989  -23.0634   24.2109 O   0  0  0  0  0  0  0  0  0  0  0  0
  -31.7692  -15.0147   20.5112 O   0  0  0  0  0  0  0  0  0  0  0  0
  -21.5059   -7.1023   21.9330 O   0  0  0  0  0  0  0  0  0  0  0  0
  -26.9437  -23.9504   20.8342 O   0  0  0  0  0  0  0  0  0  1  0  0
  -23.6880   -3.4459   25.4363 F   0  0  0  0  0  0  0  0  0  0  0  0
  -20.2380   -6.4850   24.3108 F   0  0  0  0  0  0  0  0  0  0  0  0
  1  2  1  0  0  0  0
  1  5  2  0  0  0  0
  2  6  2  0  0  0  0
  3  8  2  0  0  0  0
  3 16  1  0  0  0  0
  4  9  1  0  0  0  0
  4 16  2  0  0  0  0
  5 18  1  0  0  0  0
  6 20  1  0  0  0  0
  7 10  2  0  0  0  0
  7 19  1  0  0  0  0
  8 27  1  0  0  0  0
  9 27  2  0  0  0  0
 10 28  1  0  0  0  0
 11 12  2  0  0  0  0
 11 29  1  0  0  0  0
 12 30  1  0  0  0  0
 13 21  1  0  0  0  0
 13 28  2  0  0  0  0
 14 22  1  0  0  0  0
 14 25  2  0  0  0  0
 15 30  2  0  0  0  0
 15 31  1  0  0  0  0
 16 32  1  0  0  0  0
 17 32  1  0  0  0  0
 17 33  2  0  0  0  0
 17 34  1  0  0  0  0
 18 20  2  0  0  0  0
 18 39  1  0  0  0  0
 19 21  2  0  0  0  0
 19 40  1  0  0  0  0
 20 48  1  0  0  0  0
 21 41  1  0  0  0  0
 22 23  2  0  0  0  0
 22 59  1  0  0  0  0
 23 24  1  0  0  0  0
 23 51  1  0  0  0  0
 24 26  2  0  0  0  0
 24 52  1  0  0  0  0
 25 26  1  0  0  0  0
 25 69  1  0  0  0  0
 26 72  1  0  0  0  0
 27 82  1  0  0  0  0
 28 83  1  0  0  0  0
 29 31  2  0  0  0  0
 29 82  1  0  0  0  0
 30 84  1  0  0  0  0
 31 85  1  0  0  0  0
 32 65  2  0  0  0  0
 33 66  1  0  0  0  0
 33 70  1  0  0  0  0
 34 71  1  0  0  0  0
 34 77  2  0  0  0  0
 35 49  1  0  0  0  0
 35 73  1  0  0  0  0
 35 78  2  0  0  0  0
 36 61  1  0  0  0  0
 36 67  1  0  0  0  0
 36 79  2  0  0  0  0
 37 62  1  0  0  0  0
 37 74  1  0  0  0  0
 37 80  2  0  0  0  0
 38 68  1  0  0  0  0
 38 72  1  0  0  0  0
 38 81  2  0  0  0  0
 39 42  1  0  0  0  0
 40 49  1  0  0  0  0
 41 67  1  0  0  0  0
 42 44  1  0  0  0  0
 43 45  1  0  0  0  0
 43 46  1  0  0  0  0
 44 48  1  0  0  0  0
 45 50  1  0  0  0  0
 46 68  1  0  0  0  0
 47 50  1  0  0  0  0
 47 68  1  0  0  0  0
 48 73  1  0  0  0  0
 49 67  1  0  0  0  0
 50 66  1  0  0  0  0
 53 62  1  0  0  0  0
 54 63  1  0  0  0  0
 55 64  1  0  0  0  0
 56 64  1  0  0  0  0
 57 64  1  0  0  0  0
 58 75  1  0  0  0  0
 59 76  1  0  0  0  0
 60 63  1  0  0  0  0
 60 83  1  0  0  0  0
 61 64  1  0  0  0  0
 61 74  1  0  0  0  0
 62 75  1  0  0  0  0
 63 76  1  0  0  0  0
 65 66  1  0  0  0  0
M  CHG  2  75   1  76   1
M  ISO  4  38 100  60 101  72 100  83 101
M  END
> <Batch ID>
0015

> <Smiles>
CNC(C)C(=O)NC(C(=O)N1Cc2cc([101O:1][101CH2:1]C(C)NCc3cc(N)c([100NH:0][100C:0](=O)N4CCCC(n5nc(-c6ccc(Oc7ccc(F)cc7F)cc6)c(C(N)=O)c5N)C4)c(C)c3C)ccc2CC1C(=O)NC1CCCc2ccccc21)C(C)(C)C

> <Shape>
0.288

> <Color>
0.207

> <Negative vol penalty>
0.000

$$$$

  -OEChem-04052315553D

 87 95  0     1  0  0  0  0  0999 V2000
  -24.9835  -12.3662   27.4846 C   0  0  0  0  0  0  0  0  0  0  0  0
  -25.5565  -13.6173   27.2799 C   0  0  0  0  0  0  0  0  0  0  0  0
  -23.0001   -9.8949   19.9799 C   0  0  0  0  0  0  0  0  0  0  0  0
  -23.7260   -9.9442   22.2837 C   0  0  0  0  0  0  0  0  0  0  0  0
  -23.6829  -12.1167   27.0488 C   0  0  0  0  0  0  0  0  0  0  0  0
  -24.8294  -14.6194   26.6383 C   0  0  0  0  0  0  0  0  0  0  0  0
  -25.2248  -19.0997   28.9655 C   0  0  0  0  0  0  0  0  0  0  0  0
  -22.2333   -8.7604   20.2457 C   0  0  0  0  0  0  0  0  0  0  0  0
  -22.9592   -8.8097   22.5496 C   0  0  0  0  0  0  0  0  0  0  0  0
  -26.3966  -19.8252   28.7551 C   0  0  0  0  0  0  0  0  0  0  0  0
  -23.2025   -5.4711   22.0755 C   0  0  0  0  0  0  0  0  0  0  0  0
  -23.7900   -4.4532   22.8268 C   0  0  0  0  0  0  0  0  0  0  0  0
  -25.2529  -21.1885   27.1264 C   0  0  0  0  0  0  0  0  0  0  0  0
  -32.0597  -16.5471   22.5633 C   0  0  0  0  0  0  0  0  0  0  0  0
  -30.4730  -18.3422   23.9925 C   0  0  0  0  0  0  0  0  0  0  0  0
  -22.0668   -4.6955   24.5027 C   0  0  0  0  0  0  0  0  0  0  0  0
  -23.7465  -10.4868   20.9989 C   0  0  0  0  0  0  0  0  0  0  0  0
  -24.1324  -13.0024   20.8243 C   0  0  0  0  0  0  0  0  0  0  0  0
  -22.9360  -13.1192   26.4101 C   0  0  0  0  0  0  0  0  0  0  0  0
  -24.0592  -19.4066   28.2487 C   0  0  0  0  0  0  0  0  0  0  0  0
  -23.5180  -14.3827   26.1923 C   0  0  0  0  0  0  0  0  0  0  0  0
  -24.0670  -20.4671   27.3314 C   0  0  0  0  0  0  0  0  0  0  0  0
  -32.6499  -17.4425   23.4553 C   0  0  0  0  0  0  0  0  0  0  0  0
  -30.6762  -16.5493   22.3859 C   0  0  0  0  0  0  0  0  0  0  0  0
  -22.2129   -8.2179   21.5306 C   0  0  0  0  0  0  0  0  0  0  0  0
  -26.4116  -20.8680   27.8334 C   0  0  0  0  0  0  0  0  0  0  0  0
  -22.0471   -6.1012   22.5378 C   0  0  0  0  0  0  0  0  0  0  0  0
  -31.8566  -18.3400   24.1699 C   0  0  0  0  0  0  0  0  0  0  0  0
  -23.2222   -4.0654   24.0403 C   0  0  0  0  0  0  0  0  0  0  0  0
  -29.8828  -17.4469   23.1005 C   0  0  0  0  0  0  0  0  0  0  0  0
  -21.4793   -5.7134   23.7514 C   0  0  0  0  0  0  0  0  0  0  0  0
  -24.5391  -11.6583   20.7247 C   0  0  0  0  0  0  0  0  0  0  0  0
  -25.2422  -13.7249   20.4600 C   0  0  0  0  0  0  0  0  0  0  0  0
  -22.8647  -13.5489   21.2116 C   0  0  0  0  0  0  0  0  0  0  0  0
  -22.2185  -17.8416   26.1833 C   0  0  0  0  0  0  0  0  0  0  0  0
  -20.3436  -20.4745   26.4566 C   0  0  0  0  0  0  0  0  0  0  0  0
  -29.8425  -21.4723   26.8954 C   0  0  0  0  0  0  0  0  0  0  0  0
  -20.1030  -23.7942   27.2108 C   0  0  0  0  0  0  0  0  0  0  0  0
  -30.7220  -14.6844   20.6929 C   0  0  0  0  0  0  0  0  0  0  0  0
  -21.5507  -12.7879   25.9144 C   0  0  0  0  0  0  0  0  0  0  0  0
  -22.7961  -18.6317   28.5066 C   0  0  0  0  0  0  0  0  0  0  0  0
  -22.8368  -20.8497   26.5512 C   0  0  0  0  0  0  0  0  0  0  0  0
  -20.7136  -14.0192   25.5775 C   0  0  0  0  0  0  0  0  0  0  0  0
  -29.6023  -12.2333   18.3657 C   0  0  0  0  0  0  0  0  0  0  0  0
  -21.5267  -15.0064   24.7462 C   0  0  0  0  0  0  0  0  0  0  0  0
  -28.1518  -11.9758   18.7802 C   0  0  0  0  0  0  0  0  0  0  0  0
  -30.5033  -12.4757   19.5754 C   0  0  0  0  0  0  0  0  0  0  0  0
  -28.5886  -13.2642   20.9100 C   0  0  0  0  0  0  0  0  0  0  0  0
  -22.7524  -15.5030   25.5224 C   0  0  1  0  0  0  0  0  0  0  0  0
  -21.8070  -18.6983   27.3471 C   0  0  1  0  0  0  0  0  0  0  0  0
  -27.6305  -13.0789   19.7220 C   0  0  2  0  0  0  0  0  0  0  0  0
  -34.1324  -17.4276   23.6325 C   0  0  0  0  0  0  0  0  0  0  0  0
  -18.4477  -25.6780   27.3046 C   0  0  0  0  0  0  0  0  0  0  0  0
  -20.4267  -20.6959   23.4145 C   0  0  0  0  0  0  0  0  0  0  0  0
  -19.5982  -23.0484   23.6327 C   0  0  0  0  0  0  0  0  0  0  0  0
  -18.1886  -21.1522   24.4330 C   0  0  0  0  0  0  0  0  0  0  0  0
  -31.4530  -19.8022   27.8277 C   0  0  0  0  0  0  0  0  0  0  0  0
  -20.5237  -24.1732   30.1156 C   0  0  0  0  0  0  0  0  0  0  0  0
  -28.7896  -20.8884   27.8137 C   0  0  0  0  0  0  0  0  0  1  0  0
  -32.2117  -21.3783   26.0933 C   0  0  0  0  0  0  0  0  0  0  0  0
  -32.2127  -20.6096   24.7846 C   0  0  0  0  0  0  0  0  0  0  0  0
  -20.2524  -21.8009   25.7415 C   0  0  1  0  0  0  0  0  0  0  0  0
  -19.1250  -24.5607   28.0829 C   0  0  2  0  0  0  0  0  0  0  0  0
  -19.6404  -21.6661   24.3185 C   0  0  0  0  0  0  0  0  0  0  0  0
  -25.8083  -11.5318   20.3281 N   0  0  0  0  0  0  0  0  0  0  0  0
  -26.2085  -12.8055   20.1751 N   0  0  0  0  0  0  0  0  0  0  0  0
  -21.6281  -20.0581   26.8341 N   0  0  0  0  0  0  0  0  0  0  0  0
  -29.9488  -13.5363   20.4195 N   0  0  0  0  0  0  0  0  0  0  0  0
  -25.4760  -15.0506   20.3587 N   0  0  0  0  0  0  0  0  0  0  0  0
  -21.8328  -12.6648   21.5549 N   0  0  0  0  0  0  0  0  0  0  0  0
  -30.0782  -15.6393   21.4792 N   0  0  0  0  0  0  0  0  0  0  0  0
  -22.3643  -16.5030   26.4939 N   0  0  0  0  0  0  0  0  0  0  0  0
  -19.5128  -22.6927   26.6281 N   0  0  0  0  0  0  0  0  0  0  0  0
  -31.1172  -20.9066   26.9377 N   0  0  0  0  0  0  0  0  0  0  0  0
  -19.8320  -25.1618   29.2490 N   0  3  0  0  0  0  0  0  0  0  0  0
  -22.6483  -14.7842   21.2362 O   0  0  0  0  0  0  0  0  0  0  0  0
  -22.3895  -18.3566   25.0846 O   0  0  0  0  0  0  0  0  0  0  0  0
  -19.3125  -19.8350   26.6786 O   0  0  0  0  0  0  0  0  0  0  0  0
  -29.5289  -22.4076   26.1526 O   0  0  0  0  0  0  0  0  0  0  0  0
  -21.2724  -24.1403   27.0585 O   0  0  0  0  0  0  0  0  0  0  0  0
  -31.8606  -14.8233   20.2386 O   0  0  0  0  0  0  0  0  0  0  0  0
  -21.4646   -7.1110   21.7904 O   0  0  0  0  0  0  0  0  0  0  0  0
  -27.5542  -21.5773   27.6257 O   0  0  0  0  0  0  0  0  0  1  0  0
  -32.4197  -19.2279   25.0487 O   0  0  0  0  0  0  0  0  0  0  0  0
  -23.7856   -3.0869   24.7609 F   0  0  0  0  0  0  0  0  0  0  0  0
  -28.5523  -17.4593   22.9359 F   0  0  0  0  0  0  0  0  0  0  0  0
  -20.3687   -6.3143   24.2002 F   0  0  0  0  0  0  0  0  0  0  0  0
  1  2  1  0  0  0  0
  1  5  2  0  0  0  0
  2  6  2  0  0  0  0
  3  8  2  0  0  0  0
  3 17  1  0  0  0  0
  4  9  1  0  0  0  0
  4 17  2  0  0  0  0
  5 19  1  0  0  0  0
  6 21  1  0  0  0  0
  7 10  2  0  0  0  0
  7 20  1  0  0  0  0
  8 25  1  0  0  0  0
  9 25  2  0  0  0  0
 10 26  1  0  0  0  0
 11 12  2  0  0  0  0
 11 27  1  0  0  0  0
 12 29  1  0  0  0  0
 13 22  1  0  0  0  0
 13 26  2  0  0  0  0
 14 23  1  0  0  0  0
 14 24  2  0  0  0  0
 15 28  1  0  0  0  0
 15 30  2  0  0  0  0
 16 29  2  0  0  0  0
 16 31  1  0  0  0  0
 17 32  1  0  0  0  0
 18 32  1  0  0  0  0
 18 33  2  0  0  0  0
 18 34  1  0  0  0  0
 19 21  2  0  0  0  0
 19 40  1  0  0  0  0
 20 22  2  0  0  0  0
 20 41  1  0  0  0  0
 21 49  1  0  0  0  0
 22 42  1  0  0  0  0
 23 28  2  0  0  0  0
 23 52  1  0  0  0  0
 24 30  1  0  0  0  0
 24 71  1  0  0  0  0
 25 82  1  0  0  0  0
 26 83  1  0  0  0  0
 27 31  2  0  0  0  0
 27 82  1  0  0  0  0
 28 84  1  0  0  0  0
 29 85  1  0  0  0  0
 30 86  1  0  0  0  0
 31 87  1  0  0  0  0
 32 65  2  0  0  0  0
 33 66  1  0  0  0  0
 33 69  1  0  0  0  0
 34 70  1  0  0  0  0
 34 76  2  0  0  0  0
 35 50  1  0  0  0  0
 35 72  1  0  0  0  0
 35 77  2  0  0  0  0
 36 62  1  0  0  0  0
 36 67  1  0  0  0  0
 36 78  2  0  0  0  0
 37 59  1  0  0  0  0
 37 74  1  0  0  0  0
 37 79  2  0  0  0  0
 38 63  1  0  0  0  0
 38 73  1  0  0  0  0
 38 80  2  0  0  0  0
 39 68  1  0  0  0  0
 39 71  1  0  0  0  0
 39 81  2  0  0  0  0
 40 43  1  0  0  0  0
 41 50  1  0  0  0  0
 42 67  1  0  0  0  0
 43 45  1  0  0  0  0
 44 46  1  0  0  0  0
 44 47  1  0  0  0  0
 45 49  1  0  0  0  0
 46 51  1  0  0  0  0
 47 68  1  0  0  0  0
 48 51  1  0  0  0  0
 48 68  1  0  0  0  0
 49 72  1  0  0  0  0
 50 67  1  0  0  0  0
 51 66  1  0  0  0  0
 53 63  1  0  0  0  0
 54 64  1  0  0  0  0
 55 64  1  0  0  0  0
 56 64  1  0  0  0  0
 57 74  1  0  0  0  0
 58 75  1  0  0  0  0
 59 83  1  0  0  0  0
 60 61  1  0  0  0  0
 60 74  1  0  0  0  0
 61 84  1  0  0  0  0
 62 64  1  0  0  0  0
 62 73  1  0  0  0  0
 63 75  1  0  0  0  0
 65 66  1  0  0  0  0
M  CHG  1  75   1
M  ISO  4  39 100  59 101  71 100  83 101
M  END
> <Batch ID>
0015

> <Smiles>
CNC(C)C(=O)NC(C(=O)N1Cc2cc([101O:1][101CH2:1]C(=O)N(C)CCOc3cc(F)c([100NH:0][100C:0](=O)N4CCCC(n5nc(-c6ccc(Oc7ccc(F)cc7F)cc6)c(C(N)=O)c5N)C4)cc3C)ccc2CC1C(=O)NC1CCCc2ccccc21)C(C)(C)C

> <Shape>
0.171

> <Color>
0.198

> <Negative vol penalty>
0.000

$$$$

  -OEChem-04052315553D

 88 96  0     1  0  0  0  0  0999 V2000
  -38.8782  -29.3619   12.6364 C   0  0  0  0  0  0  0  0  0  0  0  0
  -38.1391  -28.4793   13.4175 C   0  0  0  0  0  0  0  0  0  0  0  0
  -23.0335   -9.9043   19.9260 C   0  0  0  0  0  0  0  0  0  0  0  0
  -23.8097   -9.8560   22.2134 C   0  0  0  0  0  0  0  0  0  0  0  0
  -38.7562  -30.7365   12.8347 C   0  0  0  0  0  0  0  0  0  0  0  0
  -37.2782  -28.9708   14.3982 C   0  0  0  0  0  0  0  0  0  0  0  0
  -31.9061  -26.5829   16.1141 C   0  0  0  0  0  0  0  0  0  0  0  0
  -22.2693   -8.7614   20.1612 C   0  0  0  0  0  0  0  0  0  0  0  0
  -23.0455   -8.7131   22.4487 C   0  0  0  0  0  0  0  0  0  0  0  0
  -31.5420  -25.7638   17.1819 C   0  0  0  0  0  0  0  0  0  0  0  0
  -19.8069   -7.9669   23.0612 C   0  0  0  0  0  0  0  0  0  0  0  0
  -19.0577   -7.9207   24.2368 C   0  0  0  0  0  0  0  0  0  0  0  0
  -30.8717  -27.7106   18.4389 C   0  0  0  0  0  0  0  0  0  0  0  0
  -29.8627  -19.1453   22.4629 C   0  0  0  0  0  0  0  0  0  0  0  0
  -31.2658  -17.5511   20.6539 C   0  0  0  0  0  0  0  0  0  0  0  0
  -20.2667   -5.9470   24.9298 C   0  0  0  0  0  0  0  0  0  0  0  0
  -23.8037  -10.4516   20.9521 C   0  0  0  0  0  0  0  0  0  0  0  0
  -24.1934  -12.9715   20.8740 C   0  0  0  0  0  0  0  0  0  0  0  0
  -37.8861  -31.2455   13.8118 C   0  0  0  0  0  0  0  0  0  0  0  0
  -31.7657  -27.9752   16.2050 C   0  0  0  0  0  0  0  0  0  0  0  0
  -37.1454  -30.3535   14.6107 C   0  0  0  0  0  0  0  0  0  0  0  0
  -31.2324  -28.5450   17.3699 C   0  0  0  0  0  0  0  0  0  0  0  0
  -30.7706  -19.7276   21.5784 C   0  0  0  0  0  0  0  0  0  0  0  0
  -30.3579  -16.9688   21.5384 C   0  0  0  0  0  0  0  0  0  0  0  0
  -22.2752   -8.1658   21.4225 C   0  0  0  0  0  0  0  0  0  0  0  0
  -31.0274  -26.3278   18.3456 C   0  0  0  0  0  0  0  0  0  0  0  0
  -20.7859   -7.0030   22.8198 C   0  0  0  0  0  0  0  0  0  0  0  0
  -29.6564  -17.7659   22.4429 C   0  0  0  0  0  0  0  0  0  0  0  0
  -19.2876   -6.9108   25.1712 C   0  0  0  0  0  0  0  0  0  0  0  0
  -21.0158   -5.9932   23.7541 C   0  0  0  0  0  0  0  0  0  0  0  0
  -31.4722  -18.9305   20.6739 C   0  0  0  0  0  0  0  0  0  0  0  0
  -24.5938  -11.6319   20.7096 C   0  0  0  0  0  0  0  0  0  0  0  0
  -25.2972  -13.7062   20.5158 C   0  0  0  0  0  0  0  0  0  0  0  0
  -22.9362  -13.5041   21.3114 C   0  0  0  0  0  0  0  0  0  0  0  0
  -33.7667  -30.4429   16.1037 C   0  0  0  0  0  0  0  0  0  0  0  0
  -31.0224  -32.1709   16.1713 C   0  0  0  0  0  0  0  0  0  0  0  0
  -27.7174  -32.3281   17.0077 C   0  0  0  0  0  0  0  0  0  0  0  0
  -30.7837  -14.6434   20.6680 C   0  0  0  0  0  0  0  0  0  0  0  0
  -37.8233  -32.7377   14.0215 C   0  0  0  0  0  0  0  0  0  0  0  0
  -32.1381  -28.8430   15.0342 C   0  0  0  0  0  0  0  0  0  0  0  0
  -31.0427  -30.0325   17.5100 C   0  0  0  0  0  0  0  0  0  0  0  0
  -36.6081  -33.1888   14.8278 C   0  0  0  0  0  0  0  0  0  0  0  0
  -29.6060  -12.2938   18.2660 C   0  0  0  0  0  0  0  0  0  0  0  0
  -36.4302  -32.3101   16.0619 C   0  0  0  0  0  0  0  0  0  0  0  0
  -28.1641  -12.0223   18.7011 C   0  0  0  0  0  0  0  0  0  0  0  0
  -30.5339  -12.4836   19.4646 C   0  0  0  0  0  0  0  0  0  0  0  0
  -28.6512  -13.2200   20.8726 C   0  0  0  0  0  0  0  0  0  0  0  0
  -36.1825  -30.8490   15.6677 C   0  0  1  0  0  0  0  0  0  0  0  0
  -32.4327  -30.2865   15.4302 C   0  0  1  0  0  0  0  0  0  0  0  0
  -27.6668  -13.0863   19.6993 C   0  0  2  0  0  0  0  0  0  0  0  0
  -29.3566  -21.9400   18.2482 C   0  0  0  0  0  0  0  0  0  0  0  0
  -25.7491  -33.8843   16.9753 C   0  0  0  0  0  0  0  0  0  0  0  0
  -32.4322  -21.5991   21.9577 C   0  0  0  0  0  0  0  0  0  0  0  0
  -30.0216  -21.8892   22.6626 C   0  0  0  0  0  0  0  0  0  0  0  0
  -32.1767  -33.6768   18.5608 C   0  0  0  0  0  0  0  0  0  0  0  0
  -29.8697  -34.5114   19.0606 C   0  0  0  0  0  0  0  0  0  0  0  0
  -30.9722  -35.1132   16.9054 C   0  0  0  0  0  0  0  0  0  0  0  0
  -26.1721  -30.5232   15.2432 C   0  0  0  0  0  0  0  0  0  0  0  0
  -27.4138  -17.1050   22.8784 C   0  0  0  0  0  0  0  0  0  0  0  0
  -29.5338  -21.2828   19.5995 C   0  0  0  0  0  0  0  0  0  0  0  0
  -30.4627  -23.4093   20.5027 C   0  0  0  0  0  0  0  0  0  0  0  0
  -30.8528  -24.1248   19.2244 C   0  0  0  0  0  0  0  0  0  1  0  0
  -30.1494  -32.7489   17.2589 C   0  0  1  0  0  0  0  0  0  0  0  0
  -26.5020  -32.7951   16.2273 C   0  0  2  0  0  0  0  0  0  0  0  0
  -30.9698  -21.2497   21.6339 C   0  0  0  0  0  0  0  0  0  0  0  0
  -30.7973  -33.9846   17.9448 C   0  0  0  0  0  0  0  0  0  0  0  0
  -25.8536  -11.5192   20.2803 N   0  0  0  0  0  0  0  0  0  0  0  0
  -26.2543  -12.7974   20.1717 N   0  0  0  0  0  0  0  0  0  0  0  0
  -31.4275  -30.8393   16.3402 N   0  0  0  0  0  0  0  0  0  0  0  0
  -30.0012  -13.5093   20.3641 N   0  0  0  0  0  0  0  0  0  0  0  0
  -25.5328  -15.0344   20.4646 N   0  0  0  0  0  0  0  0  0  0  0  0
  -21.9093  -12.6086   21.6402 N   0  0  0  0  0  0  0  0  0  0  0  0
  -30.1602  -15.5661   21.5073 N   0  0  0  0  0  0  0  0  0  0  0  0
  -34.8145  -30.6682   15.2314 N   0  0  0  0  0  0  0  0  0  0  0  0
  -28.8544  -33.0178   16.6431 N   0  0  0  0  0  0  0  0  0  0  0  0
  -25.5696  -31.6569   15.9907 N   0  3  0  0  0  0  0  0  0  0  0  0
  -30.6725  -21.9496   20.3309 N   0  3  1  0  0  0  0  0  0  0  0  0
  -22.7242  -14.7378   21.3922 O   0  0  0  0  0  0  0  0  0  0  0  0
  -33.8398  -30.3664   17.3246 O   0  0  0  0  0  0  0  0  0  0  0  0
  -31.3275  -32.8728   15.2038 O   0  0  0  0  0  0  0  0  0  0  0  0
  -27.6630  -31.4428   17.8585 O   0  0  0  0  0  0  0  0  0  0  0  0
  -31.9125  -14.7987   20.1950 O   0  0  0  0  0  0  0  0  0  0  0  0
  -21.5294   -7.0507   21.6525 O   0  0  0  0  0  0  0  0  0  0  0  0
  -28.7662  -17.2162   23.3165 O   0  0  0  0  0  0  0  0  0  0  0  0
  -30.6718  -25.5306   19.3896 O   0  0  0  0  0  0  0  0  0  1  0  0
  -18.5691   -6.8675   26.3008 F   0  0  0  0  0  0  0  0  0  0  0  0
  -21.9558   -5.0652   23.5283 F   0  0  0  0  0  0  0  0  0  0  0  0
  -32.6041  -19.6159   19.5657 Cl  0  0  0  0  0  0  0  0  0  0  0  0
  1  2  1  0  0  0  0
  1  5  2  0  0  0  0
  2  6  2  0  0  0  0
  3  8  2  0  0  0  0
  3 17  1  0  0  0  0
  4  9  1  0  0  0  0
  4 17  2  0  0  0  0
  5 19  1  0  0  0  0
  6 21  1  0  0  0  0
  7 10  2  0  0  0  0
  7 20  1  0  0  0  0
  8 25  1  0  0  0  0
  9 25  2  0  0  0  0
 10 26  1  0  0  0  0
 11 12  2  0  0  0  0
 11 27  1  0  0  0  0
 12 29  1  0  0  0  0
 13 22  1  0  0  0  0
 13 26  2  0  0  0  0
 14 23  1  0  0  0  0
 14 28  2  0  0  0  0
 15 24  2  0  0  0  0
 15 31  1  0  0  0  0
 16 29  2  0  0  0  0
 16 30  1  0  0  0  0
 17 32  1  0  0  0  0
 18 32  1  0  0  0  0
 18 33  2  0  0  0  0
 18 34  1  0  0  0  0
 19 21  2  0  0  0  0
 19 39  1  0  0  0  0
 20 22  2  0  0  0  0
 20 40  1  0  0  0  0
 21 48  1  0  0  0  0
 22 41  1  0  0  0  0
 23 31  2  0  0  0  0
 23 65  1  0  0  0  0
 24 28  1  0  0  0  0
 24 73  1  0  0  0  0
 25 83  1  0  0  0  0
 26 85  1  0  0  0  0
 27 30  2  0  0  0  0
 27 83  1  0  0  0  0
 28 84  1  0  0  0  0
 29 86  1  0  0  0  0
 30 87  1  0  0  0  0
 31 88  1  0  0  0  0
 32 67  2  0  0  0  0
 33 68  1  0  0  0  0
 33 71  1  0  0  0  0
 34 72  1  0  0  0  0
 34 78  2  0  0  0  0
 35 49  1  0  0  0  0
 35 74  1  0  0  0  0
 35 79  2  0  0  0  0
 36 63  1  0  0  0  0
 36 69  1  0  0  0  0
 36 80  2  0  0  0  0
 37 64  1  0  0  0  0
 37 75  1  0  0  0  0
 37 81  2  0  0  0  0
 38 70  1  0  0  0  0
 38 73  1  0  0  0  0
 38 82  2  0  0  0  0
 39 42  1  0  0  0  0
 40 49  1  0  0  0  0
 41 69  1  0  0  0  0
 42 44  1  0  0  0  0
 43 45  1  0  0  0  0
 43 46  1  0  0  0  0
 44 48  1  0  0  0  0
 45 50  1  0  0  0  0
 46 70  1  0  0  0  0
 47 50  1  0  0  0  0
 47 70  1  0  0  0  0
 48 74  1  0  0  0  0
 49 69  1  0  0  0  0
 50 68  1  0  0  0  0
 51 60  1  0  0  0  0
 52 64  1  0  0  0  0
 53 65  1  0  0  0  0
 54 65  1  0  0  0  0
 55 66  1  0  0  0  0
 56 66  1  0  0  0  0
 57 66  1  0  0  0  0
 58 76  1  0  0  0  0
 59 84  1  0  0  0  0
 60 77  1  0  0  0  0
 61 62  1  0  0  0  0
 61 77  1  0  0  0  0
 62 85  1  0  0  0  0
 63 66  1  0  0  0  0
 63 75  1  0  0  0  0
 64 76  1  0  0  0  0
 65 77  1  0  0  0  0
 67 68  1  0  0  0  0
M  CHG  2  76   1  77   1
M  ISO  4  38 100  62 101  73 100  85 101
M  END
> <Batch ID>
0015

> <Smiles>
CCN(C[101CH2:1][101O:1]c1ccc2c(c1)CN(C(=O)C(NC(=O)C(C)NC)C(C)(C)C)C(C(=O)NC1CCCc3ccccc31)C2)C(C)(C)c1cc(OC)c([100NH:0][100C:0](=O)N2CCCC(n3nc(-c4ccc(Oc5ccc(F)cc5F)cc4)c(C(N)=O)c3N)C2)cc1Cl

> <Shape>
0.220

> <Color>
0.206

> <Negative vol penalty>
0.000

$$$$

  -OEChem-04052315553D

 83 91  0     1  0  0  0  0  0999 V2000
  -25.2496  -34.9451   23.9449 C   0  0  0  0  0  0  0  0  0  0  0  0
  -25.9433  -33.8126   23.5307 C   0  0  0  0  0  0  0  0  0  0  0  0
  -24.0852  -14.2727   18.2745 C   0  0  0  0  0  0  0  0  0  0  0  0
  -22.9376  -14.2698   20.4005 C   0  0  0  0  0  0  0  0  0  0  0  0
  -23.9986  -34.8137   24.5464 C   0  0  0  0  0  0  0  0  0  0  0  0
  -25.3870  -32.5479   23.7189 C   0  0  0  0  0  0  0  0  0  0  0  0
  -25.8463  -29.5956   19.6302 C   0  0  0  0  0  0  0  0  0  0  0  0
  -23.7988  -12.9166   18.1180 C   0  0  0  0  0  0  0  0  0  0  0  0
  -22.6510  -12.9137   20.2440 C   0  0  0  0  0  0  0  0  0  0  0  0
  -27.0903  -29.0071   19.4062 C   0  0  0  0  0  0  0  0  0  0  0  0
  -24.2697   -9.9675   20.6056 C   0  0  0  0  0  0  0  0  0  0  0  0
  -24.4707   -9.1317   21.7041 C   0  0  0  0  0  0  0  0  0  0  0  0
  -26.2764  -26.9416   20.3499 C   0  0  0  0  0  0  0  0  0  0  0  0
  -30.2078  -22.8259   18.9420 C   0  0  0  0  0  0  0  0  0  0  0  0
  -30.7397  -22.0866   21.5789 C   0  0  0  0  0  0  0  0  0  0  0  0
  -22.1312   -8.5292   21.6736 C   0  0  0  0  0  0  0  0  0  0  0  0
  -23.6547  -14.9493   19.4158 C   0  0  0  0  0  0  0  0  0  0  0  0
  -23.1655  -17.4395   19.1562 C   0  0  0  0  0  0  0  0  0  0  0  0
  -23.4224  -33.5474   24.7333 C   0  0  0  0  0  0  0  0  0  0  0  0
  -24.8097  -28.8635   20.2267 C   0  0  0  0  0  0  0  0  0  0  0  0
  -24.1278  -32.3994   24.3247 C   0  0  0  0  0  0  0  0  0  0  0  0
  -25.0194  -27.5223   20.5780 C   0  0  0  0  0  0  0  0  0  0  0  0
  -30.2779  -23.7993   19.9386 C   0  0  0  0  0  0  0  0  0  0  0  0
  -30.4036  -21.4828   19.2639 C   0  0  0  0  0  0  0  0  0  0  0  0
  -30.5438  -23.4296   21.2571 C   0  0  0  0  0  0  0  0  0  0  0  0
  -30.6695  -21.1132   20.5823 C   0  0  0  0  0  0  0  0  0  0  0  0
  -23.0817  -12.2371   19.1027 C   0  0  0  0  0  0  0  0  0  0  0  0
  -27.3063  -27.6809   19.7687 C   0  0  0  0  0  0  0  0  0  0  0  0
  -22.9995  -10.0842   20.0412 C   0  0  0  0  0  0  0  0  0  0  0  0
  -23.4014   -8.4125   22.2381 C   0  0  0  0  0  0  0  0  0  0  0  0
  -21.9302   -9.3651   20.5752 C   0  0  0  0  0  0  0  0  0  0  0  0
  -23.9508  -16.3500   19.5784 C   0  0  0  0  0  0  0  0  0  0  0  0
  -23.8788  -18.5474   19.5437 C   0  0  0  0  0  0  0  0  0  0  0  0
  -21.9041  -17.4491   18.4747 C   0  0  0  0  0  0  0  0  0  0  0  0
  -23.1245  -29.1376   22.9079 C   0  0  0  0  0  0  0  0  0  0  0  0
  -21.4498  -26.6616   21.6482 C   0  0  0  0  0  0  0  0  0  0  0  0
  -21.3854  -23.9884   19.5276 C   0  0  0  0  0  0  0  0  0  0  0  0
  -29.9048  -18.7312   20.7342 C   0  0  0  0  0  0  0  0  0  0  0  0
  -22.0888  -33.4525   25.4311 C   0  0  0  0  0  0  0  0  0  0  0  0
  -23.4655  -29.5047   20.4370 C   0  0  0  0  0  0  0  0  0  0  0  0
  -23.9331  -26.6870   21.2029 C   0  0  0  0  0  0  0  0  0  0  0  0
  -21.4037  -32.0998   25.2543 C   0  0  0  0  0  0  0  0  0  0  0  0
  -27.0919  -19.5314   23.0435 C   0  0  0  0  0  0  0  0  0  0  0  0
  -22.3928  -30.9645   25.4981 C   0  0  0  0  0  0  0  0  0  0  0  0
  -25.8289  -19.2619   22.2232 C   0  0  0  0  0  0  0  0  0  0  0  0
  -28.2513  -20.0167   22.1810 C   0  0  0  0  0  0  0  0  0  0  0  0
  -27.4967  -18.1994   20.6303 C   0  0  0  0  0  0  0  0  0  0  0  0
  -23.5466  -31.0118   24.4890 C   0  0  1  0  0  0  0  0  0  0  0  0
  -22.6398  -28.8197   21.5216 C   0  0  1  0  0  0  0  0  0  0  0  0
  -26.1307  -18.8859   20.7605 C   0  0  1  0  0  0  0  0  0  0  0  0
  -30.3229  -20.4615   18.1761 C   0  0  0  0  0  0  0  0  0  0  0  0
  -30.6234  -24.4542   22.3408 C   0  0  0  0  0  0  0  0  0  0  0  0
  -33.0764  -19.1002   20.0273 C   0  0  0  0  0  0  0  0  0  0  0  0
  -19.8898  -22.1329   18.7419 C   0  0  0  0  0  0  0  0  0  0  0  0
  -21.9351  -25.1663   24.2633 C   0  0  0  0  0  0  0  0  0  0  0  0
  -21.2791  -23.0515   23.0948 C   0  0  0  0  0  0  0  0  0  0  0  0
  -19.6305  -24.9092   23.3267 C   0  0  0  0  0  0  0  0  0  0  0  0
  -21.4643  -24.9529   16.7308 C   0  0  0  0  0  0  0  0  0  0  0  0
  -30.0622  -25.2461   19.5665 C   0  0  0  0  0  0  0  0  0  0  0  0
  -32.2317  -19.3037   21.2688 C   0  0  0  0  0  0  0  0  0  0  0  0
  -28.6715  -25.7417   19.9477 C   0  0  0  0  0  0  0  0  0  1  0  0
  -21.5577  -25.1570   21.7092 C   0  0  1  0  0  0  0  0  0  0  0  0
  -20.3703  -23.5529   18.4863 C   0  0  2  0  0  0  0  0  0  0  0  0
  -21.1219  -24.5870   23.0885 C   0  0  0  0  0  0  0  0  0  0  0  0
  -25.0768  -16.7313   20.1873 N   0  0  0  0  0  0  0  0  0  0  0  0
  -25.0043  -18.0727   20.1505 N   0  0  0  0  0  0  0  0  0  0  0  0
  -22.6381  -27.3609   21.3940 N   0  0  0  0  0  0  0  0  0  0  0  0
  -28.5875  -19.0447   21.1265 N   0  0  0  0  0  0  0  0  0  0  0  0
  -23.6468  -19.8717   19.4211 N   0  0  0  0  0  0  0  0  0  0  0  0
  -21.3100  -16.2216   18.1514 N   0  0  0  0  0  0  0  0  0  0  0  0
  -23.1209  -30.4861   23.2096 N   0  0  0  0  0  0  0  0  0  0  0  0
  -20.7864  -24.6465   20.5809 N   0  0  0  0  0  0  0  0  0  0  0  0
  -30.8749  -19.7308   20.9350 N   0  0  0  0  0  0  0  0  0  0  0  0
  -20.9703  -23.6079   17.1233 N   0  3  0  0  0  0  0  0  0  0  0  0
  -21.3290  -18.5147   18.1471 O   0  0  0  0  0  0  0  0  0  0  0  0
  -23.4744  -28.2269   23.6493 O   0  0  0  0  0  0  0  0  0  0  0  0
  -20.3504  -27.1962   21.8127 O   0  0  0  0  0  0  0  0  0  0  0  0
  -22.5889  -23.7637   19.4194 O   0  0  0  0  0  0  0  0  0  0  0  0
  -30.2053  -17.6138   20.2964 O   0  0  0  0  0  0  0  0  0  0  0  0
  -22.8017  -10.9139   18.9502 O   0  0  0  0  0  0  0  0  0  0  0  0
  -28.5197  -27.1043   19.5518 O   0  0  0  0  0  0  0  0  0  1  0  0
  -23.5949   -7.6087   23.2920 F   0  0  0  0  0  0  0  0  0  0  0  0
  -20.7079   -9.4722   20.0365 F   0  0  0  0  0  0  0  0  0  0  0  0
  1  2  1  0  0  0  0
  1  5  2  0  0  0  0
  2  6  2  0  0  0  0
  3  8  2  0  0  0  0
  3 17  1  0  0  0  0
  4  9  1  0  0  0  0
  4 17  2  0  0  0  0
  5 19  1  0  0  0  0
  6 21  1  0  0  0  0
  7 10  2  0  0  0  0
  7 20  1  0  0  0  0
  8 27  1  0  0  0  0
  9 27  2  0  0  0  0
 10 28  1  0  0  0  0
 11 12  2  0  0  0  0
 11 29  1  0  0  0  0
 12 30  1  0  0  0  0
 13 22  1  0  0  0  0
 13 28  2  0  0  0  0
 14 23  2  0  0  0  0
 14 24  1  0  0  0  0
 15 25  2  0  0  0  0
 15 26  1  0  0  0  0
 16 30  2  0  0  0  0
 16 31  1  0  0  0  0
 17 32  1  0  0  0  0
 18 32  1  0  0  0  0
 18 33  2  0  0  0  0
 18 34  1  0  0  0  0
 19 21  2  0  0  0  0
 19 39  1  0  0  0  0
 20 22  2  0  0  0  0
 20 40  1  0  0  0  0
 21 48  1  0  0  0  0
 22 41  1  0  0  0  0
 23 25  1  0  0  0  0
 23 59  1  0  0  0  0
 24 26  2  0  0  0  0
 24 51  1  0  0  0  0
 25 52  1  0  0  0  0
 26 73  1  0  0  0  0
 27 80  1  0  0  0  0
 28 81  1  0  0  0  0
 29 31  2  0  0  0  0
 29 80  1  0  0  0  0
 30 82  1  0  0  0  0
 31 83  1  0  0  0  0
 32 65  2  0  0  0  0
 33 66  1  0  0  0  0
 33 69  1  0  0  0  0
 34 70  1  0  0  0  0
 34 75  2  0  0  0  0
 35 49  1  0  0  0  0
 35 71  1  0  0  0  0
 35 76  2  0  0  0  0
 36 62  1  0  0  0  0
 36 67  1  0  0  0  0
 36 77  2  0  0  0  0
 37 63  1  0  0  0  0
 37 72  1  0  0  0  0
 37 78  2  0  0  0  0
 38 68  1  0  0  0  0
 38 73  1  0  0  0  0
 38 79  2  0  0  0  0
 39 42  1  0  0  0  0
 40 49  1  0  0  0  0
 41 67  1  0  0  0  0
 42 44  1  0  0  0  0
 43 45  1  0  0  0  0
 43 46  1  0  0  0  0
 44 48  1  0  0  0  0
 45 50  1  0  0  0  0
 46 68  1  0  0  0  0
 47 50  1  0  0  0  0
 47 68  1  0  0  0  0
 48 71  1  0  0  0  0
 49 67  1  0  0  0  0
 50 66  1  0  0  0  0
 53 60  1  0  0  0  0
 54 63  1  0  0  0  0
 55 64  1  0  0  0  0
 56 64  1  0  0  0  0
 57 64  1  0  0  0  0
 58 74  1  0  0  0  0
 59 61  1  0  0  0  0
 60 73  1  0  0  0  0
 61 81  1  0  0  0  0
 62 64  1  0  0  0  0
 62 72  1  0  0  0  0
 63 74  1  0  0  0  0
 65 66  1  0  0  0  0
M  CHG  1  74   1
M  ISO  4  38 100  61 101  73 100  81 101
M  END
> <Batch ID>
0015

> <Smiles>
CC[100N:0](c1cc(C)c(C[101CH2:1][101O:1]c2ccc3c(c2)CN(C(=O)C(NC(=O)C(C)NC)C(C)(C)C)C(C(=O)NC2CCCc4ccccc42)C3)cc1C)[100C:0](=O)N1CCCC(n2nc(-c3ccc(Oc4ccc(F)cc4F)cc3)c(C(N)=O)c2N)C1

> <Shape>
0.224

> <Color>
0.087

> <Negative vol penalty>
0.000

$$$$

  -OEChem-04052315553D

 90 98  0     1  0  0  0  0  0999 V2000
  -25.0237  -28.6230   16.7552 C   0  0  0  0  0  0  0  0  0  0  0  0
  -25.9416  -27.7128   16.2408 C   0  0  0  0  0  0  0  0  0  0  0  0
  -23.6544  -24.2754   19.6229 C   0  0  0  0  0  0  0  0  0  0  0  0
  -21.8206  -23.1355   20.7068 C   0  0  0  0  0  0  0  0  0  0  0  0
  -25.2362  -29.1917   18.0103 C   0  0  0  0  0  0  0  0  0  0  0  0
  -27.0731  -27.3717   16.9810 C   0  0  0  0  0  0  0  0  0  0  0  0
  -28.3637  -20.5336   18.8428 C   0  0  0  0  0  0  0  0  0  0  0  0
  -22.9225  -25.4627   19.6332 C   0  0  0  0  0  0  0  0  0  0  0  0
  -21.0887  -24.3229   20.7172 C   0  0  0  0  0  0  0  0  0  0  0  0
  -28.7898  -19.2226   19.0570 C   0  0  0  0  0  0  0  0  0  0  0  0
  -18.8775  -27.1376   21.3547 C   0  0  0  0  0  0  0  0  0  0  0  0
  -18.2097  -27.4784   22.5309 C   0  0  0  0  0  0  0  0  0  0  0  0
  -30.7261  -20.0364   20.2554 C   0  0  0  0  0  0  0  0  0  0  0  0
  -25.6304  -12.9319   19.5175 C   0  0  0  0  0  0  0  0  0  0  0  0
  -24.7812  -12.3722   22.1152 C   0  0  0  0  0  0  0  0  0  0  0  0
  -20.3144  -27.5097   23.7168 C   0  0  0  0  0  0  0  0  0  0  0  0
  -23.1034  -23.1117   20.1597 C   0  0  0  0  0  0  0  0  0  0  0  0
  -24.7372  -21.4184   21.1451 C   0  0  0  0  0  0  0  0  0  0  0  0
  -26.3659  -28.8500   18.7703 C   0  0  0  0  0  0  0  0  0  0  0  0
  -29.1101  -21.6018   19.3480 C   0  0  0  0  0  0  0  0  0  0  0  0
  -27.3015  -27.9374   18.2469 C   0  0  0  0  0  0  0  0  0  0  0  0
  -30.2977  -21.3513   20.0547 C   0  0  0  0  0  0  0  0  0  0  0  0
  -25.9845  -11.7259   20.1224 C   0  0  0  0  0  0  0  0  0  0  0  0
  -24.8518  -13.8581   20.2115 C   0  0  0  0  0  0  0  0  0  0  0  0
  -24.4271  -13.5782   21.5103 C   0  0  0  0  0  0  0  0  0  0  0  0
  -21.6397  -25.4865   20.1804 C   0  0  0  0  0  0  0  0  0  0  0  0
  -29.9682  -18.9747   19.7614 C   0  0  0  0  0  0  0  0  0  0  0  0
  -20.2637  -26.9827   21.3595 C   0  0  0  0  0  0  0  0  0  0  0  0
  -18.9281  -27.6645   23.7120 C   0  0  0  0  0  0  0  0  0  0  0  0
  -25.5598  -11.4460   21.4212 C   0  0  0  0  0  0  0  0  0  0  0  0
  -20.9822  -27.1688   22.5406 C   0  0  0  0  0  0  0  0  0  0  0  0
  -23.8588  -21.8848   20.1488 C   0  0  0  0  0  0  0  0  0  0  0  0
  -25.1973  -20.2176   20.6625 C   0  0  0  0  0  0  0  0  0  0  0  0
  -25.1045  -22.0172   22.3950 C   0  0  0  0  0  0  0  0  0  0  0  0
  -29.4433  -25.3189   19.7332 C   0  0  0  0  0  0  0  0  0  0  0  0
  -30.2772  -24.0676   22.4070 C   0  0  0  0  0  0  0  0  0  0  0  0
  -29.1549  -11.5640   19.3158 C   0  0  0  0  0  0  0  0  0  0  0  0
  -30.7121  -22.3255   25.3076 C   0  0  0  0  0  0  0  0  0  0  0  0
  -24.3207  -15.2953   18.2119 C   0  0  0  0  0  0  0  0  0  0  0  0
  -26.5770  -29.5268   20.1016 C   0  0  0  0  0  0  0  0  0  0  0  0
  -28.7215  -23.0320   19.0883 C   0  0  0  0  0  0  0  0  0  0  0  0
  -31.0866  -22.5326   20.5499 C   0  0  0  0  0  0  0  0  0  0  0  0
  -27.6092  -28.8283   20.9830 C   0  0  0  0  0  0  0  0  0  0  0  0
  -24.7401  -18.1163   16.0803 C   0  0  0  0  0  0  0  0  0  0  0  0
  -28.8579  -28.4880   20.1757 C   0  0  0  0  0  0  0  0  0  0  0  0
  -24.6205  -19.3098   17.0307 C   0  0  0  0  0  0  0  0  0  0  0  0
  -23.7900  -16.9847   16.4685 C   0  0  0  0  0  0  0  0  0  0  0  0
  -23.7711  -17.7345   18.8151 C   0  0  0  0  0  0  0  0  0  0  0  0
  -28.5284  -27.5233   19.0302 C   0  0  1  0  0  0  0  0  0  0  0  0
  -29.0531  -23.9702   20.2626 C   0  0  1  0  0  0  0  0  0  0  0  0
  -24.7552  -18.8736   18.5028 C   0  0  2  0  0  0  0  0  0  0  0  0
  -31.0912  -21.9409   27.7582 C   0  0  0  0  0  0  0  0  0  0  0  0
  -33.2067  -24.4324   21.6396 C   0  0  0  0  0  0  0  0  0  0  0  0
  -33.8257  -23.7941   23.9800 C   0  0  0  0  0  0  0  0  0  0  0  0
  -32.4507  -25.8342   23.5677 C   0  0  0  0  0  0  0  0  0  0  0  0
  -27.8152  -22.4678   25.8964 C   0  0  0  0  0  0  0  0  0  0  0  0
  -32.7956  -12.2996   20.0374 C   0  0  0  0  0  0  0  0  0  0  0  0
  -26.8225  -10.7308   19.3729 C   0  0  0  0  0  0  0  0  0  0  0  0
  -30.4950  -11.3490   19.9732 C   0  0  0  0  0  0  0  0  0  0  0  0
  -31.2221  -14.9876   20.5558 C   0  0  0  0  0  0  0  0  0  0  0  0
  -30.8416  -16.0134   21.6208 C   0  0  0  0  0  0  0  0  0  0  0  0
  -30.8934  -13.5751   21.0156 C   0  0  0  0  0  0  0  0  0  0  0  0
  -31.1248  -17.4356   21.1581 C   0  0  0  0  0  0  0  0  0  1  0  0
  -31.4045  -23.5525   23.2656 C   0  0  1  0  0  0  0  0  0  0  0  0
  -30.1755  -22.5525   26.7093 C   0  0  2  0  0  0  0  0  0  0  0  0
  -32.7063  -24.3858   23.0971 C   0  0  0  0  0  0  0  0  0  0  0  0
  -23.7648  -21.0485   19.1116 N   0  0  0  0  0  0  0  0  0  0  0  0
  -24.5903  -20.0446   19.4535 N   0  0  0  0  0  0  0  0  0  0  0  0
  -30.1777  -23.5435   21.1125 N   0  0  0  0  0  0  0  0  0  0  0  0
  -23.9774  -16.6217   17.8749 N   0  0  0  0  0  0  0  0  0  0  0  0
  -23.6379  -14.5018   22.2318 N   0  0  0  0  0  0  0  0  0  0  0  0
  -26.0578  -19.3035   21.1587 N   0  0  0  0  0  0  0  0  0  0  0  0
  -24.5385  -23.2533   22.7356 N   0  0  0  0  0  0  0  0  0  0  0  0
  -24.5048  -15.0764   19.5767 N   0  0  0  0  0  0  0  0  0  0  0  0
  -28.3770  -26.1747   19.5329 N   0  0  0  0  0  0  0  0  0  0  0  0
  -28.1890  -10.7166   19.8377 N   0  0  0  0  0  0  0  0  0  0  0  0
  -30.8926  -23.5134   24.6312 N   0  0  0  0  0  0  0  0  0  0  0  0
  -28.8237  -21.9413   26.8517 N   0  3  0  0  0  0  0  0  0  0  0  0
  -31.3205  -12.6127   19.9715 N   0  3  1  0  0  0  0  0  0  0  0  0
  -25.9233  -21.4800   23.1789 O   0  0  0  0  0  0  0  0  0  0  0  0
  -30.6248  -25.5667   19.5229 O   0  0  0  0  0  0  0  0  0  0  0  0
  -29.5077  -24.9159   22.8671 O   0  0  0  0  0  0  0  0  0  0  0  0
  -28.9637  -12.3932   18.4303 O   0  0  0  0  0  0  0  0  0  0  0  0
  -30.9511  -21.2065   24.8589 O   0  0  0  0  0  0  0  0  0  0  0  0
  -24.4691  -14.4246   17.3506 O   0  0  0  0  0  0  0  0  0  0  0  0
  -20.9253  -26.6450   20.1908 O   0  0  0  0  0  0  0  0  0  0  0  0
  -30.3760  -17.6923   19.9708 O   0  0  0  0  0  0  0  0  0  1  0  0
  -18.2869  -27.9933   24.8411 F   0  0  0  0  0  0  0  0  0  0  0  0
  -25.8951  -10.2899   22.0108 F   0  0  0  0  0  0  0  0  0  0  0  0
  -22.3142  -27.0226   22.5511 F   0  0  0  0  0  0  0  0  0  0  0  0
  1  2  1  0  0  0  0
  1  5  2  0  0  0  0
  2  6  2  0  0  0  0
  3  8  2  0  0  0  0
  3 17  1  0  0  0  0
  4  9  1  0  0  0  0
  4 17  2  0  0  0  0
  5 19  1  0  0  0  0
  6 21  1  0  0  0  0
  7 10  2  0  0  0  0
  7 20  1  0  0  0  0
  8 26  1  0  0  0  0
  9 26  2  0  0  0  0
 10 27  1  0  0  0  0
 11 12  2  0  0  0  0
 11 28  1  0  0  0  0
 12 29  1  0  0  0  0
 13 22  1  0  0  0  0
 13 27  2  0  0  0  0
 14 23  1  0  0  0  0
 14 24  2  0  0  0  0
 15 25  2  0  0  0  0
 15 30  1  0  0  0  0
 16 29  2  0  0  0  0
 16 31  1  0  0  0  0
 17 32  1  0  0  0  0
 18 32  1  0  0  0  0
 18 33  2  0  0  0  0
 18 34  1  0  0  0  0
 19 21  2  0  0  0  0
 19 40  1  0  0  0  0
 20 22  2  0  0  0  0
 20 41  1  0  0  0  0
 21 49  1  0  0  0  0
 22 42  1  0  0  0  0
 23 30  2  0  0  0  0
 23 58  1  0  0  0  0
 24 25  1  0  0  0  0
 24 74  1  0  0  0  0
 25 71  1  0  0  0  0
 26 86  1  0  0  0  0
 27 87  1  0  0  0  0
 28 31  2  0  0  0  0
 28 86  1  0  0  0  0
 29 88  1  0  0  0  0
 30 89  1  0  0  0  0
 31 90  1  0  0  0  0
 32 67  2  0  0  0  0
 33 68  1  0  0  0  0
 33 72  1  0  0  0  0
 34 73  1  0  0  0  0
 34 80  2  0  0  0  0
 35 50  1  0  0  0  0
 35 75  1  0  0  0  0
 35 81  2  0  0  0  0
 36 64  1  0  0  0  0
 36 69  1  0  0  0  0
 36 82  2  0  0  0  0
 37 59  1  0  0  0  0
 37 76  1  0  0  0  0
 37 83  2  0  0  0  0
 38 65  1  0  0  0  0
 38 77  1  0  0  0  0
 38 84  2  0  0  0  0
 39 70  1  0  0  0  0
 39 74  1  0  0  0  0
 39 85  2  0  0  0  0
 40 43  1  0  0  0  0
 41 50  1  0  0  0  0
 42 69  1  0  0  0  0
 43 45  1  0  0  0  0
 44 46  1  0  0  0  0
 44 47  1  0  0  0  0
 45 49  1  0  0  0  0
 46 51  1  0  0  0  0
 47 70  1  0  0  0  0
 48 51  1  0  0  0  0
 48 70  1  0  0  0  0
 49 75  1  0  0  0  0
 50 69  1  0  0  0  0
 51 68  1  0  0  0  0
 52 65  1  0  0  0  0
 53 66  1  0  0  0  0
 54 66  1  0  0  0  0
 55 66  1  0  0  0  0
 56 78  1  0  0  0  0
 57 79  1  0  0  0  0
 58 76  1  0  0  0  0
 59 79  1  0  0  0  0
 60 61  1  0  0  0  0
 60 62  1  0  0  0  0
 61 63  1  0  0  0  0
 62 79  1  0  0  0  0
 63 87  1  0  0  0  0
 64 66  1  0  0  0  0
 64 77  1  0  0  0  0
 65 78  1  0  0  0  0
 67 68  1  0  0  0  0
M  CHG  2  78   1  79   1
M  ISO  4  39 100  63 101  74 100  87 101
M  END
> <Batch ID>
0015

> <Smiles>
CNC(C)C(=O)NC(C(=O)N1Cc2cc([101O:1][101CH2:1]CCCN(C)CC(=O)NCc3cc([100NH:0][100C:0](=O)N4CCCC(n5nc(-c6ccc(Oc7ccc(F)cc7F)cc6)c(C(N)=O)c5N)C4)c(N)cc3F)ccc2CC1C(=O)NC1CCCc2ccccc21)C(C)(C)C

> <Shape>
0.212

> <Color>
0.073

> <Negative vol penalty>
0.000

$$$$

  -OEChem-04052315553D

 85 93  0     1  0  0  0  0  0999 V2000
  -26.4387  -37.4484   18.6614 C   0  0  0  0  0  0  0  0  0  0  0  0
  -26.3724  -36.2624   17.9372 C   0  0  0  0  0  0  0  0  0  0  0  0
  -22.6558  -12.0017   18.9287 C   0  0  0  0  0  0  0  0  0  0  0  0
  -23.2211  -10.1819   20.4139 C   0  0  0  0  0  0  0  0  0  0  0  0
  -26.8331  -37.4262   19.9985 C   0  0  0  0  0  0  0  0  0  0  0  0
  -26.7014  -35.0536   18.5495 C   0  0  0  0  0  0  0  0  0  0  0  0
  -24.9717  -28.1025   18.4700 C   0  0  0  0  0  0  0  0  0  0  0  0
  -21.6401  -11.2280   18.3672 C   0  0  0  0  0  0  0  0  0  0  0  0
  -22.2054   -9.4081   19.8524 C   0  0  0  0  0  0  0  0  0  0  0  0
  -25.5652  -26.8461   18.3558 C   0  0  0  0  0  0  0  0  0  0  0  0
  -18.8443   -9.1554   20.0971 C   0  0  0  0  0  0  0  0  0  0  0  0
  -18.0145   -8.4481   20.9669 C   0  0  0  0  0  0  0  0  0  0  0  0
  -26.1567  -26.9197   20.6933 C   0  0  0  0  0  0  0  0  0  0  0  0
  -30.9732  -18.9575   20.9778 C   0  0  0  0  0  0  0  0  0  0  0  0
  -29.6968  -20.4130   18.9691 C   0  0  0  0  0  0  0  0  0  0  0  0
  -18.6953   -6.3746   19.9303 C   0  0  0  0  0  0  0  0  0  0  0  0
  -23.4464  -11.4786   19.9521 C   0  0  0  0  0  0  0  0  0  0  0  0
  -24.3928  -13.1454   21.6355 C   0  0  0  0  0  0  0  0  0  0  0  0
  -27.1578  -36.2154   20.6302 C   0  0  0  0  0  0  0  0  0  0  0  0
  -24.9758  -28.7828   19.6962 C   0  0  0  0  0  0  0  0  0  0  0  0
  -27.1018  -35.0154   19.8960 C   0  0  0  0  0  0  0  0  0  0  0  0
  -25.5604  -28.1835   20.8210 C   0  0  0  0  0  0  0  0  0  0  0  0
  -31.2155  -20.3248   20.8460 C   0  0  0  0  0  0  0  0  0  0  0  0
  -29.4546  -19.0457   19.1008 C   0  0  0  0  0  0  0  0  0  0  0  0
  -30.0928  -18.3179   20.1051 C   0  0  0  0  0  0  0  0  0  0  0  0
  -30.5773  -21.0526   19.8417 C   0  0  0  0  0  0  0  0  0  0  0  0
  -21.4149   -9.9312   18.8291 C   0  0  0  0  0  0  0  0  0  0  0  0
  -26.1604  -26.2558   19.4668 C   0  0  0  0  0  0  0  0  0  0  0  0
  -19.5997   -8.4724   19.1438 C   0  0  0  0  0  0  0  0  0  0  0  0
  -17.9400   -7.0577   20.8835 C   0  0  0  0  0  0  0  0  0  0  0  0
  -19.5252   -7.0820   19.0605 C   0  0  0  0  0  0  0  0  0  0  0  0
  -24.4961  -12.2772   20.5321 C   0  0  0  0  0  0  0  0  0  0  0  0
  -25.6571  -13.6604   21.7867 C   0  0  0  0  0  0  0  0  0  0  0  0
  -23.2557  -13.4582   22.4509 C   0  0  0  0  0  0  0  0  0  0  0  0
  -26.1846  -31.5347   20.7305 C   0  0  0  0  0  0  0  0  0  0  0  0
  -24.5483  -30.7901   23.4306 C   0  0  0  0  0  0  0  0  0  0  0  0
  -23.1381  -28.3793   25.3918 C   0  0  0  0  0  0  0  0  0  0  0  0
  -30.1455  -15.9935   19.2166 C   0  0  0  0  0  0  0  0  0  0  0  0
  -27.6243  -36.2470   22.0641 C   0  0  0  0  0  0  0  0  0  0  0  0
  -24.3078  -30.1257   19.8092 C   0  0  0  0  0  0  0  0  0  0  0  0
  -25.5736  -28.8634   22.1649 C   0  0  0  0  0  0  0  0  0  0  0  0
  -27.5954  -34.8807   22.7443 C   0  0  0  0  0  0  0  0  0  0  0  0
  -30.0459  -12.3339   19.6719 C   0  0  0  0  0  0  0  0  0  0  0  0
  -28.2158  -33.8208   21.8396 C   0  0  0  0  0  0  0  0  0  0  0  0
  -28.5697  -12.0668   19.9610 C   0  0  0  0  0  0  0  0  0  0  0  0
  -30.2365  -13.5568   18.7797 C   0  0  0  0  0  0  0  0  0  0  0  0
  -28.1080  -14.5240   19.5945 C   0  0  0  0  0  0  0  0  0  0  0  0
  -27.4270  -33.6813   20.5320 C   0  0  1  0  0  0  0  0  0  0  0  0
  -24.8228  -30.9522   20.9836 C   0  0  1  0  0  0  0  0  0  0  0  0
  -27.8853  -13.3232   20.5265 C   0  0  1  0  0  0  0  0  0  0  0  0
  -32.1640  -20.9848   21.7934 C   0  0  0  0  0  0  0  0  0  0  0  0
  -28.5074  -18.3866   18.1514 C   0  0  0  0  0  0  0  0  0  0  0  0
  -21.9062  -28.0723   27.5564 C   0  0  0  0  0  0  0  0  0  0  0  0
  -27.1575  -31.1685   24.9664 C   0  0  0  0  0  0  0  0  0  0  0  0
  -26.1185  -29.9532   26.8930 C   0  0  0  0  0  0  0  0  0  0  0  0
  -25.1343  -32.1040   26.1005 C   0  0  0  0  0  0  0  0  0  0  0  0
  -29.5360  -16.3854   21.5925 C   0  0  0  0  0  0  0  0  0  0  0  0
  -31.8923  -22.8973   18.8278 C   0  0  0  0  0  0  0  0  0  0  0  0
  -20.7679  -27.2595   24.0181 C   0  0  0  0  0  0  0  0  0  0  0  0
  -28.7672  -23.7560   19.5341 C   0  0  0  0  0  0  0  0  0  0  0  0
  -29.9922  -23.4059   20.3703 C   0  0  0  0  0  0  0  0  0  0  0  0
  -27.8429  -24.7541   20.2217 C   0  0  0  0  0  0  0  0  0  1  0  0
  -24.8603  -30.0222   24.6923 C   0  0  1  0  0  0  0  0  0  0  0  0
  -21.7765  -28.2911   26.0571 C   0  0  2  0  0  0  0  0  0  0  0  0
  -25.8193  -30.7998   25.6374 C   0  0  0  0  0  0  0  0  0  0  0  0
  -25.7286  -12.2404   20.0186 N   0  0  0  0  0  0  0  0  0  0  0  0
  -26.4113  -13.0918   20.8028 N   0  0  0  0  0  0  0  0  0  0  0  0
  -24.9132  -30.1779   22.2231 N   0  0  0  0  0  0  0  0  0  0  0  0
  -29.5383  -14.7256   19.3164 N   0  0  0  0  0  0  0  0  0  0  0  0
  -26.1860  -14.5396   22.6639 N   0  0  0  0  0  0  0  0  0  0  0  0
  -22.0327  -12.8398   22.1575 N   0  0  0  0  0  0  0  0  0  0  0  0
  -26.2182  -32.9160   20.7501 N   0  0  0  0  0  0  0  0  0  0  0  0
  -23.5745  -29.6835   25.2926 N   0  0  0  0  0  0  0  0  0  0  0  0
  -29.8549  -16.9019   20.2574 N   0  0  0  0  0  0  0  0  0  0  0  0
  -30.8094  -22.4276   19.6942 N   0  0  3  0  0  0  0  0  0  0  0  0
  -20.9919  -27.1613   25.4834 N   0  3  0  0  0  0  0  0  0  0  0  0
  -23.3184  -14.2747   23.4011 O   0  0  0  0  0  0  0  0  0  0  0  0
  -27.1347  -30.7863   20.5336 O   0  0  0  0  0  0  0  0  0  0  0  0
  -23.9944  -31.8892   23.5129 O   0  0  0  0  0  0  0  0  0  0  0  0
  -23.7548  -27.3899   25.0027 O   0  0  0  0  0  0  0  0  0  0  0  0
  -30.9098  -16.2796   18.2873 O   0  0  0  0  0  0  0  0  0  0  0  0
  -20.4237   -9.1760   18.2815 O   0  0  0  0  0  0  0  0  0  0  0  0
  -26.7410  -25.0299   19.3579 O   0  0  0  0  0  0  0  0  0  1  0  0
  -17.1441   -6.3784   21.7198 F   0  0  0  0  0  0  0  0  0  0  0  0
  -20.2494   -6.4202   18.1476 F   0  0  0  0  0  0  0  0  0  0  0  0
  1  2  1  0  0  0  0
  1  5  2  0  0  0  0
  2  6  2  0  0  0  0
  3  8  2  0  0  0  0
  3 17  1  0  0  0  0
  4  9  1  0  0  0  0
  4 17  2  0  0  0  0
  5 19  1  0  0  0  0
  6 21  1  0  0  0  0
  7 10  2  0  0  0  0
  7 20  1  0  0  0  0
  8 27  1  0  0  0  0
  9 27  2  0  0  0  0
 10 28  1  0  0  0  0
 11 12  2  0  0  0  0
 11 29  1  0  0  0  0
 12 30  1  0  0  0  0
 13 22  1  0  0  0  0
 13 28  2  0  0  0  0
 14 23  1  0  0  0  0
 14 25  2  0  0  0  0
 15 24  2  0  0  0  0
 15 26  1  0  0  0  0
 16 30  2  0  0  0  0
 16 31  1  0  0  0  0
 17 32  1  0  0  0  0
 18 32  1  0  0  0  0
 18 33  2  0  0  0  0
 18 34  1  0  0  0  0
 19 21  2  0  0  0  0
 19 39  1  0  0  0  0
 20 22  2  0  0  0  0
 20 40  1  0  0  0  0
 21 48  1  0  0  0  0
 22 41  1  0  0  0  0
 23 26  2  0  0  0  0
 23 51  1  0  0  0  0
 24 25  1  0  0  0  0
 24 52  1  0  0  0  0
 25 74  1  0  0  0  0
 26 75  1  0  0  0  0
 27 82  1  0  0  0  0
 28 83  1  0  0  0  0
 29 31  2  0  0  0  0
 29 82  1  0  0  0  0
 30 84  1  0  0  0  0
 31 85  1  0  0  0  0
 32 66  2  0  0  0  0
 33 67  1  0  0  0  0
 33 70  1  0  0  0  0
 34 71  1  0  0  0  0
 34 77  2  0  0  0  0
 35 49  1  0  0  0  0
 35 72  1  0  0  0  0
 35 78  2  0  0  0  0
 36 63  1  0  0  0  0
 36 68  1  0  0  0  0
 36 79  2  0  0  0  0
 37 64  1  0  0  0  0
 37 73  1  0  0  0  0
 37 80  2  0  0  0  0
 38 69  1  0  0  0  0
 38 74  1  0  0  0  0
 38 81  2  0  0  0  0
 39 42  1  0  0  0  0
 40 49  1  0  0  0  0
 41 68  1  0  0  0  0
 42 44  1  0  0  0  0
 43 45  1  0  0  0  0
 43 46  1  0  0  0  0
 44 48  1  0  0  0  0
 45 50  1  0  0  0  0
 46 69  1  0  0  0  0
 47 50  1  0  0  0  0
 47 69  1  0  0  0  0
 48 72  1  0  0  0  0
 49 68  1  0  0  0  0
 50 67  1  0  0  0  0
 53 64  1  0  0  0  0
 54 65  1  0  0  0  0
 55 65  1  0  0  0  0
 56 65  1  0  0  0  0
 57 74  1  0  0  0  0
 58 75  1  0  0  0  0
 59 76  1  0  0  0  0
 60 61  1  0  0  0  0
 60 62  1  0  0  0  0
 61 75  1  0  0  0  0
 62 83  1  0  0  0  0
 63 65  1  0  0  0  0
 63 73  1  0  0  0  0
 64 76  1  0  0  0  0
 66 67  1  0  0  0  0
M  CHG  1  76   1
M  ISO  4  38 100  62 101  74 100  83 101
M  END
> <Batch ID>
0015

> <Smiles>
CNC(C)C(=O)NC(C(=O)N1Cc2cc([101O:1][101CH2:1]CCN(C)c3cc(C)c([100N:0](C)[100C:0](=O)N4CCCC(n5nc(-c6ccc(Oc7ccc(F)cc7F)cc6)c(C(N)=O)c5N)C4)cc3C)ccc2CC1C(=O)NC1CCCc2ccccc21)C(C)(C)C

> <Shape>
0.261

> <Color>
0.109

> <Negative vol penalty>
0.000

$$$$

  -OEChem-04052315553D

 87 94  0     1  0  0  0  0  0999 V2000
  -27.6226  -30.4856   18.6834 C   0  0  0  0  0  0  0  0  0  0  0  0
  -27.6941  -29.1280   18.9786 C   0  0  0  0  0  0  0  0  0  0  0  0
  -29.1981  -19.1282   18.3865 C   0  0  0  0  0  0  0  0  0  0  0  0
  -29.9069  -19.7350   20.6151 C   0  0  0  0  0  0  0  0  0  0  0  0
  -26.6125  -31.2672   19.2425 C   0  0  0  0  0  0  0  0  0  0  0  0
  -26.7559  -28.5513   19.8341 C   0  0  0  0  0  0  0  0  0  0  0  0
  -24.4467  -22.8899   19.4864 C   0  0  0  0  0  0  0  0  0  0  0  0
  -28.8198  -20.4493   18.1471 C   0  0  0  0  0  0  0  0  0  0  0  0
  -29.5287  -21.0561   20.3757 C   0  0  0  0  0  0  0  0  0  0  0  0
  -24.7608  -21.7062   20.1528 C   0  0  0  0  0  0  0  0  0  0  0  0
  -30.7782  -23.7495   18.7618 C   0  0  0  0  0  0  0  0  0  0  0  0
  -31.6609  -24.7559   19.1538 C   0  0  0  0  0  0  0  0  0  0  0  0
  -22.9914  -22.1348   21.7354 C   0  0  0  0  0  0  0  0  0  0  0  0
  -29.9699  -25.6686   20.6182 C   0  0  0  0  0  0  0  0  0  0  0  0
  -29.7416  -18.7710   19.6205 C   0  0  0  0  0  0  0  0  0  0  0  0
  -31.3910  -16.8250   19.6266 C   0  0  0  0  0  0  0  0  0  0  0  0
  -25.6557  -30.6979   20.0976 C   0  0  0  0  0  0  0  0  0  0  0  0
  -23.4079  -23.7118   19.9467 C   0  0  0  0  0  0  0  0  0  0  0  0
  -25.7328  -29.3263   20.4062 C   0  0  0  0  0  0  0  0  0  0  0  0
  -22.6644  -23.3271   21.0716 C   0  0  0  0  0  0  0  0  0  0  0  0
  -28.9852  -21.4132   19.1417 C   0  0  0  0  0  0  0  0  0  0  0  0
  -24.0349  -21.3299   21.2792 C   0  0  0  0  0  0  0  0  0  0  0  0
  -29.4913  -23.7027   19.2979 C   0  0  0  0  0  0  0  0  0  0  0  0
  -31.2568  -25.7154   20.0820 C   0  0  0  0  0  0  0  0  0  0  0  0
  -29.0872  -24.6622   20.2262 C   0  0  0  0  0  0  0  0  0  0  0  0
  -30.1319  -17.4064   19.8686 C   0  0  0  0  0  0  0  0  0  0  0  0
  -31.2491  -15.5192   20.0282 C   0  0  0  0  0  0  0  0  0  0  0  0
  -25.7222  -10.9359   20.9776 C   0  0  0  0  0  0  0  0  0  0  0  0
  -32.5823  -17.4128   19.0872 C   0  0  0  0  0  0  0  0  0  0  0  0
  -24.3945  -10.7423   20.9468 C   0  0  0  0  0  0  0  0  0  0  0  0
  -26.4061  -12.1029   20.3850 C   0  0  0  0  0  0  0  0  0  0  0  0
  -23.2209  -26.6912   21.0383 C   0  0  0  0  0  0  0  0  0  0  0  0
  -20.0321  -26.1001   20.9749 C   0  0  0  0  0  0  0  0  0  0  0  0
  -23.4955  -14.6455   21.3528 C   0  0  0  0  0  0  0  0  0  0  0  0
  -17.5097  -23.8020   21.0347 C   0  0  0  0  0  0  0  0  0  0  0  0
  -24.6104  -31.5925   20.7153 C   0  0  0  0  0  0  0  0  0  0  0  0
  -23.0642  -24.9720   19.2010 C   0  0  0  0  0  0  0  0  0  0  0  0
  -21.5266  -24.1641   21.5943 C   0  0  0  0  0  0  0  0  0  0  0  0
  -23.4327  -30.8289   21.3155 C   0  0  0  0  0  0  0  0  0  0  0  0
  -28.8100  -12.7704   23.0696 C   0  0  0  0  0  0  0  0  0  0  0  0
  -23.9293  -29.6608   22.1616 C   0  0  0  0  0  0  0  0  0  0  0  0
  -29.5044  -14.0213   22.5377 C   0  0  0  0  0  0  0  0  0  0  0  0
  -27.3332  -12.7269   22.6800 C   0  0  0  0  0  0  0  0  0  0  0  0
  -27.7941  -14.1175   20.6814 C   0  0  0  0  0  0  0  0  0  0  0  0
  -24.7189  -28.6592   21.3101 C   0  0  1  0  0  0  0  0  0  0  0  0
  -22.3212  -25.9907   20.0598 C   0  0  1  0  0  0  0  0  0  0  0  0
  -29.2920  -14.1587   21.0218 C   0  0  1  0  0  0  0  0  0  0  0  0
  -23.7458   -9.5403   21.5625 C   0  0  0  0  0  0  0  0  0  0  0  0
  -15.0068  -23.6231   21.0071 C   0  0  0  0  0  0  0  0  0  0  0  0
  -19.9405  -26.9640   23.8998 C   0  0  0  0  0  0  0  0  0  0  0  0
  -17.6892  -25.8830   24.0762 C   0  0  0  0  0  0  0  0  0  0  0  0
  -18.0349  -27.7915   22.5075 C   0  0  0  0  0  0  0  0  0  0  0  0
  -23.5014  -14.6211   24.3602 C   0  0  0  0  0  0  0  0  0  0  0  0
  -21.2595  -14.1968   23.3787 C   0  0  0  0  0  0  0  0  0  0  0  0
  -22.5518  -12.3111   24.3932 C   0  0  0  0  0  0  0  0  0  0  0  0
  -17.5322  -22.2550   18.5117 C   0  0  0  0  0  0  0  0  0  0  0  0
  -22.8684  -11.0712   19.1321 C   0  0  0  0  0  0  0  0  0  0  0  0
  -24.4990  -17.7814   21.7910 C   0  0  0  0  0  0  0  0  0  0  0  0
  -25.0173  -16.5797   21.0126 C   0  0  0  0  0  0  0  0  0  0  0  0
  -22.6107  -12.2998   21.2963 C   0  0  0  0  0  0  0  0  0  0  0  0
  -24.8818  -19.1112   21.1527 C   0  0  0  0  0  0  0  0  0  1  0  0
  -19.0299  -25.5346   21.9521 C   0  0  1  0  0  0  0  0  0  0  0  0
  -23.3471  -13.3424   22.1564 C   0  0  2  0  0  0  0  0  0  0  0  0
  -16.2746  -23.6393   20.1673 C   0  0  2  0  0  0  0  0  0  0  0  0
  -18.6963  -26.5282   23.1005 C   0  0  0  0  0  0  0  0  0  0  0  0
  -22.6719  -13.5969   23.5532 C   0  0  0  0  0  0  0  0  0  0  0  0
  -29.2547  -16.5409   20.3838 N   0  0  0  0  0  0  0  0  0  0  0  0
  -29.9636  -15.4023   20.4688 N   0  0  0  0  0  0  0  0  0  0  0  0
  -27.1524  -12.9190   21.2333 N   0  0  0  0  0  0  0  0  0  0  0  0
  -21.2331  -25.3905   20.8344 N   0  0  0  0  0  0  0  0  0  0  0  0
  -32.0997  -14.4711   20.0438 N   0  0  0  0  0  0  0  0  0  0  0  0
  -32.5550  -18.7668   18.7265 N   0  0  0  0  0  0  0  0  0  0  0  0
  -23.8174  -27.8323   20.5368 N   0  0  0  0  0  0  0  0  0  0  0  0
  -24.6689  -15.3264   21.6404 N   0  0  0  0  0  0  0  0  0  0  0  0
  -17.8743  -25.1258   21.1610 N   0  0  0  0  0  0  0  0  0  0  0  0
  -16.3456  -22.3644   19.3988 N   0  3  0  0  0  0  0  0  0  0  0  0
  -23.5535  -11.7056   20.3087 N   0  3  1  0  0  0  0  0  0  0  0  0
  -33.6348  -16.7525   18.9145 O   0  0  0  0  0  0  0  0  0  0  0  0
  -26.2707  -12.2869   19.1740 O   0  0  0  0  0  0  0  0  0  0  0  0
  -23.3622  -26.2314   22.1654 O   0  0  0  0  0  0  0  0  0  0  0  0
  -19.7563  -27.1295   20.3536 O   0  0  0  0  0  0  0  0  0  0  0  0
  -22.6446  -15.0267   20.5508 O   0  0  0  0  0  0  0  0  0  0  0  0
  -18.0907  -22.8504   21.5517 O   0  0  0  0  0  0  0  0  0  0  0  0
  -28.6164  -22.7025   18.9084 O   0  0  0  0  0  0  0  0  0  0  0  0
  -24.3420  -20.1672   21.9365 O   0  0  0  0  0  0  0  0  0  1  0  0
  -32.1050  -26.6809   20.4595 F   0  0  0  0  0  0  0  0  0  0  0  0
  -27.8525  -24.6217   20.7456 F   0  0  0  0  0  0  0  0  0  0  0  0
  1  2  1  0  0  0  0
  1  5  2  0  0  0  0
  2  6  2  0  0  0  0
  3  8  2  0  0  0  0
  3 15  1  0  0  0  0
  4  9  1  0  0  0  0
  4 15  2  0  0  0  0
  5 17  1  0  0  0  0
  6 19  1  0  0  0  0
  7 10  2  0  0  0  0
  7 18  1  0  0  0  0
  8 21  1  0  0  0  0
  9 21  2  0  0  0  0
 10 22  1  0  0  0  0
 11 12  2  0  0  0  0
 11 23  1  0  0  0  0
 12 24  1  0  0  0  0
 13 20  1  0  0  0  0
 13 22  2  0  0  0  0
 14 24  2  0  0  0  0
 14 25  1  0  0  0  0
 15 26  1  0  0  0  0
 16 26  1  0  0  0  0
 16 27  2  0  0  0  0
 16 29  1  0  0  0  0
 17 19  2  0  0  0  0
 17 36  1  0  0  0  0
 18 20  2  0  0  0  0
 18 37  1  0  0  0  0
 19 45  1  0  0  0  0
 20 38  1  0  0  0  0
 21 84  1  0  0  0  0
 22 85  1  0  0  0  0
 23 25  2  0  0  0  0
 23 84  1  0  0  0  0
 24 86  1  0  0  0  0
 25 87  1  0  0  0  0
 26 67  2  0  0  0  0
 27 68  1  0  0  0  0
 27 71  1  0  0  0  0
 28 30  2  0  0  0  0
 28 31  1  0  0  0  0
 29 72  1  0  0  0  0
 29 78  2  0  0  0  0
 30 48  1  0  0  0  0
 30 77  1  0  0  0  0
 31 69  1  0  0  0  0
 31 79  2  0  0  0  0
 32 46  1  0  0  0  0
 32 73  1  0  0  0  0
 32 80  2  0  0  0  0
 33 62  1  0  0  0  0
 33 70  1  0  0  0  0
 33 81  2  0  0  0  0
 34 63  1  0  0  0  0
 34 74  1  0  0  0  0
 34 82  2  0  0  0  0
 35 64  1  0  0  0  0
 35 75  1  0  0  0  0
 35 83  2  0  0  0  0
 36 39  1  0  0  0  0
 37 46  1  0  0  0  0
 38 70  1  0  0  0  0
 39 41  1  0  0  0  0
 40 42  1  0  0  0  0
 40 43  1  0  0  0  0
 41 45  1  0  0  0  0
 42 47  1  0  0  0  0
 43 69  1  0  0  0  0
 44 47  1  0  0  0  0
 44 69  1  0  0  0  0
 45 73  1  0  0  0  0
 46 70  1  0  0  0  0
 47 68  1  0  0  0  0
 49 64  1  0  0  0  0
 50 65  1  0  0  0  0
 51 65  1  0  0  0  0
 52 65  1  0  0  0  0
 53 66  1  0  0  0  0
 54 66  1  0  0  0  0
 55 66  1  0  0  0  0
 56 76  1  0  0  0  0
 57 77  1  0  0  0  0
 58 59  1  0  0  0  0
 58 61  1  0  0  0  0
 59 74  1  0  0  0  0
 60 63  1  0  0  0  0
 60 77  1  0  0  0  0
 61 85  1  0  0  0  0
 62 65  1  0  0  0  0
 62 75  1  0  0  0  0
 63 66  1  0  0  0  0
 64 76  1  0  0  0  0
 67 68  1  0  0  0  0
M  CHG  2  76   1  77   1
M  ISO  4  28 100  31 100  61 101  85 101
M  END
> <Batch ID>
0015

> <Smiles>
CNC(C)C(=O)NC(C(=O)N1Cc2cc([101O:1][101CH2:1]CCNC(=O)C(CN(C)C(C)=[100CH:0][100C:0](=O)N3CCCC(n4nc(-c5ccc(Oc6ccc(F)cc6F)cc5)c(C(N)=O)c4N)C3)C(C)(C)C)ccc2CC1C(=O)NC1CCCc2ccccc21)C(C)(C)C

> <Shape>
0.253

> <Color>
0.070

> <Negative vol penalty>
0.000

$$$$

  -OEChem-04052315553D

 85 93  0     1  0  0  0  0  0999 V2000
  -23.9236  -33.8787   15.2179 C   0  0  0  0  0  0  0  0  0  0  0  0
  -24.9035  -32.8921   15.2586 C   0  0  0  0  0  0  0  0  0  0  0  0
  -26.0324  -12.5116   21.2589 C   0  0  0  0  0  0  0  0  0  0  0  0
  -25.1494  -13.3870   19.1874 C   0  0  0  0  0  0  0  0  0  0  0  0
  -23.5038  -34.4917   16.3977 C   0  0  0  0  0  0  0  0  0  0  0  0
  -25.4651  -32.5187   16.4791 C   0  0  0  0  0  0  0  0  0  0  0  0
  -27.3297  -26.9190   18.1142 C   0  0  0  0  0  0  0  0  0  0  0  0
  -25.4953  -11.2597   20.9588 C   0  0  0  0  0  0  0  0  0  0  0  0
  -24.6124  -12.1351   18.8873 C   0  0  0  0  0  0  0  0  0  0  0  0
  -28.5878  -26.3186   18.1366 C   0  0  0  0  0  0  0  0  0  0  0  0
  -22.4739   -9.7502   21.0879 C   0  0  0  0  0  0  0  0  0  0  0  0
  -21.8026   -9.0729   22.1059 C   0  0  0  0  0  0  0  0  0  0  0  0
  -28.8052  -26.8754   20.4736 C   0  0  0  0  0  0  0  0  0  0  0  0
  -29.8720  -20.2085   23.4630 C   0  0  0  0  0  0  0  0  0  0  0  0
  -27.8262  -21.4460   23.1163 C   0  0  0  0  0  0  0  0  0  0  0  0
  -23.3748   -7.2471   21.9277 C   0  0  0  0  0  0  0  0  0  0  0  0
  -25.8594  -13.5752   20.3732 C   0  0  0  0  0  0  0  0  0  0  0  0
  -27.6916  -15.3500   20.3413 C   0  0  0  0  0  0  0  0  0  0  0  0
  -24.0536  -34.1189   17.6343 C   0  0  0  0  0  0  0  0  0  0  0  0
  -26.8037  -27.5127   19.2706 C   0  0  0  0  0  0  0  0  0  0  0  0
  -25.0532  -33.1283   17.6764 C   0  0  0  0  0  0  0  0  0  0  0  0
  -27.5392  -27.4804   20.4640 C   0  0  0  0  0  0  0  0  0  0  0  0
  -29.5933  -21.5483   21.4719 C   0  0  0  0  0  0  0  0  0  0  0  0
  -28.6011  -20.5869   23.8956 C   0  0  0  0  0  0  0  0  0  0  0  0
  -24.7853  -11.0715   19.7730 C   0  0  0  0  0  0  0  0  0  0  0  0
  -29.3270  -26.2993   19.3156 C   0  0  0  0  0  0  0  0  0  0  0  0
  -23.5955   -9.1760   20.4897 C   0  0  0  0  0  0  0  0  0  0  0  0
  -22.2531   -7.8214   22.5258 C   0  0  0  0  0  0  0  0  0  0  0  0
  -30.3681  -20.6892   22.2511 C   0  0  0  0  0  0  0  0  0  0  0  0
  -28.3223  -21.9267   21.9045 C   0  0  0  0  0  0  0  0  0  0  0  0
  -24.0460   -7.9244   20.9097 C   0  0  0  0  0  0  0  0  0  0  0  0
  -26.4135  -14.8687   20.6829 C   0  0  0  0  0  0  0  0  0  0  0  0
  -27.7301  -16.6208   20.8609 C   0  0  0  0  0  0  0  0  0  0  0  0
  -28.7493  -14.7059   19.6187 C   0  0  0  0  0  0  0  0  0  0  0  0
  -25.9234  -30.4584   20.0780 C   0  0  0  0  0  0  0  0  0  0  0  0
  -24.9020  -28.9921   22.7852 C   0  0  0  0  0  0  0  0  0  0  0  0
  -25.1639  -26.3429   24.9207 C   0  0  0  0  0  0  0  0  0  0  0  0
  -26.7165  -19.8828   25.3935 C   0  0  0  0  0  0  0  0  0  0  0  0
  -23.6017  -34.8432   18.8776 C   0  0  0  0  0  0  0  0  0  0  0  0
  -25.4337  -28.1328   19.2367 C   0  0  0  0  0  0  0  0  0  0  0  0
  -27.0108  -28.0859   21.7378 C   0  0  0  0  0  0  0  0  0  0  0  0
  -23.9789  -34.1261   20.1714 C   0  0  0  0  0  0  0  0  0  0  0  0
  -24.0966  -19.5347   22.8035 C   0  0  0  0  0  0  0  0  0  0  0  0
  -25.4351  -33.6742   20.1263 C   0  0  0  0  0  0  0  0  0  0  0  0
  -24.5298  -18.2788   22.0495 C   0  0  0  0  0  0  0  0  0  0  0  0
  -24.5502  -19.5055   24.2599 C   0  0  0  0  0  0  0  0  0  0  0  0
  -26.4555  -18.0363   23.6663 C   0  0  0  0  0  0  0  0  0  0  0  0
  -25.6686  -32.6784   18.9837 C   0  0  1  0  0  0  0  0  0  0  0  0
  -25.2152  -29.1600   20.3433 C   0  0  1  0  0  0  0  0  0  0  0  0
  -26.0455  -18.0597   22.1862 C   0  0  1  0  0  0  0  0  0  0  0  0
  -24.2247  -25.4419   27.0662 C   0  0  0  0  0  0  0  0  0  0  0  0
  -33.0959  -24.2304   19.3606 C   0  0  0  0  0  0  0  0  0  0  0  0
  -26.5549  -31.0188   24.3571 C   0  0  0  0  0  0  0  0  0  0  0  0
  -26.3554  -29.5259   26.3570 C   0  0  0  0  0  0  0  0  0  0  0  0
  -24.3082  -30.5209   25.3364 C   0  0  0  0  0  0  0  0  0  0  0  0
  -28.9968  -20.0441   26.2913 C   0  0  0  0  0  0  0  0  0  0  0  0
  -24.1484  -23.9039   23.5870 C   0  0  0  0  0  0  0  0  0  0  0  0
  -30.1268  -22.0649   20.1683 C   0  0  0  0  0  0  0  0  0  0  0  0
  -30.7743  -24.6252   18.4445 C   0  0  0  0  0  0  0  0  0  1  0  0
  -25.5213  -28.6645   24.1224 C   0  0  1  0  0  0  0  0  0  0  0  0
  -24.1111  -25.4483   25.5497 C   0  0  2  0  0  0  0  0  0  0  0  0
  -31.7387  -23.6163   19.0577 C   0  0  2  0  0  0  0  0  0  0  0  0
  -25.6960  -29.9227   25.0189 C   0  0  0  0  0  0  0  0  0  0  0  0
  -25.6923  -15.7611   21.3667 N   0  0  0  0  0  0  0  0  0  0  0  0
  -26.5200  -16.8158   21.4591 N   0  0  0  0  0  0  0  0  0  0  0  0
  -25.6690  -28.6858   21.6523 N   0  0  0  0  0  0  0  0  0  0  0  0
  -25.9843  -19.2364   24.3766 N   0  0  0  0  0  0  0  0  0  0  0  0
  -28.6807  -17.5793   20.8599 N   0  0  0  0  0  0  0  0  0  0  0  0
  -28.5429  -13.3994   19.1554 N   0  0  0  0  0  0  0  0  0  0  0  0
  -25.1793  -31.3663   19.3490 N   0  0  0  0  0  0  0  0  0  0  0  0
  -24.6900  -27.6210   24.7126 N   0  0  0  0  0  0  0  0  0  0  0  0
  -28.0875  -20.0895   25.1484 N   0  0  0  0  0  0  0  0  0  0  0  0
  -24.2619  -24.0484   25.0612 N   0  3  0  0  0  0  0  0  0  0  0  0
  -31.1556  -23.1221   20.3386 N   0  3  0  0  0  0  0  0  0  0  0  0
  -29.8511  -15.2662   19.4050 O   0  0  0  0  0  0  0  0  0  0  0  0
  -27.0601  -30.6248   20.5045 O   0  0  0  0  0  0  0  0  0  0  0  0
  -23.7761  -29.4946   22.7472 O   0  0  0  0  0  0  0  0  0  0  0  0
  -26.2948  -25.9486   24.6451 O   0  0  0  0  0  0  0  0  0  0  0  0
  -26.1980  -20.2043   26.4698 O   0  0  0  0  0  0  0  0  0  0  0  0
  -24.2613   -9.8500   19.4798 O   0  0  0  0  0  0  0  0  0  0  0  0
  -30.5555  -25.7145   19.3401 O   0  0  0  0  0  0  0  0  0  1  0  0
  -21.6094   -7.1717   23.5044 F   0  0  0  0  0  0  0  0  0  0  0  0
  -31.5903  -20.3198   21.8430 F   0  0  0  0  0  0  0  0  0  0  0  0
  -27.5702  -22.7514   21.1626 F   0  0  0  0  0  0  0  0  0  0  0  0
  -25.1237   -7.3682   20.3396 F   0  0  0  0  0  0  0  0  0  0  0  0
  1  2  1  0  0  0  0
  1  5  2  0  0  0  0
  2  6  2  0  0  0  0
  3  8  2  0  0  0  0
  3 17  1  0  0  0  0
  4  9  1  0  0  0  0
  4 17  2  0  0  0  0
  5 19  1  0  0  0  0
  6 21  1  0  0  0  0
  7 10  2  0  0  0  0
  7 20  1  0  0  0  0
  8 25  1  0  0  0  0
  9 25  2  0  0  0  0
 10 26  1  0  0  0  0
 11 12  2  0  0  0  0
 11 27  1  0  0  0  0
 12 28  1  0  0  0  0
 13 22  1  0  0  0  0
 13 26  2  0  0  0  0
 14 24  1  0  0  0  0
 14 29  2  0  0  0  0
 15 24  2  0  0  0  0
 15 30  1  0  0  0  0
 16 28  2  0  0  0  0
 16 31  1  0  0  0  0
 17 32  1  0  0  0  0
 18 32  1  0  0  0  0
 18 33  2  0  0  0  0
 18 34  1  0  0  0  0
 19 21  2  0  0  0  0
 19 39  1  0  0  0  0
 20 22  2  0  0  0  0
 20 40  1  0  0  0  0
 21 48  1  0  0  0  0
 22 41  1  0  0  0  0
 23 29  1  0  0  0  0
 23 30  2  0  0  0  0
 23 58  1  0  0  0  0
 24 72  1  0  0  0  0
 25 80  1  0  0  0  0
 26 81  1  0  0  0  0
 27 31  2  0  0  0  0
 27 80  1  0  0  0  0
 28 82  1  0  0  0  0
 29 83  1  0  0  0  0
 30 84  1  0  0  0  0
 31 85  1  0  0  0  0
 32 64  2  0  0  0  0
 33 65  1  0  0  0  0
 33 68  1  0  0  0  0
 34 69  1  0  0  0  0
 34 75  2  0  0  0  0
 35 49  1  0  0  0  0
 35 70  1  0  0  0  0
 35 76  2  0  0  0  0
 36 60  1  0  0  0  0
 36 66  1  0  0  0  0
 36 77  2  0  0  0  0
 37 61  1  0  0  0  0
 37 71  1  0  0  0  0
 37 78  2  0  0  0  0
 38 67  1  0  0  0  0
 38 72  1  0  0  0  0
 38 79  2  0  0  0  0
 39 42  1  0  0  0  0
 40 49  1  0  0  0  0
 41 66  1  0  0  0  0
 42 44  1  0  0  0  0
 43 45  1  0  0  0  0
 43 46  1  0  0  0  0
 44 48  1  0  0  0  0
 45 50  1  0  0  0  0
 46 67  1  0  0  0  0
 47 50  1  0  0  0  0
 47 67  1  0  0  0  0
 48 70  1  0  0  0  0
 49 66  1  0  0  0  0
 50 65  1  0  0  0  0
 51 61  1  0  0  0  0
 52 62  1  0  0  0  0
 53 63  1  0  0  0  0
 54 63  1  0  0  0  0
 55 63  1  0  0  0  0
 56 72  1  0  0  0  0
 57 73  1  0  0  0  0
 58 74  1  0  0  0  0
 59 62  1  0  0  0  0
 59 81  1  0  0  0  0
 60 63  1  0  0  0  0
 60 71  1  0  0  0  0
 61 73  1  0  0  0  0
 62 74  1  0  0  0  0
 64 65  1  0  0  0  0
M  CHG  2  73   1  74   1
M  ISO  4  38 100  59 101  72 100  81 101
M  END
> <Batch ID>
0015

> <Smiles>
CNC(C)C(=O)NC(C(=O)N1Cc2cc([101O:1][101CH2:1]C(C)NCc3c(F)cc([100N:0](C)[100C:0](=O)N4CCCC(n5nc(-c6ccc(Oc7ccc(F)cc7F)cc6)c(C(N)=O)c5N)C4)cc3F)ccc2CC1C(=O)NC1CCCc2ccccc21)C(C)(C)C

> <Shape>
0.207

> <Color>
0.071

> <Negative vol penalty>
0.000

$$$$

  -OEChem-04052315553D

 87 95  0     1  0  0  0  0  0999 V2000
  -27.8237  -24.7061   16.6928 C   0  0  0  0  0  0  0  0  0  0  0  0
  -26.6474  -24.9392   17.3981 C   0  0  0  0  0  0  0  0  0  0  0  0
  -25.7616  -12.2133   21.9492 C   0  0  0  0  0  0  0  0  0  0  0  0
  -23.4620  -12.9525   21.8992 C   0  0  0  0  0  0  0  0  0  0  0  0
  -29.0397  -25.1663   17.1962 C   0  0  0  0  0  0  0  0  0  0  0  0
  -26.6866  -25.6316   18.6078 C   0  0  0  0  0  0  0  0  0  0  0  0
  -23.0402  -29.1275   18.9645 C   0  0  0  0  0  0  0  0  0  0  0  0
  -25.4886  -11.4404   23.0778 C   0  0  0  0  0  0  0  0  0  0  0  0
  -23.1890  -12.1796   23.0278 C   0  0  0  0  0  0  0  0  0  0  0  0
  -21.7561  -28.6792   19.2711 C   0  0  0  0  0  0  0  0  0  0  0  0
  -21.8002  -10.1192   25.6819 C   0  0  0  0  0  0  0  0  0  0  0  0
  -20.6356   -9.3517   25.6770 C   0  0  0  0  0  0  0  0  0  0  0  0
  -22.0871  -29.3234   21.5721 C   0  0  0  0  0  0  0  0  0  0  0  0
  -23.1429  -22.2619   20.1870 C   0  0  0  0  0  0  0  0  0  0  0  0
  -21.4296   -8.1594   23.7314 C   0  0  0  0  0  0  0  0  0  0  0  0
  -24.7483  -12.9694   21.3600 C   0  0  0  0  0  0  0  0  0  0  0  0
  -24.9311  -13.3713   18.8475 C   0  0  0  0  0  0  0  0  0  0  0  0
  -29.0927  -25.8731   18.4079 C   0  0  0  0  0  0  0  0  0  0  0  0
  -23.8628  -29.6680   19.9634 C   0  0  0  0  0  0  0  0  0  0  0  0
  -27.9047  -26.1004   19.1286 C   0  0  0  0  0  0  0  0  0  0  0  0
  -23.3803  -29.7802   21.2751 C   0  0  0  0  0  0  0  0  0  0  0  0
  -20.4697  -21.4640   20.1853 C   0  0  0  0  0  0  0  0  0  0  0  0
  -21.4646  -20.5702   19.7891 C   0  0  0  0  0  0  0  0  0  0  0  0
  -20.8114  -22.7567   20.5824 C   0  0  0  0  0  0  0  0  0  0  0  0
  -22.8012  -20.9691   19.7900 C   0  0  0  0  0  0  0  0  0  0  0  0
  -24.2023  -11.4235   23.6171 C   0  0  0  0  0  0  0  0  0  0  0  0
  -21.2805  -28.7744   20.5756 C   0  0  0  0  0  0  0  0  0  0  0  0
  -22.7795   -9.9070   24.7116 C   0  0  0  0  0  0  0  0  0  0  0  0
  -20.4502   -8.3717   24.7018 C   0  0  0  0  0  0  0  0  0  0  0  0
  -22.1480  -23.1557   20.5833 C   0  0  0  0  0  0  0  0  0  0  0  0
  -22.5942   -8.9270   23.7364 C   0  0  0  0  0  0  0  0  0  0  0  0
  -25.0297  -13.7684   20.1944 C   0  0  0  0  0  0  0  0  0  0  0  0
  -25.3034  -14.4840   18.1333 C   0  0  0  0  0  0  0  0  0  0  0  0
  -24.5381  -12.1096   18.2915 C   0  0  0  0  0  0  0  0  0  0  0  0
  -26.6678  -28.8757   21.2312 C   0  0  0  0  0  0  0  0  0  0  0  0
  -26.3216  -31.6999   22.7888 C   0  0  0  0  0  0  0  0  0  0  0  0
  -24.2245  -34.1217   23.9651 C   0  0  0  0  0  0  0  0  0  0  0  0
  -25.1978  -20.3347   19.3426 C   0  0  0  0  0  0  0  0  0  0  0  0
  -30.4365  -26.3096   18.9355 C   0  0  0  0  0  0  0  0  0  0  0  0
  -25.2356  -30.1717   19.6110 C   0  0  0  0  0  0  0  0  0  0  0  0
  -24.2162  -30.3713   22.3798 C   0  0  0  0  0  0  0  0  0  0  0  0
  -30.3455  -27.3614   20.0382 C   0  0  0  0  0  0  0  0  0  0  0  0
  -28.0486  -18.3948   18.4553 C   0  0  0  0  0  0  0  0  0  0  0  0
  -29.2947  -26.9637   21.0699 C   0  0  0  0  0  0  0  0  0  0  0  0
  -27.5870  -16.9519   18.6722 C   0  0  0  0  0  0  0  0  0  0  0  0
  -27.4690  -19.3398   19.5065 C   0  0  0  0  0  0  0  0  0  0  0  0
  -25.5473  -17.8417   19.8702 C   0  0  0  0  0  0  0  0  0  0  0  0
  -27.9034  -26.8693   20.4320 C   0  0  1  0  0  0  0  0  0  0  0  0
  -26.1761  -30.2318   20.8107 C   0  0  1  0  0  0  0  0  0  0  0  0
  -26.0533  -16.8636   18.7973 C   0  0  2  0  0  0  0  0  0  0  0  0
  -19.0356  -21.0379   20.1855 C   0  0  0  0  0  0  0  0  0  0  0  0
  -21.0963  -19.1827   19.3642 C   0  0  0  0  0  0  0  0  0  0  0  0
  -24.2312  -36.2892   25.2298 C   0  0  0  0  0  0  0  0  0  0  0  0
  -26.7761  -30.1763   25.3930 C   0  0  0  0  0  0  0  0  0  0  0  0
  -25.8454  -32.1462   26.6266 C   0  0  0  0  0  0  0  0  0  0  0  0
  -27.9232  -32.3951   25.2687 C   0  0  0  0  0  0  0  0  0  0  0  0
  -17.1550  -25.6518   19.0151 C   0  0  0  0  0  0  0  0  0  0  0  0
  -16.9478  -24.4702   21.2228 C   0  0  0  0  0  0  0  0  0  0  0  0
  -23.0445  -35.5908   21.6829 C   0  0  0  0  0  0  0  0  0  0  0  0
  -19.7582  -23.7349   21.0124 C   0  0  0  0  0  0  0  0  0  0  0  0
  -18.5335  -26.4636   20.9601 C   0  0  0  0  0  0  0  0  0  0  0  0
  -19.5107  -27.2591   20.0985 C   0  0  0  0  0  0  0  0  0  1  0  0
  -25.6995  -32.1313   24.0949 C   0  0  1  0  0  0  0  0  0  0  0  0
  -24.2726  -35.6352   23.8575 C   0  0  2  0  0  0  0  0  0  0  0  0
  -26.5458  -31.6992   25.3256 C   0  0  0  0  0  0  0  0  0  0  0  0
  -17.8931  -25.2316   20.2913 C   0  0  0  0  0  0  0  0  0  0  0  0
  -25.4332  -15.0344   20.3306 N   0  0  0  0  0  0  0  0  0  0  0  0
  -25.5915  -15.4424   19.0599 N   0  0  0  0  0  0  0  0  0  0  0  0
  -25.5540  -30.8439   21.9865 N   0  0  0  0  0  0  0  0  0  0  0  0
  -26.0120  -19.2042   19.5658 N   0  0  0  0  0  0  0  0  0  0  0  0
  -25.4093  -14.7261   16.8095 N   0  0  0  0  0  0  0  0  0  0  0  0
  -24.1868  -11.0737   19.1677 N   0  0  0  0  0  0  0  0  0  0  0  0
  -23.8281  -20.0777   19.3918 N   0  0  0  0  0  0  0  0  0  0  0  0
  -27.3446  -28.1904   20.2403 N   0  0  0  0  0  0  0  0  0  0  0  0
  -25.4884  -33.5711   23.9906 N   0  0  0  0  0  0  0  0  0  0  0  0
  -23.1147  -36.1350   23.0635 N   0  3  0  0  0  0  0  0  0  0  0  0
  -18.9783  -24.2846   19.8781 N   0  3  0  0  0  0  0  0  0  0  0  0
  -24.5153  -11.9017   17.0546 O   0  0  0  0  0  0  0  0  0  0  0  0
  -26.4507  -28.4809   22.3708 O   0  0  0  0  0  0  0  0  0  0  0  0
  -27.4443  -32.1132   22.4881 O   0  0  0  0  0  0  0  0  0  0  0  0
  -23.1711  -33.4913   24.0247 O   0  0  0  0  0  0  0  0  0  0  0  0
  -25.6800  -21.4434   19.0970 O   0  0  0  0  0  0  0  0  0  0  0  0
  -23.9356  -10.6693   24.7183 O   0  0  0  0  0  0  0  0  0  0  0  0
  -20.0277  -28.3370   20.8777 O   0  0  0  0  0  0  0  0  0  1  0  0
  -19.3325   -7.6337   24.6981 F   0  0  0  0  0  0  0  0  0  0  0  0
  -22.4866  -24.3960   20.9623 F   0  0  0  0  0  0  0  0  0  0  0  0
  -23.5320   -8.7177   22.8023 F   0  0  0  0  0  0  0  0  0  0  0  0
  1  2  1  0  0  0  0
  1  5  2  0  0  0  0
  2  6  2  0  0  0  0
  3  8  2  0  0  0  0
  3 16  1  0  0  0  0
  4  9  1  0  0  0  0
  4 16  2  0  0  0  0
  5 18  1  0  0  0  0
  6 20  1  0  0  0  0
  7 10  2  0  0  0  0
  7 19  1  0  0  0  0
  8 26  1  0  0  0  0
  9 26  2  0  0  0  0
 10 27  1  0  0  0  0
 11 12  2  0  0  0  0
 11 28  1  0  0  0  0
 12 29  1  0  0  0  0
 13 21  1  0  0  0  0
 13 27  2  0  0  0  0
 14 25  1  0  0  0  0
 14 30  2  0  0  0  0
 15 29  2  0  0  0  0
 15 31  1  0  0  0  0
 16 32  1  0  0  0  0
 17 32  1  0  0  0  0
 17 33  2  0  0  0  0
 17 34  1  0  0  0  0
 18 20  2  0  0  0  0
 18 39  1  0  0  0  0
 19 21  2  0  0  0  0
 19 40  1  0  0  0  0
 20 48  1  0  0  0  0
 21 41  1  0  0  0  0
 22 23  1  0  0  0  0
 22 24  2  0  0  0  0
 22 51  1  0  0  0  0
 23 25  2  0  0  0  0
 23 52  1  0  0  0  0
 24 30  1  0  0  0  0
 24 60  1  0  0  0  0
 25 73  1  0  0  0  0
 26 83  1  0  0  0  0
 27 84  1  0  0  0  0
 28 31  2  0  0  0  0
 28 83  1  0  0  0  0
 29 85  1  0  0  0  0
 30 86  1  0  0  0  0
 31 87  1  0  0  0  0
 32 67  2  0  0  0  0
 33 68  1  0  0  0  0
 33 71  1  0  0  0  0
 34 72  1  0  0  0  0
 34 78  2  0  0  0  0
 35 49  1  0  0  0  0
 35 74  1  0  0  0  0
 35 79  2  0  0  0  0
 36 63  1  0  0  0  0
 36 69  1  0  0  0  0
 36 80  2  0  0  0  0
 37 64  1  0  0  0  0
 37 75  1  0  0  0  0
 37 81  2  0  0  0  0
 38 70  1  0  0  0  0
 38 73  1  0  0  0  0
 38 82  2  0  0  0  0
 39 42  1  0  0  0  0
 40 49  1  0  0  0  0
 41 69  1  0  0  0  0
 42 44  1  0  0  0  0
 43 45  1  0  0  0  0
 43 46  1  0  0  0  0
 44 48  1  0  0  0  0
 45 50  1  0  0  0  0
 46 70  1  0  0  0  0
 47 50  1  0  0  0  0
 47 70  1  0  0  0  0
 48 74  1  0  0  0  0
 49 69  1  0  0  0  0
 50 68  1  0  0  0  0
 53 64  1  0  0  0  0
 54 65  1  0  0  0  0
 55 65  1  0  0  0  0
 56 65  1  0  0  0  0
 57 66  1  0  0  0  0
 58 66  1  0  0  0  0
 59 76  1  0  0  0  0
 60 77  1  0  0  0  0
 61 62  1  0  0  0  0
 61 66  1  0  0  0  0
 62 84  1  0  0  0  0
 63 65  1  0  0  0  0
 63 75  1  0  0  0  0
 64 76  1  0  0  0  0
 66 77  1  0  0  0  0
 67 68  1  0  0  0  0
M  CHG  2  76   1  77   1
M  ISO  4  38 100  62 101  73 100  84 101
M  END
> <Batch ID>
0015

> <Smiles>
CNC(C)C(=O)NC(C(=O)N1Cc2cc([101O:1][101CH2:1]CC(C)(C)NCc3c(F)cc([100NH:0][100C:0](=O)N4CCCC(n5nc(-c6ccc(Oc7ccc(F)cc7F)cc6)c(C(N)=O)c5N)C4)c(C)c3C)ccc2CC1C(=O)NC1CCCc2ccccc21)C(C)(C)C

> <Shape>
0.248

> <Color>
0.073

> <Negative vol penalty>
0.000

$$$$

  -OEChem-04052315553D

 89 96  0     1  0  0  0  0  0999 V2000
  -27.6624  -24.2317   16.9860 C   0  0  0  0  0  0  0  0  0  0  0  0
  -26.4847  -24.5354   17.6615 C   0  0  0  0  0  0  0  0  0  0  0  0
  -28.0858  -14.7041   19.7962 C   0  0  0  0  0  0  0  0  0  0  0  0
  -25.7715  -15.3670   19.5926 C   0  0  0  0  0  0  0  0  0  0  0  0
  -28.8867  -24.6672   17.4913 C   0  0  0  0  0  0  0  0  0  0  0  0
  -26.5308  -25.2738   18.8435 C   0  0  0  0  0  0  0  0  0  0  0  0
  -23.0109  -28.9112   19.0002 C   0  0  0  0  0  0  0  0  0  0  0  0
  -27.6857  -13.4158   20.1505 C   0  0  0  0  0  0  0  0  0  0  0  0
  -25.3713  -14.0786   19.9469 C   0  0  0  0  0  0  0  0  0  0  0  0
  -21.7066  -28.5224   19.3025 C   0  0  0  0  0  0  0  0  0  0  0  0
  -25.1024  -11.0574   18.4567 C   0  0  0  0  0  0  0  0  0  0  0  0
  -24.0874  -10.4659   17.7047 C   0  0  0  0  0  0  0  0  0  0  0  0
  -22.0255  -29.2458   21.5816 C   0  0  0  0  0  0  0  0  0  0  0  0
  -22.7264  -10.2749   19.6917 C   0  0  0  0  0  0  0  0  0  0  0  0
  -27.1287  -15.6798   19.5172 C   0  0  0  0  0  0  0  0  0  0  0  0
  -27.7944  -17.4965   17.8547 C   0  0  0  0  0  0  0  0  0  0  0  0
  -28.9470  -25.4196   18.6749 C   0  0  0  0  0  0  0  0  0  0  0  0
  -23.8373  -29.4611   19.9907 C   0  0  0  0  0  0  0  0  0  0  0  0
  -27.7572  -25.7186   19.3658 C   0  0  0  0  0  0  0  0  0  0  0  0
  -23.3391  -29.6431   21.2887 C   0  0  0  0  0  0  0  0  0  0  0  0
  -26.3284  -13.1030   20.2259 C   0  0  0  0  0  0  0  0  0  0  0  0
  -21.2147  -28.6870   20.5940 C   0  0  0  0  0  0  0  0  0  0  0  0
  -24.9293  -11.2577   19.8263 C   0  0  0  0  0  0  0  0  0  0  0  0
  -22.8995  -10.0746   18.3222 C   0  0  0  0  0  0  0  0  0  0  0  0
  -23.7414  -10.8665   20.4438 C   0  0  0  0  0  0  0  0  0  0  0  0
  -27.5415  -17.0110   19.1517 C   0  0  0  0  0  0  0  0  0  0  0  0
  -28.1529  -18.8090   18.0433 C   0  0  0  0  0  0  0  0  0  0  0  0
  -27.7126  -16.8216   16.5924 C   0  0  0  0  0  0  0  0  0  0  0  0
  -26.5913  -28.6189   21.3361 C   0  0  0  0  0  0  0  0  0  0  0  0
  -26.3256  -31.5140   22.7749 C   0  0  0  0  0  0  0  0  0  0  0  0
  -19.4639  -24.6928   22.2707 C   0  0  0  0  0  0  0  0  0  0  0  0
  -24.3014  -34.0555   23.8191 C   0  0  0  0  0  0  0  0  0  0  0  0
  -22.4163  -24.0925   23.2315 C   0  0  0  0  0  0  0  0  0  0  0  0
  -26.9768  -22.7755   22.3716 C   0  0  0  0  0  0  0  0  0  0  0  0
  -30.2977  -25.8279   19.2075 C   0  0  0  0  0  0  0  0  0  0  0  0
  -25.2331  -29.9000   19.6420 C   0  0  0  0  0  0  0  0  0  0  0  0
  -24.1792  -30.2473   22.3831 C   0  0  0  0  0  0  0  0  0  0  0  0
  -30.2286  -26.9256   20.2660 C   0  0  0  0  0  0  0  0  0  0  0  0
  -30.1866  -21.7103   21.2584 C   0  0  0  0  0  0  0  0  0  0  0  0
  -29.1480  -26.6079   21.2947 C   0  0  0  0  0  0  0  0  0  0  0  0
  -29.8955  -20.4289   20.4753 C   0  0  0  0  0  0  0  0  0  0  0  0
  -29.2720  -21.8492   22.4735 C   0  0  0  0  0  0  0  0  0  0  0  0
  -27.5393  -20.4676   21.3950 C   0  0  0  0  0  0  0  0  0  0  0  0
  -27.7641  -26.5386   20.6377 C   0  0  1  0  0  0  0  0  0  0  0  0
  -26.1565  -29.9740   20.8541 C   0  0  1  0  0  0  0  0  0  0  0  0
  -28.3990  -20.3112   20.1289 C   0  0  2  0  0  0  0  0  0  0  0  0
  -24.3686  -36.2702   24.9971 C   0  0  0  0  0  0  0  0  0  0  0  0
  -26.6833  -30.0804   25.4445 C   0  0  0  0  0  0  0  0  0  0  0  0
  -25.8071  -32.1306   26.5835 C   0  0  0  0  0  0  0  0  0  0  0  0
  -27.9133  -32.2494   25.2521 C   0  0  0  0  0  0  0  0  0  0  0  0
  -17.7393  -24.5924   24.8150 C   0  0  0  0  0  0  0  0  0  0  0  0
  -18.3862  -22.3682   23.9005 C   0  0  0  0  0  0  0  0  0  0  0  0
  -19.5189  -23.2498   25.9493 C   0  0  0  0  0  0  0  0  0  0  0  0
  -23.2119  -35.4737   21.4611 C   0  0  0  0  0  0  0  0  0  0  0  0
  -24.2710  -23.7351   25.2811 C   0  0  0  0  0  0  0  0  0  0  0  0
  -23.1599  -21.5268   24.9815 C   0  0  0  0  0  0  0  0  0  0  0  0
  -18.3589  -26.5011   20.9901 C   0  0  0  0  0  0  0  0  0  0  0  0
  -24.6346  -23.5734   22.1804 C   0  0  0  0  0  0  0  0  0  0  0  0
  -19.3977  -27.2190   20.1472 C   0  0  0  0  0  0  0  0  0  1  0  0
  -25.6998  -32.0196   24.0522 C   0  0  1  0  0  0  0  0  0  0  0  0
  -19.9816  -24.3406   23.6654 C   0  0  1  0  0  0  0  0  0  0  0  0
  -24.4071  -35.5606   23.6526 C   0  0  2  0  0  0  0  0  0  0  0  0
  -23.4847  -23.0326   23.0250 C   0  0  1  0  0  0  0  0  0  0  0  0
  -26.5104  -31.6068   25.3132 C   0  0  0  0  0  0  0  0  0  0  0  0
  -18.9324  -23.6403   24.5790 C   0  0  0  0  0  0  0  0  0  0  0  0
  -27.7239  -17.9394   20.0945 N   0  0  0  0  0  0  0  0  0  0  0  0
  -28.0954  -19.0214   19.3893 N   0  0  0  0  0  0  0  0  0  0  0  0
  -25.5394  -30.6549   21.9942 N   0  0  0  0  0  0  0  0  0  0  0  0
  -27.8669  -21.7298   22.0765 N   0  0  0  0  0  0  0  0  0  0  0  0
  -28.5085  -19.7904   17.1874 N   0  0  0  0  0  0  0  0  0  0  0  0
  -27.3285  -15.4738   16.5791 N   0  0  0  0  0  0  0  0  0  0  0  0
  -27.2576  -27.8704   20.3846 N   0  0  0  0  0  0  0  0  0  0  0  0
  -18.9262  -25.9721   22.2021 N   0  0  0  0  0  0  0  0  0  0  0  0
  -25.5436  -33.4608   23.8877 N   0  0  0  0  0  0  0  0  0  0  0  0
  -21.1630  -23.5389   23.4464 N   0  0  0  0  0  0  0  0  0  0  0  0
  -25.6651  -22.5845   21.9549 N   0  0  0  0  0  0  0  0  0  0  0  0
  -23.2808  -36.0700   22.8200 N   0  3  0  0  0  0  0  0  0  0  0  0
  -24.0217  -22.5839   24.3431 N   0  3  0  0  0  0  0  0  0  0  0  0
  -27.9883  -17.3921   15.5098 O   0  0  0  0  0  0  0  0  0  0  0  0
  -26.3422  -28.2782   22.4865 O   0  0  0  0  0  0  0  0  0  0  0  0
  -27.4673  -31.8739   22.4771 O   0  0  0  0  0  0  0  0  0  0  0  0
  -19.5062  -23.9074   21.3249 O   0  0  0  0  0  0  0  0  0  0  0  0
  -23.2247  -33.4666   23.8857 O   0  0  0  0  0  0  0  0  0  0  0  0
  -22.6603  -25.2967   23.2032 O   0  0  0  0  0  0  0  0  0  0  0  0
  -27.3263  -23.8055   22.9580 O   0  0  0  0  0  0  0  0  0  0  0  0
  -25.9376  -11.8459   20.5714 O   0  0  0  0  0  0  0  0  0  0  0  0
  -19.9421  -28.3078   20.8919 O   0  0  0  0  0  0  0  0  0  1  0  0
  -21.9243   -9.5080   17.5996 F   0  0  0  0  0  0  0  0  0  0  0  0
  -23.5689  -11.0574   21.7589 F   0  0  0  0  0  0  0  0  0  0  0  0
  1  2  1  0  0  0  0
  1  5  2  0  0  0  0
  2  6  2  0  0  0  0
  3  8  2  0  0  0  0
  3 15  1  0  0  0  0
  4  9  1  0  0  0  0
  4 15  2  0  0  0  0
  5 17  1  0  0  0  0
  6 19  1  0  0  0  0
  7 10  2  0  0  0  0
  7 18  1  0  0  0  0
  8 21  1  0  0  0  0
  9 21  2  0  0  0  0
 10 22  1  0  0  0  0
 11 12  2  0  0  0  0
 11 23  1  0  0  0  0
 12 24  1  0  0  0  0
 13 20  1  0  0  0  0
 13 22  2  0  0  0  0
 14 24  2  0  0  0  0
 14 25  1  0  0  0  0
 15 26  1  0  0  0  0
 16 26  1  0  0  0  0
 16 27  2  0  0  0  0
 16 28  1  0  0  0  0
 17 19  2  0  0  0  0
 17 35  1  0  0  0  0
 18 20  2  0  0  0  0
 18 36  1  0  0  0  0
 19 44  1  0  0  0  0
 20 37  1  0  0  0  0
 21 86  1  0  0  0  0
 22 87  1  0  0  0  0
 23 25  2  0  0  0  0
 23 86  1  0  0  0  0
 24 88  1  0  0  0  0
 25 89  1  0  0  0  0
 26 66  2  0  0  0  0
 27 67  1  0  0  0  0
 27 70  1  0  0  0  0
 28 71  1  0  0  0  0
 28 79  2  0  0  0  0
 29 45  1  0  0  0  0
 29 72  1  0  0  0  0
 29 80  2  0  0  0  0
 30 60  1  0  0  0  0
 30 68  1  0  0  0  0
 30 81  2  0  0  0  0
 31 61  1  0  0  0  0
 31 73  1  0  0  0  0
 31 82  2  0  0  0  0
 32 62  1  0  0  0  0
 32 74  1  0  0  0  0
 32 83  2  0  0  0  0
 33 63  1  0  0  0  0
 33 75  1  0  0  0  0
 33 84  2  0  0  0  0
 34 69  1  0  0  0  0
 34 76  1  0  0  0  0
 34 85  2  0  0  0  0
 35 38  1  0  0  0  0
 36 45  1  0  0  0  0
 37 68  1  0  0  0  0
 38 40  1  0  0  0  0
 39 41  1  0  0  0  0
 39 42  1  0  0  0  0
 40 44  1  0  0  0  0
 41 46  1  0  0  0  0
 42 69  1  0  0  0  0
 43 46  1  0  0  0  0
 43 69  1  0  0  0  0
 44 72  1  0  0  0  0
 45 68  1  0  0  0  0
 46 67  1  0  0  0  0
 47 62  1  0  0  0  0
 48 64  1  0  0  0  0
 49 64  1  0  0  0  0
 50 64  1  0  0  0  0
 51 65  1  0  0  0  0
 52 65  1  0  0  0  0
 53 65  1  0  0  0  0
 54 77  1  0  0  0  0
 55 78  1  0  0  0  0
 56 78  1  0  0  0  0
 57 59  1  0  0  0  0
 57 73  1  0  0  0  0
 58 63  1  0  0  0  0
 58 76  1  0  0  0  0
 59 87  1  0  0  0  0
 60 64  1  0  0  0  0
 60 74  1  0  0  0  0
 61 65  1  0  0  0  0
 61 75  1  0  0  0  0
 62 77  1  0  0  0  0
 63 78  1  0  0  0  0
 66 67  1  0  0  0  0
M  CHG  2  77   1  78   1
M  ISO  4  34 100  59 101  76 100  87 101
M  END
> <Batch ID>
0015

> <Smiles>
CNC(C)C(=O)NC(C(=O)N1Cc2cc([101O:1][101CH2:1]CNC(=O)C(NC(=O)C(C[100NH:0][100C:0](=O)N3CCCC(n4nc(-c5ccc(Oc6ccc(F)cc6F)cc5)c(C(N)=O)c4N)C3)N(C)C)C(C)(C)C)ccc2CC1C(=O)NC1CCCc2ccccc21)C(C)(C)C

> <Shape>
0.299

> <Color>
0.067

> <Negative vol penalty>
0.000

$$$$

  -OEChem-04052315553D

 84 92  0     1  0  0  0  0  0999 V2000
  -27.1306  -35.2283   22.7298 C   0  0  0  0  0  0  0  0  0  0  0  0
  -27.4996  -33.9049   22.5106 C   0  0  0  0  0  0  0  0  0  0  0  0
  -25.9452  -13.9732   21.0814 C   0  0  0  0  0  0  0  0  0  0  0  0
  -26.4931  -12.2120   19.5211 C   0  0  0  0  0  0  0  0  0  0  0  0
  -25.9232  -35.5182   23.3638 C   0  0  0  0  0  0  0  0  0  0  0  0
  -26.6619  -32.8707   22.9264 C   0  0  0  0  0  0  0  0  0  0  0  0
  -26.1417  -29.2604   19.4136 C   0  0  0  0  0  0  0  0  0  0  0  0
  -24.6927  -13.3968   21.2923 C   0  0  0  0  0  0  0  0  0  0  0  0
  -25.2406  -11.6355   19.7320 C   0  0  0  0  0  0  0  0  0  0  0  0
  -27.1878  -28.3487   19.2777 C   0  0  0  0  0  0  0  0  0  0  0  0
  -23.7498   -9.7083   22.0739 C   0  0  0  0  0  0  0  0  0  0  0  0
  -23.6972   -8.3273   22.2621 C   0  0  0  0  0  0  0  0  0  0  0  0
  -25.9485  -26.7416   20.5818 C   0  0  0  0  0  0  0  0  0  0  0  0
  -22.2738   -8.1170   20.3213 C   0  0  0  0  0  0  0  0  0  0  0  0
  -26.8454  -13.3809   20.1958 C   0  0  0  0  0  0  0  0  0  0  0  0
  -29.3260  -13.7155   20.6879 C   0  0  0  0  0  0  0  0  0  0  0  0
  -25.0657  -34.4872   23.7790 C   0  0  0  0  0  0  0  0  0  0  0  0
  -24.9939  -28.9228   20.1450 C   0  0  0  0  0  0  0  0  0  0  0  0
  -25.4425  -33.1471   23.5679 C   0  0  0  0  0  0  0  0  0  0  0  0
  -24.8882  -27.6498   20.7233 C   0  0  0  0  0  0  0  0  0  0  0  0
  -24.3404  -12.2279   20.6176 C   0  0  0  0  0  0  0  0  0  0  0  0
  -27.0925  -27.0902   19.8643 C   0  0  0  0  0  0  0  0  0  0  0  0
  -23.0644  -10.2938   21.0094 C   0  0  0  0  0  0  0  0  0  0  0  0
  -22.9592   -7.5316   21.3858 C   0  0  0  0  0  0  0  0  0  0  0  0
  -22.3264   -9.4981   20.1331 C   0  0  0  0  0  0  0  0  0  0  0  0
  -28.1392  -13.9762   19.9771 C   0  0  0  0  0  0  0  0  0  0  0  0
  -30.2643  -14.5277   20.0992 C   0  0  0  0  0  0  0  0  0  0  0  0
  -29.5596  -12.8192   21.7823 C   0  0  0  0  0  0  0  0  0  0  0  0
  -23.5879  -30.0547   22.7614 C   0  0  0  0  0  0  0  0  0  0  0  0
  -21.2856  -27.9066   21.9818 C   0  0  0  0  0  0  0  0  0  0  0  0
  -29.4351  -24.8934   18.2093 C   0  0  0  0  0  0  0  0  0  0  0  0
  -20.4427  -25.0217   20.3651 C   0  0  0  0  0  0  0  0  0  0  0  0
  -30.9295  -19.5965   17.8817 C   0  0  0  0  0  0  0  0  0  0  0  0
  -23.7929  -34.8488   24.5027 C   0  0  0  0  0  0  0  0  0  0  0  0
  -23.8629  -29.9078   20.2597 C   0  0  0  0  0  0  0  0  0  0  0  0
  -23.6686  -27.2311   21.5015 C   0  0  0  0  0  0  0  0  0  0  0  0
  -22.7875  -33.7025   24.5766 C   0  0  0  0  0  0  0  0  0  0  0  0
  -30.6640  -16.8220   15.7447 C   0  0  0  0  0  0  0  0  0  0  0  0
  -23.4802  -32.4114   25.0011 C   0  0  0  0  0  0  0  0  0  0  0  0
  -30.0967  -15.7636   16.6902 C   0  0  0  0  0  0  0  0  0  0  0  0
  -29.7050  -22.5059   16.3291 C   0  0  0  0  0  0  0  0  0  0  0  0
  -31.7493  -22.9581   17.7391 C   0  0  0  0  0  0  0  0  0  0  0  0
  -30.0276  -18.1943   15.9729 C   0  0  0  0  0  0  0  0  0  0  0  0
  -30.2773  -21.1311   15.9724 C   0  0  0  0  0  0  0  0  0  0  0  0
  -32.2905  -21.5906   17.3325 C   0  0  0  0  0  0  0  0  0  0  0  0
  -29.5279  -17.6023   18.3222 C   0  0  0  0  0  0  0  0  0  0  0  0
  -24.5491  -31.9981   23.9822 C   0  0  1  0  0  0  0  0  0  0  0  0
  -22.9595  -29.6432   21.4601 C   0  0  1  0  0  0  0  0  0  0  0  0
  -30.1892  -16.2255   18.1555 C   0  0  1  0  0  0  0  0  0  0  0  0
  -30.8112  -23.5106   16.6620 C   0  0  0  0  0  0  0  0  0  0  0  0
  -33.4139  -28.5738   16.3079 C   0  0  0  0  0  0  0  0  0  0  0  0
  -18.4939  -23.4989   19.9402 C   0  0  0  0  0  0  0  0  0  0  0  0
  -21.5415  -26.7937   24.8113 C   0  0  0  0  0  0  0  0  0  0  0  0
  -20.3190  -24.7485   24.0426 C   0  0  0  0  0  0  0  0  0  0  0  0
  -19.1934  -26.9735   23.9694 C   0  0  0  0  0  0  0  0  0  0  0  0
  -20.5918  -25.4562   17.4414 C   0  0  0  0  0  0  0  0  0  0  0  0
  -28.9003  -26.2667   18.5568 C   0  0  0  0  0  0  0  0  0  1  0  0
  -32.1764  -27.8496   15.8010 C   0  0  0  0  0  0  0  0  0  0  0  0
  -31.8456  -26.6337   16.6695 C   0  0  0  0  0  0  0  0  0  0  0  0
  -30.5739  -25.9216   16.2207 C   0  0  0  0  0  0  0  0  0  0  0  0
  -21.0242  -26.4552   22.3045 C   0  0  1  0  0  0  0  0  0  0  0  0
  -19.2924  -24.6891   19.4320 C   0  0  2  0  0  0  0  0  0  0  0  0
  -20.5435  -26.2510   23.7690 C   0  0  0  0  0  0  0  0  0  0  0  0
  -28.3055  -14.8832   19.0108 N   0  0  0  0  0  0  0  0  0  0  0  0
  -29.6078  -15.1996   19.1104 N   0  0  0  0  0  0  0  0  0  0  0  0
  -22.5922  -28.2317   21.5908 N   0  0  0  0  0  0  0  0  0  0  0  0
  -30.1039  -18.5741   17.3904 N   0  0  0  0  0  0  0  0  0  0  0  0
  -31.2021  -20.6659   17.0156 N   0  0  0  0  0  0  0  0  0  0  0  0
  -31.5784  -14.7256   20.3362 N   0  0  0  0  0  0  0  0  0  0  0  0
  -28.4852  -12.0590   22.2642 N   0  0  0  0  0  0  0  0  0  0  0  0
  -23.9331  -31.3913   22.8216 N   0  0  0  0  0  0  0  0  0  0  0  0
  -20.0864  -25.9752   21.2953 N   0  0  0  0  0  0  0  0  0  0  0  0
  -30.2459  -24.7726   17.0714 N   0  0  0  0  0  0  0  0  0  0  0  0
  -19.8066  -24.3637   18.0715 N   0  3  0  0  0  0  0  0  0  0  0  0
  -30.6837  -12.7081   22.3277 O   0  0  0  0  0  0  0  0  0  0  0  0
  -23.7463  -29.2216   23.6460 O   0  0  0  0  0  0  0  0  0  0  0  0
  -20.3627  -28.7207   22.0664 O   0  0  0  0  0  0  0  0  0  0  0  0
  -29.1452  -23.9415   18.9406 O   0  0  0  0  0  0  0  0  0  0  0  0
  -21.5457  -24.4863   20.2799 O   0  0  0  0  0  0  0  0  0  0  0  0
  -31.3955  -19.5566   19.0274 O   0  0  0  0  0  0  0  0  0  0  0  0
  -23.1183  -11.6650   20.8233 O   0  0  0  0  0  0  0  0  0  0  0  0
  -28.1231  -26.1893   19.7325 O   0  0  0  0  0  0  0  0  0  1  0  0
  -22.9099   -6.2052   21.5658 F   0  0  0  0  0  0  0  0  0  0  0  0
  -21.6668  -10.0547   19.1079 F   0  0  0  0  0  0  0  0  0  0  0  0
  1  2  1  0  0  0  0
  1  5  2  0  0  0  0
  2  6  2  0  0  0  0
  3  8  2  0  0  0  0
  3 15  1  0  0  0  0
  4  9  1  0  0  0  0
  4 15  2  0  0  0  0
  5 17  1  0  0  0  0
  6 19  1  0  0  0  0
  7 10  2  0  0  0  0
  7 18  1  0  0  0  0
  8 21  1  0  0  0  0
  9 21  2  0  0  0  0
 10 22  1  0  0  0  0
 11 12  2  0  0  0  0
 11 23  1  0  0  0  0
 12 24  1  0  0  0  0
 13 20  1  0  0  0  0
 13 22  2  0  0  0  0
 14 24  2  0  0  0  0
 14 25  1  0  0  0  0
 15 26  1  0  0  0  0
 16 26  1  0  0  0  0
 16 27  2  0  0  0  0
 16 28  1  0  0  0  0
 17 19  2  0  0  0  0
 17 34  1  0  0  0  0
 18 20  2  0  0  0  0
 18 35  1  0  0  0  0
 19 47  1  0  0  0  0
 20 36  1  0  0  0  0
 21 81  1  0  0  0  0
 22 82  1  0  0  0  0
 23 25  2  0  0  0  0
 23 81  1  0  0  0  0
 24 83  1  0  0  0  0
 25 84  1  0  0  0  0
 26 64  2  0  0  0  0
 27 65  1  0  0  0  0
 27 69  1  0  0  0  0
 28 70  1  0  0  0  0
 28 75  2  0  0  0  0
 29 48  1  0  0  0  0
 29 71  1  0  0  0  0
 29 76  2  0  0  0  0
 30 61  1  0  0  0  0
 30 66  1  0  0  0  0
 30 77  2  0  0  0  0
 31 57  1  0  0  0  0
 31 73  1  0  0  0  0
 31 78  2  0  0  0  0
 32 62  1  0  0  0  0
 32 72  1  0  0  0  0
 32 79  2  0  0  0  0
 33 67  1  0  0  0  0
 33 68  1  0  0  0  0
 33 80  2  0  0  0  0
 34 37  1  0  0  0  0
 35 48  1  0  0  0  0
 36 66  1  0  0  0  0
 37 39  1  0  0  0  0
 38 40  1  0  0  0  0
 38 43  1  0  0  0  0
 39 47  1  0  0  0  0
 40 49  1  0  0  0  0
 41 44  1  0  0  0  0
 41 50  1  0  0  0  0
 42 45  1  0  0  0  0
 42 50  1  0  0  0  0
 43 67  1  0  0  0  0
 44 68  1  0  0  0  0
 45 68  1  0  0  0  0
 46 49  1  0  0  0  0
 46 67  1  0  0  0  0
 47 71  1  0  0  0  0
 48 66  1  0  0  0  0
 49 65  1  0  0  0  0
 50 73  1  0  0  0  0
 51 58  1  0  0  0  0
 52 62  1  0  0  0  0
 53 63  1  0  0  0  0
 54 63  1  0  0  0  0
 55 63  1  0  0  0  0
 56 74  1  0  0  0  0
 57 82  1  0  0  0  0
 58 59  1  0  0  0  0
 59 60  1  0  0  0  0
 60 73  1  0  0  0  0
 61 63  1  0  0  0  0
 61 72  1  0  0  0  0
 62 74  1  0  0  0  0
 64 65  1  0  0  0  0
M  CHG  1  74   1
M  ISO  4  33 100  57 101  68 100  82 101
M  END
> <Batch ID>
0015

> <Smiles>
CCCCN(C(=O)[101CH2:1][101O:1]c1ccc2c(c1)CN(C(=O)C(NC(=O)C(C)NC)C(C)(C)C)C(C(=O)NC1CCCc3ccccc31)C2)C1CC[100N:0]([100C:0](=O)N2CCCC(n3nc(-c4ccc(Oc5ccc(F)cc5F)cc4)c(C(N)=O)c3N)C2)CC1

> <Shape>
0.306

> <Color>
0.107

> <Negative vol penalty>
0.000

$$$$

  -OEChem-04052315553D

 85 93  0     1  0  0  0  0  0999 V2000
  -27.4921  -37.8784   22.5558 C   0  0  0  0  0  0  0  0  0  0  0  0
  -28.0462  -36.7058   22.0524 C   0  0  0  0  0  0  0  0  0  0  0  0
  -22.2568  -14.6797   19.2955 C   0  0  0  0  0  0  0  0  0  0  0  0
  -23.2850  -12.5191   18.9609 C   0  0  0  0  0  0  0  0  0  0  0  0
  -26.5020  -37.8157   23.5354 C   0  0  0  0  0  0  0  0  0  0  0  0
  -27.6112  -35.4697   22.5292 C   0  0  0  0  0  0  0  0  0  0  0  0
  -27.0932  -30.2680   19.3386 C   0  0  0  0  0  0  0  0  0  0  0  0
  -21.3220  -14.3887   18.3019 C   0  0  0  0  0  0  0  0  0  0  0  0
  -22.3502  -12.2281   17.9673 C   0  0  0  0  0  0  0  0  0  0  0  0
  -27.9235  -29.1546   19.2187 C   0  0  0  0  0  0  0  0  0  0  0  0
  -19.1292  -11.2197   17.7985 C   0  0  0  0  0  0  0  0  0  0  0  0
  -18.5357   -9.9576   17.8188 C   0  0  0  0  0  0  0  0  0  0  0  0
  -26.6433  -28.0239   20.9221 C   0  0  0  0  0  0  0  0  0  0  0  0
  -27.2607  -21.6727   20.6302 C   0  0  0  0  0  0  0  0  0  0  0  0
  -28.7552  -22.2830   18.3550 C   0  0  0  0  0  0  0  0  0  0  0  0
  -19.4188   -9.5070   15.6155 C   0  0  0  0  0  0  0  0  0  0  0  0
  -23.2383  -13.7449   19.6249 C   0  0  0  0  0  0  0  0  0  0  0  0
  -24.0924  -13.7782   22.0285 C   0  0  0  0  0  0  0  0  0  0  0  0
  -26.0478  -36.5780   24.0175 C   0  0  0  0  0  0  0  0  0  0  0  0
  -26.0365  -30.2720   20.2604 C   0  0  0  0  0  0  0  0  0  0  0  0
  -26.6150  -35.3904   23.5172 C   0  0  0  0  0  0  0  0  0  0  0  0
  -25.7994  -29.1377   21.0500 C   0  0  0  0  0  0  0  0  0  0  0  0
  -27.9970  -20.6752   19.9912 C   0  0  0  0  0  0  0  0  0  0  0  0
  -21.3688  -13.1629   17.6378 C   0  0  0  0  0  0  0  0  0  0  0  0
  -27.7004  -28.0334   20.0126 C   0  0  0  0  0  0  0  0  0  0  0  0
  -19.8674  -11.6255   16.6867 C   0  0  0  0  0  0  0  0  0  0  0  0
  -28.0189  -23.2806   18.9941 C   0  0  0  0  0  0  0  0  0  0  0  0
  -18.6806   -9.1012   16.7273 C   0  0  0  0  0  0  0  0  0  0  0  0
  -27.2716  -22.9754   20.1316 C   0  0  0  0  0  0  0  0  0  0  0  0
  -28.7442  -20.9803   18.8536 C   0  0  0  0  0  0  0  0  0  0  0  0
  -20.0122  -10.7691   15.5952 C   0  0  0  0  0  0  0  0  0  0  0  0
  -24.2045  -14.0451   20.6508 C   0  0  0  0  0  0  0  0  0  0  0  0
  -25.2641  -14.2516   22.5664 C   0  0  0  0  0  0  0  0  0  0  0  0
  -23.0246  -13.1577   22.7568 C   0  0  0  0  0  0  0  0  0  0  0  0
  -25.2956  -32.0110   22.8159 C   0  0  0  0  0  0  0  0  0  0  0  0
  -22.5513  -30.2847   22.7122 C   0  0  0  0  0  0  0  0  0  0  0  0
  -20.9568  -27.4352   21.7198 C   0  0  0  0  0  0  0  0  0  0  0  0
  -29.0945  -18.4708   20.3535 C   0  0  0  0  0  0  0  0  0  0  0  0
  -25.0090  -36.5617   25.1108 C   0  0  0  0  0  0  0  0  0  0  0  0
  -25.1334  -31.4708   20.3587 C   0  0  0  0  0  0  0  0  0  0  0  0
  -24.6660  -29.0838   22.0405 C   0  0  0  0  0  0  0  0  0  0  0  0
  -24.3378  -35.2028   25.2932 C   0  0  0  0  0  0  0  0  0  0  0  0
  -29.8494  -15.0386   21.4761 C   0  0  0  0  0  0  0  0  0  0  0  0
  -25.3816  -34.0907   25.3159 C   0  0  0  0  0  0  0  0  0  0  0  0
  -28.4805  -14.3610   21.4440 C   0  0  0  0  0  0  0  0  0  0  0  0
  -29.9564  -16.1498   20.4359 C   0  0  0  0  0  0  0  0  0  0  0  0
  -27.5055  -16.4944   20.5040 C   0  0  0  0  0  0  0  0  0  0  0  0
  -26.1519  -34.0299   23.9913 C   0  0  1  0  0  0  0  0  0  0  0  0
  -24.4025  -31.5604   21.6948 C   0  0  1  0  0  0  0  0  0  0  0  0
  -27.3516  -15.3987   21.5697 C   0  0  1  0  0  0  0  0  0  0  0  0
  -24.4219  -18.4342   21.6348 C   0  0  0  0  0  0  0  0  0  0  0  0
  -18.7244  -26.2927   21.8128 C   0  0  0  0  0  0  0  0  0  0  0  0
  -23.0562  -29.5410   25.6280 C   0  0  0  0  0  0  0  0  0  0  0  0
  -21.3800  -27.6984   25.3756 C   0  0  0  0  0  0  0  0  0  0  0  0
  -20.6738  -30.0731   25.0846 C   0  0  0  0  0  0  0  0  0  0  0  0
  -20.7083  -27.4265   18.7707 C   0  0  0  0  0  0  0  0  0  0  0  0
  -25.5598  -18.8139   20.6976 C   0  0  0  0  0  0  0  0  0  0  0  0
  -26.8983  -18.9375   21.4159 C   0  0  0  0  0  0  0  0  0  0  0  0
  -29.0940  -26.7023   18.6190 C   0  0  0  0  0  0  0  0  0  1  0  0
  -29.2954  -25.2097   18.4421 C   0  0  0  0  0  0  0  0  0  0  0  0
  -22.0899  -28.9738   23.3019 C   0  0  1  0  0  0  0  0  0  0  0  0
  -19.6306  -27.2166   21.0142 C   0  0  2  0  0  0  0  0  0  0  0  0
  -21.8226  -29.0730   24.8303 C   0  0  0  0  0  0  0  0  0  0  0  0
  -25.3564  -14.6420   20.3333 N   0  0  0  0  0  0  0  0  0  0  0  0
  -25.9789  -14.7541   21.5191 N   0  0  0  0  0  0  0  0  0  0  0  0
  -23.8147  -30.2832   22.1042 N   0  0  0  0  0  0  0  0  0  0  0  0
  -28.8466  -17.0971   20.5481 N   0  0  0  0  0  0  0  0  0  0  0  0
  -25.7425  -14.2830   23.8284 N   0  0  0  0  0  0  0  0  0  0  0  0
  -21.8932  -12.7297   22.0488 N   0  0  0  0  0  0  0  0  0  0  0  0
  -25.3541  -33.3828   22.9719 N   0  0  0  0  0  0  0  0  0  0  0  0
  -20.9313  -28.5590   22.5183 N   0  0  0  0  0  0  0  0  0  0  0  0
  -27.9837  -19.3279   20.5102 N   0  0  0  0  0  0  0  0  0  0  0  0
  -19.8523  -26.6113   19.6705 N   0  3  0  0  0  0  0  0  0  0  0  0
  -23.0652  -13.0026   24.0009 O   0  0  0  0  0  0  0  0  0  0  0  0
  -25.8866  -31.1760   23.4905 O   0  0  0  0  0  0  0  0  0  0  0  0
  -21.8147  -31.2717   22.7819 O   0  0  0  0  0  0  0  0  0  0  0  0
  -21.9179  -26.6821   21.5797 O   0  0  0  0  0  0  0  0  0  0  0  0
  -30.2245  -18.8990   20.0903 O   0  0  0  0  0  0  0  0  0  0  0  0
  -20.4567  -12.8786   16.6684 O   0  0  0  0  0  0  0  0  0  0  0  0
  -28.5098  -26.9454   19.8980 O   0  0  0  0  0  0  0  0  0  1  0  0
  -28.0316  -24.5599   18.5038 O   0  0  0  0  0  0  0  0  0  0  0  0
  -18.1119   -7.8886   16.7476 F   0  0  0  0  0  0  0  0  0  0  0  0
  -26.5626  -23.9298   20.7497 F   0  0  0  0  0  0  0  0  0  0  0  0
  -29.4551  -20.0290   18.2311 F   0  0  0  0  0  0  0  0  0  0  0  0
  -20.7213  -11.1530   14.5248 F   0  0  0  0  0  0  0  0  0  0  0  0
  1  2  1  0  0  0  0
  1  5  2  0  0  0  0
  2  6  2  0  0  0  0
  3  8  2  0  0  0  0
  3 17  1  0  0  0  0
  4  9  1  0  0  0  0
  4 17  2  0  0  0  0
  5 19  1  0  0  0  0
  6 21  1  0  0  0  0
  7 10  2  0  0  0  0
  7 20  1  0  0  0  0
  8 24  1  0  0  0  0
  9 24  2  0  0  0  0
 10 25  1  0  0  0  0
 11 12  2  0  0  0  0
 11 26  1  0  0  0  0
 12 28  1  0  0  0  0
 13 22  1  0  0  0  0
 13 25  2  0  0  0  0
 14 23  1  0  0  0  0
 14 29  2  0  0  0  0
 15 27  2  0  0  0  0
 15 30  1  0  0  0  0
 16 28  2  0  0  0  0
 16 31  1  0  0  0  0
 17 32  1  0  0  0  0
 18 32  1  0  0  0  0
 18 33  2  0  0  0  0
 18 34  1  0  0  0  0
 19 21  2  0  0  0  0
 19 39  1  0  0  0  0
 20 22  2  0  0  0  0
 20 40  1  0  0  0  0
 21 48  1  0  0  0  0
 22 41  1  0  0  0  0
 23 30  2  0  0  0  0
 23 72  1  0  0  0  0
 24 79  1  0  0  0  0
 25 80  1  0  0  0  0
 26 31  2  0  0  0  0
 26 79  1  0  0  0  0
 27 29  1  0  0  0  0
 27 81  1  0  0  0  0
 28 82  1  0  0  0  0
 29 83  1  0  0  0  0
 30 84  1  0  0  0  0
 31 85  1  0  0  0  0
 32 64  2  0  0  0  0
 33 65  1  0  0  0  0
 33 68  1  0  0  0  0
 34 69  1  0  0  0  0
 34 74  2  0  0  0  0
 35 49  1  0  0  0  0
 35 70  1  0  0  0  0
 35 75  2  0  0  0  0
 36 61  1  0  0  0  0
 36 66  1  0  0  0  0
 36 76  2  0  0  0  0
 37 62  1  0  0  0  0
 37 71  1  0  0  0  0
 37 77  2  0  0  0  0
 38 67  1  0  0  0  0
 38 72  1  0  0  0  0
 38 78  2  0  0  0  0
 39 42  1  0  0  0  0
 40 49  1  0  0  0  0
 41 66  1  0  0  0  0
 42 44  1  0  0  0  0
 43 45  1  0  0  0  0
 43 46  1  0  0  0  0
 44 48  1  0  0  0  0
 45 50  1  0  0  0  0
 46 67  1  0  0  0  0
 47 50  1  0  0  0  0
 47 67  1  0  0  0  0
 48 70  1  0  0  0  0
 49 66  1  0  0  0  0
 50 65  1  0  0  0  0
 51 57  1  0  0  0  0
 52 62  1  0  0  0  0
 53 63  1  0  0  0  0
 54 63  1  0  0  0  0
 55 63  1  0  0  0  0
 56 73  1  0  0  0  0
 57 58  1  0  0  0  0
 58 72  1  0  0  0  0
 59 60  1  0  0  0  0
 59 80  1  0  0  0  0
 60 81  1  0  0  0  0
 61 63  1  0  0  0  0
 61 71  1  0  0  0  0
 62 73  1  0  0  0  0
 64 65  1  0  0  0  0
M  CHG  1  73   1
M  ISO  4  38 100  59 101  72 100  80 101
M  END
> <Batch ID>
0015

> <Smiles>
CCC[100N:0](c1cc(F)c(OC[101CH2:1][101O:1]c2ccc3c(c2)CN(C(=O)C(NC(=O)C(C)NC)C(C)(C)C)C(C(=O)NC2CCCc4ccccc42)C3)cc1F)[100C:0](=O)N1CCCC(n2nc(-c3ccc(Oc4ccc(F)cc4F)cc3)c(C(N)=O)c2N)C1

> <Shape>
0.279

> <Color>
0.092

> <Negative vol penalty>
0.000

$$$$

  -OEChem-04052315553D

 86 94  0     1  0  0  0  0  0999 V2000
  -20.9773  -25.8820   18.8775 C   0  0  0  0  0  0  0  0  0  0  0  0
  -21.6645  -24.7240   19.2270 C   0  0  0  0  0  0  0  0  0  0  0  0
  -27.5987  -23.6445   21.3665 C   0  0  0  0  0  0  0  0  0  0  0  0
  -28.7027  -23.2187   19.2601 C   0  0  0  0  0  0  0  0  0  0  0  0
  -20.3111  -26.6182   19.8563 C   0  0  0  0  0  0  0  0  0  0  0  0
  -21.6869  -24.3022   20.5559 C   0  0  0  0  0  0  0  0  0  0  0  0
  -20.8587  -19.3288   21.0297 C   0  0  0  0  0  0  0  0  0  0  0  0
  -27.6610  -25.0163   21.1219 C   0  0  0  0  0  0  0  0  0  0  0  0
  -28.7649  -24.5905   19.0154 C   0  0  0  0  0  0  0  0  0  0  0  0
  -21.9253  -18.4761   20.7486 C   0  0  0  0  0  0  0  0  0  0  0  0
  -25.9852  -27.2948   19.2691 C   0  0  0  0  0  0  0  0  0  0  0  0
  -24.8386  -28.0499   19.5155 C   0  0  0  0  0  0  0  0  0  0  0  0
  -22.3617  -18.2532   23.1106 C   0  0  0  0  0  0  0  0  0  0  0  0
  -28.3569  -11.9689   20.7316 C   0  0  0  0  0  0  0  0  0  0  0  0
  -26.0154  -11.8549   21.3153 C   0  0  0  0  0  0  0  0  0  0  0  0
  -26.0561  -29.3715   21.1305 C   0  0  0  0  0  0  0  0  0  0  0  0
  -28.1196  -22.7456   20.4357 C   0  0  0  0  0  0  0  0  0  0  0  0
  -26.8988  -20.5506   20.8821 C   0  0  0  0  0  0  0  0  0  0  0  0
  -20.3173  -26.2000   21.1963 C   0  0  0  0  0  0  0  0  0  0  0  0
  -20.5419  -19.6593   22.3551 C   0  0  0  0  0  0  0  0  0  0  0  0
  -21.0213  -25.0343   21.5538 C   0  0  0  0  0  0  0  0  0  0  0  0
  -21.2891  -19.1083   23.4060 C   0  0  0  0  0  0  0  0  0  0  0  0
  -27.3356  -11.4621   21.5351 C   0  0  0  0  0  0  0  0  0  0  0  0
  -28.0581  -12.8685   19.7083 C   0  0  0  0  0  0  0  0  0  0  0  0
  -25.7164  -12.7545   20.2920 C   0  0  0  0  0  0  0  0  0  0  0  0
  -28.2441  -25.4893   19.9464 C   0  0  0  0  0  0  0  0  0  0  0  0
  -22.6788  -17.9404   21.7890 C   0  0  0  0  0  0  0  0  0  0  0  0
  -27.1672  -27.5779   19.9535 C   0  0  0  0  0  0  0  0  0  0  0  0
  -24.8740  -29.0883   20.4462 C   0  0  0  0  0  0  0  0  0  0  0  0
  -27.2026  -28.6163   20.8841 C   0  0  0  0  0  0  0  0  0  0  0  0
  -26.7378  -13.2613   19.4885 C   0  0  0  0  0  0  0  0  0  0  0  0
  -28.0560  -21.3285   20.6881 C   0  0  0  0  0  0  0  0  0  0  0  0
  -27.3712  -19.2766   21.0827 C   0  0  0  0  0  0  0  0  0  0  0  0
  -25.5202  -20.9445   20.8811 C   0  0  0  0  0  0  0  0  0  0  0  0
  -20.4610  -22.3556   24.0366 C   0  0  0  0  0  0  0  0  0  0  0  0
  -19.2042  -20.4323   26.3264 C   0  0  0  0  0  0  0  0  0  0  0  0
  -23.7811  -14.2543   20.7625 C   0  0  0  0  0  0  0  0  0  0  0  0
  -18.8699  -17.2853   27.6039 C   0  0  0  0  0  0  0  0  0  0  0  0
  -30.7889  -15.0818   19.7158 C   0  0  0  0  0  0  0  0  0  0  0  0
  -19.6223  -27.0544   22.2267 C   0  0  0  0  0  0  0  0  0  0  0  0
  -19.3716  -20.5594   22.6428 C   0  0  0  0  0  0  0  0  0  0  0  0
  -20.9772  -19.4157   24.8470 C   0  0  0  0  0  0  0  0  0  0  0  0
  -19.3813  -26.3357   23.5517 C   0  0  0  0  0  0  0  0  0  0  0  0
  -32.0750  -17.5971   21.8829 C   0  0  0  0  0  0  0  0  0  0  0  0
  -20.6424  -25.6034   23.9989 C   0  0  0  0  0  0  0  0  0  0  0  0
  -31.0522  -18.7297   21.7762 C   0  0  0  0  0  0  0  0  0  0  0  0
  -32.2703  -16.8854   20.5460 C   0  0  0  0  0  0  0  0  0  0  0  0
  -30.0064  -17.5262   19.8124 C   0  0  0  0  0  0  0  0  0  0  0  0
  -21.0480  -24.5308   22.9807 C   0  0  1  0  0  0  0  0  0  0  0  0
  -19.4594  -21.2360   24.0073 C   0  0  1  0  0  0  0  0  0  0  0  0
  -29.7341  -18.2376   21.1488 C   0  0  2  0  0  0  0  0  0  0  0  0
  -27.6557  -10.4997   22.6282 C   0  0  0  0  0  0  0  0  0  0  0  0
  -17.8140  -16.0329   29.5049 C   0  0  0  0  0  0  0  0  0  0  0  0
  -21.3704  -21.4683   28.2090 C   0  0  0  0  0  0  0  0  0  0  0  0
  -20.8757  -19.5398   29.7271 C   0  0  0  0  0  0  0  0  0  0  0  0
  -19.1084  -21.2344   29.2497 C   0  0  0  0  0  0  0  0  0  0  0  0
  -23.5776  -12.3732   19.0898 C   0  0  0  0  0  0  0  0  0  0  0  0
  -17.2252  -15.6500   25.7655 C   0  0  0  0  0  0  0  0  0  0  0  0
  -29.1852  -13.3857   18.8731 C   0  0  0  0  0  0  0  0  0  0  0  0
  -24.6796  -14.9160   21.8078 C   0  0  0  0  0  0  0  0  0  0  0  0
  -24.0272  -16.1118   22.4917 C   0  0  0  0  0  0  0  0  0  1  0  0
  -19.7701  -19.5916   27.4454 C   0  0  1  0  0  0  0  0  0  0  0  0
  -17.6499  -16.5122   28.0709 C   0  0  2  0  0  0  0  0  0  0  0  0
  -20.2885  -20.4541   28.6307 C   0  0  0  0  0  0  0  0  0  0  0  0
  -29.1790  -20.6088   20.7591 N   0  0  0  0  0  0  0  0  0  0  0  0
  -28.7296  -19.3654   21.0001 N   0  0  0  0  0  0  0  0  0  0  0  0
  -19.8273  -20.3059   25.0768 N   0  0  0  0  0  0  0  0  0  0  0  0
  -30.9827  -16.4425   20.0056 N   0  0  0  0  0  0  0  0  0  0  0  0
  -26.7528  -18.1003   21.3199 N   0  0  0  0  0  0  0  0  0  0  0  0
  -24.9378  -21.3412   22.0925 N   0  0  0  0  0  0  0  0  0  0  0  0
  -20.2102  -23.3590   23.1202 N   0  0  0  0  0  0  0  0  0  0  0  0
  -18.7253  -18.6410   27.8102 N   0  0  0  0  0  0  0  0  0  0  0  0
  -29.5378  -14.7462   19.2130 N   0  0  0  0  0  0  0  0  0  0  0  0
  -24.3331  -13.1383   20.0942 N   0  0  0  0  0  0  0  0  0  0  0  0
  -17.4257  -15.3233   27.2008 N   0  3  0  0  0  0  0  0  0  0  0  0
  -24.8210  -20.9290   19.8397 O   0  0  0  0  0  0  0  0  0  0  0  0
  -21.3917  -22.3131   24.8327 O   0  0  0  0  0  0  0  0  0  0  0  0
  -18.2402  -21.1684   26.5511 O   0  0  0  0  0  0  0  0  0  0  0  0
  -22.6422  -14.6915   20.5799 O   0  0  0  0  0  0  0  0  0  0  0  0
  -19.8544  -16.7408   27.1091 O   0  0  0  0  0  0  0  0  0  0  0  0
  -31.6640  -14.2285   19.8972 O   0  0  0  0  0  0  0  0  0  0  0  0
  -28.3049  -26.8278   19.7072 O   0  0  0  0  0  0  0  0  0  0  0  0
  -23.7208  -17.1084   21.5174 O   0  0  0  0  0  0  0  0  0  1  0  0
  -23.7733  -29.8144   20.6815 F   0  0  0  0  0  0  0  0  0  0  0  0
  -28.3356  -28.8939   21.5438 F   0  0  0  0  0  0  0  0  0  0  0  0
  -26.3731  -14.3801   18.2155 Cl  0  0  0  0  0  0  0  0  0  0  0  0
  1  2  1  0  0  0  0
  1  5  2  0  0  0  0
  2  6  2  0  0  0  0
  3  8  2  0  0  0  0
  3 17  1  0  0  0  0
  4  9  1  0  0  0  0
  4 17  2  0  0  0  0
  5 19  1  0  0  0  0
  6 21  1  0  0  0  0
  7 10  2  0  0  0  0
  7 20  1  0  0  0  0
  8 26  1  0  0  0  0
  9 26  2  0  0  0  0
 10 27  1  0  0  0  0
 11 12  2  0  0  0  0
 11 28  1  0  0  0  0
 12 29  1  0  0  0  0
 13 22  1  0  0  0  0
 13 27  2  0  0  0  0
 14 23  1  0  0  0  0
 14 24  2  0  0  0  0
 15 23  2  0  0  0  0
 15 25  1  0  0  0  0
 16 29  2  0  0  0  0
 16 30  1  0  0  0  0
 17 32  1  0  0  0  0
 18 32  1  0  0  0  0
 18 33  2  0  0  0  0
 18 34  1  0  0  0  0
 19 21  2  0  0  0  0
 19 40  1  0  0  0  0
 20 22  2  0  0  0  0
 20 41  1  0  0  0  0
 21 49  1  0  0  0  0
 22 42  1  0  0  0  0
 23 52  1  0  0  0  0
 24 31  1  0  0  0  0
 24 59  1  0  0  0  0
 25 31  2  0  0  0  0
 25 74  1  0  0  0  0
 26 82  1  0  0  0  0
 27 83  1  0  0  0  0
 28 30  2  0  0  0  0
 28 82  1  0  0  0  0
 29 84  1  0  0  0  0
 30 85  1  0  0  0  0
 31 86  1  0  0  0  0
 32 65  2  0  0  0  0
 33 66  1  0  0  0  0
 33 69  1  0  0  0  0
 34 70  1  0  0  0  0
 34 76  2  0  0  0  0
 35 50  1  0  0  0  0
 35 71  1  0  0  0  0
 35 77  2  0  0  0  0
 36 62  1  0  0  0  0
 36 67  1  0  0  0  0
 36 78  2  0  0  0  0
 37 60  1  0  0  0  0
 37 74  1  0  0  0  0
 37 79  2  0  0  0  0
 38 63  1  0  0  0  0
 38 72  1  0  0  0  0
 38 80  2  0  0  0  0
 39 68  1  0  0  0  0
 39 73  1  0  0  0  0
 39 81  2  0  0  0  0
 40 43  1  0  0  0  0
 41 50  1  0  0  0  0
 42 67  1  0  0  0  0
 43 45  1  0  0  0  0
 44 46  1  0  0  0  0
 44 47  1  0  0  0  0
 45 49  1  0  0  0  0
 46 51  1  0  0  0  0
 47 68  1  0  0  0  0
 48 51  1  0  0  0  0
 48 68  1  0  0  0  0
 49 71  1  0  0  0  0
 50 67  1  0  0  0  0
 51 66  1  0  0  0  0
 53 63  1  0  0  0  0
 54 64  1  0  0  0  0
 55 64  1  0  0  0  0
 56 64  1  0  0  0  0
 57 74  1  0  0  0  0
 58 75  1  0  0  0  0
 59 73  1  0  0  0  0
 60 61  1  0  0  0  0
 61 83  1  0  0  0  0
 62 64  1  0  0  0  0
 62 72  1  0  0  0  0
 63 75  1  0  0  0  0
 65 66  1  0  0  0  0
M  CHG  1  75   1
M  ISO  4  39 100  61 101  73 100  83 101
M  END
> <Batch ID>
0015

> <Smiles>
CNC(C)C(=O)NC(C(=O)N1Cc2cc([101O:1][101CH2:1]CC(=O)N(C)c3cc(C)cc(C[100NH:0][100C:0](=O)N4CCCC(n5nc(-c6ccc(Oc7ccc(F)cc7F)cc6)c(C(N)=O)c5N)C4)c3Cl)ccc2CC1C(=O)NC1CCCc2ccccc21)C(C)(C)C

> <Shape>
0.204

> <Color>
0.081

> <Negative vol penalty>
0.000

$$$$

  -OEChem-04052315553D

 84 92  0     1  0  0  0  0  0999 V2000
  -30.7398  -36.9625   23.4510 C   0  0  0  0  0  0  0  0  0  0  0  0
  -30.8904  -35.7334   22.8169 C   0  0  0  0  0  0  0  0  0  0  0  0
  -23.8643   -8.5414   19.9841 C   0  0  0  0  0  0  0  0  0  0  0  0
  -22.9841  -10.4019   21.2493 C   0  0  0  0  0  0  0  0  0  0  0  0
  -29.8253  -37.0998   24.4944 C   0  0  0  0  0  0  0  0  0  0  0  0
  -30.1273  -34.6406   23.2267 C   0  0  0  0  0  0  0  0  0  0  0  0
  -27.9145  -30.1605   19.6858 C   0  0  0  0  0  0  0  0  0  0  0  0
  -29.8611  -19.7695   19.7860 C   0  0  0  0  0  0  0  0  0  0  0  0
  -29.8679  -18.3757   19.8386 C   0  0  0  0  0  0  0  0  0  0  0  0
  -23.0001   -7.6763   20.6550 C   0  0  0  0  0  0  0  0  0  0  0  0
  -22.1197   -9.5368   21.9202 C   0  0  0  0  0  0  0  0  0  0  0  0
  -28.3646  -28.8686   19.4167 C   0  0  0  0  0  0  0  0  0  0  0  0
  -21.2768   -4.9236   22.2911 C   0  0  0  0  0  0  0  0  0  0  0  0
  -21.7984   -3.7177   22.7594 C   0  0  0  0  0  0  0  0  0  0  0  0
  -26.8875  -28.0062   21.1177 C   0  0  0  0  0  0  0  0  0  0  0  0
  -27.9229  -19.7058   18.3451 C   0  0  0  0  0  0  0  0  0  0  0  0
  -23.3733   -4.9318   24.1316 C   0  0  0  0  0  0  0  0  0  0  0  0
  -23.8564   -9.9043   20.2813 C   0  0  0  0  0  0  0  0  0  0  0  0
  -24.4965  -11.4936   18.3913 C   0  0  0  0  0  0  0  0  0  0  0  0
  -29.0436  -36.0107   24.9108 C   0  0  0  0  0  0  0  0  0  0  0  0
  -26.9539  -30.3864   20.6820 C   0  0  0  0  0  0  0  0  0  0  0  0
  -29.2024  -34.7632   24.2775 C   0  0  0  0  0  0  0  0  0  0  0  0
  -26.4250  -29.3015   21.3957 C   0  0  0  0  0  0  0  0  0  0  0  0
  -27.9296  -18.3119   18.3977 C   0  0  0  0  0  0  0  0  0  0  0  0
  -28.8886  -20.4346   19.0393 C   0  0  0  0  0  0  0  0  0  0  0  0
  -28.9021  -17.6469   19.1445 C   0  0  0  0  0  0  0  0  0  0  0  0
  -22.1277   -8.1739   21.6230 C   0  0  0  0  0  0  0  0  0  0  0  0
  -27.8532  -27.7916   20.1347 C   0  0  0  0  0  0  0  0  0  0  0  0
  -21.8035   -6.1336   22.7430 C   0  0  0  0  0  0  0  0  0  0  0  0
  -22.8466   -3.7218   23.6797 C   0  0  0  0  0  0  0  0  0  0  0  0
  -22.8517   -6.1377   23.6633 C   0  0  0  0  0  0  0  0  0  0  0  0
  -24.7493  -10.7984   19.5891 C   0  0  0  0  0  0  0  0  0  0  0  0
  -25.6497  -12.2011   18.1549 C   0  0  0  0  0  0  0  0  0  0  0  0
  -23.3239  -11.4992   17.5662 C   0  0  0  0  0  0  0  0  0  0  0  0
  -26.8951  -32.0092   23.4146 C   0  0  0  0  0  0  0  0  0  0  0  0
  -23.7569  -31.1888   23.3826 C   0  0  0  0  0  0  0  0  0  0  0  0
  -21.3329  -29.0481   22.2926 C   0  0  0  0  0  0  0  0  0  0  0  0
  -29.8280  -15.4339   19.9137 C   0  0  0  0  0  0  0  0  0  0  0  0
  -29.7478  -22.7258   19.6076 C   0  0  0  0  0  0  0  0  0  0  0  0
  -28.1023  -36.1955   26.0746 C   0  0  0  0  0  0  0  0  0  0  0  0
  -26.4592  -31.7829   20.9418 C   0  0  0  0  0  0  0  0  0  0  0  0
  -25.3773  -29.4885   22.4615 C   0  0  0  0  0  0  0  0  0  0  0  0
  -27.0631  -35.0843   26.1997 C   0  0  0  0  0  0  0  0  0  0  0  0
  -30.1969  -11.9209   20.3608 C   0  0  0  0  0  0  0  0  0  0  0  0
  -27.7237  -33.7169   26.0564 C   0  0  0  0  0  0  0  0  0  0  0  0
  -28.7917  -11.3729   20.1013 C   0  0  0  0  0  0  0  0  0  0  0  0
  -30.1565  -13.2662   21.0834 C   0  0  0  0  0  0  0  0  0  0  0  0
  -27.9115  -13.7403   20.1866 C   0  0  0  0  0  0  0  0  0  0  0  0
  -28.3750  -33.5607   24.6770 C   0  0  1  0  0  0  0  0  0  0  0  0
  -25.8546  -31.9538   22.3320 C   0  0  1  0  0  0  0  0  0  0  0  0
  -27.8995  -12.4177   19.4029 C   0  0  2  0  0  0  0  0  0  0  0  0
  -26.8820  -17.5566   17.6462 C   0  0  0  0  0  0  0  0  0  0  0  0
  -18.8675  -28.6122   22.4635 C   0  0  0  0  0  0  0  0  0  0  0  0
  -24.1551  -30.0489   26.1847 C   0  0  0  0  0  0  0  0  0  0  0  0
  -21.9921  -28.8172   25.9155 C   0  0  0  0  0  0  0  0  0  0  0  0
  -22.0198  -31.3111   25.8657 C   0  0  0  0  0  0  0  0  0  0  0  0
  -20.9509  -29.4003   19.3790 C   0  0  0  0  0  0  0  0  0  0  0  0
  -29.6320  -26.3913   19.4058 C   0  0  0  0  0  0  0  0  0  1  0  0
  -30.1780  -25.0502   19.8559 C   0  0  0  0  0  0  0  0  0  0  0  0
  -22.9516  -30.0217   23.9007 C   0  0  1  0  0  0  0  0  0  0  0  0
  -19.9699  -29.3007   21.6738 C   0  0  2  0  0  0  0  0  0  0  0  0
  -22.8008  -30.0461   25.4480 C   0  0  0  0  0  0  0  0  0  0  0  0
  -25.9677  -11.0422   20.0793 N   0  0  0  0  0  0  0  0  0  0  0  0
  -26.4906  -11.8983   19.1851 N   0  0  0  0  0  0  0  0  0  0  0  0
  -24.9303  -30.8736   22.6830 N   0  0  0  0  0  0  0  0  0  0  0  0
  -29.2959  -14.2065   20.3623 N   0  0  0  0  0  0  0  0  0  0  0  0
  -26.0164  -13.0464   17.1683 N   0  0  0  0  0  0  0  0  0  0  0  0
  -22.2291  -10.7155   17.9556 N   0  0  0  0  0  0  0  0  0  0  0  0
  -28.9250  -16.2317   19.2119 N   0  0  0  0  0  0  0  0  0  0  0  0
  -28.8803  -21.8471   18.9883 N   0  0  0  0  0  0  0  0  0  0  0  0
  -27.3711  -33.2805   23.6729 N   0  0  0  0  0  0  0  0  0  0  0  0
  -21.6854  -30.0459   23.1765 N   0  0  0  0  0  0  0  0  0  0  0  0
  -19.9339  -28.7907   20.2740 N   0  3  0  0  0  0  0  0  0  0  0  0
  -23.2552  -12.1664   16.5062 O   0  0  0  0  0  0  0  0  0  0  0  0
  -27.2394  -30.9753   23.9752 O   0  0  0  0  0  0  0  0  0  0  0  0
  -23.3557  -32.3377   23.5848 O   0  0  0  0  0  0  0  0  0  0  0  0
  -22.0149  -28.0621   22.0218 O   0  0  0  0  0  0  0  0  0  0  0  0
  -31.0061  -15.7417   20.1122 O   0  0  0  0  0  0  0  0  0  0  0  0
  -30.7009  -22.4556   20.3282 O   0  0  0  0  0  0  0  0  0  0  0  0
  -21.2841   -7.3300   22.2777 O   0  0  0  0  0  0  0  0  0  0  0  0
  -28.2913  -26.5297   19.8745 O   0  0  0  0  0  0  0  0  0  1  0  0
  -29.3830  -24.0128   19.2946 O   0  0  0  0  0  0  0  0  0  0  0  0
  -23.3463   -2.5637   24.1305 F   0  0  0  0  0  0  0  0  0  0  0  0
  -23.3610   -7.2970   24.1020 F   0  0  0  0  0  0  0  0  0  0  0  0
  1  2  1  0  0  0  0
  1  5  2  0  0  0  0
  2  6  2  0  0  0  0
  3 10  2  0  0  0  0
  3 18  1  0  0  0  0
  4 11  1  0  0  0  0
  4 18  2  0  0  0  0
  5 20  1  0  0  0  0
  6 22  1  0  0  0  0
  7 12  2  0  0  0  0
  7 21  1  0  0  0  0
  8  9  2  0  0  0  0
  8 25  1  0  0  0  0
  9 26  1  0  0  0  0
 10 27  1  0  0  0  0
 11 27  2  0  0  0  0
 12 28  1  0  0  0  0
 13 14  2  0  0  0  0
 13 29  1  0  0  0  0
 14 30  1  0  0  0  0
 15 23  1  0  0  0  0
 15 28  2  0  0  0  0
 16 24  1  0  0  0  0
 16 25  2  0  0  0  0
 17 30  2  0  0  0  0
 17 31  1  0  0  0  0
 18 32  1  0  0  0  0
 19 32  1  0  0  0  0
 19 33  2  0  0  0  0
 19 34  1  0  0  0  0
 20 22  2  0  0  0  0
 20 40  1  0  0  0  0
 21 23  2  0  0  0  0
 21 41  1  0  0  0  0
 22 49  1  0  0  0  0
 23 42  1  0  0  0  0
 24 26  2  0  0  0  0
 24 52  1  0  0  0  0
 25 70  1  0  0  0  0
 26 69  1  0  0  0  0
 27 80  1  0  0  0  0
 28 81  1  0  0  0  0
 29 31  2  0  0  0  0
 29 80  1  0  0  0  0
 30 83  1  0  0  0  0
 31 84  1  0  0  0  0
 32 63  2  0  0  0  0
 33 64  1  0  0  0  0
 33 67  1  0  0  0  0
 34 68  1  0  0  0  0
 34 74  2  0  0  0  0
 35 50  1  0  0  0  0
 35 71  1  0  0  0  0
 35 75  2  0  0  0  0
 36 60  1  0  0  0  0
 36 65  1  0  0  0  0
 36 76  2  0  0  0  0
 37 61  1  0  0  0  0
 37 72  1  0  0  0  0
 37 77  2  0  0  0  0
 38 66  1  0  0  0  0
 38 69  1  0  0  0  0
 38 78  2  0  0  0  0
 39 70  1  0  0  0  0
 39 79  2  0  0  0  0
 39 82  1  0  0  0  0
 40 43  1  0  0  0  0
 41 50  1  0  0  0  0
 42 65  1  0  0  0  0
 43 45  1  0  0  0  0
 44 46  1  0  0  0  0
 44 47  1  0  0  0  0
 45 49  1  0  0  0  0
 46 51  1  0  0  0  0
 47 66  1  0  0  0  0
 48 51  1  0  0  0  0
 48 66  1  0  0  0  0
 49 71  1  0  0  0  0
 50 65  1  0  0  0  0
 51 64  1  0  0  0  0
 53 61  1  0  0  0  0
 54 62  1  0  0  0  0
 55 62  1  0  0  0  0
 56 62  1  0  0  0  0
 57 73  1  0  0  0  0
 58 59  1  0  0  0  0
 58 81  1  0  0  0  0
 59 82  1  0  0  0  0
 60 62  1  0  0  0  0
 60 72  1  0  0  0  0
 61 73  1  0  0  0  0
 63 64  1  0  0  0  0
M  CHG  1  73   1
M  ISO  4  38 100  58 101  69 100  81 101
M  END
> <Batch ID>
0015

> <Smiles>
CNC(C)C(=O)NC(C(=O)N1Cc2cc([101O:1][101CH2:1]COC(=O)Nc3ccc([100NH:0][100C:0](=O)N4CCCC(n5nc(-c6ccc(Oc7ccc(F)cc7F)cc6)c(C(N)=O)c5N)C4)c(C)c3)ccc2CC1C(=O)NC1CCCc2ccccc21)C(C)(C)C

> <Shape>
0.319

> <Color>
0.107

> <Negative vol penalty>
0.000

$$$$

  -OEChem-04052315553D

 89 97  0     1  0  0  0  0  0999 V2000
  -26.6926  -37.9621   20.0242 C   0  0  0  0  0  0  0  0  0  0  0  0
  -27.3018  -36.7365   19.7744 C   0  0  0  0  0  0  0  0  0  0  0  0
  -23.9138   -4.1396   18.8360 C   0  0  0  0  0  0  0  0  0  0  0  0
  -22.4838   -5.9801   19.4719 C   0  0  0  0  0  0  0  0  0  0  0  0
  -25.7886  -38.0879   21.0782 C   0  0  0  0  0  0  0  0  0  0  0  0
  -27.0080  -35.6363   20.5792 C   0  0  0  0  0  0  0  0  0  0  0  0
  -26.6801  -29.7770   18.8281 C   0  0  0  0  0  0  0  0  0  0  0  0
  -23.2402   -3.3073   19.7300 C   0  0  0  0  0  0  0  0  0  0  0  0
  -21.8101   -5.1479   20.3659 C   0  0  0  0  0  0  0  0  0  0  0  0
  -27.5881  -28.7220   18.9076 C   0  0  0  0  0  0  0  0  0  0  0  0
  -22.3181   -3.8862   23.4612 C   0  0  0  0  0  0  0  0  0  0  0  0
  -22.0532   -4.3846   24.7368 C   0  0  0  0  0  0  0  0  0  0  0  0
  -26.5393  -27.9811   20.9497 C   0  0  0  0  0  0  0  0  0  0  0  0
  -19.6844   -4.1002   24.3560 C   0  0  0  0  0  0  0  0  0  0  0  0
  -23.5356   -5.4760   18.7070 C   0  0  0  0  0  0  0  0  0  0  0  0
  -23.9182   -6.5610   16.4301 C   0  0  0  0  0  0  0  0  0  0  0  0
  -25.4763  -36.9863   21.8903 C   0  0  0  0  0  0  0  0  0  0  0  0
  -25.7001  -29.9486   19.8163 C   0  0  0  0  0  0  0  0  0  0  0  0
  -26.1000  -35.7479   21.6459 C   0  0  0  0  0  0  0  0  0  0  0  0
  -25.6184  -29.0375   20.8791 C   0  0  0  0  0  0  0  0  0  0  0  0
  -22.1884   -3.8114   20.4949 C   0  0  0  0  0  0  0  0  0  0  0  0
  -27.5196  -27.8256   19.9701 C   0  0  0  0  0  0  0  0  0  0  0  0
  -21.2661   -3.4949   22.6330 C   0  0  0  0  0  0  0  0  0  0  0  0
  -20.7364   -4.4916   25.1842 C   0  0  0  0  0  0  0  0  0  0  0  0
  -19.9493   -3.6018   23.0804 C   0  0  0  0  0  0  0  0  0  0  0  0
  -24.2314   -6.3364   17.7841 C   0  0  0  0  0  0  0  0  0  0  0  0
  -24.8716   -7.4513   16.0003 C   0  0  0  0  0  0  0  0  0  0  0  0
  -22.8600   -6.0138   15.6323 C   0  0  0  0  0  0  0  0  0  0  0  0
  -25.0149  -32.2268   21.9243 C   0  0  0  0  0  0  0  0  0  0  0  0
  -22.4228  -30.3659   22.5075 C   0  0  0  0  0  0  0  0  0  0  0  0
  -20.9983  -27.2665   22.4009 C   0  0  0  0  0  0  0  0  0  0  0  0
  -28.2339  -11.5116   18.8394 C   0  0  0  0  0  0  0  0  0  0  0  0
  -24.5288  -37.1827   23.0472 C   0  0  0  0  0  0  0  0  0  0  0  0
  -24.7111  -31.0761   19.7018 C   0  0  0  0  0  0  0  0  0  0  0  0
  -24.5722  -29.1659   21.9549 C   0  0  0  0  0  0  0  0  0  0  0  0
  -23.9882  -35.8752   23.6204 C   0  0  0  0  0  0  0  0  0  0  0  0
  -29.3847   -8.8001   16.8393 C   0  0  0  0  0  0  0  0  0  0  0  0
  -25.1190  -34.8705   23.8169 C   0  0  0  0  0  0  0  0  0  0  0  0
  -28.1662   -7.8815   16.7325 C   0  0  0  0  0  0  0  0  0  0  0  0
  -25.4975  -13.9978   18.9671 C   0  0  0  0  0  0  0  0  0  0  0  0
  -27.0403  -13.7105   20.9555 C   0  0  0  0  0  0  0  0  0  0  0  0
  -25.2995  -15.4690   19.3345 C   0  0  0  0  0  0  0  0  0  0  0  0
  -26.8422  -15.1821   21.3209 C   0  0  0  0  0  0  0  0  0  0  0  0
  -29.4745   -9.4609   18.2131 C   0  0  0  0  0  0  0  0  0  0  0  0
  -27.0387   -9.2595   18.5293 C   0  0  0  0  0  0  0  0  0  0  0  0
  -25.7884  -34.5251   22.4813 C   0  0  1  0  0  0  0  0  0  0  0  0
  -24.0792  -31.4546   21.0378 C   0  0  1  0  0  0  0  0  0  0  0  0
  -26.8743   -8.6135   17.1429 C   0  0  2  0  0  0  0  0  0  0  0  0
  -26.8530  -13.4770   19.4531 C   0  0  0  0  0  0  0  0  0  0  0  0
  -25.4857  -15.6858   20.8341 C   0  0  0  0  0  0  0  0  0  0  0  0
  -22.9390  -17.4310   24.0639 C   0  0  0  0  0  0  0  0  0  0  0  0
  -18.8816  -26.0502   22.9822 C   0  0  0  0  0  0  0  0  0  0  0  0
  -23.2082  -30.4131   25.4556 C   0  0  0  0  0  0  0  0  0  0  0  0
  -21.6757  -28.4677   25.8231 C   0  0  0  0  0  0  0  0  0  0  0  0
  -20.7554  -30.6447   25.0256 C   0  0  0  0  0  0  0  0  0  0  0  0
  -20.5274  -26.4998   19.5814 C   0  0  0  0  0  0  0  0  0  0  0  0
  -23.4393  -17.1597   22.6543 C   0  0  0  0  0  0  0  0  0  0  0  0
  -27.1682  -21.6703   20.0149 C   0  0  0  0  0  0  0  0  0  0  0  0
  -28.3783  -22.4900   19.5637 C   0  0  0  0  0  0  0  0  0  0  0  0
  -27.5374  -20.1992   20.2201 C   0  0  0  0  0  0  0  0  0  0  0  0
  -28.0172  -23.9667   19.3908 C   0  0  0  0  0  0  0  0  0  0  0  0
  -26.3152  -19.3735   20.6320 C   0  0  0  0  0  0  0  0  0  0  0  0
  -29.2389  -24.7925   18.9778 C   0  0  0  0  0  0  0  0  0  0  0  0
  -24.9407  -17.3763   22.5524 C   0  0  0  0  0  0  0  0  0  0  0  0
  -26.6101  -17.8857   20.7764 C   0  0  0  0  0  0  0  0  0  0  0  0
  -28.9094  -26.2723   18.8247 C   0  0  0  0  0  0  0  0  0  1  0  0
  -22.1176  -29.2203   23.4421 C   0  0  1  0  0  0  0  0  0  0  0  0
  -19.6448  -26.7967   21.8991 C   0  0  2  0  0  0  0  0  0  0  0  0
  -21.9603  -29.6849   24.9175 C   0  0  0  0  0  0  0  0  0  0  0  0
  -25.3004   -7.0281   18.1877 N   0  0  0  0  0  0  0  0  0  0  0  0
  -25.6672   -7.6961   17.0807 N   0  0  0  0  0  0  0  0  0  0  0  0
  -23.6319  -30.2884   21.8020 N   0  0  0  0  0  0  0  0  0  0  0  0
  -28.2181  -10.1390   18.5413 N   0  0  0  0  0  0  0  0  0  0  0  0
  -25.0987   -8.0409   14.8073 N   0  0  0  0  0  0  0  0  0  0  0  0
  -21.9687   -5.1133   16.2315 N   0  0  0  0  0  0  0  0  0  0  0  0
  -24.9715  -33.5946   21.7322 N   0  0  0  0  0  0  0  0  0  0  0  0
  -20.9409  -28.5515   22.8975 N   0  0  0  0  0  0  0  0  0  0  0  0
  -26.9994  -12.0775   19.1333 N   0  0  0  0  0  0  0  0  0  0  0  0
  -19.8128  -25.8870   20.7307 N   0  3  0  0  0  0  0  0  0  0  0  0
  -25.3787  -17.1396   21.1271 N   0  3  1  0  0  0  0  0  0  0  0  0
  -22.7191   -6.3019   14.4196 O   0  0  0  0  0  0  0  0  0  0  0  0
  -25.7226  -31.6264   22.7245 O   0  0  0  0  0  0  0  0  0  0  0  0
  -21.6146  -31.2918   22.4018 O   0  0  0  0  0  0  0  0  0  0  0  0
  -22.0049  -26.5625   22.3600 O   0  0  0  0  0  0  0  0  0  0  0  0
  -29.2706  -12.1841   18.8381 O   0  0  0  0  0  0  0  0  0  0  0  0
  -21.5307   -2.9996   21.3672 O   0  0  0  0  0  0  0  0  0  0  0  0
  -28.4118  -26.7875   20.0511 O   0  0  0  0  0  0  0  0  0  1  0  0
  -20.4823   -4.9688   26.4097 F   0  0  0  0  0  0  0  0  0  0  0  0
  -18.9345   -3.2264   22.2898 F   0  0  0  0  0  0  0  0  0  0  0  0
  1  2  1  0  0  0  0
  1  5  2  0  0  0  0
  2  6  2  0  0  0  0
  3  8  2  0  0  0  0
  3 15  1  0  0  0  0
  4  9  1  0  0  0  0
  4 15  2  0  0  0  0
  5 17  1  0  0  0  0
  6 19  1  0  0  0  0
  7 10  2  0  0  0  0
  7 18  1  0  0  0  0
  8 21  1  0  0  0  0
  9 21  2  0  0  0  0
 10 22  1  0  0  0  0
 11 12  2  0  0  0  0
 11 23  1  0  0  0  0
 12 24  1  0  0  0  0
 13 20  1  0  0  0  0
 13 22  2  0  0  0  0
 14 24  2  0  0  0  0
 14 25  1  0  0  0  0
 15 26  1  0  0  0  0
 16 26  1  0  0  0  0
 16 27  2  0  0  0  0
 16 28  1  0  0  0  0
 17 19  2  0  0  0  0
 17 33  1  0  0  0  0
 18 20  2  0  0  0  0
 18 34  1  0  0  0  0
 19 46  1  0  0  0  0
 20 35  1  0  0  0  0
 21 86  1  0  0  0  0
 22 87  1  0  0  0  0
 23 25  2  0  0  0  0
 23 86  1  0  0  0  0
 24 88  1  0  0  0  0
 25 89  1  0  0  0  0
 26 70  2  0  0  0  0
 27 71  1  0  0  0  0
 27 74  1  0  0  0  0
 28 75  1  0  0  0  0
 28 81  2  0  0  0  0
 29 47  1  0  0  0  0
 29 76  1  0  0  0  0
 29 82  2  0  0  0  0
 30 67  1  0  0  0  0
 30 72  1  0  0  0  0
 30 83  2  0  0  0  0
 31 68  1  0  0  0  0
 31 77  1  0  0  0  0
 31 84  2  0  0  0  0
 32 73  1  0  0  0  0
 32 78  1  0  0  0  0
 32 85  2  0  0  0  0
 33 36  1  0  0  0  0
 34 47  1  0  0  0  0
 35 72  1  0  0  0  0
 36 38  1  0  0  0  0
 37 39  1  0  0  0  0
 37 44  1  0  0  0  0
 38 46  1  0  0  0  0
 39 48  1  0  0  0  0
 40 42  1  0  0  0  0
 40 49  1  0  0  0  0
 41 43  1  0  0  0  0
 41 49  1  0  0  0  0
 42 50  1  0  0  0  0
 43 50  1  0  0  0  0
 44 73  1  0  0  0  0
 45 48  1  0  0  0  0
 45 73  1  0  0  0  0
 46 76  1  0  0  0  0
 47 72  1  0  0  0  0
 48 71  1  0  0  0  0
 49 78  1  0  0  0  0
 50 80  1  0  0  0  0
 51 57  1  0  0  0  0
 52 68  1  0  0  0  0
 53 69  1  0  0  0  0
 54 69  1  0  0  0  0
 55 69  1  0  0  0  0
 56 79  1  0  0  0  0
 57 64  1  0  0  0  0
 58 59  1  0  0  0  0
 58 60  1  0  0  0  0
 59 61  1  0  0  0  0
 60 62  1  0  0  0  0
 61 63  1  0  0  0  0
 62 65  1  0  0  0  0
 63 66  1  0  0  0  0
 64 80  1  0  0  0  0
 65 80  1  0  0  0  0
 66 87  1  0  0  0  0
 67 69  1  0  0  0  0
 67 77  1  0  0  0  0
 68 79  1  0  0  0  0
 70 71  1  0  0  0  0
M  CHG  2  79   1  80   1
M  ISO  4  32 100  66 101  78 100  87 101
M  END
> <Batch ID>
0015

> <Smiles>
CCCN(CCCCCCC[101CH2:1][101O:1]c1ccc2c(c1)CN(C(=O)C(NC(=O)C(C)NC)C(C)(C)C)C(C(=O)NC1CCCc3ccccc31)C2)C1CCC([100NH:0][100C:0](=O)N2CCCC(n3nc(-c4ccc(Oc5ccc(F)cc5F)cc4)c(C(N)=O)c3N)C2)CC1

> <Shape>
0.246

> <Color>
0.052

> <Negative vol penalty>
0.000

$$$$

  -OEChem-04052315553D

 85 93  0     1  0  0  0  0  0999 V2000
  -32.8990  -24.6464   17.7693 C   0  0  0  0  0  0  0  0  0  0  0  0
  -31.8011  -24.2269   18.5136 C   0  0  0  0  0  0  0  0  0  0  0  0
  -23.7420   -9.6439   19.8417 C   0  0  0  0  0  0  0  0  0  0  0  0
  -23.9136   -9.8844   22.2396 C   0  0  0  0  0  0  0  0  0  0  0  0
  -33.4955  -25.8767   18.0418 C   0  0  0  0  0  0  0  0  0  0  0  0
  -31.2997  -25.0371   19.5318 C   0  0  0  0  0  0  0  0  0  0  0  0
  -26.2462  -25.3542   19.4517 C   0  0  0  0  0  0  0  0  0  0  0  0
  -23.1773   -8.3795   20.0089 C   0  0  0  0  0  0  0  0  0  0  0  0
  -23.3488   -8.6200   22.4068 C   0  0  0  0  0  0  0  0  0  0  0  0
  -25.5322  -24.2744   19.9693 C   0  0  0  0  0  0  0  0  0  0  0  0
  -20.2656   -7.2393   22.3168 C   0  0  0  0  0  0  0  0  0  0  0  0
  -19.2685   -7.0991   23.2821 C   0  0  0  0  0  0  0  0  0  0  0  0
  -25.2063  -25.4854   22.0300 C   0  0  0  0  0  0  0  0  0  0  0  0
  -29.9138  -18.8666   21.6738 C   0  0  0  0  0  0  0  0  0  0  0  0
  -20.6204   -5.4663   24.4412 C   0  0  0  0  0  0  0  0  0  0  0  0
  -24.1103  -10.3963   20.9571 C   0  0  0  0  0  0  0  0  0  0  0  0
  -24.0161  -12.9336   20.7102 C   0  0  0  0  0  0  0  0  0  0  0  0
  -32.9952  -26.7068   19.0574 C   0  0  0  0  0  0  0  0  0  0  0  0
  -26.4553  -26.5054   20.2246 C   0  0  0  0  0  0  0  0  0  0  0  0
  -31.8909  -26.2792   19.8190 C   0  0  0  0  0  0  0  0  0  0  0  0
  -25.9211  -26.5795   21.5189 C   0  0  0  0  0  0  0  0  0  0  0  0
  -29.8594  -20.2574   21.5829 C   0  0  0  0  0  0  0  0  0  0  0  0
  -27.8393  -20.2650   22.9082 C   0  0  0  0  0  0  0  0  0  0  0  0
  -28.9309  -18.1749   22.3818 C   0  0  0  0  0  0  0  0  0  0  0  0
  -22.9806   -7.8676   21.2914 C   0  0  0  0  0  0  0  0  0  0  0  0
  -25.0146  -24.3387   21.2596 C   0  0  0  0  0  0  0  0  0  0  0  0
  -21.4400   -6.4930   22.4137 C   0  0  0  0  0  0  0  0  0  0  0  0
  -19.4459   -6.2126   24.3443 C   0  0  0  0  0  0  0  0  0  0  0  0
  -21.6174   -5.6065   23.4759 C   0  0  0  0  0  0  0  0  0  0  0  0
  -28.8221  -20.9566   22.2001 C   0  0  0  0  0  0  0  0  0  0  0  0
  -27.8937  -18.8741   22.9991 C   0  0  0  0  0  0  0  0  0  0  0  0
  -24.6943  -11.7023   20.7850 C   0  0  0  0  0  0  0  0  0  0  0  0
  -25.0122  -13.8649   20.5464 C   0  0  0  0  0  0  0  0  0  0  0  0
  -22.6112  -13.2108   20.7825 C   0  0  0  0  0  0  0  0  0  0  0  0
  -29.0141  -28.0071   21.3654 C   0  0  0  0  0  0  0  0  0  0  0  0
  -26.8246  -30.2156   22.2877 C   0  0  0  0  0  0  0  0  0  0  0  0
  -23.5846  -30.9221   23.0938 C   0  0  0  0  0  0  0  0  0  0  0  0
  -29.9996  -15.9489   21.8829 C   0  0  0  0  0  0  0  0  0  0  0  0
  -33.7026  -28.0070   19.3465 C   0  0  0  0  0  0  0  0  0  0  0  0
  -27.2048  -27.6722   19.6420 C   0  0  0  0  0  0  0  0  0  0  0  0
  -26.1004  -27.8006   22.3821 C   0  0  0  0  0  0  0  0  0  0  0  0
  -32.8788  -28.9733   20.1938 C   0  0  0  0  0  0  0  0  0  0  0  0
  -29.9360  -13.2772   19.5302 C   0  0  0  0  0  0  0  0  0  0  0  0
  -32.2583  -28.2457   21.3822 C   0  0  0  0  0  0  0  0  0  0  0  0
  -28.5109  -12.7306   19.6407 C   0  0  0  0  0  0  0  0  0  0  0  0
  -30.4791  -13.7235   20.8865 C   0  0  0  0  0  0  0  0  0  0  0  0
  -28.1981  -14.1195   21.7288 C   0  0  0  0  0  0  0  0  0  0  0  0
  -31.3028  -27.1410   20.9151 C   0  0  1  0  0  0  0  0  0  0  0  0
  -27.7980  -28.5921   20.7046 C   0  0  1  0  0  0  0  0  0  0  0  0
  -27.5844  -13.7175   20.3778 C   0  0  2  0  0  0  0  0  0  0  0  0
  -30.9344  -20.9559   20.8137 C   0  0  0  0  0  0  0  0  0  0  0  0
  -22.1071  -32.8070   23.8432 C   0  0  0  0  0  0  0  0  0  0  0  0
  -23.0016  -20.9743   23.0246 C   0  0  0  0  0  0  0  0  0  0  0  0
  -27.9634  -29.9834   25.1088 C   0  0  0  0  0  0  0  0  0  0  0  0
  -25.8998  -31.1170   25.9601 C   0  0  0  0  0  0  0  0  0  0  0  0
  -27.4228  -32.3172   24.3909 C   0  0  0  0  0  0  0  0  0  0  0  0
  -21.9040  -30.7240   20.6658 C   0  0  0  0  0  0  0  0  0  0  0  0
  -26.7240  -21.0178   23.5718 C   0  0  0  0  0  0  0  0  0  0  0  0
  -24.3775  -23.0881   23.1795 C   0  0  0  0  0  0  0  0  0  1  0  0
  -25.9793  -30.4334   23.5193 C   0  0  1  0  0  0  0  0  0  0  0  0
  -22.6570  -32.0393   22.6512 C   0  0  2  0  0  0  0  0  0  0  0  0
  -24.2964  -21.6028   23.5136 C   0  0  2  0  0  0  0  0  0  0  0  0
  -26.8144  -30.9389   24.7295 C   0  0  0  0  0  0  0  0  0  0  0  0
  -26.0189  -11.8358   20.6773 N   0  0  0  0  0  0  0  0  0  0  0  0
  -26.1810  -13.1621   20.5331 N   0  0  0  0  0  0  0  0  0  0  0  0
  -26.8459  -28.9128   21.7699 N   0  0  0  0  0  0  0  0  0  0  0  0
  -29.5511  -14.6602   21.5240 N   0  0  0  0  0  0  0  0  0  0  0  0
  -24.9937  -15.2082   20.4137 N   0  0  0  0  0  0  0  0  0  0  0  0
  -21.7262  -12.1374   20.9527 N   0  0  0  0  0  0  0  0  0  0  0  0
  -29.0203  -16.7625   22.4517 N   0  0  0  0  0  0  0  0  0  0  0  0
  -30.0416  -27.7099   20.4905 N   0  0  0  0  0  0  0  0  0  0  0  0
  -24.9009  -31.3316   23.1207 N   0  0  0  0  0  0  0  0  0  0  0  0
  -21.5092  -31.4844   21.8794 N   0  3  0  0  0  0  0  0  0  0  0  0
  -25.4332  -20.9048   22.8462 N   0  3  0  0  0  0  0  0  0  0  0  0
  -22.1530  -14.3743   20.6821 O   0  0  0  0  0  0  0  0  0  0  0  0
  -29.0203  -27.8392   22.5792 O   0  0  0  0  0  0  0  0  0  0  0  0
  -27.4375  -31.1679   21.7987 O   0  0  0  0  0  0  0  0  0  0  0  0
  -23.1812  -29.7995   23.3900 O   0  0  0  0  0  0  0  0  0  0  0  0
  -31.1595  -16.3138   21.6744 O   0  0  0  0  0  0  0  0  0  0  0  0
  -22.4293   -6.6339   21.4550 O   0  0  0  0  0  0  0  0  0  0  0  0
  -24.3178  -23.2859   21.7675 O   0  0  0  0  0  0  0  0  0  1  0  0
  -18.4890   -6.0792   25.2720 F   0  0  0  0  0  0  0  0  0  0  0  0
  -22.7441   -4.8877   23.5749 F   0  0  0  0  0  0  0  0  0  0  0  0
  -28.7613  -22.6846   22.0828 Cl  0  0  0  0  0  0  0  0  0  0  0  0
  -26.6718  -18.0128   23.8795 Cl  0  0  0  0  0  0  0  0  0  0  0  0
  1  2  1  0  0  0  0
  1  5  2  0  0  0  0
  2  6  2  0  0  0  0
  3  8  2  0  0  0  0
  3 16  1  0  0  0  0
  4  9  1  0  0  0  0
  4 16  2  0  0  0  0
  5 18  1  0  0  0  0
  6 20  1  0  0  0  0
  7 10  2  0  0  0  0
  7 19  1  0  0  0  0
  8 25  1  0  0  0  0
  9 25  2  0  0  0  0
 10 26  1  0  0  0  0
 11 12  2  0  0  0  0
 11 27  1  0  0  0  0
 12 28  1  0  0  0  0
 13 21  1  0  0  0  0
 13 26  2  0  0  0  0
 14 22  1  0  0  0  0
 14 24  2  0  0  0  0
 15 28  2  0  0  0  0
 15 29  1  0  0  0  0
 16 32  1  0  0  0  0
 17 32  1  0  0  0  0
 17 33  2  0  0  0  0
 17 34  1  0  0  0  0
 18 20  2  0  0  0  0
 18 39  1  0  0  0  0
 19 21  2  0  0  0  0
 19 40  1  0  0  0  0
 20 48  1  0  0  0  0
 21 41  1  0  0  0  0
 22 30  2  0  0  0  0
 22 51  1  0  0  0  0
 23 30  1  0  0  0  0
 23 31  2  0  0  0  0
 23 58  1  0  0  0  0
 24 31  1  0  0  0  0
 24 70  1  0  0  0  0
 25 80  1  0  0  0  0
 26 81  1  0  0  0  0
 27 29  2  0  0  0  0
 27 80  1  0  0  0  0
 28 82  1  0  0  0  0
 29 83  1  0  0  0  0
 30 84  1  0  0  0  0
 31 85  1  0  0  0  0
 32 64  2  0  0  0  0
 33 65  1  0  0  0  0
 33 68  1  0  0  0  0
 34 69  1  0  0  0  0
 34 75  2  0  0  0  0
 35 49  1  0  0  0  0
 35 71  1  0  0  0  0
 35 76  2  0  0  0  0
 36 60  1  0  0  0  0
 36 66  1  0  0  0  0
 36 77  2  0  0  0  0
 37 61  1  0  0  0  0
 37 72  1  0  0  0  0
 37 78  2  0  0  0  0
 38 67  1  0  0  0  0
 38 70  1  0  0  0  0
 38 79  2  0  0  0  0
 39 42  1  0  0  0  0
 40 49  1  0  0  0  0
 41 66  1  0  0  0  0
 42 44  1  0  0  0  0
 43 45  1  0  0  0  0
 43 46  1  0  0  0  0
 44 48  1  0  0  0  0
 45 50  1  0  0  0  0
 46 67  1  0  0  0  0
 47 50  1  0  0  0  0
 47 67  1  0  0  0  0
 48 71  1  0  0  0  0
 49 66  1  0  0  0  0
 50 65  1  0  0  0  0
 52 61  1  0  0  0  0
 53 62  1  0  0  0  0
 54 63  1  0  0  0  0
 55 63  1  0  0  0  0
 56 63  1  0  0  0  0
 57 73  1  0  0  0  0
 58 74  1  0  0  0  0
 59 62  1  0  0  0  0
 59 81  1  0  0  0  0
 60 63  1  0  0  0  0
 60 72  1  0  0  0  0
 61 73  1  0  0  0  0
 62 74  1  0  0  0  0
 64 65  1  0  0  0  0
M  CHG  2  73   1  74   1
M  ISO  4  38 100  59 101  70 100  81 101
M  END
> <Batch ID>
0015

> <Smiles>
CNC(C)C(=O)NC(C(=O)N1Cc2cc([101O:1][101CH2:1]C(C)NCc3c(Cl)c(C)cc([100NH:0][100C:0](=O)N4CCCC(n5nc(-c6ccc(Oc7ccc(F)cc7F)cc6)c(C(N)=O)c5N)C4)c3Cl)ccc2CC1C(=O)NC1CCCc2ccccc21)C(C)(C)C

> <Shape>
0.309

> <Color>
0.156

> <Negative vol penalty>
0.000

$$$$

  -OEChem-04052315553D

 86 94  0     1  0  0  0  0  0999 V2000
  -19.4592  -24.3715   21.3420 C   0  0  0  0  0  0  0  0  0  0  0  0
  -20.4338  -24.9652   20.5463 C   0  0  0  0  0  0  0  0  0  0  0  0
  -32.9543  -14.2337   19.8405 C   0  0  0  0  0  0  0  0  0  0  0  0
  -34.1917  -16.2216   20.4358 C   0  0  0  0  0  0  0  0  0  0  0  0
  -18.7101  -25.1508   22.2227 C   0  0  0  0  0  0  0  0  0  0  0  0
  -20.6592  -26.3387   20.6301 C   0  0  0  0  0  0  0  0  0  0  0  0
  -25.5874  -27.4921   20.7964 C   0  0  0  0  0  0  0  0  0  0  0  0
  -34.1484  -13.5836   19.5291 C   0  0  0  0  0  0  0  0  0  0  0  0
  -35.3858  -15.5714   20.1244 C   0  0  0  0  0  0  0  0  0  0  0  0
  -26.2904  -27.4574   19.5929 C   0  0  0  0  0  0  0  0  0  0  0  0
  -36.3549  -13.5193   16.9695 C   0  0  0  0  0  0  0  0  0  0  0  0
  -36.4018  -12.7837   15.7853 C   0  0  0  0  0  0  0  0  0  0  0  0
  -26.1129  -29.8575   19.4271 C   0  0  0  0  0  0  0  0  0  0  0  0
  -31.4560  -25.1921   18.6478 C   0  0  0  0  0  0  0  0  0  0  0  0
  -30.9583  -24.7642   16.3227 C   0  0  0  0  0  0  0  0  0  0  0  0
  -36.8933  -10.7831   17.0474 C   0  0  0  0  0  0  0  0  0  0  0  0
  -32.9759  -15.5527   20.2938 C   0  0  0  0  0  0  0  0  0  0  0  0
  -31.0918  -16.2568   21.8629 C   0  0  0  0  0  0  0  0  0  0  0  0
  -18.9331  -26.5331   22.3243 C   0  0  0  0  0  0  0  0  0  0  0  0
  -25.1316  -28.7107   21.3196 C   0  0  0  0  0  0  0  0  0  0  0  0
  -19.9115  -27.1374   21.5120 C   0  0  0  0  0  0  0  0  0  0  0  0
  -25.4065  -29.9052   20.6386 C   0  0  0  0  0  0  0  0  0  0  0  0
  -31.5068  -25.5830   17.3098 C   0  0  0  0  0  0  0  0  0  0  0  0
  -30.3081  -23.1636   18.0116 C   0  0  0  0  0  0  0  0  0  0  0  0
  -35.3642  -14.2524   19.6711 C   0  0  0  0  0  0  0  0  0  0  0  0
  -26.5507  -28.6399   18.9066 C   0  0  0  0  0  0  0  0  0  0  0  0
  -36.5773  -12.8867   18.1927 C   0  0  0  0  0  0  0  0  0  0  0  0
  -30.8566  -23.9824   18.9987 C   0  0  0  0  0  0  0  0  0  0  0  0
  -36.6710  -11.4156   15.8243 C   0  0  0  0  0  0  0  0  0  0  0  0
  -30.3589  -23.5546   16.6736 C   0  0  0  0  0  0  0  0  0  0  0  0
  -36.8465  -11.5187   18.2317 C   0  0  0  0  0  0  0  0  0  0  0  0
  -31.7426  -16.2251   20.6150 C   0  0  0  0  0  0  0  0  0  0  0  0
  -29.9709  -17.0204   21.6462 C   0  0  0  0  0  0  0  0  0  0  0  0
  -31.4669  -15.6503   23.1067 C   0  0  0  0  0  0  0  0  0  0  0  0
  -22.2764  -29.9357   21.9913 C   0  0  0  0  0  0  0  0  0  0  0  0
  -24.0403  -32.3558   23.2379 C   0  0  0  0  0  0  0  0  0  0  0  0
  -26.9935  -34.0657   23.2786 C   0  0  0  0  0  0  0  0  0  0  0  0
  -28.6475  -21.2970   17.6884 C   0  0  0  0  0  0  0  0  0  0  0  0
  -18.0659  -27.3417   23.2564 C   0  0  0  0  0  0  0  0  0  0  0  0
  -24.3979  -28.7338   22.6325 C   0  0  0  0  0  0  0  0  0  0  0  0
  -24.9567  -31.2415   21.1681 C   0  0  0  0  0  0  0  0  0  0  0  0
  -18.6240  -28.7306   23.5562 C   0  0  0  0  0  0  0  0  0  0  0  0
  -26.8840  -18.2458   18.1960 C   0  0  0  0  0  0  0  0  0  0  0  0
  -19.0778  -29.4127   22.2695 C   0  0  0  0  0  0  0  0  0  0  0  0
  -27.8683  -17.3865   18.9928 C   0  0  0  0  0  0  0  0  0  0  0  0
  -27.5971  -19.1087   17.1564 C   0  0  0  0  0  0  0  0  0  0  0  0
  -29.6761  -19.0756   18.4776 C   0  0  0  0  0  0  0  0  0  0  0  0
  -20.2025  -28.6203   21.5922 C   0  0  1  0  0  0  0  0  0  0  0  0
  -23.5341  -29.9784   22.8123 C   0  0  1  0  0  0  0  0  0  0  0  0
  -29.0109  -18.2372   19.5813 C   0  0  2  0  0  0  0  0  0  0  0  0
  -33.3186  -26.7132   15.9559 C   0  0  0  0  0  0  0  0  0  0  0  0
  -28.1232  -36.0201   24.3746 C   0  0  0  0  0  0  0  0  0  0  0  0
  -22.4235  -34.2661   21.4924 C   0  0  0  0  0  0  0  0  0  0  0  0
  -24.1779  -36.0067   21.8936 C   0  0  0  0  0  0  0  0  0  0  0  0
  -22.8679  -35.0938   23.8101 C   0  0  0  0  0  0  0  0  0  0  0  0
  -29.1073  -32.3453   24.4324 C   0  0  0  0  0  0  0  0  0  0  0  0
  -29.6813  -24.0377   21.0654 C   0  0  0  0  0  0  0  0  0  0  0  0
  -29.2073  -29.3061   16.5560 C   0  0  0  0  0  0  0  0  0  0  0  0
  -30.1009  -28.2790   17.2349 C   0  0  0  0  0  0  0  0  0  0  0  0
  -28.0272  -29.7523   17.4105 C   0  0  0  0  0  0  0  0  0  1  0  0
  -32.1565  -26.8934   16.9294 C   0  0  1  0  0  0  0  0  0  0  0  0
  -24.6178  -33.6437   22.7023 C   0  0  1  0  0  0  0  0  0  0  0  0
  -27.8787  -34.5200   24.4251 C   0  0  2  0  0  0  0  0  0  0  0  0
  -23.5287  -34.7274   22.4634 C   0  0  0  0  0  0  0  0  0  0  0  0
  -31.0895  -16.9137   19.6752 N   0  0  0  0  0  0  0  0  0  0  0  0
  -30.0166  -17.3852   20.3328 N   0  0  0  0  0  0  0  0  0  0  0  0
  -24.2374  -31.2113   22.4523 N   0  0  0  0  0  0  0  0  0  0  0  0
  -28.6635  -19.8896   17.7871 N   0  0  0  0  0  0  0  0  0  0  0  0
  -28.9605  -17.4087   22.4529 N   0  0  0  0  0  0  0  0  0  0  0  0
  -32.6493  -14.8992   23.1541 N   0  0  0  0  0  0  0  0  0  0  0  0
  -29.6939  -21.9337   18.3548 N   0  0  0  0  0  0  0  0  0  0  0  0
  -21.4619  -28.8538   22.2659 N   0  0  0  0  0  0  0  0  0  0  0  0
  -25.6627  -34.0431   23.6388 N   0  0  0  0  0  0  0  0  0  0  0  0
  -29.1967  -33.8268   24.3680 N   0  3  0  0  0  0  0  0  0  0  0  0
  -31.1948  -27.8584   16.3283 N   0  3  0  0  0  0  0  0  0  0  0  0
  -30.7657  -15.7572   24.1413 O   0  0  0  0  0  0  0  0  0  0  0  0
  -22.0603  -30.8196   21.1706 O   0  0  0  0  0  0  0  0  0  0  0  0
  -23.4428  -32.3637   24.3170 O   0  0  0  0  0  0  0  0  0  0  0  0
  -27.4378  -33.7648   22.1729 O   0  0  0  0  0  0  0  0  0  0  0  0
  -27.7549  -21.8949   17.0819 O   0  0  0  0  0  0  0  0  0  0  0  0
  -36.5296  -13.6182   19.3676 O   0  0  0  0  0  0  0  0  0  0  0  0
  -30.8170  -23.6188   20.3118 O   0  0  0  0  0  0  0  0  0  0  0  0
  -27.2361  -28.6088   17.7314 O   0  0  0  0  0  0  0  0  0  1  0  0
  -36.7144  -10.7091   14.6871 F   0  0  0  0  0  0  0  0  0  0  0  0
  -29.8353  -22.7763   15.7156 F   0  0  0  0  0  0  0  0  0  0  0  0
  -37.0598  -10.9052   19.4039 F   0  0  0  0  0  0  0  0  0  0  0  0
  1  2  1  0  0  0  0
  1  5  2  0  0  0  0
  2  6  2  0  0  0  0
  3  8  2  0  0  0  0
  3 17  1  0  0  0  0
  4  9  1  0  0  0  0
  4 17  2  0  0  0  0
  5 19  1  0  0  0  0
  6 21  1  0  0  0  0
  7 10  2  0  0  0  0
  7 20  1  0  0  0  0
  8 25  1  0  0  0  0
  9 25  2  0  0  0  0
 10 26  1  0  0  0  0
 11 12  2  0  0  0  0
 11 27  1  0  0  0  0
 12 29  1  0  0  0  0
 13 22  1  0  0  0  0
 13 26  2  0  0  0  0
 14 23  2  0  0  0  0
 14 28  1  0  0  0  0
 15 23  1  0  0  0  0
 15 30  2  0  0  0  0
 16 29  2  0  0  0  0
 16 31  1  0  0  0  0
 17 32  1  0  0  0  0
 18 32  1  0  0  0  0
 18 33  2  0  0  0  0
 18 34  1  0  0  0  0
 19 21  2  0  0  0  0
 19 39  1  0  0  0  0
 20 22  2  0  0  0  0
 20 40  1  0  0  0  0
 21 48  1  0  0  0  0
 22 41  1  0  0  0  0
 23 61  1  0  0  0  0
 24 28  2  0  0  0  0
 24 30  1  0  0  0  0
 24 71  1  0  0  0  0
 25 81  1  0  0  0  0
 26 83  1  0  0  0  0
 27 31  2  0  0  0  0
 27 81  1  0  0  0  0
 28 82  1  0  0  0  0
 29 84  1  0  0  0  0
 30 85  1  0  0  0  0
 31 86  1  0  0  0  0
 32 65  2  0  0  0  0
 33 66  1  0  0  0  0
 33 69  1  0  0  0  0
 34 70  1  0  0  0  0
 34 76  2  0  0  0  0
 35 49  1  0  0  0  0
 35 72  1  0  0  0  0
 35 77  2  0  0  0  0
 36 62  1  0  0  0  0
 36 67  1  0  0  0  0
 36 78  2  0  0  0  0
 37 63  1  0  0  0  0
 37 73  1  0  0  0  0
 37 79  2  0  0  0  0
 38 68  1  0  0  0  0
 38 71  1  0  0  0  0
 38 80  2  0  0  0  0
 39 42  1  0  0  0  0
 40 49  1  0  0  0  0
 41 67  1  0  0  0  0
 42 44  1  0  0  0  0
 43 45  1  0  0  0  0
 43 46  1  0  0  0  0
 44 48  1  0  0  0  0
 45 50  1  0  0  0  0
 46 68  1  0  0  0  0
 47 50  1  0  0  0  0
 47 68  1  0  0  0  0
 48 72  1  0  0  0  0
 49 67  1  0  0  0  0
 50 66  1  0  0  0  0
 51 61  1  0  0  0  0
 52 63  1  0  0  0  0
 53 64  1  0  0  0  0
 54 64  1  0  0  0  0
 55 64  1  0  0  0  0
 56 74  1  0  0  0  0
 57 82  1  0  0  0  0
 58 59  1  0  0  0  0
 58 60  1  0  0  0  0
 59 75  1  0  0  0  0
 60 83  1  0  0  0  0
 61 75  1  0  0  0  0
 62 64  1  0  0  0  0
 62 73  1  0  0  0  0
 63 74  1  0  0  0  0
 65 66  1  0  0  0  0
M  CHG  2  74   1  75   1
M  ISO  4  38 100  60 101  71 100  83 101
M  END
> <Batch ID>
0015

> <Smiles>
CNC(C)C(=O)NC(C(=O)N1Cc2cc([101O:1][101CH2:1]CCNC(C)c3cc(F)c([100NH:0][100C:0](=O)N4CCCC(n5nc(-c6ccc(Oc7ccc(F)cc7F)cc6)c(C(N)=O)c5N)C4)c(OC)c3)ccc2CC1C(=O)NC1CCCc2ccccc21)C(C)(C)C

> <Shape>
0.243

> <Color>
0.091

> <Negative vol penalty>
0.000

$$$$

  -OEChem-04052315553D

 84 92  0     1  0  0  0  0  0999 V2000
  -32.9000  -24.6031   17.8120 C   0  0  0  0  0  0  0  0  0  0  0  0
  -31.7976  -24.1898   18.5531 C   0  0  0  0  0  0  0  0  0  0  0  0
  -23.7465   -9.6474   19.8399 C   0  0  0  0  0  0  0  0  0  0  0  0
  -23.9096   -9.8863   22.2385 C   0  0  0  0  0  0  0  0  0  0  0  0
  -33.5007  -25.8315   18.0842 C   0  0  0  0  0  0  0  0  0  0  0  0
  -31.2960  -25.0042   19.5677 C   0  0  0  0  0  0  0  0  0  0  0  0
  -26.2441  -25.3423   19.4684 C   0  0  0  0  0  0  0  0  0  0  0  0
  -23.1821   -8.3825   20.0042 C   0  0  0  0  0  0  0  0  0  0  0  0
  -23.3451   -8.6215   22.4029 C   0  0  0  0  0  0  0  0  0  0  0  0
  -25.5237  -24.2666   19.9855 C   0  0  0  0  0  0  0  0  0  0  0  0
  -20.2631   -7.2388   22.3012 C   0  0  0  0  0  0  0  0  0  0  0  0
  -19.2628   -7.0973   23.2629 C   0  0  0  0  0  0  0  0  0  0  0  0
  -25.1953  -25.4832   22.0425 C   0  0  0  0  0  0  0  0  0  0  0  0
  -28.7799  -20.9615   22.2409 C   0  0  0  0  0  0  0  0  0  0  0  0
  -29.8976  -18.8882   21.7036 C   0  0  0  0  0  0  0  0  0  0  0  0
  -20.6117   -5.4646   24.4257 C   0  0  0  0  0  0  0  0  0  0  0  0
  -24.1104  -10.3993   20.9570 C   0  0  0  0  0  0  0  0  0  0  0  0
  -24.0153  -12.9367   20.7116 C   0  0  0  0  0  0  0  0  0  0  0  0
  -33.0002  -26.6658   19.0962 C   0  0  0  0  0  0  0  0  0  0  0  0
  -26.4553  -26.4942   20.2397 C   0  0  0  0  0  0  0  0  0  0  0  0
  -31.8913  -26.2444   19.8546 C   0  0  0  0  0  0  0  0  0  0  0  0
  -25.9166  -26.5732   21.5319 C   0  0  0  0  0  0  0  0  0  0  0  0
  -29.8271  -20.2789   21.6222 C   0  0  0  0  0  0  0  0  0  0  0  0
  -27.8032  -20.2535   22.9412 C   0  0  0  0  0  0  0  0  0  0  0  0
  -27.8736  -18.8628   23.0226 C   0  0  0  0  0  0  0  0  0  0  0  0
  -28.9208  -18.1801   22.4038 C   0  0  0  0  0  0  0  0  0  0  0  0
  -22.9813   -7.8696   21.2857 C   0  0  0  0  0  0  0  0  0  0  0  0
  -25.0016  -24.3357   21.2739 C   0  0  0  0  0  0  0  0  0  0  0  0
  -21.4377   -6.4932   22.4017 C   0  0  0  0  0  0  0  0  0  0  0  0
  -19.4371   -6.2102   24.3252 C   0  0  0  0  0  0  0  0  0  0  0  0
  -21.6120   -5.6061   23.4639 C   0  0  0  0  0  0  0  0  0  0  0  0
  -24.6941  -11.7057   20.7879 C   0  0  0  0  0  0  0  0  0  0  0  0
  -25.0115  -13.8687   20.5518 C   0  0  0  0  0  0  0  0  0  0  0  0
  -22.6101  -13.2129   20.7791 C   0  0  0  0  0  0  0  0  0  0  0  0
  -29.0161  -27.9875   21.3868 C   0  0  0  0  0  0  0  0  0  0  0  0
  -26.8325  -30.2070   22.2965 C   0  0  0  0  0  0  0  0  0  0  0  0
  -23.5925  -30.9287   23.0893 C   0  0  0  0  0  0  0  0  0  0  0  0
  -29.9927  -15.9551   21.9071 C   0  0  0  0  0  0  0  0  0  0  0  0
  -33.7120  -27.9636   19.3853 C   0  0  0  0  0  0  0  0  0  0  0  0
  -27.2118  -27.6566   19.6575 C   0  0  0  0  0  0  0  0  0  0  0  0
  -26.0978  -27.7953   22.3933 C   0  0  0  0  0  0  0  0  0  0  0  0
  -32.8891  -28.9351   20.2276 C   0  0  0  0  0  0  0  0  0  0  0  0
  -29.9391  -13.2851   19.5524 C   0  0  0  0  0  0  0  0  0  0  0  0
  -32.2612  -28.2125   21.4152 C   0  0  0  0  0  0  0  0  0  0  0  0
  -28.5140  -12.7374   19.6576 C   0  0  0  0  0  0  0  0  0  0  0  0
  -30.4772  -13.7308   20.9109 C   0  0  0  0  0  0  0  0  0  0  0  0
  -28.1930  -14.1247   21.7456 C   0  0  0  0  0  0  0  0  0  0  0  0
  -31.3028  -27.1109   20.9468 C   0  0  1  0  0  0  0  0  0  0  0  0
  -27.8049  -28.5762   20.7204 C   0  0  1  0  0  0  0  0  0  0  0  0
  -27.5843  -13.7232   20.3921 C   0  0  2  0  0  0  0  0  0  0  0  0
  -30.8723  -21.0360   20.8747 C   0  0  0  0  0  0  0  0  0  0  0  0
  -26.8235  -18.1080   23.7760 C   0  0  0  0  0  0  0  0  0  0  0  0
  -22.1202  -32.8214   23.8294 C   0  0  0  0  0  0  0  0  0  0  0  0
  -22.9681  -20.9834   23.0383 C   0  0  0  0  0  0  0  0  0  0  0  0
  -27.9600  -29.9759   25.1224 C   0  0  0  0  0  0  0  0  0  0  0  0
  -25.8979  -31.1198   25.9637 C   0  0  0  0  0  0  0  0  0  0  0  0
  -27.4317  -32.3105   24.3976 C   0  0  0  0  0  0  0  0  0  0  0  0
  -21.9201  -30.7327   20.6555 C   0  0  0  0  0  0  0  0  0  0  0  0
  -26.6886  -21.0124   23.5991 C   0  0  0  0  0  0  0  0  0  0  0  0
  -24.3523  -23.0917   23.1939 C   0  0  0  0  0  0  0  0  0  1  0  0
  -25.9836  -30.4310   23.5246 C   0  0  1  0  0  0  0  0  0  0  0  0
  -22.6713  -32.0489   22.6409 C   0  0  2  0  0  0  0  0  0  0  0  0
  -24.2637  -21.6075   23.5307 C   0  0  2  0  0  0  0  0  0  0  0  0
  -26.8164  -30.9354   24.7368 C   0  0  0  0  0  0  0  0  0  0  0  0
  -26.0190  -11.8402   20.6849 N   0  0  0  0  0  0  0  0  0  0  0  0
  -26.1807  -13.1667   20.5422 N   0  0  0  0  0  0  0  0  0  0  0  0
  -26.8503  -28.9031   21.7815 N   0  0  0  0  0  0  0  0  0  0  0  0
  -29.5464  -14.6664   21.5458 N   0  0  0  0  0  0  0  0  0  0  0  0
  -24.9925  -15.2121   20.4200 N   0  0  0  0  0  0  0  0  0  0  0  0
  -21.7252  -12.1388   20.9455 N   0  0  0  0  0  0  0  0  0  0  0  0
  -29.0109  -16.7677   22.4730 N   0  0  0  0  0  0  0  0  0  0  0  0
  -30.0456  -27.6842   20.5164 N   0  0  0  0  0  0  0  0  0  0  0  0
  -24.9105  -31.3328   23.1202 N   0  0  0  0  0  0  0  0  0  0  0  0
  -21.5240  -31.4973   21.8661 N   0  3  0  0  0  0  0  0  0  0  0  0
  -25.4000  -20.9033   22.8690 N   0  3  0  0  0  0  0  0  0  0  0  0
  -22.1515  -14.3761   20.6780 O   0  0  0  0  0  0  0  0  0  0  0  0
  -29.0172  -27.8221   22.6011 O   0  0  0  0  0  0  0  0  0  0  0  0
  -27.4512  -31.1557   21.8078 O   0  0  0  0  0  0  0  0  0  0  0  0
  -23.1834  -29.8085   23.3863 O   0  0  0  0  0  0  0  0  0  0  0  0
  -31.1531  -16.3210   21.7029 O   0  0  0  0  0  0  0  0  0  0  0  0
  -22.4302   -6.6354   21.4465 O   0  0  0  0  0  0  0  0  0  0  0  0
  -24.2986  -23.2869   21.7813 O   0  0  0  0  0  0  0  0  0  1  0  0
  -18.4770   -6.0755   25.2495 F   0  0  0  0  0  0  0  0  0  0  0  0
  -22.7388   -4.8880   23.5664 F   0  0  0  0  0  0  0  0  0  0  0  0
  1  2  1  0  0  0  0
  1  5  2  0  0  0  0
  2  6  2  0  0  0  0
  3  8  2  0  0  0  0
  3 17  1  0  0  0  0
  4  9  1  0  0  0  0
  4 17  2  0  0  0  0
  5 19  1  0  0  0  0
  6 21  1  0  0  0  0
  7 10  2  0  0  0  0
  7 20  1  0  0  0  0
  8 27  1  0  0  0  0
  9 27  2  0  0  0  0
 10 28  1  0  0  0  0
 11 12  2  0  0  0  0
 11 29  1  0  0  0  0
 12 30  1  0  0  0  0
 13 22  1  0  0  0  0
 13 28  2  0  0  0  0
 14 23  2  0  0  0  0
 14 24  1  0  0  0  0
 15 23  1  0  0  0  0
 15 26  2  0  0  0  0
 16 30  2  0  0  0  0
 16 31  1  0  0  0  0
 17 32  1  0  0  0  0
 18 32  1  0  0  0  0
 18 33  2  0  0  0  0
 18 34  1  0  0  0  0
 19 21  2  0  0  0  0
 19 39  1  0  0  0  0
 20 22  2  0  0  0  0
 20 40  1  0  0  0  0
 21 48  1  0  0  0  0
 22 41  1  0  0  0  0
 23 51  1  0  0  0  0
 24 25  2  0  0  0  0
 24 59  1  0  0  0  0
 25 26  1  0  0  0  0
 25 52  1  0  0  0  0
 26 71  1  0  0  0  0
 27 81  1  0  0  0  0
 28 82  1  0  0  0  0
 29 31  2  0  0  0  0
 29 81  1  0  0  0  0
 30 83  1  0  0  0  0
 31 84  1  0  0  0  0
 32 65  2  0  0  0  0
 33 66  1  0  0  0  0
 33 69  1  0  0  0  0
 34 70  1  0  0  0  0
 34 76  2  0  0  0  0
 35 49  1  0  0  0  0
 35 72  1  0  0  0  0
 35 77  2  0  0  0  0
 36 61  1  0  0  0  0
 36 67  1  0  0  0  0
 36 78  2  0  0  0  0
 37 62  1  0  0  0  0
 37 73  1  0  0  0  0
 37 79  2  0  0  0  0
 38 68  1  0  0  0  0
 38 71  1  0  0  0  0
 38 80  2  0  0  0  0
 39 42  1  0  0  0  0
 40 49  1  0  0  0  0
 41 67  1  0  0  0  0
 42 44  1  0  0  0  0
 43 45  1  0  0  0  0
 43 46  1  0  0  0  0
 44 48  1  0  0  0  0
 45 50  1  0  0  0  0
 46 68  1  0  0  0  0
 47 50  1  0  0  0  0
 47 68  1  0  0  0  0
 48 72  1  0  0  0  0
 49 67  1  0  0  0  0
 50 66  1  0  0  0  0
 53 62  1  0  0  0  0
 54 63  1  0  0  0  0
 55 64  1  0  0  0  0
 56 64  1  0  0  0  0
 57 64  1  0  0  0  0
 58 74  1  0  0  0  0
 59 75  1  0  0  0  0
 60 63  1  0  0  0  0
 60 82  1  0  0  0  0
 61 64  1  0  0  0  0
 61 73  1  0  0  0  0
 62 74  1  0  0  0  0
 63 75  1  0  0  0  0
 65 66  1  0  0  0  0
M  CHG  2  74   1  75   1
M  ISO  4  38 100  60 101  71 100  82 101
M  END
> <Batch ID>
0015

> <Smiles>
CNC(C)C(=O)NC(C(=O)N1Cc2cc([101O:1][101CH2:1]C(C)NCc3cc(C)cc([100NH:0][100C:0](=O)N4CCCC(n5nc(-c6ccc(Oc7ccc(F)cc7F)cc6)c(C(N)=O)c5N)C4)c3C)ccc2CC1C(=O)NC1CCCc2ccccc21)C(C)(C)C

> <Shape>
0.305

> <Color>
0.155

> <Negative vol penalty>
0.000

$$$$

  -OEChem-04052315553D

 84 92  0     1  0  0  0  0  0999 V2000
  -27.8732  -32.4134   24.2382 C   0  0  0  0  0  0  0  0  0  0  0  0
  -27.5923  -31.0620   24.4114 C   0  0  0  0  0  0  0  0  0  0  0  0
  -23.0041   -9.9105   19.9631 C   0  0  0  0  0  0  0  0  0  0  0  0
  -23.7436   -9.9222   22.2631 C   0  0  0  0  0  0  0  0  0  0  0  0
  -27.6465  -33.0186   23.0027 C   0  0  0  0  0  0  0  0  0  0  0  0
  -27.0834  -30.3151   23.3495 C   0  0  0  0  0  0  0  0  0  0  0  0
  -29.3607  -25.8174   22.8704 C   0  0  0  0  0  0  0  0  0  0  0  0
  -30.6732  -19.7951   21.4701 C   0  0  0  0  0  0  0  0  0  0  0  0
  -22.2387   -8.7719   20.2150 C   0  0  0  0  0  0  0  0  0  0  0  0
  -22.9782   -8.7836   22.5150 C   0  0  0  0  0  0  0  0  0  0  0  0
  -28.9744  -24.8107   23.7542 C   0  0  0  0  0  0  0  0  0  0  0  0
  -23.2181   -5.4530   21.9851 C   0  0  0  0  0  0  0  0  0  0  0  0
  -30.8497  -19.0481   20.3055 C   0  0  0  0  0  0  0  0  0  0  0  0
  -23.8099   -4.4230   22.7162 C   0  0  0  0  0  0  0  0  0  0  0  0
  -27.5602  -23.8619   22.0457 C   0  0  0  0  0  0  0  0  0  0  0  0
  -22.0966   -4.6381   24.4060 C   0  0  0  0  0  0  0  0  0  0  0  0
  -23.7566  -10.4856   20.9872 C   0  0  0  0  0  0  0  0  0  0  0  0
  -24.1419  -13.0037   20.8514 C   0  0  0  0  0  0  0  0  0  0  0  0
  -27.1437  -32.2765   21.9224 C   0  0  0  0  0  0  0  0  0  0  0  0
  -28.8405  -25.8602   21.5689 C   0  0  0  0  0  0  0  0  0  0  0  0
  -26.8484  -30.9112   22.0989 C   0  0  0  0  0  0  0  0  0  0  0  0
  -27.9436  -24.8687   21.1465 C   0  0  0  0  0  0  0  0  0  0  0  0
  -30.3032  -19.1609   22.6562 C   0  0  0  0  0  0  0  0  0  0  0  0
  -30.1096  -17.7797   22.6775 C   0  0  0  0  0  0  0  0  0  0  0  0
  -30.2861  -17.0327   21.5128 C   0  0  0  0  0  0  0  0  0  0  0  0
  -22.2258   -8.2084   21.4909 C   0  0  0  0  0  0  0  0  0  0  0  0
  -28.0718  -23.8344   23.3428 C   0  0  0  0  0  0  0  0  0  0  0  0
  -22.0656   -6.0756   22.4645 C   0  0  0  0  0  0  0  0  0  0  0  0
  -23.2491   -4.0155   23.9266 C   0  0  0  0  0  0  0  0  0  0  0  0
  -30.6561  -17.6669   20.3268 C   0  0  0  0  0  0  0  0  0  0  0  0
  -21.5048   -5.6682   23.6749 C   0  0  0  0  0  0  0  0  0  0  0  0
  -24.5478  -11.6614   20.7275 C   0  0  0  0  0  0  0  0  0  0  0  0
  -25.2497  -13.7320   20.4924 C   0  0  0  0  0  0  0  0  0  0  0  0
  -22.8766  -13.5439   21.2551 C   0  0  0  0  0  0  0  0  0  0  0  0
  -27.0779  -27.9324   19.9248 C   0  0  0  0  0  0  0  0  0  0  0  0
  -27.6695  -25.8938   17.4719 C   0  0  0  0  0  0  0  0  0  0  0  0
  -28.4836  -22.7379   16.4597 C   0  0  0  0  0  0  0  0  0  0  0  0
  -30.7309  -14.6871   20.7085 C   0  0  0  0  0  0  0  0  0  0  0  0
  -26.8705  -32.9853   20.6195 C   0  0  0  0  0  0  0  0  0  0  0  0
  -29.2879  -26.9374   20.6191 C   0  0  0  0  0  0  0  0  0  0  0  0
  -27.3717  -24.8582   19.7532 C   0  0  0  0  0  0  0  0  0  0  0  0
  -26.6821  -32.0370   19.4381 C   0  0  0  0  0  0  0  0  0  0  0  0
  -29.5971  -12.2744   18.3484 C   0  0  0  0  0  0  0  0  0  0  0  0
  -25.7418  -30.8962   19.8140 C   0  0  0  0  0  0  0  0  0  0  0  0
  -28.1490  -12.0103   18.7671 C   0  0  0  0  0  0  0  0  0  0  0  0
  -30.5052  -12.4970   19.5565 C   0  0  0  0  0  0  0  0  0  0  0  0
  -28.5986  -13.2638   20.9151 C   0  0  0  0  0  0  0  0  0  0  0  0
  -26.3188  -30.0618   20.9639 C   0  0  1  0  0  0  0  0  0  0  0  0
  -28.3002  -27.1791   19.4818 C   0  0  1  0  0  0  0  0  0  0  0  0
  -27.6334  -13.0979   19.7299 C   0  0  2  0  0  0  0  0  0  0  0  0
  -29.7142  -17.1038   23.9529 C   0  0  0  0  0  0  0  0  0  0  0  0
  -28.8561  -21.3673   14.3908 C   0  0  0  0  0  0  0  0  0  0  0  0
  -27.1064  -20.6370   26.0505 C   0  0  0  0  0  0  0  0  0  0  0  0
  -24.6549  -25.7617   17.0195 C   0  0  0  0  0  0  0  0  0  0  0  0
  -25.0237  -23.7132   15.6281 C   0  0  0  0  0  0  0  0  0  0  0  0
  -26.0191  -25.8905   14.9274 C   0  0  0  0  0  0  0  0  0  0  0  0
  -31.2886  -22.1611   17.2067 C   0  0  0  0  0  0  0  0  0  0  0  0
  -30.1210  -19.9882   23.8945 C   0  0  0  0  0  0  0  0  0  0  0  0
  -28.6408  -22.4520   25.1924 C   0  0  0  0  0  0  0  0  0  1  0  0
  -26.9904  -24.6660   16.9147 C   0  0  1  0  0  0  0  0  0  0  0  0
  -29.5067  -22.2339   15.4579 C   0  0  2  0  0  0  0  0  0  0  0  0
  -28.4878  -20.9688   25.5100 C   0  0  2  0  0  0  0  0  0  0  0  0
  -25.6811  -25.0089   16.1494 C   0  0  0  0  0  0  0  0  0  0  0  0
  -25.8146  -11.5412   20.3214 N   0  0  0  0  0  0  0  0  0  0  0  0
  -26.2141  -12.8173   20.1869 N   0  0  0  0  0  0  0  0  0  0  0  0
  -27.8349  -25.9359   18.8636 N   0  0  0  0  0  0  0  0  0  0  0  0
  -29.9559  -13.5437   20.4211 N   0  0  0  0  0  0  0  0  0  0  0  0
  -25.4831  -15.0591   20.4114 N   0  0  0  0  0  0  0  0  0  0  0  0
  -21.8466  -12.6544   21.5900 N   0  0  0  0  0  0  0  0  0  0  0  0
  -30.0919  -15.6291   21.5141 N   0  0  0  0  0  0  0  0  0  0  0  0
  -27.3489  -29.1709   20.4745 N   0  0  0  0  0  0  0  0  0  0  0  0
  -27.9913  -23.9768   16.1075 N   0  0  0  0  0  0  0  0  0  0  0  0
  -30.5518  -21.4253   16.1471 N   0  3  0  0  0  0  0  0  0  0  0  0
  -28.6945  -20.1920   24.2535 N   0  3  0  0  0  0  0  0  0  0  0  0
  -22.6606  -14.7787   21.3011 O   0  0  0  0  0  0  0  0  0  0  0  0
  -25.9709  -27.4280   19.7772 O   0  0  0  0  0  0  0  0  0  0  0  0
  -28.0460  -26.7794   16.7002 O   0  0  0  0  0  0  0  0  0  0  0  0
  -28.1514  -22.0951   17.4531 O   0  0  0  0  0  0  0  0  0  0  0  0
  -31.8668  -14.8334   20.2498 O   0  0  0  0  0  0  0  0  0  0  0  0
  -21.4789   -7.0975   21.7371 O   0  0  0  0  0  0  0  0  0  0  0  0
  -27.6925  -22.8511   24.2037 O   0  0  0  0  0  0  0  0  0  1  0  0
  -23.8166   -3.0254   24.6278 F   0  0  0  0  0  0  0  0  0  0  0  0
  -30.8265  -16.9603   19.2001 F   0  0  0  0  0  0  0  0  0  0  0  0
  -20.3970   -6.2617   24.1399 F   0  0  0  0  0  0  0  0  0  0  0  0
  1  2  1  0  0  0  0
  1  5  2  0  0  0  0
  2  6  2  0  0  0  0
  3  9  2  0  0  0  0
  3 17  1  0  0  0  0
  4 10  1  0  0  0  0
  4 17  2  0  0  0  0
  5 19  1  0  0  0  0
  6 21  1  0  0  0  0
  7 11  2  0  0  0  0
  7 20  1  0  0  0  0
  8 13  2  0  0  0  0
  8 23  1  0  0  0  0
  9 26  1  0  0  0  0
 10 26  2  0  0  0  0
 11 27  1  0  0  0  0
 12 14  2  0  0  0  0
 12 28  1  0  0  0  0
 13 30  1  0  0  0  0
 14 29  1  0  0  0  0
 15 22  1  0  0  0  0
 15 27  2  0  0  0  0
 16 29  2  0  0  0  0
 16 31  1  0  0  0  0
 17 32  1  0  0  0  0
 18 32  1  0  0  0  0
 18 33  2  0  0  0  0
 18 34  1  0  0  0  0
 19 21  2  0  0  0  0
 19 39  1  0  0  0  0
 20 22  2  0  0  0  0
 20 40  1  0  0  0  0
 21 48  1  0  0  0  0
 22 41  1  0  0  0  0
 23 24  2  0  0  0  0
 23 58  1  0  0  0  0
 24 25  1  0  0  0  0
 24 51  1  0  0  0  0
 25 30  2  0  0  0  0
 25 70  1  0  0  0  0
 26 80  1  0  0  0  0
 27 81  1  0  0  0  0
 28 31  2  0  0  0  0
 28 80  1  0  0  0  0
 29 82  1  0  0  0  0
 30 83  1  0  0  0  0
 31 84  1  0  0  0  0
 32 64  2  0  0  0  0
 33 65  1  0  0  0  0
 33 68  1  0  0  0  0
 34 69  1  0  0  0  0
 34 75  2  0  0  0  0
 35 49  1  0  0  0  0
 35 71  1  0  0  0  0
 35 76  2  0  0  0  0
 36 60  1  0  0  0  0
 36 66  1  0  0  0  0
 36 77  2  0  0  0  0
 37 61  1  0  0  0  0
 37 72  1  0  0  0  0
 37 78  2  0  0  0  0
 38 67  1  0  0  0  0
 38 70  1  0  0  0  0
 38 79  2  0  0  0  0
 39 42  1  0  0  0  0
 40 49  1  0  0  0  0
 41 66  1  0  0  0  0
 42 44  1  0  0  0  0
 43 45  1  0  0  0  0
 43 46  1  0  0  0  0
 44 48  1  0  0  0  0
 45 50  1  0  0  0  0
 46 67  1  0  0  0  0
 47 50  1  0  0  0  0
 47 67  1  0  0  0  0
 48 71  1  0  0  0  0
 49 66  1  0  0  0  0
 50 65  1  0  0  0  0
 52 61  1  0  0  0  0
 53 62  1  0  0  0  0
 54 63  1  0  0  0  0
 55 63  1  0  0  0  0
 56 63  1  0  0  0  0
 57 73  1  0  0  0  0
 58 74  1  0  0  0  0
 59 62  1  0  0  0  0
 59 81  1  0  0  0  0
 60 63  1  0  0  0  0
 60 72  1  0  0  0  0
 61 73  1  0  0  0  0
 62 74  1  0  0  0  0
 64 65  1  0  0  0  0
M  CHG  2  73   1  74   1
M  ISO  4  38 100  59 101  70 100  81 101
M  END
> <Batch ID>
0015

> <Smiles>
CNC(C)C(=O)NC(C(=O)N1Cc2cc([101O:1][101CH2:1]C(C)NCc3ccc(F)c([100NH:0][100C:0](=O)N4CCCC(n5nc(-c6ccc(Oc7ccc(F)cc7F)cc6)c(C(N)=O)c5N)C4)c3C)ccc2CC1C(=O)NC1CCCc2ccccc21)C(C)(C)C

> <Shape>
0.296

> <Color>
0.198

> <Negative vol penalty>
0.000

$$$$

  -OEChem-04052315553D

 81 89  0     1  0  0  0  0  0999 V2000
  -16.1984  -27.1718   21.1444 C   0  0  0  0  0  0  0  0  0  0  0  0
  -17.4526  -27.2659   20.5499 C   0  0  0  0  0  0  0  0  0  0  0  0
  -26.9525  -15.0740   21.6385 C   0  0  0  0  0  0  0  0  0  0  0  0
  -26.5246  -15.0541   19.2608 C   0  0  0  0  0  0  0  0  0  0  0  0
  -15.9169  -27.9068   22.2952 C   0  0  0  0  0  0  0  0  0  0  0  0
  -18.4257  -28.0960   21.1052 C   0  0  0  0  0  0  0  0  0  0  0  0
  -22.9716  -25.8764   21.3356 C   0  0  0  0  0  0  0  0  0  0  0  0
  -26.6164  -13.7222   21.7103 C   0  0  0  0  0  0  0  0  0  0  0  0
  -26.1885  -13.7022   19.3326 C   0  0  0  0  0  0  0  0  0  0  0  0
  -23.7099  -25.8131   20.1546 C   0  0  0  0  0  0  0  0  0  0  0  0
  -25.5654  -10.1561   18.8277 C   0  0  0  0  0  0  0  0  0  0  0  0
  -26.0864   -9.3049   17.8532 C   0  0  0  0  0  0  0  0  0  0  0  0
  -25.0114  -27.7127   20.8735 C   0  0  0  0  0  0  0  0  0  0  0  0
  -27.4750  -24.2843   20.4579 C   0  0  0  0  0  0  0  0  0  0  0  0
  -28.3275   -9.8873   18.5427 C   0  0  0  0  0  0  0  0  0  0  0  0
  -29.5821  -24.1077   19.3690 C   0  0  0  0  0  0  0  0  0  0  0  0
  -29.4431  -23.6027   21.6060 C   0  0  0  0  0  0  0  0  0  0  0  0
  -26.9066  -15.7400   20.4137 C   0  0  0  0  0  0  0  0  0  0  0  0
  -28.5285  -17.6847   20.1046 C   0  0  0  0  0  0  0  0  0  0  0  0
  -16.8902  -28.7390   22.8704 C   0  0  0  0  0  0  0  0  0  0  0  0
  -23.2409  -26.8668   22.2912 C   0  0  0  0  0  0  0  0  0  0  0  0
  -18.1565  -28.8439   22.2640 C   0  0  0  0  0  0  0  0  0  0  0  0
  -24.2768  -27.7848   22.0669 C   0  0  0  0  0  0  0  0  0  0  0  0
  -28.2306  -24.4047   19.2969 C   0  0  0  0  0  0  0  0  0  0  0  0
  -28.0852  -23.8762   21.6387 C   0  0  0  0  0  0  0  0  0  0  0  0
  -26.2344  -13.0363   20.5574 C   0  0  0  0  0  0  0  0  0  0  0  0
  -24.7280  -26.7331   19.9221 C   0  0  0  0  0  0  0  0  0  0  0  0
  -26.4254  -10.8730   19.6596 C   0  0  0  0  0  0  0  0  0  0  0  0
  -27.4674   -9.1705   17.7108 C   0  0  0  0  0  0  0  0  0  0  0  0
  -27.8065  -10.7386   19.5172 C   0  0  0  0  0  0  0  0  0  0  0  0
  -27.2531  -17.1366   20.3389 C   0  0  0  0  0  0  0  0  0  0  0  0
  -28.3280  -19.0432   20.1285 C   0  0  0  0  0  0  0  0  0  0  0  0
  -29.7822  -17.0247   19.8850 C   0  0  0  0  0  0  0  0  0  0  0  0
  -21.5929  -29.2747   23.5519 C   0  0  0  0  0  0  0  0  0  0  0  0
  -24.2020  -29.5491   25.4596 C   0  0  0  0  0  0  0  0  0  0  0  0
  -27.5362  -28.9757   25.9083 C   0  0  0  0  0  0  0  0  0  0  0  0
  -25.9631  -23.4021   22.8890 C   0  0  0  0  0  0  0  0  0  0  0  0
  -16.5239  -29.5505   24.0878 C   0  0  0  0  0  0  0  0  0  0  0  0
  -22.4532  -26.9050   23.5719 C   0  0  0  0  0  0  0  0  0  0  0  0
  -24.6191  -28.8548   23.0701 C   0  0  0  0  0  0  0  0  0  0  0  0
  -17.7324  -30.1192   24.8269 C   0  0  0  0  0  0  0  0  0  0  0  0
  -24.0903  -21.7834   20.1385 C   0  0  0  0  0  0  0  0  0  0  0  0
  -18.7101  -30.7536   23.8427 C   0  0  0  0  0  0  0  0  0  0  0  0
  -24.8020  -20.4401   19.9880 C   0  0  0  0  0  0  0  0  0  0  0  0
  -24.1781  -22.3139   21.5662 C   0  0  0  0  0  0  0  0  0  0  0  0
  -26.2920  -21.0722   21.9275 C   0  0  0  0  0  0  0  0  0  0  0  0
  -19.2464  -29.7145   22.8507 C   0  0  1  0  0  0  0  0  0  0  0  0
  -22.4734  -28.2738   24.2452 C   0  0  1  0  0  0  0  0  0  0  0  0
  -26.2526  -20.5358   20.4888 C   0  0  1  0  0  0  0  0  0  0  0  0
  -29.7458  -28.8945   27.0949 C   0  0  0  0  0  0  0  0  0  0  0  0
  -24.3443  -32.4823   24.6311 C   0  0  0  0  0  0  0  0  0  0  0  0
  -26.6882  -32.5443   25.5087 C   0  0  0  0  0  0  0  0  0  0  0  0
  -24.7917  -32.0601   27.0551 C   0  0  0  0  0  0  0  0  0  0  0  0
  -27.9345  -24.2307   24.0968 C   0  0  0  0  0  0  0  0  0  0  0  0
  -26.9850  -26.2784   26.9944 C   0  0  0  0  0  0  0  0  0  0  0  0
  -27.5985  -24.8446   18.0006 C   0  0  0  0  0  0  0  0  0  0  0  0
  -27.6169  -26.3601   17.7895 C   0  0  0  0  0  0  0  0  0  0  0  0
  -26.8026  -27.1242   18.8271 C   0  0  0  0  0  0  0  0  0  1  0  0
  -25.5074  -30.3035   25.3835 C   0  0  1  0  0  0  0  0  0  0  0  0
  -28.3098  -28.3942   27.0778 C   0  0  2  0  0  0  0  0  0  0  0  0
  -25.3254  -31.8287   25.6246 C   0  0  0  0  0  0  0  0  0  0  0  0
  -30.2100  -23.7084   20.4977 N   0  0  0  0  0  0  0  0  0  0  0  0
  -26.3121  -18.0707   20.4999 N   0  0  0  0  0  0  0  0  0  0  0  0
  -26.9967  -19.2195   20.3667 N   0  0  0  0  0  0  0  0  0  0  0  0
  -23.8161  -28.8549   24.3042 N   0  0  0  0  0  0  0  0  0  0  0  0
  -25.5590  -22.3428   22.0507 N   0  0  0  0  0  0  0  0  0  0  0  0
  -29.1625  -20.0923   19.9688 N   0  0  0  0  0  0  0  0  0  0  0  0
  -29.8100  -15.6234   19.8925 N   0  0  0  0  0  0  0  0  0  0  0  0
  -20.2655  -28.8984   23.4752 N   0  0  0  0  0  0  0  0  0  0  0  0
  -26.4104  -29.6530   26.3268 N   0  0  0  0  0  0  0  0  0  0  0  0
  -27.3289  -23.7426   22.8598 N   0  0  0  0  0  0  0  0  0  0  0  0
  -28.3314  -26.9063   26.9961 N   0  3  0  0  0  0  0  0  0  0  0  0
  -30.8493  -17.6589   19.7043 O   0  0  0  0  0  0  0  0  0  0  0  0
  -22.0813  -30.3122   23.1199 O   0  0  0  0  0  0  0  0  0  0  0  0
  -23.5523  -29.5690   26.5079 O   0  0  0  0  0  0  0  0  0  0  0  0
  -27.8967  -28.8455   24.7405 O   0  0  0  0  0  0  0  0  0  0  0  0
  -25.1729  -23.9698   23.6532 O   0  0  0  0  0  0  0  0  0  0  0  0
  -25.9066  -11.7171   20.6271 O   0  0  0  0  0  0  0  0  0  0  0  0
  -25.4497  -26.6740   18.7699 O   0  0  0  0  0  0  0  0  0  1  0  0
  -27.9676   -8.3518   16.7760 F   0  0  0  0  0  0  0  0  0  0  0  0
  -28.6377  -11.4238   20.3143 F   0  0  0  0  0  0  0  0  0  0  0  0
  1  2  1  0  0  0  0
  1  5  2  0  0  0  0
  2  6  2  0  0  0  0
  3  8  2  0  0  0  0
  3 18  1  0  0  0  0
  4  9  1  0  0  0  0
  4 18  2  0  0  0  0
  5 20  1  0  0  0  0
  6 22  1  0  0  0  0
  7 10  2  0  0  0  0
  7 21  1  0  0  0  0
  8 26  1  0  0  0  0
  9 26  2  0  0  0  0
 10 27  1  0  0  0  0
 11 12  2  0  0  0  0
 11 28  1  0  0  0  0
 12 29  1  0  0  0  0
 13 23  1  0  0  0  0
 13 27  2  0  0  0  0
 14 24  2  0  0  0  0
 14 25  1  0  0  0  0
 15 29  2  0  0  0  0
 15 30  1  0  0  0  0
 16 24  1  0  0  0  0
 16 62  2  0  0  0  0
 17 25  2  0  0  0  0
 17 62  1  0  0  0  0
 18 31  1  0  0  0  0
 19 31  1  0  0  0  0
 19 32  2  0  0  0  0
 19 33  1  0  0  0  0
 20 22  2  0  0  0  0
 20 38  1  0  0  0  0
 21 23  2  0  0  0  0
 21 39  1  0  0  0  0
 22 47  1  0  0  0  0
 23 40  1  0  0  0  0
 24 56  1  0  0  0  0
 25 71  1  0  0  0  0
 26 78  1  0  0  0  0
 27 79  1  0  0  0  0
 28 30  2  0  0  0  0
 28 78  1  0  0  0  0
 29 80  1  0  0  0  0
 30 81  1  0  0  0  0
 31 63  2  0  0  0  0
 32 64  1  0  0  0  0
 32 67  1  0  0  0  0
 33 68  1  0  0  0  0
 33 73  2  0  0  0  0
 34 48  1  0  0  0  0
 34 69  1  0  0  0  0
 34 74  2  0  0  0  0
 35 59  1  0  0  0  0
 35 65  1  0  0  0  0
 35 75  2  0  0  0  0
 36 60  1  0  0  0  0
 36 70  1  0  0  0  0
 36 76  2  0  0  0  0
 37 66  1  0  0  0  0
 37 71  1  0  0  0  0
 37 77  2  0  0  0  0
 38 41  1  0  0  0  0
 39 48  1  0  0  0  0
 40 65  1  0  0  0  0
 41 43  1  0  0  0  0
 42 44  1  0  0  0  0
 42 45  1  0  0  0  0
 43 47  1  0  0  0  0
 44 49  1  0  0  0  0
 45 66  1  0  0  0  0
 46 49  1  0  0  0  0
 46 66  1  0  0  0  0
 47 69  1  0  0  0  0
 48 65  1  0  0  0  0
 49 64  1  0  0  0  0
 50 60  1  0  0  0  0
 51 61  1  0  0  0  0
 52 61  1  0  0  0  0
 53 61  1  0  0  0  0
 54 71  1  0  0  0  0
 55 72  1  0  0  0  0
 56 57  1  0  0  0  0
 57 58  1  0  0  0  0
 58 79  1  0  0  0  0
 59 61  1  0  0  0  0
 59 70  1  0  0  0  0
 60 72  1  0  0  0  0
 63 64  1  0  0  0  0
M  CHG  1  72   1
M  ISO  4  37 100  58 101  71 100  79 101
M  END
> <Batch ID>
0015

> <Smiles>
CNC(C)C(=O)NC(C(=O)N1Cc2cc([101O:1][101CH2:1]CCc3cncc([100N:0](C)[100C:0](=O)N4CCCC(n5nc(-c6ccc(Oc7ccc(F)cc7F)cc6)c(C(N)=O)c5N)C4)c3)ccc2CC1C(=O)NC1CCCc2ccccc21)C(C)(C)C

> <Shape>
0.226

> <Color>
0.075

> <Negative vol penalty>
0.000

$$$$

  -OEChem-04052315553D

 85 93  0     1  0  0  0  0  0999 V2000
  -34.2205  -23.0833   16.3069 C   0  0  0  0  0  0  0  0  0  0  0  0
  -33.2595  -22.8112   17.2754 C   0  0  0  0  0  0  0  0  0  0  0  0
  -23.0783   -9.8642   19.9422 C   0  0  0  0  0  0  0  0  0  0  0  0
  -23.8353   -9.8761   22.2366 C   0  0  0  0  0  0  0  0  0  0  0  0
  -35.0898  -24.1607   16.4724 C   0  0  0  0  0  0  0  0  0  0  0  0
  -33.1681  -23.6158   18.4106 C   0  0  0  0  0  0  0  0  0  0  0  0
  -28.3871  -24.8438   19.5415 C   0  0  0  0  0  0  0  0  0  0  0  0
  -22.3352   -8.7108   20.1934 C   0  0  0  0  0  0  0  0  0  0  0  0
  -23.0921   -8.7228   22.4877 C   0  0  0  0  0  0  0  0  0  0  0  0
  -27.6134  -23.8729   20.1761 C   0  0  0  0  0  0  0  0  0  0  0  0
  -19.8640   -7.9231   23.0877 C   0  0  0  0  0  0  0  0  0  0  0  0
  -19.1056   -7.8847   24.2577 C   0  0  0  0  0  0  0  0  0  0  0  0
  -28.0029  -24.9567   22.2958 C   0  0  0  0  0  0  0  0  0  0  0  0
  -31.1504  -17.6823   20.5862 C   0  0  0  0  0  0  0  0  0  0  0  0
  -20.3478   -5.9497   24.9993 C   0  0  0  0  0  0  0  0  0  0  0  0
  -23.8284  -10.4468   20.9638 C   0  0  0  0  0  0  0  0  0  0  0  0
  -24.1681  -12.9721   20.8395 C   0  0  0  0  0  0  0  0  0  0  0  0
  -35.0027  -24.9846   17.6056 C   0  0  0  0  0  0  0  0  0  0  0  0
  -28.9845  -25.8739   20.2820 C   0  0  0  0  0  0  0  0  0  0  0  0
  -34.0380  -24.7044   18.5921 C   0  0  0  0  0  0  0  0  0  0  0  0
  -28.7816  -25.9408   21.6679 C   0  0  0  0  0  0  0  0  0  0  0  0
  -31.3326  -19.0651   20.5746 C   0  0  0  0  0  0  0  0  0  0  0  0
  -29.5220  -17.9116   22.3562 C   0  0  0  0  0  0  0  0  0  0  0  0
  -29.7042  -19.2945   22.3446 C   0  0  0  0  0  0  0  0  0  0  0  0
  -30.2451  -17.1055   21.4770 C   0  0  0  0  0  0  0  0  0  0  0  0
  -22.3421   -8.1401   21.4661 C   0  0  0  0  0  0  0  0  0  0  0  0
  -27.4236  -23.9276   21.5538 C   0  0  0  0  0  0  0  0  0  0  0  0
  -20.8643   -6.9748   22.8734 C   0  0  0  0  0  0  0  0  0  0  0  0
  -19.3475   -6.8980   25.2135 C   0  0  0  0  0  0  0  0  0  0  0  0
  -21.1062   -5.9882   23.8292 C   0  0  0  0  0  0  0  0  0  0  0  0
  -30.6096  -19.8712   21.4538 C   0  0  0  0  0  0  0  0  0  0  0  0
  -24.5968  -11.6379   20.7048 C   0  0  0  0  0  0  0  0  0  0  0  0
  -25.2601  -13.7219   20.4762 C   0  0  0  0  0  0  0  0  0  0  0  0
  -22.8967  -13.4875   21.2559 C   0  0  0  0  0  0  0  0  0  0  0  0
  -31.9760  -26.7952   20.8348 C   0  0  0  0  0  0  0  0  0  0  0  0
  -30.5221  -29.2825   22.3253 C   0  0  0  0  0  0  0  0  0  0  0  0
  -27.7482  -30.4956   23.9003 C   0  0  0  0  0  0  0  0  0  0  0  0
  -30.7251  -14.7728   20.6559 C   0  0  0  0  0  0  0  0  0  0  0  0
  -35.9952  -26.1092   17.7635 C   0  0  0  0  0  0  0  0  0  0  0  0
  -29.7941  -26.9287   19.5789 C   0  0  0  0  0  0  0  0  0  0  0  0
  -29.3844  -27.0378   22.5055 C   0  0  0  0  0  0  0  0  0  0  0  0
  -35.5875  -27.1384   18.8146 C   0  0  0  0  0  0  0  0  0  0  0  0
  -29.6158  -12.3536   18.2907 C   0  0  0  0  0  0  0  0  0  0  0  0
  -35.1231  -26.4431   20.0905 C   0  0  0  0  0  0  0  0  0  0  0  0
  -28.1759  -12.0615   18.7190 C   0  0  0  0  0  0  0  0  0  0  0  0
  -30.5292  -12.5854   19.4930 C   0  0  0  0  0  0  0  0  0  0  0  0
  -28.6199  -13.3107   20.8706 C   0  0  0  0  0  0  0  0  0  0  0  0
  -33.8913  -25.5691   19.8254 C   0  0  1  0  0  0  0  0  0  0  0  0
  -30.7789  -27.6400   20.5017 C   0  0  1  0  0  0  0  0  0  0  0  0
  -27.6487  -13.1344   19.6919 C   0  0  2  0  0  0  0  0  0  0  0  0
  -32.3016  -19.6787   19.6212 C   0  0  0  0  0  0  0  0  0  0  0  0
  -28.5512  -17.2954   23.3144 C   0  0  0  0  0  0  0  0  0  0  0  0
  -26.8722  -32.5510   25.0430 C   0  0  0  0  0  0  0  0  0  0  0  0
  -25.2497  -20.8527   23.6287 C   0  0  0  0  0  0  0  0  0  0  0  0
  -32.2024  -28.6274   24.7864 C   0  0  0  0  0  0  0  0  0  0  0  0
  -30.6444  -30.0437   26.1411 C   0  0  0  0  0  0  0  0  0  0  0  0
  -31.9758  -31.0696   24.2979 C   0  0  0  0  0  0  0  0  0  0  0  0
  -25.5563  -30.7956   21.9344 C   0  0  0  0  0  0  0  0  0  0  0  0
  -28.9354  -20.1814   23.2792 C   0  0  0  0  0  0  0  0  0  0  0  0
  -27.0075  -22.6650   23.5257 C   0  0  0  0  0  0  0  0  0  1  0  0
  -30.0359  -29.5514   23.7290 C   0  0  1  0  0  0  0  0  0  0  0  0
  -26.9789  -31.7931   23.7288 C   0  0  2  0  0  0  0  0  0  0  0  0
  -26.7181  -21.1970   23.8182 C   0  0  2  0  0  0  0  0  0  0  0  0
  -31.2047  -29.8011   24.7234 C   0  0  0  0  0  0  0  0  0  0  0  0
  -25.8622  -11.5425   20.2883 N   0  0  0  0  0  0  0  0  0  0  0  0
  -26.2381  -12.8261   20.1581 N   0  0  0  0  0  0  0  0  0  0  0  0
  -30.1731  -28.0421   21.7727 N   0  0  0  0  0  0  0  0  0  0  0  0
  -29.9682  -13.6174   20.3678 N   0  0  0  0  0  0  0  0  0  0  0  0
  -25.4693  -15.0534   20.4010 N   0  0  0  0  0  0  0  0  0  0  0  0
  -21.8851  -12.5780   21.5936 N   0  0  0  0  0  0  0  0  0  0  0  0
  -30.0758  -15.6987   21.4718 N   0  0  0  0  0  0  0  0  0  0  0  0
  -32.7015  -26.3875   19.7317 N   0  0  0  0  0  0  0  0  0  0  0  0
  -29.0902  -30.6578   23.6285 N   0  0  0  0  0  0  0  0  0  0  0  0
  -25.6012  -31.5167   23.2325 N   0  3  0  0  0  0  0  0  0  0  0  0
  -27.5172  -20.3603   22.8767 N   0  3  0  0  0  0  0  0  0  0  0  0
  -22.6592  -14.7180   21.3107 O   0  0  0  0  0  0  0  0  0  0  0  0
  -32.2240  -26.5339   22.0061 O   0  0  0  0  0  0  0  0  0  0  0  0
  -31.1810  -30.1443   21.7381 O   0  0  0  0  0  0  0  0  0  0  0  0
  -27.2128  -29.4443   24.2448 O   0  0  0  0  0  0  0  0  0  0  0  0
  -31.8546  -14.9417   20.1894 O   0  0  0  0  0  0  0  0  0  0  0  0
  -21.6168   -7.0148   21.7116 O   0  0  0  0  0  0  0  0  0  0  0  0
  -26.6695  -22.9809   22.1758 O   0  0  0  0  0  0  0  0  0  1  0  0
  -18.6202   -6.8621   26.3378 F   0  0  0  0  0  0  0  0  0  0  0  0
  -22.0666   -5.0752   23.6295 F   0  0  0  0  0  0  0  0  0  0  0  0
  -30.7839  -21.2012   21.4411 F   0  0  0  0  0  0  0  0  0  0  0  0
  1  2  1  0  0  0  0
  1  5  2  0  0  0  0
  2  6  2  0  0  0  0
  3  8  2  0  0  0  0
  3 16  1  0  0  0  0
  4  9  1  0  0  0  0
  4 16  2  0  0  0  0
  5 18  1  0  0  0  0
  6 20  1  0  0  0  0
  7 10  2  0  0  0  0
  7 19  1  0  0  0  0
  8 26  1  0  0  0  0
  9 26  2  0  0  0  0
 10 27  1  0  0  0  0
 11 12  2  0  0  0  0
 11 28  1  0  0  0  0
 12 29  1  0  0  0  0
 13 21  1  0  0  0  0
 13 27  2  0  0  0  0
 14 22  2  0  0  0  0
 14 25  1  0  0  0  0
 15 29  2  0  0  0  0
 15 30  1  0  0  0  0
 16 32  1  0  0  0  0
 17 32  1  0  0  0  0
 17 33  2  0  0  0  0
 17 34  1  0  0  0  0
 18 20  2  0  0  0  0
 18 39  1  0  0  0  0
 19 21  2  0  0  0  0
 19 40  1  0  0  0  0
 20 48  1  0  0  0  0
 21 41  1  0  0  0  0
 22 31  1  0  0  0  0
 22 51  1  0  0  0  0
 23 24  1  0  0  0  0
 23 25  2  0  0  0  0
 23 52  1  0  0  0  0
 24 31  2  0  0  0  0
 24 59  1  0  0  0  0
 25 71  1  0  0  0  0
 26 81  1  0  0  0  0
 27 82  1  0  0  0  0
 28 30  2  0  0  0  0
 28 81  1  0  0  0  0
 29 83  1  0  0  0  0
 30 84  1  0  0  0  0
 31 85  1  0  0  0  0
 32 65  2  0  0  0  0
 33 66  1  0  0  0  0
 33 69  1  0  0  0  0
 34 70  1  0  0  0  0
 34 76  2  0  0  0  0
 35 49  1  0  0  0  0
 35 72  1  0  0  0  0
 35 77  2  0  0  0  0
 36 61  1  0  0  0  0
 36 67  1  0  0  0  0
 36 78  2  0  0  0  0
 37 62  1  0  0  0  0
 37 73  1  0  0  0  0
 37 79  2  0  0  0  0
 38 68  1  0  0  0  0
 38 71  1  0  0  0  0
 38 80  2  0  0  0  0
 39 42  1  0  0  0  0
 40 49  1  0  0  0  0
 41 67  1  0  0  0  0
 42 44  1  0  0  0  0
 43 45  1  0  0  0  0
 43 46  1  0  0  0  0
 44 48  1  0  0  0  0
 45 50  1  0  0  0  0
 46 68  1  0  0  0  0
 47 50  1  0  0  0  0
 47 68  1  0  0  0  0
 48 72  1  0  0  0  0
 49 67  1  0  0  0  0
 50 66  1  0  0  0  0
 53 62  1  0  0  0  0
 54 63  1  0  0  0  0
 55 64  1  0  0  0  0
 56 64  1  0  0  0  0
 57 64  1  0  0  0  0
 58 74  1  0  0  0  0
 59 75  1  0  0  0  0
 60 63  1  0  0  0  0
 60 82  1  0  0  0  0
 61 64  1  0  0  0  0
 61 73  1  0  0  0  0
 62 74  1  0  0  0  0
 63 75  1  0  0  0  0
 65 66  1  0  0  0  0
M  CHG  2  74   1  75   1
M  ISO  4  38 100  60 101  71 100  82 101
M  END
> <Batch ID>
0015

> <Smiles>
CNC(C)C(=O)NC(C(=O)N1Cc2cc([101O:1][101CH2:1]C(C)NCc3c(C)c([100NH:0][100C:0](=O)N4CCCC(n5nc(-c6ccc(Oc7ccc(F)cc7F)cc6)c(C(N)=O)c5N)C4)cc(C)c3F)ccc2CC1C(=O)NC1CCCc2ccccc21)C(C)(C)C

> <Shape>
0.272

> <Color>
0.192

> <Negative vol penalty>
0.000

$$$$

  -OEChem-04052315553D

 84 92  0     1  0  0  0  0  0999 V2000
  -29.2793  -29.9554   27.0174 C   0  0  0  0  0  0  0  0  0  0  0  0
  -28.9653  -29.1438   25.9320 C   0  0  0  0  0  0  0  0  0  0  0  0
  -26.6926  -10.2281   20.9024 C   0  0  0  0  0  0  0  0  0  0  0  0
  -25.7504  -11.4679   19.0552 C   0  0  0  0  0  0  0  0  0  0  0  0
  -28.2740  -30.6743   27.6627 C   0  0  0  0  0  0  0  0  0  0  0  0
  -27.6455  -29.0499   25.4918 C   0  0  0  0  0  0  0  0  0  0  0  0
  -27.2529  -29.3442   20.4515 C   0  0  0  0  0  0  0  0  0  0  0  0
  -25.4655   -9.5965   21.1044 C   0  0  0  0  0  0  0  0  0  0  0  0
  -24.5233  -10.8362   19.2572 C   0  0  0  0  0  0  0  0  0  0  0  0
  -27.5705  -28.2004   19.7203 C   0  0  0  0  0  0  0  0  0  0  0  0
  -23.7089   -7.0636   19.7145 C   0  0  0  0  0  0  0  0  0  0  0  0
  -23.7165   -5.6849   19.9255 C   0  0  0  0  0  0  0  0  0  0  0  0
  -25.2220  -27.6941   19.5035 C   0  0  0  0  0  0  0  0  0  0  0  0
  -28.5449  -20.5043   19.5283 C   0  0  0  0  0  0  0  0  0  0  0  0
  -27.1372  -20.3403   17.1253 C   0  0  0  0  0  0  0  0  0  0  0  0
  -22.6877   -6.0101   22.0873 C   0  0  0  0  0  0  0  0  0  0  0  0
  -26.8351  -11.1638   19.8778 C   0  0  0  0  0  0  0  0  0  0  0  0
  -29.1555  -11.3843   18.8410 C   0  0  0  0  0  0  0  0  0  0  0  0
  -26.9427  -30.5967   27.2242 C   0  0  0  0  0  0  0  0  0  0  0  0
  -25.9156  -29.6662   20.7240 C   0  0  0  0  0  0  0  0  0  0  0  0
  -26.6212  -29.7675   26.1327 C   0  0  0  0  0  0  0  0  0  0  0  0
  -24.8899  -28.8439   20.2362 C   0  0  0  0  0  0  0  0  0  0  0  0
  -27.8670  -21.6211   19.0395 C   0  0  0  0  0  0  0  0  0  0  0  0
  -27.1631  -21.5391   17.8380 C   0  0  0  0  0  0  0  0  0  0  0  0
  -27.8151  -19.2236   17.6141 C   0  0  0  0  0  0  0  0  0  0  0  0
  -28.5190  -19.3056   18.8155 C   0  0  0  0  0  0  0  0  0  0  0  0
  -24.3808   -9.9005   20.2818 C   0  0  0  0  0  0  0  0  0  0  0  0
  -26.5551  -27.3736   19.2486 C   0  0  0  0  0  0  0  0  0  0  0  0
  -23.1908   -7.9157   20.6899 C   0  0  0  0  0  0  0  0  0  0  0  0
  -23.2059   -5.1581   21.1119 C   0  0  0  0  0  0  0  0  0  0  0  0
  -22.6802   -7.3889   21.8762 C   0  0  0  0  0  0  0  0  0  0  0  0
  -28.1023  -11.8170   19.6689 C   0  0  0  0  0  0  0  0  0  0  0  0
  -30.1259  -12.3449   18.9896 C   0  0  0  0  0  0  0  0  0  0  0  0
  -29.2483  -10.2184   18.0118 C   0  0  0  0  0  0  0  0  0  0  0  0
  -24.1808  -29.9933   23.3674 C   0  0  0  0  0  0  0  0  0  0  0  0
  -21.9055  -30.9945   21.2835 C   0  0  0  0  0  0  0  0  0  0  0  0
  -20.6834  -30.9717   18.0971 C   0  0  0  0  0  0  0  0  0  0  0  0
  -29.9536  -18.1201   20.5134 C   0  0  0  0  0  0  0  0  0  0  0  0
  -25.8830  -31.3555   27.9831 C   0  0  0  0  0  0  0  0  0  0  0  0
  -25.5885  -30.9178   21.4913 C   0  0  0  0  0  0  0  0  0  0  0  0
  -23.4375  -29.1561   20.4842 C   0  0  0  0  0  0  0  0  0  0  0  0
  -24.5679  -31.4926   27.2202 C   0  0  0  0  0  0  0  0  0  0  0  0
  -31.7799  -15.5394   22.1509 C   0  0  0  0  0  0  0  0  0  0  0  0
  -24.1588  -30.1529   26.6164 C   0  0  0  0  0  0  0  0  0  0  0  0
  -31.1440  -14.2525   21.6203 C   0  0  0  0  0  0  0  0  0  0  0  0
  -30.7436  -16.6440   22.3497 C   0  0  0  0  0  0  0  0  0  0  0  0
  -29.2725  -15.6434   20.6456 C   0  0  0  0  0  0  0  0  0  0  0  0
  -25.2051  -29.6588   25.6101 C   0  0  1  0  0  0  0  0  0  0  0  0
  -24.2130  -30.8729   22.1497 C   0  0  1  0  0  0  0  0  0  0  0  0
  -30.2871  -14.5222   20.3678 C   0  0  2  0  0  0  0  0  0  0  0  0
  -27.9104  -22.8944   19.8189 C   0  0  0  0  0  0  0  0  0  0  0  0
  -18.7875  -31.8514   16.7081 C   0  0  0  0  0  0  0  0  0  0  0  0
  -27.6414  -25.9205   15.7180 C   0  0  0  0  0  0  0  0  0  0  0  0
  -20.0443  -28.9098   22.5080 C   0  0  0  0  0  0  0  0  0  0  0  0
  -18.5550  -29.1688   20.5122 C   0  0  0  0  0  0  0  0  0  0  0  0
  -18.9659  -31.1129   22.0203 C   0  0  0  0  0  0  0  0  0  0  0  0
  -22.5219  -32.4744   16.3306 C   0  0  0  0  0  0  0  0  0  0  0  0
  -26.4260  -22.7269   17.2932 C   0  0  0  0  0  0  0  0  0  0  0  0
  -25.9136  -25.8273   17.5595 C   0  0  0  0  0  0  0  0  0  1  0  0
  -20.8140  -30.3208   20.4875 C   0  0  1  0  0  0  0  0  0  0  0  0
  -20.2085  -32.0944   17.1924 C   0  0  2  0  0  0  0  0  0  0  0  0
  -26.6101  -25.0661   16.4372 C   0  0  2  0  0  0  0  0  0  0  0  0
  -19.6221  -29.8709   21.3788 C   0  0  0  0  0  0  0  0  0  0  0  0
  -28.3777  -12.9632   20.2970 N   0  0  0  0  0  0  0  0  0  0  0  0
  -29.6150  -13.2588   19.8637 N   0  0  0  0  0  0  0  0  0  0  0  0
  -23.1689  -30.3877   21.2448 N   0  0  0  0  0  0  0  0  0  0  0  0
  -29.9728  -16.8469   21.1211 N   0  0  0  0  0  0  0  0  0  0  0  0
  -27.7774  -18.0198   16.8753 N   0  0  0  0  0  0  0  0  0  0  0  0
  -31.3579  -12.4885   18.4566 N   0  0  0  0  0  0  0  0  0  0  0  0
  -28.1600   -9.3359   17.9755 N   0  0  0  0  0  0  0  0  0  0  0  0
  -29.2143  -18.1845   19.3328 N   0  0  0  0  0  0  0  0  0  0  0  0
  -25.0727  -30.3665   24.3547 N   0  0  0  0  0  0  0  0  0  0  0  0
  -20.4480  -31.2528   19.4264 N   0  0  0  0  0  0  0  0  0  0  0  0
  -21.0973  -32.2112   16.0018 N   0  3  0  0  0  0  0  0  0  0  0  0
  -27.3112  -23.8893   17.0274 N   0  3  0  0  0  0  0  0  0  0  0  0
  -30.2725   -9.9581   17.3360 O   0  0  0  0  0  0  0  0  0  0  0  0
  -23.4034  -29.0470   23.4088 O   0  0  0  0  0  0  0  0  0  0  0  0
  -21.6485  -32.0253   21.9105 O   0  0  0  0  0  0  0  0  0  0  0  0
  -21.2071  -29.9462   17.6674 O   0  0  0  0  0  0  0  0  0  0  0  0
  -30.5716  -19.0758   20.9896 O   0  0  0  0  0  0  0  0  0  0  0  0
  -23.1833   -9.2842   20.4786 O   0  0  0  0  0  0  0  0  0  0  0  0
  -26.8624  -26.2563   18.5352 O   0  0  0  0  0  0  0  0  0  1  0  0
  -23.2118   -3.8340   21.3137 F   0  0  0  0  0  0  0  0  0  0  0  0
  -22.1801   -8.2024   22.8165 F   0  0  0  0  0  0  0  0  0  0  0  0
  1  2  1  0  0  0  0
  1  5  2  0  0  0  0
  2  6  2  0  0  0  0
  3  8  2  0  0  0  0
  3 17  1  0  0  0  0
  4  9  1  0  0  0  0
  4 17  2  0  0  0  0
  5 19  1  0  0  0  0
  6 21  1  0  0  0  0
  7 10  2  0  0  0  0
  7 20  1  0  0  0  0
  8 27  1  0  0  0  0
  9 27  2  0  0  0  0
 10 28  1  0  0  0  0
 11 12  2  0  0  0  0
 11 29  1  0  0  0  0
 12 30  1  0  0  0  0
 13 22  1  0  0  0  0
 13 28  2  0  0  0  0
 14 23  1  0  0  0  0
 14 26  2  0  0  0  0
 15 24  1  0  0  0  0
 15 25  2  0  0  0  0
 16 30  2  0  0  0  0
 16 31  1  0  0  0  0
 17 32  1  0  0  0  0
 18 32  1  0  0  0  0
 18 33  2  0  0  0  0
 18 34  1  0  0  0  0
 19 21  2  0  0  0  0
 19 39  1  0  0  0  0
 20 22  2  0  0  0  0
 20 40  1  0  0  0  0
 21 48  1  0  0  0  0
 22 41  1  0  0  0  0
 23 24  2  0  0  0  0
 23 51  1  0  0  0  0
 24 58  1  0  0  0  0
 25 26  1  0  0  0  0
 25 68  1  0  0  0  0
 26 71  1  0  0  0  0
 27 81  1  0  0  0  0
 28 82  1  0  0  0  0
 29 31  2  0  0  0  0
 29 81  1  0  0  0  0
 30 83  1  0  0  0  0
 31 84  1  0  0  0  0
 32 64  2  0  0  0  0
 33 65  1  0  0  0  0
 33 69  1  0  0  0  0
 34 70  1  0  0  0  0
 34 76  2  0  0  0  0
 35 49  1  0  0  0  0
 35 72  1  0  0  0  0
 35 77  2  0  0  0  0
 36 60  1  0  0  0  0
 36 66  1  0  0  0  0
 36 78  2  0  0  0  0
 37 61  1  0  0  0  0
 37 73  1  0  0  0  0
 37 79  2  0  0  0  0
 38 67  1  0  0  0  0
 38 71  1  0  0  0  0
 38 80  2  0  0  0  0
 39 42  1  0  0  0  0
 40 49  1  0  0  0  0
 41 66  1  0  0  0  0
 42 44  1  0  0  0  0
 43 45  1  0  0  0  0
 43 46  1  0  0  0  0
 44 48  1  0  0  0  0
 45 50  1  0  0  0  0
 46 67  1  0  0  0  0
 47 50  1  0  0  0  0
 47 67  1  0  0  0  0
 48 72  1  0  0  0  0
 49 66  1  0  0  0  0
 50 65  1  0  0  0  0
 52 61  1  0  0  0  0
 53 62  1  0  0  0  0
 54 63  1  0  0  0  0
 55 63  1  0  0  0  0
 56 63  1  0  0  0  0
 57 74  1  0  0  0  0
 58 75  1  0  0  0  0
 59 62  1  0  0  0  0
 59 82  1  0  0  0  0
 60 63  1  0  0  0  0
 60 73  1  0  0  0  0
 61 74  1  0  0  0  0
 62 75  1  0  0  0  0
 64 65  1  0  0  0  0
M  CHG  2  74   1  75   1
M  ISO  4  38 100  59 101  71 100  82 101
M  END
> <Batch ID>
0015

> <Smiles>
CNC(C)C(=O)NC(C(=O)N1Cc2cc([101O:1][101CH2:1]C(C)NCc3cc(N)c([100NH:0][100C:0](=O)N4CCCC(n5nc(-c6ccc(Oc7ccc(F)cc7F)cc6)c(C(N)=O)c5N)C4)cc3C)ccc2CC1C(=O)NC1CCCc2ccccc21)C(C)(C)C

> <Shape>
0.278

> <Color>
0.068

> <Negative vol penalty>
0.000

$$$$

  -OEChem-04052315553D

 84 92  0     1  0  0  0  0  0999 V2000
  -19.2277  -24.0319   23.4937 C   0  0  0  0  0  0  0  0  0  0  0  0
  -20.5484  -24.1817   23.0830 C   0  0  0  0  0  0  0  0  0  0  0  0
  -23.3099  -10.7566   21.7087 C   0  0  0  0  0  0  0  0  0  0  0  0
  -24.3425   -8.6669   21.0731 C   0  0  0  0  0  0  0  0  0  0  0  0
  -18.3598  -25.1225   23.4580 C   0  0  0  0  0  0  0  0  0  0  0  0
  -21.0017  -25.4220   22.6352 C   0  0  0  0  0  0  0  0  0  0  0  0
  -25.5180  -26.6529   24.5672 C   0  0  0  0  0  0  0  0  0  0  0  0
  -22.0517  -10.1605   21.6248 C   0  0  0  0  0  0  0  0  0  0  0  0
  -23.0842   -8.0707   20.9892 C   0  0  0  0  0  0  0  0  0  0  0  0
  -26.6390  -26.0470   24.0015 C   0  0  0  0  0  0  0  0  0  0  0  0
  -20.1662   -5.9023   20.9582 C   0  0  0  0  0  0  0  0  0  0  0  0
  -20.0066   -4.6397   21.5290 C   0  0  0  0  0  0  0  0  0  0  0  0
  -27.0597  -28.0424   22.7128 C   0  0  0  0  0  0  0  0  0  0  0  0
  -20.6226   -5.5369   23.6860 C   0  0  0  0  0  0  0  0  0  0  0  0
  -24.4553  -10.0098   21.4328 C   0  0  0  0  0  0  0  0  0  0  0  0
  -26.5904  -10.6935   22.6501 C   0  0  0  0  0  0  0  0  0  0  0  0
  -18.8053  -26.3792   23.0187 C   0  0  0  0  0  0  0  0  0  0  0  0
  -25.1525  -27.9563   24.2012 C   0  0  0  0  0  0  0  0  0  0  0  0
  -20.1386  -26.5301   22.5923 C   0  0  0  0  0  0  0  0  0  0  0  0
  -25.9350  -28.6634   23.2772 C   0  0  0  0  0  0  0  0  0  0  0  0
  -21.9388   -8.8175   21.2650 C   0  0  0  0  0  0  0  0  0  0  0  0
  -27.4084  -26.7407   23.0720 C   0  0  0  0  0  0  0  0  0  0  0  0
  -20.5540   -6.9823   21.7513 C   0  0  0  0  0  0  0  0  0  0  0  0
  -20.2348   -4.4569   22.8929 C   0  0  0  0  0  0  0  0  0  0  0  0
  -20.7822   -6.7996   23.1152 C   0  0  0  0  0  0  0  0  0  0  0  0
  -25.7553  -10.6252   21.5188 C   0  0  0  0  0  0  0  0  0  0  0  0
  -27.7018  -11.3738   22.2160 C   0  0  0  0  0  0  0  0  0  0  0  0
  -26.3802  -10.1873   23.9750 C   0  0  0  0  0  0  0  0  0  0  0  0
  -22.6111  -29.2671   22.8131 C   0  0  0  0  0  0  0  0  0  0  0  0
  -24.1497  -32.0384   23.5024 C   0  0  0  0  0  0  0  0  0  0  0  0
  -30.2831  -20.8875   19.5829 C   0  0  0  0  0  0  0  0  0  0  0  0
  -27.0962  -33.6308   24.1574 C   0  0  0  0  0  0  0  0  0  0  0  0
  -30.1315  -15.3764   19.5917 C   0  0  0  0  0  0  0  0  0  0  0  0
  -17.8178  -27.5172   22.9532 C   0  0  0  0  0  0  0  0  0  0  0  0
  -23.9557  -28.6054   24.8405 C   0  0  0  0  0  0  0  0  0  0  0  0
  -25.5969  -30.0723   22.8657 C   0  0  0  0  0  0  0  0  0  0  0  0
  -18.4761  -28.8880   22.8192 C   0  0  0  0  0  0  0  0  0  0  0  0
  -29.1709  -12.6765   17.5612 C   0  0  0  0  0  0  0  0  0  0  0  0
  -19.5642  -28.8555   21.7506 C   0  0  0  0  0  0  0  0  0  0  0  0
  -28.2548  -11.8978   18.5048 C   0  0  0  0  0  0  0  0  0  0  0  0
  -29.9377  -18.4132   17.8267 C   0  0  0  0  0  0  0  0  0  0  0  0
  -31.9343  -18.3249   19.3686 C   0  0  0  0  0  0  0  0  0  0  0  0
  -28.9656  -14.1877   17.6810 C   0  0  0  0  0  0  0  0  0  0  0  0
  -30.0891  -16.9104   17.5741 C   0  0  0  0  0  0  0  0  0  0  0  0
  -32.0613  -16.8352   19.0636 C   0  0  0  0  0  0  0  0  0  0  0  0
  -28.1698  -13.9227   20.0082 C   0  0  0  0  0  0  0  0  0  0  0  0
  -20.6743  -27.8656   22.1236 C   0  0  1  0  0  0  0  0  0  0  0  0
  -23.3814  -29.7489   24.0099 C   0  0  1  0  0  0  0  0  0  0  0  0
  -28.3938  -12.4036   19.9517 C   0  0  1  0  0  0  0  0  0  0  0  0
  -31.2732  -19.0618   18.2001 C   0  0  0  0  0  0  0  0  0  0  0  0
  -28.0411  -35.9043   24.6428 C   0  0  0  0  0  0  0  0  0  0  0  0
  -23.8663  -32.7823   20.5568 C   0  0  0  0  0  0  0  0  0  0  0  0
  -25.6103  -34.5443   20.9060 C   0  0  0  0  0  0  0  0  0  0  0  0
  -23.4528  -34.6633   22.1523 C   0  0  0  0  0  0  0  0  0  0  0  0
  -31.7987  -21.4035   17.6427 C   0  0  0  0  0  0  0  0  0  0  0  0
  -28.1077  -32.7731   26.8031 C   0  0  0  0  0  0  0  0  0  0  0  0
  -30.2047  -22.3972   19.7824 C   0  0  0  0  0  0  0  0  0  0  0  0
  -29.3184  -22.8234   20.9553 C   0  0  0  0  0  0  0  0  0  0  0  0
  -29.3268  -24.3371   21.1742 C   0  0  0  0  0  0  0  0  0  0  0  0
  -28.4753  -24.7336   22.3725 C   0  0  0  0  0  0  0  0  0  1  0  0
  -25.1570  -32.9078   22.7894 C   0  0  1  0  0  0  0  0  0  0  0  0
  -27.4875  -34.6201   25.2403 C   0  0  2  0  0  0  0  0  0  0  0  0
  -24.5271  -33.6972   21.6072 C   0  0  0  0  0  0  0  0  0  0  0  0
  -26.2904  -11.2152   20.4466 N   0  0  0  0  0  0  0  0  0  0  0  0
  -27.4736  -11.6607   20.9023 N   0  0  0  0  0  0  0  0  0  0  0  0
  -24.4137  -30.6614   23.5141 N   0  0  0  0  0  0  0  0  0  0  0  0
  -29.0673  -14.6173   19.0827 N   0  0  0  0  0  0  0  0  0  0  0  0
  -30.7658  -16.2585   18.7040 N   0  0  0  0  0  0  0  0  0  0  0  0
  -28.8422  -11.7486   22.8336 N   0  0  0  0  0  0  0  0  0  0  0  0
  -25.1829   -9.5128   24.2504 N   0  0  0  0  0  0  0  0  0  0  0  0
  -21.5486  -28.4399   23.1237 N   0  0  0  0  0  0  0  0  0  0  0  0
  -25.7663  -33.7500   23.8130 N   0  0  0  0  0  0  0  0  0  0  0  0
  -31.0914  -20.4583   18.5107 N   0  0  0  0  0  0  0  0  0  0  0  0
  -28.5267  -34.0296   26.1304 N   0  3  0  0  0  0  0  0  0  0  0  0
  -27.2220  -10.3432   24.8919 O   0  0  0  0  0  0  0  0  0  0  0  0
  -22.9543  -29.6208   21.6912 O   0  0  0  0  0  0  0  0  0  0  0  0
  -23.1685  -32.5624   24.0356 O   0  0  0  0  0  0  0  0  0  0  0  0
  -29.6733  -20.1220   20.3338 O   0  0  0  0  0  0  0  0  0  0  0  0
  -27.8916  -32.8347   23.6635 O   0  0  0  0  0  0  0  0  0  0  0  0
  -30.4939  -15.2727   20.7703 O   0  0  0  0  0  0  0  0  0  0  0  0
  -20.7112   -8.2354   21.1832 O   0  0  0  0  0  0  0  0  0  0  0  0
  -28.5108  -26.1471   22.5138 O   0  0  0  0  0  0  0  0  0  1  0  0
  -20.0800   -3.2447   23.4412 F   0  0  0  0  0  0  0  0  0  0  0  0
  -21.1538   -7.8335   23.8824 F   0  0  0  0  0  0  0  0  0  0  0  0
  1  2  1  0  0  0  0
  1  5  2  0  0  0  0
  2  6  2  0  0  0  0
  3  8  2  0  0  0  0
  3 15  1  0  0  0  0
  4  9  1  0  0  0  0
  4 15  2  0  0  0  0
  5 17  1  0  0  0  0
  6 19  1  0  0  0  0
  7 10  2  0  0  0  0
  7 18  1  0  0  0  0
  8 21  1  0  0  0  0
  9 21  2  0  0  0  0
 10 22  1  0  0  0  0
 11 12  2  0  0  0  0
 11 23  1  0  0  0  0
 12 24  1  0  0  0  0
 13 20  1  0  0  0  0
 13 22  2  0  0  0  0
 14 24  2  0  0  0  0
 14 25  1  0  0  0  0
 15 26  1  0  0  0  0
 16 26  1  0  0  0  0
 16 27  2  0  0  0  0
 16 28  1  0  0  0  0
 17 19  2  0  0  0  0
 17 34  1  0  0  0  0
 18 20  2  0  0  0  0
 18 35  1  0  0  0  0
 19 47  1  0  0  0  0
 20 36  1  0  0  0  0
 21 81  1  0  0  0  0
 22 82  1  0  0  0  0
 23 25  2  0  0  0  0
 23 81  1  0  0  0  0
 24 83  1  0  0  0  0
 25 84  1  0  0  0  0
 26 64  2  0  0  0  0
 27 65  1  0  0  0  0
 27 69  1  0  0  0  0
 28 70  1  0  0  0  0
 28 75  2  0  0  0  0
 29 48  1  0  0  0  0
 29 71  1  0  0  0  0
 29 76  2  0  0  0  0
 30 61  1  0  0  0  0
 30 66  1  0  0  0  0
 30 77  2  0  0  0  0
 31 57  1  0  0  0  0
 31 73  1  0  0  0  0
 31 78  2  0  0  0  0
 32 62  1  0  0  0  0
 32 72  1  0  0  0  0
 32 79  2  0  0  0  0
 33 67  1  0  0  0  0
 33 68  1  0  0  0  0
 33 80  2  0  0  0  0
 34 37  1  0  0  0  0
 35 48  1  0  0  0  0
 36 66  1  0  0  0  0
 37 39  1  0  0  0  0
 38 40  1  0  0  0  0
 38 43  1  0  0  0  0
 39 47  1  0  0  0  0
 40 49  1  0  0  0  0
 41 44  1  0  0  0  0
 41 50  1  0  0  0  0
 42 45  1  0  0  0  0
 42 50  1  0  0  0  0
 43 67  1  0  0  0  0
 44 68  1  0  0  0  0
 45 68  1  0  0  0  0
 46 49  1  0  0  0  0
 46 67  1  0  0  0  0
 47 71  1  0  0  0  0
 48 66  1  0  0  0  0
 49 65  1  0  0  0  0
 50 73  1  0  0  0  0
 51 62  1  0  0  0  0
 52 63  1  0  0  0  0
 53 63  1  0  0  0  0
 54 63  1  0  0  0  0
 55 73  1  0  0  0  0
 56 74  1  0  0  0  0
 57 58  1  0  0  0  0
 58 59  1  0  0  0  0
 59 60  1  0  0  0  0
 60 82  1  0  0  0  0
 61 63  1  0  0  0  0
 61 72  1  0  0  0  0
 62 74  1  0  0  0  0
 64 65  1  0  0  0  0
M  CHG  1  74   1
M  ISO  4  33 100  60 101  68 100  82 101
M  END
> <Batch ID>
0015

> <Smiles>
CNC(C)C(=O)NC(C(=O)N1Cc2cc([101O:1][101CH2:1]CCCC(=O)N(C)C3CC[100N:0]([100C:0](=O)N4CCCC(n5nc(-c6ccc(Oc7ccc(F)cc7F)cc6)c(C(N)=O)c5N)C4)CC3)ccc2CC1C(=O)NC1CCCc2ccccc21)C(C)(C)C

> <Shape>
0.269

> <Color>
0.116

> <Negative vol penalty>
0.000

$$$$

  -OEChem-04052315553D

 86 94  0     1  0  0  0  0  0999 V2000
  -39.4157  -28.9389   21.8703 C   0  0  0  0  0  0  0  0  0  0  0  0
  -38.3918  -28.2528   22.5154 C   0  0  0  0  0  0  0  0  0  0  0  0
  -23.0070   -9.8888   19.9657 C   0  0  0  0  0  0  0  0  0  0  0  0
  -23.7375   -9.9162   22.2685 C   0  0  0  0  0  0  0  0  0  0  0  0
  -39.2462  -29.3652   20.5537 C   0  0  0  0  0  0  0  0  0  0  0  0
  -37.1971  -27.9935   21.8445 C   0  0  0  0  0  0  0  0  0  0  0  0
  -35.5783  -23.2436   22.5248 C   0  0  0  0  0  0  0  0  0  0  0  0
  -22.2461   -8.7480   20.2206 C   0  0  0  0  0  0  0  0  0  0  0  0
  -22.9765   -8.7753   22.5234 C   0  0  0  0  0  0  0  0  0  0  0  0
  -34.9531  -22.9514   23.7362 C   0  0  0  0  0  0  0  0  0  0  0  0
  -23.2341   -5.4432   22.0122 C   0  0  0  0  0  0  0  0  0  0  0  0
  -23.8278   -4.4199   22.7510 C   0  0  0  0  0  0  0  0  0  0  0  0
  -32.8006  -23.1385   22.6634 C   0  0  0  0  0  0  0  0  0  0  0  0
  -32.0429  -16.5407   22.5917 C   0  0  0  0  0  0  0  0  0  0  0  0
  -30.4805  -18.3256   24.0599 C   0  0  0  0  0  0  0  0  0  0  0  0
  -22.1069   -4.6359   24.4330 C   0  0  0  0  0  0  0  0  0  0  0  0
  -23.7528  -10.4729   20.9897 C   0  0  0  0  0  0  0  0  0  0  0  0
  -24.1268  -12.9920   20.8420 C   0  0  0  0  0  0  0  0  0  0  0  0
  -38.0525  -29.1026   19.8631 C   0  0  0  0  0  0  0  0  0  0  0  0
  -34.8178  -23.4967   21.3741 C   0  0  0  0  0  0  0  0  0  0  0  0
  -37.0109  -28.4179   20.5179 C   0  0  0  0  0  0  0  0  0  0  0  0
  -33.4186  -23.4312   21.4381 C   0  0  0  0  0  0  0  0  0  0  0  0
  -32.6470  -17.4221   23.4882 C   0  0  0  0  0  0  0  0  0  0  0  0
  -29.8763  -17.4442   23.1634 C   0  0  0  0  0  0  0  0  0  0  0  0
  -31.8659  -18.3146   24.2223 C   0  0  0  0  0  0  0  0  0  0  0  0
  -30.6575  -16.5518   22.4293 C   0  0  0  0  0  0  0  0  0  0  0  0
  -22.2308   -8.1913   21.4995 C   0  0  0  0  0  0  0  0  0  0  0  0
  -33.5640  -22.9016   23.8063 C   0  0  0  0  0  0  0  0  0  0  0  0
  -22.0768   -6.0629   22.4837 C   0  0  0  0  0  0  0  0  0  0  0  0
  -23.2642   -4.0162   23.9614 C   0  0  0  0  0  0  0  0  0  0  0  0
  -21.5132   -5.6592   23.6941 C   0  0  0  0  0  0  0  0  0  0  0  0
  -24.5396  -11.6511   20.7268 C   0  0  0  0  0  0  0  0  0  0  0  0
  -25.2326  -13.7236   20.4834 C   0  0  0  0  0  0  0  0  0  0  0  0
  -22.8575  -13.5284   21.2378 C   0  0  0  0  0  0  0  0  0  0  0  0
  -34.4547  -25.9829   19.4272 C   0  0  0  0  0  0  0  0  0  0  0  0
  -32.6686  -23.8850   17.7152 C   0  0  0  0  0  0  0  0  0  0  0  0
  -30.7797  -21.0429   17.6791 C   0  0  0  0  0  0  0  0  0  0  0  0
  -30.7084  -14.7057   20.7158 C   0  0  0  0  0  0  0  0  0  0  0  0
  -37.8976  -29.6247   18.4567 C   0  0  0  0  0  0  0  0  0  0  0  0
  -35.5081  -23.7842   20.0690 C   0  0  0  0  0  0  0  0  0  0  0  0
  -32.5572  -23.6751   20.2269 C   0  0  0  0  0  0  0  0  0  0  0  0
  -36.7433  -28.9818   17.6921 C   0  0  0  0  0  0  0  0  0  0  0  0
  -29.5952  -12.2752   18.3641 C   0  0  0  0  0  0  0  0  0  0  0  0
  -35.4869  -28.9423   18.5562 C   0  0  0  0  0  0  0  0  0  0  0  0
  -28.1467  -12.0065   18.7786 C   0  0  0  0  0  0  0  0  0  0  0  0
  -30.4975  -12.5085   19.5745 C   0  0  0  0  0  0  0  0  0  0  0  0
  -28.5820  -13.2734   20.9216 C   0  0  0  0  0  0  0  0  0  0  0  0
  -35.7098  -28.0960   19.8154 C   0  0  1  0  0  0  0  0  0  0  0  0
  -34.6226  -24.5315   19.0767 C   0  0  1  0  0  0  0  0  0  0  0  0
  -27.6223  -13.0967   19.7336 C   0  0  2  0  0  0  0  0  0  0  0  0
  -34.1329  -17.3901   23.6421 C   0  0  0  0  0  0  0  0  0  0  0  0
  -29.4198  -19.6009   16.1400 C   0  0  0  0  0  0  0  0  0  0  0  0
  -30.4132  -25.9388   17.7877 C   0  0  0  0  0  0  0  0  0  0  0  0
  -28.8315  -24.1229   17.1029 C   0  0  0  0  0  0  0  0  0  0  0  0
  -30.7010  -24.7827   15.5889 C   0  0  0  0  0  0  0  0  0  0  0  0
  -32.5256  -18.6989   18.1442 C   0  0  0  0  0  0  0  0  0  0  0  0
  -32.6432  -21.0095   26.7424 C   0  0  0  0  0  0  0  0  0  0  0  0
  -31.7039  -20.1472   25.9078 C   0  0  0  0  0  0  0  0  0  0  0  0
  -33.6558  -21.7747   25.8985 C   0  0  0  0  0  0  0  0  0  1  0  0
  -31.2129  -23.4856   17.6978 C   0  0  1  0  0  0  0  0  0  0  0  0
  -30.7901  -19.8382   16.7554 C   0  0  2  0  0  0  0  0  0  0  0  0
  -28.3904  -17.4788   23.0090 C   0  0  0  0  0  0  0  0  0  0  0  0
  -30.3056  -24.5797   17.0678 C   0  0  0  0  0  0  0  0  0  0  0  0
  -25.8084  -11.5347   20.3262 N   0  0  0  0  0  0  0  0  0  0  0  0
  -26.2025  -12.8119   20.1865 N   0  0  0  0  0  0  0  0  0  0  0  0
  -33.2788  -23.9586   18.9754 N   0  0  0  0  0  0  0  0  0  0  0  0
  -29.9399  -13.5571   20.4314 N   0  0  0  0  0  0  0  0  0  0  0  0
  -25.4601  -15.0514   20.3963 N   0  0  0  0  0  0  0  0  0  0  0  0
  -21.8303  -12.6358   21.5734 N   0  0  0  0  0  0  0  0  0  0  0  0
  -30.0619  -15.6489   21.5139 N   0  0  0  0  0  0  0  0  0  0  0  0
  -32.4494  -19.1979   25.1171 N   0  0  0  0  0  0  0  0  0  0  0  0
  -35.6423  -26.6862   19.4953 N   0  0  0  0  0  0  0  0  0  0  0  0
  -31.1518  -22.1953   17.0196 N   0  0  0  0  0  0  0  0  0  0  0  0
  -31.1867  -18.6134   17.5061 N   0  3  0  0  0  0  0  0  0  0  0  0
  -22.6355  -14.7624   21.2764 O   0  0  0  0  0  0  0  0  0  0  0  0
  -33.3309  -26.4318   19.6201 O   0  0  0  0  0  0  0  0  0  0  0  0
  -33.2451  -24.1162   16.6494 O   0  0  0  0  0  0  0  0  0  0  0  0
  -30.4688  -20.9697   18.8659 O   0  0  0  0  0  0  0  0  0  0  0  0
  -31.8454  -14.8549   20.2608 O   0  0  0  0  0  0  0  0  0  0  0  0
  -21.4881   -7.0782   21.7487 O   0  0  0  0  0  0  0  0  0  0  0  0
  -32.9511  -22.6172   24.9876 O   0  0  0  0  0  0  0  0  0  1  0  0
  -23.8336   -3.0325   24.6701 F   0  0  0  0  0  0  0  0  0  0  0  0
  -20.4008   -6.2500   24.1517 F   0  0  0  0  0  0  0  0  0  0  0  0
  -27.7823  -18.4102   23.7997 F   0  0  0  0  0  0  0  0  0  0  0  0
  -27.9822  -17.7654   21.7386 F   0  0  0  0  0  0  0  0  0  0  0  0
  -27.8047  -16.2883   23.3247 F   0  0  0  0  0  0  0  0  0  0  0  0
  1  2  1  0  0  0  0
  1  5  2  0  0  0  0
  2  6  2  0  0  0  0
  3  8  2  0  0  0  0
  3 17  1  0  0  0  0
  4  9  1  0  0  0  0
  4 17  2  0  0  0  0
  5 19  1  0  0  0  0
  6 21  1  0  0  0  0
  7 10  2  0  0  0  0
  7 20  1  0  0  0  0
  8 27  1  0  0  0  0
  9 27  2  0  0  0  0
 10 28  1  0  0  0  0
 11 12  2  0  0  0  0
 11 29  1  0  0  0  0
 12 30  1  0  0  0  0
 13 22  1  0  0  0  0
 13 28  2  0  0  0  0
 14 23  1  0  0  0  0
 14 26  2  0  0  0  0
 15 24  2  0  0  0  0
 15 25  1  0  0  0  0
 16 30  2  0  0  0  0
 16 31  1  0  0  0  0
 17 32  1  0  0  0  0
 18 32  1  0  0  0  0
 18 33  2  0  0  0  0
 18 34  1  0  0  0  0
 19 21  2  0  0  0  0
 19 39  1  0  0  0  0
 20 22  2  0  0  0  0
 20 40  1  0  0  0  0
 21 48  1  0  0  0  0
 22 41  1  0  0  0  0
 23 25  2  0  0  0  0
 23 51  1  0  0  0  0
 24 26  1  0  0  0  0
 24 62  1  0  0  0  0
 25 71  1  0  0  0  0
 26 70  1  0  0  0  0
 27 80  1  0  0  0  0
 28 81  1  0  0  0  0
 29 31  2  0  0  0  0
 29 80  1  0  0  0  0
 30 82  1  0  0  0  0
 31 83  1  0  0  0  0
 32 64  2  0  0  0  0
 33 65  1  0  0  0  0
 33 68  1  0  0  0  0
 34 69  1  0  0  0  0
 34 75  2  0  0  0  0
 35 49  1  0  0  0  0
 35 72  1  0  0  0  0
 35 76  2  0  0  0  0
 36 60  1  0  0  0  0
 36 66  1  0  0  0  0
 36 77  2  0  0  0  0
 37 61  1  0  0  0  0
 37 73  1  0  0  0  0
 37 78  2  0  0  0  0
 38 67  1  0  0  0  0
 38 70  1  0  0  0  0
 38 79  2  0  0  0  0
 39 42  1  0  0  0  0
 40 49  1  0  0  0  0
 41 66  1  0  0  0  0
 42 44  1  0  0  0  0
 43 45  1  0  0  0  0
 43 46  1  0  0  0  0
 44 48  1  0  0  0  0
 45 50  1  0  0  0  0
 46 67  1  0  0  0  0
 47 50  1  0  0  0  0
 47 67  1  0  0  0  0
 48 72  1  0  0  0  0
 49 66  1  0  0  0  0
 50 65  1  0  0  0  0
 52 61  1  0  0  0  0
 53 63  1  0  0  0  0
 54 63  1  0  0  0  0
 55 63  1  0  0  0  0
 56 74  1  0  0  0  0
 57 58  1  0  0  0  0
 57 59  1  0  0  0  0
 58 71  1  0  0  0  0
 59 81  1  0  0  0  0
 60 63  1  0  0  0  0
 60 73  1  0  0  0  0
 61 74  1  0  0  0  0
 62 84  1  0  0  0  0
 62 85  1  0  0  0  0
 62 86  1  0  0  0  0
 64 65  1  0  0  0  0
M  CHG  1  74   1
M  ISO  4  38 100  59 101  70 100  81 101
M  END
> <Batch ID>
0015

> <Smiles>
CNC(C)C(=O)NC(C(=O)N1Cc2cc([101O:1][101CH2:1]CCNc3cc(C(F)(F)F)c([100NH:0][100C:0](=O)N4CCCC(n5nc(-c6ccc(Oc7ccc(F)cc7F)cc6)c(C(N)=O)c5N)C4)cc3C)ccc2CC1C(=O)NC1CCCc2ccccc21)C(C)(C)C

> <Shape>
0.207

> <Color>
0.203

> <Negative vol penalty>
0.000

$$$$

  -OEChem-04052315553D

 84 92  0     1  0  0  0  0  0999 V2000
  -25.6661  -18.1704   26.6812 C   0  0  0  0  0  0  0  0  0  0  0  0
  -26.4457  -18.8630   25.7604 C   0  0  0  0  0  0  0  0  0  0  0  0
  -23.2773   -9.6845   20.8080 C   0  0  0  0  0  0  0  0  0  0  0  0
  -23.9849  -10.3001   23.0345 C   0  0  0  0  0  0  0  0  0  0  0  0
  -24.3859  -18.6269   26.9923 C   0  0  0  0  0  0  0  0  0  0  0  0
  -25.9451  -20.0122   25.1493 C   0  0  0  0  0  0  0  0  0  0  0  0
  -29.3269  -23.7796   25.0304 C   0  0  0  0  0  0  0  0  0  0  0  0
  -22.5965   -8.5840   21.3286 C   0  0  0  0  0  0  0  0  0  0  0  0
  -23.3041   -9.1996   23.5551 C   0  0  0  0  0  0  0  0  0  0  0  0
  -30.3261  -23.7080   24.0607 C   0  0  0  0  0  0  0  0  0  0  0  0
  -19.6684   -7.9866   22.9105 C   0  0  0  0  0  0  0  0  0  0  0  0
  -18.3775   -7.7422   22.4423 C   0  0  0  0  0  0  0  0  0  0  0  0
  -29.0964  -25.2637   22.6872 C   0  0  0  0  0  0  0  0  0  0  0  0
  -29.3115  -19.8050   20.8600 C   0  0  0  0  0  0  0  0  0  0  0  0
  -30.8761  -17.8881   19.5715 C   0  0  0  0  0  0  0  0  0  0  0  0
  -19.0782   -5.5728   21.6424 C   0  0  0  0  0  0  0  0  0  0  0  0
  -23.9716  -10.5425   21.6609 C   0  0  0  0  0  0  0  0  0  0  0  0
  -24.1684  -12.9775   20.9261 C   0  0  0  0  0  0  0  0  0  0  0  0
  -23.8731  -19.7876   26.3919 C   0  0  0  0  0  0  0  0  0  0  0  0
  -28.1978  -24.5868   24.8306 C   0  0  0  0  0  0  0  0  0  0  0  0
  -24.6564  -20.4839   25.4517 C   0  0  0  0  0  0  0  0  0  0  0  0
  -28.0855  -25.3459   23.6570 C   0  0  0  0  0  0  0  0  0  0  0  0
  -30.2036  -20.1907   19.8595 C   0  0  0  0  0  0  0  0  0  0  0  0
  -29.9840  -17.5024   20.5720 C   0  0  0  0  0  0  0  0  0  0  0  0
  -22.6099   -8.3416   22.7021 C   0  0  0  0  0  0  0  0  0  0  0  0
  -30.2095  -24.4478   22.8877 C   0  0  0  0  0  0  0  0  0  0  0  0
  -20.6644   -7.0241   22.7445 C   0  0  0  0  0  0  0  0  0  0  0  0
  -18.0823   -6.5353   21.8083 C   0  0  0  0  0  0  0  0  0  0  0  0
  -20.3693   -5.8172   22.1105 C   0  0  0  0  0  0  0  0  0  0  0  0
  -29.2017  -18.4609   21.2162 C   0  0  0  0  0  0  0  0  0  0  0  0
  -30.9859  -19.2323   19.2153 C   0  0  0  0  0  0  0  0  0  0  0  0
  -24.6755  -11.6791   21.1237 C   0  0  0  0  0  0  0  0  0  0  0  0
  -25.2228  -13.6811   20.3974 C   0  0  0  0  0  0  0  0  0  0  0  0
  -22.8612  -13.5006   21.1964 C   0  0  0  0  0  0  0  0  0  0  0  0
  -25.0728  -24.0545   24.5973 C   0  0  0  0  0  0  0  0  0  0  0  0
  -24.9190  -27.2944   24.5543 C   0  0  0  0  0  0  0  0  0  0  0  0
  -26.4807  -30.2608   23.9149 C   0  0  0  0  0  0  0  0  0  0  0  0
  -30.6137  -15.0735   20.3480 C   0  0  0  0  0  0  0  0  0  0  0  0
  -22.4658  -20.2158   26.7246 C   0  0  0  0  0  0  0  0  0  0  0  0
  -27.1417  -24.6739   25.8981 C   0  0  0  0  0  0  0  0  0  0  0  0
  -26.9029  -26.2434   23.4032 C   0  0  0  0  0  0  0  0  0  0  0  0
  -22.1528  -21.6521   26.3131 C   0  0  0  0  0  0  0  0  0  0  0  0
  -29.6940  -12.0889   18.6382 C   0  0  0  0  0  0  0  0  0  0  0  0
  -22.6376  -21.9179   24.8914 C   0  0  0  0  0  0  0  0  0  0  0  0
  -28.2647  -11.8231   19.1161 C   0  0  0  0  0  0  0  0  0  0  0  0
  -30.5676  -12.6613   19.7531 C   0  0  0  0  0  0  0  0  0  0  0  0
  -28.5918  -13.5827   20.9004 C   0  0  0  0  0  0  0  0  0  0  0  0
  -24.1580  -21.7484   24.7862 C   0  0  1  0  0  0  0  0  0  0  0  0
  -25.7880  -25.1312   25.3634 C   0  0  1  0  0  0  0  0  0  0  0  0
  -27.6569  -13.0664   19.7945 C   0  0  2  0  0  0  0  0  0  0  0  0
  -26.0873  -32.7391   23.9375 C   0  0  0  0  0  0  0  0  0  0  0  0
  -33.1219  -24.1137   19.7424 C   0  0  0  0  0  0  0  0  0  0  0  0
  -23.3008  -27.0586   21.9783 C   0  0  0  0  0  0  0  0  0  0  0  0
  -23.7536  -29.4842   21.5540 C   0  0  0  0  0  0  0  0  0  0  0  0
  -22.4694  -28.7923   23.5776 C   0  0  0  0  0  0  0  0  0  0  0  0
  -28.6141  -30.6981   25.9189 C   0  0  0  0  0  0  0  0  0  0  0  0
  -30.2914  -21.6460   19.5054 C   0  0  0  0  0  0  0  0  0  0  0  0
  -30.7828  -24.5690   20.5828 C   0  0  0  0  0  0  0  0  0  1  0  0
  -24.9571  -28.3523   23.4780 C   0  0  1  0  0  0  0  0  0  0  0  0
  -26.5865  -31.5389   24.7269 C   0  0  2  0  0  0  0  0  0  0  0  0
  -31.6527  -23.7353   19.6487 C   0  0  2  0  0  0  0  0  0  0  0  0
  -23.6417  -28.4035   22.6506 C   0  0  0  0  0  0  0  0  0  0  0  0
  -25.9527  -11.5621   20.7507 N   0  0  0  0  0  0  0  0  0  0  0  0
  -26.2570  -12.7959   20.3134 N   0  0  0  0  0  0  0  0  0  0  0  0
  -25.8937  -26.2897   24.4741 N   0  0  0  0  0  0  0  0  0  0  0  0
  -29.9305  -13.8391   20.3461 N   0  0  0  0  0  0  0  0  0  0  0  0
  -25.3569  -14.9645   20.0007 N   0  0  0  0  0  0  0  0  0  0  0  0
  -21.8967  -12.6410   21.7398 N   0  0  0  0  0  0  0  0  0  0  0  0
  -29.8958  -16.1290   20.9093 N   0  0  0  0  0  0  0  0  0  0  0  0
  -24.8344  -22.9069   25.3291 N   0  0  0  0  0  0  0  0  0  0  0  0
  -25.2906  -29.6046   24.1481 N   0  0  0  0  0  0  0  0  0  0  0  0
  -28.0030  -31.7891   25.1168 N   0  3  0  0  0  0  0  0  0  0  0  0
  -31.5169  -22.2998   20.0308 N   0  3  0  0  0  0  0  0  0  0  0  0
  -22.5525  -14.6908   20.9478 O   0  0  0  0  0  0  0  0  0  0  0  0
  -24.7590  -24.2511   23.4291 O   0  0  0  0  0  0  0  0  0  0  0  0
  -24.0607  -27.3612   25.4377 O   0  0  0  0  0  0  0  0  0  0  0  0
  -27.3637  -29.8841   23.1474 O   0  0  0  0  0  0  0  0  0  0  0  0
  -31.7411  -15.1920   19.8612 O   0  0  0  0  0  0  0  0  0  0  0  0
  -21.9454   -7.2680   23.2105 O   0  0  0  0  0  0  0  0  0  0  0  0
  -31.1831  -24.3792   21.9393 O   0  0  0  0  0  0  0  0  0  1  0  0
  -16.8421   -6.3001   21.3602 F   0  0  0  0  0  0  0  0  0  0  0  0
  -21.3216   -4.8883   21.9492 F   0  0  0  0  0  0  0  0  0  0  0  0
  -28.0850  -18.0264   22.4607 Cl  0  0  0  0  0  0  0  0  0  0  0  0
  -32.1012  -19.6734   17.9738 Cl  0  0  0  0  0  0  0  0  0  0  0  0
  1  2  1  0  0  0  0
  1  5  2  0  0  0  0
  2  6  2  0  0  0  0
  3  8  2  0  0  0  0
  3 17  1  0  0  0  0
  4  9  1  0  0  0  0
  4 17  2  0  0  0  0
  5 19  1  0  0  0  0
  6 21  1  0  0  0  0
  7 10  2  0  0  0  0
  7 20  1  0  0  0  0
  8 25  1  0  0  0  0
  9 25  2  0  0  0  0
 10 26  1  0  0  0  0
 11 12  2  0  0  0  0
 11 27  1  0  0  0  0
 12 28  1  0  0  0  0
 13 22  1  0  0  0  0
 13 26  2  0  0  0  0
 14 23  1  0  0  0  0
 14 30  2  0  0  0  0
 15 24  2  0  0  0  0
 15 31  1  0  0  0  0
 16 28  2  0  0  0  0
 16 29  1  0  0  0  0
 17 32  1  0  0  0  0
 18 32  1  0  0  0  0
 18 33  2  0  0  0  0
 18 34  1  0  0  0  0
 19 21  2  0  0  0  0
 19 39  1  0  0  0  0
 20 22  2  0  0  0  0
 20 40  1  0  0  0  0
 21 48  1  0  0  0  0
 22 41  1  0  0  0  0
 23 31  2  0  0  0  0
 23 57  1  0  0  0  0
 24 30  1  0  0  0  0
 24 69  1  0  0  0  0
 25 79  1  0  0  0  0
 26 80  1  0  0  0  0
 27 29  2  0  0  0  0
 27 79  1  0  0  0  0
 28 81  1  0  0  0  0
 29 82  1  0  0  0  0
 30 83  1  0  0  0  0
 31 84  1  0  0  0  0
 32 63  2  0  0  0  0
 33 64  1  0  0  0  0
 33 67  1  0  0  0  0
 34 68  1  0  0  0  0
 34 74  2  0  0  0  0
 35 49  1  0  0  0  0
 35 70  1  0  0  0  0
 35 75  2  0  0  0  0
 36 59  1  0  0  0  0
 36 65  1  0  0  0  0
 36 76  2  0  0  0  0
 37 60  1  0  0  0  0
 37 71  1  0  0  0  0
 37 77  2  0  0  0  0
 38 66  1  0  0  0  0
 38 69  1  0  0  0  0
 38 78  2  0  0  0  0
 39 42  1  0  0  0  0
 40 49  1  0  0  0  0
 41 65  1  0  0  0  0
 42 44  1  0  0  0  0
 43 45  1  0  0  0  0
 43 46  1  0  0  0  0
 44 48  1  0  0  0  0
 45 50  1  0  0  0  0
 46 66  1  0  0  0  0
 47 50  1  0  0  0  0
 47 66  1  0  0  0  0
 48 70  1  0  0  0  0
 49 65  1  0  0  0  0
 50 64  1  0  0  0  0
 51 60  1  0  0  0  0
 52 61  1  0  0  0  0
 53 62  1  0  0  0  0
 54 62  1  0  0  0  0
 55 62  1  0  0  0  0
 56 72  1  0  0  0  0
 57 73  1  0  0  0  0
 58 61  1  0  0  0  0
 58 80  1  0  0  0  0
 59 62  1  0  0  0  0
 59 71  1  0  0  0  0
 60 72  1  0  0  0  0
 61 73  1  0  0  0  0
 63 64  1  0  0  0  0
M  CHG  2  72   1  73   1
M  ISO  4  38 100  58 101  69 100  80 101
M  END
> <Batch ID>
0015

> <Smiles>
CNC(C)C(=O)NC(C(=O)N1Cc2cc([101O:1][101CH2:1]C(C)NCc3cc(Cl)c([100NH:0][100C:0](=O)N4CCCC(n5nc(-c6ccc(Oc7ccc(F)cc7F)cc6)c(C(N)=O)c5N)C4)cc3Cl)ccc2CC1C(=O)NC1CCCc2ccccc21)C(C)(C)C

> <Shape>
0.238

> <Color>
0.153

> <Negative vol penalty>
0.000

$$$$

  -OEChem-04052315553D

 81 88  0     1  0  0  0  0  0999 V2000
  -32.3566  -12.6325   21.5063 C   0  0  0  0  0  0  0  0  0  0  0  0
  -31.9454  -13.9480   21.6955 C   0  0  0  0  0  0  0  0  0  0  0  0
  -28.5980  -26.2487   19.9623 C   0  0  0  0  0  0  0  0  0  0  0  0
  -26.7537  -25.3350   18.6970 C   0  0  0  0  0  0  0  0  0  0  0  0
  -31.5607  -11.7532   20.7732 C   0  0  0  0  0  0  0  0  0  0  0  0
  -30.7386  -14.3854   21.1507 C   0  0  0  0  0  0  0  0  0  0  0  0
  -25.3384  -18.9080   22.4544 C   0  0  0  0  0  0  0  0  0  0  0  0
  -29.4054  -25.1881   19.5513 C   0  0  0  0  0  0  0  0  0  0  0  0
  -27.5611  -24.2744   18.2860 C   0  0  0  0  0  0  0  0  0  0  0  0
  -24.6252  -19.9385   21.8435 C   0  0  0  0  0  0  0  0  0  0  0  0
  -28.7017  -21.3656   19.5777 C   0  0  0  0  0  0  0  0  0  0  0  0
  -28.1603  -20.0812   19.6290 C   0  0  0  0  0  0  0  0  0  0  0  0
  -23.2945  -18.3095   20.6625 C   0  0  0  0  0  0  0  0  0  0  0  0
  -28.4886  -19.8475   17.2469 C   0  0  0  0  0  0  0  0  0  0  0  0
  -27.2721  -26.3221   19.5352 C   0  0  0  0  0  0  0  0  0  0  0  0
  -26.2666  -28.6561   19.3138 C   0  0  0  0  0  0  0  0  0  0  0  0
  -30.3389  -12.1774   20.2274 C   0  0  0  0  0  0  0  0  0  0  0  0
  -25.0417  -17.5683   22.1651 C   0  0  0  0  0  0  0  0  0  0  0  0
  -29.9263  -13.5113   20.4085 C   0  0  0  0  0  0  0  0  0  0  0  0
  -24.0037  -17.2638   21.2730 C   0  0  0  0  0  0  0  0  0  0  0  0
  -28.8870  -24.2010   18.7131 C   0  0  0  0  0  0  0  0  0  0  0  0
  -23.6051  -19.6394   20.9452 C   0  0  0  0  0  0  0  0  0  0  0  0
  -29.1366  -21.8910   18.3609 C   0  0  0  0  0  0  0  0  0  0  0  0
  -28.0537  -19.3221   18.4637 C   0  0  0  0  0  0  0  0  0  0  0  0
  -29.0300  -21.1320   17.1955 C   0  0  0  0  0  0  0  0  0  0  0  0
  -26.4374  -27.4171   19.9599 C   0  0  0  0  0  0  0  0  0  0  0  0
  -25.3806  -29.3395   20.1103 C   0  0  0  0  0  0  0  0  0  0  0  0
  -26.8561  -29.1455   18.1019 C   0  0  0  0  0  0  0  0  0  0  0  0
  -26.6447  -15.1427   20.8804 C   0  0  0  0  0  0  0  0  0  0  0  0
  -23.9946  -13.4635   21.7045 C   0  0  0  0  0  0  0  0  0  0  0  0
  -20.7164  -28.3026   23.4145 C   0  0  0  0  0  0  0  0  0  0  0  0
  -20.6564  -13.4832   22.4135 C   0  0  0  0  0  0  0  0  0  0  0  0
  -20.2709  -26.9905   21.2717 C   0  0  0  0  0  0  0  0  0  0  0  0
  -29.5354  -11.2035   19.4024 C   0  0  0  0  0  0  0  0  0  0  0  0
  -25.8024  -16.4679   22.8528 C   0  0  0  0  0  0  0  0  0  0  0  0
  -23.6325  -15.8417   20.9439 C   0  0  0  0  0  0  0  0  0  0  0  0
  -28.0913  -11.6436   19.1759 C   0  0  0  0  0  0  0  0  0  0  0  0
  -23.9379  -29.0032   24.8183 C   0  0  0  0  0  0  0  0  0  0  0  0
  -28.0394  -13.1097   18.7581 C   0  0  0  0  0  0  0  0  0  0  0  0
  -24.8979  -28.7554   23.6554 C   0  0  0  0  0  0  0  0  0  0  0  0
  -22.7580  -28.0369   24.7840 C   0  0  0  0  0  0  0  0  0  0  0  0
  -22.9613  -27.7976   22.3298 C   0  0  0  0  0  0  0  0  0  0  0  0
  -28.6118  -14.0164   19.8543 C   0  0  1  0  0  0  0  0  0  0  0  0
  -25.7578  -15.1456   22.0932 C   0  0  1  0  0  0  0  0  0  0  0  0
  -24.1518  -28.7727   22.3095 C   0  0  2  0  0  0  0  0  0  0  0  0
  -18.7609  -11.9520   23.0133 C   0  0  0  0  0  0  0  0  0  0  0  0
  -18.5976  -28.5745   22.2948 C   0  0  0  0  0  0  0  0  0  0  0  0
  -20.6303  -29.5005   21.2114 C   0  0  0  0  0  0  0  0  0  0  0  0
  -23.8470  -12.5156   18.8080 C   0  0  0  0  0  0  0  0  0  0  0  0
  -21.4849  -11.8036   19.2346 C   0  0  0  0  0  0  0  0  0  0  0  0
  -23.3527  -10.7508   20.5097 C   0  0  0  0  0  0  0  0  0  0  0  0
  -19.0336  -25.6504   23.0711 C   0  0  0  0  0  0  0  0  0  0  0  0
  -20.2102  -14.8578   24.9963 C   0  0  0  0  0  0  0  0  0  0  0  0
  -21.2553  -23.8472   21.4640 C   0  0  0  0  0  0  0  0  0  0  0  0
  -21.4426  -22.5277   20.7146 C   0  0  0  0  0  0  0  0  0  0  0  0
  -19.9590  -24.5559   21.0844 C   0  0  0  0  0  0  0  0  0  0  0  0
  -22.7620  -21.8591   21.0800 C   0  0  0  0  0  0  0  0  0  1  0  0
  -22.6853  -13.1334   21.0295 C   0  0  1  0  0  0  0  0  0  0  0  0
  -19.8632  -12.8547   23.5450 C   0  0  2  0  0  0  0  0  0  0  0  0
  -20.1000  -28.3221   22.0383 C   0  0  0  0  0  0  0  0  0  0  0  0
  -22.8505  -12.0778   19.9000 C   0  0  0  0  0  0  0  0  0  0  0  0
  -25.7178  -27.3165   21.0806 N   0  0  0  0  0  0  0  0  0  0  0  0
  -25.0863  -28.5010   21.1450 N   0  0  0  0  0  0  0  0  0  0  0  0
  -24.4097  -14.8010   21.6371 N   0  0  0  0  0  0  0  0  0  0  0  0
  -22.0896  -28.0665   23.4818 N   0  0  0  0  0  0  0  0  0  0  0  0
  -24.8324  -30.5698   20.0196 N   0  0  0  0  0  0  0  0  0  0  0  0
  -27.7453  -28.3136   17.4080 N   0  0  0  0  0  0  0  0  0  0  0  0
  -27.6475  -14.1928   20.9190 N   0  0  0  0  0  0  0  0  0  0  0  0
  -21.7680  -12.7338   22.0912 N   0  0  0  0  0  0  0  0  0  0  0  0
  -19.7704  -25.7847   21.8055 N   0  0  0  0  0  0  0  0  0  0  0  0
  -19.2385  -13.9120   24.3894 N   0  3  0  0  0  0  0  0  0  0  0  0
  -26.6146  -30.2931   17.6566 O   0  0  0  0  0  0  0  0  0  0  0  0
  -26.4339  -15.9421   19.9758 O   0  0  0  0  0  0  0  0  0  0  0  0
  -24.6223  -12.5691   22.2769 O   0  0  0  0  0  0  0  0  0  0  0  0
  -19.9977  -28.4947   24.3988 O   0  0  0  0  0  0  0  0  0  0  0  0
  -20.3212  -14.5320   21.8675 O   0  0  0  0  0  0  0  0  0  0  0  0
  -20.8808  -26.9977   20.1936 O   0  0  0  0  0  0  0  0  0  0  0  0
  -29.6746  -23.1661   18.3117 O   0  0  0  0  0  0  0  0  0  0  0  0
  -22.9078  -20.6434   20.3471 O   0  0  0  0  0  0  0  0  0  1  0  0
  -27.5352  -18.0881   18.5134 F   0  0  0  0  0  0  0  0  0  0  0  0
  -29.4471  -21.6309   16.0238 F   0  0  0  0  0  0  0  0  0  0  0  0
  1  2  1  0  0  0  0
  1  5  2  0  0  0  0
  2  6  2  0  0  0  0
  3  8  2  0  0  0  0
  3 15  1  0  0  0  0
  4  9  1  0  0  0  0
  4 15  2  0  0  0  0
  5 17  1  0  0  0  0
  6 19  1  0  0  0  0
  7 10  2  0  0  0  0
  7 18  1  0  0  0  0
  8 21  1  0  0  0  0
  9 21  2  0  0  0  0
 10 22  1  0  0  0  0
 11 12  2  0  0  0  0
 11 23  1  0  0  0  0
 12 24  1  0  0  0  0
 13 20  1  0  0  0  0
 13 22  2  0  0  0  0
 14 24  2  0  0  0  0
 14 25  1  0  0  0  0
 15 26  1  0  0  0  0
 16 26  1  0  0  0  0
 16 27  2  0  0  0  0
 16 28  1  0  0  0  0
 17 19  2  0  0  0  0
 17 34  1  0  0  0  0
 18 20  2  0  0  0  0
 18 35  1  0  0  0  0
 19 43  1  0  0  0  0
 20 36  1  0  0  0  0
 21 78  1  0  0  0  0
 22 79  1  0  0  0  0
 23 25  2  0  0  0  0
 23 78  1  0  0  0  0
 24 80  1  0  0  0  0
 25 81  1  0  0  0  0
 26 62  2  0  0  0  0
 27 63  1  0  0  0  0
 27 66  1  0  0  0  0
 28 67  1  0  0  0  0
 28 72  2  0  0  0  0
 29 44  1  0  0  0  0
 29 68  1  0  0  0  0
 29 73  2  0  0  0  0
 30 58  1  0  0  0  0
 30 64  1  0  0  0  0
 30 74  2  0  0  0  0
 31 60  1  0  0  0  0
 31 65  1  0  0  0  0
 31 75  2  0  0  0  0
 32 59  1  0  0  0  0
 32 69  1  0  0  0  0
 32 76  2  0  0  0  0
 33 60  1  0  0  0  0
 33 70  1  0  0  0  0
 33 77  2  0  0  0  0
 34 37  1  0  0  0  0
 35 44  1  0  0  0  0
 36 64  1  0  0  0  0
 37 39  1  0  0  0  0
 38 40  1  0  0  0  0
 38 41  1  0  0  0  0
 39 43  1  0  0  0  0
 40 45  1  0  0  0  0
 41 65  1  0  0  0  0
 42 45  1  0  0  0  0
 42 65  1  0  0  0  0
 43 68  1  0  0  0  0
 44 64  1  0  0  0  0
 45 63  1  0  0  0  0
 46 59  1  0  0  0  0
 47 60  1  0  0  0  0
 48 60  1  0  0  0  0
 49 61  1  0  0  0  0
 50 61  1  0  0  0  0
 51 61  1  0  0  0  0
 52 70  1  0  0  0  0
 53 71  1  0  0  0  0
 54 55  1  0  0  0  0
 54 56  1  0  0  0  0
 55 57  1  0  0  0  0
 56 70  1  0  0  0  0
 57 79  1  0  0  0  0
 58 61  1  0  0  0  0
 58 69  1  0  0  0  0
 59 71  1  0  0  0  0
 62 63  1  0  0  0  0
M  CHG  1  71   1
M  ISO  4  31 100  57 101  60 100  79 101
M  END
> <Batch ID>
0015

> <Smiles>
CNC(C)C(=O)NC(C(=O)N1Cc2cc([101O:1][101CH2:1]CCCN(C)C(=O)[100C:0](C)(C)[100C:0](=O)N3CCCC(n4nc(-c5ccc(Oc6ccc(F)cc6F)cc5)c(C(N)=O)c4N)C3)ccc2CC1C(=O)NC1CCCc2ccccc21)C(C)(C)C

> <Shape>
0.249

> <Color>
0.067

> <Negative vol penalty>
0.000

$$$$

  -OEChem-04052315553D

 86 94  0     1  0  0  0  0  0999 V2000
  -23.4129  -24.4207   19.8498 C   0  0  0  0  0  0  0  0  0  0  0  0
  -24.4683  -24.0429   20.6736 C   0  0  0  0  0  0  0  0  0  0  0  0
  -23.1060   -9.8568   21.4017 C   0  0  0  0  0  0  0  0  0  0  0  0
  -23.8629  -10.6958   23.5372 C   0  0  0  0  0  0  0  0  0  0  0  0
  -22.6676  -25.5597   20.1517 C   0  0  0  0  0  0  0  0  0  0  0  0
  -24.7798  -24.8046   21.7993 C   0  0  0  0  0  0  0  0  0  0  0  0
  -25.6353  -21.9549   25.8972 C   0  0  0  0  0  0  0  0  0  0  0  0
  -22.3854   -8.8544   22.0509 C   0  0  0  0  0  0  0  0  0  0  0  0
  -23.1423   -9.6934   24.1864 C   0  0  0  0  0  0  0  0  0  0  0  0
  -26.8765  -21.3264   25.9879 C   0  0  0  0  0  0  0  0  0  0  0  0
  -23.0246   -5.8695   23.5023 C   0  0  0  0  0  0  0  0  0  0  0  0
  -23.1135   -4.5744   22.9920 C   0  0  0  0  0  0  0  0  0  0  0  0
  -27.6361  -23.0564   27.4877 C   0  0  0  0  0  0  0  0  0  0  0  0
  -31.9530  -17.2438   21.3743 C   0  0  0  0  0  0  0  0  0  0  0  0
  -30.3452  -19.3801   22.1706 C   0  0  0  0  0  0  0  0  0  0  0  0
  -20.7265   -4.5577   22.6189 C   0  0  0  0  0  0  0  0  0  0  0  0
  -23.8448  -10.7775   22.1448 C   0  0  0  0  0  0  0  0  0  0  0  0
  -24.1355  -13.1000   21.1303 C   0  0  0  0  0  0  0  0  0  0  0  0
  -22.9640  -26.3303   21.2870 C   0  0  0  0  0  0  0  0  0  0  0  0
  -25.3883  -23.1467   26.5936 C   0  0  0  0  0  0  0  0  0  0  0  0
  -24.0387  -25.9557   22.1160 C   0  0  0  0  0  0  0  0  0  0  0  0
  -26.3901  -23.6967   27.4062 C   0  0  0  0  0  0  0  0  0  0  0  0
  -32.5356  -18.3974   21.8990 C   0  0  0  0  0  0  0  0  0  0  0  0
  -30.5665  -17.1583   21.2476 C   0  0  0  0  0  0  0  0  0  0  0  0
  -31.7317  -19.4655   22.2972 C   0  0  0  0  0  0  0  0  0  0  0  0
  -22.4035   -8.7727   23.4432 C   0  0  0  0  0  0  0  0  0  0  0  0
  -27.8781  -21.8787   26.7809 C   0  0  0  0  0  0  0  0  0  0  0  0
  -21.7867   -6.5087   23.5710 C   0  0  0  0  0  0  0  0  0  0  0  0
  -29.7626  -18.2264   21.6458 C   0  0  0  0  0  0  0  0  0  0  0  0
  -21.9644   -3.9185   22.5503 C   0  0  0  0  0  0  0  0  0  0  0  0
  -20.6377   -5.8528   23.1293 C   0  0  0  0  0  0  0  0  0  0  0  0
  -24.5899  -11.8129   21.4748 C   0  0  0  0  0  0  0  0  0  0  0  0
  -25.2126  -13.6917   20.5171 C   0  0  0  0  0  0  0  0  0  0  0  0
  -22.8543  -13.7065   21.3456 C   0  0  0  0  0  0  0  0  0  0  0  0
  -24.6543  -26.1237   25.7554 C   0  0  0  0  0  0  0  0  0  0  0  0
  -24.3520  -26.5365   28.9586 C   0  0  0  0  0  0  0  0  0  0  0  0
  -25.1870  -25.5083   32.1039 C   0  0  0  0  0  0  0  0  0  0  0  0
  -30.6563  -14.8366   20.2740 C   0  0  0  0  0  0  0  0  0  0  0  0
  -22.1602  -27.5798   21.5463 C   0  0  0  0  0  0  0  0  0  0  0  0
  -24.0353  -23.7980   26.5064 C   0  0  0  0  0  0  0  0  0  0  0  0
  -26.1688  -24.9636   28.1900 C   0  0  0  0  0  0  0  0  0  0  0  0
  -22.3176  -28.1220   22.9646 C   0  0  0  0  0  0  0  0  0  0  0  0
  -29.5939  -11.7159   18.9288 C   0  0  0  0  0  0  0  0  0  0  0  0
  -23.7894  -28.1525   23.3642 C   0  0  0  0  0  0  0  0  0  0  0  0
  -28.1599  -11.5688   19.4429 C   0  0  0  0  0  0  0  0  0  0  0  0
  -30.5027  -12.3758   19.9643 C   0  0  0  0  0  0  0  0  0  0  0  0
  -28.5798  -13.5080   21.0081 C   0  0  0  0  0  0  0  0  0  0  0  0
  -24.3916  -26.7422   23.3597 C   0  0  1  0  0  0  0  0  0  0  0  0
  -24.0638  -25.2835   26.8523 C   0  0  1  0  0  0  0  0  0  0  0  0
  -27.6121  -12.9074   19.9755 C   0  0  2  0  0  0  0  0  0  0  0  0
  -34.0232  -18.4626   22.0223 C   0  0  0  0  0  0  0  0  0  0  0  0
  -24.8149  -26.0655   34.5222 C   0  0  0  0  0  0  0  0  0  0  0  0
  -26.2830  -28.8860   28.7119 C   0  0  0  0  0  0  0  0  0  0  0  0
  -26.6085  -28.7888   31.1923 C   0  0  0  0  0  0  0  0  0  0  0  0
  -24.3515  -29.2803   30.2507 C   0  0  0  0  0  0  0  0  0  0  0  0
  -32.6728  -21.7341   21.9391 C   0  0  0  0  0  0  0  0  0  0  0  0
  -23.9421  -22.8771   32.6386 C   0  0  0  0  0  0  0  0  0  0  0  0
  -27.6845  -17.6402   22.6425 C   0  0  0  0  0  0  0  0  0  0  0  0
  -31.2813  -21.3579   24.9319 C   0  0  0  0  0  0  0  0  0  0  0  0
  -31.4572  -21.4935   26.4451 C   0  0  0  0  0  0  0  0  0  0  0  0
  -32.5190  -20.7848   24.2465 C   0  0  0  0  0  0  0  0  0  0  0  0
  -30.2241  -22.1041   27.0992 C   0  0  0  0  0  0  0  0  0  1  0  0
  -25.2831  -26.9364   30.0776 C   0  0  1  0  0  0  0  0  0  0  0  0
  -24.3395  -25.2426   33.3350 C   0  0  2  0  0  0  0  0  0  0  0  0
  -25.6367  -28.4500   30.0420 C   0  0  0  0  0  0  0  0  0  0  0  0
  -25.8569  -11.5987   21.1104 N   0  0  0  0  0  0  0  0  0  0  0  0
  -26.2079  -12.7592   20.5306 N   0  0  0  0  0  0  0  0  0  0  0  0
  -24.8312  -25.5664   28.0669 N   0  0  0  0  0  0  0  0  0  0  0  0
  -29.9219  -13.6407   20.4199 N   0  0  0  0  0  0  0  0  0  0  0  0
  -25.3961  -14.9134   19.9729 N   0  0  0  0  0  0  0  0  0  0  0  0
  -21.8607  -12.9579   21.9911 N   0  0  0  0  0  0  0  0  0  0  0  0
  -29.9893  -15.9799   20.7128 N   0  0  0  0  0  0  0  0  0  0  0  0
  -23.9918  -26.0182   24.5474 N   0  0  0  0  0  0  0  0  0  0  0  0
  -24.6448  -26.5008   31.3151 N   0  0  0  0  0  0  0  0  0  0  0  0
  -32.3001  -20.6321   22.8278 N   0  0  3  0  0  0  0  0  0  0  0  0
  -24.4035  -23.8009   33.7066 N   0  3  0  0  0  0  0  0  0  0  0  0
  -22.5931  -14.8719   20.9619 O   0  0  0  0  0  0  0  0  0  0  0  0
  -25.6372  -26.8174   25.9883 O   0  0  0  0  0  0  0  0  0  0  0  0
  -23.2377  -27.0601   28.8828 O   0  0  0  0  0  0  0  0  0  0  0  0
  -26.2279  -24.8991   31.8676 O   0  0  0  0  0  0  0  0  0  0  0  0
  -31.7823  -14.8493   19.7700 O   0  0  0  0  0  0  0  0  0  0  0  0
  -21.7003   -7.7948   24.0771 O   0  0  0  0  0  0  0  0  0  0  0  0
  -28.4059  -18.1636   21.5296 O   0  0  0  0  0  0  0  0  0  0  0  0
  -29.0907  -21.2677   26.8707 O   0  0  0  0  0  0  0  0  0  1  0  0
  -22.0501   -2.6754   22.0589 F   0  0  0  0  0  0  0  0  0  0  0  0
  -19.4458   -6.4622   23.1916 F   0  0  0  0  0  0  0  0  0  0  0  0
  1  2  1  0  0  0  0
  1  5  2  0  0  0  0
  2  6  2  0  0  0  0
  3  8  2  0  0  0  0
  3 17  1  0  0  0  0
  4  9  1  0  0  0  0
  4 17  2  0  0  0  0
  5 19  1  0  0  0  0
  6 21  1  0  0  0  0
  7 10  2  0  0  0  0
  7 20  1  0  0  0  0
  8 26  1  0  0  0  0
  9 26  2  0  0  0  0
 10 27  1  0  0  0  0
 11 12  2  0  0  0  0
 11 28  1  0  0  0  0
 12 30  1  0  0  0  0
 13 22  1  0  0  0  0
 13 27  2  0  0  0  0
 14 23  1  0  0  0  0
 14 24  2  0  0  0  0
 15 25  1  0  0  0  0
 15 29  2  0  0  0  0
 16 30  2  0  0  0  0
 16 31  1  0  0  0  0
 17 32  1  0  0  0  0
 18 32  1  0  0  0  0
 18 33  2  0  0  0  0
 18 34  1  0  0  0  0
 19 21  2  0  0  0  0
 19 39  1  0  0  0  0
 20 22  2  0  0  0  0
 20 40  1  0  0  0  0
 21 48  1  0  0  0  0
 22 41  1  0  0  0  0
 23 25  2  0  0  0  0
 23 51  1  0  0  0  0
 24 29  1  0  0  0  0
 24 72  1  0  0  0  0
 25 75  1  0  0  0  0
 26 82  1  0  0  0  0
 27 84  1  0  0  0  0
 28 31  2  0  0  0  0
 28 82  1  0  0  0  0
 29 83  1  0  0  0  0
 30 85  1  0  0  0  0
 31 86  1  0  0  0  0
 32 66  2  0  0  0  0
 33 67  1  0  0  0  0
 33 70  1  0  0  0  0
 34 71  1  0  0  0  0
 34 77  2  0  0  0  0
 35 49  1  0  0  0  0
 35 73  1  0  0  0  0
 35 78  2  0  0  0  0
 36 63  1  0  0  0  0
 36 68  1  0  0  0  0
 36 79  2  0  0  0  0
 37 64  1  0  0  0  0
 37 74  1  0  0  0  0
 37 80  2  0  0  0  0
 38 69  1  0  0  0  0
 38 72  1  0  0  0  0
 38 81  2  0  0  0  0
 39 42  1  0  0  0  0
 40 49  1  0  0  0  0
 41 68  1  0  0  0  0
 42 44  1  0  0  0  0
 43 45  1  0  0  0  0
 43 46  1  0  0  0  0
 44 48  1  0  0  0  0
 45 50  1  0  0  0  0
 46 69  1  0  0  0  0
 47 50  1  0  0  0  0
 47 69  1  0  0  0  0
 48 73  1  0  0  0  0
 49 68  1  0  0  0  0
 50 67  1  0  0  0  0
 52 64  1  0  0  0  0
 53 65  1  0  0  0  0
 54 65  1  0  0  0  0
 55 65  1  0  0  0  0
 56 75  1  0  0  0  0
 57 76  1  0  0  0  0
 58 83  1  0  0  0  0
 59 60  1  0  0  0  0
 59 61  1  0  0  0  0
 60 62  1  0  0  0  0
 61 75  1  0  0  0  0
 62 84  1  0  0  0  0
 63 65  1  0  0  0  0
 63 74  1  0  0  0  0
 64 76  1  0  0  0  0
 66 67  1  0  0  0  0
M  CHG  1  76   1
M  ISO  4  38 100  62 101  72 100  84 101
M  END
> <Batch ID>
0015

> <Smiles>
CNC(C)C(=O)NC(C(=O)N1Cc2cc([101O:1][101CH2:1]CCCN(C)c3cc(OC)c([100NH:0][100C:0](=O)N4CCCC(n5nc(-c6ccc(Oc7ccc(F)cc7F)cc6)c(C(N)=O)c5N)C4)cc3C)ccc2CC1C(=O)NC1CCCc2ccccc21)C(C)(C)C

> <Shape>
0.173

> <Color>
0.156

> <Negative vol penalty>
0.000

$$$$

  -OEChem-04052315553D

 88 96  0     1  0  0  0  0  0999 V2000
  -23.0384  -37.7026   18.5773 C   0  0  0  0  0  0  0  0  0  0  0  0
  -23.4063  -36.5403   17.9071 C   0  0  0  0  0  0  0  0  0  0  0  0
  -20.9453  -11.1130   23.4529 C   0  0  0  0  0  0  0  0  0  0  0  0
  -23.1815  -10.1983   23.4591 C   0  0  0  0  0  0  0  0  0  0  0  0
  -23.4885  -37.9285   19.8774 C   0  0  0  0  0  0  0  0  0  0  0  0
  -24.2255  -35.6037   18.5363 C   0  0  0  0  0  0  0  0  0  0  0  0
  -25.4049  -28.5456   18.8662 C   0  0  0  0  0  0  0  0  0  0  0  0
  -20.4481   -9.8945   22.9908 C   0  0  0  0  0  0  0  0  0  0  0  0
  -22.6843   -8.9797   22.9970 C   0  0  0  0  0  0  0  0  0  0  0  0
  -26.4416  -27.6203   18.7520 C   0  0  0  0  0  0  0  0  0  0  0  0
  -21.0983   -6.2885   24.2864 C   0  0  0  0  0  0  0  0  0  0  0  0
  -21.5645   -5.1257   24.8995 C   0  0  0  0  0  0  0  0  0  0  0  0
  -27.0942  -28.0796   21.0285 C   0  0  0  0  0  0  0  0  0  0  0  0
  -31.2405  -15.2128   19.6144 C   0  0  0  0  0  0  0  0  0  0  0  0
  -29.2246  -16.5262   19.8343 C   0  0  0  0  0  0  0  0  0  0  0  0
  -22.4250   -4.3522   22.7786 C   0  0  0  0  0  0  0  0  0  0  0  0
  -22.3120  -11.2649   23.6870 C   0  0  0  0  0  0  0  0  0  0  0  0
  -22.9865  -12.9236   25.5041 C   0  0  0  0  0  0  0  0  0  0  0  0
  -24.3058  -36.9896   20.5264 C   0  0  0  0  0  0  0  0  0  0  0  0
  -25.2115  -29.2539   20.0608 C   0  0  0  0  0  0  0  0  0  0  0  0
  -24.6881  -35.8178   19.8459 C   0  0  0  0  0  0  0  0  0  0  0  0
  -26.0528  -29.0114   21.1561 C   0  0  0  0  0  0  0  0  0  0  0  0
  -30.8499  -14.4313   20.7017 C   0  0  0  0  0  0  0  0  0  0  0  0
  -29.6467  -14.6972   21.3553 C   0  0  0  0  0  0  0  0  0  0  0  0
  -30.4278  -16.2604   19.1807 C   0  0  0  0  0  0  0  0  0  0  0  0
  -28.8340  -15.7446   20.9216 C   0  0  0  0  0  0  0  0  0  0  0  0
  -21.3176   -8.8279   22.7628 C   0  0  0  0  0  0  0  0  0  0  0  0
  -27.2882  -27.3893   19.8323 C   0  0  0  0  0  0  0  0  0  0  0  0
  -21.2954   -6.4832   22.9192 C   0  0  0  0  0  0  0  0  0  0  0  0
  -22.2279   -4.1575   24.1457 C   0  0  0  0  0  0  0  0  0  0  0  0
  -21.9588   -5.5151   22.1654 C   0  0  0  0  0  0  0  0  0  0  0  0
  -22.8263  -12.5236   24.1639 C   0  0  0  0  0  0  0  0  0  0  0  0
  -23.5066  -14.1922   25.4240 C   0  0  0  0  0  0  0  0  0  0  0  0
  -22.6915  -12.2119   26.7133 C   0  0  0  0  0  0  0  0  0  0  0  0
  -25.2845  -32.3228   20.8860 C   0  0  0  0  0  0  0  0  0  0  0  0
  -24.2454  -31.1785   23.7378 C   0  0  0  0  0  0  0  0  0  0  0  0
  -24.0322  -28.5462   25.8994 C   0  0  0  0  0  0  0  0  0  0  0  0
  -26.6985  -17.0397   21.2516 C   0  0  0  0  0  0  0  0  0  0  0  0
  -24.8063  -37.2997   21.9149 C   0  0  0  0  0  0  0  0  0  0  0  0
  -24.0722  -30.2291   20.1767 C   0  0  0  0  0  0  0  0  0  0  0  0
  -25.8750  -29.7310   22.4672 C   0  0  0  0  0  0  0  0  0  0  0  0
  -25.3647  -36.0822   22.6471 C   0  0  0  0  0  0  0  0  0  0  0  0
  -23.5540  -18.0475   22.5834 C   0  0  0  0  0  0  0  0  0  0  0  0
  -26.3002  -35.2939   21.7360 C   0  0  0  0  0  0  0  0  0  0  0  0
  -23.0279  -16.7834   23.2671 C   0  0  0  0  0  0  0  0  0  0  0  0
  -24.3099  -17.7233   21.2960 C   0  0  0  0  0  0  0  0  0  0  0  0
  -24.8581  -15.4685   22.1232 C   0  0  0  0  0  0  0  0  0  0  0  0
  -25.5552  -34.7664   20.5038 C   0  0  1  0  0  0  0  0  0  0  0  0
  -24.2851  -31.2693   21.2721 C   0  0  1  0  0  0  0  0  0  0  0  0
  -24.1455  -15.7394   23.4583 C   0  0  2  0  0  0  0  0  0  0  0  0
  -31.7390  -13.3162   21.1464 C   0  0  0  0  0  0  0  0  0  0  0  0
  -29.2327  -13.8562   22.5222 C   0  0  0  0  0  0  0  0  0  0  0  0
  -23.1569  -27.9260   28.1680 C   0  0  0  0  0  0  0  0  0  0  0  0
  -26.5753  -32.6581   25.0387 C   0  0  0  0  0  0  0  0  0  0  0  0
  -26.2239  -31.2654   27.0893 C   0  0  0  0  0  0  0  0  0  0  0  0
  -24.4191  -32.7949   26.2981 C   0  0  0  0  0  0  0  0  0  0  0  0
  -32.0832  -16.7651   17.4016 C   0  0  0  0  0  0  0  0  0  0  0  0
  -22.2260  -26.4923   24.7689 C   0  0  0  0  0  0  0  0  0  0  0  0
  -29.5493  -21.7878   18.9457 C   0  0  0  0  0  0  0  0  0  0  0  0
  -29.3878  -20.5731   18.0291 C   0  0  0  0  0  0  0  0  0  0  0  0
  -28.7107  -22.9692   18.4525 C   0  0  0  0  0  0  0  0  0  0  0  0
  -30.2172  -19.3645   18.4708 C   0  0  0  0  0  0  0  0  0  0  0  0
  -28.8954  -24.1932   19.3469 C   0  0  0  0  0  0  0  0  0  0  0  0
  -29.9977  -18.1282   17.6038 C   0  0  0  0  0  0  0  0  0  0  0  0
  -28.0978  -25.3859   18.8389 C   0  0  0  0  0  0  0  0  0  1  0  0
  -24.9125  -30.6833   24.9983 C   0  0  1  0  0  0  0  0  0  0  0  0
  -22.8609  -27.9737   26.6770 C   0  0  2  0  0  0  0  0  0  0  0  0
  -25.5375  -31.8381   25.8309 C   0  0  0  0  0  0  0  0  0  0  0  0
  -23.2132  -13.4622   23.2959 N   0  0  0  0  0  0  0  0  0  0  0  0
  -23.6215  -14.4646   24.0926 N   0  0  0  0  0  0  0  0  0  0  0  0
  -24.7506  -30.6794   22.5289 N   0  0  0  0  0  0  0  0  0  0  0  0
  -25.3555  -16.7312   21.5550 N   0  0  0  0  0  0  0  0  0  0  0  0
  -23.8721  -15.0903   26.3633 N   0  0  0  0  0  0  0  0  0  0  0  0
  -22.1617  -10.9181   26.6149 N   0  0  0  0  0  0  0  0  0  0  0  0
  -27.6079  -16.0319   21.5711 N   0  0  0  0  0  0  0  0  0  0  0  0
  -24.7665  -33.6033   20.8497 N   0  0  0  0  0  0  0  0  0  0  0  0
  -23.9065  -29.9068   25.7147 N   0  0  0  0  0  0  0  0  0  0  0  0
  -30.8207  -17.0451   18.0875 N   0  0  3  0  0  0  0  0  0  0  0  0
  -22.5581  -26.5900   26.2135 N   0  3  0  0  0  0  0  0  0  0  0  0
  -22.8765  -12.7149   27.8475 O   0  0  0  0  0  0  0  0  0  0  0  0
  -26.4404  -31.9980   20.6406 O   0  0  0  0  0  0  0  0  0  0  0  0
  -23.3058  -31.9732   23.8231 O   0  0  0  0  0  0  0  0  0  0  0  0
  -24.9672  -27.8561   25.4993 O   0  0  0  0  0  0  0  0  0  0  0  0
  -27.0215  -18.1289   20.7708 O   0  0  0  0  0  0  0  0  0  0  0  0
  -20.8327   -7.6386   22.3121 O   0  0  0  0  0  0  0  0  0  0  0  0
  -28.3012  -26.4872   19.7233 O   0  0  0  0  0  0  0  0  0  1  0  0
  -22.6768   -3.0416   24.7350 F   0  0  0  0  0  0  0  0  0  0  0  0
  -22.1522   -5.6971   20.8519 F   0  0  0  0  0  0  0  0  0  0  0  0
  1  2  1  0  0  0  0
  1  5  2  0  0  0  0
  2  6  2  0  0  0  0
  3  8  2  0  0  0  0
  3 17  1  0  0  0  0
  4  9  1  0  0  0  0
  4 17  2  0  0  0  0
  5 19  1  0  0  0  0
  6 21  1  0  0  0  0
  7 10  2  0  0  0  0
  7 20  1  0  0  0  0
  8 27  1  0  0  0  0
  9 27  2  0  0  0  0
 10 28  1  0  0  0  0
 11 12  2  0  0  0  0
 11 29  1  0  0  0  0
 12 30  1  0  0  0  0
 13 22  1  0  0  0  0
 13 28  2  0  0  0  0
 14 23  2  0  0  0  0
 14 25  1  0  0  0  0
 15 25  2  0  0  0  0
 15 26  1  0  0  0  0
 16 30  2  0  0  0  0
 16 31  1  0  0  0  0
 17 32  1  0  0  0  0
 18 32  1  0  0  0  0
 18 33  2  0  0  0  0
 18 34  1  0  0  0  0
 19 21  2  0  0  0  0
 19 39  1  0  0  0  0
 20 22  2  0  0  0  0
 20 40  1  0  0  0  0
 21 48  1  0  0  0  0
 22 41  1  0  0  0  0
 23 24  1  0  0  0  0
 23 51  1  0  0  0  0
 24 26  2  0  0  0  0
 24 52  1  0  0  0  0
 25 78  1  0  0  0  0
 26 75  1  0  0  0  0
 27 85  1  0  0  0  0
 28 86  1  0  0  0  0
 29 31  2  0  0  0  0
 29 85  1  0  0  0  0
 30 87  1  0  0  0  0
 31 88  1  0  0  0  0
 32 69  2  0  0  0  0
 33 70  1  0  0  0  0
 33 73  1  0  0  0  0
 34 74  1  0  0  0  0
 34 80  2  0  0  0  0
 35 49  1  0  0  0  0
 35 76  1  0  0  0  0
 35 81  2  0  0  0  0
 36 66  1  0  0  0  0
 36 71  1  0  0  0  0
 36 82  2  0  0  0  0
 37 67  1  0  0  0  0
 37 77  1  0  0  0  0
 37 83  2  0  0  0  0
 38 72  1  0  0  0  0
 38 75  1  0  0  0  0
 38 84  2  0  0  0  0
 39 42  1  0  0  0  0
 40 49  1  0  0  0  0
 41 71  1  0  0  0  0
 42 44  1  0  0  0  0
 43 45  1  0  0  0  0
 43 46  1  0  0  0  0
 44 48  1  0  0  0  0
 45 50  1  0  0  0  0
 46 72  1  0  0  0  0
 47 50  1  0  0  0  0
 47 72  1  0  0  0  0
 48 76  1  0  0  0  0
 49 71  1  0  0  0  0
 50 70  1  0  0  0  0
 53 67  1  0  0  0  0
 54 68  1  0  0  0  0
 55 68  1  0  0  0  0
 56 68  1  0  0  0  0
 57 78  1  0  0  0  0
 58 79  1  0  0  0  0
 59 60  1  0  0  0  0
 59 61  1  0  0  0  0
 60 62  1  0  0  0  0
 61 63  1  0  0  0  0
 62 64  1  0  0  0  0
 63 65  1  0  0  0  0
 64 78  1  0  0  0  0
 65 86  1  0  0  0  0
 66 68  1  0  0  0  0
 66 77  1  0  0  0  0
 67 79  1  0  0  0  0
 69 70  1  0  0  0  0
M  CHG  1  79   1
M  ISO  4  38 100  65 101  75 100  86 101
M  END
> <Batch ID>
0015

> <Smiles>
CNC(C)C(=O)NC(C(=O)N1Cc2cc([101O:1][101CH2:1]CCCCCCN(C)c3cc(C)c(C)c([100NH:0][100C:0](=O)N4CCCC(n5nc(-c6ccc(Oc7ccc(F)cc7F)cc6)c(C(N)=O)c5N)C4)c3)ccc2CC1C(=O)NC1CCCc2ccccc21)C(C)(C)C

> <Shape>
0.224

> <Color>
0.096

> <Negative vol penalty>
0.000

$$$$

  -OEChem-04052315553D

 85 93  0     1  0  0  0  0  0999 V2000
  -18.7834  -26.6933   20.4271 C   0  0  0  0  0  0  0  0  0  0  0  0
  -19.4636  -26.5359   21.6305 C   0  0  0  0  0  0  0  0  0  0  0  0
  -23.1168   -9.7988   20.0386 C   0  0  0  0  0  0  0  0  0  0  0  0
  -23.8431   -9.9501   22.3378 C   0  0  0  0  0  0  0  0  0  0  0  0
  -19.2688  -26.0875   19.2690 C   0  0  0  0  0  0  0  0  0  0  0  0
  -20.6291  -25.7717   21.6765 C   0  0  0  0  0  0  0  0  0  0  0  0
  -26.9328  -25.4024   25.0594 C   0  0  0  0  0  0  0  0  0  0  0  0
  -22.3888   -8.6490   20.3442 C   0  0  0  0  0  0  0  0  0  0  0  0
  -23.1150   -8.8003   22.6435 C   0  0  0  0  0  0  0  0  0  0  0  0
  -27.7232  -24.4991   25.7687 C   0  0  0  0  0  0  0  0  0  0  0  0
  -20.0480   -5.8791   20.5974 C   0  0  0  0  0  0  0  0  0  0  0  0
  -18.7506   -5.7804   20.0950 C   0  0  0  0  0  0  0  0  0  0  0  0
  -28.5114  -23.5649   23.6891 C   0  0  0  0  0  0  0  0  0  0  0  0
  -31.4121  -19.6023   22.5219 C   0  0  0  0  0  0  0  0  0  0  0  0
  -18.1340   -7.7854   21.2937 C   0  0  0  0  0  0  0  0  0  0  0  0
  -23.8441  -10.4494   21.0354 C   0  0  0  0  0  0  0  0  0  0  0  0
  -24.1454  -12.9691   20.7752 C   0  0  0  0  0  0  0  0  0  0  0  0
  -20.4461  -25.3235   19.2989 C   0  0  0  0  0  0  0  0  0  0  0  0
  -26.9175  -25.3864   23.6572 C   0  0  0  0  0  0  0  0  0  0  0  0
  -21.1300  -25.1541   20.5179 C   0  0  0  0  0  0  0  0  0  0  0  0
  -27.7220  -24.4707   22.9642 C   0  0  0  0  0  0  0  0  0  0  0  0
  -31.3141  -19.2967   21.1645 C   0  0  0  0  0  0  0  0  0  0  0  0
  -30.5755  -17.4048   23.0772 C   0  0  0  0  0  0  0  0  0  0  0  0
  -31.0429  -18.6564   23.4783 C   0  0  0  0  0  0  0  0  0  0  0  0
  -30.4774  -17.0992   21.7198 C   0  0  0  0  0  0  0  0  0  0  0  0
  -22.3878   -8.1497   21.6467 C   0  0  0  0  0  0  0  0  0  0  0  0
  -28.5104  -23.5783   25.0836 C   0  0  0  0  0  0  0  0  0  0  0  0
  -20.3885   -6.9309   21.4480 C   0  0  0  0  0  0  0  0  0  0  0  0
  -17.7935   -6.7336   20.4431 C   0  0  0  0  0  0  0  0  0  0  0  0
  -19.4315   -7.8841   21.7961 C   0  0  0  0  0  0  0  0  0  0  0  0
  -30.8467  -18.0451   20.7634 C   0  0  0  0  0  0  0  0  0  0  0  0
  -24.5968  -11.6368   20.7202 C   0  0  0  0  0  0  0  0  0  0  0  0
  -25.2300  -13.7156   20.3844 C   0  0  0  0  0  0  0  0  0  0  0  0
  -22.8605  -13.4857   21.1466 C   0  0  0  0  0  0  0  0  0  0  0  0
  -24.6956  -24.8682   21.4440 C   0  0  0  0  0  0  0  0  0  0  0  0
  -27.0722  -25.7337   19.4130 C   0  0  0  0  0  0  0  0  0  0  0  0
  -30.4220  -26.0298   18.8318 C   0  0  0  0  0  0  0  0  0  0  0  0
  -30.6749  -14.8649   20.5728 C   0  0  0  0  0  0  0  0  0  0  0  0
  -20.9061  -24.6489   18.0308 C   0  0  0  0  0  0  0  0  0  0  0  0
  -26.0799  -26.3851   22.9065 C   0  0  0  0  0  0  0  0  0  0  0  0
  -27.7567  -24.4259   21.4591 C   0  0  0  0  0  0  0  0  0  0  0  0
  -22.3527  -24.1647   18.0887 C   0  0  0  0  0  0  0  0  0  0  0  0
  -29.6355  -12.3006   18.3321 C   0  0  0  0  0  0  0  0  0  0  0  0
  -22.6170  -23.4278   19.3979 C   0  0  0  0  0  0  0  0  0  0  0  0
  -28.1948  -12.0089   18.7582 C   0  0  0  0  0  0  0  0  0  0  0  0
  -30.5291  -12.6137   19.5309 C   0  0  0  0  0  0  0  0  0  0  0  0
  -28.5904  -13.3824   20.8424 C   0  0  0  0  0  0  0  0  0  0  0  0
  -22.4111  -24.3532   20.6032 C   0  0  1  0  0  0  0  0  0  0  0  0
  -25.7487  -25.9391   21.4856 C   0  0  1  0  0  0  0  0  0  0  0  0
  -27.6378  -13.1251   19.6634 C   0  0  2  0  0  0  0  0  0  0  0  0
  -31.7218  -20.3415   20.1760 C   0  0  0  0  0  0  0  0  0  0  0  0
  -30.1804  -16.3925   24.1082 C   0  0  0  0  0  0  0  0  0  0  0  0
  -32.0603  -26.7324   17.0656 C   0  0  0  0  0  0  0  0  0  0  0  0
  -26.5712  -23.1239   17.9137 C   0  0  0  0  0  0  0  0  0  0  0  0
  -28.7905  -23.4224   16.7939 C   0  0  0  0  0  0  0  0  0  0  0  0
  -26.9838  -25.1070   16.4469 C   0  0  0  0  0  0  0  0  0  0  0  0
  -32.4470  -19.3435   25.4061 C   0  0  0  0  0  0  0  0  0  0  0  0
  -31.5296  -28.1723   20.5471 C   0  0  0  0  0  0  0  0  0  0  0  0
  -29.7364  -20.3879   26.2529 C   0  0  0  0  0  0  0  0  0  0  0  0
  -29.9900  -18.9902   25.7010 C   0  0  0  0  0  0  0  0  0  0  0  0
  -29.5281  -21.4302   25.1605 C   0  0  0  0  0  0  0  0  0  1  0  0
  -28.1692  -25.0025   18.6776 C   0  0  1  0  0  0  0  0  0  0  0  0
  -31.2505  -27.1734   18.2748 C   0  0  2  0  0  0  0  0  0  0  0  0
  -27.6268  -24.1632   17.4864 C   0  0  0  0  0  0  0  0  0  0  0  0
  -25.8690  -11.5394   20.3252 N   0  0  0  0  0  0  0  0  0  0  0  0
  -26.2263  -12.8199   20.1286 N   0  0  0  0  0  0  0  0  0  0  0  0
  -26.9155  -25.4186   20.7702 N   0  0  0  0  0  0  0  0  0  0  0  0
  -29.9403  -13.6830   20.3400 N   0  0  0  0  0  0  0  0  0  0  0  0
  -25.4192  -15.0442   20.2379 N   0  0  0  0  0  0  0  0  0  0  0  0
  -21.8591  -12.5797   21.5218 N   0  0  0  0  0  0  0  0  0  0  0  0
  -30.0004  -15.8238   21.3279 N   0  0  0  0  0  0  0  0  0  0  0  0
  -23.5487  -25.2330   20.7649 N   0  0  0  0  0  0  0  0  0  0  0  0
  -29.1506  -26.0132   18.2985 N   0  0  0  0  0  0  0  0  0  0  0  0
  -31.1464  -18.9841   24.8378 N   0  0  3  0  0  0  0  0  0  0  0  0
  -32.1926  -27.6831   19.3109 N   0  3  0  0  0  0  0  0  0  0  0  0
  -22.6030  -14.7133   21.1300 O   0  0  0  0  0  0  0  0  0  0  0  0
  -24.9083  -23.7902   21.9865 O   0  0  0  0  0  0  0  0  0  0  0  0
  -26.3845  -26.5595   18.8074 O   0  0  0  0  0  0  0  0  0  0  0  0
  -30.8602  -25.2289   19.6547 O   0  0  0  0  0  0  0  0  0  0  0  0
  -31.8077  -15.0264   20.1116 O   0  0  0  0  0  0  0  0  0  0  0  0
  -21.6773   -7.0279   21.9453 O   0  0  0  0  0  0  0  0  0  0  0  0
  -29.2823  -22.6951   25.7736 O   0  0  0  0  0  0  0  0  0  1  0  0
  -16.5480   -6.6396   19.9594 F   0  0  0  0  0  0  0  0  0  0  0  0
  -19.7529   -8.8974   22.6120 F   0  0  0  0  0  0  0  0  0  0  0  0
  -30.7304  -17.6743   19.0734 Cl  0  0  0  0  0  0  0  0  0  0  0  0
  1  2  1  0  0  0  0
  1  5  2  0  0  0  0
  2  6  2  0  0  0  0
  3  8  2  0  0  0  0
  3 16  1  0  0  0  0
  4  9  1  0  0  0  0
  4 16  2  0  0  0  0
  5 18  1  0  0  0  0
  6 20  1  0  0  0  0
  7 10  2  0  0  0  0
  7 19  1  0  0  0  0
  8 26  1  0  0  0  0
  9 26  2  0  0  0  0
 10 27  1  0  0  0  0
 11 12  2  0  0  0  0
 11 28  1  0  0  0  0
 12 29  1  0  0  0  0
 13 21  1  0  0  0  0
 13 27  2  0  0  0  0
 14 22  2  0  0  0  0
 14 24  1  0  0  0  0
 15 29  2  0  0  0  0
 15 30  1  0  0  0  0
 16 32  1  0  0  0  0
 17 32  1  0  0  0  0
 17 33  2  0  0  0  0
 17 34  1  0  0  0  0
 18 20  2  0  0  0  0
 18 39  1  0  0  0  0
 19 21  2  0  0  0  0
 19 40  1  0  0  0  0
 20 48  1  0  0  0  0
 21 41  1  0  0  0  0
 22 31  1  0  0  0  0
 22 51  1  0  0  0  0
 23 24  2  0  0  0  0
 23 25  1  0  0  0  0
 23 52  1  0  0  0  0
 24 74  1  0  0  0  0
 25 31  2  0  0  0  0
 25 71  1  0  0  0  0
 26 81  1  0  0  0  0
 27 82  1  0  0  0  0
 28 30  2  0  0  0  0
 28 81  1  0  0  0  0
 29 83  1  0  0  0  0
 30 84  1  0  0  0  0
 31 85  1  0  0  0  0
 32 65  2  0  0  0  0
 33 66  1  0  0  0  0
 33 69  1  0  0  0  0
 34 70  1  0  0  0  0
 34 76  2  0  0  0  0
 35 49  1  0  0  0  0
 35 72  1  0  0  0  0
 35 77  2  0  0  0  0
 36 62  1  0  0  0  0
 36 67  1  0  0  0  0
 36 78  2  0  0  0  0
 37 63  1  0  0  0  0
 37 73  1  0  0  0  0
 37 79  2  0  0  0  0
 38 68  1  0  0  0  0
 38 71  1  0  0  0  0
 38 80  2  0  0  0  0
 39 42  1  0  0  0  0
 40 49  1  0  0  0  0
 41 67  1  0  0  0  0
 42 44  1  0  0  0  0
 43 45  1  0  0  0  0
 43 46  1  0  0  0  0
 44 48  1  0  0  0  0
 45 50  1  0  0  0  0
 46 68  1  0  0  0  0
 47 50  1  0  0  0  0
 47 68  1  0  0  0  0
 48 72  1  0  0  0  0
 49 67  1  0  0  0  0
 50 66  1  0  0  0  0
 53 63  1  0  0  0  0
 54 64  1  0  0  0  0
 55 64  1  0  0  0  0
 56 64  1  0  0  0  0
 57 74  1  0  0  0  0
 58 75  1  0  0  0  0
 59 60  1  0  0  0  0
 59 61  1  0  0  0  0
 60 74  1  0  0  0  0
 61 82  1  0  0  0  0
 62 64  1  0  0  0  0
 62 73  1  0  0  0  0
 63 75  1  0  0  0  0
 65 66  1  0  0  0  0
M  CHG  1  75   1
M  ISO  4  38 100  61 101  71 100  82 101
M  END
> <Batch ID>
0015

> <Smiles>
CNC(C)C(=O)NC(C(=O)N1Cc2cc([101O:1][101CH2:1]CCN(C)c3cc(C)c(Cl)c([100NH:0][100C:0](=O)N4CCCC(n5nc(-c6ccc(Oc7ccc(F)cc7F)cc6)c(C(N)=O)c5N)C4)c3C)ccc2CC1C(=O)NC1CCCc2ccccc21)C(C)(C)C

> <Shape>
0.228

> <Color>
0.222

> <Negative vol penalty>
0.000

$$$$

  -OEChem-04052315553D

 88 96  0     1  0  0  0  0  0999 V2000
  -27.2230  -24.0390   17.1594 C   0  0  0  0  0  0  0  0  0  0  0  0
  -26.0692  -24.4506   17.8188 C   0  0  0  0  0  0  0  0  0  0  0  0
  -27.2103  -17.4878   22.2787 C   0  0  0  0  0  0  0  0  0  0  0  0
  -25.1628  -18.5085   21.5023 C   0  0  0  0  0  0  0  0  0  0  0  0
  -28.4748  -24.3994   17.6565 C   0  0  0  0  0  0  0  0  0  0  0  0
  -26.1666  -25.2221   18.9763 C   0  0  0  0  0  0  0  0  0  0  0  0
  -22.9245  -29.1122   18.9970 C   0  0  0  0  0  0  0  0  0  0  0  0
  -26.8118  -16.2696   21.7284 C   0  0  0  0  0  0  0  0  0  0  0  0
  -24.7642  -17.2903   20.9520 C   0  0  0  0  0  0  0  0  0  0  0  0
  -21.5942  -28.8307   19.3051 C   0  0  0  0  0  0  0  0  0  0  0  0
  -23.3702  -14.5377   19.0290 C   0  0  0  0  0  0  0  0  0  0  0  0
  -22.8342  -14.5513   17.7413 C   0  0  0  0  0  0  0  0  0  0  0  0
  -21.9598  -29.6030   21.5610 C   0  0  0  0  0  0  0  0  0  0  0  0
  -19.3924  -24.5737   27.3625 C   0  0  0  0  0  0  0  0  0  0  0  0
  -24.8953  -15.4840   16.8933 C   0  0  0  0  0  0  0  0  0  0  0  0
  -26.3858  -18.6072   22.1657 C   0  0  0  0  0  0  0  0  0  0  0  0
  -27.5414  -20.8807   22.1042 C   0  0  0  0  0  0  0  0  0  0  0  0
  -28.5874  -25.1838   18.8152 C   0  0  0  0  0  0  0  0  0  0  0  0
  -23.7867  -29.6318   19.9732 C   0  0  0  0  0  0  0  0  0  0  0  0
  -27.4211  -25.5922   19.4901 C   0  0  0  0  0  0  0  0  0  0  0  0
  -23.2999  -29.8926   21.2620 C   0  0  0  0  0  0  0  0  0  0  0  0
  -20.0845  -25.0389   26.2445 C   0  0  0  0  0  0  0  0  0  0  0  0
  -22.0818  -23.9188   27.0148 C   0  0  0  0  0  0  0  0  0  0  0  0
  -25.5887  -16.1709   21.0650 C   0  0  0  0  0  0  0  0  0  0  0  0
  -21.1124  -29.0734   20.5881 C   0  0  0  0  0  0  0  0  0  0  0  0
  -24.6687  -14.9973   19.2489 C   0  0  0  0  0  0  0  0  0  0  0  0
  -23.5968  -15.0244   16.6734 C   0  0  0  0  0  0  0  0  0  0  0  0
  -20.0449  -23.7810   28.3068 C   0  0  0  0  0  0  0  0  0  0  0  0
  -25.4313  -15.4704   18.1810 C   0  0  0  0  0  0  0  0  0  0  0  0
  -21.4292  -24.7115   26.0706 C   0  0  0  0  0  0  0  0  0  0  0  0
  -21.3896  -23.4536   28.1329 C   0  0  0  0  0  0  0  0  0  0  0  0
  -26.7967  -19.8657   22.7344 C   0  0  0  0  0  0  0  0  0  0  0  0
  -27.6657  -21.8592   23.0600 C   0  0  0  0  0  0  0  0  0  0  0  0
  -28.0731  -20.9342   20.7737 C   0  0  0  0  0  0  0  0  0  0  0  0
  -26.4675  -28.6336   21.3591 C   0  0  0  0  0  0  0  0  0  0  0  0
  -26.4125  -31.5861   22.7015 C   0  0  0  0  0  0  0  0  0  0  0  0
  -24.5787  -34.3027   23.6523 C   0  0  0  0  0  0  0  0  0  0  0  0
  -24.3928  -23.3413   27.8345 C   0  0  0  0  0  0  0  0  0  0  0  0
  -29.9631  -25.5086   19.3411 C   0  0  0  0  0  0  0  0  0  0  0  0
  -25.2119  -29.9551   19.6174 C   0  0  0  0  0  0  0  0  0  0  0  0
  -24.1794  -30.4688   22.3404 C   0  0  0  0  0  0  0  0  0  0  0  0
  -29.9725  -26.6426   20.3630 C   0  0  0  0  0  0  0  0  0  0  0  0
  -27.8411  -22.4549   27.8085 C   0  0  0  0  0  0  0  0  0  0  0  0
  -28.8687  -26.4394   21.3960 C   0  0  0  0  0  0  0  0  0  0  0  0
  -28.0338  -21.7881   26.4445 C   0  0  0  0  0  0  0  0  0  0  0  0
  -26.4790  -22.1223   28.4150 C   0  0  0  0  0  0  0  0  0  0  0  0
  -25.5211  -21.7274   26.1799 C   0  0  0  0  0  0  0  0  0  0  0  0
  -27.4853  -26.4507   20.7346 C   0  0  1  0  0  0  0  0  0  0  0  0
  -26.1352  -30.0005   20.8311 C   0  0  1  0  0  0  0  0  0  0  0  0
  -26.8527  -22.0856   25.5000 C   0  0  2  0  0  0  0  0  0  0  0  0
  -24.8061  -36.5439   24.7580 C   0  0  0  0  0  0  0  0  0  0  0  0
  -26.6563  -30.2184   25.4182 C   0  0  0  0  0  0  0  0  0  0  0  0
  -25.9308  -32.3639   26.4854 C   0  0  0  0  0  0  0  0  0  0  0  0
  -28.0436  -32.2834   25.1615 C   0  0  0  0  0  0  0  0  0  0  0  0
  -16.9364  -27.0178   24.1572 C   0  0  0  0  0  0  0  0  0  0  0  0
  -16.7426  -25.0286   22.6355 C   0  0  0  0  0  0  0  0  0  0  0  0
  -23.6030  -35.7193   21.2440 C   0  0  0  0  0  0  0  0  0  0  0  0
  -19.3791  -25.8913   25.2311 C   0  0  0  0  0  0  0  0  0  0  0  0
  -18.1216  -27.1047   21.0661 C   0  0  0  0  0  0  0  0  0  0  0  0
  -18.7198  -26.5676   22.3699 C   0  0  0  0  0  0  0  0  0  0  0  0
  -19.1932  -27.7295   20.1802 C   0  0  0  0  0  0  0  0  0  1  0  0
  -25.8223  -32.1781   23.9586 C   0  0  1  0  0  0  0  0  0  0  0  0
  -24.7956  -35.7897   23.4375 C   0  0  2  0  0  0  0  0  0  0  0  0
  -26.5969  -31.7483   25.2364 C   0  0  0  0  0  0  0  0  0  0  0  0
  -17.7136  -25.9599   23.3710 C   0  0  0  0  0  0  0  0  0  0  0  0
  -26.4711  -20.1711   23.9932 N   0  0  0  0  0  0  0  0  0  0  0  0
  -27.0137  -21.3890   24.1618 N   0  0  0  0  0  0  0  0  0  0  0  0
  -25.5669  -30.7621   21.9452 N   0  0  0  0  0  0  0  0  0  0  0  0
  -25.4085  -22.4341   27.4655 N   0  0  0  0  0  0  0  0  0  0  0  0
  -28.2682  -23.0672   23.0571 N   0  0  0  0  0  0  0  0  0  0  0  0
  -27.8531  -19.8432   19.9219 N   0  0  0  0  0  0  0  0  0  0  0  0
  -23.4475  -23.5848   26.8387 N   0  0  0  0  0  0  0  0  0  0  0  0
  -27.0791  -27.8072   20.4358 N   0  0  0  0  0  0  0  0  0  0  0  0
  -25.7733  -33.6206   23.7465 N   0  0  0  0  0  0  0  0  0  0  0  0
  -23.7122  -36.3531   22.5831 N   0  3  0  0  0  0  0  0  0  0  0  0
  -18.4593  -25.1192   24.3621 N   0  3  0  0  0  0  0  0  0  0  0  0
  -28.7380  -21.9133   20.3581 O   0  0  0  0  0  0  0  0  0  0  0  0
  -26.1909  -28.3502   22.5187 O   0  0  0  0  0  0  0  0  0  0  0  0
  -27.5784  -31.8509   22.3979 O   0  0  0  0  0  0  0  0  0  0  0  0
  -23.4612  -33.7973   23.7326 O   0  0  0  0  0  0  0  0  0  0  0  0
  -24.3790  -23.8846   28.9421 O   0  0  0  0  0  0  0  0  0  0  0  0
  -25.1996  -14.9824   20.5278 O   0  0  0  0  0  0  0  0  0  0  0  0
  -19.8146  -28.7990   20.8918 O   0  0  0  0  0  0  0  0  0  1  0  0
  -23.0825  -15.0360   15.4367 F   0  0  0  0  0  0  0  0  0  0  0  0
  -19.3803  -23.3340   29.3805 F   0  0  0  0  0  0  0  0  0  0  0  0
  -26.6798  -15.9121   18.3859 F   0  0  0  0  0  0  0  0  0  0  0  0
  -22.0926  -25.1579   24.9932 F   0  0  0  0  0  0  0  0  0  0  0  0
  -22.0057  -22.6892   29.0459 F   0  0  0  0  0  0  0  0  0  0  0  0
  1  2  1  0  0  0  0
  1  5  2  0  0  0  0
  2  6  2  0  0  0  0
  3  8  2  0  0  0  0
  3 16  1  0  0  0  0
  4  9  1  0  0  0  0
  4 16  2  0  0  0  0
  5 18  1  0  0  0  0
  6 20  1  0  0  0  0
  7 10  2  0  0  0  0
  7 19  1  0  0  0  0
  8 24  1  0  0  0  0
  9 24  2  0  0  0  0
 10 25  1  0  0  0  0
 11 12  2  0  0  0  0
 11 26  1  0  0  0  0
 12 27  1  0  0  0  0
 13 21  1  0  0  0  0
 13 25  2  0  0  0  0
 14 22  1  0  0  0  0
 14 28  2  0  0  0  0
 15 27  2  0  0  0  0
 15 29  1  0  0  0  0
 16 32  1  0  0  0  0
 17 32  1  0  0  0  0
 17 33  2  0  0  0  0
 17 34  1  0  0  0  0
 18 20  2  0  0  0  0
 18 39  1  0  0  0  0
 19 21  2  0  0  0  0
 19 40  1  0  0  0  0
 20 48  1  0  0  0  0
 21 41  1  0  0  0  0
 22 30  2  0  0  0  0
 22 58  1  0  0  0  0
 23 30  1  0  0  0  0
 23 31  2  0  0  0  0
 23 72  1  0  0  0  0
 24 82  1  0  0  0  0
 25 83  1  0  0  0  0
 26 29  2  0  0  0  0
 26 82  1  0  0  0  0
 27 84  1  0  0  0  0
 28 31  1  0  0  0  0
 28 85  1  0  0  0  0
 29 86  1  0  0  0  0
 30 87  1  0  0  0  0
 31 88  1  0  0  0  0
 32 66  2  0  0  0  0
 33 67  1  0  0  0  0
 33 70  1  0  0  0  0
 34 71  1  0  0  0  0
 34 77  2  0  0  0  0
 35 49  1  0  0  0  0
 35 73  1  0  0  0  0
 35 78  2  0  0  0  0
 36 62  1  0  0  0  0
 36 68  1  0  0  0  0
 36 79  2  0  0  0  0
 37 63  1  0  0  0  0
 37 74  1  0  0  0  0
 37 80  2  0  0  0  0
 38 69  1  0  0  0  0
 38 72  1  0  0  0  0
 38 81  2  0  0  0  0
 39 42  1  0  0  0  0
 40 49  1  0  0  0  0
 41 68  1  0  0  0  0
 42 44  1  0  0  0  0
 43 45  1  0  0  0  0
 43 46  1  0  0  0  0
 44 48  1  0  0  0  0
 45 50  1  0  0  0  0
 46 69  1  0  0  0  0
 47 50  1  0  0  0  0
 47 69  1  0  0  0  0
 48 73  1  0  0  0  0
 49 68  1  0  0  0  0
 50 67  1  0  0  0  0
 51 63  1  0  0  0  0
 52 64  1  0  0  0  0
 53 64  1  0  0  0  0
 54 64  1  0  0  0  0
 55 65  1  0  0  0  0
 56 65  1  0  0  0  0
 57 75  1  0  0  0  0
 58 76  1  0  0  0  0
 59 60  1  0  0  0  0
 59 61  1  0  0  0  0
 60 65  1  0  0  0  0
 61 83  1  0  0  0  0
 62 64  1  0  0  0  0
 62 74  1  0  0  0  0
 63 75  1  0  0  0  0
 65 76  1  0  0  0  0
 66 67  1  0  0  0  0
M  CHG  2  75   1  76   1
M  ISO  4  38 100  61 101  72 100  83 101
M  END
> <Batch ID>
0015

> <Smiles>
CNC(C)C(=O)NC(C(=O)N1Cc2cc([101O:1][101CH2:1]CCC(C)(C)NCc3cc(F)c(F)c([100NH:0][100C:0](=O)N4CCCC(n5nc(-c6ccc(Oc7ccc(F)cc7F)cc6)c(C(N)=O)c5N)C4)c3F)ccc2CC1C(=O)NC1CCCc2ccccc21)C(C)(C)C

> <Shape>
0.230

> <Color>
0.069

> <Negative vol penalty>
0.000

$$$$

  -OEChem-04052315553D

 89 97  0     1  0  0  0  0  0999 V2000
  -19.1121  -30.6251   25.0510 C   0  0  0  0  0  0  0  0  0  0  0  0
  -20.4565  -30.2936   24.9169 C   0  0  0  0  0  0  0  0  0  0  0  0
  -24.3241  -14.7640   20.3044 C   0  0  0  0  0  0  0  0  0  0  0  0
  -26.2006  -14.8979   21.8204 C   0  0  0  0  0  0  0  0  0  0  0  0
  -18.1453  -29.9104   24.3450 C   0  0  0  0  0  0  0  0  0  0  0  0
  -20.8349  -29.2464   24.0775 C   0  0  0  0  0  0  0  0  0  0  0  0
  -25.9289  -28.8953   20.6962 C   0  0  0  0  0  0  0  0  0  0  0  0
  -33.0000  -22.4513   19.7544 C   0  0  0  0  0  0  0  0  0  0  0  0
  -31.6308  -22.3116   19.5277 C   0  0  0  0  0  0  0  0  0  0  0  0
  -24.5020  -13.3841   20.2062 C   0  0  0  0  0  0  0  0  0  0  0  0
  -26.3784  -13.5179   21.7222 C   0  0  0  0  0  0  0  0  0  0  0  0
  -27.1502  -28.2555   20.9036 C   0  0  0  0  0  0  0  0  0  0  0  0
  -23.7844  -10.6425   22.0505 C   0  0  0  0  0  0  0  0  0  0  0  0
  -22.6503   -9.8350   22.1362 C   0  0  0  0  0  0  0  0  0  0  0  0
  -26.3776  -26.3737   19.6070 C   0  0  0  0  0  0  0  0  0  0  0  0
  -32.7648  -21.3164   21.8743 C   0  0  0  0  0  0  0  0  0  0  0  0
  -23.1007   -8.9679   19.9266 C   0  0  0  0  0  0  0  0  0  0  0  0
  -25.1735  -15.5210   21.1115 C   0  0  0  0  0  0  0  0  0  0  0  0
  -24.1904  -17.6370   22.1429 C   0  0  0  0  0  0  0  0  0  0  0  0
  -18.5128  -28.8602   23.4891 C   0  0  0  0  0  0  0  0  0  0  0  0
  -24.9172  -28.2734   19.9506 C   0  0  0  0  0  0  0  0  0  0  0  0
  -19.8720  -28.5161   23.3604 C   0  0  0  0  0  0  0  0  0  0  0  0
  -25.1454  -27.0088   19.3895 C   0  0  0  0  0  0  0  0  0  0  0  0
  -33.5670  -21.9536   20.9277 C   0  0  0  0  0  0  0  0  0  0  0  0
  -31.3956  -21.1768   21.6476 C   0  0  0  0  0  0  0  0  0  0  0  0
  -30.8286  -21.6745   20.4743 C   0  0  0  0  0  0  0  0  0  0  0  0
  -25.5291  -12.7610   20.9150 C   0  0  0  0  0  0  0  0  0  0  0  0
  -27.3736  -26.9933   20.3614 C   0  0  0  0  0  0  0  0  0  0  0  0
  -24.5767  -10.6127   20.9028 C   0  0  0  0  0  0  0  0  0  0  0  0
  -22.3085   -8.9977   21.0743 C   0  0  0  0  0  0  0  0  0  0  0  0
  -24.2348   -9.7754   19.8409 C   0  0  0  0  0  0  0  0  0  0  0  0
  -24.9906  -16.9466   21.2130 C   0  0  0  0  0  0  0  0  0  0  0  0
  -24.3563  -18.9620   21.8218 C   0  0  0  0  0  0  0  0  0  0  0  0
  -23.3704  -17.1261   23.2023 C   0  0  0  0  0  0  0  0  0  0  0  0
  -21.9576  -27.2912   20.5671 C   0  0  0  0  0  0  0  0  0  0  0  0
  -21.9070  -26.6987   17.3782 C   0  0  0  0  0  0  0  0  0  0  0  0
  -33.7052  -25.1637   21.3664 C   0  0  0  0  0  0  0  0  0  0  0  0
  -30.9505  -26.5012   20.1843 C   0  0  0  0  0  0  0  0  0  0  0  0
  -23.6612  -26.0462   14.5245 C   0  0  0  0  0  0  0  0  0  0  0  0
  -28.7362  -21.9868   19.1066 C   0  0  0  0  0  0  0  0  0  0  0  0
  -17.4282  -28.0858   22.7830 C   0  0  0  0  0  0  0  0  0  0  0  0
  -23.6152  -28.9882   19.7135 C   0  0  0  0  0  0  0  0  0  0  0  0
  -24.0991  -26.3069   18.5642 C   0  0  0  0  0  0  0  0  0  0  0  0
  -17.9430  -27.2335   21.6258 C   0  0  0  0  0  0  0  0  0  0  0  0
  -25.3238  -21.8215   18.1040 C   0  0  0  0  0  0  0  0  0  0  0  0
  -19.1847  -26.4544   22.0478 C   0  0  0  0  0  0  0  0  0  0  0  0
  -24.7767  -20.6191   18.8768 C   0  0  0  0  0  0  0  0  0  0  0  0
  -26.7637  -21.5945   17.6470 C   0  0  0  0  0  0  0  0  0  0  0  0
  -27.1502  -19.9971   19.4823 C   0  0  0  0  0  0  0  0  0  0  0  0
  -20.3240  -27.4028   22.4404 C   0  0  1  0  0  0  0  0  0  0  0  0
  -22.4683  -28.0426   19.3703 C   0  0  1  0  0  0  0  0  0  0  0  0
  -25.7247  -20.2048   20.0193 C   0  0  2  0  0  0  0  0  0  0  0  0
  -30.5598  -20.4925   22.6804 C   0  0  0  0  0  0  0  0  0  0  0  0
  -23.3420  -25.5712   12.0811 C   0  0  0  0  0  0  0  0  0  0  0  0
  -21.0370  -23.8518   18.0478 C   0  0  0  0  0  0  0  0  0  0  0  0
  -21.6515  -23.1892   15.7129 C   0  0  0  0  0  0  0  0  0  0  0  0
  -19.8517  -24.8732   16.0969 C   0  0  0  0  0  0  0  0  0  0  0  0
  -35.9434  -25.1345   20.2387 C   0  0  0  0  0  0  0  0  0  0  0  0
  -25.1865  -28.4573   13.7377 C   0  0  0  0  0  0  0  0  0  0  0  0
  -35.0479  -22.1068   21.1738 C   0  0  0  0  0  0  0  0  0  0  0  0
  -33.4107  -26.3991   20.5339 C   0  0  0  0  0  0  0  0  0  0  0  0
  -29.7160  -27.1943   20.7203 C   0  0  0  0  0  0  0  0  0  1  0  0
  -35.3995  -23.4008   21.9039 C   0  0  0  0  0  0  0  0  0  0  0  0
  -22.2617  -25.5201   16.5041 C   0  0  1  0  0  0  0  0  0  0  0  0
  -23.5781  -26.6449   13.1319 C   0  0  2  0  0  0  0  0  0  0  0  0
  -21.2197  -24.3707   16.6076 C   0  0  0  0  0  0  0  0  0  0  0  0
  -25.6182  -17.7654   20.3646 N   0  0  0  0  0  0  0  0  0  0  0  0
  -25.2123  -18.9839   20.7602 N   0  0  0  0  0  0  0  0  0  0  0  0
  -22.8403  -27.0441   18.3659 N   0  0  0  0  0  0  0  0  0  0  0  0
  -27.6042  -21.2093   18.7828 N   0  0  0  0  0  0  0  0  0  0  0  0
  -23.8520  -20.0989   22.3467 N   0  0  0  0  0  0  0  0  0  0  0  0
  -23.3137  -15.7389   23.3938 N   0  0  0  0  0  0  0  0  0  0  0  0
  -29.4399  -21.5427   20.2256 N   0  0  0  0  0  0  0  0  0  0  0  0
  -20.9578  -27.9477   21.2590 N   0  0  0  0  0  0  0  0  0  0  0  0
  -32.0959  -26.9067   20.8511 N   0  0  0  0  0  0  0  0  0  0  0  0
  -22.4354  -26.0495   15.1558 N   0  0  0  0  0  0  0  0  0  0  0  0
  -34.9666  -24.5881   21.1776 N   0  0  0  0  0  0  0  0  0  0  0  0
  -24.8433  -27.3586   12.7986 N   0  3  0  0  0  0  0  0  0  0  0  0
  -22.6947  -17.8767   23.9464 O   0  0  0  0  0  0  0  0  0  0  0  0
  -22.4344  -26.1962   20.8415 O   0  0  0  0  0  0  0  0  0  0  0  0
  -20.8445  -27.2954   17.1869 O   0  0  0  0  0  0  0  0  0  0  0  0
  -32.8662  -24.7182   22.1538 O   0  0  0  0  0  0  0  0  0  0  0  0
  -30.9089  -25.6846   19.2681 O   0  0  0  0  0  0  0  0  0  0  0  0
  -24.7080  -25.6151   15.0028 O   0  0  0  0  0  0  0  0  0  0  0  0
  -29.0421  -22.9897   18.4566 O   0  0  0  0  0  0  0  0  0  0  0  0
  -25.7028  -11.4144   20.8196 O   0  0  0  0  0  0  0  0  0  0  0  0
  -28.5645  -26.3663   20.5629 O   0  0  0  0  0  0  0  0  0  1  0  0
  -21.2202   -8.2212   21.1573 F   0  0  0  0  0  0  0  0  0  0  0  0
  -24.9927   -9.7417   18.7362 F   0  0  0  0  0  0  0  0  0  0  0  0
  1  2  1  0  0  0  0
  1  5  2  0  0  0  0
  2  6  2  0  0  0  0
  3 10  2  0  0  0  0
  3 18  1  0  0  0  0
  4 11  1  0  0  0  0
  4 18  2  0  0  0  0
  5 20  1  0  0  0  0
  6 22  1  0  0  0  0
  7 12  2  0  0  0  0
  7 21  1  0  0  0  0
  8  9  2  0  0  0  0
  8 24  1  0  0  0  0
  9 26  1  0  0  0  0
 10 27  1  0  0  0  0
 11 27  2  0  0  0  0
 12 28  1  0  0  0  0
 13 14  2  0  0  0  0
 13 29  1  0  0  0  0
 14 30  1  0  0  0  0
 15 23  1  0  0  0  0
 15 28  2  0  0  0  0
 16 24  2  0  0  0  0
 16 25  1  0  0  0  0
 17 30  2  0  0  0  0
 17 31  1  0  0  0  0
 18 32  1  0  0  0  0
 19 32  1  0  0  0  0
 19 33  2  0  0  0  0
 19 34  1  0  0  0  0
 20 22  2  0  0  0  0
 20 41  1  0  0  0  0
 21 23  2  0  0  0  0
 21 42  1  0  0  0  0
 22 50  1  0  0  0  0
 23 43  1  0  0  0  0
 24 60  1  0  0  0  0
 25 26  2  0  0  0  0
 25 53  1  0  0  0  0
 26 73  1  0  0  0  0
 27 86  1  0  0  0  0
 28 87  1  0  0  0  0
 29 31  2  0  0  0  0
 29 86  1  0  0  0  0
 30 88  1  0  0  0  0
 31 89  1  0  0  0  0
 32 67  2  0  0  0  0
 33 68  1  0  0  0  0
 33 71  1  0  0  0  0
 34 72  1  0  0  0  0
 34 79  2  0  0  0  0
 35 51  1  0  0  0  0
 35 74  1  0  0  0  0
 35 80  2  0  0  0  0
 36 64  1  0  0  0  0
 36 69  1  0  0  0  0
 36 81  2  0  0  0  0
 37 61  1  0  0  0  0
 37 77  1  0  0  0  0
 37 82  2  0  0  0  0
 38 62  1  0  0  0  0
 38 75  1  0  0  0  0
 38 83  2  0  0  0  0
 39 65  1  0  0  0  0
 39 76  1  0  0  0  0
 39 84  2  0  0  0  0
 40 70  1  0  0  0  0
 40 73  1  0  0  0  0
 40 85  2  0  0  0  0
 41 44  1  0  0  0  0
 42 51  1  0  0  0  0
 43 69  1  0  0  0  0
 44 46  1  0  0  0  0
 45 47  1  0  0  0  0
 45 48  1  0  0  0  0
 46 50  1  0  0  0  0
 47 52  1  0  0  0  0
 48 70  1  0  0  0  0
 49 52  1  0  0  0  0
 49 70  1  0  0  0  0
 50 74  1  0  0  0  0
 51 69  1  0  0  0  0
 52 68  1  0  0  0  0
 54 65  1  0  0  0  0
 55 66  1  0  0  0  0
 56 66  1  0  0  0  0
 57 66  1  0  0  0  0
 58 77  1  0  0  0  0
 59 78  1  0  0  0  0
 60 63  1  0  0  0  0
 61 75  1  0  0  0  0
 62 87  1  0  0  0  0
 63 77  1  0  0  0  0
 64 66  1  0  0  0  0
 64 76  1  0  0  0  0
 65 78  1  0  0  0  0
 67 68  1  0  0  0  0
M  CHG  1  78   1
M  ISO  4  40 100  62 101  73 100  87 101
M  END
> <Batch ID>
0015

> <Smiles>
CNC(C)C(=O)NC(C(=O)N1Cc2cc([101O:1][101CH2:1]C(=O)NCC(=O)N(C)CCc3ccc([100NH:0][100C:0](=O)N4CCCC(n5nc(-c6ccc(Oc7ccc(F)cc7F)cc6)c(C(N)=O)c5N)C4)c(C)c3)ccc2CC1C(=O)NC1CCCc2ccccc21)C(C)(C)C

> <Shape>
0.218

> <Color>
0.105

> <Negative vol penalty>
0.000

$$$$

  -OEChem-04052315553D

 85 93  0     1  0  0  0  0  0999 V2000
  -24.8640  -35.7551   15.7471 C   0  0  0  0  0  0  0  0  0  0  0  0
  -25.0115  -34.3726   15.6998 C   0  0  0  0  0  0  0  0  0  0  0  0
  -23.3485  -10.3038   21.6079 C   0  0  0  0  0  0  0  0  0  0  0  0
  -22.6860  -12.4252   22.5553 C   0  0  0  0  0  0  0  0  0  0  0  0
  -25.2178  -36.4537   16.9007 C   0  0  0  0  0  0  0  0  0  0  0  0
  -25.5141  -33.6879   16.8058 C   0  0  0  0  0  0  0  0  0  0  0  0
  -23.9219  -28.0872   18.7038 C   0  0  0  0  0  0  0  0  0  0  0  0
  -22.3644   -9.6610   22.3588 C   0  0  0  0  0  0  0  0  0  0  0  0
  -21.7018  -11.7825   23.3062 C   0  0  0  0  0  0  0  0  0  0  0  0
  -24.5091  -26.8350   18.5280 C   0  0  0  0  0  0  0  0  0  0  0  0
  -21.9493   -8.6164   25.5464 C   0  0  0  0  0  0  0  0  0  0  0  0
  -22.3033   -7.4388   26.2048 C   0  0  0  0  0  0  0  0  0  0  0  0
  -25.5995  -27.0524   20.6688 C   0  0  0  0  0  0  0  0  0  0  0  0
  -30.5703  -19.1912   20.3053 C   0  0  0  0  0  0  0  0  0  0  0  0
  -28.8457  -20.5083   18.5521 C   0  0  0  0  0  0  0  0  0  0  0  0
  -20.6192   -6.2357   24.9584 C   0  0  0  0  0  0  0  0  0  0  0  0
  -23.5094  -11.6859   21.7061 C   0  0  0  0  0  0  0  0  0  0  0  0
  -24.3933  -12.8872   19.6365 C   0  0  0  0  0  0  0  0  0  0  0  0
  -25.7158  -35.7762   18.0248 C   0  0  0  0  0  0  0  0  0  0  0  0
  -24.1781  -28.8374   19.8605 C   0  0  0  0  0  0  0  0  0  0  0  0
  -25.8761  -34.3783   17.9750 C   0  0  0  0  0  0  0  0  0  0  0  0
  -25.0122  -28.3127   20.8581 C   0  0  0  0  0  0  0  0  0  0  0  0
  -30.7417  -20.5515   20.0489 C   0  0  0  0  0  0  0  0  0  0  0  0
  -29.5366  -18.4894   19.6850 C   0  0  0  0  0  0  0  0  0  0  0  0
  -29.8794  -21.2101   19.1723 C   0  0  0  0  0  0  0  0  0  0  0  0
  -21.5410  -10.4003   23.2079 C   0  0  0  0  0  0  0  0  0  0  0  0
  -25.3504  -26.3187   19.5092 C   0  0  0  0  0  0  0  0  0  0  0  0
  -20.9302   -8.6037   24.5940 C   0  0  0  0  0  0  0  0  0  0  0  0
  -28.6743  -19.1480   18.8085 C   0  0  0  0  0  0  0  0  0  0  0  0
  -21.6383   -6.2485   25.9108 C   0  0  0  0  0  0  0  0  0  0  0  0
  -20.2652   -7.4133   24.3000 C   0  0  0  0  0  0  0  0  0  0  0  0
  -24.5262  -12.3504   20.9311 C   0  0  0  0  0  0  0  0  0  0  0  0
  -25.6333  -13.4035   19.3499 C   0  0  0  0  0  0  0  0  0  0  0  0
  -23.2509  -12.9166   18.7705 C   0  0  0  0  0  0  0  0  0  0  0  0
  -25.5107  -31.6617   20.4529 C   0  0  0  0  0  0  0  0  0  0  0  0
  -24.5309  -31.0513   23.4843 C   0  0  0  0  0  0  0  0  0  0  0  0
  -23.6533  -28.7381   25.8350 C   0  0  0  0  0  0  0  0  0  0  0  0
  -30.1511  -16.3164   20.8017 C   0  0  0  0  0  0  0  0  0  0  0  0
  -26.1292  -36.5796   19.2324 C   0  0  0  0  0  0  0  0  0  0  0  0
  -23.5156  -30.1748   20.0471 C   0  0  0  0  0  0  0  0  0  0  0  0
  -25.3032  -29.0695   22.1273 C   0  0  0  0  0  0  0  0  0  0  0  0
  -26.3021  -35.7377   20.4940 C   0  0  0  0  0  0  0  0  0  0  0  0
  -30.0533  -12.8894   21.7626 C   0  0  0  0  0  0  0  0  0  0  0  0
  -27.1119  -34.4812   20.1904 C   0  0  0  0  0  0  0  0  0  0  0  0
  -28.5957  -12.4878   21.5254 C   0  0  0  0  0  0  0  0  0  0  0  0
  -30.1697  -14.3211   22.2827 C   0  0  0  0  0  0  0  0  0  0  0  0
  -28.0263  -14.9327   21.2335 C   0  0  0  0  0  0  0  0  0  0  0  0
  -26.3944  -33.5972   19.1631 C   0  0  1  0  0  0  0  0  0  0  0  0
  -24.2545  -31.0753   21.0323 C   0  0  1  0  0  0  0  0  0  0  0  0
  -27.8623  -13.5208   20.6476 C   0  0  2  0  0  0  0  0  0  0  0  0
  -31.8578  -21.2785   20.7259 C   0  0  0  0  0  0  0  0  0  0  0  0
  -22.9379  -28.5393   28.2321 C   0  0  0  0  0  0  0  0  0  0  0  0
  -27.4034  -31.5556   24.3810 C   0  0  0  0  0  0  0  0  0  0  0  0
  -26.8480  -30.4392   26.5520 C   0  0  0  0  0  0  0  0  0  0  0  0
  -25.6558  -32.5260   25.8839 C   0  0  0  0  0  0  0  0  0  0  0  0
  -30.8883  -23.0118   17.7953 C   0  0  0  0  0  0  0  0  0  0  0  0
  -21.0695  -27.5065   25.0827 C   0  0  0  0  0  0  0  0  0  0  0  0
  -26.4039  -18.4425   18.8676 C   0  0  0  0  0  0  0  0  0  0  0  0
  -27.9741  -23.8648   19.1301 C   0  0  0  0  0  0  0  0  0  0  0  0
  -29.3622  -23.5815   19.6913 C   0  0  0  0  0  0  0  0  0  0  0  0
  -27.1977  -24.8876   19.9513 C   0  0  0  0  0  0  0  0  0  1  0  0
  -25.1341  -30.3624   24.6845 C   0  0  1  0  0  0  0  0  0  0  0  0
  -22.4748  -28.6689   26.7894 C   0  0  2  0  0  0  0  0  0  0  0  0
  -26.2566  -31.2071   25.3507 C   0  0  0  0  0  0  0  0  0  0  0  0
  -25.7539  -12.5106   21.4322 N   0  0  0  0  0  0  0  0  0  0  0  0
  -26.4037  -13.1539   20.4473 N   0  0  0  0  0  0  0  0  0  0  0  0
  -24.6369  -30.3755   22.2604 N   0  0  0  0  0  0  0  0  0  0  0  0
  -29.4548  -15.2442   21.3987 N   0  0  0  0  0  0  0  0  0  0  0  0
  -26.1290  -14.0419   18.2687 N   0  0  0  0  0  0  0  0  0  0  0  0
  -22.0554  -12.3409   19.2218 N   0  0  0  0  0  0  0  0  0  0  0  0
  -29.3752  -17.1079   19.9554 N   0  0  0  0  0  0  0  0  0  0  0  0
  -25.3197  -32.8607   19.7930 N   0  0  0  0  0  0  0  0  0  0  0  0
  -24.0219  -30.0405   25.5722 N   0  0  0  0  0  0  0  0  0  0  0  0
  -30.0362  -22.5775   18.9039 N   0  0  3  0  0  0  0  0  0  0  0  0
  -21.6137  -27.4966   26.4650 N   0  3  0  0  0  0  0  0  0  0  0  0
  -23.2938  -13.4235   17.6239 O   0  0  0  0  0  0  0  0  0  0  0  0
  -26.5749  -31.0709   20.5953 O   0  0  0  0  0  0  0  0  0  0  0  0
  -23.9795  -32.1453   23.6287 O   0  0  0  0  0  0  0  0  0  0  0  0
  -24.1953  -27.7368   25.3722 O   0  0  0  0  0  0  0  0  0  0  0  0
  -31.3540  -16.5015   21.0034 O   0  0  0  0  0  0  0  0  0  0  0  0
  -20.5804   -9.7735   23.9407 O   0  0  0  0  0  0  0  0  0  0  0  0
  -27.6586  -18.4804   18.1913 O   0  0  0  0  0  0  0  0  0  0  0  0
  -25.9254  -25.0970   19.3399 O   0  0  0  0  0  0  0  0  0  1  0  0
  -21.9794   -5.1174   26.5420 F   0  0  0  0  0  0  0  0  0  0  0  0
  -19.2862   -7.3946   23.3852 F   0  0  0  0  0  0  0  0  0  0  0  0
  1  2  1  0  0  0  0
  1  5  2  0  0  0  0
  2  6  2  0  0  0  0
  3  8  2  0  0  0  0
  3 17  1  0  0  0  0
  4  9  1  0  0  0  0
  4 17  2  0  0  0  0
  5 19  1  0  0  0  0
  6 21  1  0  0  0  0
  7 10  2  0  0  0  0
  7 20  1  0  0  0  0
  8 26  1  0  0  0  0
  9 26  2  0  0  0  0
 10 27  1  0  0  0  0
 11 12  2  0  0  0  0
 11 28  1  0  0  0  0
 12 30  1  0  0  0  0
 13 22  1  0  0  0  0
 13 27  2  0  0  0  0
 14 23  1  0  0  0  0
 14 24  2  0  0  0  0
 15 25  1  0  0  0  0
 15 29  2  0  0  0  0
 16 30  2  0  0  0  0
 16 31  1  0  0  0  0
 17 32  1  0  0  0  0
 18 32  1  0  0  0  0
 18 33  2  0  0  0  0
 18 34  1  0  0  0  0
 19 21  2  0  0  0  0
 19 39  1  0  0  0  0
 20 22  2  0  0  0  0
 20 40  1  0  0  0  0
 21 48  1  0  0  0  0
 22 41  1  0  0  0  0
 23 25  2  0  0  0  0
 23 51  1  0  0  0  0
 24 29  1  0  0  0  0
 24 71  1  0  0  0  0
 25 74  1  0  0  0  0
 26 81  1  0  0  0  0
 27 83  1  0  0  0  0
 28 31  2  0  0  0  0
 28 81  1  0  0  0  0
 29 82  1  0  0  0  0
 30 84  1  0  0  0  0
 31 85  1  0  0  0  0
 32 65  2  0  0  0  0
 33 66  1  0  0  0  0
 33 69  1  0  0  0  0
 34 70  1  0  0  0  0
 34 76  2  0  0  0  0
 35 49  1  0  0  0  0
 35 72  1  0  0  0  0
 35 77  2  0  0  0  0
 36 62  1  0  0  0  0
 36 67  1  0  0  0  0
 36 78  2  0  0  0  0
 37 63  1  0  0  0  0
 37 73  1  0  0  0  0
 37 79  2  0  0  0  0
 38 68  1  0  0  0  0
 38 71  1  0  0  0  0
 38 80  2  0  0  0  0
 39 42  1  0  0  0  0
 40 49  1  0  0  0  0
 41 67  1  0  0  0  0
 42 44  1  0  0  0  0
 43 45  1  0  0  0  0
 43 46  1  0  0  0  0
 44 48  1  0  0  0  0
 45 50  1  0  0  0  0
 46 68  1  0  0  0  0
 47 50  1  0  0  0  0
 47 68  1  0  0  0  0
 48 72  1  0  0  0  0
 49 67  1  0  0  0  0
 50 66  1  0  0  0  0
 52 63  1  0  0  0  0
 53 64  1  0  0  0  0
 54 64  1  0  0  0  0
 55 64  1  0  0  0  0
 56 74  1  0  0  0  0
 57 75  1  0  0  0  0
 58 82  1  0  0  0  0
 59 60  1  0  0  0  0
 59 61  1  0  0  0  0
 60 74  1  0  0  0  0
 61 83  1  0  0  0  0
 62 64  1  0  0  0  0
 62 73  1  0  0  0  0
 63 75  1  0  0  0  0
 65 66  1  0  0  0  0
M  CHG  1  75   1
M  ISO  4  38 100  61 101  71 100  83 101
M  END
> <Batch ID>
0015

> <Smiles>
CNC(C)C(=O)NC(C(=O)N1Cc2cc([101O:1][101CH2:1]CCN(C)c3cc(OC)c([100NH:0][100C:0](=O)N4CCCC(n5nc(-c6ccc(Oc7ccc(F)cc7F)cc6)c(C(N)=O)c5N)C4)cc3C)ccc2CC1C(=O)NC1CCCc2ccccc21)C(C)(C)C

> <Shape>
0.266

> <Color>
0.074

> <Negative vol penalty>
0.000

$$$$

  -OEChem-04052315553D

 87 95  0     1  0  0  0  0  0999 V2000
  -17.8222  -27.6638   18.3189 C   0  0  0  0  0  0  0  0  0  0  0  0
  -19.1551  -27.2757   18.2289 C   0  0  0  0  0  0  0  0  0  0  0  0
  -29.3085  -11.8715   23.2608 C   0  0  0  0  0  0  0  0  0  0  0  0
  -29.0700  -13.8599   24.6123 C   0  0  0  0  0  0  0  0  0  0  0  0
  -17.5004  -29.0036   18.5318 C   0  0  0  0  0  0  0  0  0  0  0  0
  -20.1670  -28.2274   18.3507 C   0  0  0  0  0  0  0  0  0  0  0  0
  -25.6754  -27.4375   20.9080 C   0  0  0  0  0  0  0  0  0  0  0  0
  -30.0364  -11.2636   24.2837 C   0  0  0  0  0  0  0  0  0  0  0  0
  -29.7979  -13.2520   25.6351 C   0  0  0  0  0  0  0  0  0  0  0  0
  -26.9328  -27.1766   20.3653 C   0  0  0  0  0  0  0  0  0  0  0  0
  -29.2413  -10.9838   28.0776 C   0  0  0  0  0  0  0  0  0  0  0  0
  -28.7514  -11.1021   29.3782 C   0  0  0  0  0  0  0  0  0  0  0  0
  -27.4426  -29.5336   20.4288 C   0  0  0  0  0  0  0  0  0  0  0  0
  -29.3684  -22.8241   21.3773 C   0  0  0  0  0  0  0  0  0  0  0  0
  -30.7920  -12.2100   30.0459 C   0  0  0  0  0  0  0  0  0  0  0  0
  -28.8253  -13.1697   23.4251 C   0  0  0  0  0  0  0  0  0  0  0  0
  -26.6795  -13.7606   22.1786 C   0  0  0  0  0  0  0  0  0  0  0  0
  -18.5090  -29.9707   18.6659 C   0  0  0  0  0  0  0  0  0  0  0  0
  -25.2874  -28.7518   21.2056 C   0  0  0  0  0  0  0  0  0  0  0  0
  -19.8583  -29.5815   18.5642 C   0  0  0  0  0  0  0  0  0  0  0  0
  -26.1807  -29.8082   20.9777 C   0  0  0  0  0  0  0  0  0  0  0  0
  -30.6238  -23.2837   20.9794 C   0  0  0  0  0  0  0  0  0  0  0  0
  -29.6972  -20.8082   20.0868 C   0  0  0  0  0  0  0  0  0  0  0  0
  -30.2811  -11.9538   25.4708 C   0  0  0  0  0  0  0  0  0  0  0  0
  -27.8156  -28.2250   20.1229 C   0  0  0  0  0  0  0  0  0  0  0  0
  -30.5065  -11.4784   27.7611 C   0  0  0  0  0  0  0  0  0  0  0  0
  -29.5267  -11.7152   30.3624 C   0  0  0  0  0  0  0  0  0  0  0  0
  -28.9051  -21.5863   20.9311 C   0  0  0  0  0  0  0  0  0  0  0  0
  -31.2818  -12.0916   28.7453 C   0  0  0  0  0  0  0  0  0  0  0  0
  -31.4159  -22.5055   20.1351 C   0  0  0  0  0  0  0  0  0  0  0  0
  -30.9526  -21.2678   19.6889 C   0  0  0  0  0  0  0  0  0  0  0  0
  -28.0738  -13.7984   22.3687 C   0  0  0  0  0  0  0  0  0  0  0  0
  -26.4671  -14.5066   21.0451 C   0  0  0  0  0  0  0  0  0  0  0  0
  -25.6667  -13.1095   22.9571 C   0  0  0  0  0  0  0  0  0  0  0  0
  -22.9815  -30.6929   20.1962 C   0  0  0  0  0  0  0  0  0  0  0  0
  -24.1201  -32.6273   22.5380 C   0  0  0  0  0  0  0  0  0  0  0  0
  -31.0370  -25.7160   20.4086 C   0  0  0  0  0  0  0  0  0  0  0  0
  -26.7350  -33.5235   24.5396 C   0  0  0  0  0  0  0  0  0  0  0  0
  -29.5311  -18.9191   18.4285 C   0  0  0  0  0  0  0  0  0  0  0  0
  -18.1113  -31.4141   18.8479 C   0  0  0  0  0  0  0  0  0  0  0  0
  -23.9376  -29.0137   21.8156 C   0  0  0  0  0  0  0  0  0  0  0  0
  -25.8201  -31.2349   21.2985 C   0  0  0  0  0  0  0  0  0  0  0  0
  -19.2508  -32.3025   19.3401 C   0  0  0  0  0  0  0  0  0  0  0  0
  -28.6071  -15.8084   16.9634 C   0  0  0  0  0  0  0  0  0  0  0  0
  -20.5219  -32.0320   18.5413 C   0  0  0  0  0  0  0  0  0  0  0  0
  -28.2328  -14.9384   18.1655 C   0  0  0  0  0  0  0  0  0  0  0  0
  -29.7830  -16.7321   17.2760 C   0  0  0  0  0  0  0  0  0  0  0  0
  -29.2453  -16.6902   19.6798 C   0  0  0  0  0  0  0  0  0  0  0  0
  -20.9848  -30.5806   18.7159 C   0  0  1  0  0  0  0  0  0  0  0  0
  -23.4525  -30.4442   21.6012 C   0  0  1  0  0  0  0  0  0  0  0  0
  -28.0241  -15.7892   19.4337 C   0  0  2  0  0  0  0  0  0  0  0  0
  -27.3756  -35.1647   26.3266 C   0  0  0  0  0  0  0  0  0  0  0  0
  -24.3788  -34.8180   20.4300 C   0  0  0  0  0  0  0  0  0  0  0  0
  -25.8681  -36.0653   22.0094 C   0  0  0  0  0  0  0  0  0  0  0  0
  -23.5007  -35.5946   22.6392 C   0  0  0  0  0  0  0  0  0  0  0  0
  -31.9531  -27.2920   22.1469 C   0  0  0  0  0  0  0  0  0  0  0  0
  -27.2568  -31.3656   26.4966 C   0  0  0  0  0  0  0  0  0  0  0  0
  -31.1218  -24.6232   21.4639 C   0  0  0  0  0  0  0  0  0  0  0  0
  -31.4246  -28.1222   19.8885 C   0  0  0  0  0  0  0  0  0  0  0  0
  -30.1004  -28.8622   19.9510 C   0  0  0  0  0  0  0  0  0  1  0  0
  -25.1772  -33.7022   22.6171 C   0  0  1  0  0  0  0  0  0  0  0  0
  -26.8181  -33.7805   26.0334 C   0  0  2  0  0  0  0  0  0  0  0  0
  -24.7376  -35.0185   21.9160 C   0  0  0  0  0  0  0  0  0  0  0  0
  -28.7029  -14.5118   21.4309 N   0  0  0  0  0  0  0  0  0  0  0  0
  -27.6992  -14.9291   20.6406 N   0  0  0  0  0  0  0  0  0  0  0  0
  -24.4866  -31.4406   21.8876 N   0  0  0  0  0  0  0  0  0  0  0  0
  -29.5125  -17.5095   18.4873 N   0  0  0  0  0  0  0  0  0  0  0  0
  -25.3485  -14.8356   20.3647 N   0  0  0  0  0  0  0  0  0  0  0  0
  -26.0584  -12.3849   24.0911 N   0  0  0  0  0  0  0  0  0  0  0  0
  -29.2271  -19.5505   19.6342 N   0  0  0  0  0  0  0  0  0  0  0  0
  -21.6442  -30.4106   19.9929 N   0  0  0  0  0  0  0  0  0  0  0  0
  -25.4970  -33.8569   24.0321 N   0  0  0  0  0  0  0  0  0  0  0  0
  -31.4562  -27.0047   20.7943 N   0  0  0  0  0  0  0  0  0  0  0  0
  -27.7002  -32.7710   26.6843 N   0  3  0  0  0  0  0  0  0  0  0  0
  -24.4522  -13.1548   22.6469 O   0  0  0  0  0  0  0  0  0  0  0  0
  -23.7725  -31.1115   19.3590 O   0  0  0  0  0  0  0  0  0  0  0  0
  -23.0123  -32.8304   23.0413 O   0  0  0  0  0  0  0  0  0  0  0  0
  -30.6182  -25.4656   19.2749 O   0  0  0  0  0  0  0  0  0  0  0  0
  -27.6755  -33.0756   23.8874 O   0  0  0  0  0  0  0  0  0  0  0  0
  -29.7704  -19.5218   17.3790 O   0  0  0  0  0  0  0  0  0  0  0  0
  -30.9911  -11.3609   26.4692 O   0  0  0  0  0  0  0  0  0  0  0  0
  -29.0433  -27.9731   19.5926 O   0  0  0  0  0  0  0  0  0  1  0  0
  -29.0556  -11.8302   31.6109 F   0  0  0  0  0  0  0  0  0  0  0  0
  -27.6963  -21.1550   21.3191 F   0  0  0  0  0  0  0  0  0  0  0  0
  -32.4976  -12.5699   28.4470 F   0  0  0  0  0  0  0  0  0  0  0  0
  -32.6232  -22.9391   19.7469 F   0  0  0  0  0  0  0  0  0  0  0  0
  -31.7224  -20.5284   18.8778 F   0  0  0  0  0  0  0  0  0  0  0  0
  1  2  1  0  0  0  0
  1  5  2  0  0  0  0
  2  6  2  0  0  0  0
  3  8  2  0  0  0  0
  3 16  1  0  0  0  0
  4  9  1  0  0  0  0
  4 16  2  0  0  0  0
  5 18  1  0  0  0  0
  6 20  1  0  0  0  0
  7 10  2  0  0  0  0
  7 19  1  0  0  0  0
  8 24  1  0  0  0  0
  9 24  2  0  0  0  0
 10 25  1  0  0  0  0
 11 12  2  0  0  0  0
 11 26  1  0  0  0  0
 12 27  1  0  0  0  0
 13 21  1  0  0  0  0
 13 25  2  0  0  0  0
 14 22  1  0  0  0  0
 14 28  2  0  0  0  0
 15 27  2  0  0  0  0
 15 29  1  0  0  0  0
 16 32  1  0  0  0  0
 17 32  1  0  0  0  0
 17 33  2  0  0  0  0
 17 34  1  0  0  0  0
 18 20  2  0  0  0  0
 18 40  1  0  0  0  0
 19 21  2  0  0  0  0
 19 41  1  0  0  0  0
 20 49  1  0  0  0  0
 21 42  1  0  0  0  0
 22 30  2  0  0  0  0
 22 58  1  0  0  0  0
 23 28  1  0  0  0  0
 23 31  2  0  0  0  0
 23 70  1  0  0  0  0
 24 81  1  0  0  0  0
 25 82  1  0  0  0  0
 26 29  2  0  0  0  0
 26 81  1  0  0  0  0
 27 83  1  0  0  0  0
 28 84  1  0  0  0  0
 29 85  1  0  0  0  0
 30 31  1  0  0  0  0
 30 86  1  0  0  0  0
 31 87  1  0  0  0  0
 32 64  2  0  0  0  0
 33 65  1  0  0  0  0
 33 68  1  0  0  0  0
 34 69  1  0  0  0  0
 34 75  2  0  0  0  0
 35 50  1  0  0  0  0
 35 71  1  0  0  0  0
 35 76  2  0  0  0  0
 36 61  1  0  0  0  0
 36 66  1  0  0  0  0
 36 77  2  0  0  0  0
 37 58  1  0  0  0  0
 37 73  1  0  0  0  0
 37 78  2  0  0  0  0
 38 62  1  0  0  0  0
 38 72  1  0  0  0  0
 38 79  2  0  0  0  0
 39 67  1  0  0  0  0
 39 70  1  0  0  0  0
 39 80  2  0  0  0  0
 40 43  1  0  0  0  0
 41 50  1  0  0  0  0
 42 66  1  0  0  0  0
 43 45  1  0  0  0  0
 44 46  1  0  0  0  0
 44 47  1  0  0  0  0
 45 49  1  0  0  0  0
 46 51  1  0  0  0  0
 47 67  1  0  0  0  0
 48 51  1  0  0  0  0
 48 67  1  0  0  0  0
 49 71  1  0  0  0  0
 50 66  1  0  0  0  0
 51 65  1  0  0  0  0
 52 62  1  0  0  0  0
 53 63  1  0  0  0  0
 54 63  1  0  0  0  0
 55 63  1  0  0  0  0
 56 73  1  0  0  0  0
 57 74  1  0  0  0  0
 59 60  1  0  0  0  0
 59 73  1  0  0  0  0
 60 82  1  0  0  0  0
 61 63  1  0  0  0  0
 61 72  1  0  0  0  0
 62 74  1  0  0  0  0
 64 65  1  0  0  0  0
M  CHG  1  74   1
M  ISO  4  39 100  60 101  70 100  82 101
M  END
> <Batch ID>
0015

> <Smiles>
CNC(C)C(=O)NC(C(=O)N1Cc2cc([101O:1][101CH2:1]CN(C)C(=O)Cc3cc(F)c([100NH:0][100C:0](=O)N4CCCC(n5nc(-c6ccc(Oc7ccc(F)cc7F)cc6)c(C(N)=O)c5N)C4)c(F)c3F)ccc2CC1C(=O)NC1CCCc2ccccc21)C(C)(C)C

> <Shape>
0.220

> <Color>
0.108

> <Negative vol penalty>
0.000

$$$$

  -OEChem-04052315553D

 87 95  0     1  0  0  0  0  0999 V2000
  -25.9758  -37.3684   23.2195 C   0  0  0  0  0  0  0  0  0  0  0  0
  -26.6953  -36.3148   22.6649 C   0  0  0  0  0  0  0  0  0  0  0  0
  -24.3112   -9.0703   22.2412 C   0  0  0  0  0  0  0  0  0  0  0  0
  -23.0967  -10.2216   20.4987 C   0  0  0  0  0  0  0  0  0  0  0  0
  -24.9470  -37.1087   24.1241 C   0  0  0  0  0  0  0  0  0  0  0  0
  -26.3872  -35.0008   23.0154 C   0  0  0  0  0  0  0  0  0  0  0  0
  -26.6836  -30.0619   19.4064 C   0  0  0  0  0  0  0  0  0  0  0  0
  -23.4146   -8.0047   22.1621 C   0  0  0  0  0  0  0  0  0  0  0  0
  -22.2000   -9.1560   20.4196 C   0  0  0  0  0  0  0  0  0  0  0  0
  -27.6482  -29.0665   19.2561 C   0  0  0  0  0  0  0  0  0  0  0  0
  -22.8840   -5.3397   20.1499 C   0  0  0  0  0  0  0  0  0  0  0  0
  -23.4112   -4.0484   20.1380 C   0  0  0  0  0  0  0  0  0  0  0  0
  -26.4206  -27.6552   20.7793 C   0  0  0  0  0  0  0  0  0  0  0  0
  -26.2123  -21.1361   19.5196 C   0  0  0  0  0  0  0  0  0  0  0  0
  -22.1847   -3.5291   22.1537 C   0  0  0  0  0  0  0  0  0  0  0  0
  -24.1522  -10.1788   21.4095 C   0  0  0  0  0  0  0  0  0  0  0  0
  -26.2728  -11.4417   20.7647 C   0  0  0  0  0  0  0  0  0  0  0  0
  -24.6198  -35.7904   24.4784 C   0  0  0  0  0  0  0  0  0  0  0  0
  -25.5840  -29.8652   20.2542 C   0  0  0  0  0  0  0  0  0  0  0  0
  -25.3540  -34.7232   23.9266 C   0  0  0  0  0  0  0  0  0  0  0  0
  -25.4421  -28.6486   20.9367 C   0  0  0  0  0  0  0  0  0  0  0  0
  -28.2011  -20.0697   18.6570 C   0  0  0  0  0  0  0  0  0  0  0  0
  -27.2992  -21.1337   18.6454 C   0  0  0  0  0  0  0  0  0  0  0  0
  -26.9293  -19.0107   20.4171 C   0  0  0  0  0  0  0  0  0  0  0  0
  -22.3590   -8.0476   21.2513 C   0  0  0  0  0  0  0  0  0  0  0  0
  -27.5183  -27.8641   19.9448 C   0  0  0  0  0  0  0  0  0  0  0  0
  -22.0072   -5.7258   21.1638 C   0  0  0  0  0  0  0  0  0  0  0  0
  -28.0162  -19.0082   19.5428 C   0  0  0  0  0  0  0  0  0  0  0  0
  -23.0615   -3.1431   21.1398 C   0  0  0  0  0  0  0  0  0  0  0  0
  -26.0274  -20.0747   20.4055 C   0  0  0  0  0  0  0  0  0  0  0  0
  -21.6575   -4.8204   22.1656 C   0  0  0  0  0  0  0  0  0  0  0  0
  -25.0778  -11.2800   21.4910 C   0  0  0  0  0  0  0  0  0  0  0  0
  -26.7807  -12.6407   21.2017 C   0  0  0  0  0  0  0  0  0  0  0  0
  -26.8703  -10.5848   19.7826 C   0  0  0  0  0  0  0  0  0  0  0  0
  -24.4953  -31.2846   22.8817 C   0  0  0  0  0  0  0  0  0  0  0  0
  -21.9907  -29.2659   22.4647 C   0  0  0  0  0  0  0  0  0  0  0  0
  -20.8116  -26.3443   21.1530 C   0  0  0  0  0  0  0  0  0  0  0  0
  -26.1262  -17.9960   22.5785 C   0  0  0  0  0  0  0  0  0  0  0  0
  -23.5308  -35.5614   25.4965 C   0  0  0  0  0  0  0  0  0  0  0  0
  -24.5383  -30.9384   20.3849 C   0  0  0  0  0  0  0  0  0  0  0  0
  -24.2697  -28.3799   21.8433 C   0  0  0  0  0  0  0  0  0  0  0  0
  -23.0201  -34.1232   25.5290 C   0  0  0  0  0  0  0  0  0  0  0  0
  -25.4111  -15.5766   25.0910 C   0  0  0  0  0  0  0  0  0  0  0  0
  -24.1880  -33.1419   25.5346 C   0  0  0  0  0  0  0  0  0  0  0  0
  -25.3590  -14.2564   24.3186 C   0  0  0  0  0  0  0  0  0  0  0  0
  -24.8281  -16.7320   24.2792 C   0  0  0  0  0  0  0  0  0  0  0  0
  -25.3490  -15.5792   22.1652 C   0  0  0  0  0  0  0  0  0  0  0  0
  -25.0332  -33.2831   24.2630 C   0  0  1  0  0  0  0  0  0  0  0  0
  -23.7279  -30.8294   21.6728 C   0  0  1  0  0  0  0  0  0  0  0  0
  -25.9845  -14.3983   22.9171 C   0  0  2  0  0  0  0  0  0  0  0  0
  -29.3696  -20.0599   17.7222 C   0  0  0  0  0  0  0  0  0  0  0  0
  -18.7325  -24.9463   21.0105 C   0  0  0  0  0  0  0  0  0  0  0  0
  -22.4173  -28.3428   25.3415 C   0  0  0  0  0  0  0  0  0  0  0  0
  -20.9936  -26.3458   24.8381 C   0  0  0  0  0  0  0  0  0  0  0  0
  -20.0222  -28.6383   24.6850 C   0  0  0  0  0  0  0  0  0  0  0  0
  -26.4268  -22.5219   16.7821 C   0  0  0  0  0  0  0  0  0  0  0  0
  -20.7323  -26.5555   18.2020 C   0  0  0  0  0  0  0  0  0  0  0  0
  -30.0191  -18.0801   20.4276 C   0  0  0  0  0  0  0  0  0  0  0  0
  -28.2934  -24.4820   18.1467 C   0  0  0  0  0  0  0  0  0  0  0  0
  -29.5245  -25.3842   18.2430 C   0  0  0  0  0  0  0  0  0  0  0  0
  -28.6495  -23.0381   17.8027 C   0  0  0  0  0  0  0  0  0  0  0  0
  -29.1391  -26.8263   18.5476 C   0  0  0  0  0  0  0  0  0  1  0  0
  -21.6592  -27.8653   22.9201 C   0  0  1  0  0  0  0  0  0  0  0  0
  -19.5634  -26.0334   20.3468 C   0  0  2  0  0  0  0  0  0  0  0  0
  -21.2963  -27.8035   24.4307 C   0  0  0  0  0  0  0  0  0  0  0  0
  -24.8407  -12.2950   22.3263 N   0  0  0  0  0  0  0  0  0  0  0  0
  -25.8938  -13.1060   22.1275 N   0  0  0  0  0  0  0  0  0  0  0  0
  -23.2771  -29.4626   21.9430 N   0  0  0  0  0  0  0  0  0  0  0  0
  -25.4714  -16.8076   22.9657 N   0  0  0  0  0  0  0  0  0  0  0  0
  -27.8950  -13.3318   20.8806 N   0  0  0  0  0  0  0  0  0  0  0  0
  -26.2157   -9.3907   19.4509 N   0  0  0  0  0  0  0  0  0  0  0  0
  -26.7289  -17.9391   21.3223 N   0  0  0  0  0  0  0  0  0  0  0  0
  -24.3783  -32.6358   23.1464 N   0  0  0  0  0  0  0  0  0  0  0  0
  -20.6053  -27.3862   22.0323 N   0  0  0  0  0  0  0  0  0  0  0  0
  -27.4679  -22.2097   17.7627 N   0  0  3  0  0  0  0  0  0  0  0  0
  -19.9321  -25.5734   18.9781 N   0  3  0  0  0  0  0  0  0  0  0  0
  -27.9608  -10.8617   19.2280 O   0  0  0  0  0  0  0  0  0  0  0  0
  -25.1443  -30.4700   23.5274 O   0  0  0  0  0  0  0  0  0  0  0  0
  -21.1372  -30.1513   22.5616 O   0  0  0  0  0  0  0  0  0  0  0  0
  -21.8632  -25.7225   21.0189 O   0  0  0  0  0  0  0  0  0  0  0  0
  -26.1737  -18.9816   23.3190 O   0  0  0  0  0  0  0  0  0  0  0  0
  -21.4840   -7.0079   21.1738 O   0  0  0  0  0  0  0  0  0  0  0  0
  -28.8998  -17.9680   19.5527 O   0  0  0  0  0  0  0  0  0  0  0  0
  -28.4587  -26.8911   19.8004 O   0  0  0  0  0  0  0  0  0  1  0  0
  -23.5667   -1.9026   21.1274 F   0  0  0  0  0  0  0  0  0  0  0  0
  -24.9789  -20.0884   21.2411 F   0  0  0  0  0  0  0  0  0  0  0  0
  -20.8147   -5.1852   23.1416 F   0  0  0  0  0  0  0  0  0  0  0  0
  1  2  1  0  0  0  0
  1  5  2  0  0  0  0
  2  6  2  0  0  0  0
  3  8  2  0  0  0  0
  3 16  1  0  0  0  0
  4  9  1  0  0  0  0
  4 16  2  0  0  0  0
  5 18  1  0  0  0  0
  6 20  1  0  0  0  0
  7 10  2  0  0  0  0
  7 19  1  0  0  0  0
  8 25  1  0  0  0  0
  9 25  2  0  0  0  0
 10 26  1  0  0  0  0
 11 12  2  0  0  0  0
 11 27  1  0  0  0  0
 12 29  1  0  0  0  0
 13 21  1  0  0  0  0
 13 26  2  0  0  0  0
 14 23  1  0  0  0  0
 14 30  2  0  0  0  0
 15 29  2  0  0  0  0
 15 31  1  0  0  0  0
 16 32  1  0  0  0  0
 17 32  1  0  0  0  0
 17 33  2  0  0  0  0
 17 34  1  0  0  0  0
 18 20  2  0  0  0  0
 18 39  1  0  0  0  0
 19 21  2  0  0  0  0
 19 40  1  0  0  0  0
 20 48  1  0  0  0  0
 21 41  1  0  0  0  0
 22 23  2  0  0  0  0
 22 28  1  0  0  0  0
 22 51  1  0  0  0  0
 23 75  1  0  0  0  0
 24 28  2  0  0  0  0
 24 30  1  0  0  0  0
 24 72  1  0  0  0  0
 25 82  1  0  0  0  0
 26 84  1  0  0  0  0
 27 31  2  0  0  0  0
 27 82  1  0  0  0  0
 28 83  1  0  0  0  0
 29 85  1  0  0  0  0
 30 86  1  0  0  0  0
 31 87  1  0  0  0  0
 32 66  2  0  0  0  0
 33 67  1  0  0  0  0
 33 70  1  0  0  0  0
 34 71  1  0  0  0  0
 34 77  2  0  0  0  0
 35 49  1  0  0  0  0
 35 73  1  0  0  0  0
 35 78  2  0  0  0  0
 36 63  1  0  0  0  0
 36 68  1  0  0  0  0
 36 79  2  0  0  0  0
 37 64  1  0  0  0  0
 37 74  1  0  0  0  0
 37 80  2  0  0  0  0
 38 69  1  0  0  0  0
 38 72  1  0  0  0  0
 38 81  2  0  0  0  0
 39 42  1  0  0  0  0
 40 49  1  0  0  0  0
 41 68  1  0  0  0  0
 42 44  1  0  0  0  0
 43 45  1  0  0  0  0
 43 46  1  0  0  0  0
 44 48  1  0  0  0  0
 45 50  1  0  0  0  0
 46 69  1  0  0  0  0
 47 50  1  0  0  0  0
 47 69  1  0  0  0  0
 48 73  1  0  0  0  0
 49 68  1  0  0  0  0
 50 67  1  0  0  0  0
 52 64  1  0  0  0  0
 53 65  1  0  0  0  0
 54 65  1  0  0  0  0
 55 65  1  0  0  0  0
 56 75  1  0  0  0  0
 57 76  1  0  0  0  0
 58 83  1  0  0  0  0
 59 60  1  0  0  0  0
 59 61  1  0  0  0  0
 60 62  1  0  0  0  0
 61 75  1  0  0  0  0
 62 84  1  0  0  0  0
 63 65  1  0  0  0  0
 63 74  1  0  0  0  0
 64 76  1  0  0  0  0
 66 67  1  0  0  0  0
M  CHG  1  76   1
M  ISO  4  38 100  62 101  72 100  84 101
M  END
> <Batch ID>
0015

> <Smiles>
CNC(C)C(=O)NC(C(=O)N1Cc2cc([101O:1][101CH2:1]CCCN(C)c3cc(F)c([100NH:0][100C:0](=O)N4CCCC(n5nc(-c6ccc(Oc7ccc(F)cc7F)cc6)c(C(N)=O)c5N)C4)c(OC)c3C)ccc2CC1C(=O)NC1CCCc2ccccc21)C(C)(C)C

> <Shape>
0.313

> <Color>
0.089

> <Negative vol penalty>
0.000

$$$$

  -OEChem-04052315553D

 85 93  0     1  0  0  0  0  0999 V2000
  -32.9253  -24.6698   17.6939 C   0  0  0  0  0  0  0  0  0  0  0  0
  -31.8356  -24.2374   18.4428 C   0  0  0  0  0  0  0  0  0  0  0  0
  -23.6876   -9.6495   19.8593 C   0  0  0  0  0  0  0  0  0  0  0  0
  -23.8748   -9.9055   22.2544 C   0  0  0  0  0  0  0  0  0  0  0  0
  -33.5144  -25.9030   17.9703 C   0  0  0  0  0  0  0  0  0  0  0  0
  -31.3349  -25.0374   19.4693 C   0  0  0  0  0  0  0  0  0  0  0  0
  -26.2787  -25.3168   19.4245 C   0  0  0  0  0  0  0  0  0  0  0  0
  -23.1053   -8.3948   20.0388 C   0  0  0  0  0  0  0  0  0  0  0  0
  -23.2924   -8.6508   22.4340 C   0  0  0  0  0  0  0  0  0  0  0  0
  -25.5763  -24.2284   19.9399 C   0  0  0  0  0  0  0  0  0  0  0  0
  -20.1890   -7.3146   22.3697 C   0  0  0  0  0  0  0  0  0  0  0  0
  -19.1949   -7.1962   23.3409 C   0  0  0  0  0  0  0  0  0  0  0  0
  -25.2549  -25.4239   22.0103 C   0  0  0  0  0  0  0  0  0  0  0  0
  -29.9947  -18.8093   21.5944 C   0  0  0  0  0  0  0  0  0  0  0  0
  -20.5287   -5.5526   24.5057 C   0  0  0  0  0  0  0  0  0  0  0  0
  -24.0724  -10.4048   20.9670 C   0  0  0  0  0  0  0  0  0  0  0  0
  -24.0138  -12.9413   20.7014 C   0  0  0  0  0  0  0  0  0  0  0  0
  -33.0146  -26.7228   18.9944 C   0  0  0  0  0  0  0  0  0  0  0  0
  -26.4843  -26.4647   20.2033 C   0  0  0  0  0  0  0  0  0  0  0  0
  -31.9186  -26.2821   19.7605 C   0  0  0  0  0  0  0  0  0  0  0  0
  -25.9581  -26.5266   21.5015 C   0  0  0  0  0  0  0  0  0  0  0  0
  -29.9456  -20.2002   21.5018 C   0  0  0  0  0  0  0  0  0  0  0  0
  -27.9820  -18.8272   22.9308 C   0  0  0  0  0  0  0  0  0  0  0  0
  -27.9329  -20.2181   22.8382 C   0  0  0  0  0  0  0  0  0  0  0  0
  -29.0128  -18.1228   22.3089 C   0  0  0  0  0  0  0  0  0  0  0  0
  -22.9077   -7.8954   21.3262 C   0  0  0  0  0  0  0  0  0  0  0  0
  -25.0668  -24.2807   21.2340 C   0  0  0  0  0  0  0  0  0  0  0  0
  -21.3530   -6.5520   22.4664 C   0  0  0  0  0  0  0  0  0  0  0  0
  -19.3647   -6.3153   24.4089 C   0  0  0  0  0  0  0  0  0  0  0  0
  -21.5228   -5.6710   23.5344 C   0  0  0  0  0  0  0  0  0  0  0  0
  -28.9147  -20.9046   22.1237 C   0  0  0  0  0  0  0  0  0  0  0  0
  -24.6744  -11.7008   20.7822 C   0  0  0  0  0  0  0  0  0  0  0  0
  -25.0226  -13.8567   20.5256 C   0  0  0  0  0  0  0  0  0  0  0  0
  -22.6136  -13.2395   20.7785 C   0  0  0  0  0  0  0  0  0  0  0  0
  -29.0392  -27.9784   21.3367 C   0  0  0  0  0  0  0  0  0  0  0  0
  -26.8392  -30.1645   22.2873 C   0  0  0  0  0  0  0  0  0  0  0  0
  -23.5994  -30.8414   23.1192 C   0  0  0  0  0  0  0  0  0  0  0  0
  -30.0465  -15.8777   21.8216 C   0  0  0  0  0  0  0  0  0  0  0  0
  -33.7141  -28.0265   19.2871 C   0  0  0  0  0  0  0  0  0  0  0  0
  -27.2211  -27.6407   19.6231 C   0  0  0  0  0  0  0  0  0  0  0  0
  -26.1339  -27.7436   22.3712 C   0  0  0  0  0  0  0  0  0  0  0  0
  -32.8886  -28.9812   20.1458 C   0  0  0  0  0  0  0  0  0  0  0  0
  -29.9322  -13.1896   19.4896 C   0  0  0  0  0  0  0  0  0  0  0  0
  -32.2816  -28.2414   21.3337 C   0  0  0  0  0  0  0  0  0  0  0  0
  -28.4998  -12.6647   19.6113 C   0  0  0  0  0  0  0  0  0  0  0  0
  -30.4885  -13.6381   20.8398 C   0  0  0  0  0  0  0  0  0  0  0  0
  -28.2178  -14.0737   21.6904 C   0  0  0  0  0  0  0  0  0  0  0  0
  -31.3313  -27.1325   20.8659 C   0  0  1  0  0  0  0  0  0  0  0  0
  -27.8144  -28.5583   20.6876 C   0  0  1  0  0  0  0  0  0  0  0  0
  -27.5915  -13.6705   20.3454 C   0  0  2  0  0  0  0  0  0  0  0  0
  -31.0191  -20.8938   20.7259 C   0  0  0  0  0  0  0  0  0  0  0  0
  -26.9267  -18.0898   23.6953 C   0  0  0  0  0  0  0  0  0  0  0  0
  -22.1128  -32.7103   23.8902 C   0  0  0  0  0  0  0  0  0  0  0  0
  -23.0909  -20.8901   22.9909 C   0  0  0  0  0  0  0  0  0  0  0  0
  -27.9985  -29.9233   25.0994 C   0  0  0  0  0  0  0  0  0  0  0  0
  -25.9320  -31.0358   25.9714 C   0  0  0  0  0  0  0  0  0  0  0  0
  -27.4355  -32.2574   24.3998 C   0  0  0  0  0  0  0  0  0  0  0  0
  -21.9043  -30.6458   20.7010 C   0  0  0  0  0  0  0  0  0  0  0  0
  -26.8164  -20.9583   23.5139 C   0  0  0  0  0  0  0  0  0  0  0  0
  -24.4518  -23.0132   23.1501 C   0  0  0  0  0  0  0  0  0  1  0  0
  -26.0005  -30.3682   23.5258 C   0  0  1  0  0  0  0  0  0  0  0  0
  -22.6606  -31.9543   22.6897 C   0  0  2  0  0  0  0  0  0  0  0  0
  -24.3842  -21.5253   23.4753 C   0  0  2  0  0  0  0  0  0  0  0  0
  -26.8398  -30.8723   24.7336 C   0  0  0  0  0  0  0  0  0  0  0  0
  -26.0003  -11.8142   20.6670 N   0  0  0  0  0  0  0  0  0  0  0  0
  -26.1810  -13.1368   20.5119 N   0  0  0  0  0  0  0  0  0  0  0  0
  -26.8670  -28.8651   21.7612 N   0  0  0  0  0  0  0  0  0  0  0  0
  -29.5775  -14.5930   21.4747 N   0  0  0  0  0  0  0  0  0  0  0  0
  -25.0230  -15.1991   20.3828 N   0  0  0  0  0  0  0  0  0  0  0  0
  -21.7139  -12.1805   20.9612 N   0  0  0  0  0  0  0  0  0  0  0  0
  -29.0820  -16.7098   22.3890 N   0  0  0  0  0  0  0  0  0  0  0  0
  -30.0631  -27.6945   20.4532 N   0  0  0  0  0  0  0  0  0  0  0  0
  -24.9128  -31.2606   23.1400 N   0  0  0  0  0  0  0  0  0  0  0  0
  -21.5119  -31.3956   21.9220 N   0  3  0  0  0  0  0  0  0  0  0  0
  -25.5217  -20.8401   22.7961 N   0  3  0  0  0  0  0  0  0  0  0  0
  -22.1719  -14.4087   20.6716 O   0  0  0  0  0  0  0  0  0  0  0  0
  -29.0547  -27.8030   22.5494 O   0  0  0  0  0  0  0  0  0  0  0  0
  -27.4417  -31.1244   21.8003 O   0  0  0  0  0  0  0  0  0  0  0  0
  -23.2065  -29.7139   23.4109 O   0  0  0  0  0  0  0  0  0  0  0  0
  -31.2105  -16.2240   21.6046 O   0  0  0  0  0  0  0  0  0  0  0  0
  -22.3394   -6.6712   21.5018 O   0  0  0  0  0  0  0  0  0  0  0  0
  -24.3813  -23.2194   21.7398 O   0  0  0  0  0  0  0  0  0  1  0  0
  -18.4107   -6.2028   25.3424 F   0  0  0  0  0  0  0  0  0  0  0  0
  -22.6393   -4.9366   23.6334 F   0  0  0  0  0  0  0  0  0  0  0  0
  -28.8575  -22.6322   22.0055 Cl  0  0  0  0  0  0  0  0  0  0  0  0
  1  2  1  0  0  0  0
  1  5  2  0  0  0  0
  2  6  2  0  0  0  0
  3  8  2  0  0  0  0
  3 16  1  0  0  0  0
  4  9  1  0  0  0  0
  4 16  2  0  0  0  0
  5 18  1  0  0  0  0
  6 20  1  0  0  0  0
  7 10  2  0  0  0  0
  7 19  1  0  0  0  0
  8 26  1  0  0  0  0
  9 26  2  0  0  0  0
 10 27  1  0  0  0  0
 11 12  2  0  0  0  0
 11 28  1  0  0  0  0
 12 29  1  0  0  0  0
 13 21  1  0  0  0  0
 13 27  2  0  0  0  0
 14 22  2  0  0  0  0
 14 25  1  0  0  0  0
 15 29  2  0  0  0  0
 15 30  1  0  0  0  0
 16 32  1  0  0  0  0
 17 32  1  0  0  0  0
 17 33  2  0  0  0  0
 17 34  1  0  0  0  0
 18 20  2  0  0  0  0
 18 39  1  0  0  0  0
 19 21  2  0  0  0  0
 19 40  1  0  0  0  0
 20 48  1  0  0  0  0
 21 41  1  0  0  0  0
 22 31  1  0  0  0  0
 22 51  1  0  0  0  0
 23 24  1  0  0  0  0
 23 25  2  0  0  0  0
 23 52  1  0  0  0  0
 24 31  2  0  0  0  0
 24 59  1  0  0  0  0
 25 71  1  0  0  0  0
 26 81  1  0  0  0  0
 27 82  1  0  0  0  0
 28 30  2  0  0  0  0
 28 81  1  0  0  0  0
 29 83  1  0  0  0  0
 30 84  1  0  0  0  0
 31 85  1  0  0  0  0
 32 65  2  0  0  0  0
 33 66  1  0  0  0  0
 33 69  1  0  0  0  0
 34 70  1  0  0  0  0
 34 76  2  0  0  0  0
 35 49  1  0  0  0  0
 35 72  1  0  0  0  0
 35 77  2  0  0  0  0
 36 61  1  0  0  0  0
 36 67  1  0  0  0  0
 36 78  2  0  0  0  0
 37 62  1  0  0  0  0
 37 73  1  0  0  0  0
 37 79  2  0  0  0  0
 38 68  1  0  0  0  0
 38 71  1  0  0  0  0
 38 80  2  0  0  0  0
 39 42  1  0  0  0  0
 40 49  1  0  0  0  0
 41 67  1  0  0  0  0
 42 44  1  0  0  0  0
 43 45  1  0  0  0  0
 43 46  1  0  0  0  0
 44 48  1  0  0  0  0
 45 50  1  0  0  0  0
 46 68  1  0  0  0  0
 47 50  1  0  0  0  0
 47 68  1  0  0  0  0
 48 72  1  0  0  0  0
 49 67  1  0  0  0  0
 50 66  1  0  0  0  0
 53 62  1  0  0  0  0
 54 63  1  0  0  0  0
 55 64  1  0  0  0  0
 56 64  1  0  0  0  0
 57 64  1  0  0  0  0
 58 74  1  0  0  0  0
 59 75  1  0  0  0  0
 60 63  1  0  0  0  0
 60 82  1  0  0  0  0
 61 64  1  0  0  0  0
 61 73  1  0  0  0  0
 62 74  1  0  0  0  0
 63 75  1  0  0  0  0
 65 66  1  0  0  0  0
M  CHG  2  74   1  75   1
M  ISO  4  38 100  60 101  71 100  82 101
M  END
> <Batch ID>
0015

> <Smiles>
CNC(C)C(=O)NC(C(=O)N1Cc2cc([101O:1][101CH2:1]C(C)NCc3c(C)c([100NH:0][100C:0](=O)N4CCCC(n5nc(-c6ccc(Oc7ccc(F)cc7F)cc6)c(C(N)=O)c5N)C4)cc(C)c3Cl)ccc2CC1C(=O)NC1CCCc2ccccc21)C(C)(C)C

> <Shape>
0.311

> <Color>
0.162

> <Negative vol penalty>
0.000

$$$$

  -OEChem-04052315553D

 86 94  0     1  0  0  0  0  0999 V2000
  -23.7896  -26.1051   24.0005 C   0  0  0  0  0  0  0  0  0  0  0  0
  -23.6927  -24.8294   23.4562 C   0  0  0  0  0  0  0  0  0  0  0  0
  -29.4628  -23.6052   18.4598 C   0  0  0  0  0  0  0  0  0  0  0  0
  -27.8816  -23.2643   20.2544 C   0  0  0  0  0  0  0  0  0  0  0  0
  -22.8115  -27.0559   23.7168 C   0  0  0  0  0  0  0  0  0  0  0  0
  -22.6241  -24.5077   22.6186 C   0  0  0  0  0  0  0  0  0  0  0  0
  -22.7675  -20.1202   20.3978 C   0  0  0  0  0  0  0  0  0  0  0  0
  -29.4047  -24.9828   18.6702 C   0  0  0  0  0  0  0  0  0  0  0  0
  -27.8235  -24.6420   20.4648 C   0  0  0  0  0  0  0  0  0  0  0  0
  -22.5654  -18.9222   21.0818 C   0  0  0  0  0  0  0  0  0  0  0  0
  -26.3200  -27.3175   19.0464 C   0  0  0  0  0  0  0  0  0  0  0  0
  -25.0620  -27.8938   19.2215 C   0  0  0  0  0  0  0  0  0  0  0  0
  -20.3348  -18.7868   20.1733 C   0  0  0  0  0  0  0  0  0  0  0  0
  -26.5596  -12.3533   20.1741 C   0  0  0  0  0  0  0  0  0  0  0  0
  -25.7225  -28.6702   21.4120 C   0  0  0  0  0  0  0  0  0  0  0  0
  -28.7013  -22.7459   19.2519 C   0  0  0  0  0  0  0  0  0  0  0  0
  -28.4288  -20.6281   17.8560 C   0  0  0  0  0  0  0  0  0  0  0  0
  -21.7241  -26.7411   22.8852 C   0  0  0  0  0  0  0  0  0  0  0  0
  -21.7491  -20.6670   19.6037 C   0  0  0  0  0  0  0  0  0  0  0  0
  -21.6395  -25.4608   22.3011 C   0  0  0  0  0  0  0  0  0  0  0  0
  -20.5274  -19.9905   19.4782 C   0  0  0  0  0  0  0  0  0  0  0  0
  -24.0348  -13.0009   21.1686 C   0  0  0  0  0  0  0  0  0  0  0  0
  -26.3215  -13.6236   20.6989 C   0  0  0  0  0  0  0  0  0  0  0  0
  -28.5850  -25.5012   19.6727 C   0  0  0  0  0  0  0  0  0  0  0  0
  -21.3479  -18.2568   20.9719 C   0  0  0  0  0  0  0  0  0  0  0  0
  -27.2794  -27.4175   20.0541 C   0  0  0  0  0  0  0  0  0  0  0  0
  -24.7632  -28.5702   20.4043 C   0  0  0  0  0  0  0  0  0  0  0  0
  -25.5352  -11.4069   20.1465 C   0  0  0  0  0  0  0  0  0  0  0  0
  -26.9806  -28.0938   21.2369 C   0  0  0  0  0  0  0  0  0  0  0  0
  -24.2729  -11.7307   20.6438 C   0  0  0  0  0  0  0  0  0  0  0  0
  -25.0592  -13.9474   21.1962 C   0  0  0  0  0  0  0  0  0  0  0  0
  -28.7605  -21.3227   19.0347 C   0  0  0  0  0  0  0  0  0  0  0  0
  -28.6540  -19.3079   18.1605 C   0  0  0  0  0  0  0  0  0  0  0  0
  -27.9592  -21.1314   16.5982 C   0  0  0  0  0  0  0  0  0  0  0  0
  -20.0694  -23.3650   19.6544 C   0  0  0  0  0  0  0  0  0  0  0  0
  -18.9129  -22.2405   16.8401 C   0  0  0  0  0  0  0  0  0  0  0  0
  -18.2935  -19.5539   14.8288 C   0  0  0  0  0  0  0  0  0  0  0  0
  -27.8817  -15.1295   21.9207 C   0  0  0  0  0  0  0  0  0  0  0  0
  -20.6982  -27.8108   22.6051 C   0  0  0  0  0  0  0  0  0  0  0  0
  -21.9923  -21.9463   18.8510 C   0  0  0  0  0  0  0  0  0  0  0  0
  -19.4092  -20.5251   18.6224 C   0  0  0  0  0  0  0  0  0  0  0  0
  -19.3832  -27.2489   22.0747 C   0  0  0  0  0  0  0  0  0  0  0  0
  -30.9499  -17.1688   22.1161 C   0  0  0  0  0  0  0  0  0  0  0  0
  -19.6542  -26.2850   20.9293 C   0  0  0  0  0  0  0  0  0  0  0  0
  -30.5928  -18.4013   21.2871 C   0  0  0  0  0  0  0  0  0  0  0  0
  -29.7193  -16.5537   22.7761 C   0  0  0  0  0  0  0  0  0  0  0  0
  -28.2663  -17.4613   20.9885 C   0  0  0  0  0  0  0  0  0  0  0  0
  -20.4700  -25.0789   21.4119 C   0  0  1  0  0  0  0  0  0  0  0  0
  -20.7046  -22.6754   18.4802 C   0  0  1  0  0  0  0  0  0  0  0  0
  -29.4791  -18.0786   20.2759 C   0  0  1  0  0  0  0  0  0  0  0  0
  -17.3051  -18.9450   12.6040 C   0  0  0  0  0  0  0  0  0  0  0  0
  -19.6892  -13.6900   20.8599 C   0  0  0  0  0  0  0  0  0  0  0  0
  -16.1099  -22.6175   17.9850 C   0  0  0  0  0  0  0  0  0  0  0  0
  -15.2406  -21.1443   16.1568 C   0  0  0  0  0  0  0  0  0  0  0  0
  -16.3601  -23.3008   15.5923 C   0  0  0  0  0  0  0  0  0  0  0  0
  -28.1772  -14.7756   19.4800 C   0  0  0  0  0  0  0  0  0  0  0  0
  -20.8594  -18.4388   13.8636 C   0  0  0  0  0  0  0  0  0  0  0  0
  -22.6638  -13.3057   21.6961 C   0  0  0  0  0  0  0  0  0  0  0  0
  -20.2556  -16.1455   21.0451 C   0  0  0  0  0  0  0  0  0  1  0  0
  -17.7515  -21.3653   16.4348 C   0  0  1  0  0  0  0  0  0  0  0  0
  -18.5746  -19.3115   13.3568 C   0  0  2  0  0  0  0  0  0  0  0  0
  -20.6226  -14.7265   21.4642 C   0  0  2  0  0  0  0  0  0  0  0  0
  -16.3857  -22.0977   16.5600 C   0  0  0  0  0  0  0  0  0  0  0  0
  -29.1654  -20.5108   20.0149 N   0  0  0  0  0  0  0  0  0  0  0  0
  -29.0896  -19.2925   19.4528 N   0  0  0  0  0  0  0  0  0  0  0  0
  -19.6932  -21.7824   17.9111 N   0  0  0  0  0  0  0  0  0  0  0  0
  -28.6590  -16.2990   21.8002 N   0  0  0  0  0  0  0  0  0  0  0  0
  -28.5199  -18.1703   17.4462 N   0  0  0  0  0  0  0  0  0  0  0  0
  -26.5771  -21.2577   16.4032 N   0  0  0  0  0  0  0  0  0  0  0  0
  -20.8833  -24.2994   20.2659 N   0  0  0  0  0  0  0  0  0  0  0  0
  -18.0515  -20.8860   15.0899 N   0  0  0  0  0  0  0  0  0  0  0  0
  -27.4078  -14.5747   20.7122 N   0  0  0  0  0  0  0  0  0  0  0  0
  -19.5554  -18.2015   13.1927 N   0  3  0  0  0  0  0  0  0  0  0  0
  -22.0076  -14.4366   20.9921 N   0  3  0  0  0  0  0  0  0  0  0  0
  -28.7415  -21.4438   15.6687 O   0  0  0  0  0  0  0  0  0  0  0  0
  -18.9250  -23.0722   19.9804 O   0  0  0  0  0  0  0  0  0  0  0  0
  -19.1244  -23.2882   16.2243 O   0  0  0  0  0  0  0  0  0  0  0  0
  -18.2855  -18.6512   15.6628 O   0  0  0  0  0  0  0  0  0  0  0  0
  -27.6551  -14.6070   23.0186 O   0  0  0  0  0  0  0  0  0  0  0  0
  -28.5282  -26.8455   19.8784 O   0  0  0  0  0  0  0  0  0  0  0  0
  -21.1478  -17.0877   21.6390 O   0  0  0  0  0  0  0  0  0  1  0  0
  -23.5555  -29.1249   20.5716 F   0  0  0  0  0  0  0  0  0  0  0  0
  -25.7640  -10.1864   19.6443 F   0  0  0  0  0  0  0  0  0  0  0  0
  -27.8985  -28.1942   22.2080 F   0  0  0  0  0  0  0  0  0  0  0  0
  -23.2963  -10.8129   20.6133 F   0  0  0  0  0  0  0  0  0  0  0  0
  -24.7587  -15.5243   21.8511 Cl  0  0  0  0  0  0  0  0  0  0  0  0
  1  2  1  0  0  0  0
  1  5  2  0  0  0  0
  2  6  2  0  0  0  0
  3  8  2  0  0  0  0
  3 16  1  0  0  0  0
  4  9  1  0  0  0  0
  4 16  2  0  0  0  0
  5 18  1  0  0  0  0
  6 20  1  0  0  0  0
  7 10  2  0  0  0  0
  7 19  1  0  0  0  0
  8 24  1  0  0  0  0
  9 24  2  0  0  0  0
 10 25  1  0  0  0  0
 11 12  2  0  0  0  0
 11 26  1  0  0  0  0
 12 27  1  0  0  0  0
 13 21  1  0  0  0  0
 13 25  2  0  0  0  0
 14 23  2  0  0  0  0
 14 28  1  0  0  0  0
 15 27  2  0  0  0  0
 15 29  1  0  0  0  0
 16 32  1  0  0  0  0
 17 32  1  0  0  0  0
 17 33  2  0  0  0  0
 17 34  1  0  0  0  0
 18 20  2  0  0  0  0
 18 39  1  0  0  0  0
 19 21  2  0  0  0  0
 19 40  1  0  0  0  0
 20 48  1  0  0  0  0
 21 41  1  0  0  0  0
 22 30  1  0  0  0  0
 22 31  2  0  0  0  0
 22 58  1  0  0  0  0
 23 31  1  0  0  0  0
 23 72  1  0  0  0  0
 24 80  1  0  0  0  0
 25 81  1  0  0  0  0
 26 29  2  0  0  0  0
 26 80  1  0  0  0  0
 27 82  1  0  0  0  0
 28 30  2  0  0  0  0
 28 83  1  0  0  0  0
 29 84  1  0  0  0  0
 30 85  1  0  0  0  0
 31 86  1  0  0  0  0
 32 64  2  0  0  0  0
 33 65  1  0  0  0  0
 33 68  1  0  0  0  0
 34 69  1  0  0  0  0
 34 75  2  0  0  0  0
 35 49  1  0  0  0  0
 35 70  1  0  0  0  0
 35 76  2  0  0  0  0
 36 60  1  0  0  0  0
 36 66  1  0  0  0  0
 36 77  2  0  0  0  0
 37 61  1  0  0  0  0
 37 71  1  0  0  0  0
 37 78  2  0  0  0  0
 38 67  1  0  0  0  0
 38 72  1  0  0  0  0
 38 79  2  0  0  0  0
 39 42  1  0  0  0  0
 40 49  1  0  0  0  0
 41 66  1  0  0  0  0
 42 44  1  0  0  0  0
 43 45  1  0  0  0  0
 43 46  1  0  0  0  0
 44 48  1  0  0  0  0
 45 50  1  0  0  0  0
 46 67  1  0  0  0  0
 47 50  1  0  0  0  0
 47 67  1  0  0  0  0
 48 70  1  0  0  0  0
 49 66  1  0  0  0  0
 50 65  1  0  0  0  0
 51 61  1  0  0  0  0
 52 62  1  0  0  0  0
 53 63  1  0  0  0  0
 54 63  1  0  0  0  0
 55 63  1  0  0  0  0
 56 72  1  0  0  0  0
 57 73  1  0  0  0  0
 58 74  1  0  0  0  0
 59 62  1  0  0  0  0
 59 81  1  0  0  0  0
 60 63  1  0  0  0  0
 60 71  1  0  0  0  0
 61 73  1  0  0  0  0
 62 74  1  0  0  0  0
 64 65  1  0  0  0  0
M  CHG  2  73   1  74   1
M  ISO  4  38 100  59 101  72 100  81 101
M  END
> <Batch ID>
0015

> <Smiles>
CNC(C)C(=O)NC(C(=O)N1Cc2cc([101O:1][101CH2:1]C(C)NCc3c(F)c(F)cc([100N:0](C)[100C:0](=O)N4CCCC(n5nc(-c6ccc(Oc7ccc(F)cc7F)cc6)c(C(N)=O)c5N)C4)c3Cl)ccc2CC1C(=O)NC1CCCc2ccccc21)C(C)(C)C

> <Shape>
0.215

> <Color>
0.076

> <Negative vol penalty>
0.000

$$$$

  -OEChem-04052315553D

 83 91  0     1  0  0  0  0  0999 V2000
  -16.6488  -25.9360   23.4522 C   0  0  0  0  0  0  0  0  0  0  0  0
  -17.6317  -25.8719   22.4698 C   0  0  0  0  0  0  0  0  0  0  0  0
  -26.4420  -12.7287   21.4896 C   0  0  0  0  0  0  0  0  0  0  0  0
  -26.1375  -13.4435   19.2019 C   0  0  0  0  0  0  0  0  0  0  0  0
  -16.3873  -27.1440   24.0973 C   0  0  0  0  0  0  0  0  0  0  0  0
  -18.3530  -27.0162   22.1311 C   0  0  0  0  0  0  0  0  0  0  0  0
  -23.3204  -26.1273   21.7076 C   0  0  0  0  0  0  0  0  0  0  0  0
  -28.1359  -22.9583   16.0384 C   0  0  0  0  0  0  0  0  0  0  0  0
  -25.1930  -12.1083   21.4620 C   0  0  0  0  0  0  0  0  0  0  0  0
  -24.8885  -12.8231   19.1743 C   0  0  0  0  0  0  0  0  0  0  0  0
  -23.7596  -25.5124   20.5359 C   0  0  0  0  0  0  0  0  0  0  0  0
  -28.8755  -21.8540   15.6155 C   0  0  0  0  0  0  0  0  0  0  0  0
  -23.8635   -9.2375   20.2688 C   0  0  0  0  0  0  0  0  0  0  0  0
  -23.7665   -7.9517   20.8007 C   0  0  0  0  0  0  0  0  0  0  0  0
  -24.4457  -27.6585   19.6740 C   0  0  0  0  0  0  0  0  0  0  0  0
  -22.1438   -8.7391   22.4082 C   0  0  0  0  0  0  0  0  0  0  0  0
  -26.9142  -13.3964   20.3596 C   0  0  0  0  0  0  0  0  0  0  0  0
  -29.4446  -13.4680   20.0442 C   0  0  0  0  0  0  0  0  0  0  0  0
  -17.1123  -28.3015   23.7731 C   0  0  0  0  0  0  0  0  0  0  0  0
  -23.4308  -27.5161   21.8671 C   0  0  0  0  0  0  0  0  0  0  0  0
  -18.1000  -28.2412   22.7715 C   0  0  0  0  0  0  0  0  0  0  0  0
  -24.0096  -28.2882   20.8497 C   0  0  0  0  0  0  0  0  0  0  0  0
  -27.8678  -23.1401   17.3952 C   0  0  0  0  0  0  0  0  0  0  0  0
  -29.0789  -21.1130   17.9060 C   0  0  0  0  0  0  0  0  0  0  0  0
  -24.4163  -12.1555   20.3044 C   0  0  0  0  0  0  0  0  0  0  0  0
  -24.3197  -26.2784   19.5177 C   0  0  0  0  0  0  0  0  0  0  0  0
  -29.3470  -20.9313   16.5493 C   0  0  0  0  0  0  0  0  0  0  0  0
  -23.1007  -10.2742   20.8067 C   0  0  0  0  0  0  0  0  0  0  0  0
  -22.9067   -7.7025   21.8704 C   0  0  0  0  0  0  0  0  0  0  0  0
  -22.2409  -10.0250   21.8763 C   0  0  0  0  0  0  0  0  0  0  0  0
  -28.3392  -22.2174   18.3290 C   0  0  0  0  0  0  0  0  0  0  0  0
  -28.2041  -14.0379   20.3876 C   0  0  0  0  0  0  0  0  0  0  0  0
  -30.3529  -14.4798   20.2386 C   0  0  0  0  0  0  0  0  0  0  0  0
  -29.7488  -12.1425   19.5901 C   0  0  0  0  0  0  0  0  0  0  0  0
  -21.3667  -29.8973   22.2831 C   0  0  0  0  0  0  0  0  0  0  0  0
  -24.0673  -31.6527   22.6678 C   0  0  0  0  0  0  0  0  0  0  0  0
  -27.4062  -32.0040   22.0554 C   0  0  0  0  0  0  0  0  0  0  0  0
  -29.8993  -20.4377   20.1902 C   0  0  0  0  0  0  0  0  0  0  0  0
  -16.7615  -29.5953   24.4643 C   0  0  0  0  0  0  0  0  0  0  0  0
  -22.9768  -28.1608   23.1480 C   0  0  0  0  0  0  0  0  0  0  0  0
  -24.1693  -29.7802   20.9800 C   0  0  0  0  0  0  0  0  0  0  0  0
  -17.8280  -30.6766   24.3109 C   0  0  0  0  0  0  0  0  0  0  0  0
  -31.0700  -18.4130   22.8748 C   0  0  0  0  0  0  0  0  0  0  0  0
  -18.2869  -30.7717   22.8592 C   0  0  0  0  0  0  0  0  0  0  0  0
  -30.5861  -17.0084   22.5074 C   0  0  0  0  0  0  0  0  0  0  0  0
  -30.0549  -19.4841   22.4796 C   0  0  0  0  0  0  0  0  0  0  0  0
  -29.1374  -18.0366   20.7098 C   0  0  0  0  0  0  0  0  0  0  0  0
  -18.9207  -29.4552   22.3937 C   0  0  1  0  0  0  0  0  0  0  0  0
  -22.6675  -29.6465   22.9922 C   0  0  1  0  0  0  0  0  0  0  0  0
  -30.1551  -16.9295   21.0297 C   0  0  2  0  0  0  0  0  0  0  0  0
  -29.3311  -33.5609   22.4657 C   0  0  0  0  0  0  0  0  0  0  0  0
  -23.0015  -33.5339   20.5148 C   0  0  0  0  0  0  0  0  0  0  0  0
  -25.3098  -34.4782   20.2955 C   0  0  0  0  0  0  0  0  0  0  0  0
  -24.0825  -34.6783   22.4580 C   0  0  0  0  0  0  0  0  0  0  0  0
  -28.9022  -29.9433   23.5636 C   0  0  0  0  0  0  0  0  0  0  0  0
  -31.4806  -20.0170   16.0317 C   0  0  0  0  0  0  0  0  0  0  0  0
  -26.6097  -25.2401   16.9125 C   0  0  0  0  0  0  0  0  0  0  0  0
  -25.8399  -26.2954   17.6888 C   0  0  0  0  0  0  0  0  0  1  0  0
  -24.9809  -32.4246   21.7467 C   0  0  1  0  0  0  0  0  0  0  0  0
  -28.5676  -32.3466   22.9710 C   0  0  2  0  0  0  0  0  0  0  0  0
  -24.3390  -33.7509   21.2502 C   0  0  0  0  0  0  0  0  0  0  0  0
  -28.3109  -15.3129   20.7712 N   0  0  0  0  0  0  0  0  0  0  0  0
  -29.6294  -15.5524   20.6701 N   0  0  0  0  0  0  0  0  0  0  0  0
  -23.7045  -30.3648   22.2487 N   0  0  0  0  0  0  0  0  0  0  0  0
  -29.6968  -19.3500   21.0659 N   0  0  0  0  0  0  0  0  0  0  0  0
  -31.6919  -14.5477   20.0809 N   0  0  0  0  0  0  0  0  0  0  0  0
  -28.6966  -11.2280   19.4452 N   0  0  0  0  0  0  0  0  0  0  0  0
  -29.5525  -20.1824   18.8639 N   0  0  0  0  0  0  0  0  0  0  0  0
  -27.1338  -24.2381   17.8122 N   0  0  0  0  0  0  0  0  0  0  0  0
  -20.2689  -29.3346   22.9056 N   0  0  0  0  0  0  0  0  0  0  0  0
  -26.2351  -32.6020   22.4704 N   0  0  0  0  0  0  0  0  0  0  0  0
  -29.5144  -31.1990   23.0582 N   0  3  0  0  0  0  0  0  0  0  0  0
  -30.9210  -11.7749   19.3365 O   0  0  0  0  0  0  0  0  0  0  0  0
  -21.3594  -30.5541   21.2485 O   0  0  0  0  0  0  0  0  0  0  0  0
  -23.6951  -32.1705   23.7237 O   0  0  0  0  0  0  0  0  0  0  0  0
  -27.5266  -31.2814   21.0686 O   0  0  0  0  0  0  0  0  0  0  0  0
  -30.3727  -21.5073   20.5825 O   0  0  0  0  0  0  0  0  0  0  0  0
  -23.1976  -11.5500   20.2770 O   0  0  0  0  0  0  0  0  0  0  0  0
  -30.0661  -19.8577   16.1154 O   0  0  0  0  0  0  0  0  0  0  0  0
  -24.7486  -25.6808   18.3728 O   0  0  0  0  0  0  0  0  0  1  0  0
  -22.8124   -6.4674   22.3800 F   0  0  0  0  0  0  0  0  0  0  0  0
  -21.5047  -11.0166   22.3965 F   0  0  0  0  0  0  0  0  0  0  0  0
  -28.0813  -22.3931   19.6342 F   0  0  0  0  0  0  0  0  0  0  0  0
  1  2  1  0  0  0  0
  1  5  2  0  0  0  0
  2  6  2  0  0  0  0
  3  9  2  0  0  0  0
  3 17  1  0  0  0  0
  4 10  1  0  0  0  0
  4 17  2  0  0  0  0
  5 19  1  0  0  0  0
  6 21  1  0  0  0  0
  7 11  2  0  0  0  0
  7 20  1  0  0  0  0
  8 12  2  0  0  0  0
  8 23  1  0  0  0  0
  9 25  1  0  0  0  0
 10 25  2  0  0  0  0
 11 26  1  0  0  0  0
 12 27  1  0  0  0  0
 13 14  2  0  0  0  0
 13 28  1  0  0  0  0
 14 29  1  0  0  0  0
 15 22  1  0  0  0  0
 15 26  2  0  0  0  0
 16 29  2  0  0  0  0
 16 30  1  0  0  0  0
 17 32  1  0  0  0  0
 18 32  1  0  0  0  0
 18 33  2  0  0  0  0
 18 34  1  0  0  0  0
 19 21  2  0  0  0  0
 19 39  1  0  0  0  0
 20 22  2  0  0  0  0
 20 40  1  0  0  0  0
 21 48  1  0  0  0  0
 22 41  1  0  0  0  0
 23 31  2  0  0  0  0
 23 69  1  0  0  0  0
 24 27  2  0  0  0  0
 24 31  1  0  0  0  0
 24 68  1  0  0  0  0
 25 78  1  0  0  0  0
 26 80  1  0  0  0  0
 27 79  1  0  0  0  0
 28 30  2  0  0  0  0
 28 78  1  0  0  0  0
 29 81  1  0  0  0  0
 30 82  1  0  0  0  0
 31 83  1  0  0  0  0
 32 62  2  0  0  0  0
 33 63  1  0  0  0  0
 33 66  1  0  0  0  0
 34 67  1  0  0  0  0
 34 73  2  0  0  0  0
 35 49  1  0  0  0  0
 35 70  1  0  0  0  0
 35 74  2  0  0  0  0
 36 59  1  0  0  0  0
 36 64  1  0  0  0  0
 36 75  2  0  0  0  0
 37 60  1  0  0  0  0
 37 71  1  0  0  0  0
 37 76  2  0  0  0  0
 38 65  1  0  0  0  0
 38 68  1  0  0  0  0
 38 77  2  0  0  0  0
 39 42  1  0  0  0  0
 40 49  1  0  0  0  0
 41 64  1  0  0  0  0
 42 44  1  0  0  0  0
 43 45  1  0  0  0  0
 43 46  1  0  0  0  0
 44 48  1  0  0  0  0
 45 50  1  0  0  0  0
 46 65  1  0  0  0  0
 47 50  1  0  0  0  0
 47 65  1  0  0  0  0
 48 70  1  0  0  0  0
 49 64  1  0  0  0  0
 50 63  1  0  0  0  0
 51 60  1  0  0  0  0
 52 61  1  0  0  0  0
 53 61  1  0  0  0  0
 54 61  1  0  0  0  0
 55 72  1  0  0  0  0
 56 79  1  0  0  0  0
 57 58  1  0  0  0  0
 57 69  1  0  0  0  0
 58 80  1  0  0  0  0
 59 61  1  0  0  0  0
 59 71  1  0  0  0  0
 60 72  1  0  0  0  0
 62 63  1  0  0  0  0
M  CHG  1  72   1
M  ISO  4  38 100  58 101  68 100  80 101
M  END
> <Batch ID>
0015

> <Smiles>
CNC(C)C(=O)NC(C(=O)N1Cc2cc([101O:1][101CH2:1]CNc3ccc(OC)c([100NH:0][100C:0](=O)N4CCCC(n5nc(-c6ccc(Oc7ccc(F)cc7F)cc6)c(C(N)=O)c5N)C4)c3F)ccc2CC1C(=O)NC1CCCc2ccccc21)C(C)(C)C

> <Shape>
0.308

> <Color>
0.096

> <Negative vol penalty>
0.000

$$$$

  -OEChem-04052315553D

 84 92  0     1  0  0  0  0  0999 V2000
  -31.9355  -31.0157   23.0500 C   0  0  0  0  0  0  0  0  0  0  0  0
  -31.6464  -29.7677   22.5076 C   0  0  0  0  0  0  0  0  0  0  0  0
  -22.9961  -10.1370   19.8768 C   0  0  0  0  0  0  0  0  0  0  0  0
  -24.0133   -9.7180   22.0278 C   0  0  0  0  0  0  0  0  0  0  0  0
  -30.9596  -31.7053   23.7684 C   0  0  0  0  0  0  0  0  0  0  0  0
  -30.3815  -29.2080   22.6842 C   0  0  0  0  0  0  0  0  0  0  0  0
  -28.5333  -27.1987   18.4190 C   0  0  0  0  0  0  0  0  0  0  0  0
  -29.9496  -17.9715   19.5392 C   0  0  0  0  0  0  0  0  0  0  0  0
  -30.1444  -19.2866   19.1173 C   0  0  0  0  0  0  0  0  0  0  0  0
  -22.2637   -8.9557   19.9930 C   0  0  0  0  0  0  0  0  0  0  0  0
  -23.2808   -8.5366   22.1441 C   0  0  0  0  0  0  0  0  0  0  0  0
  -29.0244  -25.9507   18.0382 C   0  0  0  0  0  0  0  0  0  0  0  0
  -20.1280   -7.6325   22.9582 C   0  0  0  0  0  0  0  0  0  0  0  0
  -19.5093   -7.3731   24.1811 C   0  0  0  0  0  0  0  0  0  0  0  0
  -27.0516  -24.9031   18.9491 C   0  0  0  0  0  0  0  0  0  0  0  0
  -29.2518  -18.7709   21.7097 C   0  0  0  0  0  0  0  0  0  0  0  0
  -20.7893   -5.3353   24.3963 C   0  0  0  0  0  0  0  0  0  0  0  0
  -23.8710  -10.5182   20.8942 C   0  0  0  0  0  0  0  0  0  0  0  0
  -24.2454  -13.0222   21.2060 C   0  0  0  0  0  0  0  0  0  0  0  0
  -29.6791  -31.1581   23.9457 C   0  0  0  0  0  0  0  0  0  0  0  0
  -27.3006  -27.3075   19.0786 C   0  0  0  0  0  0  0  0  0  0  0  0
  -29.3880  -29.8904   23.4068 C   0  0  0  0  0  0  0  0  0  0  0  0
  -26.5459  -26.1539   19.3350 C   0  0  0  0  0  0  0  0  0  0  0  0
  -29.5033  -17.7136   20.8353 C   0  0  0  0  0  0  0  0  0  0  0  0
  -29.4466  -20.0861   21.2879 C   0  0  0  0  0  0  0  0  0  0  0  0
  -29.8929  -20.3440   19.9917 C   0  0  0  0  0  0  0  0  0  0  0  0
  -22.4060   -8.1555   21.1266 C   0  0  0  0  0  0  0  0  0  0  0  0
  -28.2849  -24.8024   18.3058 C   0  0  0  0  0  0  0  0  0  0  0  0
  -21.0773   -6.7434   22.4543 C   0  0  0  0  0  0  0  0  0  0  0  0
  -19.8400   -6.2245   24.9002 C   0  0  0  0  0  0  0  0  0  0  0  0
  -21.4080   -5.5948   23.1734 C   0  0  0  0  0  0  0  0  0  0  0  0
  -24.6283  -11.7381   20.7745 C   0  0  0  0  0  0  0  0  0  0  0  0
  -25.3031  -13.8290   20.8640 C   0  0  0  0  0  0  0  0  0  0  0  0
  -23.0413  -13.4477   21.8578 C   0  0  0  0  0  0  0  0  0  0  0  0
  -26.3668  -28.3604   21.9287 C   0  0  0  0  0  0  0  0  0  0  0  0
  -23.4032  -27.8396   20.7171 C   0  0  0  0  0  0  0  0  0  0  0  0
  -21.4411  -26.1748   18.4754 C   0  0  0  0  0  0  0  0  0  0  0  0
  -30.9556  -14.4277   20.9493 C   0  0  0  0  0  0  0  0  0  0  0  0
  -28.6719  -31.9200   24.7701 C   0  0  0  0  0  0  0  0  0  0  0  0
  -26.7724  -28.6635   19.4590 C   0  0  0  0  0  0  0  0  0  0  0  0
  -25.2073  -26.2185   20.0224 C   0  0  0  0  0  0  0  0  0  0  0  0
  -27.2392  -31.4237   24.5927 C   0  0  0  0  0  0  0  0  0  0  0  0
  -29.3427  -12.9406   17.9679 C   0  0  0  0  0  0  0  0  0  0  0  0
  -27.1877  -29.9014   24.6735 C   0  0  0  0  0  0  0  0  0  0  0  0
  -27.9672  -12.5397   18.4984 C   0  0  0  0  0  0  0  0  0  0  0  0
  -30.4000  -12.9301   19.0678 C   0  0  0  0  0  0  0  0  0  0  0  0
  -28.6704  -13.3586   20.7822 C   0  0  0  0  0  0  0  0  0  0  0  0
  -28.0198  -29.2611   23.5558 C   0  0  1  0  0  0  0  0  0  0  0  0
  -25.7438  -28.6099   20.5844 C   0  0  1  0  0  0  0  0  0  0  0  0
  -27.5727  -13.4041   19.7086 C   0  0  2  0  0  0  0  0  0  0  0  0
  -29.1695  -21.1995   22.2450 C   0  0  0  0  0  0  0  0  0  0  0  0
  -19.0514  -25.9309   17.7491 C   0  0  0  0  0  0  0  0  0  0  0  0
  -32.0600  -21.7682   18.1591 C   0  0  0  0  0  0  0  0  0  0  0  0
  -22.8289  -26.1409   23.1858 C   0  0  0  0  0  0  0  0  0  0  0  0
  -20.8565  -25.1798   21.9799 C   0  0  0  0  0  0  0  0  0  0  0  0
  -20.9429  -27.6227   22.4774 C   0  0  0  0  0  0  0  0  0  0  0  0
  -31.5325  -16.3931   22.3219 C   0  0  0  0  0  0  0  0  0  0  0  0
  -22.0540  -27.1248   15.7402 C   0  0  0  0  0  0  0  0  0  0  0  0
  -29.2953  -16.3072   21.2859 C   0  0  0  0  0  0  0  0  0  0  0  0
  -30.1798  -23.4228   17.9035 C   0  0  0  0  0  0  0  0  0  1  0  0
  -22.4513  -26.6683   20.6868 C   0  0  1  0  0  0  0  0  0  0  0  0
  -20.3653  -26.6621   17.5216 C   0  0  2  0  0  0  0  0  0  0  0  0
  -30.5528  -21.9771   18.2245 C   0  0  2  0  0  0  0  0  0  0  0  0
  -21.7960  -26.4012   22.0712 C   0  0  0  0  0  0  0  0  0  0  0  0
  -25.8350  -11.7251   20.2019 N   0  0  0  0  0  0  0  0  0  0  0  0
  -26.2194  -13.0110   20.2712 N   0  0  0  0  0  0  0  0  0  0  0  0
  -24.7366  -27.5668   20.3803 N   0  0  0  0  0  0  0  0  0  0  0  0
  -29.9807  -13.7240   20.2233 N   0  0  0  0  0  0  0  0  0  0  0  0
  -25.5293  -15.1512   21.0154 N   0  0  0  0  0  0  0  0  0  0  0  0
  -22.0573  -12.4892   22.1355 N   0  0  0  0  0  0  0  0  0  0  0  0
  -30.0913  -21.6413   19.5566 N   0  0  0  0  0  0  0  0  0  0  0  0
  -27.3012  -29.3082   22.3005 N   0  0  0  0  0  0  0  0  0  0  0  0
  -21.4978  -26.9448   19.6178 N   0  0  0  0  0  0  0  0  0  0  0  0
  -30.5548  -15.6218   21.5674 N   0  0  0  0  0  0  0  0  0  0  0  0
  -20.7870  -26.4424   16.1092 N   0  3  0  0  0  0  0  0  0  0  0  0
  -22.8369  -14.6455   22.1695 O   0  0  0  0  0  0  0  0  0  0  0  0
  -26.0241  -27.3813   22.5811 O   0  0  0  0  0  0  0  0  0  0  0  0
  -22.9778  -28.9568   21.0213 O   0  0  0  0  0  0  0  0  0  0  0  0
  -22.1569  -25.2056   18.2330 O   0  0  0  0  0  0  0  0  0  0  0  0
  -32.1204  -14.0173   21.0318 O   0  0  0  0  0  0  0  0  0  0  0  0
  -21.6913   -7.0028   21.2405 O   0  0  0  0  0  0  0  0  0  0  0  0
  -28.7622  -23.5829   17.9357 O   0  0  0  0  0  0  0  0  0  1  0  0
  -19.2469   -5.9762   26.0752 F   0  0  0  0  0  0  0  0  0  0  0  0
  -22.3201   -4.7375   22.6949 F   0  0  0  0  0  0  0  0  0  0  0  0
  1  2  1  0  0  0  0
  1  5  2  0  0  0  0
  2  6  2  0  0  0  0
  3 10  2  0  0  0  0
  3 18  1  0  0  0  0
  4 11  1  0  0  0  0
  4 18  2  0  0  0  0
  5 20  1  0  0  0  0
  6 22  1  0  0  0  0
  7 12  2  0  0  0  0
  7 21  1  0  0  0  0
  8  9  2  0  0  0  0
  8 24  1  0  0  0  0
  9 26  1  0  0  0  0
 10 27  1  0  0  0  0
 11 27  2  0  0  0  0
 12 28  1  0  0  0  0
 13 14  2  0  0  0  0
 13 29  1  0  0  0  0
 14 30  1  0  0  0  0
 15 23  1  0  0  0  0
 15 28  2  0  0  0  0
 16 24  2  0  0  0  0
 16 25  1  0  0  0  0
 17 30  2  0  0  0  0
 17 31  1  0  0  0  0
 18 32  1  0  0  0  0
 19 32  1  0  0  0  0
 19 33  2  0  0  0  0
 19 34  1  0  0  0  0
 20 22  2  0  0  0  0
 20 39  1  0  0  0  0
 21 23  2  0  0  0  0
 21 40  1  0  0  0  0
 22 48  1  0  0  0  0
 23 41  1  0  0  0  0
 24 59  1  0  0  0  0
 25 26  2  0  0  0  0
 25 51  1  0  0  0  0
 26 71  1  0  0  0  0
 27 81  1  0  0  0  0
 28 82  1  0  0  0  0
 29 31  2  0  0  0  0
 29 81  1  0  0  0  0
 30 83  1  0  0  0  0
 31 84  1  0  0  0  0
 32 65  2  0  0  0  0
 33 66  1  0  0  0  0
 33 69  1  0  0  0  0
 34 70  1  0  0  0  0
 34 76  2  0  0  0  0
 35 49  1  0  0  0  0
 35 72  1  0  0  0  0
 35 77  2  0  0  0  0
 36 61  1  0  0  0  0
 36 67  1  0  0  0  0
 36 78  2  0  0  0  0
 37 62  1  0  0  0  0
 37 73  1  0  0  0  0
 37 79  2  0  0  0  0
 38 68  1  0  0  0  0
 38 74  1  0  0  0  0
 38 80  2  0  0  0  0
 39 42  1  0  0  0  0
 40 49  1  0  0  0  0
 41 67  1  0  0  0  0
 42 44  1  0  0  0  0
 43 45  1  0  0  0  0
 43 46  1  0  0  0  0
 44 48  1  0  0  0  0
 45 50  1  0  0  0  0
 46 68  1  0  0  0  0
 47 50  1  0  0  0  0
 47 68  1  0  0  0  0
 48 72  1  0  0  0  0
 49 67  1  0  0  0  0
 50 66  1  0  0  0  0
 52 62  1  0  0  0  0
 53 63  1  0  0  0  0
 54 64  1  0  0  0  0
 55 64  1  0  0  0  0
 56 64  1  0  0  0  0
 57 74  1  0  0  0  0
 58 75  1  0  0  0  0
 59 74  1  0  0  0  0
 60 63  1  0  0  0  0
 60 82  1  0  0  0  0
 61 64  1  0  0  0  0
 61 73  1  0  0  0  0
 62 75  1  0  0  0  0
 63 71  1  0  0  0  0
 65 66  1  0  0  0  0
M  CHG  1  75   1
M  ISO  4  38 100  60 101  74 100  82 101
M  END
> <Batch ID>
0015

> <Smiles>
CNC(C)C(=O)NC(C(=O)N1Cc2cc([101O:1][101CH2:1]C(C)Nc3ccc(C[100N:0](C)[100C:0](=O)N4CCCC(n5nc(-c6ccc(Oc7ccc(F)cc7F)cc6)c(C(N)=O)c5N)C4)cc3C)ccc2CC1C(=O)NC1CCCc2ccccc21)C(C)(C)C

> <Shape>
0.342

> <Color>
0.172

> <Negative vol penalty>
0.000

$$$$

  -OEChem-04052315553D

 88 96  0     1  0  0  0  0  0999 V2000
  -23.4101  -23.9511   19.5804 C   0  0  0  0  0  0  0  0  0  0  0  0
  -24.5153  -23.1605   19.8789 C   0  0  0  0  0  0  0  0  0  0  0  0
  -21.8391  -28.5806   20.3223 C   0  0  0  0  0  0  0  0  0  0  0  0
  -23.0157  -26.9017   21.6006 C   0  0  0  0  0  0  0  0  0  0  0  0
  -22.1341  -23.5344   19.9574 C   0  0  0  0  0  0  0  0  0  0  0  0
  -24.3452  -21.9533   20.5556 C   0  0  0  0  0  0  0  0  0  0  0  0
  -27.0470  -18.1862   18.5175 C   0  0  0  0  0  0  0  0  0  0  0  0
  -20.6581  -28.2641   20.9937 C   0  0  0  0  0  0  0  0  0  0  0  0
  -21.8347  -26.5852   22.2720 C   0  0  0  0  0  0  0  0  0  0  0  0
  -28.4098  -18.1496   18.8096 C   0  0  0  0  0  0  0  0  0  0  0  0
  -19.2480  -28.9175   23.9966 C   0  0  0  0  0  0  0  0  0  0  0  0
  -18.4622  -29.9731   24.4587 C   0  0  0  0  0  0  0  0  0  0  0  0
  -28.0003  -16.4573   20.4792 C   0  0  0  0  0  0  0  0  0  0  0  0
  -32.7998  -22.0405   22.9381 C   0  0  0  0  0  0  0  0  0  0  0  0
  -32.6727  -24.0161   21.5533 C   0  0  0  0  0  0  0  0  0  0  0  0
  -16.6253  -29.2048   23.0903 C   0  0  0  0  0  0  0  0  0  0  0  0
  -23.0179  -27.8994   20.6258 C   0  0  0  0  0  0  0  0  0  0  0  0
  -25.1988  -29.1838   20.3069 C   0  0  0  0  0  0  0  0  0  0  0  0
  -21.9473  -22.3168   20.6306 C   0  0  0  0  0  0  0  0  0  0  0  0
  -26.1478  -17.3651   19.2128 C   0  0  0  0  0  0  0  0  0  0  0  0
  -23.0656  -21.5205   20.9432 C   0  0  0  0  0  0  0  0  0  0  0  0
  -26.6270  -16.4835   20.1922 C   0  0  0  0  0  0  0  0  0  0  0  0
  -32.6768  -23.4246   22.8166 C   0  0  0  0  0  0  0  0  0  0  0  0
  -32.9188  -21.2479   21.7964 C   0  0  0  0  0  0  0  0  0  0  0  0
  -32.7917  -23.2236   20.4116 C   0  0  0  0  0  0  0  0  0  0  0  0
  -20.6559  -27.2664   21.9685 C   0  0  0  0  0  0  0  0  0  0  0  0
  -28.8863  -17.2872   19.7926 C   0  0  0  0  0  0  0  0  0  0  0  0
  -18.7226  -28.0055   23.0812 C   0  0  0  0  0  0  0  0  0  0  0  0
  -17.1508  -30.1168   24.0056 C   0  0  0  0  0  0  0  0  0  0  0  0
  -17.4112  -28.1492   22.6281 C   0  0  0  0  0  0  0  0  0  0  0  0
  -32.9147  -21.8395   20.5332 C   0  0  0  0  0  0  0  0  0  0  0  0
  -24.2381  -28.2255   19.9322 C   0  0  0  0  0  0  0  0  0  0  0  0
  -26.1584  -29.1092   19.3271 C   0  0  0  0  0  0  0  0  0  0  0  0
  -25.2217  -30.0628   21.4394 C   0  0  0  0  0  0  0  0  0  0  0  0
  -23.6558  -17.8772   21.1184 C   0  0  0  0  0  0  0  0  0  0  0  0
  -23.3543  -14.6522   20.9433 C   0  0  0  0  0  0  0  0  0  0  0  0
  -32.1343  -25.0398   18.7952 C   0  0  0  0  0  0  0  0  0  0  0  0
  -24.8372  -11.6299   20.3834 C   0  0  0  0  0  0  0  0  0  0  0  0
  -29.4578  -26.1176   15.9642 C   0  0  0  0  0  0  0  0  0  0  0  0
  -20.5539  -21.9309   21.0597 C   0  0  0  0  0  0  0  0  0  0  0  0
  -24.6842  -17.3971   18.8673 C   0  0  0  0  0  0  0  0  0  0  0  0
  -25.7056  -15.5669   20.9533 C   0  0  0  0  0  0  0  0  0  0  0  0
  -20.4201  -20.4592   21.4426 C   0  0  0  0  0  0  0  0  0  0  0  0
  -26.1279  -26.7306   14.8631 C   0  0  0  0  0  0  0  0  0  0  0  0
  -21.5656  -20.0396   22.3583 C   0  0  0  0  0  0  0  0  0  0  0  0
  -25.4177  -27.2470   16.1157 C   0  0  0  0  0  0  0  0  0  0  0  0
  -27.1491  -25.6463   15.1999 C   0  0  0  0  0  0  0  0  0  0  0  0
  -27.4277  -26.5407   17.4794 C   0  0  0  0  0  0  0  0  0  0  0  0
  -22.9192  -20.1926   21.6541 C   0  0  1  0  0  0  0  0  0  0  0  0
  -23.7926  -16.8881   19.9956 C   0  0  1  0  0  0  0  0  0  0  0  0
  -26.4281  -27.6753   17.1968 C   0  0  2  0  0  0  0  0  0  0  0  0
  -32.5486  -24.2712   24.0374 C   0  0  0  0  0  0  0  0  0  0  0  0
  -25.0140   -9.1486   20.0527 C   0  0  0  0  0  0  0  0  0  0  0  0
  -23.3581  -14.6115   23.9942 C   0  0  0  0  0  0  0  0  0  0  0  0
  -23.8205  -12.1531   23.8914 C   0  0  0  0  0  0  0  0  0  0  0  0
  -21.7054  -13.0637   22.9323 C   0  0  0  0  0  0  0  0  0  0  0  0
  -24.3528  -11.8662   17.4733 C   0  0  0  0  0  0  0  0  0  0  0  0
  -33.0493  -19.7641   21.9760 C   0  0  0  0  0  0  0  0  0  0  0  0
  -32.3865  -25.3704   17.3283 C   0  0  0  0  0  0  0  0  0  0  0  0
  -31.7070  -26.6526   16.8666 C   0  0  0  0  0  0  0  0  0  0  0  0
  -31.9181  -17.5485   21.7521 C   0  0  0  0  0  0  0  0  0  0  0  0
  -30.5819  -16.9153   21.4181 C   0  0  0  0  0  0  0  0  0  1  0  0
  -23.8916  -13.4837   21.7338 C   0  0  1  0  0  0  0  0  0  0  0  0
  -24.4215  -10.4470   19.5276 C   0  0  2  0  0  0  0  0  0  0  0  0
  -23.2113  -13.3465   23.1251 C   0  0  0  0  0  0  0  0  0  0  0  0
  -24.5581  -27.5889   18.8025 N   0  0  0  0  0  0  0  0  0  0  0  0
  -25.7307  -28.1484   18.4588 N   0  0  0  0  0  0  0  0  0  0  0  0
  -24.2824  -15.6397   20.5837 N   0  0  0  0  0  0  0  0  0  0  0  0
  -28.0785  -26.1166   16.2299 N   0  0  0  0  0  0  0  0  0  0  0  0
  -27.3180  -29.7725   19.1323 N   0  0  0  0  0  0  0  0  0  0  0  0
  -24.1563  -30.0093   22.3484 N   0  0  0  0  0  0  0  0  0  0  0  0
  -32.7832  -23.8518   19.1623 N   0  0  0  0  0  0  0  0  0  0  0  0
  -23.1361  -19.0980   20.7326 N   0  0  0  0  0  0  0  0  0  0  0  0
  -23.7453  -12.3106   20.8788 N   0  0  0  0  0  0  0  0  0  0  0  0
  -30.2680  -26.5849   16.9918 N   0  0  0  0  0  0  0  0  0  0  0  0
  -24.8794  -10.6380   18.1223 N   0  3  0  0  0  0  0  0  0  0  0  0
  -31.8023  -19.0245   21.6416 N   0  3  0  0  0  0  0  0  0  0  0  0
  -26.1512  -30.8832   21.6306 O   0  0  0  0  0  0  0  0  0  0  0  0
  -23.9951  -17.5560   22.2513 O   0  0  0  0  0  0  0  0  0  0  0  0
  -22.1567  -14.6839   20.6493 O   0  0  0  0  0  0  0  0  0  0  0  0
  -31.4532  -25.7588   19.5187 O   0  0  0  0  0  0  0  0  0  0  0  0
  -26.0130  -11.9187   20.5946 O   0  0  0  0  0  0  0  0  0  0  0  0
  -29.9317  -25.7357   14.8888 O   0  0  0  0  0  0  0  0  0  0  0  0
  -19.5038  -26.9575   22.6240 O   0  0  0  0  0  0  0  0  0  0  0  0
  -30.2158  -17.2500   20.0801 O   0  0  0  0  0  0  0  0  0  1  0  0
  -16.3958  -31.1297   24.4507 F   0  0  0  0  0  0  0  0  0  0  0  0
  -16.9005  -27.2755   21.7496 F   0  0  0  0  0  0  0  0  0  0  0  0
  -33.0635  -20.8490   19.1183 Cl  0  0  0  0  0  0  0  0  0  0  0  0
  1  2  1  0  0  0  0
  1  5  2  0  0  0  0
  2  6  2  0  0  0  0
  3  8  2  0  0  0  0
  3 17  1  0  0  0  0
  4  9  1  0  0  0  0
  4 17  2  0  0  0  0
  5 19  1  0  0  0  0
  6 21  1  0  0  0  0
  7 10  2  0  0  0  0
  7 20  1  0  0  0  0
  8 26  1  0  0  0  0
  9 26  2  0  0  0  0
 10 27  1  0  0  0  0
 11 12  2  0  0  0  0
 11 28  1  0  0  0  0
 12 29  1  0  0  0  0
 13 22  1  0  0  0  0
 13 27  2  0  0  0  0
 14 23  2  0  0  0  0
 14 24  1  0  0  0  0
 15 23  1  0  0  0  0
 15 25  2  0  0  0  0
 16 29  2  0  0  0  0
 16 30  1  0  0  0  0
 17 32  1  0  0  0  0
 18 32  1  0  0  0  0
 18 33  2  0  0  0  0
 18 34  1  0  0  0  0
 19 21  2  0  0  0  0
 19 40  1  0  0  0  0
 20 22  2  0  0  0  0
 20 41  1  0  0  0  0
 21 49  1  0  0  0  0
 22 42  1  0  0  0  0
 23 52  1  0  0  0  0
 24 31  2  0  0  0  0
 24 58  1  0  0  0  0
 25 31  1  0  0  0  0
 25 72  1  0  0  0  0
 26 84  1  0  0  0  0
 27 85  1  0  0  0  0
 28 30  2  0  0  0  0
 28 84  1  0  0  0  0
 29 86  1  0  0  0  0
 30 87  1  0  0  0  0
 31 88  1  0  0  0  0
 32 66  2  0  0  0  0
 33 67  1  0  0  0  0
 33 70  1  0  0  0  0
 34 71  1  0  0  0  0
 34 78  2  0  0  0  0
 35 50  1  0  0  0  0
 35 73  1  0  0  0  0
 35 79  2  0  0  0  0
 36 63  1  0  0  0  0
 36 68  1  0  0  0  0
 36 80  2  0  0  0  0
 37 59  1  0  0  0  0
 37 72  1  0  0  0  0
 37 81  2  0  0  0  0
 38 64  1  0  0  0  0
 38 74  1  0  0  0  0
 38 82  2  0  0  0  0
 39 69  1  0  0  0  0
 39 75  1  0  0  0  0
 39 83  2  0  0  0  0
 40 43  1  0  0  0  0
 41 50  1  0  0  0  0
 42 68  1  0  0  0  0
 43 45  1  0  0  0  0
 44 46  1  0  0  0  0
 44 47  1  0  0  0  0
 45 49  1  0  0  0  0
 46 51  1  0  0  0  0
 47 69  1  0  0  0  0
 48 51  1  0  0  0  0
 48 69  1  0  0  0  0
 49 73  1  0  0  0  0
 50 68  1  0  0  0  0
 51 67  1  0  0  0  0
 53 64  1  0  0  0  0
 54 65  1  0  0  0  0
 55 65  1  0  0  0  0
 56 65  1  0  0  0  0
 57 76  1  0  0  0  0
 58 77  1  0  0  0  0
 59 60  1  0  0  0  0
 60 75  1  0  0  0  0
 61 62  1  0  0  0  0
 61 77  1  0  0  0  0
 62 85  1  0  0  0  0
 63 65  1  0  0  0  0
 63 74  1  0  0  0  0
 64 76  1  0  0  0  0
 66 67  1  0  0  0  0
M  CHG  2  76   1  77   1
M  ISO  4  39 100  62 101  75 100  85 101
M  END
> <Batch ID>
0015

> <Smiles>
CNC(C)C(=O)NC(C(=O)N1Cc2cc([101O:1][101CH2:1]CNCc3cc(C)cc(NC(=O)CC[100NH:0][100C:0](=O)N4CCCC(n5nc(-c6ccc(Oc7ccc(F)cc7F)cc6)c(C(N)=O)c5N)C4)c3Cl)ccc2CC1C(=O)NC1CCCc2ccccc21)C(C)(C)C

> <Shape>
0.204

> <Color>
0.081

> <Negative vol penalty>
0.000

$$$$

  -OEChem-04052315553D

 88 96  0     1  0  0  0  0  0999 V2000
  -17.5856  -28.0557   22.8537 C   0  0  0  0  0  0  0  0  0  0  0  0
  -18.0468  -27.5612   21.6379 C   0  0  0  0  0  0  0  0  0  0  0  0
  -26.6134  -12.6467   21.7470 C   0  0  0  0  0  0  0  0  0  0  0  0
  -26.0287  -13.9856   19.8228 C   0  0  0  0  0  0  0  0  0  0  0  0
  -18.4533  -28.1495   23.9410 C   0  0  0  0  0  0  0  0  0  0  0  0
  -19.3763  -27.1612   21.5084 C   0  0  0  0  0  0  0  0  0  0  0  0
  -23.4576  -22.3746   18.0809 C   0  0  0  0  0  0  0  0  0  0  0  0
  -25.3422  -12.0728   21.7340 C   0  0  0  0  0  0  0  0  0  0  0  0
  -24.7575  -13.4117   19.8098 C   0  0  0  0  0  0  0  0  0  0  0  0
  -24.5959  -22.3077   17.2787 C   0  0  0  0  0  0  0  0  0  0  0  0
  -22.3724   -9.9916   21.9871 C   0  0  0  0  0  0  0  0  0  0  0  0
  -22.2832   -8.6092   22.1501 C   0  0  0  0  0  0  0  0  0  0  0  0
  -31.2404  -22.0484   16.8453 C   0  0  0  0  0  0  0  0  0  0  0  0
  -25.9837  -22.4409   19.2473 C   0  0  0  0  0  0  0  0  0  0  0  0
  -31.1751  -22.5470   19.5894 C   0  0  0  0  0  0  0  0  0  0  0  0
  -23.6203   -8.2888   20.1635 C   0  0  0  0  0  0  0  0  0  0  0  0
  -26.9567  -13.6031   20.7915 C   0  0  0  0  0  0  0  0  0  0  0  0
  -31.2346  -23.3616   17.3156 C   0  0  0  0  0  0  0  0  0  0  0  0
  -29.4181  -13.7350   20.1342 C   0  0  0  0  0  0  0  0  0  0  0  0
  -19.7917  -27.7414   23.8275 C   0  0  0  0  0  0  0  0  0  0  0  0
  -23.5741  -22.4863   19.4739 C   0  0  0  0  0  0  0  0  0  0  0  0
  -20.2631  -27.2509   22.5948 C   0  0  0  0  0  0  0  0  0  0  0  0
  -24.8453  -22.5064   20.0651 C   0  0  0  0  0  0  0  0  0  0  0  0
  -31.1808  -21.2338   19.1191 C   0  0  0  0  0  0  0  0  0  0  0  0
  -24.4142  -12.4553   20.7654 C   0  0  0  0  0  0  0  0  0  0  0  0
  -25.8592  -22.3437   17.8616 C   0  0  0  0  0  0  0  0  0  0  0  0
  -23.0854  -10.5227   20.9123 C   0  0  0  0  0  0  0  0  0  0  0  0
  -31.2020  -23.6109   18.6876 C   0  0  0  0  0  0  0  0  0  0  0  0
  -22.9071   -7.7578   21.2383 C   0  0  0  0  0  0  0  0  0  0  0  0
  -23.7094   -9.6712   20.0005 C   0  0  0  0  0  0  0  0  0  0  0  0
  -31.2134  -20.9845   17.7471 C   0  0  0  0  0  0  0  0  0  0  0  0
  -28.2695  -14.1967   20.8047 C   0  0  0  0  0  0  0  0  0  0  0  0
  -30.3964  -14.6403   20.4658 C   0  0  0  0  0  0  0  0  0  0  0  0
  -31.2636  -24.4695   16.3476 C   0  0  0  0  0  0  0  0  0  0  0  0
  -29.5856  -12.5903   19.2874 C   0  0  0  0  0  0  0  0  0  0  0  0
  -22.7104  -24.6561   21.6302 C   0  0  0  0  0  0  0  0  0  0  0  0
  -23.7567  -22.4165   23.7306 C   0  0  0  0  0  0  0  0  0  0  0  0
  -25.7461  -19.7082   24.3262 C   0  0  0  0  0  0  0  0  0  0  0  0
  -31.1226  -20.2848   21.4520 C   0  0  0  0  0  0  0  0  0  0  0  0
  -20.7041  -27.9059   25.0171 C   0  0  0  0  0  0  0  0  0  0  0  0
  -22.3363  -22.5305   20.3273 C   0  0  0  0  0  0  0  0  0  0  0  0
  -25.0244  -22.6051   21.5573 C   0  0  0  0  0  0  0  0  0  0  0  0
  -22.0021  -27.1106   24.9037 C   0  0  0  0  0  0  0  0  0  0  0  0
  -31.0135  -17.9242   24.1152 C   0  0  0  0  0  0  0  0  0  0  0  0
  -22.6252  -27.2995   23.5242 C   0  0  0  0  0  0  0  0  0  0  0  0
  -30.4073  -16.6764   23.4691 C   0  0  0  0  0  0  0  0  0  0  0  0
  -30.3896  -19.2065   23.5674 C   0  0  0  0  0  0  0  0  0  0  0  0
  -29.7977  -18.0802   21.4579 C   0  0  0  0  0  0  0  0  0  0  0  0
  -21.6921  -26.7837   22.4221 C   0  0  1  0  0  0  0  0  0  0  0  0
  -22.5761  -23.1610   21.6956 C   0  0  1  0  0  0  0  0  0  0  0  0
  -30.4401  -16.7658   21.9307 C   0  0  2  0  0  0  0  0  0  0  0  0
  -29.8418  -26.7600   19.7948 C   0  0  0  0  0  0  0  0  0  0  0  0
  -26.4169  -18.1196   26.1493 C   0  0  0  0  0  0  0  0  0  0  0  0
  -25.5341  -24.5742   24.9534 C   0  0  0  0  0  0  0  0  0  0  0  0
  -26.8343  -22.7612   26.0894 C   0  0  0  0  0  0  0  0  0  0  0  0
  -24.4166  -23.0771   26.6161 C   0  0  0  0  0  0  0  0  0  0  0  0
  -30.0482  -26.0805   14.9328 C   0  0  0  0  0  0  0  0  0  0  0  0
  -24.6979  -17.3748   22.8377 C   0  0  0  0  0  0  0  0  0  0  0  0
  -28.2358  -23.3647   15.3537 C   0  0  0  0  0  0  0  0  0  0  0  0
  -28.7281  -24.4774   16.2692 C   0  0  0  0  0  0  0  0  0  0  0  0
  -30.0740  -25.2733   19.9604 C   0  0  0  0  0  0  0  0  0  0  0  0
  -26.8732  -22.8190   15.7636 C   0  0  0  0  0  0  0  0  0  1  0  0
  -25.0807  -22.0975   24.3820 C   0  0  1  0  0  0  0  0  0  0  0  0
  -25.4601  -18.3760   24.9954 C   0  0  2  0  0  0  0  0  0  0  0  0
  -25.4634  -23.1276   25.4820 C   0  0  0  0  0  0  0  0  0  0  0  0
  -28.4958  -15.3088   21.5091 N   0  0  0  0  0  0  0  0  0  0  0  0
  -29.7978  -15.5534   21.2832 N   0  0  0  0  0  0  0  0  0  0  0  0
  -23.7838  -22.6519   22.3487 N   0  0  0  0  0  0  0  0  0  0  0  0
  -30.4606  -19.2234   22.1047 N   0  0  0  0  0  0  0  0  0  0  0  0
  -31.7017  -14.7362   20.1351 N   0  0  0  0  0  0  0  0  0  0  0  0
  -28.4770  -11.7658   19.0514 N   0  0  0  0  0  0  0  0  0  0  0  0
  -31.1545  -20.1765   20.0620 N   0  0  0  0  0  0  0  0  0  0  0  0
  -21.7474  -25.3395   22.3479 N   0  0  0  0  0  0  0  0  0  0  0  0
  -24.9798  -20.7228   24.8599 N   0  0  0  0  0  0  0  0  0  0  0  0
  -30.0238  -24.9666   15.8871 N   0  0  0  0  0  0  0  0  0  0  0  0
  -25.5984  -17.2631   24.0140 N   0  3  0  0  0  0  0  0  0  0  0  0
  -32.3772  -24.8816   16.0250 O   0  0  0  0  0  0  0  0  0  0  0  0
  -30.6897  -12.2978   18.7688 O   0  0  0  0  0  0  0  0  0  0  0  0
  -23.6213  -25.1529   20.9781 O   0  0  0  0  0  0  0  0  0  0  0  0
  -22.7351  -22.4483   24.4211 O   0  0  0  0  0  0  0  0  0  0  0  0
  -26.5697  -19.8368   23.4231 O   0  0  0  0  0  0  0  0  0  0  0  0
  -31.6479  -21.2068   22.0812 O   0  0  0  0  0  0  0  0  0  0  0  0
  -23.1737  -11.8953   20.7523 O   0  0  0  0  0  0  0  0  0  0  0  0
  -26.9720  -22.2793   17.0809 O   0  0  0  0  0  0  0  0  0  1  0  0
  -31.1939  -24.8869   19.1668 O   0  0  0  0  0  0  0  0  0  0  0  0
  -22.8227   -6.4303   21.3958 F   0  0  0  0  0  0  0  0  0  0  0  0
  -24.3968  -10.1755   18.9666 F   0  0  0  0  0  0  0  0  0  0  0  0
  -31.2213  -19.3738   17.1221 Cl  0  0  0  0  0  0  0  0  0  0  0  0
  1  2  1  0  0  0  0
  1  5  2  0  0  0  0
  2  6  2  0  0  0  0
  3  8  2  0  0  0  0
  3 17  1  0  0  0  0
  4  9  1  0  0  0  0
  4 17  2  0  0  0  0
  5 20  1  0  0  0  0
  6 22  1  0  0  0  0
  7 10  2  0  0  0  0
  7 21  1  0  0  0  0
  8 25  1  0  0  0  0
  9 25  2  0  0  0  0
 10 26  1  0  0  0  0
 11 12  2  0  0  0  0
 11 27  1  0  0  0  0
 12 29  1  0  0  0  0
 13 18  1  0  0  0  0
 13 31  2  0  0  0  0
 14 23  1  0  0  0  0
 14 26  2  0  0  0  0
 15 24  2  0  0  0  0
 15 28  1  0  0  0  0
 16 29  2  0  0  0  0
 16 30  1  0  0  0  0
 17 32  1  0  0  0  0
 18 28  2  0  0  0  0
 18 34  1  0  0  0  0
 19 32  1  0  0  0  0
 19 33  2  0  0  0  0
 19 35  1  0  0  0  0
 20 22  2  0  0  0  0
 20 40  1  0  0  0  0
 21 23  2  0  0  0  0
 21 41  1  0  0  0  0
 22 49  1  0  0  0  0
 23 42  1  0  0  0  0
 24 31  1  0  0  0  0
 24 72  1  0  0  0  0
 25 83  1  0  0  0  0
 26 84  1  0  0  0  0
 27 30  2  0  0  0  0
 27 83  1  0  0  0  0
 28 85  1  0  0  0  0
 29 86  1  0  0  0  0
 30 87  1  0  0  0  0
 31 88  1  0  0  0  0
 32 66  2  0  0  0  0
 33 67  1  0  0  0  0
 33 70  1  0  0  0  0
 34 75  1  0  0  0  0
 34 77  2  0  0  0  0
 35 71  1  0  0  0  0
 35 78  2  0  0  0  0
 36 50  1  0  0  0  0
 36 73  1  0  0  0  0
 36 79  2  0  0  0  0
 37 63  1  0  0  0  0
 37 68  1  0  0  0  0
 37 80  2  0  0  0  0
 38 64  1  0  0  0  0
 38 74  1  0  0  0  0
 38 81  2  0  0  0  0
 39 69  1  0  0  0  0
 39 72  1  0  0  0  0
 39 82  2  0  0  0  0
 40 43  1  0  0  0  0
 41 50  1  0  0  0  0
 42 68  1  0  0  0  0
 43 45  1  0  0  0  0
 44 46  1  0  0  0  0
 44 47  1  0  0  0  0
 45 49  1  0  0  0  0
 46 51  1  0  0  0  0
 47 69  1  0  0  0  0
 48 51  1  0  0  0  0
 48 69  1  0  0  0  0
 49 73  1  0  0  0  0
 50 68  1  0  0  0  0
 51 67  1  0  0  0  0
 52 61  1  0  0  0  0
 53 64  1  0  0  0  0
 54 65  1  0  0  0  0
 55 65  1  0  0  0  0
 56 65  1  0  0  0  0
 57 75  1  0  0  0  0
 58 76  1  0  0  0  0
 59 60  1  0  0  0  0
 59 62  1  0  0  0  0
 60 75  1  0  0  0  0
 61 85  1  0  0  0  0
 62 84  1  0  0  0  0
 63 65  1  0  0  0  0
 63 74  1  0  0  0  0
 64 76  1  0  0  0  0
 66 67  1  0  0  0  0
M  CHG  1  76   1
M  ISO  4  39 100  62 101  72 100  84 101
M  END
> <Batch ID>
0015

> <Smiles>
CCOc1cc([100NH:0][100C:0](=O)N2CCCC(n3nc(-c4ccc(Oc5ccc(F)cc5F)cc4)c(C(N)=O)c3N)C2)c(Cl)cc1C(=O)N(C)CC[101CH2:1][101O:1]c1ccc2c(c1)CN(C(=O)C(NC(=O)C(C)NC)C(C)(C)C)C(C(=O)NC1CCCc3ccccc31)C2

> <Shape>
0.213

> <Color>
0.079

> <Negative vol penalty>
0.000

$$$$

  -OEChem-04052315553D

 92 99  0     1  0  0  0  0  0999 V2000
  -24.6842  -37.5268   28.1831 C   0  0  0  0  0  0  0  0  0  0  0  0
  -24.3052  -36.1886   28.2163 C   0  0  0  0  0  0  0  0  0  0  0  0
  -23.4983   -9.5400   19.9341 C   0  0  0  0  0  0  0  0  0  0  0  0
  -23.5071   -9.9942   22.3069 C   0  0  0  0  0  0  0  0  0  0  0  0
  -25.0430  -38.1187   26.9728 C   0  0  0  0  0  0  0  0  0  0  0  0
  -24.2837  -35.4418   27.0389 C   0  0  0  0  0  0  0  0  0  0  0  0
  -25.6340  -29.5002   26.4228 C   0  0  0  0  0  0  0  0  0  0  0  0
  -22.8224   -8.3421   20.1659 C   0  0  0  0  0  0  0  0  0  0  0  0
  -22.8311   -8.7964   22.5388 C   0  0  0  0  0  0  0  0  0  0  0  0
  -24.8356  -28.3598   26.3470 C   0  0  0  0  0  0  0  0  0  0  0  0
  -23.5828   -5.5045   22.7109 C   0  0  0  0  0  0  0  0  0  0  0  0
  -24.0369   -4.6951   23.7522 C   0  0  0  0  0  0  0  0  0  0  0  0
  -24.9480  -28.4483   23.9390 C   0  0  0  0  0  0  0  0  0  0  0  0
  -21.8824   -4.8741   24.8309 C   0  0  0  0  0  0  0  0  0  0  0  0
  -23.8408  -10.3660   21.0046 C   0  0  0  0  0  0  0  0  0  0  0  0
  -23.9705  -12.8684   20.5260 C   0  0  0  0  0  0  0  0  0  0  0  0
  -25.0352  -37.3762   25.7815 C   0  0  0  0  0  0  0  0  0  0  0  0
  -26.0872  -30.1306   25.2551 C   0  0  0  0  0  0  0  0  0  0  0  0
  -24.6414  -36.0247   25.8113 C   0  0  0  0  0  0  0  0  0  0  0  0
  -25.7542  -29.5951   24.0027 C   0  0  0  0  0  0  0  0  0  0  0  0
  -22.4887   -7.9703   21.4682 C   0  0  0  0  0  0  0  0  0  0  0  0
  -24.4901  -27.8354   25.1050 C   0  0  0  0  0  0  0  0  0  0  0  0
  -22.2785   -5.9988   22.7297 C   0  0  0  0  0  0  0  0  0  0  0  0
  -23.1867   -4.3799   24.8122 C   0  0  0  0  0  0  0  0  0  0  0  0
  -21.4284   -5.6836   23.7896 C   0  0  0  0  0  0  0  0  0  0  0  0
  -24.5396  -11.6033   20.7659 C   0  0  0  0  0  0  0  0  0  0  0  0
  -25.0481  -13.7042   20.3628 C   0  0  0  0  0  0  0  0  0  0  0  0
  -22.5912  -13.2535   20.4569 C   0  0  0  0  0  0  0  0  0  0  0  0
  -25.6856  -33.0042   23.9569 C   0  0  0  0  0  0  0  0  0  0  0  0
  -27.8729  -31.9162   21.8228 C   0  0  0  0  0  0  0  0  0  0  0  0
  -29.3659  -29.2458   20.3106 C   0  0  0  0  0  0  0  0  0  0  0  0
  -30.7185  -13.4664   22.2711 C   0  0  0  0  0  0  0  0  0  0  0  0
  -25.3856  -38.0720   24.4901 C   0  0  0  0  0  0  0  0  0  0  0  0
  -26.9698  -31.3445   25.3542 C   0  0  0  0  0  0  0  0  0  0  0  0
  -26.2319  -30.2226   22.7195 C   0  0  0  0  0  0  0  0  0  0  0  0
  -25.6968  -37.1112   23.3455 C   0  0  0  0  0  0  0  0  0  0  0  0
  -29.6028  -13.6992   18.8980 C   0  0  0  0  0  0  0  0  0  0  0  0
  -24.6447  -36.0092   23.2725 C   0  0  0  0  0  0  0  0  0  0  0  0
  -28.1273  -13.3026   18.9726 C   0  0  0  0  0  0  0  0  0  0  0  0
  -30.4542  -12.8924   19.8759 C   0  0  0  0  0  0  0  0  0  0  0  0
  -28.5127  -12.5275   21.3494 C   0  0  0  0  0  0  0  0  0  0  0  0
  -24.6294  -35.1750   24.5591 C   0  0  1  0  0  0  0  0  0  0  0  0
  -26.9493  -32.2028   24.0931 C   0  0  1  0  0  0  0  0  0  0  0  0
  -27.6056  -13.3532   20.4212 C   0  0  2  0  0  0  0  0  0  0  0  0
  -31.0913  -28.6724   18.5809 C   0  0  0  0  0  0  0  0  0  0  0  0
  -25.9014  -32.6559   19.6146 C   0  0  0  0  0  0  0  0  0  0  0  0
  -27.2290  -31.2255   18.0461 C   0  0  0  0  0  0  0  0  0  0  0  0
  -28.2868  -33.2162   19.1141 C   0  0  0  0  0  0  0  0  0  0  0  0
  -23.4969  -20.5022   26.5276 C   0  0  0  0  0  0  0  0  0  0  0  0
  -23.5957  -21.5084   24.2524 C   0  0  0  0  0  0  0  0  0  0  0  0
  -22.8394  -24.9041   28.4873 C   0  0  0  0  0  0  0  0  0  0  0  0
  -24.9701  -24.5843   29.7620 C   0  0  0  0  0  0  0  0  0  0  0  0
  -31.0361  -27.8076   22.2857 C   0  0  0  0  0  0  0  0  0  0  0  0
  -25.9396  -23.6702   24.8979 C   0  0  0  0  0  0  0  0  0  0  0  0
  -29.2011  -15.9323   25.0368 C   0  0  0  0  0  0  0  0  0  0  0  0
  -29.0156  -17.4455   25.1861 C   0  0  0  0  0  0  0  0  0  0  0  0
  -30.6669  -15.5122   24.8867 C   0  0  0  0  0  0  0  0  0  0  0  0
  -27.5488  -17.8741   25.2617 C   0  0  0  0  0  0  0  0  0  0  0  0
  -24.5660  -23.1693   27.7209 C   0  0  0  0  0  0  0  0  0  0  0  0
  -30.8248  -14.0070   24.6910 C   0  0  0  0  0  0  0  0  0  0  0  0
  -27.4305  -19.3870   25.3830 C   0  0  0  0  0  0  0  0  0  0  0  0
  -23.6440  -24.4280   24.3008 C   0  0  0  0  0  0  0  0  0  0  0  0
  -25.7426  -21.2174   25.5818 C   0  0  0  0  0  0  0  0  0  0  0  0
  -23.9057  -25.8676   23.9041 C   0  0  0  0  0  0  0  0  0  1  0  0
  -27.8086  -31.1661   20.5142 C   0  0  1  0  0  0  0  0  0  0  0  0
  -30.8265  -28.9180   20.0582 C   0  0  2  0  0  0  0  0  0  0  0  0
  -23.9974  -22.9802   26.2957 C   0  0  2  0  0  0  0  0  0  0  0  0
  -27.2957  -32.0550   19.3462 C   0  0  0  0  0  0  0  0  0  0  0  0
  -24.2318  -21.5558   25.6641 C   0  0  0  0  0  0  0  0  0  0  0  0
  -24.3175  -24.5432   28.3806 C   0  0  0  0  0  0  0  0  0  0  0  0
  -25.8750  -11.6284   20.7566 N   0  0  0  0  0  0  0  0  0  0  0  0
  -26.1540  -12.9195   20.5089 N   0  0  0  0  0  0  0  0  0  0  0  0
  -27.0872  -31.4116   22.8686 N   0  0  0  0  0  0  0  0  0  0  0  0
  -29.9067  -12.9833   21.2316 N   0  0  0  0  0  0  0  0  0  0  0  0
  -25.1481  -15.0265   20.1100 N   0  0  0  0  0  0  0  0  0  0  0  0
  -21.6122  -12.2690   20.6482 N   0  0  0  0  0  0  0  0  0  0  0  0
  -25.7354  -34.2417   24.5696 N   0  0  0  0  0  0  0  0  0  0  0  0
  -29.1383  -30.6057   20.2992 N   0  0  0  0  0  0  0  0  0  0  0  0
  -30.1198  -13.5263   23.5236 N   0  0  0  0  0  0  0  0  0  0  0  0
  -31.2218  -27.6971   20.8159 N   0  3  0  0  0  0  0  0  0  0  0  0
  -25.9917  -19.7627   25.4071 N   0  3  0  0  0  0  0  0  0  0  0  0
  -24.5773  -24.0427   25.4157 N   0  3  1  0  0  0  0  0  0  0  0  0
  -22.2373  -14.4326   20.2158 O   0  0  0  0  0  0  0  0  0  0  0  0
  -24.7362  -32.5351   23.3402 O   0  0  0  0  0  0  0  0  0  0  0  0
  -28.5992  -32.9090   21.9157 O   0  0  0  0  0  0  0  0  0  0  0  0
  -28.5117  -28.3817   20.4954 O   0  0  0  0  0  0  0  0  0  0  0  0
  -31.8884  -13.8233   22.0950 O   0  0  0  0  0  0  0  0  0  0  0  0
  -21.8289   -6.8016   21.6948 O   0  0  0  0  0  0  0  0  0  0  0  0
  -23.7047  -26.7147   25.0277 O   0  0  0  0  0  0  0  0  0  1  0  0
  -23.6225   -3.6014   25.8113 F   0  0  0  0  0  0  0  0  0  0  0  0
  -20.1739   -6.1545   23.8125 F   0  0  0  0  0  0  0  0  0  0  0  0
  -24.9264  -25.5058   27.6277 F   0  0  0  0  0  0  0  0  0  0  0  0
  1  2  1  0  0  0  0
  1  5  2  0  0  0  0
  2  6  2  0  0  0  0
  3  8  2  0  0  0  0
  3 15  1  0  0  0  0
  4  9  1  0  0  0  0
  4 15  2  0  0  0  0
  5 17  1  0  0  0  0
  6 19  1  0  0  0  0
  7 10  2  0  0  0  0
  7 18  1  0  0  0  0
  8 21  1  0  0  0  0
  9 21  2  0  0  0  0
 10 22  1  0  0  0  0
 11 12  2  0  0  0  0
 11 23  1  0  0  0  0
 12 24  1  0  0  0  0
 13 20  1  0  0  0  0
 13 22  2  0  0  0  0
 14 24  2  0  0  0  0
 14 25  1  0  0  0  0
 15 26  1  0  0  0  0
 16 26  1  0  0  0  0
 16 27  2  0  0  0  0
 16 28  1  0  0  0  0
 17 19  2  0  0  0  0
 17 33  1  0  0  0  0
 18 20  2  0  0  0  0
 18 34  1  0  0  0  0
 19 42  1  0  0  0  0
 20 35  1  0  0  0  0
 21 88  1  0  0  0  0
 22 89  1  0  0  0  0
 23 25  2  0  0  0  0
 23 88  1  0  0  0  0
 24 90  1  0  0  0  0
 25 91  1  0  0  0  0
 26 71  2  0  0  0  0
 27 72  1  0  0  0  0
 27 75  1  0  0  0  0
 28 76  1  0  0  0  0
 28 83  2  0  0  0  0
 29 43  1  0  0  0  0
 29 77  1  0  0  0  0
 29 84  2  0  0  0  0
 30 65  1  0  0  0  0
 30 73  1  0  0  0  0
 30 85  2  0  0  0  0
 31 66  1  0  0  0  0
 31 78  1  0  0  0  0
 31 86  2  0  0  0  0
 32 74  1  0  0  0  0
 32 79  1  0  0  0  0
 32 87  2  0  0  0  0
 33 36  1  0  0  0  0
 34 43  1  0  0  0  0
 35 73  1  0  0  0  0
 36 38  1  0  0  0  0
 37 39  1  0  0  0  0
 37 40  1  0  0  0  0
 38 42  1  0  0  0  0
 39 44  1  0  0  0  0
 40 74  1  0  0  0  0
 41 44  1  0  0  0  0
 41 74  1  0  0  0  0
 42 77  1  0  0  0  0
 43 73  1  0  0  0  0
 44 72  1  0  0  0  0
 45 66  1  0  0  0  0
 46 68  1  0  0  0  0
 47 68  1  0  0  0  0
 48 68  1  0  0  0  0
 49 69  1  0  0  0  0
 50 69  1  0  0  0  0
 51 70  1  0  0  0  0
 52 70  1  0  0  0  0
 53 80  1  0  0  0  0
 54 82  1  0  0  0  0
 55 56  1  0  0  0  0
 55 57  1  0  0  0  0
 56 58  1  0  0  0  0
 57 60  1  0  0  0  0
 58 61  1  0  0  0  0
 59 67  1  0  0  0  0
 59 70  1  0  0  0  0
 60 79  1  0  0  0  0
 61 81  1  0  0  0  0
 62 64  1  0  0  0  0
 62 82  1  0  0  0  0
 63 69  1  0  0  0  0
 63 81  1  0  0  0  0
 64 89  1  0  0  0  0
 65 68  1  0  0  0  0
 65 78  1  0  0  0  0
 66 80  1  0  0  0  0
 67 69  1  0  0  0  0
 67 82  1  0  0  0  0
 70 92  1  0  0  0  0
 71 72  1  0  0  0  0
M  CHG  3  80   1  81   1  82   1
M  ISO  4  32 100  64 101  79 100  89 101
M  END
> <Batch ID>
0015

> <Smiles>
CNC(C)C(=O)NC(C(=O)N1Cc2cc([101O:1][101CH2:1]CN(C)C(CC(C)(C)F)C(C)(C)CNCCCCCC[100NH:0][100C:0](=O)N3CCCC(n4nc(-c5ccc(Oc6ccc(F)cc6F)cc5)c(C(N)=O)c4N)C3)ccc2CC1C(=O)NC1CCCc2ccccc21)C(C)(C)C

> <Shape>
0.246

> <Color>
0.161

> <Negative vol penalty>
0.000

$$$$

  -OEChem-04052315553D

 84 92  0     1  0  0  0  0  0999 V2000
  -30.3428  -33.7548   17.6521 C   0  0  0  0  0  0  0  0  0  0  0  0
  -30.7173  -32.7333   18.5191 C   0  0  0  0  0  0  0  0  0  0  0  0
  -22.9782   -9.9182   19.9828 C   0  0  0  0  0  0  0  0  0  0  0  0
  -23.7154   -9.9453   22.2834 C   0  0  0  0  0  0  0  0  0  0  0  0
  -29.0546  -33.7782   17.1194 C   0  0  0  0  0  0  0  0  0  0  0  0
  -29.8033  -31.7351   18.8548 C   0  0  0  0  0  0  0  0  0  0  0  0
  -31.0279  -25.8310   19.9262 C   0  0  0  0  0  0  0  0  0  0  0  0
  -22.2021   -8.7892   20.2448 C   0  0  0  0  0  0  0  0  0  0  0  0
  -22.9392   -8.8163   22.5454 C   0  0  0  0  0  0  0  0  0  0  0  0
  -31.2023  -25.1083   21.1056 C   0  0  0  0  0  0  0  0  0  0  0  0
  -23.1490   -5.4787   22.0480 C   0  0  0  0  0  0  0  0  0  0  0  0
  -23.7304   -4.4504   22.7897 C   0  0  0  0  0  0  0  0  0  0  0  0
  -28.8901  -24.4256   21.0221 C   0  0  0  0  0  0  0  0  0  0  0  0
  -32.0000  -18.2233   24.1684 C   0  0  0  0  0  0  0  0  0  0  0  0
  -32.1142  -16.4403   22.5421 C   0  0  0  0  0  0  0  0  0  0  0  0
  -22.0173   -4.6977   24.4754 C   0  0  0  0  0  0  0  0  0  0  0  0
  -23.7349  -10.4962   21.0021 C   0  0  0  0  0  0  0  0  0  0  0  0
  -24.1436  -13.0092   20.8425 C   0  0  0  0  0  0  0  0  0  0  0  0
  -28.1274  -32.7745   17.4412 C   0  0  0  0  0  0  0  0  0  0  0  0
  -29.7784  -25.8655   19.2907 C   0  0  0  0  0  0  0  0  0  0  0  0
  -28.5010  -31.7459   18.3270 C   0  0  0  0  0  0  0  0  0  0  0  0
  -28.7032  -25.1475   19.8333 C   0  0  0  0  0  0  0  0  0  0  0  0
  -32.7504  -17.3098   23.4281 C   0  0  0  0  0  0  0  0  0  0  0  0
  -30.6135  -18.2673   24.0228 C   0  0  0  0  0  0  0  0  0  0  0  0
  -30.7277  -16.4843   22.3965 C   0  0  0  0  0  0  0  0  0  0  0  0
  -22.1826   -8.2383   21.5261 C   0  0  0  0  0  0  0  0  0  0  0  0
  -30.1326  -24.4078   21.6553 C   0  0  0  0  0  0  0  0  0  0  0  0
  -22.0017   -6.1166   22.5200 C   0  0  0  0  0  0  0  0  0  0  0  0
  -23.1646   -4.0599   24.0034 C   0  0  0  0  0  0  0  0  0  0  0  0
  -21.4359   -5.7260   23.7337 C   0  0  0  0  0  0  0  0  0  0  0  0
  -29.9773  -17.3978   23.1368 C   0  0  0  0  0  0  0  0  0  0  0  0
  -24.5373  -11.6621   20.7320 C   0  0  0  0  0  0  0  0  0  0  0  0
  -25.2585  -13.7237   20.4777 C   0  0  0  0  0  0  0  0  0  0  0  0
  -22.8829  -13.5649   21.2394 C   0  0  0  0  0  0  0  0  0  0  0  0
  -27.6871  -28.1503   18.5768 C   0  0  0  0  0  0  0  0  0  0  0  0
  -26.1682  -25.7369   17.0306 C   0  0  0  0  0  0  0  0  0  0  0  0
  -30.1913  -21.5212   23.8490 C   0  0  0  0  0  0  0  0  0  0  0  0
  -25.6247  -22.3817   16.7234 C   0  0  0  0  0  0  0  0  0  0  0  0
  -30.7480  -14.6304   20.6909 C   0  0  0  0  0  0  0  0  0  0  0  0
  -26.7315  -32.8681   16.8778 C   0  0  0  0  0  0  0  0  0  0  0  0
  -29.6136  -26.6280   18.0047 C   0  0  0  0  0  0  0  0  0  0  0  0
  -27.3467  -25.1357   19.1790 C   0  0  0  0  0  0  0  0  0  0  0  0
  -25.9412  -31.5668   16.9891 C   0  0  0  0  0  0  0  0  0  0  0  0
  -29.5945  -12.2054   18.3529 C   0  0  0  0  0  0  0  0  0  0  0  0
  -26.0831  -30.9740   18.3874 C   0  0  0  0  0  0  0  0  0  0  0  0
  -28.1436  -11.9587   18.7725 C   0  0  0  0  0  0  0  0  0  0  0  0
  -30.5034  -12.4313   19.5598 C   0  0  0  0  0  0  0  0  0  0  0  0
  -28.6024  -13.2288   20.9088 C   0  0  0  0  0  0  0  0  0  0  0  0
  -27.5457  -30.6316   18.6956 C   0  0  1  0  0  0  0  0  0  0  0  0
  -28.1651  -27.0126   17.7196 C   0  0  1  0  0  0  0  0  0  0  0  0
  -27.6371  -13.0603   19.7241 C   0  0  2  0  0  0  0  0  0  0  0  0
  -34.2328  -17.2639   23.5835 C   0  0  0  0  0  0  0  0  0  0  0  0
  -24.3018  -20.7140   15.3945 C   0  0  0  0  0  0  0  0  0  0  0  0
  -23.6628  -26.4688   18.6109 C   0  0  0  0  0  0  0  0  0  0  0  0
  -22.6985  -24.2469   17.9770 C   0  0  0  0  0  0  0  0  0  0  0  0
  -23.2548  -25.9140   16.2067 C   0  0  0  0  0  0  0  0  0  0  0  0
  -28.0768  -21.0807   15.6967 C   0  0  0  0  0  0  0  0  0  0  0  0
  -29.8473  -19.2664   24.8406 C   0  0  0  0  0  0  0  0  0  0  0  0
  -29.4867  -22.5426   22.9818 C   0  0  0  0  0  0  0  0  0  1  0  0
  -25.1259  -24.7128   17.4101 C   0  0  1  0  0  0  0  0  0  0  0  0
  -25.6165  -21.4696   15.5100 C   0  0  2  0  0  0  0  0  0  0  0  0
  -23.7104  -25.3372   17.5648 C   0  0  0  0  0  0  0  0  0  0  0  0
  -25.8033  -11.5263   20.3285 N   0  0  0  0  0  0  0  0  0  0  0  0
  -26.2148  -12.7973   20.1821 N   0  0  0  0  0  0  0  0  0  0  0  0
  -27.2340  -25.9015   17.9266 N   0  0  0  0  0  0  0  0  0  0  0  0
  -29.9628  -13.4913   20.4136 N   0  0  0  0  0  0  0  0  0  0  0  0
  -25.5042  -15.0478   20.3841 N   0  0  0  0  0  0  0  0  0  0  0  0
  -21.8444  -12.6883   21.5817 N   0  0  0  0  0  0  0  0  0  0  0  0
  -30.1170  -15.5859   21.4867 N   0  0  0  0  0  0  0  0  0  0  0  0
  -27.9259  -29.4000   18.0376 N   0  0  0  0  0  0  0  0  0  0  0  0
  -29.4112  -20.3929   24.0482 N   0  0  0  0  0  0  0  0  0  0  0  0
  -25.2068  -23.6569   16.4066 N   0  0  0  0  0  0  0  0  0  0  0  0
  -26.7233  -20.4757   15.6015 N   0  3  0  0  0  0  0  0  0  0  0  0
  -22.6783  -14.8021   21.2732 O   0  0  0  0  0  0  0  0  0  0  0  0
  -27.1407  -27.9120   19.6475 O   0  0  0  0  0  0  0  0  0  0  0  0
  -26.0452  -26.3623   15.9746 O   0  0  0  0  0  0  0  0  0  0  0  0
  -31.3167  -21.7010   24.3061 O   0  0  0  0  0  0  0  0  0  0  0  0
  -25.9641  -22.0001   17.8413 O   0  0  0  0  0  0  0  0  0  0  0  0
  -31.8857  -14.7616   20.2321 O   0  0  0  0  0  0  0  0  0  0  0  0
  -21.4252   -7.1367   21.7821 O   0  0  0  0  0  0  0  0  0  0  0  0
  -30.2999  -23.7020   22.8067 O   0  0  0  0  0  0  0  0  0  1  0  0
  -23.7222   -3.0714   24.7148 F   0  0  0  0  0  0  0  0  0  0  0  0
  -20.3331   -6.3342   24.1917 F   0  0  0  0  0  0  0  0  0  0  0  0
  -28.2537  -17.4571   22.9608 Cl  0  0  0  0  0  0  0  0  0  0  0  0
  1  2  1  0  0  0  0
  1  5  2  0  0  0  0
  2  6  2  0  0  0  0
  3  8  2  0  0  0  0
  3 17  1  0  0  0  0
  4  9  1  0  0  0  0
  4 17  2  0  0  0  0
  5 19  1  0  0  0  0
  6 21  1  0  0  0  0
  7 10  2  0  0  0  0
  7 20  1  0  0  0  0
  8 26  1  0  0  0  0
  9 26  2  0  0  0  0
 10 27  1  0  0  0  0
 11 12  2  0  0  0  0
 11 28  1  0  0  0  0
 12 29  1  0  0  0  0
 13 22  1  0  0  0  0
 13 27  2  0  0  0  0
 14 23  2  0  0  0  0
 14 24  1  0  0  0  0
 15 23  1  0  0  0  0
 15 25  2  0  0  0  0
 16 29  2  0  0  0  0
 16 30  1  0  0  0  0
 17 32  1  0  0  0  0
 18 32  1  0  0  0  0
 18 33  2  0  0  0  0
 18 34  1  0  0  0  0
 19 21  2  0  0  0  0
 19 40  1  0  0  0  0
 20 22  2  0  0  0  0
 20 41  1  0  0  0  0
 21 49  1  0  0  0  0
 22 42  1  0  0  0  0
 23 52  1  0  0  0  0
 24 31  2  0  0  0  0
 24 58  1  0  0  0  0
 25 31  1  0  0  0  0
 25 69  1  0  0  0  0
 26 80  1  0  0  0  0
 27 81  1  0  0  0  0
 28 30  2  0  0  0  0
 28 80  1  0  0  0  0
 29 82  1  0  0  0  0
 30 83  1  0  0  0  0
 31 84  1  0  0  0  0
 32 63  2  0  0  0  0
 33 64  1  0  0  0  0
 33 67  1  0  0  0  0
 34 68  1  0  0  0  0
 34 74  2  0  0  0  0
 35 50  1  0  0  0  0
 35 70  1  0  0  0  0
 35 75  2  0  0  0  0
 36 60  1  0  0  0  0
 36 65  1  0  0  0  0
 36 76  2  0  0  0  0
 37 59  1  0  0  0  0
 37 71  1  0  0  0  0
 37 77  2  0  0  0  0
 38 61  1  0  0  0  0
 38 72  1  0  0  0  0
 38 78  2  0  0  0  0
 39 66  1  0  0  0  0
 39 69  1  0  0  0  0
 39 79  2  0  0  0  0
 40 43  1  0  0  0  0
 41 50  1  0  0  0  0
 42 65  1  0  0  0  0
 43 45  1  0  0  0  0
 44 46  1  0  0  0  0
 44 47  1  0  0  0  0
 45 49  1  0  0  0  0
 46 51  1  0  0  0  0
 47 66  1  0  0  0  0
 48 51  1  0  0  0  0
 48 66  1  0  0  0  0
 49 70  1  0  0  0  0
 50 65  1  0  0  0  0
 51 64  1  0  0  0  0
 53 61  1  0  0  0  0
 54 62  1  0  0  0  0
 55 62  1  0  0  0  0
 56 62  1  0  0  0  0
 57 73  1  0  0  0  0
 58 71  1  0  0  0  0
 59 81  1  0  0  0  0
 60 62  1  0  0  0  0
 60 72  1  0  0  0  0
 61 73  1  0  0  0  0
 63 64  1  0  0  0  0
M  CHG  1  73   1
M  ISO  4  39 100  59 101  69 100  81 101
M  END
> <Batch ID>
0015

> <Smiles>
CNC(C)C(=O)NC(C(=O)N1Cc2cc([101O:1][101CH2:1]C(=O)NCc3cc(C)cc([100NH:0][100C:0](=O)N4CCCC(n5nc(-c6ccc(Oc7ccc(F)cc7F)cc6)c(C(N)=O)c5N)C4)c3Cl)ccc2CC1C(=O)NC1CCCc2ccccc21)C(C)(C)C

> <Shape>
0.224

> <Color>
0.198

> <Negative vol penalty>
0.000

$$$$

  -OEChem-04052315553D

 91100  0     1  0  0  0  0  0999 V2000
  -29.8432  -30.8215   26.4195 C   0  0  0  0  0  0  0  0  0  0  0  0
  -29.3524  -31.2909   25.2064 C   0  0  0  0  0  0  0  0  0  0  0  0
  -26.5190  -13.1543   19.0215 C   0  0  0  0  0  0  0  0  0  0  0  0
  -26.3376  -12.9164   21.4189 C   0  0  0  0  0  0  0  0  0  0  0  0
  -30.0533  -23.8574   19.5515 C   0  0  0  0  0  0  0  0  0  0  0  0
  -29.9294  -29.4498   26.6482 C   0  0  0  0  0  0  0  0  0  0  0  0
  -28.9365  -30.3892   24.2262 C   0  0  0  0  0  0  0  0  0  0  0  0
  -26.0738  -27.9379   17.2249 C   0  0  0  0  0  0  0  0  0  0  0  0
  -29.9974  -22.6944   20.3105 C   0  0  0  0  0  0  0  0  0  0  0  0
  -25.2838  -12.5255   18.8656 C   0  0  0  0  0  0  0  0  0  0  0  0
  -25.1023  -12.2876   21.2630 C   0  0  0  0  0  0  0  0  0  0  0  0
  -26.0088  -26.8355   16.3739 C   0  0  0  0  0  0  0  0  0  0  0  0
  -23.9570   -9.2200   20.4213 C   0  0  0  0  0  0  0  0  0  0  0  0
  -23.7185   -8.0660   21.1676 C   0  0  0  0  0  0  0  0  0  0  0  0
  -25.0630  -25.5195   18.1607 C   0  0  0  0  0  0  0  0  0  0  0  0
  -21.8304   -9.1402   22.2250 C   0  0  0  0  0  0  0  0  0  0  0  0
  -27.0460  -13.3498   20.2982 C   0  0  0  0  0  0  0  0  0  0  0  0
  -29.6398  -23.8382   18.2202 C   0  0  0  0  0  0  0  0  0  0  0  0
  -29.5627  -13.5746   19.9468 C   0  0  0  0  0  0  0  0  0  0  0  0
  -29.5258  -28.5314   25.6650 C   0  0  0  0  0  0  0  0  0  0  0  0
  -25.6432  -27.8362   18.5556 C   0  0  0  0  0  0  0  0  0  0  0  0
  -28.9932  -29.0012   24.4473 C   0  0  0  0  0  0  0  0  0  0  0  0
  -25.1211  -26.6228   19.0258 C   0  0  0  0  0  0  0  0  0  0  0  0
  -29.1624  -22.6557   17.6299 C   0  0  0  0  0  0  0  0  0  0  0  0
  -29.1015  -21.4804   18.3988 C   0  0  0  0  0  0  0  0  0  0  0  0
  -29.5265  -21.5136   19.7380 C   0  0  0  0  0  0  0  0  0  0  0  0
  -24.5754  -12.0922   19.9863 C   0  0  0  0  0  0  0  0  0  0  0  0
  -25.5061  -25.6252   16.8425 C   0  0  0  0  0  0  0  0  0  0  0  0
  -23.1323  -10.3341   20.5769 C   0  0  0  0  0  0  0  0  0  0  0  0
  -22.6552   -8.0261   22.0695 C   0  0  0  0  0  0  0  0  0  0  0  0
  -22.0689  -10.2942   21.4787 C   0  0  0  0  0  0  0  0  0  0  0  0
  -28.3223  -13.9988   20.4598 C   0  0  0  0  0  0  0  0  0  0  0  0
  -30.4552  -14.5263   20.3759 C   0  0  0  0  0  0  0  0  0  0  0  0
  -29.7276  -25.1022   17.4965 C   0  0  0  0  0  0  0  0  0  0  0  0
  -29.8798  -12.4234   19.1532 C   0  0  0  0  0  0  0  0  0  0  0  0
  -27.0366  -28.1550   21.3947 C   0  0  0  0  0  0  0  0  0  0  0  0
  -24.0033  -27.8014   22.4884 C   0  0  0  0  0  0  0  0  0  0  0  0
  -21.1493  -25.7341   21.7149 C   0  0  0  0  0  0  0  0  0  0  0  0
  -29.8744  -20.2739   21.9032 C   0  0  0  0  0  0  0  0  0  0  0  0
  -29.6334  -27.0577   25.9684 C   0  0  0  0  0  0  0  0  0  0  0  0
  -25.6950  -29.0420   19.4532 C   0  0  0  0  0  0  0  0  0  0  0  0
  -28.5995  -20.1831   17.8176 C   0  0  0  0  0  0  0  0  0  0  0  0
  -24.6270  -26.4670   20.4401 C   0  0  0  0  0  0  0  0  0  0  0  0
  -28.7335  -22.6762   16.1872 C   0  0  0  0  0  0  0  0  0  0  0  0
  -29.5886  -26.1882   24.7162 C   0  0  0  0  0  0  0  0  0  0  0  0
  -27.1450  -20.2563   17.3539 C   0  0  0  0  0  0  0  0  0  0  0  0
  -31.1750  -17.6525   23.9316 C   0  0  0  0  0  0  0  0  0  0  0  0
  -28.4096  -26.5932   23.8440 C   0  0  0  0  0  0  0  0  0  0  0  0
  -30.7091  -16.3795   23.2214 C   0  0  0  0  0  0  0  0  0  0  0  0
  -30.1251  -18.7598   23.8576 C   0  0  0  0  0  0  0  0  0  0  0  0
  -29.1809  -17.7994   21.7948 C   0  0  0  0  0  0  0  0  0  0  0  0
  -26.9504  -20.8832   15.9780 C   0  0  0  0  0  0  0  0  0  0  0  0
  -28.5636  -28.0389   23.3547 C   0  0  1  0  0  0  0  0  0  0  0  0
  -25.7068  -28.6830   20.9359 C   0  0  1  0  0  0  0  0  0  0  0  0
  -30.2317  -16.6772   21.7865 C   0  0  2  0  0  0  0  0  0  0  0  0
  -18.6957  -26.1559   22.0305 C   0  0  0  0  0  0  0  0  0  0  0  0
  -24.3858  -26.3295   25.1336 C   0  0  0  0  0  0  0  0  0  0  0  0
  -22.1512  -25.2572   24.7800 C   0  0  0  0  0  0  0  0  0  0  0  0
  -22.3210  -27.7352   25.0111 C   0  0  0  0  0  0  0  0  0  0  0  0
  -20.5757  -25.2246   18.8565 C   0  0  0  0  0  0  0  0  0  0  0  0
  -31.0275  -25.4265   16.7487 C   0  0  0  0  0  0  0  0  0  0  0  0
  -31.3047  -26.9287   16.6479 C   0  0  0  0  0  0  0  0  0  0  0  0
  -31.4709  -27.5556   18.0350 C   0  0  0  0  0  0  0  0  0  0  0  0
  -26.7513  -23.0057   14.7070 C   0  0  0  0  0  0  0  0  0  0  0  0
  -31.7383  -29.0551   17.9948 C   0  0  0  0  0  0  0  0  0  0  0  0
  -26.4237  -24.4598   14.9835 C   0  0  0  0  0  0  0  0  0  1  0  0
  -23.1418  -26.6289   22.8911 C   0  0  1  0  0  0  0  0  0  0  0  0
  -19.8586  -26.1785   21.0507 C   0  0  2  0  0  0  0  0  0  0  0  0
  -23.0205  -26.4851   24.4345 C   0  0  0  0  0  0  0  0  0  0  0  0
  -28.4146  -15.1316   21.1614 N   0  0  0  0  0  0  0  0  0  0  0  0
  -29.7237  -15.4273   21.0923 N   0  0  0  0  0  0  0  0  0  0  0  0
  -24.7043  -27.6731   21.2809 N   0  0  0  0  0  0  0  0  0  0  0  0
  -29.7238  -18.9897   22.4680 N   0  0  0  0  0  0  0  0  0  0  0  0
  -31.7866  -14.6719   20.2066 N   0  0  0  0  0  0  0  0  0  0  0  0
  -28.8430  -11.5485   18.8010 N   0  0  0  0  0  0  0  0  0  0  0  0
  -29.4899  -20.3643   20.5659 N   0  0  0  0  0  0  0  0  0  0  0  0
  -27.3365  -28.4523   22.7104 N   0  0  0  0  0  0  0  0  0  0  0  0
  -21.8663  -26.8050   22.2053 N   0  0  0  0  0  0  0  0  0  0  0  0
  -27.2642  -22.3610   15.9727 N   0  3  2  0  0  0  0  0  0  0  0  0
  -31.8790  -29.5993   19.3658 N   0  3  0  0  0  0  0  0  0  0  0  0
  -19.5281  -25.2804   19.9083 N   0  3  0  0  0  0  0  0  0  0  0  0
  -28.7972  -25.9213   17.4620 O   0  0  0  0  0  0  0  0  0  0  0  0
  -31.0505  -12.1690   18.7816 O   0  0  0  0  0  0  0  0  0  0  0  0
  -27.7380  -27.5232   20.6132 O   0  0  0  0  0  0  0  0  0  0  0  0
  -24.0468  -28.7975   23.2148 O   0  0  0  0  0  0  0  0  0  0  0  0
  -21.4858  -24.5547   21.7943 O   0  0  0  0  0  0  0  0  0  0  0  0
  -30.3377  -21.2169   22.5498 O   0  0  0  0  0  0  0  0  0  0  0  0
  -23.3699  -11.4788   19.8346 O   0  0  0  0  0  0  0  0  0  0  0  0
  -25.4417  -24.5397   16.0082 O   0  0  0  0  0  0  0  0  0  1  0  0
  -22.4253   -6.9173   22.7850 F   0  0  0  0  0  0  0  0  0  0  0  0
  -21.2725  -11.3610   21.6316 F   0  0  0  0  0  0  0  0  0  0  0  0
  1  2  1  0  0  0  0
  1  6  2  0  0  0  0
  2  7  2  0  0  0  0
  3 10  2  0  0  0  0
  3 17  1  0  0  0  0
  4 11  1  0  0  0  0
  4 17  2  0  0  0  0
  5  9  1  0  0  0  0
  5 18  2  0  0  0  0
  6 20  1  0  0  0  0
  7 22  1  0  0  0  0
  8 12  2  0  0  0  0
  8 21  1  0  0  0  0
  9 26  2  0  0  0  0
 10 27  1  0  0  0  0
 11 27  2  0  0  0  0
 12 28  1  0  0  0  0
 13 14  2  0  0  0  0
 13 29  1  0  0  0  0
 14 30  1  0  0  0  0
 15 23  1  0  0  0  0
 15 28  2  0  0  0  0
 16 30  2  0  0  0  0
 16 31  1  0  0  0  0
 17 32  1  0  0  0  0
 18 24  1  0  0  0  0
 18 34  1  0  0  0  0
 19 32  1  0  0  0  0
 19 33  2  0  0  0  0
 19 35  1  0  0  0  0
 20 22  2  0  0  0  0
 20 40  1  0  0  0  0
 21 23  2  0  0  0  0
 21 41  1  0  0  0  0
 22 53  1  0  0  0  0
 23 43  1  0  0  0  0
 24 25  2  0  0  0  0
 24 44  1  0  0  0  0
 25 26  1  0  0  0  0
 25 42  1  0  0  0  0
 26 76  1  0  0  0  0
 27 88  1  0  0  0  0
 28 89  1  0  0  0  0
 29 31  2  0  0  0  0
 29 88  1  0  0  0  0
 30 90  1  0  0  0  0
 31 91  1  0  0  0  0
 32 70  2  0  0  0  0
 33 71  1  0  0  0  0
 33 74  1  0  0  0  0
 34 61  1  0  0  0  0
 34 82  2  0  0  0  0
 35 75  1  0  0  0  0
 35 83  2  0  0  0  0
 36 54  1  0  0  0  0
 36 77  1  0  0  0  0
 36 84  2  0  0  0  0
 37 67  1  0  0  0  0
 37 72  1  0  0  0  0
 37 85  2  0  0  0  0
 38 68  1  0  0  0  0
 38 78  1  0  0  0  0
 38 86  2  0  0  0  0
 39 73  1  0  0  0  0
 39 76  1  0  0  0  0
 39 87  2  0  0  0  0
 40 45  1  0  0  0  0
 41 54  1  0  0  0  0
 42 46  1  0  0  0  0
 43 72  1  0  0  0  0
 44 79  1  0  0  0  0
 45 48  1  0  0  0  0
 46 52  1  0  0  0  0
 47 49  1  0  0  0  0
 47 50  1  0  0  0  0
 48 53  1  0  0  0  0
 49 55  1  0  0  0  0
 50 73  1  0  0  0  0
 51 55  1  0  0  0  0
 51 73  1  0  0  0  0
 52 79  1  0  0  0  0
 53 77  1  0  0  0  0
 54 72  1  0  0  0  0
 55 71  1  0  0  0  0
 56 68  1  0  0  0  0
 57 69  1  0  0  0  0
 58 69  1  0  0  0  0
 59 69  1  0  0  0  0
 60 81  1  0  0  0  0
 61 62  1  0  0  0  0
 62 63  1  0  0  0  0
 63 65  1  0  0  0  0
 64 66  1  0  0  0  0
 64 79  1  0  0  0  0
 65 80  1  0  0  0  0
 66 89  1  0  0  0  0
 67 69  1  0  0  0  0
 67 78  1  0  0  0  0
 68 81  1  0  0  0  0
 70 71  1  0  0  0  0
M  CHG  3  79   1  80   1  81   1
M  ISO  4  39 100  66 101  76 100  89 101
M  END
> <Batch ID>
0015

> <Smiles>
CNC(C)C(=O)NC(C(=O)N1Cc2cc([101O:1][101CH2:1]CN3CCCc4c([100NH:0][100C:0](=O)N5CCCC(n6nc(-c7ccc(Oc8ccc(F)cc8F)cc7)c(C(N)=O)c6N)C5)ccc(C(=O)CCCCN)c4C3)ccc2CC1C(=O)NC1CCCc2ccccc21)C(C)(C)C

> <Shape>
0.267

> <Color>
0.067

> <Negative vol penalty>
0.000

$$$$

  -OEChem-04052315553D

 85 93  0     1  0  0  0  0  0999 V2000
  -38.2073  -31.9860   16.3703 C   0  0  0  0  0  0  0  0  0  0  0  0
  -38.2177  -30.7653   17.0375 C   0  0  0  0  0  0  0  0  0  0  0  0
  -23.0186   -9.8622   20.0228 C   0  0  0  0  0  0  0  0  0  0  0  0
  -23.7005  -10.0174   22.3354 C   0  0  0  0  0  0  0  0  0  0  0  0
  -37.2153  -32.9245   16.6517 C   0  0  0  0  0  0  0  0  0  0  0  0
  -37.2367  -30.4828   17.9874 C   0  0  0  0  0  0  0  0  0  0  0  0
  -34.7146  -25.0277   19.1649 C   0  0  0  0  0  0  0  0  0  0  0  0
  -22.2540   -8.7351   20.3239 C   0  0  0  0  0  0  0  0  0  0  0  0
  -22.9358   -8.8903   22.6365 C   0  0  0  0  0  0  0  0  0  0  0  0
  -34.9651  -24.0709   20.1476 C   0  0  0  0  0  0  0  0  0  0  0  0
  -23.2086   -5.5359   22.3141 C   0  0  0  0  0  0  0  0  0  0  0  0
  -23.7881   -4.5560   23.1201 C   0  0  0  0  0  0  0  0  0  0  0  0
  -33.1756  -24.9833   21.4835 C   0  0  0  0  0  0  0  0  0  0  0  0
  -31.9884  -16.6693   22.4677 C   0  0  0  0  0  0  0  0  0  0  0  0
  -22.0319   -4.8594   24.7514 C   0  0  0  0  0  0  0  0  0  0  0  0
  -23.7419  -10.5033   21.0286 C   0  0  0  0  0  0  0  0  0  0  0  0
  -24.1156  -13.0115   20.7509 C   0  0  0  0  0  0  0  0  0  0  0  0
  -36.2161  -32.6495   17.5985 C   0  0  0  0  0  0  0  0  0  0  0  0
  -33.6981  -25.9778   19.3393 C   0  0  0  0  0  0  0  0  0  0  0  0
  -36.2312  -31.4191   18.2827 C   0  0  0  0  0  0  0  0  0  0  0  0
  -32.9125  -25.9494   20.5004 C   0  0  0  0  0  0  0  0  0  0  0  0
  -29.8102  -17.5994   22.9445 C   0  0  0  0  0  0  0  0  0  0  0  0
  -31.7773  -18.5303   23.9939 C   0  0  0  0  0  0  0  0  0  0  0  0
  -30.6067  -16.6690   22.2769 C   0  0  0  0  0  0  0  0  0  0  0  0
  -22.2126   -8.2492   21.6307 C   0  0  0  0  0  0  0  0  0  0  0  0
  -34.1975  -24.0504   21.3084 C   0  0  0  0  0  0  0  0  0  0  0  0
  -22.0409   -6.1776   22.7267 C   0  0  0  0  0  0  0  0  0  0  0  0
  -23.1998   -4.2178   24.3388 C   0  0  0  0  0  0  0  0  0  0  0  0
  -32.5737  -17.5999   23.3263 C   0  0  0  0  0  0  0  0  0  0  0  0
  -21.4525   -5.8393   23.9453 C   0  0  0  0  0  0  0  0  0  0  0  0
  -30.3955  -18.5301   23.8031 C   0  0  0  0  0  0  0  0  0  0  0  0
  -24.5324  -11.6673   20.7181 C   0  0  0  0  0  0  0  0  0  0  0  0
  -25.2276  -13.7251   20.3760 C   0  0  0  0  0  0  0  0  0  0  0  0
  -22.8374  -13.5655   21.0902 C   0  0  0  0  0  0  0  0  0  0  0  0
  -33.6023  -29.1485   19.5422 C   0  0  0  0  0  0  0  0  0  0  0  0
  -30.3951  -28.6627   19.5367 C   0  0  0  0  0  0  0  0  0  0  0  0
  -33.5273  -21.2744   23.5428 C   0  0  0  0  0  0  0  0  0  0  0  0
  -27.7831  -26.5542   20.1522 C   0  0  0  0  0  0  0  0  0  0  0  0
  -30.6960  -14.7321   20.6686 C   0  0  0  0  0  0  0  0  0  0  0  0
  -35.1921  -33.7141   17.9032 C   0  0  0  0  0  0  0  0  0  0  0  0
  -33.4230  -26.9865   18.2579 C   0  0  0  0  0  0  0  0  0  0  0  0
  -31.7961  -26.9347   20.7268 C   0  0  0  0  0  0  0  0  0  0  0  0
  -33.9707  -33.1877   18.6525 C   0  0  0  0  0  0  0  0  0  0  0  0
  -29.6357  -12.1737   18.4308 C   0  0  0  0  0  0  0  0  0  0  0  0
  -34.3997  -32.2909   19.8095 C   0  0  0  0  0  0  0  0  0  0  0  0
  -28.1792  -11.9245   18.8291 C   0  0  0  0  0  0  0  0  0  0  0  0
  -30.5121  -12.4751   19.6453 C   0  0  0  0  0  0  0  0  0  0  0  0
  -28.5676  -13.3079   20.9081 C   0  0  0  0  0  0  0  0  0  0  0  0
  -35.1697  -31.0659   19.3018 C   0  0  1  0  0  0  0  0  0  0  0  0
  -32.6999  -28.2286   18.7694 C   0  0  1  0  0  0  0  0  0  0  0  0
  -27.6334  -13.0641   19.7117 C   0  0  2  0  0  0  0  0  0  0  0  0
  -28.3275  -17.6184   22.7570 C   0  0  0  0  0  0  0  0  0  0  0  0
  -25.2765  -26.4525   20.0891 C   0  0  0  0  0  0  0  0  0  0  0  0
  -30.2658  -30.3191   22.0959 C   0  0  0  0  0  0  0  0  0  0  0  0
  -27.9698  -29.4021   22.4906 C   0  0  0  0  0  0  0  0  0  0  0  0
  -28.4293  -30.7788   20.4618 C   0  0  0  0  0  0  0  0  0  0  0  0
  -27.8065  -24.3583   18.1682 C   0  0  0  0  0  0  0  0  0  0  0  0
  -32.4073  -19.5313   24.9186 C   0  0  0  0  0  0  0  0  0  0  0  0
  -33.3298  -22.6954   23.0596 C   0  0  0  0  0  0  0  0  0  1  0  0
  -29.3476  -28.4272   20.5980 C   0  0  1  0  0  0  0  0  0  0  0  0
  -26.5642  -26.1918   19.3232 C   0  0  2  0  0  0  0  0  0  0  0  0
  -29.0253  -29.7143   21.4085 C   0  0  0  0  0  0  0  0  0  0  0  0
  -25.8096  -11.5323   20.3510 N   0  0  0  0  0  0  0  0  0  0  0  0
  -26.2048  -12.8009   20.1498 N   0  0  0  0  0  0  0  0  0  0  0  0
  -31.5702  -27.9054   19.6432 N   0  0  0  0  0  0  0  0  0  0  0  0
  -29.9352  -13.5677   20.4316 N   0  0  0  0  0  0  0  0  0  0  0  0
  -25.4551  -15.0467   20.2210 N   0  0  0  0  0  0  0  0  0  0  0  0
  -21.8047  -12.6901   21.4527 N   0  0  0  0  0  0  0  0  0  0  0  0
  -30.0316  -15.7160   21.4001 N   0  0  0  0  0  0  0  0  0  0  0  0
  -34.2556  -30.0827   18.7612 N   0  0  0  0  0  0  0  0  0  0  0  0
  -32.4680  -20.8487   24.3289 N   0  0  0  0  0  0  0  0  0  0  0  0
  -28.1965  -27.8479   19.9140 N   0  0  0  0  0  0  0  0  0  0  0  0
  -26.6036  -24.7503   18.9470 N   0  3  0  0  0  0  0  0  0  0  0  0
  -22.6130  -14.7992   21.0565 O   0  0  0  0  0  0  0  0  0  0  0  0
  -33.6975  -29.0212   20.7573 O   0  0  0  0  0  0  0  0  0  0  0  0
  -30.1756  -29.4830   18.6419 O   0  0  0  0  0  0  0  0  0  0  0  0
  -34.5176  -20.6070   23.2567 O   0  0  0  0  0  0  0  0  0  0  0  0
  -28.3131  -25.7695   20.9357 O   0  0  0  0  0  0  0  0  0  0  0  0
  -31.8421  -14.8590   20.2299 O   0  0  0  0  0  0  0  0  0  0  0  0
  -21.4663   -7.1496   21.9249 O   0  0  0  0  0  0  0  0  0  0  0  0
  -34.4403  -23.1181   22.2694 O   0  0  0  0  0  0  0  0  0  1  0  0
  -23.7555   -3.2757   25.1120 F   0  0  0  0  0  0  0  0  0  0  0  0
  -33.9022  -17.5920   23.5037 F   0  0  0  0  0  0  0  0  0  0  0  0
  -20.3299   -6.4515   24.3465 F   0  0  0  0  0  0  0  0  0  0  0  0
  -29.6304  -19.4247   24.4463 F   0  0  0  0  0  0  0  0  0  0  0  0
  1  2  1  0  0  0  0
  1  5  2  0  0  0  0
  2  6  2  0  0  0  0
  3  8  2  0  0  0  0
  3 16  1  0  0  0  0
  4  9  1  0  0  0  0
  4 16  2  0  0  0  0
  5 18  1  0  0  0  0
  6 20  1  0  0  0  0
  7 10  2  0  0  0  0
  7 19  1  0  0  0  0
  8 25  1  0  0  0  0
  9 25  2  0  0  0  0
 10 26  1  0  0  0  0
 11 12  2  0  0  0  0
 11 27  1  0  0  0  0
 12 28  1  0  0  0  0
 13 21  1  0  0  0  0
 13 26  2  0  0  0  0
 14 24  1  0  0  0  0
 14 29  2  0  0  0  0
 15 28  2  0  0  0  0
 15 30  1  0  0  0  0
 16 32  1  0  0  0  0
 17 32  1  0  0  0  0
 17 33  2  0  0  0  0
 17 34  1  0  0  0  0
 18 20  2  0  0  0  0
 18 40  1  0  0  0  0
 19 21  2  0  0  0  0
 19 41  1  0  0  0  0
 20 49  1  0  0  0  0
 21 42  1  0  0  0  0
 22 24  2  0  0  0  0
 22 31  1  0  0  0  0
 22 52  1  0  0  0  0
 23 29  1  0  0  0  0
 23 31  2  0  0  0  0
 23 58  1  0  0  0  0
 24 69  1  0  0  0  0
 25 80  1  0  0  0  0
 26 81  1  0  0  0  0
 27 30  2  0  0  0  0
 27 80  1  0  0  0  0
 28 82  1  0  0  0  0
 29 83  1  0  0  0  0
 30 84  1  0  0  0  0
 31 85  1  0  0  0  0
 32 63  2  0  0  0  0
 33 64  1  0  0  0  0
 33 67  1  0  0  0  0
 34 68  1  0  0  0  0
 34 74  2  0  0  0  0
 35 50  1  0  0  0  0
 35 70  1  0  0  0  0
 35 75  2  0  0  0  0
 36 60  1  0  0  0  0
 36 65  1  0  0  0  0
 36 76  2  0  0  0  0
 37 59  1  0  0  0  0
 37 71  1  0  0  0  0
 37 77  2  0  0  0  0
 38 61  1  0  0  0  0
 38 72  1  0  0  0  0
 38 78  2  0  0  0  0
 39 66  1  0  0  0  0
 39 69  1  0  0  0  0
 39 79  2  0  0  0  0
 40 43  1  0  0  0  0
 41 50  1  0  0  0  0
 42 65  1  0  0  0  0
 43 45  1  0  0  0  0
 44 46  1  0  0  0  0
 44 47  1  0  0  0  0
 45 49  1  0  0  0  0
 46 51  1  0  0  0  0
 47 66  1  0  0  0  0
 48 51  1  0  0  0  0
 48 66  1  0  0  0  0
 49 70  1  0  0  0  0
 50 65  1  0  0  0  0
 51 64  1  0  0  0  0
 53 61  1  0  0  0  0
 54 62  1  0  0  0  0
 55 62  1  0  0  0  0
 56 62  1  0  0  0  0
 57 73  1  0  0  0  0
 58 71  1  0  0  0  0
 59 81  1  0  0  0  0
 60 62  1  0  0  0  0
 60 72  1  0  0  0  0
 61 73  1  0  0  0  0
 63 64  1  0  0  0  0
M  CHG  1  73   1
M  ISO  4  39 100  59 101  69 100  81 101
M  END
> <Batch ID>
0015

> <Smiles>
CNC(C)C(=O)NC(C(=O)N1Cc2cc([101O:1][101CH2:1]C(=O)NCc3c(F)cc([100NH:0][100C:0](=O)N4CCCC(n5nc(-c6ccc(Oc7ccc(F)cc7F)cc6)c(C(N)=O)c5N)C4)c(C)c3F)ccc2CC1C(=O)NC1CCCc2ccccc21)C(C)(C)C

> <Shape>
0.228

> <Color>
0.200

> <Negative vol penalty>
0.000

$$$$

  -OEChem-04052315553D

 87 95  0     1  0  0  0  0  0999 V2000
  -17.0926  -30.6786   23.4301 C   0  0  0  0  0  0  0  0  0  0  0  0
  -18.2421  -30.9418   22.6920 C   0  0  0  0  0  0  0  0  0  0  0  0
  -23.6667   -9.6799   21.4736 C   0  0  0  0  0  0  0  0  0  0  0  0
  -24.1693  -10.7982   23.5554 C   0  0  0  0  0  0  0  0  0  0  0  0
  -17.0734  -29.6165   24.3332 C   0  0  0  0  0  0  0  0  0  0  0  0
  -19.3735  -30.1436   22.8574 C   0  0  0  0  0  0  0  0  0  0  0  0
  -24.9409  -27.5221   19.1902 C   0  0  0  0  0  0  0  0  0  0  0  0
  -23.0927   -8.6229   22.1800 C   0  0  0  0  0  0  0  0  0  0  0  0
  -23.5952   -9.7413   24.2618 C   0  0  0  0  0  0  0  0  0  0  0  0
  -26.3317  -27.4464   19.2518 C   0  0  0  0  0  0  0  0  0  0  0  0
  -24.1495   -5.9117   23.8996 C   0  0  0  0  0  0  0  0  0  0  0  0
  -24.4774   -4.6150   23.5039 C   0  0  0  0  0  0  0  0  0  0  0  0
  -26.1569  -25.5904   20.7827 C   0  0  0  0  0  0  0  0  0  0  0  0
  -31.1505  -18.4371   21.1266 C   0  0  0  0  0  0  0  0  0  0  0  0
  -22.1473   -4.1639   23.0516 C   0  0  0  0  0  0  0  0  0  0  0  0
  -24.2050  -10.7675   22.1613 C   0  0  0  0  0  0  0  0  0  0  0  0
  -24.1533  -13.0199   20.9648 C   0  0  0  0  0  0  0  0  0  0  0  0
  -18.2019  -28.7990   24.5027 C   0  0  0  0  0  0  0  0  0  0  0  0
  -24.1464  -26.6380   19.9342 C   0  0  0  0  0  0  0  0  0  0  0  0
  -19.3698  -29.0705   23.7646 C   0  0  0  0  0  0  0  0  0  0  0  0
  -24.7563  -25.6552   20.7269 C   0  0  0  0  0  0  0  0  0  0  0  0
  -31.5083  -19.7099   21.5711 C   0  0  0  0  0  0  0  0  0  0  0  0
  -30.5205  -20.6546   21.8496 C   0  0  0  0  0  0  0  0  0  0  0  0
  -29.1750  -20.3266   21.6834 C   0  0  0  0  0  0  0  0  0  0  0  0
  -29.8049  -18.1091   20.9603 C   0  0  0  0  0  0  0  0  0  0  0  0
  -23.0569   -8.6536   23.5740 C   0  0  0  0  0  0  0  0  0  0  0  0
  -26.9399  -26.4824   20.0503 C   0  0  0  0  0  0  0  0  0  0  0  0
  -22.8205   -6.3346   23.8713 C   0  0  0  0  0  0  0  0  0  0  0  0
  -28.8172  -19.0538   21.2388 C   0  0  0  0  0  0  0  0  0  0  0  0
  -23.4763   -3.7411   23.0799 C   0  0  0  0  0  0  0  0  0  0  0  0
  -21.8195   -5.4606   23.4472 C   0  0  0  0  0  0  0  0  0  0  0  0
  -24.7986  -11.8594   21.4322 C   0  0  0  0  0  0  0  0  0  0  0  0
  -25.1451  -13.7368   20.3412 C   0  0  0  0  0  0  0  0  0  0  0  0
  -22.7800  -13.4147   21.0837 C   0  0  0  0  0  0  0  0  0  0  0  0
  -22.0060  -26.9622   22.2617 C   0  0  0  0  0  0  0  0  0  0  0  0
  -21.6054  -23.7755   21.8070 C   0  0  0  0  0  0  0  0  0  0  0  0
  -22.9083  -20.8197   20.7059 C   0  0  0  0  0  0  0  0  0  0  0  0
  -30.3272  -15.7681   20.1900 C   0  0  0  0  0  0  0  0  0  0  0  0
  -18.1492  -27.6917   25.5253 C   0  0  0  0  0  0  0  0  0  0  0  0
  -22.6474  -26.7154   19.8361 C   0  0  0  0  0  0  0  0  0  0  0  0
  -23.9483  -24.6693   21.5291 C   0  0  0  0  0  0  0  0  0  0  0  0
  -19.2663  -26.6634   25.3677 C   0  0  0  0  0  0  0  0  0  0  0  0
  -29.8657  -12.4175   19.0776 C   0  0  0  0  0  0  0  0  0  0  0  0
  -20.6094  -27.3598   25.1727 C   0  0  0  0  0  0  0  0  0  0  0  0
  -28.4532  -12.0691   19.5525 C   0  0  0  0  0  0  0  0  0  0  0  0
  -30.6009  -13.3005   20.0843 C   0  0  0  0  0  0  0  0  0  0  0  0
  -28.4681  -14.1668   20.9618 C   0  0  0  0  0  0  0  0  0  0  0  0
  -20.6090  -28.2121   23.8979 C   0  0  1  0  0  0  0  0  0  0  0  0
  -21.9374  -26.0960   21.0359 C   0  0  1  0  0  0  0  0  0  0  0  0
  -27.6650  -13.3322   19.9509 C   0  0  2  0  0  0  0  0  0  0  0  0
  -32.9558  -20.0360   21.7413 C   0  0  0  0  0  0  0  0  0  0  0  0
  -28.1114  -21.3358   21.9803 C   0  0  0  0  0  0  0  0  0  0  0  0
  -22.3587  -18.3799   20.4994 C   0  0  0  0  0  0  0  0  0  0  0  0
  -32.6046  -24.6143   21.6845 C   0  0  0  0  0  0  0  0  0  0  0  0
  -22.0990  -23.4138   24.7963 C   0  0  0  0  0  0  0  0  0  0  0  0
  -22.4817  -20.9770   24.3674 C   0  0  0  0  0  0  0  0  0  0  0  0
  -20.2616  -21.9968   23.8634 C   0  0  0  0  0  0  0  0  0  0  0  0
  -23.1558  -20.8945   17.7577 C   0  0  0  0  0  0  0  0  0  0  0  0
  -26.9276  -18.9893   19.7962 C   0  0  0  0  0  0  0  0  0  0  0  0
  -30.9069  -22.0232   22.3278 C   0  0  0  0  0  0  0  0  0  0  0  0
  -30.3740  -25.4719   20.8667 C   0  0  0  0  0  0  0  0  0  0  0  0
  -28.8535  -25.3948   20.9510 C   0  0  0  0  0  0  0  0  0  1  0  0
  -22.2356  -22.5269   22.3754 C   0  0  1  0  0  0  0  0  0  0  0  0
  -22.3330  -19.7361   19.8119 C   0  0  2  0  0  0  0  0  0  0  0  0
  -31.0924  -24.4446   21.7438 C   0  0  1  0  0  0  0  0  0  0  0  0
  -21.7850  -22.2483   23.8371 C   0  0  0  0  0  0  0  0  0  0  0  0
  -26.0997  -11.8362   21.1311 N   0  0  0  0  0  0  0  0  0  0  0  0
  -26.2799  -12.9910   20.4677 N   0  0  0  0  0  0  0  0  0  0  0  0
  -22.4862  -24.7895   21.4050 N   0  0  0  0  0  0  0  0  0  0  0  0
  -29.7962  -14.4797   20.4111 N   0  0  0  0  0  0  0  0  0  0  0  0
  -25.1484  -14.9260   19.7023 N   0  0  0  0  0  0  0  0  0  0  0  0
  -21.8950  -12.5604   21.7555 N   0  0  0  0  0  0  0  0  0  0  0  0
  -29.4586  -16.8119   20.5074 N   0  0  0  0  0  0  0  0  0  0  0  0
  -20.7726  -27.3739   22.7295 N   0  0  0  0  0  0  0  0  0  0  0  0
  -21.9264  -21.4513   21.4395 N   0  0  0  0  0  0  0  0  0  0  0  0
  -23.1164  -19.6372   18.5480 N   0  3  0  0  0  0  0  0  0  0  0  0
  -30.7664  -23.0673   21.2799 N   0  3  0  0  0  0  0  0  0  0  0  0
  -22.3471  -14.4854   20.5941 O   0  0  0  0  0  0  0  0  0  0  0  0
  -23.0971  -27.2355   22.7481 O   0  0  0  0  0  0  0  0  0  0  0  0
  -20.3772  -23.8455   21.7164 O   0  0  0  0  0  0  0  0  0  0  0  0
  -24.1092  -21.0773   20.7519 O   0  0  0  0  0  0  0  0  0  0  0  0
  -31.4583  -15.9330   19.7259 O   0  0  0  0  0  0  0  0  0  0  0  0
  -22.4967   -7.6225   24.2636 O   0  0  0  0  0  0  0  0  0  0  0  0
  -27.5004  -18.7344   21.0760 O   0  0  0  0  0  0  0  0  0  0  0  0
  -28.2972  -26.4068   20.1127 O   0  0  0  0  0  0  0  0  0  1  0  0
  -23.7915   -2.4963   22.6985 F   0  0  0  0  0  0  0  0  0  0  0  0
  -20.5411   -5.8615   23.4168 F   0  0  0  0  0  0  0  0  0  0  0  0
  1  2  1  0  0  0  0
  1  5  2  0  0  0  0
  2  6  2  0  0  0  0
  3  8  2  0  0  0  0
  3 16  1  0  0  0  0
  4  9  1  0  0  0  0
  4 16  2  0  0  0  0
  5 18  1  0  0  0  0
  6 20  1  0  0  0  0
  7 10  2  0  0  0  0
  7 19  1  0  0  0  0
  8 26  1  0  0  0  0
  9 26  2  0  0  0  0
 10 27  1  0  0  0  0
 11 12  2  0  0  0  0
 11 28  1  0  0  0  0
 12 30  1  0  0  0  0
 13 21  1  0  0  0  0
 13 27  2  0  0  0  0
 14 22  2  0  0  0  0
 14 25  1  0  0  0  0
 15 30  2  0  0  0  0
 15 31  1  0  0  0  0
 16 32  1  0  0  0  0
 17 32  1  0  0  0  0
 17 33  2  0  0  0  0
 17 34  1  0  0  0  0
 18 20  2  0  0  0  0
 18 39  1  0  0  0  0
 19 21  2  0  0  0  0
 19 40  1  0  0  0  0
 20 48  1  0  0  0  0
 21 41  1  0  0  0  0
 22 23  1  0  0  0  0
 22 51  1  0  0  0  0
 23 24  2  0  0  0  0
 23 60  1  0  0  0  0
 24 29  1  0  0  0  0
 24 52  1  0  0  0  0
 25 29  2  0  0  0  0
 25 73  1  0  0  0  0
 26 83  1  0  0  0  0
 27 85  1  0  0  0  0
 28 31  2  0  0  0  0
 28 83  1  0  0  0  0
 29 84  1  0  0  0  0
 30 86  1  0  0  0  0
 31 87  1  0  0  0  0
 32 67  2  0  0  0  0
 33 68  1  0  0  0  0
 33 71  1  0  0  0  0
 34 72  1  0  0  0  0
 34 78  2  0  0  0  0
 35 49  1  0  0  0  0
 35 74  1  0  0  0  0
 35 79  2  0  0  0  0
 36 63  1  0  0  0  0
 36 69  1  0  0  0  0
 36 80  2  0  0  0  0
 37 64  1  0  0  0  0
 37 75  1  0  0  0  0
 37 81  2  0  0  0  0
 38 70  1  0  0  0  0
 38 73  1  0  0  0  0
 38 82  2  0  0  0  0
 39 42  1  0  0  0  0
 40 49  1  0  0  0  0
 41 69  1  0  0  0  0
 42 44  1  0  0  0  0
 43 45  1  0  0  0  0
 43 46  1  0  0  0  0
 44 48  1  0  0  0  0
 45 50  1  0  0  0  0
 46 70  1  0  0  0  0
 47 50  1  0  0  0  0
 47 70  1  0  0  0  0
 48 74  1  0  0  0  0
 49 69  1  0  0  0  0
 50 68  1  0  0  0  0
 53 64  1  0  0  0  0
 54 65  1  0  0  0  0
 55 66  1  0  0  0  0
 56 66  1  0  0  0  0
 57 66  1  0  0  0  0
 58 76  1  0  0  0  0
 59 84  1  0  0  0  0
 60 77  1  0  0  0  0
 61 62  1  0  0  0  0
 61 65  1  0  0  0  0
 62 85  1  0  0  0  0
 63 66  1  0  0  0  0
 63 75  1  0  0  0  0
 64 76  1  0  0  0  0
 65 77  1  0  0  0  0
 67 68  1  0  0  0  0
M  CHG  2  76   1  77   1
M  ISO  4  38 100  62 101  73 100  85 101
M  END
> <Batch ID>
0015

> <Smiles>
CNC(C)C(=O)NC(C(=O)N1Cc2cc([101O:1][101CH2:1]CC(C)NCc3c(C)cc([100NH:0][100C:0](=O)N4CCCC(n5nc(-c6ccc(Oc7ccc(F)cc7F)cc6)c(C(N)=O)c5N)C4)c(OC)c3C)ccc2CC1C(=O)NC1CCCc2ccccc21)C(C)(C)C

> <Shape>
0.259

> <Color>
0.144

> <Negative vol penalty>
0.000

$$$$

  -OEChem-04052315553D

 82 90  0     1  0  0  0  0  0999 V2000
  -29.2322  -25.4256   16.5978 C   0  0  0  0  0  0  0  0  0  0  0  0
  -28.0862  -25.3619   17.3840 C   0  0  0  0  0  0  0  0  0  0  0  0
  -26.3729  -12.7801   19.5749 C   0  0  0  0  0  0  0  0  0  0  0  0
  -24.3097  -13.4002   20.6683 C   0  0  0  0  0  0  0  0  0  0  0  0
  -30.3171  -26.1980   17.0104 C   0  0  0  0  0  0  0  0  0  0  0  0
  -28.0249  -26.0698   18.5839 C   0  0  0  0  0  0  0  0  0  0  0  0
  -23.6253  -28.5054   19.1801 C   0  0  0  0  0  0  0  0  0  0  0  0
  -24.2752  -23.0558   22.0068 C   0  0  0  0  0  0  0  0  0  0  0  0
  -23.2319  -23.9746   22.1208 C   0  0  0  0  0  0  0  0  0  0  0  0
  -26.3119  -11.5217   20.1735 C   0  0  0  0  0  0  0  0  0  0  0  0
  -24.2486  -12.1418   21.2669 C   0  0  0  0  0  0  0  0  0  0  0  0
  -22.5264  -27.7463   19.5802 C   0  0  0  0  0  0  0  0  0  0  0  0
  -23.3580   -9.0046   20.3809 C   0  0  0  0  0  0  0  0  0  0  0  0
  -22.1305   -8.3422   20.3699 C   0  0  0  0  0  0  0  0  0  0  0  0
  -22.8323  -28.5099   21.8479 C   0  0  0  0  0  0  0  0  0  0  0  0
  -22.7749  -21.2729   22.6450 C   0  0  0  0  0  0  0  0  0  0  0  0
  -22.1298   -8.3034   22.7856 C   0  0  0  0  0  0  0  0  0  0  0  0
  -25.3718  -13.7194   19.8224 C   0  0  0  0  0  0  0  0  0  0  0  0
  -24.8900  -15.3982   17.9630 C   0  0  0  0  0  0  0  0  0  0  0  0
  -30.2655  -26.9234   18.2111 C   0  0  0  0  0  0  0  0  0  0  0  0
  -24.3438  -29.2651   20.1145 C   0  0  0  0  0  0  0  0  0  0  0  0
  -29.1107  -26.8515   19.0135 C   0  0  0  0  0  0  0  0  0  0  0  0
  -23.9384  -29.2797   21.4567 C   0  0  0  0  0  0  0  0  0  0  0  0
  -21.7316  -22.1917   22.7590 C   0  0  0  0  0  0  0  0  0  0  0  0
  -24.0467  -21.7050   22.2689 C   0  0  0  0  0  0  0  0  0  0  0  0
  -21.9601  -23.5425   22.4969 C   0  0  0  0  0  0  0  0  0  0  0  0
  -25.2497  -11.2025   21.0194 C   0  0  0  0  0  0  0  0  0  0  0  0
  -22.1315  -27.7462   20.9148 C   0  0  0  0  0  0  0  0  0  0  0  0
  -23.9715   -9.3163   21.5942 C   0  0  0  0  0  0  0  0  0  0  0  0
  -21.5164   -7.9917   21.5723 C   0  0  0  0  0  0  0  0  0  0  0  0
  -23.3574   -8.9657   22.7966 C   0  0  0  0  0  0  0  0  0  0  0  0
  -25.4346  -15.0197   19.2048 C   0  0  0  0  0  0  0  0  0  0  0  0
  -25.2195  -16.7253   17.8338 C   0  0  0  0  0  0  0  0  0  0  0  0
  -24.1522  -14.6198   17.0115 C   0  0  0  0  0  0  0  0  0  0  0  0
  -27.3373  -29.2600   21.1832 C   0  0  0  0  0  0  0  0  0  0  0  0
  -26.3720  -31.9340   22.7452 C   0  0  0  0  0  0  0  0  0  0  0  0
  -23.7999  -33.7552   24.0545 C   0  0  0  0  0  0  0  0  0  0  0  0
  -26.4280  -21.0354   21.7920 C   0  0  0  0  0  0  0  0  0  0  0  0
  -31.4812  -27.7068   18.6388 C   0  0  0  0  0  0  0  0  0  0  0  0
  -25.5105  -30.0996   19.6620 C   0  0  0  0  0  0  0  0  0  0  0  0
  -24.6637  -30.0943   22.4953 C   0  0  0  0  0  0  0  0  0  0  0  0
  -31.1935  -28.7251   19.7391 C   0  0  0  0  0  0  0  0  0  0  0  0
  -28.5453  -19.9046   19.1623 C   0  0  0  0  0  0  0  0  0  0  0  0
  -30.3550  -28.0930   20.8455 C   0  0  0  0  0  0  0  0  0  0  0  0
  -27.9348  -18.5609   18.7577 C   0  0  0  0  0  0  0  0  0  0  0  0
  -28.4550  -20.1377   20.6694 C   0  0  0  0  0  0  0  0  0  0  0  0
  -26.4995  -18.6487   20.8360 C   0  0  0  0  0  0  0  0  0  0  0  0
  -28.9968  -27.6249   20.3093 C   0  0  1  0  0  0  0  0  0  0  0  0
  -26.4815  -30.4311   20.7911 C   0  0  1  0  0  0  0  0  0  0  0  0
  -26.5086  -18.3980   19.3191 C   0  0  2  0  0  0  0  0  0  0  0  0
  -20.3795  -21.7019   23.1647 C   0  0  0  0  0  0  0  0  0  0  0  0
  -23.3261  -35.8799   25.3029 C   0  0  0  0  0  0  0  0  0  0  0  0
  -27.3830  -30.6443   25.3190 C   0  0  0  0  0  0  0  0  0  0  0  0
  -26.0560  -32.3338   26.6046 C   0  0  0  0  0  0  0  0  0  0  0  0
  -27.9002  -33.0813   25.1003 C   0  0  0  0  0  0  0  0  0  0  0  0
  -20.6779  -25.1562   23.8797 C   0  0  0  0  0  0  0  0  0  0  0  0
  -22.1262  -34.8115   21.8540 C   0  0  0  0  0  0  0  0  0  0  0  0
  -20.0872  -24.8110   21.4755 C   0  0  0  0  0  0  0  0  0  0  0  0
  -20.7905  -25.8119   20.5741 C   0  0  0  0  0  0  0  0  0  1  0  0
  -25.7486  -32.2203   24.0899 C   0  0  1  0  0  0  0  0  0  0  0  0
  -23.4440  -35.2261   23.9349 C   0  0  2  0  0  0  0  0  0  0  0  0
  -26.7593  -32.0530   25.2595 C   0  0  0  0  0  0  0  0  0  0  0  0
  -26.0624  -16.0250   19.8205 N   0  0  0  0  0  0  0  0  0  0  0  0
  -25.9145  -17.0484   18.9620 N   0  0  0  0  0  0  0  0  0  0  0  0
  -25.8020  -30.8887   22.0048 N   0  0  0  0  0  0  0  0  0  0  0  0
  -27.0746  -19.9709   21.1292 N   0  0  0  0  0  0  0  0  0  0  0  0
  -24.9796  -17.6358   16.8664 N   0  0  0  0  0  0  0  0  0  0  0  0
  -23.9017  -13.2717   17.3017 N   0  0  0  0  0  0  0  0  0  0  0  0
  -25.1072  -20.7723   22.1535 N   0  0  0  0  0  0  0  0  0  0  0  0
  -28.1010  -28.7504   20.1504 N   0  0  0  0  0  0  0  0  0  0  0  0
  -25.1624  -33.5528   23.9928 N   0  0  0  0  0  0  0  0  0  0  0  0
  -20.9239  -24.4794   22.6060 N   0  0  3  0  0  0  0  0  0  0  0  0
  -22.1450  -35.3885   23.2228 N   0  3  0  0  0  0  0  0  0  0  0  0
  -23.7419  -15.1011   15.9282 O   0  0  0  0  0  0  0  0  0  0  0  0
  -27.3082  -28.8500   22.3376 O   0  0  0  0  0  0  0  0  0  0  0  0
  -27.3250  -32.6175   22.3627 O   0  0  0  0  0  0  0  0  0  0  0  0
  -22.9541  -32.8744   24.1928 O   0  0  0  0  0  0  0  0  0  0  0  0
  -26.9949  -22.1117   21.9979 O   0  0  0  0  0  0  0  0  0  0  0  0
  -25.1898   -9.9746   21.6035 O   0  0  0  0  0  0  0  0  0  0  0  0
  -21.0597  -27.0057   21.3081 O   0  0  0  0  0  0  0  0  0  1  0  0
  -20.3369   -7.3570   21.5616 F   0  0  0  0  0  0  0  0  0  0  0  0
  -23.9413   -9.2636   23.9654 F   0  0  0  0  0  0  0  0  0  0  0  0
  1  2  1  0  0  0  0
  1  5  2  0  0  0  0
  2  6  2  0  0  0  0
  3 10  2  0  0  0  0
  3 18  1  0  0  0  0
  4 11  1  0  0  0  0
  4 18  2  0  0  0  0
  5 20  1  0  0  0  0
  6 22  1  0  0  0  0
  7 12  2  0  0  0  0
  7 21  1  0  0  0  0
  8  9  2  0  0  0  0
  8 25  1  0  0  0  0
  9 26  1  0  0  0  0
 10 27  1  0  0  0  0
 11 27  2  0  0  0  0
 12 28  1  0  0  0  0
 13 14  2  0  0  0  0
 13 29  1  0  0  0  0
 14 30  1  0  0  0  0
 15 23  1  0  0  0  0
 15 28  2  0  0  0  0
 16 24  1  0  0  0  0
 16 25  2  0  0  0  0
 17 30  2  0  0  0  0
 17 31  1  0  0  0  0
 18 32  1  0  0  0  0
 19 32  1  0  0  0  0
 19 33  2  0  0  0  0
 19 34  1  0  0  0  0
 20 22  2  0  0  0  0
 20 39  1  0  0  0  0
 21 23  2  0  0  0  0
 21 40  1  0  0  0  0
 22 48  1  0  0  0  0
 23 41  1  0  0  0  0
 24 26  2  0  0  0  0
 24 51  1  0  0  0  0
 25 69  1  0  0  0  0
 26 72  1  0  0  0  0
 27 79  1  0  0  0  0
 28 80  1  0  0  0  0
 29 31  2  0  0  0  0
 29 79  1  0  0  0  0
 30 81  1  0  0  0  0
 31 82  1  0  0  0  0
 32 63  2  0  0  0  0
 33 64  1  0  0  0  0
 33 67  1  0  0  0  0
 34 68  1  0  0  0  0
 34 74  2  0  0  0  0
 35 49  1  0  0  0  0
 35 70  1  0  0  0  0
 35 75  2  0  0  0  0
 36 60  1  0  0  0  0
 36 65  1  0  0  0  0
 36 76  2  0  0  0  0
 37 61  1  0  0  0  0
 37 71  1  0  0  0  0
 37 77  2  0  0  0  0
 38 66  1  0  0  0  0
 38 69  1  0  0  0  0
 38 78  2  0  0  0  0
 39 42  1  0  0  0  0
 40 49  1  0  0  0  0
 41 65  1  0  0  0  0
 42 44  1  0  0  0  0
 43 45  1  0  0  0  0
 43 46  1  0  0  0  0
 44 48  1  0  0  0  0
 45 50  1  0  0  0  0
 46 66  1  0  0  0  0
 47 50  1  0  0  0  0
 47 66  1  0  0  0  0
 48 70  1  0  0  0  0
 49 65  1  0  0  0  0
 50 64  1  0  0  0  0
 52 61  1  0  0  0  0
 53 62  1  0  0  0  0
 54 62  1  0  0  0  0
 55 62  1  0  0  0  0
 56 72  1  0  0  0  0
 57 73  1  0  0  0  0
 58 59  1  0  0  0  0
 58 72  1  0  0  0  0
 59 80  1  0  0  0  0
 60 62  1  0  0  0  0
 60 71  1  0  0  0  0
 61 73  1  0  0  0  0
 63 64  1  0  0  0  0
M  CHG  1  73   1
M  ISO  4  38 100  59 101  69 100  80 101
M  END
> <Batch ID>
0015

> <Smiles>
CNC(C)C(=O)NC(C(=O)N1Cc2cc([101O:1][101CH2:1]CN(C)c3ccc([100NH:0][100C:0](=O)N4CCCC(n5nc(-c6ccc(Oc7ccc(F)cc7F)cc6)c(C(N)=O)c5N)C4)cc3C)ccc2CC1C(=O)NC1CCCc2ccccc21)C(C)(C)C

> <Shape>
0.269

> <Color>
0.084

> <Negative vol penalty>
0.000

$$$$

  -OEChem-04052315553D

 86 94  0     1  0  0  0  0  0999 V2000
  -30.3642  -35.1758   20.3917 C   0  0  0  0  0  0  0  0  0  0  0  0
  -30.2469  -33.7953   20.5176 C   0  0  0  0  0  0  0  0  0  0  0  0
  -24.5240   -9.2669   22.3522 C   0  0  0  0  0  0  0  0  0  0  0  0
  -23.5502  -10.5329   20.5395 C   0  0  0  0  0  0  0  0  0  0  0  0
  -29.4743  -36.0139   21.0623 C   0  0  0  0  0  0  0  0  0  0  0  0
  -29.2404  -33.2521   21.3152 C   0  0  0  0  0  0  0  0  0  0  0  0
  -26.8757  -29.3699   19.0831 C   0  0  0  0  0  0  0  0  0  0  0  0
  -23.5095   -8.3170   22.2338 C   0  0  0  0  0  0  0  0  0  0  0  0
  -22.5356   -9.5830   20.4211 C   0  0  0  0  0  0  0  0  0  0  0  0
  -27.5310  -28.1393   19.0846 C   0  0  0  0  0  0  0  0  0  0  0  0
  -20.2733   -8.0014   23.1567 C   0  0  0  0  0  0  0  0  0  0  0  0
  -19.6687   -7.5503   24.3300 C   0  0  0  0  0  0  0  0  0  0  0  0
  -26.1674  -27.4221   20.9407 C   0  0  0  0  0  0  0  0  0  0  0  0
  -28.1326  -20.1172   20.9117 C   0  0  0  0  0  0  0  0  0  0  0  0
  -29.4444  -19.5077   18.5263 C   0  0  0  0  0  0  0  0  0  0  0  0
  -20.3674   -5.2939   23.8226 C   0  0  0  0  0  0  0  0  0  0  0  0
  -24.5443  -10.3749   21.5051 C   0  0  0  0  0  0  0  0  0  0  0  0
  -26.8333  -11.3624   20.9638 C   0  0  0  0  0  0  0  0  0  0  0  0
  -28.4504  -35.4805   21.8608 C   0  0  0  0  0  0  0  0  0  0  0  0
  -25.8671  -29.6403   20.0191 C   0  0  0  0  0  0  0  0  0  0  0  0
  -28.3368  -34.0838   21.9982 C   0  0  0  0  0  0  0  0  0  0  0  0
  -25.4990  -28.6560   20.9474 C   0  0  0  0  0  0  0  0  0  0  0  0
  -28.4971  -21.1394   20.0354 C   0  0  0  0  0  0  0  0  0  0  0  0
  -29.1529  -20.8346   18.8426 C   0  0  0  0  0  0  0  0  0  0  0  0
  -28.4242  -18.7903   20.5954 C   0  0  0  0  0  0  0  0  0  0  0  0
  -22.5153   -8.4750   21.2682 C   0  0  0  0  0  0  0  0  0  0  0  0
  -27.1789  -27.1663   20.0153 C   0  0  0  0  0  0  0  0  0  0  0  0
  -20.9249   -7.0987   22.3163 C   0  0  0  0  0  0  0  0  0  0  0  0
  -29.0800  -18.4856   19.4027 C   0  0  0  0  0  0  0  0  0  0  0  0
  -19.7157   -6.1966   24.6630 C   0  0  0  0  0  0  0  0  0  0  0  0
  -20.9720   -5.7449   22.6493 C   0  0  0  0  0  0  0  0  0  0  0  0
  -25.5917  -11.3568   21.6273 C   0  0  0  0  0  0  0  0  0  0  0  0
  -27.4603  -12.4968   21.4182 C   0  0  0  0  0  0  0  0  0  0  0  0
  -27.3718  -10.4259   20.0211 C   0  0  0  0  0  0  0  0  0  0  0  0
  -25.4847  -31.7619   22.3549 C   0  0  0  0  0  0  0  0  0  0  0  0
  -29.2208  -24.4983   21.2704 C   0  0  0  0  0  0  0  0  0  0  0  0
  -22.5176  -30.4616   22.5219 C   0  0  0  0  0  0  0  0  0  0  0  0
  -20.4906  -27.7823   21.9223 C   0  0  0  0  0  0  0  0  0  0  0  0
  -27.3931  -17.9104   22.7188 C   0  0  0  0  0  0  0  0  0  0  0  0
  -27.5416  -36.4272   22.6041 C   0  0  0  0  0  0  0  0  0  0  0  0
  -25.1514  -30.9628   19.9871 C   0  0  0  0  0  0  0  0  0  0  0  0
  -24.4089  -28.8891   21.9602 C   0  0  0  0  0  0  0  0  0  0  0  0
  -26.2710  -35.7647   23.1304 C   0  0  0  0  0  0  0  0  0  0  0  0
  -26.2601  -15.6304   25.2079 C   0  0  0  0  0  0  0  0  0  0  0  0
  -26.6029  -34.4438   23.8174 C   0  0  0  0  0  0  0  0  0  0  0  0
  -26.0874  -14.3158   24.4436 C   0  0  0  0  0  0  0  0  0  0  0  0
  -25.8648  -16.8367   24.3579 C   0  0  0  0  0  0  0  0  0  0  0  0
  -26.3496  -15.6002   22.2830 C   0  0  0  0  0  0  0  0  0  0  0  0
  -27.2427  -33.4561   22.8343 C   0  0  1  0  0  0  0  0  0  0  0  0
  -24.4932  -31.3183   21.3167 C   0  0  1  0  0  0  0  0  0  0  0  0
  -26.7969  -14.3615   23.0761 C   0  0  2  0  0  0  0  0  0  0  0  0
  -29.5538  -21.9116   17.8886 C   0  0  0  0  0  0  0  0  0  0  0  0
  -30.4659  -25.2178   21.7310 C   0  0  0  0  0  0  0  0  0  0  0  0
  -28.6070  -15.1949   18.0096 C   0  0  0  0  0  0  0  0  0  0  0  0
  -18.1218  -27.0027   22.2019 C   0  0  0  0  0  0  0  0  0  0  0  0
  -23.0218  -30.0041   25.4962 C   0  0  0  0  0  0  0  0  0  0  0  0
  -21.0883  -28.4136   25.5081 C   0  0  0  0  0  0  0  0  0  0  0  0
  -20.7222  -30.8150   24.9406 C   0  0  0  0  0  0  0  0  0  0  0  0
  -20.1299  -27.4592   19.0027 C   0  0  0  0  0  0  0  0  0  0  0  0
  -28.1746  -22.5620   20.3980 C   0  0  0  0  0  0  0  0  0  0  0  0
  -27.9338  -25.2951   21.2742 C   0  0  0  0  0  0  0  0  0  1  0  0
  -28.8126  -16.6881   17.8686 C   0  0  0  0  0  0  0  0  0  0  0  0
  -21.8946  -29.3134   23.2785 C   0  0  1  0  0  0  0  0  0  0  0  0
  -19.1205  -27.6803   21.2767 C   0  0  2  0  0  0  0  0  0  0  0  0
  -21.7037  -29.6325   24.7881 C   0  0  0  0  0  0  0  0  0  0  0  0
  -25.4373  -12.4045   22.4413 N   0  0  0  0  0  0  0  0  0  0  0  0
  -29.3457  -23.2770   20.8768 N   0  0  0  0  0  0  0  0  0  0  0  0
  -26.5902  -13.0789   22.2924 N   0  0  0  0  0  0  0  0  0  0  0  0
  -23.7431  -30.2005   21.8928 N   0  0  0  0  0  0  0  0  0  0  0  0
  -26.5794  -16.8157   23.0797 N   0  0  0  0  0  0  0  0  0  0  0  0
  -28.6656  -13.0431   21.1513 N   0  0  0  0  0  0  0  0  0  0  0  0
  -26.5946   -9.3155   19.6641 N   0  0  0  0  0  0  0  0  0  0  0  0
  -28.0484  -17.7636   21.4967 N   0  0  0  0  0  0  0  0  0  0  0  0
  -26.2326  -32.8632   21.9843 N   0  0  0  0  0  0  0  0  0  0  0  0
  -20.6588  -28.9846   22.5763 N   0  0  0  0  0  0  0  0  0  0  0  0
  -19.2003  -26.8930   20.0138 N   0  3  0  0  0  0  0  0  0  0  0  0
  -28.5150  -10.5608   19.5228 O   0  0  0  0  0  0  0  0  0  0  0  0
  -25.5642  -31.1513   23.4143 O   0  0  0  0  0  0  0  0  0  0  0  0
  -21.9348  -31.5482   22.4844 O   0  0  0  0  0  0  0  0  0  0  0  0
  -21.3266  -26.8838   21.8565 O   0  0  0  0  0  0  0  0  0  0  0  0
  -27.5222  -18.8930   23.4535 O   0  0  0  0  0  0  0  0  0  0  0  0
  -21.5254   -7.5481   21.1522 O   0  0  0  0  0  0  0  0  0  0  0  0
  -27.8174  -25.9645   20.0194 O   0  0  0  0  0  0  0  0  0  1  0  0
  -29.3754  -17.1955   19.0765 O   0  0  0  0  0  0  0  0  0  0  0  0
  -19.1364   -5.7639   25.7905 F   0  0  0  0  0  0  0  0  0  0  0  0
  -21.5975   -4.8732   21.8465 F   0  0  0  0  0  0  0  0  0  0  0  0
  1  2  1  0  0  0  0
  1  5  2  0  0  0  0
  2  6  2  0  0  0  0
  3  8  2  0  0  0  0
  3 17  1  0  0  0  0
  4  9  1  0  0  0  0
  4 17  2  0  0  0  0
  5 19  1  0  0  0  0
  6 21  1  0  0  0  0
  7 10  2  0  0  0  0
  7 20  1  0  0  0  0
  8 26  1  0  0  0  0
  9 26  2  0  0  0  0
 10 27  1  0  0  0  0
 11 12  2  0  0  0  0
 11 28  1  0  0  0  0
 12 30  1  0  0  0  0
 13 22  1  0  0  0  0
 13 27  2  0  0  0  0
 14 23  1  0  0  0  0
 14 25  2  0  0  0  0
 15 24  1  0  0  0  0
 15 29  2  0  0  0  0
 16 30  2  0  0  0  0
 16 31  1  0  0  0  0
 17 32  1  0  0  0  0
 18 32  1  0  0  0  0
 18 33  2  0  0  0  0
 18 34  1  0  0  0  0
 19 21  2  0  0  0  0
 19 40  1  0  0  0  0
 20 22  2  0  0  0  0
 20 41  1  0  0  0  0
 21 49  1  0  0  0  0
 22 42  1  0  0  0  0
 23 24  2  0  0  0  0
 23 60  1  0  0  0  0
 24 52  1  0  0  0  0
 25 29  1  0  0  0  0
 25 73  1  0  0  0  0
 26 82  1  0  0  0  0
 27 83  1  0  0  0  0
 28 31  2  0  0  0  0
 28 82  1  0  0  0  0
 29 84  1  0  0  0  0
 30 85  1  0  0  0  0
 31 86  1  0  0  0  0
 32 66  2  0  0  0  0
 33 68  1  0  0  0  0
 33 71  1  0  0  0  0
 34 72  1  0  0  0  0
 34 77  2  0  0  0  0
 35 50  1  0  0  0  0
 35 74  1  0  0  0  0
 35 78  2  0  0  0  0
 36 53  1  0  0  0  0
 36 61  1  0  0  0  0
 36 67  2  0  0  0  0
 37 63  1  0  0  0  0
 37 69  1  0  0  0  0
 37 79  2  0  0  0  0
 38 64  1  0  0  0  0
 38 75  1  0  0  0  0
 38 80  2  0  0  0  0
 39 70  1  0  0  0  0
 39 73  1  0  0  0  0
 39 81  2  0  0  0  0
 40 43  1  0  0  0  0
 41 50  1  0  0  0  0
 42 69  1  0  0  0  0
 43 45  1  0  0  0  0
 44 46  1  0  0  0  0
 44 47  1  0  0  0  0
 45 49  1  0  0  0  0
 46 51  1  0  0  0  0
 47 70  1  0  0  0  0
 48 51  1  0  0  0  0
 48 70  1  0  0  0  0
 49 74  1  0  0  0  0
 50 69  1  0  0  0  0
 51 68  1  0  0  0  0
 54 62  1  0  0  0  0
 55 64  1  0  0  0  0
 56 65  1  0  0  0  0
 57 65  1  0  0  0  0
 58 65  1  0  0  0  0
 59 76  1  0  0  0  0
 60 67  1  0  0  0  0
 61 83  1  0  0  0  0
 62 84  1  0  0  0  0
 63 65  1  0  0  0  0
 63 75  1  0  0  0  0
 64 76  1  0  0  0  0
 66 68  1  0  0  0  0
M  CHG  1  76   1
M  ISO  4  39 100  61 101  73 100  83 101
M  END
> <Batch ID>
0015

> <Smiles>
C=C(NCc1cc([100NH:0][100C:0](=O)N2CCCC(n3nc(-c4ccc(Oc5ccc(F)cc5F)cc4)c(C(N)=O)c3N)C2)c(OCC)cc1C)[101CH2:1][101O:1]c1ccc2c(c1)CN(C(=O)C(NC(=O)C(C)NC)C(C)(C)C)C(C(=O)NC1CCCc3ccccc31)C2

> <Shape>
0.301

> <Color>
0.083

> <Negative vol penalty>
0.000

$$$$

  -OEChem-04052315553D

 84 92  0     1  0  0  0  0  0999 V2000
  -27.3813  -37.5734   19.1636 C   0  0  0  0  0  0  0  0  0  0  0  0
  -27.9130  -36.2920   19.0595 C   0  0  0  0  0  0  0  0  0  0  0  0
  -23.1985  -11.0616   20.7983 C   0  0  0  0  0  0  0  0  0  0  0  0
  -23.9717  -11.5945   18.5723 C   0  0  0  0  0  0  0  0  0  0  0  0
  -26.4547  -37.8631   20.1643 C   0  0  0  0  0  0  0  0  0  0  0  0
  -27.5191  -35.2999   19.9566 C   0  0  0  0  0  0  0  0  0  0  0  0
  -26.8478  -29.3275   18.7793 C   0  0  0  0  0  0  0  0  0  0  0  0
  -22.4046  -10.0396   20.2779 C   0  0  0  0  0  0  0  0  0  0  0  0
  -23.1778  -10.5725   18.0518 C   0  0  0  0  0  0  0  0  0  0  0  0
  -27.6785  -28.2293   18.9974 C   0  0  0  0  0  0  0  0  0  0  0  0
  -19.4326   -9.7564   18.6931 C   0  0  0  0  0  0  0  0  0  0  0  0
  -18.1226   -9.6525   19.1606 C   0  0  0  0  0  0  0  0  0  0  0  0
  -26.5165  -27.7675   21.0603 C   0  0  0  0  0  0  0  0  0  0  0  0
  -28.5688  -21.1516   19.3087 C   0  0  0  0  0  0  0  0  0  0  0  0
  -18.5860   -7.4213   19.9633 C   0  0  0  0  0  0  0  0  0  0  0  0
  -30.8070  -21.1892   18.5053 C   0  0  0  0  0  0  0  0  0  0  0  0
  -23.9820  -11.8391   19.9455 C   0  0  0  0  0  0  0  0  0  0  0  0
  -26.1357  -12.7964   20.9217 C   0  0  0  0  0  0  0  0  0  0  0  0
  -26.0419  -36.8715   21.0682 C   0  0  0  0  0  0  0  0  0  0  0  0
  -25.8505  -29.6610   19.7071 C   0  0  0  0  0  0  0  0  0  0  0  0
  -26.5870  -35.5770   20.9712 C   0  0  0  0  0  0  0  0  0  0  0  0
  -25.6727  -28.8689   20.8504 C   0  0  0  0  0  0  0  0  0  0  0  0
  -29.6072  -21.8526   18.7058 C   0  0  0  0  0  0  0  0  0  0  0  0
  -28.7592  -19.8274   19.6875 C   0  0  0  0  0  0  0  0  0  0  0  0
  -22.3942   -9.7950   18.9047 C   0  0  0  0  0  0  0  0  0  0  0  0
  -27.5149  -27.4508   20.1394 C   0  0  0  0  0  0  0  0  0  0  0  0
  -20.3194   -8.6927   18.8606 C   0  0  0  0  0  0  0  0  0  0  0  0
  -17.6993   -8.4850   19.7957 C   0  0  0  0  0  0  0  0  0  0  0  0
  -19.8960   -7.5252   19.4957 C   0  0  0  0  0  0  0  0  0  0  0  0
  -24.8019  -12.8954   20.4824 C   0  0  0  0  0  0  0  0  0  0  0  0
  -29.9969  -19.2546   19.4429 C   0  0  0  0  0  0  0  0  0  0  0  0
  -26.4558  -14.0662   21.3360 C   0  0  0  0  0  0  0  0  0  0  0  0
  -27.0073  -11.6584   20.9526 C   0  0  0  0  0  0  0  0  0  0  0  0
  -25.2554  -32.1797   21.5525 C   0  0  0  0  0  0  0  0  0  0  0  0
  -22.5247  -30.5589   22.2152 C   0  0  0  0  0  0  0  0  0  0  0  0
  -20.8959  -27.5634   22.3590 C   0  0  0  0  0  0  0  0  0  0  0  0
  -26.4221  -19.5847   20.5962 C   0  0  0  0  0  0  0  0  0  0  0  0
  -25.0734  -37.2445   22.1625 C   0  0  0  0  0  0  0  0  0  0  0  0
  -24.9452  -30.8329   19.4439 C   0  0  0  0  0  0  0  0  0  0  0  0
  -24.6037  -29.1726   21.8670 C   0  0  0  0  0  0  0  0  0  0  0  0
  -24.4265  -36.0393   22.8402 C   0  0  0  0  0  0  0  0  0  0  0  0
  -23.5264  -18.1285   22.0696 C   0  0  0  0  0  0  0  0  0  0  0  0
  -25.4791  -34.9883   23.1784 C   0  0  0  0  0  0  0  0  0  0  0  0
  -23.7098  -16.6290   21.8242 C   0  0  0  0  0  0  0  0  0  0  0  0
  -24.0351  -18.9619   20.8947 C   0  0  0  0  0  0  0  0  0  0  0  0
  -25.5979  -17.1752   20.2355 C   0  0  0  0  0  0  0  0  0  0  0  0
  -26.1660  -34.4674   21.9101 C   0  0  1  0  0  0  0  0  0  0  0  0
  -24.2981  -31.3843   20.7107 C   0  0  1  0  0  0  0  0  0  0  0  0
  -25.1595  -16.2975   21.4192 C   0  0  2  0  0  0  0  0  0  0  0  0
  -18.6835  -26.5517   22.9747 C   0  0  0  0  0  0  0  0  0  0  0  0
  -30.1340  -24.1173   20.6516 C   0  0  0  0  0  0  0  0  0  0  0  0
  -28.2691  -23.3681   17.2401 C   0  0  0  0  0  0  0  0  0  0  0  0
  -30.6688  -23.8949   17.5363 C   0  0  0  0  0  0  0  0  0  0  0  0
  -23.2166  -30.8520   25.1724 C   0  0  0  0  0  0  0  0  0  0  0  0
  -21.5437  -29.0570   25.6701 C   0  0  0  0  0  0  0  0  0  0  0  0
  -20.8005  -31.1976   24.6271 C   0  0  0  0  0  0  0  0  0  0  0  0
  -20.4644  -26.5487   19.6125 C   0  0  0  0  0  0  0  0  0  0  0  0
  -28.8303  -25.7046   19.2034 C   0  0  0  0  0  0  0  0  0  1  0  0
  -22.1122  -29.5356   23.2454 C   0  0  1  0  0  0  0  0  0  0  0  0
  -19.5303  -27.1342   21.8538 C   0  0  2  0  0  0  0  0  0  0  0  0
  -29.0768  -24.2181   19.5332 C   0  0  1  0  0  0  0  0  0  0  0  0
  -29.4282  -23.3286   18.2726 C   0  0  0  0  0  0  0  0  0  0  0  0
  -21.9397  -30.1557   24.6607 C   0  0  0  0  0  0  0  0  0  0  0  0
  -31.0294  -19.9037   18.8596 N   0  0  0  0  0  0  0  0  0  0  0  0
  -24.3085  -14.1304   20.6061 N   0  0  0  0  0  0  0  0  0  0  0  0
  -25.3378  -14.8191   21.1280 N   0  0  0  0  0  0  0  0  0  0  0  0
  -23.7478  -30.3325   21.5681 N   0  0  0  0  0  0  0  0  0  0  0  0
  -25.4157  -18.5962   20.5704 N   0  0  0  0  0  0  0  0  0  0  0  0
  -30.2005  -17.9041   19.8245 N   0  0  0  0  0  0  0  0  0  0  0  0
  -27.5818  -14.6009   21.8543 N   0  0  0  0  0  0  0  0  0  0  0  0
  -26.5182  -10.4294   20.4893 N   0  0  0  0  0  0  0  0  0  0  0  0
  -27.7012  -19.1131   20.3025 N   0  0  0  0  0  0  0  0  0  0  0  0
  -25.3118  -33.5210   21.2252 N   0  0  0  0  0  0  0  0  0  0  0  0
  -20.9106  -28.8930   22.7241 N   0  0  0  0  0  0  0  0  0  0  0  0
  -19.6731  -26.1024   20.7879 N   0  3  0  0  0  0  0  0  0  0  0  0
  -28.1797  -11.7257   21.3936 O   0  0  0  0  0  0  0  0  0  0  0  0
  -25.8943  -31.6183   22.4347 O   0  0  0  0  0  0  0  0  0  0  0  0
  -21.7856  -31.5199   21.9876 O   0  0  0  0  0  0  0  0  0  0  0  0
  -21.8528  -26.7951   22.4266 O   0  0  0  0  0  0  0  0  0  0  0  0
  -26.1725  -20.7576   20.8860 O   0  0  0  0  0  0  0  0  0  0  0  0
  -21.6199   -8.7977   18.3966 O   0  0  0  0  0  0  0  0  0  0  0  0
  -28.3248  -26.3788   20.3551 O   0  0  0  0  0  0  0  0  0  1  0  0
  -16.4416   -8.3859   20.2460 F   0  0  0  0  0  0  0  0  0  0  0  0
  -20.7437   -6.5005   19.6606 F   0  0  0  0  0  0  0  0  0  0  0  0
  1  2  1  0  0  0  0
  1  5  2  0  0  0  0
  2  6  2  0  0  0  0
  3  8  2  0  0  0  0
  3 17  1  0  0  0  0
  4  9  1  0  0  0  0
  4 17  2  0  0  0  0
  5 19  1  0  0  0  0
  6 21  1  0  0  0  0
  7 10  2  0  0  0  0
  7 20  1  0  0  0  0
  8 25  1  0  0  0  0
  9 25  2  0  0  0  0
 10 26  1  0  0  0  0
 11 12  2  0  0  0  0
 11 27  1  0  0  0  0
 12 28  1  0  0  0  0
 13 22  1  0  0  0  0
 13 26  2  0  0  0  0
 14 23  2  0  0  0  0
 14 24  1  0  0  0  0
 15 28  2  0  0  0  0
 15 29  1  0  0  0  0
 16 23  1  0  0  0  0
 16 64  2  0  0  0  0
 17 30  1  0  0  0  0
 18 30  1  0  0  0  0
 18 32  2  0  0  0  0
 18 33  1  0  0  0  0
 19 21  2  0  0  0  0
 19 38  1  0  0  0  0
 20 22  2  0  0  0  0
 20 39  1  0  0  0  0
 21 47  1  0  0  0  0
 22 40  1  0  0  0  0
 23 62  1  0  0  0  0
 24 31  2  0  0  0  0
 24 72  1  0  0  0  0
 25 81  1  0  0  0  0
 26 82  1  0  0  0  0
 27 29  2  0  0  0  0
 27 81  1  0  0  0  0
 28 83  1  0  0  0  0
 29 84  1  0  0  0  0
 30 65  2  0  0  0  0
 31 64  1  0  0  0  0
 31 69  1  0  0  0  0
 32 66  1  0  0  0  0
 32 70  1  0  0  0  0
 33 71  1  0  0  0  0
 33 76  2  0  0  0  0
 34 48  1  0  0  0  0
 34 73  1  0  0  0  0
 34 77  2  0  0  0  0
 35 59  1  0  0  0  0
 35 67  1  0  0  0  0
 35 78  2  0  0  0  0
 36 60  1  0  0  0  0
 36 74  1  0  0  0  0
 36 79  2  0  0  0  0
 37 68  1  0  0  0  0
 37 72  1  0  0  0  0
 37 80  2  0  0  0  0
 38 41  1  0  0  0  0
 39 48  1  0  0  0  0
 40 67  1  0  0  0  0
 41 43  1  0  0  0  0
 42 44  1  0  0  0  0
 42 45  1  0  0  0  0
 43 47  1  0  0  0  0
 44 49  1  0  0  0  0
 45 68  1  0  0  0  0
 46 49  1  0  0  0  0
 46 68  1  0  0  0  0
 47 73  1  0  0  0  0
 48 67  1  0  0  0  0
 49 66  1  0  0  0  0
 50 60  1  0  0  0  0
 51 61  1  0  0  0  0
 52 62  1  0  0  0  0
 53 62  1  0  0  0  0
 54 63  1  0  0  0  0
 55 63  1  0  0  0  0
 56 63  1  0  0  0  0
 57 75  1  0  0  0  0
 58 61  1  0  0  0  0
 58 82  1  0  0  0  0
 59 63  1  0  0  0  0
 59 74  1  0  0  0  0
 60 75  1  0  0  0  0
 61 62  1  0  0  0  0
 65 66  1  0  0  0  0
M  CHG  1  75   1
M  ISO  4  37 100  58 101  72 100  82 101
M  END
> <Batch ID>
0015

> <Smiles>
CNC(C)C(=O)NC(C(=O)N1Cc2cc([101O:1][101CH2:1]C(C)C(C)(C)c3cnc(N)c([100NH:0][100C:0](=O)N4CCCC(n5nc(-c6ccc(Oc7ccc(F)cc7F)cc6)c(C(N)=O)c5N)C4)c3)ccc2CC1C(=O)NC1CCCc2ccccc21)C(C)(C)C

> <Shape>
0.274

> <Color>
0.076

> <Negative vol penalty>
0.000

$$$$

  -OEChem-04052315553D

 85 93  0     1  0  0  0  0  0999 V2000
  -28.0500  -37.4964   22.0226 C   0  0  0  0  0  0  0  0  0  0  0  0
  -28.5752  -36.4354   21.2919 C   0  0  0  0  0  0  0  0  0  0  0  0
  -23.5403   -9.6647   20.0225 C   0  0  0  0  0  0  0  0  0  0  0  0
  -23.9562  -10.0192   22.3758 C   0  0  0  0  0  0  0  0  0  0  0  0
  -27.2842  -37.2462   23.1605 C   0  0  0  0  0  0  0  0  0  0  0  0
  -28.3356  -35.1235   21.6994 C   0  0  0  0  0  0  0  0  0  0  0  0
  -27.3682  -28.5412   19.0435 C   0  0  0  0  0  0  0  0  0  0  0  0
  -22.9485   -8.4353   20.3122 C   0  0  0  0  0  0  0  0  0  0  0  0
  -23.3644   -8.7897   22.6656 C   0  0  0  0  0  0  0  0  0  0  0  0
  -27.8547  -27.2419   19.1813 C   0  0  0  0  0  0  0  0  0  0  0  0
  -20.2386   -7.5371   22.9492 C   0  0  0  0  0  0  0  0  0  0  0  0
  -19.3371   -7.4881   24.0124 C   0  0  0  0  0  0  0  0  0  0  0  0
  -26.4512  -26.9282   21.1181 C   0  0  0  0  0  0  0  0  0  0  0  0
  -30.1371  -20.2864   21.4651 C   0  0  0  0  0  0  0  0  0  0  0  0
  -20.7355   -5.8609   25.1231 C   0  0  0  0  0  0  0  0  0  0  0  0
  -24.0442  -10.4566   21.0543 C   0  0  0  0  0  0  0  0  0  0  0  0
  -24.0197  -12.9798   20.6795 C   0  0  0  0  0  0  0  0  0  0  0  0
  -27.0270  -35.9304   23.5766 C   0  0  0  0  0  0  0  0  0  0  0  0
  -26.4261  -29.0483   19.9500 C   0  0  0  0  0  0  0  0  0  0  0  0
  -27.5667  -34.8555   22.8447 C   0  0  0  0  0  0  0  0  0  0  0  0
  -25.9524  -28.2333   20.9881 C   0  0  0  0  0  0  0  0  0  0  0  0
  -29.8981  -18.9595   21.1075 C   0  0  0  0  0  0  0  0  0  0  0  0
  -29.6854  -19.7451   23.7759 C   0  0  0  0  0  0  0  0  0  0  0  0
  -29.4463  -18.4182   23.4184 C   0  0  0  0  0  0  0  0  0  0  0  0
  -30.0308  -20.6792   22.7993 C   0  0  0  0  0  0  0  0  0  0  0  0
  -29.5527  -18.0254   22.0841 C   0  0  0  0  0  0  0  0  0  0  0  0
  -22.8606   -7.9978   21.6338 C   0  0  0  0  0  0  0  0  0  0  0  0
  -27.3984  -26.4362   20.2204 C   0  0  0  0  0  0  0  0  0  0  0  0
  -21.3885   -6.7480   22.9729 C   0  0  0  0  0  0  0  0  0  0  0  0
  -19.5855   -6.6500   25.0994 C   0  0  0  0  0  0  0  0  0  0  0  0
  -21.6370   -5.9099   24.0598 C   0  0  0  0  0  0  0  0  0  0  0  0
  -24.6561  -11.7264   20.7556 C   0  0  0  0  0  0  0  0  0  0  0  0
  -25.0286  -13.8589   20.3696 C   0  0  0  0  0  0  0  0  0  0  0  0
  -22.6401  -13.3192   20.8717 C   0  0  0  0  0  0  0  0  0  0  0  0
  -26.3818  -31.4520   22.0294 C   0  0  0  0  0  0  0  0  0  0  0  0
  -23.2733  -30.5887   22.3676 C   0  0  0  0  0  0  0  0  0  0  0  0
  -20.8962  -28.1552   22.0954 C   0  0  0  0  0  0  0  0  0  0  0  0
  -30.1969  -15.7965   21.1026 C   0  0  0  0  0  0  0  0  0  0  0  0
  -26.2331  -35.7106   24.8400 C   0  0  0  0  0  0  0  0  0  0  0  0
  -25.8913  -30.4428   19.7718 C   0  0  0  0  0  0  0  0  0  0  0  0
  -24.9263  -28.7234   21.9757 C   0  0  0  0  0  0  0  0  0  0  0  0
  -25.7126  -34.2836   24.9918 C   0  0  0  0  0  0  0  0  0  0  0  0
  -29.8031  -13.0139   18.9164 C   0  0  0  0  0  0  0  0  0  0  0  0
  -26.8174  -33.2771   24.6867 C   0  0  0  0  0  0  0  0  0  0  0  0
  -28.3766  -12.5340   19.1938 C   0  0  0  0  0  0  0  0  0  0  0  0
  -30.4934  -13.5053   20.1876 C   0  0  0  0  0  0  0  0  0  0  0  0
  -28.3228  -14.0390   21.2233 C   0  0  0  0  0  0  0  0  0  0  0  0
  -27.3082  -33.4180   23.2407 C   0  0  1  0  0  0  0  0  0  0  0  0
  -25.3167  -31.0311   21.0567 C   0  0  1  0  0  0  0  0  0  0  0  0
  -27.5643  -13.5951   19.9618 C   0  0  2  0  0  0  0  0  0  0  0  0
  -30.0179  -18.5696   19.6697 C   0  0  0  0  0  0  0  0  0  0  0  0
  -29.5716  -20.1655   25.2080 C   0  0  0  0  0  0  0  0  0  0  0  0
  -29.0728  -17.4187   24.4688 C   0  0  0  0  0  0  0  0  0  0  0  0
  -18.4520  -27.7370   22.4810 C   0  0  0  0  0  0  0  0  0  0  0  0
  -23.7808  -30.4062   25.3708 C   0  0  0  0  0  0  0  0  0  0  0  0
  -21.6545  -29.1011   25.5802 C   0  0  0  0  0  0  0  0  0  0  0  0
  -21.5966  -31.4504   24.7434 C   0  0  0  0  0  0  0  0  0  0  0  0
  -31.6304  -22.4457   23.4927 C   0  0  0  0  0  0  0  0  0  0  0  0
  -20.4288  -27.5559   19.2351 C   0  0  0  0  0  0  0  0  0  0  0  0
  -29.0622  -23.6195   21.7524 C   0  0  0  0  0  0  0  0  0  0  0  0
  -29.2193  -23.0005   23.1360 C   0  0  0  0  0  0  0  0  0  0  0  0
  -27.9277  -24.6348   21.6801 C   0  0  0  0  0  0  0  0  0  1  0  0
  -22.5213  -29.6272   23.2558 C   0  0  1  0  0  0  0  0  0  0  0  0
  -19.5101  -28.1657   21.4764 C   0  0  2  0  0  0  0  0  0  0  0  0
  -22.4091  -30.1373   24.7203 C   0  0  0  0  0  0  0  0  0  0  0  0
  -25.9677  -11.7985   20.5134 N   0  0  0  0  0  0  0  0  0  0  0  0
  -26.1636  -13.1078   20.2820 N   0  0  0  0  0  0  0  0  0  0  0  0
  -24.4386  -30.0962   21.7632 N   0  0  0  0  0  0  0  0  0  0  0  0
  -29.6679  -14.5112   20.8596 N   0  0  0  0  0  0  0  0  0  0  0  0
  -25.0466  -15.1933   20.1662 N   0  0  0  0  0  0  0  0  0  0  0  0
  -21.7372  -12.2939   21.1850 N   0  0  0  0  0  0  0  0  0  0  0  0
  -29.3091  -16.6784   21.7180 N   0  0  0  0  0  0  0  0  0  0  0  0
  -26.3709  -32.8014   22.3265 N   0  0  0  0  0  0  0  0  0  0  0  0
  -21.2370  -29.3900   22.6056 N   0  0  0  0  0  0  0  0  0  0  0  0
  -30.2757  -22.0175   23.1387 N   0  0  3  0  0  0  0  0  0  0  0  0
  -19.4560  -27.2374   20.3118 N   0  3  0  0  0  0  0  0  0  0  0  0
  -22.2174  -14.4942   20.7527 O   0  0  0  0  0  0  0  0  0  0  0  0
  -27.1552  -30.6141   22.4783 O   0  0  0  0  0  0  0  0  0  0  0  0
  -22.8387  -31.7323   22.2099 O   0  0  0  0  0  0  0  0  0  0  0  0
  -21.6041  -27.1509   22.1269 O   0  0  0  0  0  0  0  0  0  0  0  0
  -31.3432  -16.1013   20.7635 O   0  0  0  0  0  0  0  0  0  0  0  0
  -22.2829   -6.7983   21.9169 O   0  0  0  0  0  0  0  0  0  0  0  0
  -27.8721  -25.1679   20.3576 O   0  0  0  0  0  0  0  0  0  1  0  0
  -18.7205   -6.6042   26.1211 F   0  0  0  0  0  0  0  0  0  0  0  0
  -22.7406   -5.1503   24.0888 F   0  0  0  0  0  0  0  0  0  0  0  0
  1  2  1  0  0  0  0
  1  5  2  0  0  0  0
  2  6  2  0  0  0  0
  3  8  2  0  0  0  0
  3 16  1  0  0  0  0
  4  9  1  0  0  0  0
  4 16  2  0  0  0  0
  5 18  1  0  0  0  0
  6 20  1  0  0  0  0
  7 10  2  0  0  0  0
  7 19  1  0  0  0  0
  8 27  1  0  0  0  0
  9 27  2  0  0  0  0
 10 28  1  0  0  0  0
 11 12  2  0  0  0  0
 11 29  1  0  0  0  0
 12 30  1  0  0  0  0
 13 21  1  0  0  0  0
 13 28  2  0  0  0  0
 14 22  2  0  0  0  0
 14 25  1  0  0  0  0
 15 30  2  0  0  0  0
 15 31  1  0  0  0  0
 16 32  1  0  0  0  0
 17 32  1  0  0  0  0
 17 33  2  0  0  0  0
 17 34  1  0  0  0  0
 18 20  2  0  0  0  0
 18 39  1  0  0  0  0
 19 21  2  0  0  0  0
 19 40  1  0  0  0  0
 20 48  1  0  0  0  0
 21 41  1  0  0  0  0
 22 26  1  0  0  0  0
 22 51  1  0  0  0  0
 23 24  1  0  0  0  0
 23 25  2  0  0  0  0
 23 52  1  0  0  0  0
 24 26  2  0  0  0  0
 24 53  1  0  0  0  0
 25 75  1  0  0  0  0
 26 72  1  0  0  0  0
 27 82  1  0  0  0  0
 28 83  1  0  0  0  0
 29 31  2  0  0  0  0
 29 82  1  0  0  0  0
 30 84  1  0  0  0  0
 31 85  1  0  0  0  0
 32 66  2  0  0  0  0
 33 67  1  0  0  0  0
 33 70  1  0  0  0  0
 34 71  1  0  0  0  0
 34 77  2  0  0  0  0
 35 49  1  0  0  0  0
 35 73  1  0  0  0  0
 35 78  2  0  0  0  0
 36 63  1  0  0  0  0
 36 68  1  0  0  0  0
 36 79  2  0  0  0  0
 37 64  1  0  0  0  0
 37 74  1  0  0  0  0
 37 80  2  0  0  0  0
 38 69  1  0  0  0  0
 38 72  1  0  0  0  0
 38 81  2  0  0  0  0
 39 42  1  0  0  0  0
 40 49  1  0  0  0  0
 41 68  1  0  0  0  0
 42 44  1  0  0  0  0
 43 45  1  0  0  0  0
 43 46  1  0  0  0  0
 44 48  1  0  0  0  0
 45 50  1  0  0  0  0
 46 69  1  0  0  0  0
 47 50  1  0  0  0  0
 47 69  1  0  0  0  0
 48 73  1  0  0  0  0
 49 68  1  0  0  0  0
 50 67  1  0  0  0  0
 54 64  1  0  0  0  0
 55 65  1  0  0  0  0
 56 65  1  0  0  0  0
 57 65  1  0  0  0  0
 58 75  1  0  0  0  0
 59 76  1  0  0  0  0
 60 61  1  0  0  0  0
 60 62  1  0  0  0  0
 61 75  1  0  0  0  0
 62 83  1  0  0  0  0
 63 65  1  0  0  0  0
 63 74  1  0  0  0  0
 64 76  1  0  0  0  0
 66 67  1  0  0  0  0
M  CHG  1  76   1
M  ISO  4  38 100  62 101  72 100  83 101
M  END
> <Batch ID>
0015

> <Smiles>
CNC(C)C(=O)NC(C(=O)N1Cc2cc([101O:1][101CH2:1]CCN(C)c3cc(C)c([100NH:0][100C:0](=O)N4CCCC(n5nc(-c6ccc(Oc7ccc(F)cc7F)cc6)c(C(N)=O)c5N)C4)c(C)c3C)ccc2CC1C(=O)NC1CCCc2ccccc21)C(C)(C)C

> <Shape>
0.362

> <Color>
0.194

> <Negative vol penalty>
0.000

$$$$

  -OEChem-04052315553D

 86 93  0     1  0  0  0  0  0999 V2000
  -30.7866  -34.6947   19.0505 C   0  0  0  0  0  0  0  0  0  0  0  0
  -30.9593  -33.3397   18.7869 C   0  0  0  0  0  0  0  0  0  0  0  0
  -23.5043  -10.3170   23.4990 C   0  0  0  0  0  0  0  0  0  0  0  0
  -21.4029  -11.2872   22.8063 C   0  0  0  0  0  0  0  0  0  0  0  0
  -29.9880  -35.0995   20.1193 C   0  0  0  0  0  0  0  0  0  0  0  0
  -30.3342  -32.3886   19.5926 C   0  0  0  0  0  0  0  0  0  0  0  0
  -28.0891  -26.9711   17.8275 C   0  0  0  0  0  0  0  0  0  0  0  0
  -22.8419   -9.1469   23.8699 C   0  0  0  0  0  0  0  0  0  0  0  0
  -20.7404  -10.1170   23.1771 C   0  0  0  0  0  0  0  0  0  0  0  0
  -28.6046  -25.6771   17.8890 C   0  0  0  0  0  0  0  0  0  0  0  0
  -21.5691   -6.4133   22.3400 C   0  0  0  0  0  0  0  0  0  0  0  0
  -22.1365   -5.1980   21.9571 C   0  0  0  0  0  0  0  0  0  0  0  0
  -27.4003  -25.3015   19.9451 C   0  0  0  0  0  0  0  0  0  0  0  0
  -22.3206   -4.5527   24.2781 C   0  0  0  0  0  0  0  0  0  0  0  0
  -22.7848  -11.3872   22.9673 C   0  0  0  0  0  0  0  0  0  0  0  0
  -24.0223  -12.8979   21.3259 C   0  0  0  0  0  0  0  0  0  0  0  0
  -29.3451  -34.1531   20.9327 C   0  0  0  0  0  0  0  0  0  0  0  0
  -27.2326  -27.4445   18.8319 C   0  0  0  0  0  0  0  0  0  0  0  0
  -29.5274  -32.7811   20.6741 C   0  0  0  0  0  0  0  0  0  0  0  0
  -26.8733  -26.6010   19.8928 C   0  0  0  0  0  0  0  0  0  0  0  0
  -21.4599   -9.0468   23.7089 C   0  0  0  0  0  0  0  0  0  0  0  0
  -28.2625  -24.8431   18.9494 C   0  0  0  0  0  0  0  0  0  0  0  0
  -21.3775   -6.6984   23.6919 C   0  0  0  0  0  0  0  0  0  0  0  0
  -22.5123   -4.2677   22.9261 C   0  0  0  0  0  0  0  0  0  0  0  0
  -21.7532   -5.7681   24.6609 C   0  0  0  0  0  0  0  0  0  0  0  0
  -23.4684  -12.5964   22.5845 C   0  0  0  0  0  0  0  0  0  0  0  0
  -24.5525  -14.1559   21.4765 C   0  0  0  0  0  0  0  0  0  0  0  0
  -24.0545  -12.1111   20.1277 C   0  0  0  0  0  0  0  0  0  0  0  0
  -27.3575  -29.8039   20.9582 C   0  0  0  0  0  0  0  0  0  0  0  0
  -28.1990  -17.9426   20.1560 C   0  0  0  0  0  0  0  0  0  0  0  0
  -24.3088  -28.8847   21.5768 C   0  0  0  0  0  0  0  0  0  0  0  0
  -28.2277  -21.2364   19.0315 C   0  0  0  0  0  0  0  0  0  0  0  0
  -21.9502  -26.4199   21.4827 C   0  0  0  0  0  0  0  0  0  0  0  0
  -24.1744  -19.4069   23.3283 C   0  0  0  0  0  0  0  0  0  0  0  0
  -28.5298  -34.6379   22.1052 C   0  0  0  0  0  0  0  0  0  0  0  0
  -26.6639  -28.8337   18.7370 C   0  0  0  0  0  0  0  0  0  0  0  0
  -25.9414  -27.0543   20.9857 C   0  0  0  0  0  0  0  0  0  0  0  0
  -27.6005  -33.5734   22.6827 C   0  0  0  0  0  0  0  0  0  0  0  0
  -25.2985  -16.9382   25.6345 C   0  0  0  0  0  0  0  0  0  0  0  0
  -28.3446  -32.2533   22.8577 C   0  0  0  0  0  0  0  0  0  0  0  0
  -24.9627  -15.6143   24.9456 C   0  0  0  0  0  0  0  0  0  0  0  0
  -24.2342  -17.9999   25.3662 C   0  0  0  0  0  0  0  0  0  0  0  0
  -23.5978  -16.9053   23.2518 C   0  0  0  0  0  0  0  0  0  0  0  0
  -28.8459  -31.7198   21.5103 C   0  0  1  0  0  0  0  0  0  0  0  0
  -26.2088  -29.3863   20.0842 C   0  0  1  0  0  0  0  0  0  0  0  0
  -24.6705  -15.8202   23.4471 C   0  0  2  0  0  0  0  0  0  0  0  0
  -29.4800  -18.3959   20.8082 C   0  0  0  0  0  0  0  0  0  0  0  0
  -19.5611  -25.9552   22.0939 C   0  0  0  0  0  0  0  0  0  0  0  0
  -27.2765  -17.4833   16.2204 C   0  0  0  0  0  0  0  0  0  0  0  0
  -25.0636  -16.6475   17.0342 C   0  0  0  0  0  0  0  0  0  0  0  0
  -25.1081  -28.6486   24.5120 C   0  0  0  0  0  0  0  0  0  0  0  0
  -23.0305  -27.3059   24.8976 C   0  0  0  0  0  0  0  0  0  0  0  0
  -22.8592  -29.6707   24.1222 C   0  0  0  0  0  0  0  0  0  0  0  0
  -21.2154  -25.8723   18.6686 C   0  0  0  0  0  0  0  0  0  0  0  0
  -27.9583  -22.5913   19.6515 C   0  0  0  0  0  0  0  0  0  1  0  0
  -25.1334  -20.5709   20.0974 C   0  0  0  0  0  0  0  0  0  0  0  0
  -26.3390  -18.2774   18.4613 C   0  0  0  0  0  0  0  0  0  0  0  0
  -24.0832  -20.6812   21.2006 C   0  0  0  0  0  0  0  0  0  0  0  0
  -26.5417  -20.2790   20.6104 C   0  0  0  0  0  0  0  0  0  0  0  0
  -27.6781  -18.7946   19.0062 C   0  0  1  0  0  0  0  0  0  0  0  0
  -23.6600  -27.8933   22.5123 C   0  0  1  0  0  0  0  0  0  0  0  0
  -20.5106  -26.4212   21.0012 C   0  0  2  0  0  0  0  0  0  0  0  0
  -26.4606  -17.1097   17.4587 C   0  0  0  0  0  0  0  0  0  0  0  0
  -23.6836  -28.3715   23.9916 C   0  0  0  0  0  0  0  0  0  0  0  0
  -23.6318  -13.5834   23.4695 N   0  0  0  0  0  0  0  0  0  0  0  0
  -24.2944  -14.5173   22.7660 N   0  0  0  0  0  0  0  0  0  0  0  0
  -25.4165  -28.4232   20.8517 N   0  0  0  0  0  0  0  0  0  0  0  0
  -24.0055  -18.1475   23.9268 N   0  0  0  0  0  0  0  0  0  0  0  0
  -25.2097  -14.9772   20.6303 N   0  0  0  0  0  0  0  0  0  0  0  0
  -23.4627  -10.8407   20.1465 N   0  0  0  0  0  0  0  0  0  0  0  0
  -27.7598  -31.1126   20.7714 N   0  0  0  0  0  0  0  0  0  0  0  0
  -22.3220  -27.6492   21.9845 N   0  0  0  0  0  0  0  0  0  0  0  0
  -23.9439  -19.4580   21.9590 N   0  0  0  0  0  0  0  0  0  0  0  0
  -27.5111  -20.1479   19.5297 N   0  0  0  0  0  0  0  0  0  0  0  0
  -20.3563  -25.5163   19.8272 N   0  3  0  0  0  0  0  0  0  0  0  0
  -24.6066  -12.5157   19.0765 O   0  0  0  0  0  0  0  0  0  0  0  0
  -27.8420  -28.9988   21.7449 O   0  0  0  0  0  0  0  0  0  0  0  0
  -27.5962  -16.9499   20.5648 O   0  0  0  0  0  0  0  0  0  0  0  0
  -23.8452  -30.0243   21.4872 O   0  0  0  0  0  0  0  0  0  0  0  0
  -29.0544  -21.1560   18.1178 O   0  0  0  0  0  0  0  0  0  0  0  0
  -22.6716  -25.4266   21.4234 O   0  0  0  0  0  0  0  0  0  0  0  0
  -24.5111  -20.4104   23.9660 O   0  0  0  0  0  0  0  0  0  0  0  0
  -20.8132   -7.9051   24.0704 O   0  0  0  0  0  0  0  0  0  0  0  0
  -28.7647  -23.5799   19.0121 O   0  0  0  0  0  0  0  0  0  1  0  0
  -23.0558   -3.1000   22.5582 F   0  0  0  0  0  0  0  0  0  0  0  0
  -21.5705   -6.0358   25.9612 F   0  0  0  0  0  0  0  0  0  0  0  0
  1  2  1  0  0  0  0
  1  5  2  0  0  0  0
  2  6  2  0  0  0  0
  3  8  2  0  0  0  0
  3 15  1  0  0  0  0
  4  9  1  0  0  0  0
  4 15  2  0  0  0  0
  5 17  1  0  0  0  0
  6 19  1  0  0  0  0
  7 10  2  0  0  0  0
  7 18  1  0  0  0  0
  8 21  1  0  0  0  0
  9 21  2  0  0  0  0
 10 22  1  0  0  0  0
 11 12  2  0  0  0  0
 11 23  1  0  0  0  0
 12 24  1  0  0  0  0
 13 20  1  0  0  0  0
 13 22  2  0  0  0  0
 14 24  2  0  0  0  0
 14 25  1  0  0  0  0
 15 26  1  0  0  0  0
 16 26  1  0  0  0  0
 16 27  2  0  0  0  0
 16 28  1  0  0  0  0
 17 19  2  0  0  0  0
 17 35  1  0  0  0  0
 18 20  2  0  0  0  0
 18 36  1  0  0  0  0
 19 44  1  0  0  0  0
 20 37  1  0  0  0  0
 21 83  1  0  0  0  0
 22 84  1  0  0  0  0
 23 25  2  0  0  0  0
 23 83  1  0  0  0  0
 24 85  1  0  0  0  0
 25 86  1  0  0  0  0
 26 65  2  0  0  0  0
 27 66  1  0  0  0  0
 27 69  1  0  0  0  0
 28 70  1  0  0  0  0
 28 76  2  0  0  0  0
 29 45  1  0  0  0  0
 29 71  1  0  0  0  0
 29 77  2  0  0  0  0
 30 47  1  0  0  0  0
 30 60  1  0  0  0  0
 30 78  2  0  0  0  0
 31 61  1  0  0  0  0
 31 67  1  0  0  0  0
 31 79  2  0  0  0  0
 32 55  1  0  0  0  0
 32 74  1  0  0  0  0
 32 80  2  0  0  0  0
 33 62  1  0  0  0  0
 33 72  1  0  0  0  0
 33 81  2  0  0  0  0
 34 68  1  0  0  0  0
 34 73  1  0  0  0  0
 34 82  2  0  0  0  0
 35 38  1  0  0  0  0
 36 45  1  0  0  0  0
 37 67  1  0  0  0  0
 38 40  1  0  0  0  0
 39 41  1  0  0  0  0
 39 42  1  0  0  0  0
 40 44  1  0  0  0  0
 41 46  1  0  0  0  0
 42 68  1  0  0  0  0
 43 46  1  0  0  0  0
 43 68  1  0  0  0  0
 44 71  1  0  0  0  0
 45 67  1  0  0  0  0
 46 66  1  0  0  0  0
 48 62  1  0  0  0  0
 49 63  1  0  0  0  0
 50 63  1  0  0  0  0
 51 64  1  0  0  0  0
 52 64  1  0  0  0  0
 53 64  1  0  0  0  0
 54 75  1  0  0  0  0
 55 84  1  0  0  0  0
 56 58  1  0  0  0  0
 56 59  1  0  0  0  0
 57 60  1  0  0  0  0
 57 63  1  0  0  0  0
 58 73  1  0  0  0  0
 59 74  1  0  0  0  0
 60 74  1  0  0  0  0
 61 64  1  0  0  0  0
 61 72  1  0  0  0  0
 62 75  1  0  0  0  0
 65 66  1  0  0  0  0
M  CHG  1  75   1
M  ISO  4  34 100  55 101  73 100  84 101
M  END
> <Batch ID>
0015

> <Smiles>
CNC(C)C(=O)NC(C(=O)N1Cc2cc([101O:1][101CH2:1]C(=O)N(CCC[100NH:0][100C:0](=O)N3CCCC(n4nc(-c5ccc(Oc6ccc(F)cc6F)cc5)c(C(N)=O)c4N)C3)C(CC(C)C)C(C)=O)ccc2CC1C(=O)NC1CCCc2ccccc21)C(C)(C)C

> <Shape>
0.205

> <Color>
0.078

> <Negative vol penalty>
0.000

$$$$

  -OEChem-04052315553D

 84 92  0     1  0  0  0  0  0999 V2000
  -28.5521  -36.4993   21.7384 C   0  0  0  0  0  0  0  0  0  0  0  0
  -28.8872  -35.1736   21.4825 C   0  0  0  0  0  0  0  0  0  0  0  0
  -22.7192  -10.5164   20.2343 C   0  0  0  0  0  0  0  0  0  0  0  0
  -24.2653   -9.9177   21.9916 C   0  0  0  0  0  0  0  0  0  0  0  0
  -27.4407  -36.7966   22.5261 C   0  0  0  0  0  0  0  0  0  0  0  0
  -28.1117  -34.1443   22.0150 C   0  0  0  0  0  0  0  0  0  0  0  0
  -26.8788  -28.7393   19.4126 C   0  0  0  0  0  0  0  0  0  0  0  0
  -29.7432  -19.2344   21.3950 C   0  0  0  0  0  0  0  0  0  0  0  0
  -29.7850  -20.5437   21.8739 C   0  0  0  0  0  0  0  0  0  0  0  0
  -22.2250   -9.2121   20.2248 C   0  0  0  0  0  0  0  0  0  0  0  0
  -23.7711   -8.6134   21.9821 C   0  0  0  0  0  0  0  0  0  0  0  0
  -27.4365  -27.4718   19.5736 C   0  0  0  0  0  0  0  0  0  0  0  0
  -21.0753   -6.9641   23.1793 C   0  0  0  0  0  0  0  0  0  0  0  0
  -20.8088   -6.3647   24.4103 C   0  0  0  0  0  0  0  0  0  0  0  0
  -25.6914  -26.9097   21.1414 C   0  0  0  0  0  0  0  0  0  0  0  0
  -22.4009   -4.6191   23.9050 C   0  0  0  0  0  0  0  0  0  0  0  0
  -23.7394  -10.8692   21.1177 C   0  0  0  0  0  0  0  0  0  0  0  0
  -23.7873  -13.2957   21.9034 C   0  0  0  0  0  0  0  0  0  0  0  0
  -26.6456  -35.7706   23.0606 C   0  0  0  0  0  0  0  0  0  0  0  0
  -25.7274  -29.1060   20.1242 C   0  0  0  0  0  0  0  0  0  0  0  0
  -26.9894  -34.4281   22.8117 C   0  0  0  0  0  0  0  0  0  0  0  0
  -25.1196  -28.1817   20.9857 C   0  0  0  0  0  0  0  0  0  0  0  0
  -28.8677  -18.4856   23.5186 C   0  0  0  0  0  0  0  0  0  0  0  0
  -28.9096  -19.7950   23.9975 C   0  0  0  0  0  0  0  0  0  0  0  0
  -29.2845  -18.2053   22.2173 C   0  0  0  0  0  0  0  0  0  0  0  0
  -29.3682  -20.8241   23.1751 C   0  0  0  0  0  0  0  0  0  0  0  0
  -22.7509   -8.2606   21.0986 C   0  0  0  0  0  0  0  0  0  0  0  0
  -26.8445  -26.5577   20.4403 C   0  0  0  0  0  0  0  0  0  0  0  0
  -22.0046   -6.3910   22.3112 C   0  0  0  0  0  0  0  0  0  0  0  0
  -21.4716   -5.1922   24.7731 C   0  0  0  0  0  0  0  0  0  0  0  0
  -22.6674   -5.2186   22.6740 C   0  0  0  0  0  0  0  0  0  0  0  0
  -24.2507  -12.2163   21.1277 C   0  0  0  0  0  0  0  0  0  0  0  0
  -24.5981  -14.3462   21.5491 C   0  0  0  0  0  0  0  0  0  0  0  0
  -22.7194  -13.3445   22.8590 C   0  0  0  0  0  0  0  0  0  0  0  0
  -25.0407  -31.3332   22.2856 C   0  0  0  0  0  0  0  0  0  0  0  0
  -22.0171  -30.2248   21.8961 C   0  0  0  0  0  0  0  0  0  0  0  0
  -19.9698  -27.6545   20.9746 C   0  0  0  0  0  0  0  0  0  0  0  0
  -29.6293  -16.4565   20.4371 C   0  0  0  0  0  0  0  0  0  0  0  0
  -25.4815  -36.1404   23.9453 C   0  0  0  0  0  0  0  0  0  0  0  0
  -25.1228  -30.4679   19.9191 C   0  0  0  0  0  0  0  0  0  0  0  0
  -23.8710  -28.5191   21.7574 C   0  0  0  0  0  0  0  0  0  0  0  0
  -24.4940  -34.9966   24.1623 C   0  0  0  0  0  0  0  0  0  0  0  0
  -27.9413  -14.7998   17.7757 C   0  0  0  0  0  0  0  0  0  0  0  0
  -25.2361  -33.7076   24.5006 C   0  0  0  0  0  0  0  0  0  0  0  0
  -26.7926  -14.0688   18.4743 C   0  0  0  0  0  0  0  0  0  0  0  0
  -29.2100  -14.8068   18.6267 C   0  0  0  0  0  0  0  0  0  0  0  0
  -27.8883  -14.5806   20.6934 C   0  0  0  0  0  0  0  0  0  0  0  0
  -26.1585  -33.2841   23.3511 C   0  0  1  0  0  0  0  0  0  0  0  0
  -24.2433  -30.9128   21.0835 C   0  0  1  0  0  0  0  0  0  0  0  0
  -26.5701  -14.6036   19.9026 C   0  0  2  0  0  0  0  0  0  0  0  0
  -28.3742  -17.3820   24.4014 C   0  0  0  0  0  0  0  0  0  0  0  0
  -28.4627  -20.0934   25.3946 C   0  0  0  0  0  0  0  0  0  0  0  0
  -17.5448  -27.0329   20.8006 C   0  0  0  0  0  0  0  0  0  0  0  0
  -21.8988  -29.8489   24.9217 C   0  0  0  0  0  0  0  0  0  0  0  0
  -19.8972  -28.3817   24.5912 C   0  0  0  0  0  0  0  0  0  0  0  0
  -19.8121  -30.7781   23.9036 C   0  0  0  0  0  0  0  0  0  0  0  0
  -30.6279  -22.6427   24.3003 C   0  0  0  0  0  0  0  0  0  0  0  0
  -20.1651  -27.2449   18.0501 C   0  0  0  0  0  0  0  0  0  0  0  0
  -28.3888  -23.7588   22.1225 C   0  0  0  0  0  0  0  0  0  0  0  0
  -28.3060  -23.0481   23.4680 C   0  0  0  0  0  0  0  0  0  0  0  0
  -27.2109  -24.6922   21.8692 C   0  0  0  0  0  0  0  0  0  1  0  0
  -21.1822  -29.1461   22.5429 C   0  0  1  0  0  0  0  0  0  0  0  0
  -18.7485  -27.6127   20.0741 C   0  0  2  0  0  0  0  0  0  0  0  0
  -20.7222  -29.5327   23.9769 C   0  0  0  0  0  0  0  0  0  0  0  0
  -25.2762  -12.5503   20.3398 N   0  0  0  0  0  0  0  0  0  0  0  0
  -25.4639  -13.8515   20.6186 N   0  0  0  0  0  0  0  0  0  0  0  0
  -23.3213  -29.8654   21.5277 N   0  0  0  0  0  0  0  0  0  0  0  0
  -28.9236  -15.3299   19.9643 N   0  0  0  0  0  0  0  0  0  0  0  0
  -24.6477  -15.6357   21.9457 N   0  0  0  0  0  0  0  0  0  0  0  0
  -21.9876  -12.1745   23.1033 N   0  0  0  0  0  0  0  0  0  0  0  0
  -29.2488  -16.8831   21.7090 N   0  0  0  0  0  0  0  0  0  0  0  0
  -25.3921  -32.6696   22.2883 N   0  0  0  0  0  0  0  0  0  0  0  0
  -20.0880  -28.8677   21.6191 N   0  0  0  0  0  0  0  0  0  0  0  0
  -29.4197  -22.1465   23.6387 N   0  0  3  0  0  0  0  0  0  0  0  0
  -19.0199  -26.7752   18.8716 N   0  3  0  0  0  0  0  0  0  0  0  0
  -22.4125  -14.3986   23.4657 O   0  0  0  0  0  0  0  0  0  0  0  0
  -25.3154  -30.5067   23.1477 O   0  0  0  0  0  0  0  0  0  0  0  0
  -21.5276  -31.3429   21.7175 O   0  0  0  0  0  0  0  0  0  0  0  0
  -20.7398  -26.7044   21.0972 O   0  0  0  0  0  0  0  0  0  0  0  0
  -30.4875  -17.0190   19.7523 O   0  0  0  0  0  0  0  0  0  0  0  0
  -22.2687   -6.9878   21.0898 O   0  0  0  0  0  0  0  0  0  0  0  0
  -27.3872  -25.3200   20.5999 O   0  0  0  0  0  0  0  0  0  1  0  0
  -21.2166   -4.6176   25.9559 F   0  0  0  0  0  0  0  0  0  0  0  0
  -23.5621   -4.6640   21.8447 F   0  0  0  0  0  0  0  0  0  0  0  0
  1  2  1  0  0  0  0
  1  5  2  0  0  0  0
  2  6  2  0  0  0  0
  3 10  2  0  0  0  0
  3 17  1  0  0  0  0
  4 11  1  0  0  0  0
  4 17  2  0  0  0  0
  5 19  1  0  0  0  0
  6 21  1  0  0  0  0
  7 12  2  0  0  0  0
  7 20  1  0  0  0  0
  8  9  2  0  0  0  0
  8 25  1  0  0  0  0
  9 26  1  0  0  0  0
 10 27  1  0  0  0  0
 11 27  2  0  0  0  0
 12 28  1  0  0  0  0
 13 14  2  0  0  0  0
 13 29  1  0  0  0  0
 14 30  1  0  0  0  0
 15 22  1  0  0  0  0
 15 28  2  0  0  0  0
 16 30  2  0  0  0  0
 16 31  1  0  0  0  0
 17 32  1  0  0  0  0
 18 32  1  0  0  0  0
 18 33  2  0  0  0  0
 18 34  1  0  0  0  0
 19 21  2  0  0  0  0
 19 39  1  0  0  0  0
 20 22  2  0  0  0  0
 20 40  1  0  0  0  0
 21 48  1  0  0  0  0
 22 41  1  0  0  0  0
 23 24  1  0  0  0  0
 23 25  2  0  0  0  0
 23 51  1  0  0  0  0
 24 26  2  0  0  0  0
 24 52  1  0  0  0  0
 25 71  1  0  0  0  0
 26 74  1  0  0  0  0
 27 81  1  0  0  0  0
 28 82  1  0  0  0  0
 29 31  2  0  0  0  0
 29 81  1  0  0  0  0
 30 83  1  0  0  0  0
 31 84  1  0  0  0  0
 32 65  2  0  0  0  0
 33 66  1  0  0  0  0
 33 69  1  0  0  0  0
 34 70  1  0  0  0  0
 34 76  2  0  0  0  0
 35 49  1  0  0  0  0
 35 72  1  0  0  0  0
 35 77  2  0  0  0  0
 36 62  1  0  0  0  0
 36 67  1  0  0  0  0
 36 78  2  0  0  0  0
 37 63  1  0  0  0  0
 37 73  1  0  0  0  0
 37 79  2  0  0  0  0
 38 68  1  0  0  0  0
 38 71  1  0  0  0  0
 38 80  2  0  0  0  0
 39 42  1  0  0  0  0
 40 49  1  0  0  0  0
 41 67  1  0  0  0  0
 42 44  1  0  0  0  0
 43 45  1  0  0  0  0
 43 46  1  0  0  0  0
 44 48  1  0  0  0  0
 45 50  1  0  0  0  0
 46 68  1  0  0  0  0
 47 50  1  0  0  0  0
 47 68  1  0  0  0  0
 48 72  1  0  0  0  0
 49 67  1  0  0  0  0
 50 66  1  0  0  0  0
 53 63  1  0  0  0  0
 54 64  1  0  0  0  0
 55 64  1  0  0  0  0
 56 64  1  0  0  0  0
 57 74  1  0  0  0  0
 58 75  1  0  0  0  0
 59 60  1  0  0  0  0
 59 61  1  0  0  0  0
 60 74  1  0  0  0  0
 61 82  1  0  0  0  0
 62 64  1  0  0  0  0
 62 73  1  0  0  0  0
 63 75  1  0  0  0  0
 65 66  1  0  0  0  0
M  CHG  1  75   1
M  ISO  4  38 100  61 101  71 100  82 101
M  END
> <Batch ID>
0015

> <Smiles>
CNC(C)C(=O)NC(C(=O)N1Cc2cc([101O:1][101CH2:1]CCN(C)c3ccc([100NH:0][100C:0](=O)N4CCCC(n5nc(-c6ccc(Oc7ccc(F)cc7F)cc6)c(C(N)=O)c5N)C4)c(C)c3C)ccc2CC1C(=O)NC1CCCc2ccccc21)C(C)(C)C

> <Shape>
0.326

> <Color>
0.110

> <Negative vol penalty>
0.000

$$$$

  -OEChem-04052315553D

 84 92  0     1  0  0  0  0  0999 V2000
  -26.7880  -33.7447   27.7920 C   0  0  0  0  0  0  0  0  0  0  0  0
  -27.3222  -32.8799   26.8422 C   0  0  0  0  0  0  0  0  0  0  0  0
  -26.4184  -12.4224   21.5071 C   0  0  0  0  0  0  0  0  0  0  0  0
  -26.1557  -13.1686   19.2243 C   0  0  0  0  0  0  0  0  0  0  0  0
  -25.4281  -33.6917   28.0947 C   0  0  0  0  0  0  0  0  0  0  0  0
  -26.4969  -31.9608   26.1953 C   0  0  0  0  0  0  0  0  0  0  0  0
  -26.9635  -30.0353   20.4004 C   0  0  0  0  0  0  0  0  0  0  0  0
  -25.1584  -11.8262   21.4572 C   0  0  0  0  0  0  0  0  0  0  0  0
  -24.8957  -12.5724   19.1744 C   0  0  0  0  0  0  0  0  0  0  0  0
  -27.5219  -28.8899   19.8347 C   0  0  0  0  0  0  0  0  0  0  0  0
  -23.7898   -8.9948   20.2150 C   0  0  0  0  0  0  0  0  0  0  0  0
  -23.6620   -7.7052   20.7308 C   0  0  0  0  0  0  0  0  0  0  0  0
  -28.5229  -21.3666   15.8229 C   0  0  0  0  0  0  0  0  0  0  0  0
  -25.3468  -27.8469   19.8147 C   0  0  0  0  0  0  0  0  0  0  0  0
  -29.1221  -22.1285   18.4388 C   0  0  0  0  0  0  0  0  0  0  0  0
  -22.0348   -8.5051   22.3276 C   0  0  0  0  0  0  0  0  0  0  0  0
  -26.9170  -13.0937   20.3906 C   0  0  0  0  0  0  0  0  0  0  0  0
  -28.9574  -20.4140   16.7446 C   0  0  0  0  0  0  0  0  0  0  0  0
  -29.4521  -13.1208   20.1068 C   0  0  0  0  0  0  0  0  0  0  0  0
  -24.5839  -32.7780   27.4442 C   0  0  0  0  0  0  0  0  0  0  0  0
  -25.5922  -30.0911   20.6881 C   0  0  0  0  0  0  0  0  0  0  0  0
  -25.1246  -31.8946   26.4905 C   0  0  0  0  0  0  0  0  0  0  0  0
  -24.7731  -28.9951   20.3817 C   0  0  0  0  0  0  0  0  0  0  0  0
  -29.2570  -20.7950   18.0525 C   0  0  0  0  0  0  0  0  0  0  0  0
  -28.6877  -23.0811   17.5171 C   0  0  0  0  0  0  0  0  0  0  0  0
  -24.3970  -11.9012   20.2909 C   0  0  0  0  0  0  0  0  0  0  0  0
  -26.7140  -27.7944   19.5444 C   0  0  0  0  0  0  0  0  0  0  0  0
  -23.0402  -10.0397   20.7555 C   0  0  0  0  0  0  0  0  0  0  0  0
  -22.7845   -7.4603   21.7871 C   0  0  0  0  0  0  0  0  0  0  0  0
  -28.3881  -22.7001   16.2091 C   0  0  0  0  0  0  0  0  0  0  0  0
  -22.1627   -9.7948   21.8118 C   0  0  0  0  0  0  0  0  0  0  0  0
  -28.2183  -13.7103   20.4417 C   0  0  0  0  0  0  0  0  0  0  0  0
  -30.3768  -14.1129   20.3238 C   0  0  0  0  0  0  0  0  0  0  0  0
  -29.0888  -19.0296   16.3080 C   0  0  0  0  0  0  0  0  0  0  0  0
  -29.7368  -11.7950   19.6411 C   0  0  0  0  0  0  0  0  0  0  0  0
  -23.8680  -30.4381   23.3358 C   0  0  0  0  0  0  0  0  0  0  0  0
  -21.3940  -30.5669   21.2417 C   0  0  0  0  0  0  0  0  0  0  0  0
  -20.1618  -29.7701   18.1605 C   0  0  0  0  0  0  0  0  0  0  0  0
  -30.0362  -20.0785   20.3385 C   0  0  0  0  0  0  0  0  0  0  0  0
  -23.1292  -32.7257   27.8390 C   0  0  0  0  0  0  0  0  0  0  0  0
  -25.0007  -31.3440   21.2737 C   0  0  0  0  0  0  0  0  0  0  0  0
  -23.2916  -29.0121   20.6524 C   0  0  0  0  0  0  0  0  0  0  0  0
  -22.2528  -31.9777   26.8376 C   0  0  0  0  0  0  0  0  0  0  0  0
  -31.1354  -18.0018   23.0136 C   0  0  0  0  0  0  0  0  0  0  0  0
  -22.9071  -30.6597   26.4357 C   0  0  0  0  0  0  0  0  0  0  0  0
  -30.6296  -16.6109   22.6242 C   0  0  0  0  0  0  0  0  0  0  0  0
  -30.1457  -19.0963   22.6185 C   0  0  0  0  0  0  0  0  0  0  0  0
  -29.2229  -17.6866   20.8212 C   0  0  0  0  0  0  0  0  0  0  0  0
  -24.2571  -30.9006   25.7494 C   0  0  1  0  0  0  0  0  0  0  0  0
  -23.6814  -31.0992   21.9994 C   0  0  1  0  0  0  0  0  0  0  0  0
  -30.2154  -16.5568   21.1406 C   0  0  2  0  0  0  0  0  0  0  0  0
  -18.0953  -29.9759   16.7519 C   0  0  0  0  0  0  0  0  0  0  0  0
  -20.0735  -28.3411   22.8580 C   0  0  0  0  0  0  0  0  0  0  0  0
  -18.5349  -27.9442   20.9233 C   0  0  0  0  0  0  0  0  0  0  0  0
  -18.5157  -30.1442   22.0989 C   0  0  0  0  0  0  0  0  0  0  0  0
  -21.5843  -31.3452   16.0979 C   0  0  0  0  0  0  0  0  0  0  0  0
  -28.8456  -24.8842   19.2345 C   0  0  0  0  0  0  0  0  0  0  0  0
  -28.6153  -26.3839   19.3174 C   0  0  0  0  0  0  0  0  0  1  0  0
  -20.4724  -29.5505   20.6120 C   0  0  1  0  0  0  0  0  0  0  0  0
  -19.4309  -30.6018   17.1221 C   0  0  2  0  0  0  0  0  0  0  0  0
  -19.4273  -28.9937   21.6196 C   0  0  0  0  0  0  0  0  0  0  0  0
  -28.3444  -14.9785   20.8412 N   0  0  0  0  0  0  0  0  0  0  0  0
  -29.6684  -15.1941   20.7589 N   0  0  0  0  0  0  0  0  0  0  0  0
  -22.7615  -30.2576   21.2315 N   0  0  0  0  0  0  0  0  0  0  0  0
  -29.8026  -18.9851   21.1991 N   0  0  0  0  0  0  0  0  0  0  0  0
  -31.7187  -14.1571   20.1831 N   0  0  0  0  0  0  0  0  0  0  0  0
  -27.9791  -18.2030   16.4438 N   0  0  0  0  0  0  0  0  0  0  0  0
  -28.6694  -10.9023   19.4730 N   0  0  0  0  0  0  0  0  0  0  0  0
  -29.7011  -19.8448   19.0052 N   0  0  0  0  0  0  0  0  0  0  0  0
  -28.5558  -24.4049   17.9025 N   0  0  0  0  0  0  0  0  0  0  0  0
  -24.0593  -31.3233   24.3795 N   0  0  0  0  0  0  0  0  0  0  0  0
  -19.8885  -30.1983   19.4424 N   0  0  0  0  0  0  0  0  0  0  0  0
  -20.2520  -30.7235   15.8844 N   0  3  0  0  0  0  0  0  0  0  0  0
  -30.1579  -18.5974   15.8469 O   0  0  0  0  0  0  0  0  0  0  0  0
  -30.9049  -11.4080   19.3975 O   0  0  0  0  0  0  0  0  0  0  0  0
  -23.8390  -29.2156   23.4144 O   0  0  0  0  0  0  0  0  0  0  0  0
  -20.9188  -31.6006   21.7185 O   0  0  0  0  0  0  0  0  0  0  0  0
  -20.8984  -28.8319   17.8644 O   0  0  0  0  0  0  0  0  0  0  0  0
  -30.5249  -21.1344   20.7488 O   0  0  0  0  0  0  0  0  0  0  0  0
  -23.1676  -11.3193   20.2418 O   0  0  0  0  0  0  0  0  0  0  0  0
  -27.2565  -26.6749   18.9928 O   0  0  0  0  0  0  0  0  0  1  0  0
  -22.6608   -6.2215   22.2813 F   0  0  0  0  0  0  0  0  0  0  0  0
  -27.9720  -23.6081   15.3148 F   0  0  0  0  0  0  0  0  0  0  0  0
  -21.4389  -10.7942   22.3344 F   0  0  0  0  0  0  0  0  0  0  0  0
  1  2  1  0  0  0  0
  1  5  2  0  0  0  0
  2  6  2  0  0  0  0
  3  8  2  0  0  0  0
  3 17  1  0  0  0  0
  4  9  1  0  0  0  0
  4 17  2  0  0  0  0
  5 20  1  0  0  0  0
  6 22  1  0  0  0  0
  7 10  2  0  0  0  0
  7 21  1  0  0  0  0
  8 26  1  0  0  0  0
  9 26  2  0  0  0  0
 10 27  1  0  0  0  0
 11 12  2  0  0  0  0
 11 28  1  0  0  0  0
 12 29  1  0  0  0  0
 13 18  2  0  0  0  0
 13 30  1  0  0  0  0
 14 23  1  0  0  0  0
 14 27  2  0  0  0  0
 15 24  2  0  0  0  0
 15 25  1  0  0  0  0
 16 29  2  0  0  0  0
 16 31  1  0  0  0  0
 17 32  1  0  0  0  0
 18 24  1  0  0  0  0
 18 34  1  0  0  0  0
 19 32  1  0  0  0  0
 19 33  2  0  0  0  0
 19 35  1  0  0  0  0
 20 22  2  0  0  0  0
 20 40  1  0  0  0  0
 21 23  2  0  0  0  0
 21 41  1  0  0  0  0
 22 49  1  0  0  0  0
 23 42  1  0  0  0  0
 24 69  1  0  0  0  0
 25 30  2  0  0  0  0
 25 70  1  0  0  0  0
 26 80  1  0  0  0  0
 27 81  1  0  0  0  0
 28 31  2  0  0  0  0
 28 80  1  0  0  0  0
 29 82  1  0  0  0  0
 30 83  1  0  0  0  0
 31 84  1  0  0  0  0
 32 62  2  0  0  0  0
 33 63  1  0  0  0  0
 33 66  1  0  0  0  0
 34 67  1  0  0  0  0
 34 74  2  0  0  0  0
 35 68  1  0  0  0  0
 35 75  2  0  0  0  0
 36 50  1  0  0  0  0
 36 71  1  0  0  0  0
 36 76  2  0  0  0  0
 37 59  1  0  0  0  0
 37 64  1  0  0  0  0
 37 77  2  0  0  0  0
 38 60  1  0  0  0  0
 38 72  1  0  0  0  0
 38 78  2  0  0  0  0
 39 65  1  0  0  0  0
 39 69  1  0  0  0  0
 39 79  2  0  0  0  0
 40 43  1  0  0  0  0
 41 50  1  0  0  0  0
 42 64  1  0  0  0  0
 43 45  1  0  0  0  0
 44 46  1  0  0  0  0
 44 47  1  0  0  0  0
 45 49  1  0  0  0  0
 46 51  1  0  0  0  0
 47 65  1  0  0  0  0
 48 51  1  0  0  0  0
 48 65  1  0  0  0  0
 49 71  1  0  0  0  0
 50 64  1  0  0  0  0
 51 63  1  0  0  0  0
 52 60  1  0  0  0  0
 53 61  1  0  0  0  0
 54 61  1  0  0  0  0
 55 61  1  0  0  0  0
 56 73  1  0  0  0  0
 57 58  1  0  0  0  0
 57 70  1  0  0  0  0
 58 81  1  0  0  0  0
 59 61  1  0  0  0  0
 59 72  1  0  0  0  0
 60 73  1  0  0  0  0
 62 63  1  0  0  0  0
M  CHG  1  73   1
M  ISO  4  39 100  58 101  69 100  81 101
M  END
> <Batch ID>
0015

> <Smiles>
CNC(C)C(=O)NC(C(=O)N1Cc2cc([101O:1][101CH2:1]CNc3cc([100NH:0][100C:0](=O)N4CCCC(n5nc(-c6ccc(Oc7ccc(F)cc7F)cc6)c(C(N)=O)c5N)C4)c(C(N)=O)cc3F)ccc2CC1C(=O)NC1CCCc2ccccc21)C(C)(C)C

> <Shape>
0.309

> <Color>
0.087

> <Negative vol penalty>
0.000

$$$$
