
  -OEChem-04052315583D

 91 99  0     1  0  0  0  0  0999 V2000
  -25.7842  -30.4922   30.2779 C   0  0  0  0  0  0  0  0  0  0  0  0
  -26.4482  -29.6690   29.3741 C   0  0  0  0  0  0  0  0  0  0  0  0
  -23.5402   -9.6066   20.4689 C   0  0  0  0  0  0  0  0  0  0  0  0
  -24.0707  -10.1846   22.7540 C   0  0  0  0  0  0  0  0  0  0  0  0
  -24.8751  -31.4428   29.8154 C   0  0  0  0  0  0  0  0  0  0  0  0
  -26.2027  -29.7952   28.0073 C   0  0  0  0  0  0  0  0  0  0  0  0
  -30.2291  -29.0266   23.4573 C   0  0  0  0  0  0  0  0  0  0  0  0
  -22.9434   -8.4243   20.9065 C   0  0  0  0  0  0  0  0  0  0  0  0
  -23.4739   -9.0023   23.1916 C   0  0  0  0  0  0  0  0  0  0  0  0
  -30.4928  -27.9515   22.6098 C   0  0  0  0  0  0  0  0  0  0  0  0
  -20.3454   -7.8474   23.7389 C   0  0  0  0  0  0  0  0  0  0  0  0
  -19.4937   -7.9225   24.8409 C   0  0  0  0  0  0  0  0  0  0  0  0
  -29.0605  -28.9295   20.9332 C   0  0  0  0  0  0  0  0  0  0  0  0
  -30.3601  -18.5456   19.9846 C   0  0  0  0  0  0  0  0  0  0  0  0
  -20.9168   -6.3857   26.0453 C   0  0  0  0  0  0  0  0  0  0  0  0
  -24.1039  -10.4868   21.3926 C   0  0  0  0  0  0  0  0  0  0  0  0
  -24.1014  -12.9602   20.7684 C   0  0  0  0  0  0  0  0  0  0  0  0
  -24.6255  -31.5873   28.4416 C   0  0  0  0  0  0  0  0  0  0  0  0
  -29.3690  -30.0576   23.0526 C   0  0  0  0  0  0  0  0  0  0  0  0
  -25.2884  -30.7478   27.5261 C   0  0  0  0  0  0  0  0  0  0  0  0
  -28.7895  -30.0179   21.7764 C   0  0  0  0  0  0  0  0  0  0  0  0
  -30.3526  -19.9100   19.6948 C   0  0  0  0  0  0  0  0  0  0  0  0
  -28.5498  -20.2346   21.2702 C   0  0  0  0  0  0  0  0  0  0  0  0
  -29.4624  -18.0257   20.9171 C   0  0  0  0  0  0  0  0  0  0  0  0
  -29.4474  -20.7545   20.3376 C   0  0  0  0  0  0  0  0  0  0  0  0
  -28.5573  -18.8702   21.5599 C   0  0  0  0  0  0  0  0  0  0  0  0
  -22.9102   -8.1221   22.2679 C   0  0  0  0  0  0  0  0  0  0  0  0
  -29.9062  -27.9013   21.3486 C   0  0  0  0  0  0  0  0  0  0  0  0
  -21.4828   -7.0414   23.7900 C   0  0  0  0  0  0  0  0  0  0  0  0
  -19.7794   -7.1917   25.9942 C   0  0  0  0  0  0  0  0  0  0  0  0
  -21.7684   -6.3106   24.9432 C   0  0  0  0  0  0  0  0  0  0  0  0
  -24.7210  -11.7080   20.9411 C   0  0  0  0  0  0  0  0  0  0  0  0
  -25.1083  -13.7836   20.3273 C   0  0  0  0  0  0  0  0  0  0  0  0
  -22.7376  -13.3448   20.9873 C   0  0  0  0  0  0  0  0  0  0  0  0
  -26.5984  -31.2091   24.1021 C   0  0  0  0  0  0  0  0  0  0  0  0
  -27.1124  -33.4551   21.8187 C   0  0  0  0  0  0  0  0  0  0  0  0
  -28.6343  -34.3097   18.8861 C   0  0  0  0  0  0  0  0  0  0  0  0
  -30.3348  -15.6798   20.6305 C   0  0  0  0  0  0  0  0  0  0  0  0
  -23.5990  -32.5969   27.9925 C   0  0  0  0  0  0  0  0  0  0  0  0
  -29.1159  -31.2238   23.9683 C   0  0  0  0  0  0  0  0  0  0  0  0
  -27.8749  -31.1097   21.2865 C   0  0  0  0  0  0  0  0  0  0  0  0
  -23.6748  -32.9212   26.5027 C   0  0  0  0  0  0  0  0  0  0  0  0
  -29.7963  -12.7023   18.7538 C   0  0  0  0  0  0  0  0  0  0  0  0
  -23.7880  -31.6400   25.6826 C   0  0  0  0  0  0  0  0  0  0  0  0
  -28.3769  -12.2812   19.1414 C   0  0  0  0  0  0  0  0  0  0  0  0
  -30.5525  -13.3034   19.9372 C   0  0  0  0  0  0  0  0  0  0  0  0
  -28.4411  -13.9812   21.0103 C   0  0  0  0  0  0  0  0  0  0  0  0
  -25.0674  -30.8712   26.0341 C   0  0  1  0  0  0  0  0  0  0  0  0
  -27.8185  -31.9614   23.6517 C   0  0  1  0  0  0  0  0  0  0  0  0
  -27.6179  -13.4295   19.8348 C   0  0  2  0  0  0  0  0  0  0  0  0
  -31.3264  -20.4380   18.6918 C   0  0  0  0  0  0  0  0  0  0  0  0
  -28.8343  -36.2008   17.2486 C   0  0  0  0  0  0  0  0  0  0  0  0
  -29.4522  -18.0729   24.0695 C   0  0  0  0  0  0  0  0  0  0  0  0
  -27.1769  -17.0768   24.4899 C   0  0  0  0  0  0  0  0  0  0  0  0
  -31.7113  -22.6920   20.6491 C   0  0  0  0  0  0  0  0  0  0  0  0
  -27.1963  -22.3477   21.0498 C   0  0  0  0  0  0  0  0  0  0  0  0
  -28.1845  -21.7139   23.2764 C   0  0  0  0  0  0  0  0  0  0  0  0
  -26.2254  -20.4791   22.3716 C   0  0  0  0  0  0  0  0  0  0  0  0
  -24.3393  -32.8001   20.7273 C   0  0  0  0  0  0  0  0  0  0  0  0
  -24.9696  -33.9808   18.6114 C   0  0  0  0  0  0  0  0  0  0  0  0
  -24.8967  -35.2378   20.7648 C   0  0  0  0  0  0  0  0  0  0  0  0
  -31.5526  -34.5340   19.3244 C   0  0  0  0  0  0  0  0  0  0  0  0
  -29.9986  -24.4807   20.1882 C   0  0  0  0  0  0  0  0  0  0  0  0
  -30.4420  -25.5945   21.1315 C   0  0  0  0  0  0  0  0  0  1  0  0
  -26.7692  -33.5893   20.3548 C   0  0  1  0  0  0  0  0  0  0  0  0
  -29.4267  -35.5405   18.4838 C   0  0  2  0  0  0  0  0  0  0  0  0
  -27.9500  -18.2463   23.8982 C   0  0  0  0  0  0  0  0  0  0  0  0
  -30.2409  -23.0815   20.7630 C   0  0  1  0  0  0  0  0  0  0  0  0
  -27.5784  -21.1424   21.9599 C   0  0  0  0  0  0  0  0  0  0  0  0
  -25.2593  -33.8803   20.1243 C   0  0  0  0  0  0  0  0  0  0  0  0
  -26.0208  -11.7292   20.6345 N   0  0  0  0  0  0  0  0  0  0  0  0
  -26.2262  -13.0048   20.2646 N   0  0  0  0  0  0  0  0  0  0  0  0
  -27.6533  -32.2256   22.2209 N   0  0  0  0  0  0  0  0  0  0  0  0
  -29.7751  -14.3876   20.5413 N   0  0  0  0  0  0  0  0  0  0  0  0
  -25.1377  -15.0906   19.9906 N   0  0  0  0  0  0  0  0  0  0  0  0
  -21.8344  -12.3742   21.4418 N   0  0  0  0  0  0  0  0  0  0  0  0
  -29.4905  -16.6362   21.1935 N   0  0  0  0  0  0  0  0  0  0  0  0
  -29.4421  -22.1074   20.0489 N   0  0  0  0  0  0  0  0  0  0  0  0
  -27.6464  -18.3444   22.5067 N   0  0  0  0  0  0  0  0  0  0  0  0
  -26.2154  -31.4841   25.4010 N   0  0  0  0  0  0  0  0  0  0  0  0
  -27.6631  -34.6097   19.8179 N   0  0  0  0  0  0  0  0  0  0  0  0
  -30.8402  -35.1725   18.1878 N   0  3  0  0  0  0  0  0  0  0  0  0
  -22.3283  -14.5105   20.7702 O   0  0  0  0  0  0  0  0  0  0  0  0
  -26.0444  -30.4373   23.3279 O   0  0  0  0  0  0  0  0  0  0  0  0
  -26.9146  -34.4084   22.5761 O   0  0  0  0  0  0  0  0  0  0  0  0
  -28.8523  -33.1946   18.4177 O   0  0  0  0  0  0  0  0  0  0  0  0
  -31.4687  -15.9262   20.2115 O   0  0  0  0  0  0  0  0  0  0  0  0
  -22.3278   -6.9686   22.6953 O   0  0  0  0  0  0  0  0  0  0  0  0
  -30.1614  -26.8527   20.5197 O   0  0  0  0  0  0  0  0  0  1  0  0
  -18.9623   -7.2650   27.0530 F   0  0  0  0  0  0  0  0  0  0  0  0
  -22.8602   -5.5355   24.9986 F   0  0  0  0  0  0  0  0  0  0  0  0
  1  2  1  0  0  0  0
  1  5  2  0  0  0  0
  2  6  2  0  0  0  0
  3  8  2  0  0  0  0
  3 16  1  0  0  0  0
  4  9  1  0  0  0  0
  4 16  2  0  0  0  0
  5 18  1  0  0  0  0
  6 20  1  0  0  0  0
  7 10  2  0  0  0  0
  7 19  1  0  0  0  0
  8 27  1  0  0  0  0
  9 27  2  0  0  0  0
 10 28  1  0  0  0  0
 11 12  2  0  0  0  0
 11 29  1  0  0  0  0
 12 30  1  0  0  0  0
 13 21  1  0  0  0  0
 13 28  2  0  0  0  0
 14 22  2  0  0  0  0
 14 24  1  0  0  0  0
 15 30  2  0  0  0  0
 15 31  1  0  0  0  0
 16 32  1  0  0  0  0
 17 32  1  0  0  0  0
 17 33  2  0  0  0  0
 17 34  1  0  0  0  0
 18 20  2  0  0  0  0
 18 39  1  0  0  0  0
 19 21  2  0  0  0  0
 19 40  1  0  0  0  0
 20 48  1  0  0  0  0
 21 41  1  0  0  0  0
 22 25  1  0  0  0  0
 22 51  1  0  0  0  0
 23 25  2  0  0  0  0
 23 26  1  0  0  0  0
 23 69  1  0  0  0  0
 24 26  2  0  0  0  0
 24 77  1  0  0  0  0
 25 78  1  0  0  0  0
 26 79  1  0  0  0  0
 27 88  1  0  0  0  0
 28 89  1  0  0  0  0
 29 31  2  0  0  0  0
 29 88  1  0  0  0  0
 30 90  1  0  0  0  0
 31 91  1  0  0  0  0
 32 71  2  0  0  0  0
 33 72  1  0  0  0  0
 33 75  1  0  0  0  0
 34 76  1  0  0  0  0
 34 83  2  0  0  0  0
 35 49  1  0  0  0  0
 35 80  1  0  0  0  0
 35 84  2  0  0  0  0
 36 65  1  0  0  0  0
 36 73  1  0  0  0  0
 36 85  2  0  0  0  0
 37 66  1  0  0  0  0
 37 81  1  0  0  0  0
 37 86  2  0  0  0  0
 38 74  1  0  0  0  0
 38 77  1  0  0  0  0
 38 87  2  0  0  0  0
 39 42  1  0  0  0  0
 40 49  1  0  0  0  0
 41 73  1  0  0  0  0
 42 44  1  0  0  0  0
 43 45  1  0  0  0  0
 43 46  1  0  0  0  0
 44 48  1  0  0  0  0
 45 50  1  0  0  0  0
 46 74  1  0  0  0  0
 47 50  1  0  0  0  0
 47 74  1  0  0  0  0
 48 80  1  0  0  0  0
 49 73  1  0  0  0  0
 50 72  1  0  0  0  0
 52 66  1  0  0  0  0
 53 67  1  0  0  0  0
 54 67  1  0  0  0  0
 55 68  1  0  0  0  0
 56 69  1  0  0  0  0
 57 69  1  0  0  0  0
 58 69  1  0  0  0  0
 59 70  1  0  0  0  0
 60 70  1  0  0  0  0
 61 70  1  0  0  0  0
 62 82  1  0  0  0  0
 63 64  1  0  0  0  0
 63 68  1  0  0  0  0
 64 89  1  0  0  0  0
 65 70  1  0  0  0  0
 65 81  1  0  0  0  0
 66 82  1  0  0  0  0
 67 79  1  0  0  0  0
 68 78  1  0  0  0  0
 71 72  1  0  0  0  0
M  CHG  1  82   1
M  ISO  4  38 100  64 101  77 100  89 101
M  END
> <Batch ID>
0016

> <Smiles>
CNC(C)C(=O)NC(C(=O)N1Cc2cc([101O:1][101CH2:1]CC(C)Nc3c(C)cc([100NH:0][100C:0](=O)N4CCCC(n5nc(-c6ccc(Oc7ccc(F)cc7F)cc6)c(C(N)=O)c5N)C4)c(NC(C)C)c3C(C)(C)C)ccc2CC1C(=O)NC1CCCc2ccccc21)C(C)(C)C

> <Shape>
0.293

> <Color>
0.146

> <Negative vol penalty>
0.000

$$$$

  -OEChem-04052315583D

 85 93  0     1  0  0  0  0  0999 V2000
  -32.8990  -24.6464   17.7693 C   0  0  0  0  0  0  0  0  0  0  0  0
  -31.8011  -24.2269   18.5136 C   0  0  0  0  0  0  0  0  0  0  0  0
  -23.7420   -9.6439   19.8417 C   0  0  0  0  0  0  0  0  0  0  0  0
  -23.9136   -9.8844   22.2396 C   0  0  0  0  0  0  0  0  0  0  0  0
  -33.4955  -25.8767   18.0418 C   0  0  0  0  0  0  0  0  0  0  0  0
  -31.2997  -25.0371   19.5318 C   0  0  0  0  0  0  0  0  0  0  0  0
  -26.2462  -25.3542   19.4517 C   0  0  0  0  0  0  0  0  0  0  0  0
  -23.1773   -8.3795   20.0089 C   0  0  0  0  0  0  0  0  0  0  0  0
  -23.3488   -8.6200   22.4068 C   0  0  0  0  0  0  0  0  0  0  0  0
  -25.5322  -24.2744   19.9693 C   0  0  0  0  0  0  0  0  0  0  0  0
  -20.2656   -7.2393   22.3168 C   0  0  0  0  0  0  0  0  0  0  0  0
  -19.2685   -7.0991   23.2821 C   0  0  0  0  0  0  0  0  0  0  0  0
  -25.2063  -25.4854   22.0300 C   0  0  0  0  0  0  0  0  0  0  0  0
  -29.9138  -18.8666   21.6738 C   0  0  0  0  0  0  0  0  0  0  0  0
  -20.6204   -5.4663   24.4412 C   0  0  0  0  0  0  0  0  0  0  0  0
  -24.1103  -10.3963   20.9571 C   0  0  0  0  0  0  0  0  0  0  0  0
  -24.0161  -12.9336   20.7102 C   0  0  0  0  0  0  0  0  0  0  0  0
  -32.9952  -26.7068   19.0574 C   0  0  0  0  0  0  0  0  0  0  0  0
  -26.4553  -26.5054   20.2246 C   0  0  0  0  0  0  0  0  0  0  0  0
  -31.8909  -26.2792   19.8190 C   0  0  0  0  0  0  0  0  0  0  0  0
  -25.9211  -26.5795   21.5189 C   0  0  0  0  0  0  0  0  0  0  0  0
  -29.8594  -20.2574   21.5829 C   0  0  0  0  0  0  0  0  0  0  0  0
  -27.8393  -20.2650   22.9082 C   0  0  0  0  0  0  0  0  0  0  0  0
  -28.9309  -18.1749   22.3818 C   0  0  0  0  0  0  0  0  0  0  0  0
  -22.9806   -7.8676   21.2914 C   0  0  0  0  0  0  0  0  0  0  0  0
  -25.0146  -24.3387   21.2596 C   0  0  0  0  0  0  0  0  0  0  0  0
  -21.4400   -6.4930   22.4137 C   0  0  0  0  0  0  0  0  0  0  0  0
  -19.4459   -6.2126   24.3443 C   0  0  0  0  0  0  0  0  0  0  0  0
  -21.6174   -5.6065   23.4759 C   0  0  0  0  0  0  0  0  0  0  0  0
  -28.8221  -20.9566   22.2001 C   0  0  0  0  0  0  0  0  0  0  0  0
  -27.8937  -18.8741   22.9991 C   0  0  0  0  0  0  0  0  0  0  0  0
  -24.6943  -11.7023   20.7850 C   0  0  0  0  0  0  0  0  0  0  0  0
  -25.0122  -13.8649   20.5464 C   0  0  0  0  0  0  0  0  0  0  0  0
  -22.6112  -13.2108   20.7825 C   0  0  0  0  0  0  0  0  0  0  0  0
  -29.0141  -28.0071   21.3654 C   0  0  0  0  0  0  0  0  0  0  0  0
  -26.8246  -30.2156   22.2877 C   0  0  0  0  0  0  0  0  0  0  0  0
  -23.5846  -30.9221   23.0938 C   0  0  0  0  0  0  0  0  0  0  0  0
  -29.9996  -15.9489   21.8829 C   0  0  0  0  0  0  0  0  0  0  0  0
  -33.7026  -28.0070   19.3465 C   0  0  0  0  0  0  0  0  0  0  0  0
  -27.2048  -27.6722   19.6420 C   0  0  0  0  0  0  0  0  0  0  0  0
  -26.1004  -27.8006   22.3821 C   0  0  0  0  0  0  0  0  0  0  0  0
  -32.8788  -28.9733   20.1938 C   0  0  0  0  0  0  0  0  0  0  0  0
  -29.9360  -13.2772   19.5302 C   0  0  0  0  0  0  0  0  0  0  0  0
  -32.2583  -28.2457   21.3822 C   0  0  0  0  0  0  0  0  0  0  0  0
  -28.5109  -12.7306   19.6407 C   0  0  0  0  0  0  0  0  0  0  0  0
  -30.4791  -13.7235   20.8865 C   0  0  0  0  0  0  0  0  0  0  0  0
  -28.1981  -14.1195   21.7288 C   0  0  0  0  0  0  0  0  0  0  0  0
  -31.3028  -27.1410   20.9151 C   0  0  1  0  0  0  0  0  0  0  0  0
  -27.7980  -28.5921   20.7046 C   0  0  1  0  0  0  0  0  0  0  0  0
  -27.5844  -13.7175   20.3778 C   0  0  2  0  0  0  0  0  0  0  0  0
  -30.9344  -20.9559   20.8137 C   0  0  0  0  0  0  0  0  0  0  0  0
  -22.1071  -32.8070   23.8432 C   0  0  0  0  0  0  0  0  0  0  0  0
  -23.0016  -20.9743   23.0246 C   0  0  0  0  0  0  0  0  0  0  0  0
  -27.9634  -29.9834   25.1088 C   0  0  0  0  0  0  0  0  0  0  0  0
  -25.8998  -31.1170   25.9601 C   0  0  0  0  0  0  0  0  0  0  0  0
  -27.4228  -32.3172   24.3909 C   0  0  0  0  0  0  0  0  0  0  0  0
  -21.9040  -30.7240   20.6658 C   0  0  0  0  0  0  0  0  0  0  0  0
  -26.7240  -21.0178   23.5718 C   0  0  0  0  0  0  0  0  0  0  0  0
  -24.3775  -23.0881   23.1795 C   0  0  0  0  0  0  0  0  0  1  0  0
  -25.9793  -30.4334   23.5193 C   0  0  1  0  0  0  0  0  0  0  0  0
  -22.6570  -32.0393   22.6512 C   0  0  2  0  0  0  0  0  0  0  0  0
  -24.2964  -21.6028   23.5136 C   0  0  2  0  0  0  0  0  0  0  0  0
  -26.8144  -30.9389   24.7295 C   0  0  0  0  0  0  0  0  0  0  0  0
  -26.0189  -11.8358   20.6773 N   0  0  0  0  0  0  0  0  0  0  0  0
  -26.1810  -13.1621   20.5331 N   0  0  0  0  0  0  0  0  0  0  0  0
  -26.8459  -28.9128   21.7699 N   0  0  0  0  0  0  0  0  0  0  0  0
  -29.5511  -14.6602   21.5240 N   0  0  0  0  0  0  0  0  0  0  0  0
  -24.9937  -15.2082   20.4137 N   0  0  0  0  0  0  0  0  0  0  0  0
  -21.7262  -12.1374   20.9527 N   0  0  0  0  0  0  0  0  0  0  0  0
  -29.0203  -16.7625   22.4517 N   0  0  0  0  0  0  0  0  0  0  0  0
  -30.0416  -27.7099   20.4905 N   0  0  0  0  0  0  0  0  0  0  0  0
  -24.9009  -31.3316   23.1207 N   0  0  0  0  0  0  0  0  0  0  0  0
  -21.5092  -31.4844   21.8794 N   0  3  0  0  0  0  0  0  0  0  0  0
  -25.4332  -20.9048   22.8462 N   0  3  0  0  0  0  0  0  0  0  0  0
  -22.1530  -14.3743   20.6821 O   0  0  0  0  0  0  0  0  0  0  0  0
  -29.0203  -27.8392   22.5792 O   0  0  0  0  0  0  0  0  0  0  0  0
  -27.4375  -31.1679   21.7987 O   0  0  0  0  0  0  0  0  0  0  0  0
  -23.1812  -29.7995   23.3900 O   0  0  0  0  0  0  0  0  0  0  0  0
  -31.1595  -16.3138   21.6744 O   0  0  0  0  0  0  0  0  0  0  0  0
  -22.4293   -6.6339   21.4550 O   0  0  0  0  0  0  0  0  0  0  0  0
  -24.3178  -23.2859   21.7675 O   0  0  0  0  0  0  0  0  0  1  0  0
  -18.4890   -6.0792   25.2720 F   0  0  0  0  0  0  0  0  0  0  0  0
  -22.7441   -4.8877   23.5749 F   0  0  0  0  0  0  0  0  0  0  0  0
  -28.7613  -22.6846   22.0828 Cl  0  0  0  0  0  0  0  0  0  0  0  0
  -26.6718  -18.0128   23.8795 Cl  0  0  0  0  0  0  0  0  0  0  0  0
  1  2  1  0  0  0  0
  1  5  2  0  0  0  0
  2  6  2  0  0  0  0
  3  8  2  0  0  0  0
  3 16  1  0  0  0  0
  4  9  1  0  0  0  0
  4 16  2  0  0  0  0
  5 18  1  0  0  0  0
  6 20  1  0  0  0  0
  7 10  2  0  0  0  0
  7 19  1  0  0  0  0
  8 25  1  0  0  0  0
  9 25  2  0  0  0  0
 10 26  1  0  0  0  0
 11 12  2  0  0  0  0
 11 27  1  0  0  0  0
 12 28  1  0  0  0  0
 13 21  1  0  0  0  0
 13 26  2  0  0  0  0
 14 22  1  0  0  0  0
 14 24  2  0  0  0  0
 15 28  2  0  0  0  0
 15 29  1  0  0  0  0
 16 32  1  0  0  0  0
 17 32  1  0  0  0  0
 17 33  2  0  0  0  0
 17 34  1  0  0  0  0
 18 20  2  0  0  0  0
 18 39  1  0  0  0  0
 19 21  2  0  0  0  0
 19 40  1  0  0  0  0
 20 48  1  0  0  0  0
 21 41  1  0  0  0  0
 22 30  2  0  0  0  0
 22 51  1  0  0  0  0
 23 30  1  0  0  0  0
 23 31  2  0  0  0  0
 23 58  1  0  0  0  0
 24 31  1  0  0  0  0
 24 70  1  0  0  0  0
 25 80  1  0  0  0  0
 26 81  1  0  0  0  0
 27 29  2  0  0  0  0
 27 80  1  0  0  0  0
 28 82  1  0  0  0  0
 29 83  1  0  0  0  0
 30 84  1  0  0  0  0
 31 85  1  0  0  0  0
 32 64  2  0  0  0  0
 33 65  1  0  0  0  0
 33 68  1  0  0  0  0
 34 69  1  0  0  0  0
 34 75  2  0  0  0  0
 35 49  1  0  0  0  0
 35 71  1  0  0  0  0
 35 76  2  0  0  0  0
 36 60  1  0  0  0  0
 36 66  1  0  0  0  0
 36 77  2  0  0  0  0
 37 61  1  0  0  0  0
 37 72  1  0  0  0  0
 37 78  2  0  0  0  0
 38 67  1  0  0  0  0
 38 70  1  0  0  0  0
 38 79  2  0  0  0  0
 39 42  1  0  0  0  0
 40 49  1  0  0  0  0
 41 66  1  0  0  0  0
 42 44  1  0  0  0  0
 43 45  1  0  0  0  0
 43 46  1  0  0  0  0
 44 48  1  0  0  0  0
 45 50  1  0  0  0  0
 46 67  1  0  0  0  0
 47 50  1  0  0  0  0
 47 67  1  0  0  0  0
 48 71  1  0  0  0  0
 49 66  1  0  0  0  0
 50 65  1  0  0  0  0
 52 61  1  0  0  0  0
 53 62  1  0  0  0  0
 54 63  1  0  0  0  0
 55 63  1  0  0  0  0
 56 63  1  0  0  0  0
 57 73  1  0  0  0  0
 58 74  1  0  0  0  0
 59 62  1  0  0  0  0
 59 81  1  0  0  0  0
 60 63  1  0  0  0  0
 60 72  1  0  0  0  0
 61 73  1  0  0  0  0
 62 74  1  0  0  0  0
 64 65  1  0  0  0  0
M  CHG  2  73   1  74   1
M  ISO  4  38 100  59 101  70 100  81 101
M  END
> <Batch ID>
0016

> <Smiles>
CNC(C)C(=O)NC(C(=O)N1Cc2cc([101O:1][101CH2:1]C(C)NCc3c(Cl)c(C)cc([100NH:0][100C:0](=O)N4CCCC(n5nc(-c6ccc(Oc7ccc(F)cc7F)cc6)c(C(N)=O)c5N)C4)c3Cl)ccc2CC1C(=O)NC1CCCc2ccccc21)C(C)(C)C

> <Shape>
0.309

> <Color>
0.156

> <Negative vol penalty>
0.000

$$$$

  -OEChem-04052315583D

 85 93  0     1  0  0  0  0  0999 V2000
  -18.6332  -31.7419   25.6352 C   0  0  0  0  0  0  0  0  0  0  0  0
  -20.0189  -31.7325   25.5117 C   0  0  0  0  0  0  0  0  0  0  0  0
  -24.4705   -9.5612   21.6693 C   0  0  0  0  0  0  0  0  0  0  0  0
  -22.6671  -10.6213   20.4606 C   0  0  0  0  0  0  0  0  0  0  0  0
  -17.8778  -30.7115   25.0771 C   0  0  0  0  0  0  0  0  0  0  0  0
  -20.6500  -30.6921   24.8309 C   0  0  0  0  0  0  0  0  0  0  0  0
  -26.3461  -29.3740   20.6916 C   0  0  0  0  0  0  0  0  0  0  0  0
  -23.7018   -8.4049   21.8021 C   0  0  0  0  0  0  0  0  0  0  0  0
  -21.8984   -9.4650   20.5934 C   0  0  0  0  0  0  0  0  0  0  0  0
  -27.4393  -28.5129   20.6061 C   0  0  0  0  0  0  0  0  0  0  0  0
  -19.5966   -6.6660   20.3005 C   0  0  0  0  0  0  0  0  0  0  0  0
  -18.9119   -6.2087   19.1746 C   0  0  0  0  0  0  0  0  0  0  0  0
  -26.0265  -26.8276   19.6145 C   0  0  0  0  0  0  0  0  0  0  0  0
  -26.7383  -22.0028   18.3133 C   0  0  0  0  0  0  0  0  0  0  0  0
  -21.0078   -5.9695   17.9969 C   0  0  0  0  0  0  0  0  0  0  0  0
  -23.9531  -10.6695   20.9986 C   0  0  0  0  0  0  0  0  0  0  0  0
  -25.6334  -12.1806   19.8150 C   0  0  0  0  0  0  0  0  0  0  0  0
  -18.4993  -29.6629   24.3808 C   0  0  0  0  0  0  0  0  0  0  0  0
  -25.0805  -28.9637   20.2485 C   0  0  0  0  0  0  0  0  0  0  0  0
  -19.9023  -29.6460   24.2641 C   0  0  0  0  0  0  0  0  0  0  0  0
  -24.9195  -27.6863   19.6931 C   0  0  0  0  0  0  0  0  0  0  0  0
  -25.5207  -21.3674   18.0698 C   0  0  0  0  0  0  0  0  0  0  0  0
  -25.1463  -20.2614   18.8330 C   0  0  0  0  0  0  0  0  0  0  0  0
  -27.2072  -20.4263   20.0830 C   0  0  0  0  0  0  0  0  0  0  0  0
  -27.5816  -21.5322   19.3199 C   0  0  0  0  0  0  0  0  0  0  0  0
  -25.9895  -19.7909   19.8396 C   0  0  0  0  0  0  0  0  0  0  0  0
  -22.4158   -8.3568   21.2642 C   0  0  0  0  0  0  0  0  0  0  0  0
  -27.2790  -27.2384   20.0702 C   0  0  0  0  0  0  0  0  0  0  0  0
  -20.9870   -6.7751   20.2746 C   0  0  0  0  0  0  0  0  0  0  0  0
  -19.6174   -5.8605   18.0229 C   0  0  0  0  0  0  0  0  0  0  0  0
  -21.6926   -6.4269   19.1228 C   0  0  0  0  0  0  0  0  0  0  0  0
  -24.7465  -11.8644   20.8615 C   0  0  0  0  0  0  0  0  0  0  0  0
  -26.1335  -13.4151   20.1500 C   0  0  0  0  0  0  0  0  0  0  0  0
  -25.9747  -11.4258   18.6447 C   0  0  0  0  0  0  0  0  0  0  0  0
  -22.2468  -28.5486   21.6275 C   0  0  0  0  0  0  0  0  0  0  0  0
  -21.2761  -28.0185   18.5780 C   0  0  0  0  0  0  0  0  0  0  0  0
  -22.0923  -27.0851   15.3985 C   0  0  0  0  0  0  0  0  0  0  0  0
  -25.4252  -18.6198   21.9974 C   0  0  0  0  0  0  0  0  0  0  0  0
  -17.6444  -28.5465   23.8353 C   0  0  0  0  0  0  0  0  0  0  0  0
  -23.9171  -29.9141   20.3230 C   0  0  0  0  0  0  0  0  0  0  0  0
  -23.5860  -27.2050   19.1845 C   0  0  0  0  0  0  0  0  0  0  0  0
  -18.3622  -27.6765   22.8067 C   0  0  0  0  0  0  0  0  0  0  0  0
  -25.7683  -16.0612   24.4496 C   0  0  0  0  0  0  0  0  0  0  0  0
  -19.7542  -27.3003   23.3040 C   0  0  0  0  0  0  0  0  0  0  0  0
  -25.6060  -14.7673   23.6486 C   0  0  0  0  0  0  0  0  0  0  0  0
  -24.8519  -17.1679   23.9310 C   0  0  0  0  0  0  0  0  0  0  0  0
  -24.7962  -16.1447   21.6906 C   0  0  0  0  0  0  0  0  0  0  0  0
  -20.6217  -28.5477   23.5115 C   0  0  1  0  0  0  0  0  0  0  0  0
  -22.5657  -29.2061   20.3146 C   0  0  1  0  0  0  0  0  0  0  0  0
  -25.7460  -15.0203   22.1347 C   0  0  2  0  0  0  0  0  0  0  0  0
  -24.6368  -21.8908   16.9852 C   0  0  0  0  0  0  0  0  0  0  0  0
  -23.8394  -19.5828   18.5636 C   0  0  0  0  0  0  0  0  0  0  0  0
  -28.1139  -19.9247   21.1643 C   0  0  0  0  0  0  0  0  0  0  0  0
  -21.0785  -26.7111   13.1336 C   0  0  0  0  0  0  0  0  0  0  0  0
  -20.0930  -25.3778   19.5463 C   0  0  0  0  0  0  0  0  0  0  0  0
  -19.9581  -24.6424   17.1569 C   0  0  0  0  0  0  0  0  0  0  0  0
  -18.6603  -26.6301   17.9234 C   0  0  0  0  0  0  0  0  0  0  0  0
  -29.7971  -22.2720   18.4805 C   0  0  0  0  0  0  0  0  0  0  0  0
  -23.7866  -29.1759   14.1668 C   0  0  0  0  0  0  0  0  0  0  0  0
  -29.2920  -24.2994   20.6690 C   0  0  0  0  0  0  0  0  0  0  0  0
  -29.0996  -22.7956   20.8231 C   0  0  0  0  0  0  0  0  0  0  0  0
  -28.0745  -24.9972   20.0743 C   0  0  0  0  0  0  0  0  0  1  0  0
  -21.1712  -26.8059   17.6850 C   0  0  1  0  0  0  0  0  0  0  0  0
  -21.7696  -27.7071   14.0519 C   0  0  2  0  0  0  0  0  0  0  0  0
  -19.9955  -25.8721   18.0892 C   0  0  0  0  0  0  0  0  0  0  0  0
  -24.6846  -12.8209   21.7917 N   0  0  0  0  0  0  0  0  0  0  0  0
  -25.5391  -13.7502   21.3309 N   0  0  0  0  0  0  0  0  0  0  0  0
  -22.4775  -28.1688   19.2849 N   0  0  0  0  0  0  0  0  0  0  0  0
  -25.0425  -17.3545   22.4909 N   0  0  0  0  0  0  0  0  0  0  0  0
  -27.0194  -14.2359   19.5466 N   0  0  0  0  0  0  0  0  0  0  0  0
  -25.3684  -10.1765   18.4551 N   0  0  0  0  0  0  0  0  0  0  0  0
  -25.6083  -18.6685   20.6159 N   0  0  0  0  0  0  0  0  0  0  0  0
  -21.1108  -29.0401   22.2416 N   0  0  0  0  0  0  0  0  0  0  0  0
  -21.0905  -27.3109   16.3187 N   0  0  0  0  0  0  0  0  0  0  0  0
  -28.8007  -22.1858   19.5499 N   0  0  3  0  0  0  0  0  0  0  0  0
  -23.0176  -28.1740   13.3845 N   0  3  0  0  0  0  0  0  0  0  0  0
  -26.8054  -11.8394   17.8008 O   0  0  0  0  0  0  0  0  0  0  0  0
  -22.9766  -27.6599   22.0511 O   0  0  0  0  0  0  0  0  0  0  0  0
  -20.3297  -28.8072   18.6405 O   0  0  0  0  0  0  0  0  0  0  0  0
  -23.1277  -26.4582   15.6117 O   0  0  0  0  0  0  0  0  0  0  0  0
  -25.6056  -19.5818   22.7484 O   0  0  0  0  0  0  0  0  0  0  0  0
  -21.6655   -7.2285   21.3934 O   0  0  0  0  0  0  0  0  0  0  0  0
  -28.3442  -26.3957   19.9862 O   0  0  0  0  0  0  0  0  0  1  0  0
  -18.9598   -5.4199   16.9423 F   0  0  0  0  0  0  0  0  0  0  0  0
  -23.0285   -6.5284   19.0923 F   0  0  0  0  0  0  0  0  0  0  0  0
  1  2  1  0  0  0  0
  1  5  2  0  0  0  0
  2  6  2  0  0  0  0
  3  8  2  0  0  0  0
  3 16  1  0  0  0  0
  4  9  1  0  0  0  0
  4 16  2  0  0  0  0
  5 18  1  0  0  0  0
  6 20  1  0  0  0  0
  7 10  2  0  0  0  0
  7 19  1  0  0  0  0
  8 27  1  0  0  0  0
  9 27  2  0  0  0  0
 10 28  1  0  0  0  0
 11 12  2  0  0  0  0
 11 29  1  0  0  0  0
 12 30  1  0  0  0  0
 13 21  1  0  0  0  0
 13 28  2  0  0  0  0
 14 22  2  0  0  0  0
 14 25  1  0  0  0  0
 15 30  2  0  0  0  0
 15 31  1  0  0  0  0
 16 32  1  0  0  0  0
 17 32  1  0  0  0  0
 17 33  2  0  0  0  0
 17 34  1  0  0  0  0
 18 20  2  0  0  0  0
 18 39  1  0  0  0  0
 19 21  2  0  0  0  0
 19 40  1  0  0  0  0
 20 48  1  0  0  0  0
 21 41  1  0  0  0  0
 22 23  1  0  0  0  0
 22 51  1  0  0  0  0
 23 26  2  0  0  0  0
 23 52  1  0  0  0  0
 24 25  2  0  0  0  0
 24 26  1  0  0  0  0
 24 53  1  0  0  0  0
 25 75  1  0  0  0  0
 26 72  1  0  0  0  0
 27 82  1  0  0  0  0
 28 83  1  0  0  0  0
 29 31  2  0  0  0  0
 29 82  1  0  0  0  0
 30 84  1  0  0  0  0
 31 85  1  0  0  0  0
 32 66  2  0  0  0  0
 33 67  1  0  0  0  0
 33 70  1  0  0  0  0
 34 71  1  0  0  0  0
 34 77  2  0  0  0  0
 35 49  1  0  0  0  0
 35 73  1  0  0  0  0
 35 78  2  0  0  0  0
 36 63  1  0  0  0  0
 36 68  1  0  0  0  0
 36 79  2  0  0  0  0
 37 64  1  0  0  0  0
 37 74  1  0  0  0  0
 37 80  2  0  0  0  0
 38 69  1  0  0  0  0
 38 72  1  0  0  0  0
 38 81  2  0  0  0  0
 39 42  1  0  0  0  0
 40 49  1  0  0  0  0
 41 68  1  0  0  0  0
 42 44  1  0  0  0  0
 43 45  1  0  0  0  0
 43 46  1  0  0  0  0
 44 48  1  0  0  0  0
 45 50  1  0  0  0  0
 46 69  1  0  0  0  0
 47 50  1  0  0  0  0
 47 69  1  0  0  0  0
 48 73  1  0  0  0  0
 49 68  1  0  0  0  0
 50 67  1  0  0  0  0
 54 64  1  0  0  0  0
 55 65  1  0  0  0  0
 56 65  1  0  0  0  0
 57 65  1  0  0  0  0
 58 75  1  0  0  0  0
 59 76  1  0  0  0  0
 60 61  1  0  0  0  0
 60 62  1  0  0  0  0
 61 75  1  0  0  0  0
 62 83  1  0  0  0  0
 63 65  1  0  0  0  0
 63 74  1  0  0  0  0
 64 76  1  0  0  0  0
 66 67  1  0  0  0  0
M  CHG  1  76   1
M  ISO  4  38 100  62 101  72 100  83 101
M  END
> <Batch ID>
0016

> <Smiles>
CNC(C)C(=O)NC(C(=O)N1Cc2cc([101O:1][101CH2:1]CCN(C)c3cc(C)c(C)c([100NH:0][100C:0](=O)N4CCCC(n5nc(-c6ccc(Oc7ccc(F)cc7F)cc6)c(C(N)=O)c5N)C4)c3C)ccc2CC1C(=O)NC1CCCc2ccccc21)C(C)(C)C

> <Shape>
0.228

> <Color>
0.119

> <Negative vol penalty>
0.000

$$$$

  -OEChem-04052315583D

 86 94  0     1  0  0  0  0  0999 V2000
  -20.3049  -28.4563   27.0411 C   0  0  0  0  0  0  0  0  0  0  0  0
  -21.4807  -28.0267   26.4342 C   0  0  0  0  0  0  0  0  0  0  0  0
  -22.9396  -10.1373   19.8884 C   0  0  0  0  0  0  0  0  0  0  0  0
  -23.8330   -9.8425   22.1137 C   0  0  0  0  0  0  0  0  0  0  0  0
  -19.1899  -28.7602   26.2611 C   0  0  0  0  0  0  0  0  0  0  0  0
  -21.5420  -27.8998   25.0469 C   0  0  0  0  0  0  0  0  0  0  0  0
  -25.8008  -29.8331   23.1054 C   0  0  0  0  0  0  0  0  0  0  0  0
  -22.1423   -9.0055   20.0585 C   0  0  0  0  0  0  0  0  0  0  0  0
  -23.0356   -8.7107   22.2839 C   0  0  0  0  0  0  0  0  0  0  0  0
  -26.9587  -29.0649   23.2195 C   0  0  0  0  0  0  0  0  0  0  0  0
  -19.8057   -8.0271   23.0060 C   0  0  0  0  0  0  0  0  0  0  0  0
  -19.1184   -7.8959   24.2126 C   0  0  0  0  0  0  0  0  0  0  0  0
  -26.6895  -28.3310   20.9374 C   0  0  0  0  0  0  0  0  0  0  0  0
  -31.5094  -17.3704   20.8581 C   0  0  0  0  0  0  0  0  0  0  0  0
  -20.2796   -5.8225   24.6486 C   0  0  0  0  0  0  0  0  0  0  0  0
  -23.7850  -10.5557   20.9159 C   0  0  0  0  0  0  0  0  0  0  0  0
  -24.2740  -13.0558   21.0518 C   0  0  0  0  0  0  0  0  0  0  0  0
  -19.2406  -28.6463   24.8628 C   0  0  0  0  0  0  0  0  0  0  0  0
  -25.0714  -29.8475   21.9078 C   0  0  0  0  0  0  0  0  0  0  0  0
  -20.4262  -28.2013   24.2476 C   0  0  0  0  0  0  0  0  0  0  0  0
  -25.5241  -29.1022   20.8098 C   0  0  0  0  0  0  0  0  0  0  0  0
  -31.7773  -18.7329   20.9895 C   0  0  0  0  0  0  0  0  0  0  0  0
  -30.0090  -17.4832   22.7484 C   0  0  0  0  0  0  0  0  0  0  0  0
  -30.2769  -18.8457   22.8798 C   0  0  0  0  0  0  0  0  0  0  0  0
  -30.6251  -16.7455   21.7375 C   0  0  0  0  0  0  0  0  0  0  0  0
  -22.1902   -8.2923   21.2562 C   0  0  0  0  0  0  0  0  0  0  0  0
  -27.4016  -28.3115   22.1364 C   0  0  0  0  0  0  0  0  0  0  0  0
  -20.7300   -7.0559   22.6206 C   0  0  0  0  0  0  0  0  0  0  0  0
  -31.1612  -19.4706   22.0003 C   0  0  0  0  0  0  0  0  0  0  0  0
  -19.3553   -6.7937   25.0339 C   0  0  0  0  0  0  0  0  0  0  0  0
  -20.9669   -5.9537   23.4419 C   0  0  0  0  0  0  0  0  0  0  0  0
  -24.6094  -11.7244   20.7406 C   0  0  0  0  0  0  0  0  0  0  0  0
  -25.3868  -13.7809   20.7020 C   0  0  0  0  0  0  0  0  0  0  0  0
  -23.0647  -13.5893   21.6074 C   0  0  0  0  0  0  0  0  0  0  0  0
  -22.1252  -29.0022   21.0656 C   0  0  0  0  0  0  0  0  0  0  0  0
  -22.9793  -30.3155   18.2252 C   0  0  0  0  0  0  0  0  0  0  0  0
  -25.4797  -31.2037   16.0791 C   0  0  0  0  0  0  0  0  0  0  0  0
  -30.9077  -14.5001   20.6309 C   0  0  0  0  0  0  0  0  0  0  0  0
  -17.9951  -28.9408   24.0649 C   0  0  0  0  0  0  0  0  0  0  0  0
  -23.8391  -30.7023   21.7923 C   0  0  0  0  0  0  0  0  0  0  0  0
  -24.7883  -29.0994   19.4956 C   0  0  0  0  0  0  0  0  0  0  0  0
  -18.2592  -29.1391   22.5746 C   0  0  0  0  0  0  0  0  0  0  0  0
  -29.5086  -12.4350   18.0903 C   0  0  0  0  0  0  0  0  0  0  0  0
  -19.1755  -28.0410   22.0440 C   0  0  0  0  0  0  0  0  0  0  0  0
  -28.0817  -12.1756   18.5789 C   0  0  0  0  0  0  0  0  0  0  0  0
  -30.5056  -12.4757   19.2470 C   0  0  0  0  0  0  0  0  0  0  0  0
  -28.7320  -13.1417   20.8218 C   0  0  0  0  0  0  0  0  0  0  0  0
  -20.5395  -28.0748   22.7438 C   0  0  1  0  0  0  0  0  0  0  0  0
  -22.8916  -30.2389   20.6901 C   0  0  1  0  0  0  0  0  0  0  0  0
  -27.6823  -13.1566   19.6986 C   0  0  2  0  0  0  0  0  0  0  0  0
  -32.7283  -19.3841   20.0399 C   0  0  0  0  0  0  0  0  0  0  0  0
  -29.0604  -16.8146   23.6938 C   0  0  0  0  0  0  0  0  0  0  0  0
  -29.6218  -19.6431   23.9624 C   0  0  0  0  0  0  0  0  0  0  0  0
  -25.8662  -32.2218   13.8182 C   0  0  0  0  0  0  0  0  0  0  0  0
  -22.1457  -27.6941   16.9049 C   0  0  0  0  0  0  0  0  0  0  0  0
  -23.4115  -28.4004   14.8636 C   0  0  0  0  0  0  0  0  0  0  0  0
  -21.4704  -29.7524   15.6552 C   0  0  0  0  0  0  0  0  0  0  0  0
  -27.0026  -33.4656   17.2297 C   0  0  0  0  0  0  0  0  0  0  0  0
  -29.6052  -24.0236   21.4440 C   0  0  0  0  0  0  0  0  0  0  0  0
  -29.4701  -25.3550   22.1831 C   0  0  0  0  0  0  0  0  0  0  0  0
  -30.5088  -23.0219   22.1611 C   0  0  0  0  0  0  0  0  0  0  0  0
  -28.5993  -26.3721   21.4579 C   0  0  0  0  0  0  0  0  0  1  0  0
  -30.5871  -21.7010   21.4073 C   0  0  0  0  0  0  0  0  0  0  0  0
  -23.6328  -29.8038   16.9642 C   0  0  1  0  0  0  0  0  0  0  0  0
  -25.7389  -32.4868   15.3103 C   0  0  2  0  0  0  0  0  0  0  0  0
  -22.6781  -28.9110   16.1222 C   0  0  0  0  0  0  0  0  0  0  0  0
  -25.8390  -11.6078   20.2321 N   0  0  0  0  0  0  0  0  0  0  0  0
  -26.2859  -12.8751   20.2210 N   0  0  0  0  0  0  0  0  0  0  0  0
  -23.5855  -29.9462   19.4343 N   0  0  0  0  0  0  0  0  0  0  0  0
  -30.0640  -13.4293   20.2671 N   0  0  0  0  0  0  0  0  0  0  0  0
  -25.6741  -15.0986   20.7620 N   0  0  0  0  0  0  0  0  0  0  0  0
  -22.0205  -12.7043   21.9085 N   0  0  0  0  0  0  0  0  0  0  0  0
  -30.3681  -15.3602   21.5867 N   0  0  0  0  0  0  0  0  0  0  0  0
  -21.3572  -29.1409   22.2060 N   0  0  0  0  0  0  0  0  0  0  0  0
  -24.1311  -30.9785   16.2570 N   0  0  0  0  0  0  0  0  0  0  0  0
  -26.9983  -33.1284   15.7829 N   0  3  0  0  0  0  0  0  0  0  0  0
  -22.9085  -14.8165   21.8149 O   0  0  0  0  0  0  0  0  0  0  0  0
  -22.2222  -27.9972   20.3713 O   0  0  0  0  0  0  0  0  0  0  0  0
  -21.9723  -31.0228   18.1402 O   0  0  0  0  0  0  0  0  0  0  0  0
  -26.3832  -30.4724   16.4783 O   0  0  0  0  0  0  0  0  0  0  0  0
  -32.0154  -14.6589   20.1115 O   0  0  0  0  0  0  0  0  0  0  0  0
  -21.4121   -7.1880   21.4227 O   0  0  0  0  0  0  0  0  0  0  0  0
  -28.5311  -27.5603   22.2453 O   0  0  0  0  0  0  0  0  0  1  0  0
  -31.4263  -20.8094   22.1282 O   0  0  0  0  0  0  0  0  0  0  0  0
  -18.6964   -6.6686   26.1934 F   0  0  0  0  0  0  0  0  0  0  0  0
  -21.8545   -5.0182   23.0776 F   0  0  0  0  0  0  0  0  0  0  0  0
  1  2  1  0  0  0  0
  1  5  2  0  0  0  0
  2  6  2  0  0  0  0
  3  8  2  0  0  0  0
  3 16  1  0  0  0  0
  4  9  1  0  0  0  0
  4 16  2  0  0  0  0
  5 18  1  0  0  0  0
  6 20  1  0  0  0  0
  7 10  2  0  0  0  0
  7 19  1  0  0  0  0
  8 26  1  0  0  0  0
  9 26  2  0  0  0  0
 10 27  1  0  0  0  0
 11 12  2  0  0  0  0
 11 28  1  0  0  0  0
 12 30  1  0  0  0  0
 13 21  1  0  0  0  0
 13 27  2  0  0  0  0
 14 22  2  0  0  0  0
 14 25  1  0  0  0  0
 15 30  2  0  0  0  0
 15 31  1  0  0  0  0
 16 32  1  0  0  0  0
 17 32  1  0  0  0  0
 17 33  2  0  0  0  0
 17 34  1  0  0  0  0
 18 20  2  0  0  0  0
 18 39  1  0  0  0  0
 19 21  2  0  0  0  0
 19 40  1  0  0  0  0
 20 48  1  0  0  0  0
 21 41  1  0  0  0  0
 22 29  1  0  0  0  0
 22 51  1  0  0  0  0
 23 24  1  0  0  0  0
 23 25  2  0  0  0  0
 23 52  1  0  0  0  0
 24 29  2  0  0  0  0
 24 53  1  0  0  0  0
 25 73  1  0  0  0  0
 26 82  1  0  0  0  0
 27 83  1  0  0  0  0
 28 31  2  0  0  0  0
 28 82  1  0  0  0  0
 29 84  1  0  0  0  0
 30 85  1  0  0  0  0
 31 86  1  0  0  0  0
 32 67  2  0  0  0  0
 33 68  1  0  0  0  0
 33 71  1  0  0  0  0
 34 72  1  0  0  0  0
 34 77  2  0  0  0  0
 35 49  1  0  0  0  0
 35 74  1  0  0  0  0
 35 78  2  0  0  0  0
 36 64  1  0  0  0  0
 36 69  1  0  0  0  0
 36 79  2  0  0  0  0
 37 65  1  0  0  0  0
 37 75  1  0  0  0  0
 37 80  2  0  0  0  0
 38 70  1  0  0  0  0
 38 73  1  0  0  0  0
 38 81  2  0  0  0  0
 39 42  1  0  0  0  0
 40 49  1  0  0  0  0
 41 69  1  0  0  0  0
 42 44  1  0  0  0  0
 43 45  1  0  0  0  0
 43 46  1  0  0  0  0
 44 48  1  0  0  0  0
 45 50  1  0  0  0  0
 46 70  1  0  0  0  0
 47 50  1  0  0  0  0
 47 70  1  0  0  0  0
 48 74  1  0  0  0  0
 49 69  1  0  0  0  0
 50 68  1  0  0  0  0
 54 65  1  0  0  0  0
 55 66  1  0  0  0  0
 56 66  1  0  0  0  0
 57 66  1  0  0  0  0
 58 76  1  0  0  0  0
 59 60  1  0  0  0  0
 59 61  1  0  0  0  0
 60 62  1  0  0  0  0
 61 63  1  0  0  0  0
 62 83  1  0  0  0  0
 63 84  1  0  0  0  0
 64 66  1  0  0  0  0
 64 75  1  0  0  0  0
 65 76  1  0  0  0  0
 67 68  1  0  0  0  0
M  CHG  1  76   1
M  ISO  4  38 100  62 101  73 100  83 101
M  END
> <Batch ID>
0016

> <Smiles>
CNC(C)C(=O)NC(C(=O)N1Cc2cc([101O:1][101CH2:1]CCCCOc3c(C)cc([100NH:0][100C:0](=O)N4CCCC(n5nc(-c6ccc(Oc7ccc(F)cc7F)cc6)c(C(N)=O)c5N)C4)c(C)c3C)ccc2CC1C(=O)NC1CCCc2ccccc21)C(C)(C)C

> <Shape>
0.308

> <Color>
0.230

> <Negative vol penalty>
0.000

$$$$

  -OEChem-04052315583D

 81 89  0     1  0  0  0  0  0999 V2000
  -35.5981  -32.0721   16.6702 C   0  0  0  0  0  0  0  0  0  0  0  0
  -35.8727  -30.7250   16.8831 C   0  0  0  0  0  0  0  0  0  0  0  0
  -23.0049   -9.8687   19.9774 C   0  0  0  0  0  0  0  0  0  0  0  0
  -23.7287   -9.9247   22.2818 C   0  0  0  0  0  0  0  0  0  0  0  0
  -34.4034  -32.6207   17.1345 C   0  0  0  0  0  0  0  0  0  0  0  0
  -34.9531  -29.9259   17.5614 C   0  0  0  0  0  0  0  0  0  0  0  0
  -32.4789  -23.2064   17.7674 C   0  0  0  0  0  0  0  0  0  0  0  0
  -22.2450   -8.7298   20.2438 C   0  0  0  0  0  0  0  0  0  0  0  0
  -22.9687   -8.7857   22.5482 C   0  0  0  0  0  0  0  0  0  0  0  0
  -32.2605  -22.1662   18.6697 C   0  0  0  0  0  0  0  0  0  0  0  0
  -23.2331   -5.4481   22.0774 C   0  0  0  0  0  0  0  0  0  0  0  0
  -23.8263   -4.4347   22.8301 C   0  0  0  0  0  0  0  0  0  0  0  0
  -30.1943  -23.2042   19.3569 C   0  0  0  0  0  0  0  0  0  0  0  0
  -31.1696  -18.4038   23.7057 C   0  0  0  0  0  0  0  0  0  0  0  0
  -22.1002   -4.6679   24.5044 C   0  0  0  0  0  0  0  0  0  0  0  0
  -23.7468  -10.4661   20.9965 C   0  0  0  0  0  0  0  0  0  0  0  0
  -24.1172  -12.9839   20.8199 C   0  0  0  0  0  0  0  0  0  0  0  0
  -33.4643  -31.8257   17.8103 C   0  0  0  0  0  0  0  0  0  0  0  0
  -31.5604  -24.2606   17.6607 C   0  0  0  0  0  0  0  0  0  0  0  0
  -33.7452  -30.4647   18.0363 C   0  0  0  0  0  0  0  0  0  0  0  0
  -30.4020  -24.2552   18.4507 C   0  0  0  0  0  0  0  0  0  0  0  0
  -31.5675  -19.3603   22.7716 C   0  0  0  0  0  0  0  0  0  0  0  0
  -30.6642  -17.1769   23.2755 C   0  0  0  0  0  0  0  0  0  0  0  0
  -31.4599  -19.0900   21.4075 C   0  0  0  0  0  0  0  0  0  0  0  0
  -30.9544  -17.8631   20.9773 C   0  0  0  0  0  0  0  0  0  0  0  0
  -30.5566  -16.9066   21.9113 C   0  0  0  0  0  0  0  0  0  0  0  0
  -22.2269   -8.1883   21.5291 C   0  0  0  0  0  0  0  0  0  0  0  0
  -31.1195  -22.1665   19.4667 C   0  0  0  0  0  0  0  0  0  0  0  0
  -22.0735   -6.0716   22.5382 C   0  0  0  0  0  0  0  0  0  0  0  0
  -23.2599   -4.0445   24.0436 C   0  0  0  0  0  0  0  0  0  0  0  0
  -21.5070   -5.6814   23.7517 C   0  0  0  0  0  0  0  0  0  0  0  0
  -24.5324  -11.6424   20.7218 C   0  0  0  0  0  0  0  0  0  0  0  0
  -25.2228  -13.7130   20.4557 C   0  0  0  0  0  0  0  0  0  0  0  0
  -22.8459  -13.5229   21.2056 C   0  0  0  0  0  0  0  0  0  0  0  0
  -31.6835  -27.4002   18.1422 C   0  0  0  0  0  0  0  0  0  0  0  0
  -28.6760  -27.3109   16.9301 C   0  0  0  0  0  0  0  0  0  0  0  0
  -25.8424  -25.5026   16.3406 C   0  0  0  0  0  0  0  0  0  0  0  0
  -30.6964  -14.7067   20.6919 C   0  0  0  0  0  0  0  0  0  0  0  0
  -32.2079  -32.4742   18.3352 C   0  0  0  0  0  0  0  0  0  0  0  0
  -31.7972  -25.3615   16.6634 C   0  0  0  0  0  0  0  0  0  0  0  0
  -29.3751  -25.3532   18.3599 C   0  0  0  0  0  0  0  0  0  0  0  0
  -31.1195  -31.4738   18.7159 C   0  0  0  0  0  0  0  0  0  0  0  0
  -29.5938  -12.2465   18.3662 C   0  0  0  0  0  0  0  0  0  0  0  0
  -31.7067  -30.3355   19.5442 C   0  0  0  0  0  0  0  0  0  0  0  0
  -28.1445  -11.9804   18.7798 C   0  0  0  0  0  0  0  0  0  0  0  0
  -30.4923  -12.4956   19.5763 C   0  0  0  0  0  0  0  0  0  0  0  0
  -28.5717  -13.2735   20.9087 C   0  0  0  0  0  0  0  0  0  0  0  0
  -32.7617  -29.5598   18.7461 C   0  0  1  0  0  0  0  0  0  0  0  0
  -31.0518  -26.6479   17.0053 C   0  0  1  0  0  0  0  0  0  0  0  0
  -27.6157  -13.0811   19.7202 C   0  0  2  0  0  0  0  0  0  0  0  0
  -32.1067  -20.6654   23.2587 C   0  0  0  0  0  0  0  0  0  0  0  0
  -30.2475  -16.1721   24.3004 C   0  0  0  0  0  0  0  0  0  0  0  0
  -30.8408  -17.5781   19.5121 C   0  0  0  0  0  0  0  0  0  0  0  0
  -23.5388  -25.7118   15.3676 C   0  0  0  0  0  0  0  0  0  0  0  0
  -27.7598  -28.8061   19.4271 C   0  0  0  0  0  0  0  0  0  0  0  0
  -25.4078  -28.1533   18.8701 C   0  0  0  0  0  0  0  0  0  0  0  0
  -26.7075  -29.5887   17.2976 C   0  0  0  0  0  0  0  0  0  0  0  0
  -26.3993  -23.4497   14.2828 C   0  0  0  0  0  0  0  0  0  0  0  0
  -31.8887  -20.1212   20.4054 C   0  0  0  0  0  0  0  0  0  1  0  0
  -27.2936  -27.1387   17.5118 C   0  0  1  0  0  0  0  0  0  0  0  0
  -24.9892  -25.3446   15.0950 C   0  0  2  0  0  0  0  0  0  0  0  0
  -26.8123  -28.4019   18.2800 C   0  0  0  0  0  0  0  0  0  0  0  0
  -25.8026  -11.5233   20.3263 N   0  0  0  0  0  0  0  0  0  0  0  0
  -26.1951  -12.7994   20.1724 N   0  0  0  0  0  0  0  0  0  0  0  0
  -29.6547  -26.4106   17.3743 N   0  0  0  0  0  0  0  0  0  0  0  0
  -29.9306  -13.5535   20.4191 N   0  0  0  0  0  0  0  0  0  0  0  0
  -25.4485  -15.0400   20.3534 N   0  0  0  0  0  0  0  0  0  0  0  0
  -21.8192  -12.6328   21.5490 N   0  0  0  0  0  0  0  0  0  0  0  0
  -30.0461  -15.6582   21.4769 N   0  0  0  0  0  0  0  0  0  0  0  0
  -32.1252  -28.6650   17.8034 N   0  0  0  0  0  0  0  0  0  0  0  0
  -26.4298  -26.7485   16.4027 N   0  0  0  0  0  0  0  0  0  0  0  0
  -25.0344  -23.9357   14.6114 N   0  3  0  0  0  0  0  0  0  0  0  0
  -22.6218  -14.7569   21.2289 O   0  0  0  0  0  0  0  0  0  0  0  0
  -31.7630  -26.8728   19.2455 O   0  0  0  0  0  0  0  0  0  0  0  0
  -28.8783  -28.2066   16.1064 O   0  0  0  0  0  0  0  0  0  0  0  0
  -25.9717  -24.6112   17.1769 O   0  0  0  0  0  0  0  0  0  0  0  0
  -31.8344  -14.8522   20.2384 O   0  0  0  0  0  0  0  0  0  0  0  0
  -21.4853   -7.0770   21.7894 O   0  0  0  0  0  0  0  0  0  0  0  0
  -30.9043  -21.1528   20.3487 O   0  0  0  0  0  0  0  0  0  1  0  0
  -23.8288   -3.0702   24.7655 F   0  0  0  0  0  0  0  0  0  0  0  0
  -20.3924   -6.2758   24.1991 F   0  0  0  0  0  0  0  0  0  0  0  0
  1  2  1  0  0  0  0
  1  5  2  0  0  0  0
  2  6  2  0  0  0  0
  3  8  2  0  0  0  0
  3 16  1  0  0  0  0
  4  9  1  0  0  0  0
  4 16  2  0  0  0  0
  5 18  1  0  0  0  0
  6 20  1  0  0  0  0
  7 10  2  0  0  0  0
  7 19  1  0  0  0  0
  8 27  1  0  0  0  0
  9 27  2  0  0  0  0
 10 28  1  0  0  0  0
 11 12  2  0  0  0  0
 11 29  1  0  0  0  0
 12 30  1  0  0  0  0
 13 21  1  0  0  0  0
 13 28  2  0  0  0  0
 14 22  2  0  0  0  0
 14 23  1  0  0  0  0
 15 30  2  0  0  0  0
 15 31  1  0  0  0  0
 16 32  1  0  0  0  0
 17 32  1  0  0  0  0
 17 33  2  0  0  0  0
 17 34  1  0  0  0  0
 18 20  2  0  0  0  0
 18 39  1  0  0  0  0
 19 21  2  0  0  0  0
 19 40  1  0  0  0  0
 20 48  1  0  0  0  0
 21 41  1  0  0  0  0
 22 24  1  0  0  0  0
 22 51  1  0  0  0  0
 23 26  2  0  0  0  0
 23 52  1  0  0  0  0
 24 25  2  0  0  0  0
 24 59  1  0  0  0  0
 25 26  1  0  0  0  0
 25 53  1  0  0  0  0
 26 69  1  0  0  0  0
 27 78  1  0  0  0  0
 28 79  1  0  0  0  0
 29 31  2  0  0  0  0
 29 78  1  0  0  0  0
 30 80  1  0  0  0  0
 31 81  1  0  0  0  0
 32 63  2  0  0  0  0
 33 64  1  0  0  0  0
 33 67  1  0  0  0  0
 34 68  1  0  0  0  0
 34 73  2  0  0  0  0
 35 49  1  0  0  0  0
 35 70  1  0  0  0  0
 35 74  2  0  0  0  0
 36 60  1  0  0  0  0
 36 65  1  0  0  0  0
 36 75  2  0  0  0  0
 37 61  1  0  0  0  0
 37 71  1  0  0  0  0
 37 76  2  0  0  0  0
 38 66  1  0  0  0  0
 38 69  1  0  0  0  0
 38 77  2  0  0  0  0
 39 42  1  0  0  0  0
 40 49  1  0  0  0  0
 41 65  1  0  0  0  0
 42 44  1  0  0  0  0
 43 45  1  0  0  0  0
 43 46  1  0  0  0  0
 44 48  1  0  0  0  0
 45 50  1  0  0  0  0
 46 66  1  0  0  0  0
 47 50  1  0  0  0  0
 47 66  1  0  0  0  0
 48 70  1  0  0  0  0
 49 65  1  0  0  0  0
 50 64  1  0  0  0  0
 54 61  1  0  0  0  0
 55 62  1  0  0  0  0
 56 62  1  0  0  0  0
 57 62  1  0  0  0  0
 58 72  1  0  0  0  0
 59 79  1  0  0  0  0
 60 62  1  0  0  0  0
 60 71  1  0  0  0  0
 61 72  1  0  0  0  0
 63 64  1  0  0  0  0
M  CHG  1  72   1
M  ISO  4  38 100  59 101  69 100  79 101
M  END
> <Batch ID>
0016

> <Smiles>
CNC(C)C(=O)NC(C(=O)N1Cc2cc([101O:1][101CH2:1]c3c(C)cc(C)c([100NH:0][100C:0](=O)N4CCCC(n5nc(-c6ccc(Oc7ccc(F)cc7F)cc6)c(C(N)=O)c5N)C4)c3C)ccc2CC1C(=O)NC1CCCc2ccccc21)C(C)(C)C

> <Shape>
0.247

> <Color>
0.208

> <Negative vol penalty>
0.000

$$$$

  -OEChem-04052315583D

 88 96  0     1  0  0  0  0  0999 V2000
  -21.0070  -20.9345   24.1939 C   0  0  0  0  0  0  0  0  0  0  0  0
  -21.9315  -21.5558   23.3604 C   0  0  0  0  0  0  0  0  0  0  0  0
  -23.0420  -10.2318   22.2191 C   0  0  0  0  0  0  0  0  0  0  0  0
  -22.7145  -10.1932   19.8257 C   0  0  0  0  0  0  0  0  0  0  0  0
  -19.8214  -21.5879   24.5274 C   0  0  0  0  0  0  0  0  0  0  0  0
  -21.6704  -22.8305   22.8590 C   0  0  0  0  0  0  0  0  0  0  0  0
  -25.6839  -25.9024   23.1751 C   0  0  0  0  0  0  0  0  0  0  0  0
  -22.6522   -8.8947   22.2940 C   0  0  0  0  0  0  0  0  0  0  0  0
  -22.3246   -8.8560   19.9006 C   0  0  0  0  0  0  0  0  0  0  0  0
  -26.6866  -25.7402   22.2202 C   0  0  0  0  0  0  0  0  0  0  0  0
  -24.0264   -5.8624   21.7026 C   0  0  0  0  0  0  0  0  0  0  0  0
  -24.7950   -5.0064   22.4912 C   0  0  0  0  0  0  0  0  0  0  0  0
  -25.8097  -27.6199   20.9887 C   0  0  0  0  0  0  0  0  0  0  0  0
  -23.8918  -20.8967   18.7214 C   0  0  0  0  0  0  0  0  0  0  0  0
  -22.8610   -4.5297   23.8586 C   0  0  0  0  0  0  0  0  0  0  0  0
  -23.0731  -10.8811   20.9849 C   0  0  0  0  0  0  0  0  0  0  0  0
  -24.7792  -12.7592   20.7202 C   0  0  0  0  0  0  0  0  0  0  0  0
  -19.5499  -22.8751   24.0376 C   0  0  0  0  0  0  0  0  0  0  0  0
  -24.7283  -26.9196   23.0380 C   0  0  0  0  0  0  0  0  0  0  0  0
  -20.4793  -23.5011   23.1852 C   0  0  0  0  0  0  0  0  0  0  0  0
  -24.7974  -27.7946   21.9445 C   0  0  0  0  0  0  0  0  0  0  0  0
  -24.8318  -21.9079   18.5224 C   0  0  0  0  0  0  0  0  0  0  0  0
  -26.1649  -20.4046   17.1807 C   0  0  0  0  0  0  0  0  0  0  0  0
  -25.9683  -21.6618   17.7520 C   0  0  0  0  0  0  0  0  0  0  0  0
  -25.2249  -19.3934   17.3797 C   0  0  0  0  0  0  0  0  0  0  0  0
  -24.0884  -19.6395   18.1501 C   0  0  0  0  0  0  0  0  0  0  0  0
  -22.2935   -8.2068   21.1348 C   0  0  0  0  0  0  0  0  0  0  0  0
  -26.7480  -26.5972   21.1253 C   0  0  0  0  0  0  0  0  0  0  0  0
  -22.6752   -6.0523   21.9919 C   0  0  0  0  0  0  0  0  0  0  0  0
  -24.2123   -4.3400   23.5692 C   0  0  0  0  0  0  0  0  0  0  0  0
  -22.0925   -5.3859   23.0699 C   0  0  0  0  0  0  0  0  0  0  0  0
  -23.4752  -12.2626   20.9069 C   0  0  0  0  0  0  0  0  0  0  0  0
  -24.6296  -14.1245   20.7178 C   0  0  0  0  0  0  0  0  0  0  0  0
  -26.0152  -12.0497   20.5629 C   0  0  0  0  0  0  0  0  0  0  0  0
  -21.5687  -26.9983   22.6996 C   0  0  0  0  0  0  0  0  0  0  0  0
  -22.0093  -30.2000   22.9785 C   0  0  0  0  0  0  0  0  0  0  0  0
  -24.1065  -32.8740   22.6657 C   0  0  0  0  0  0  0  0  0  0  0  0
  -21.9432  -18.7273   19.1053 C   0  0  0  0  0  0  0  0  0  0  0  0
  -18.2333  -23.5223   24.3876 C   0  0  0  0  0  0  0  0  0  0  0  0
  -23.6689  -27.0981   24.0907 C   0  0  0  0  0  0  0  0  0  0  0  0
  -23.8077  -28.9151   21.7618 C   0  0  0  0  0  0  0  0  0  0  0  0
  -18.2018  -25.0242   24.1167 C   0  0  0  0  0  0  0  0  0  0  0  0
  -20.6503  -17.0043   21.9402 C   0  0  0  0  0  0  0  0  0  0  0  0
  -18.7763  -25.3300   22.7371 C   0  0  0  0  0  0  0  0  0  0  0  0
  -21.3773  -15.6579   21.9088 C   0  0  0  0  0  0  0  0  0  0  0  0
  -20.3202  -17.5035   20.5347 C   0  0  0  0  0  0  0  0  0  0  0  0
  -22.1876  -16.2112   19.5798 C   0  0  0  0  0  0  0  0  0  0  0  0
  -20.2432  -24.8935   22.6413 C   0  0  1  0  0  0  0  0  0  0  0  0
  -22.4408  -27.8464   23.5817 C   0  0  1  0  0  0  0  0  0  0  0  0
  -22.5988  -15.6988   20.9697 C   0  0  2  0  0  0  0  0  0  0  0  0
  -24.5995  -23.2442   19.1482 C   0  0  0  0  0  0  0  0  0  0  0  0
  -27.3844  -20.1413   16.3545 C   0  0  0  0  0  0  0  0  0  0  0  0
  -25.4389  -18.0445   16.7670 C   0  0  0  0  0  0  0  0  0  0  0  0
  -30.7725  -24.5374   16.2048 C   0  0  0  0  0  0  0  0  0  0  0  0
  -24.1705  -35.3687   22.9296 C   0  0  0  0  0  0  0  0  0  0  0  0
  -20.4665  -30.5136   20.3648 C   0  0  0  0  0  0  0  0  0  0  0  0
  -21.3681  -32.8430   20.1931 C   0  0  0  0  0  0  0  0  0  0  0  0
  -19.9092  -32.2106   22.1152 C   0  0  0  0  0  0  0  0  0  0  0  0
  -30.4667  -23.2427   18.9647 C   0  0  0  0  0  0  0  0  0  0  0  0
  -26.2123  -32.7169   24.7394 C   0  0  0  0  0  0  0  0  0  0  0  0
  -26.9780  -22.7513   17.5410 C   0  0  0  0  0  0  0  0  0  0  0  0
  -29.6488  -23.5932   16.6177 C   0  0  0  0  0  0  0  0  0  0  0  0
  -28.6516  -24.9880   18.5222 C   0  0  0  0  0  0  0  0  0  0  0  0
  -28.2164  -25.1174   19.9807 C   0  0  0  0  0  0  0  0  0  1  0  0
  -22.2771  -31.3303   22.0143 C   0  0  1  0  0  0  0  0  0  0  0  0
  -24.4148  -34.0274   23.6033 C   0  0  2  0  0  0  0  0  0  0  0  0
  -21.0228  -31.7021   21.1740 C   0  0  0  0  0  0  0  0  0  0  0  0
  -29.2476  -23.6236   18.1129 C   0  0  2  0  0  0  0  0  0  0  0  0
  -22.5644  -13.2334   21.0154 N   0  0  0  0  0  0  0  0  0  0  0  0
  -23.2971  -14.3538   20.8966 N   0  0  0  0  0  0  0  0  0  0  0  0
  -22.7868  -29.0448   22.8147 N   0  0  0  0  0  0  0  0  0  0  0  0
  -21.5257  -17.5194   19.7032 N   0  0  0  0  0  0  0  0  0  0  0  0
  -25.5092  -15.1393   20.5804 N   0  0  0  0  0  0  0  0  0  0  0  0
  -25.9895  -10.6487   20.5898 N   0  0  0  0  0  0  0  0  0  0  0  0
  -23.1203  -18.6272   18.3644 N   0  0  0  0  0  0  0  0  0  0  0  0
  -21.0999  -25.8501   23.3088 N   0  0  0  0  0  0  0  0  0  0  0  0
  -22.8094  -32.4297   22.8119 N   0  0  0  0  0  0  0  0  0  0  0  0
  -25.8386  -33.9734   24.0403 N   0  3  0  0  0  0  0  0  0  0  0  0
  -28.2103  -22.5636   18.3415 N   0  3  0  0  0  0  0  0  0  0  0  0
  -27.1122  -12.6410   20.4197 O   0  0  0  0  0  0  0  0  0  0  0  0
  -21.3372  -27.3598   21.5518 O   0  0  0  0  0  0  0  0  0  0  0  0
  -21.1471  -30.3396   23.8495 O   0  0  0  0  0  0  0  0  0  0  0  0
  -24.9325  -32.4157   21.8795 O   0  0  0  0  0  0  0  0  0  0  0  0
  -21.3184  -19.7794   19.2629 O   0  0  0  0  0  0  0  0  0  0  0  0
  -21.9133   -6.9019   21.2075 O   0  0  0  0  0  0  0  0  0  0  0  0
  -27.7254  -26.4406   20.1914 O   0  0  0  0  0  0  0  0  0  1  0  0
  -24.9501   -3.5167   24.3256 F   0  0  0  0  0  0  0  0  0  0  0  0
  -20.7945   -5.5633   23.3521 F   0  0  0  0  0  0  0  0  0  0  0  0
  1  2  1  0  0  0  0
  1  5  2  0  0  0  0
  2  6  2  0  0  0  0
  3  8  2  0  0  0  0
  3 16  1  0  0  0  0
  4  9  1  0  0  0  0
  4 16  2  0  0  0  0
  5 18  1  0  0  0  0
  6 20  1  0  0  0  0
  7 10  2  0  0  0  0
  7 19  1  0  0  0  0
  8 27  1  0  0  0  0
  9 27  2  0  0  0  0
 10 28  1  0  0  0  0
 11 12  2  0  0  0  0
 11 29  1  0  0  0  0
 12 30  1  0  0  0  0
 13 21  1  0  0  0  0
 13 28  2  0  0  0  0
 14 22  2  0  0  0  0
 14 26  1  0  0  0  0
 15 30  2  0  0  0  0
 15 31  1  0  0  0  0
 16 32  1  0  0  0  0
 17 32  1  0  0  0  0
 17 33  2  0  0  0  0
 17 34  1  0  0  0  0
 18 20  2  0  0  0  0
 18 39  1  0  0  0  0
 19 21  2  0  0  0  0
 19 40  1  0  0  0  0
 20 48  1  0  0  0  0
 21 41  1  0  0  0  0
 22 24  1  0  0  0  0
 22 51  1  0  0  0  0
 23 24  2  0  0  0  0
 23 25  1  0  0  0  0
 23 52  1  0  0  0  0
 24 61  1  0  0  0  0
 25 26  2  0  0  0  0
 25 53  1  0  0  0  0
 26 75  1  0  0  0  0
 27 85  1  0  0  0  0
 28 86  1  0  0  0  0
 29 31  2  0  0  0  0
 29 85  1  0  0  0  0
 30 87  1  0  0  0  0
 31 88  1  0  0  0  0
 32 69  2  0  0  0  0
 33 70  1  0  0  0  0
 33 73  1  0  0  0  0
 34 74  1  0  0  0  0
 34 80  2  0  0  0  0
 35 49  1  0  0  0  0
 35 76  1  0  0  0  0
 35 81  2  0  0  0  0
 36 65  1  0  0  0  0
 36 71  1  0  0  0  0
 36 82  2  0  0  0  0
 37 66  1  0  0  0  0
 37 77  1  0  0  0  0
 37 83  2  0  0  0  0
 38 72  1  0  0  0  0
 38 75  1  0  0  0  0
 38 84  2  0  0  0  0
 39 42  1  0  0  0  0
 40 49  1  0  0  0  0
 41 71  1  0  0  0  0
 42 44  1  0  0  0  0
 43 45  1  0  0  0  0
 43 46  1  0  0  0  0
 44 48  1  0  0  0  0
 45 50  1  0  0  0  0
 46 72  1  0  0  0  0
 47 50  1  0  0  0  0
 47 72  1  0  0  0  0
 48 76  1  0  0  0  0
 49 71  1  0  0  0  0
 50 70  1  0  0  0  0
 54 62  1  0  0  0  0
 55 66  1  0  0  0  0
 56 67  1  0  0  0  0
 57 67  1  0  0  0  0
 58 67  1  0  0  0  0
 59 68  1  0  0  0  0
 60 78  1  0  0  0  0
 61 79  1  0  0  0  0
 62 68  1  0  0  0  0
 63 64  1  0  0  0  0
 63 68  1  0  0  0  0
 64 86  1  0  0  0  0
 65 67  1  0  0  0  0
 65 77  1  0  0  0  0
 66 78  1  0  0  0  0
 68 79  1  0  0  0  0
 69 70  1  0  0  0  0
M  CHG  2  78   1  79   1
M  ISO  4  38 100  64 101  75 100  86 101
M  END
> <Batch ID>
0016

> <Smiles>
CCC(C)(C[101CH2:1][101O:1]c1ccc2c(c1)CN(C(=O)C(NC(=O)C(C)NC)C(C)(C)C)C(C(=O)NC1CCCc3ccccc31)C2)NCc1c(C)cc([100NH:0][100C:0](=O)N2CCCC(n3nc(-c4ccc(Oc5ccc(F)cc5F)cc4)c(C(N)=O)c3N)C2)c(C)c1C

> <Shape>
0.218

> <Color>
0.102

> <Negative vol penalty>
0.000

$$$$

  -OEChem-04052315583D

 80 88  0     1  0  0  0  0  0999 V2000
  -20.5677  -17.5392   23.1067 C   0  0  0  0  0  0  0  0  0  0  0  0
  -21.8537  -17.0630   23.3408 C   0  0  0  0  0  0  0  0  0  0  0  0
  -23.2867   -9.8009   19.9132 C   0  0  0  0  0  0  0  0  0  0  0  0
  -23.7379   -9.9420   22.2825 C   0  0  0  0  0  0  0  0  0  0  0  0
  -19.7432  -17.8737   24.1802 C   0  0  0  0  0  0  0  0  0  0  0  0
  -22.3164  -16.9219   24.6487 C   0  0  0  0  0  0  0  0  0  0  0  0
  -24.7168  -12.5260   25.3966 C   0  0  0  0  0  0  0  0  0  0  0  0
  -22.5603   -8.6285   20.1214 C   0  0  0  0  0  0  0  0  0  0  0  0
  -23.0115   -8.7696   22.4907 C   0  0  0  0  0  0  0  0  0  0  0  0
  -26.0270  -12.4287   24.9302 C   0  0  0  0  0  0  0  0  0  0  0  0
  -20.2837   -5.7948   20.0749 C   0  0  0  0  0  0  0  0  0  0  0  0
  -19.0562   -5.6683   19.4247 C   0  0  0  0  0  0  0  0  0  0  0  0
  -26.8455  -12.8311   27.1634 C   0  0  0  0  0  0  0  0  0  0  0  0
  -18.2499   -7.6409   20.5632 C   0  0  0  0  0  0  0  0  0  0  0  0
  -23.8756  -10.4577   20.9938 C   0  0  0  0  0  0  0  0  0  0  0  0
  -24.1350  -12.9876   20.7946 C   0  0  0  0  0  0  0  0  0  0  0  0
  -20.1926  -17.7275   25.5021 C   0  0  0  0  0  0  0  0  0  0  0  0
  -24.4607  -12.7880   26.7502 C   0  0  0  0  0  0  0  0  0  0  0  0
  -21.4977  -17.2560   25.7408 C   0  0  0  0  0  0  0  0  0  0  0  0
  -25.5311  -12.9288   27.6450 C   0  0  0  0  0  0  0  0  0  0  0  0
  -31.7206  -14.9430   23.8157 C   0  0  0  0  0  0  0  0  0  0  0  0
  -22.4227   -8.1128   21.4101 C   0  0  0  0  0  0  0  0  0  0  0  0
  -27.0917  -12.5841   25.8131 C   0  0  0  0  0  0  0  0  0  0  0  0
  -20.4943   -6.8443   20.9694 C   0  0  0  0  0  0  0  0  0  0  0  0
  -18.0393   -6.5914   19.6688 C   0  0  0  0  0  0  0  0  0  0  0  0
  -19.4774   -7.7673   21.2135 C   0  0  0  0  0  0  0  0  0  0  0  0
  -24.6265  -11.6686   20.7793 C   0  0  0  0  0  0  0  0  0  0  0  0
  -32.0267  -15.1606   25.1725 C   0  0  0  0  0  0  0  0  0  0  0  0
  -25.2365  -13.7674   20.5392 C   0  0  0  0  0  0  0  0  0  0  0  0
  -31.1784  -13.6815   23.7841 C   0  0  0  0  0  0  0  0  0  0  0  0
  -22.8021  -13.4654   21.0196 C   0  0  0  0  0  0  0  0  0  0  0  0
  -23.0225  -15.1287   28.3490 C   0  0  0  0  0  0  0  0  0  0  0  0
  -23.5183  -13.1719   30.8881 C   0  0  0  0  0  0  0  0  0  0  0  0
  -25.3278  -10.6360   32.2817 C   0  0  0  0  0  0  0  0  0  0  0  0
  -31.0970  -12.9529   21.3740 C   0  0  0  0  0  0  0  0  0  0  0  0
  -19.2821  -18.1467   26.6290 C   0  0  0  0  0  0  0  0  0  0  0  0
  -23.0414  -12.8635   27.2425 C   0  0  0  0  0  0  0  0  0  0  0  0
  -25.3096  -13.1911   29.1115 C   0  0  0  0  0  0  0  0  0  0  0  0
  -19.7151  -17.6138   27.9923 C   0  0  0  0  0  0  0  0  0  0  0  0
  -29.4629  -13.6569   18.2899 C   0  0  0  0  0  0  0  0  0  0  0  0
  -21.2115  -17.8268   28.1981 C   0  0  0  0  0  0  0  0  0  0  0  0
  -27.9916  -13.3528   18.5815 C   0  0  0  0  0  0  0  0  0  0  0  0
  -30.3962  -12.6818   19.0053 C   0  0  0  0  0  0  0  0  0  0  0  0
  -28.7033  -12.2541   20.7433 C   0  0  0  0  0  0  0  0  0  0  0  0
  -22.0269  -17.0657   27.1458 C   0  0  1  0  0  0  0  0  0  0  0  0
  -22.9018  -13.6440   28.5458 C   0  0  1  0  0  0  0  0  0  0  0  0
  -27.7269  -13.2500   20.0964 C   0  0  2  0  0  0  0  0  0  0  0  0
  -31.9340  -15.8622   22.6837 C   0  0  0  0  0  0  0  0  0  0  0  0
  -32.6327  -16.3583   25.7809 C   0  0  0  0  0  0  0  0  0  0  0  0
  -25.5230   -9.2795   34.3839 C   0  0  0  0  0  0  0  0  0  0  0  0
  -24.8734  -15.5257   32.2784 C   0  0  0  0  0  0  0  0  0  0  0  0
  -25.8605  -13.9037   33.9103 C   0  0  0  0  0  0  0  0  0  0  0  0
  -23.3842  -14.1603   33.7522 C   0  0  0  0  0  0  0  0  0  0  0  0
  -24.7490   -8.1137   30.8458 C   0  0  0  0  0  0  0  0  0  0  0  0
  -30.7034  -11.9025   25.5811 C   0  0  0  0  0  0  0  0  0  0  0  0
  -29.3513  -12.0065   26.2782 C   0  0  0  0  0  0  0  0  0  1  0  0
  -24.6296  -12.9845   31.8926 C   0  0  1  0  0  0  0  0  0  0  0  0
  -24.8991   -9.3692   32.9999 C   0  0  2  0  0  0  0  0  0  0  0  0
  -24.6915  -14.1406   32.9304 C   0  0  0  0  0  0  0  0  0  0  0  0
  -25.9381  -11.6098   20.5336 N   0  0  0  0  0  0  0  0  0  0  0  0
  -31.7055  -14.1207   25.9467 N   0  0  0  0  0  0  0  0  0  0  0  0
  -26.2801  -12.9017   20.3919 N   0  0  0  0  0  0  0  0  0  0  0  0
  -31.1918  -13.2375   25.0737 N   0  0  0  0  0  0  0  0  0  0  0  0
  -23.9038  -13.2626   29.5431 N   0  0  0  0  0  0  0  0  0  0  0  0
  -30.0897  -12.6401   20.4368 N   0  0  0  0  0  0  0  0  0  0  0  0
  -25.4045  -15.1023   20.4285 N   0  0  0  0  0  0  0  0  0  0  0  0
  -21.7895  -12.5286   21.2674 N   0  0  0  0  0  0  0  0  0  0  0  0
  -30.6800  -12.9116   22.7040 N   0  0  0  0  0  0  0  0  0  0  0  0
  -22.0908  -15.6583   27.4767 N   0  0  0  0  0  0  0  0  0  0  0  0
  -24.4306  -11.6641   32.4800 N   0  0  0  0  0  0  0  0  0  0  0  0
  -25.3102   -8.1674   32.2203 N   0  3  0  0  0  0  0  0  0  0  0  0
  -22.5142  -14.6858   20.9851 O   0  0  0  0  0  0  0  0  0  0  0  0
  -23.8954  -15.7483   28.9456 O   0  0  0  0  0  0  0  0  0  0  0  0
  -22.3506  -13.2282   31.2817 O   0  0  0  0  0  0  0  0  0  0  0  0
  -26.3577  -10.7076   31.6148 O   0  0  0  0  0  0  0  0  0  0  0  0
  -32.2378  -13.2631   21.0213 O   0  0  0  0  0  0  0  0  0  0  0  0
  -21.7137   -6.9689   21.6136 O   0  0  0  0  0  0  0  0  0  0  0  0
  -28.3715  -12.4901   25.3603 O   0  0  0  0  0  0  0  0  0  1  0  0
  -16.8611   -6.4707   19.0431 F   0  0  0  0  0  0  0  0  0  0  0  0
  -19.6742   -8.7783   22.0708 F   0  0  0  0  0  0  0  0  0  0  0  0
  1  2  1  0  0  0  0
  1  5  2  0  0  0  0
  2  6  2  0  0  0  0
  3  8  2  0  0  0  0
  3 15  1  0  0  0  0
  4  9  1  0  0  0  0
  4 15  2  0  0  0  0
  5 17  1  0  0  0  0
  6 19  1  0  0  0  0
  7 10  2  0  0  0  0
  7 18  1  0  0  0  0
  8 22  1  0  0  0  0
  9 22  2  0  0  0  0
 10 23  1  0  0  0  0
 11 12  2  0  0  0  0
 11 24  1  0  0  0  0
 12 25  1  0  0  0  0
 13 20  1  0  0  0  0
 13 23  2  0  0  0  0
 14 25  2  0  0  0  0
 14 26  1  0  0  0  0
 15 27  1  0  0  0  0
 16 27  1  0  0  0  0
 16 29  2  0  0  0  0
 16 31  1  0  0  0  0
 17 19  2  0  0  0  0
 17 36  1  0  0  0  0
 18 20  2  0  0  0  0
 18 37  1  0  0  0  0
 19 45  1  0  0  0  0
 20 38  1  0  0  0  0
 21 28  1  0  0  0  0
 21 30  2  0  0  0  0
 21 48  1  0  0  0  0
 22 77  1  0  0  0  0
 23 78  1  0  0  0  0
 24 26  2  0  0  0  0
 24 77  1  0  0  0  0
 25 79  1  0  0  0  0
 26 80  1  0  0  0  0
 27 60  2  0  0  0  0
 28 49  1  0  0  0  0
 28 61  2  0  0  0  0
 29 62  1  0  0  0  0
 29 66  1  0  0  0  0
 30 63  1  0  0  0  0
 30 68  1  0  0  0  0
 31 67  1  0  0  0  0
 31 72  2  0  0  0  0
 32 46  1  0  0  0  0
 32 69  1  0  0  0  0
 32 73  2  0  0  0  0
 33 57  1  0  0  0  0
 33 64  1  0  0  0  0
 33 74  2  0  0  0  0
 34 58  1  0  0  0  0
 34 70  1  0  0  0  0
 34 75  2  0  0  0  0
 35 65  1  0  0  0  0
 35 68  1  0  0  0  0
 35 76  2  0  0  0  0
 36 39  1  0  0  0  0
 37 46  1  0  0  0  0
 38 64  1  0  0  0  0
 39 41  1  0  0  0  0
 40 42  1  0  0  0  0
 40 43  1  0  0  0  0
 41 45  1  0  0  0  0
 42 47  1  0  0  0  0
 43 65  1  0  0  0  0
 44 47  1  0  0  0  0
 44 65  1  0  0  0  0
 45 69  1  0  0  0  0
 46 64  1  0  0  0  0
 47 62  1  0  0  0  0
 50 58  1  0  0  0  0
 51 59  1  0  0  0  0
 52 59  1  0  0  0  0
 53 59  1  0  0  0  0
 54 71  1  0  0  0  0
 55 56  1  0  0  0  0
 55 63  1  0  0  0  0
 56 78  1  0  0  0  0
 57 59  1  0  0  0  0
 57 70  1  0  0  0  0
 58 71  1  0  0  0  0
 60 62  1  0  0  0  0
 61 63  1  0  0  0  0
M  CHG  1  71   1
M  ISO  4  35 100  56 101  68 100  78 101
M  END
> <Batch ID>
0016

> <Smiles>
CNC(C)C(=O)NC(C(=O)N1Cc2cc([101O:1][101CH2:1]Cn3nc(C)c(C)c3[100NH:0][100C:0](=O)N3CCCC(n4nc(-c5ccc(Oc6ccc(F)cc6F)cc5)c(C(N)=O)c4N)C3)ccc2CC1C(=O)NC1CCCc2ccccc21)C(C)(C)C

> <Shape>
0.123

> <Color>
0.178

> <Negative vol penalty>
0.000

$$$$

  -OEChem-04052315583D

 85 93  0     1  0  0  0  0  0999 V2000
  -30.1124  -25.2865   17.5340 C   0  0  0  0  0  0  0  0  0  0  0  0
  -28.7305  -25.2800   17.6940 C   0  0  0  0  0  0  0  0  0  0  0  0
  -26.6450  -13.1816   20.0143 C   0  0  0  0  0  0  0  0  0  0  0  0
  -24.4585  -13.6746   20.9162 C   0  0  0  0  0  0  0  0  0  0  0  0
  -30.9255  -25.8298   18.5278 C   0  0  0  0  0  0  0  0  0  0  0  0
  -28.1609  -25.8159   18.8485 C   0  0  0  0  0  0  0  0  0  0  0  0
  -22.8288  -28.7972   19.2808 C   0  0  0  0  0  0  0  0  0  0  0  0
  -26.5221  -11.8588   20.4394 C   0  0  0  0  0  0  0  0  0  0  0  0
  -24.3355  -12.3518   21.3412 C   0  0  0  0  0  0  0  0  0  0  0  0
  -21.5545  -28.3882   19.6717 C   0  0  0  0  0  0  0  0  0  0  0  0
  -23.5865   -9.3557   19.9689 C   0  0  0  0  0  0  0  0  0  0  0  0
  -22.3752   -8.7084   19.7255 C   0  0  0  0  0  0  0  0  0  0  0  0
  -21.9833  -29.2039   21.9010 C   0  0  0  0  0  0  0  0  0  0  0  0
  -24.2001  -23.0836   23.4312 C   0  0  0  0  0  0  0  0  0  0  0  0
  -22.0799   -8.3685   22.0992 C   0  0  0  0  0  0  0  0  0  0  0  0
  -25.6132  -14.0895   20.2528 C   0  0  0  0  0  0  0  0  0  0  0  0
  -25.3478  -15.9904   18.5724 C   0  0  0  0  0  0  0  0  0  0  0  0
  -30.3651  -26.3813   19.6907 C   0  0  0  0  0  0  0  0  0  0  0  0
  -23.6954  -29.4037   20.2015 C   0  0  0  0  0  0  0  0  0  0  0  0
  -28.9674  -26.3658   19.8594 C   0  0  0  0  0  0  0  0  0  0  0  0
  -23.2671  -29.6219   21.5187 C   0  0  0  0  0  0  0  0  0  0  0  0
  -23.1573  -24.0047   23.5288 C   0  0  0  0  0  0  0  0  0  0  0  0
  -22.6197  -21.2702   23.6570 C   0  0  0  0  0  0  0  0  0  0  0  0
  -21.5768  -22.1914   23.7547 C   0  0  0  0  0  0  0  0  0  0  0  0
  -23.9314  -21.7164   23.4952 C   0  0  0  0  0  0  0  0  0  0  0  0
  -25.3673  -11.4438   21.1028 C   0  0  0  0  0  0  0  0  0  0  0  0
  -21.1326  -28.5890   20.9827 C   0  0  0  0  0  0  0  0  0  0  0  0
  -24.0445   -9.5094   21.2775 C   0  0  0  0  0  0  0  0  0  0  0  0
  -21.8456  -23.5586   23.6906 C   0  0  0  0  0  0  0  0  0  0  0  0
  -21.6218   -8.2148   20.7907 C   0  0  0  0  0  0  0  0  0  0  0  0
  -23.2912   -9.0159   22.3426 C   0  0  0  0  0  0  0  0  0  0  0  0
  -25.7398  -15.4562   19.8144 C   0  0  0  0  0  0  0  0  0  0  0  0
  -25.6792  -17.3210   18.6509 C   0  0  0  0  0  0  0  0  0  0  0  0
  -24.7384  -15.3419   17.4482 C   0  0  0  0  0  0  0  0  0  0  0  0
  -26.5427  -28.6799   21.4148 C   0  0  0  0  0  0  0  0  0  0  0  0
  -26.2826  -31.6194   22.7616 C   0  0  0  0  0  0  0  0  0  0  0  0
  -24.2544  -34.1479   23.8291 C   0  0  0  0  0  0  0  0  0  0  0  0
  -26.3587  -21.0953   23.2332 C   0  0  0  0  0  0  0  0  0  0  0  0
  -31.2872  -26.9144   20.7585 C   0  0  0  0  0  0  0  0  0  0  0  0
  -25.0569  -29.8633   19.7571 C   0  0  0  0  0  0  0  0  0  0  0  0
  -24.1517  -30.2869   22.5403 C   0  0  0  0  0  0  0  0  0  0  0  0
  -30.5842  -27.8008   21.7834 C   0  0  0  0  0  0  0  0  0  0  0  0
  -28.7908  -20.2869   20.7617 C   0  0  0  0  0  0  0  0  0  0  0  0
  -29.2877  -27.1487   22.2532 C   0  0  0  0  0  0  0  0  0  0  0  0
  -28.2457  -19.0084   20.1211 C   0  0  0  0  0  0  0  0  0  0  0  0
  -28.5152  -20.3308   22.2636 C   0  0  0  0  0  0  0  0  0  0  0  0
  -26.5667  -18.8461   22.0031 C   0  0  0  0  0  0  0  0  0  0  0  0
  -28.3106  -26.9601   21.0865 C   0  0  1  0  0  0  0  0  0  0  0  0
  -26.0455  -30.0050   20.9104 C   0  0  1  0  0  0  0  0  0  0  0  0
  -26.7631  -18.7865   20.4794 C   0  0  2  0  0  0  0  0  0  0  0  0
  -23.4646  -25.4645   23.4601 C   0  0  0  0  0  0  0  0  0  0  0  0
  -22.3291  -19.8035   23.7270 C   0  0  0  0  0  0  0  0  0  0  0  0
  -20.1679  -21.7208   23.9305 C   0  0  0  0  0  0  0  0  0  0  0  0
  -24.3297  -36.4062   24.9209 C   0  0  0  0  0  0  0  0  0  0  0  0
  -26.8293  -30.2958   25.4559 C   0  0  0  0  0  0  0  0  0  0  0  0
  -25.9652  -32.3651   26.5692 C   0  0  0  0  0  0  0  0  0  0  0  0
  -27.9885  -32.4854   25.1150 C   0  0  0  0  0  0  0  0  0  0  0  0
  -22.9953  -35.4501   21.4885 C   0  0  0  0  0  0  0  0  0  0  0  0
  -18.3785  -26.3246   21.6252 C   0  0  0  0  0  0  0  0  0  0  0  0
  -19.0834  -25.8462   22.8897 C   0  0  0  0  0  0  0  0  0  0  0  0
  -19.3328  -27.0614   20.6947 C   0  0  0  0  0  0  0  0  0  1  0  0
  -20.1982  -24.8595   22.5728 C   0  0  0  0  0  0  0  0  0  0  0  0
  -25.7172  -32.1570   24.0540 C   0  0  1  0  0  0  0  0  0  0  0  0
  -24.3105  -35.6480   23.6028 C   0  0  2  0  0  0  0  0  0  0  0  0
  -26.6089  -31.8115   25.2800 C   0  0  0  0  0  0  0  0  0  0  0  0
  -26.2793  -16.3726   20.6227 N   0  0  0  0  0  0  0  0  0  0  0  0
  -26.2286  -17.4960   19.8869 N   0  0  0  0  0  0  0  0  0  0  0  0
  -25.4763  -30.7128   22.0590 N   0  0  0  0  0  0  0  0  0  0  0  0
  -27.0904  -20.1173   22.5268 N   0  0  0  0  0  0  0  0  0  0  0  0
  -25.5515  -18.3467   17.7824 N   0  0  0  0  0  0  0  0  0  0  0  0
  -24.4658  -13.9699   17.5354 N   0  0  0  0  0  0  0  0  0  0  0  0
  -25.0059  -20.7981   23.3949 N   0  0  0  0  0  0  0  0  0  0  0  0
  -27.6663  -28.2140   20.7591 N   0  0  0  0  0  0  0  0  0  0  0  0
  -25.5137  -33.5867   23.8471 N   0  0  0  0  0  0  0  0  0  0  0  0
  -23.1256  -36.0982   22.8189 N   0  3  0  0  0  0  0  0  0  0  0  0
  -24.4593  -15.9573   16.3914 O   0  0  0  0  0  0  0  0  0  0  0  0
  -25.9517  -28.1222   22.3321 O   0  0  0  0  0  0  0  0  0  0  0  0
  -27.3956  -31.9957   22.3856 O   0  0  0  0  0  0  0  0  0  0  0  0
  -23.1992  -33.5359   23.9789 O   0  0  0  0  0  0  0  0  0  0  0  0
  -26.8870  -22.1335   23.6394 O   0  0  0  0  0  0  0  0  0  0  0  0
  -25.2469  -10.1531   21.5175 O   0  0  0  0  0  0  0  0  0  0  0  0
  -19.8896  -28.1902   21.3671 O   0  0  0  0  0  0  0  0  0  1  0  0
  -20.8221  -24.4654   23.7871 O   0  0  0  0  0  0  0  0  0  0  0  0
  -20.4579   -7.5945   20.5569 F   0  0  0  0  0  0  0  0  0  0  0  0
  -23.7255   -9.1616   23.6019 F   0  0  0  0  0  0  0  0  0  0  0  0
  1  2  1  0  0  0  0
  1  5  2  0  0  0  0
  2  6  2  0  0  0  0
  3  8  2  0  0  0  0
  3 16  1  0  0  0  0
  4  9  1  0  0  0  0
  4 16  2  0  0  0  0
  5 18  1  0  0  0  0
  6 20  1  0  0  0  0
  7 10  2  0  0  0  0
  7 19  1  0  0  0  0
  8 26  1  0  0  0  0
  9 26  2  0  0  0  0
 10 27  1  0  0  0  0
 11 12  2  0  0  0  0
 11 28  1  0  0  0  0
 12 30  1  0  0  0  0
 13 21  1  0  0  0  0
 13 27  2  0  0  0  0
 14 22  2  0  0  0  0
 14 25  1  0  0  0  0
 15 30  2  0  0  0  0
 15 31  1  0  0  0  0
 16 32  1  0  0  0  0
 17 32  1  0  0  0  0
 17 33  2  0  0  0  0
 17 34  1  0  0  0  0
 18 20  2  0  0  0  0
 18 39  1  0  0  0  0
 19 21  2  0  0  0  0
 19 40  1  0  0  0  0
 20 48  1  0  0  0  0
 21 41  1  0  0  0  0
 22 29  1  0  0  0  0
 22 51  1  0  0  0  0
 23 24  1  0  0  0  0
 23 25  2  0  0  0  0
 23 52  1  0  0  0  0
 24 29  2  0  0  0  0
 24 53  1  0  0  0  0
 25 72  1  0  0  0  0
 26 81  1  0  0  0  0
 27 82  1  0  0  0  0
 28 31  2  0  0  0  0
 28 81  1  0  0  0  0
 29 83  1  0  0  0  0
 30 84  1  0  0  0  0
 31 85  1  0  0  0  0
 32 66  2  0  0  0  0
 33 67  1  0  0  0  0
 33 70  1  0  0  0  0
 34 71  1  0  0  0  0
 34 76  2  0  0  0  0
 35 49  1  0  0  0  0
 35 73  1  0  0  0  0
 35 77  2  0  0  0  0
 36 63  1  0  0  0  0
 36 68  1  0  0  0  0
 36 78  2  0  0  0  0
 37 64  1  0  0  0  0
 37 74  1  0  0  0  0
 37 79  2  0  0  0  0
 38 69  1  0  0  0  0
 38 72  1  0  0  0  0
 38 80  2  0  0  0  0
 39 42  1  0  0  0  0
 40 49  1  0  0  0  0
 41 68  1  0  0  0  0
 42 44  1  0  0  0  0
 43 45  1  0  0  0  0
 43 46  1  0  0  0  0
 44 48  1  0  0  0  0
 45 50  1  0  0  0  0
 46 69  1  0  0  0  0
 47 50  1  0  0  0  0
 47 69  1  0  0  0  0
 48 73  1  0  0  0  0
 49 68  1  0  0  0  0
 50 67  1  0  0  0  0
 54 64  1  0  0  0  0
 55 65  1  0  0  0  0
 56 65  1  0  0  0  0
 57 65  1  0  0  0  0
 58 75  1  0  0  0  0
 59 60  1  0  0  0  0
 59 61  1  0  0  0  0
 60 62  1  0  0  0  0
 61 82  1  0  0  0  0
 62 83  1  0  0  0  0
 63 65  1  0  0  0  0
 63 74  1  0  0  0  0
 64 75  1  0  0  0  0
 66 67  1  0  0  0  0
M  CHG  1  75   1
M  ISO  4  38 100  61 101  72 100  82 101
M  END
> <Batch ID>
0016

> <Smiles>
CNC(C)C(=O)NC(C(=O)N1Cc2cc([101O:1][101CH2:1]CCCOc3c(C)cc([100NH:0][100C:0](=O)N4CCCC(n5nc(-c6ccc(Oc7ccc(F)cc7F)cc6)c(C(N)=O)c5N)C4)c(C)c3C)ccc2CC1C(=O)NC1CCCc2ccccc21)C(C)(C)C

> <Shape>
0.316

> <Color>
0.089

> <Negative vol penalty>
0.000

$$$$

  -OEChem-04052315583D

 85 93  0     1  0  0  0  0  0999 V2000
  -19.4320  -29.0250   19.3807 C   0  0  0  0  0  0  0  0  0  0  0  0
  -20.6712  -28.4602   19.6650 C   0  0  0  0  0  0  0  0  0  0  0  0
  -23.0088   -9.9538   20.0114 C   0  0  0  0  0  0  0  0  0  0  0  0
  -23.7550  -10.0074   22.3086 C   0  0  0  0  0  0  0  0  0  0  0  0
  -18.3993  -28.9430   20.3137 C   0  0  0  0  0  0  0  0  0  0  0  0
  -20.8787  -27.8138   20.8830 C   0  0  0  0  0  0  0  0  0  0  0  0
  -24.3950  -22.9024   21.8925 C   0  0  0  0  0  0  0  0  0  0  0  0
  -22.2150   -8.8425   20.2952 C   0  0  0  0  0  0  0  0  0  0  0  0
  -22.9612   -8.8961   22.5925 C   0  0  0  0  0  0  0  0  0  0  0  0
  -25.6922  -22.7625   22.3838 C   0  0  0  0  0  0  0  0  0  0  0  0
  -19.6986   -8.2570   23.1985 C   0  0  0  0  0  0  0  0  0  0  0  0
  -18.9339   -8.2895   24.3646 C   0  0  0  0  0  0  0  0  0  0  0  0
  -24.8062  -22.3558   24.5903 C   0  0  0  0  0  0  0  0  0  0  0  0
  -20.0874   -6.3277   25.1757 C   0  0  0  0  0  0  0  0  0  0  0  0
  -31.0847  -18.9214   20.1393 C   0  0  0  0  0  0  0  0  0  0  0  0
  -23.7788  -10.5362   21.0181 C   0  0  0  0  0  0  0  0  0  0  0  0
  -24.2286  -13.0390   20.8144 C   0  0  0  0  0  0  0  0  0  0  0  0
  -18.5912  -28.2869   21.5398 C   0  0  0  0  0  0  0  0  0  0  0  0
  -23.2921  -22.7806   22.7500 C   0  0  0  0  0  0  0  0  0  0  0  0
  -19.8479  -27.7241   21.8339 C   0  0  0  0  0  0  0  0  0  0  0  0
  -23.4959  -22.4920   24.1069 C   0  0  0  0  0  0  0  0  0  0  0  0
  -30.3148  -17.6795   22.5158 C   0  0  0  0  0  0  0  0  0  0  0  0
  -30.5379  -19.0562   22.4887 C   0  0  0  0  0  0  0  0  0  0  0  0
  -30.4767  -16.9238   21.3546 C   0  0  0  0  0  0  0  0  0  0  0  0
  -22.1912   -8.3136   21.5857 C   0  0  0  0  0  0  0  0  0  0  0  0
  -25.8981  -22.4921   23.7335 C   0  0  0  0  0  0  0  0  0  0  0  0
  -20.6577   -7.2598   23.0210 C   0  0  0  0  0  0  0  0  0  0  0  0
  -19.1283   -7.3249   25.3532 C   0  0  0  0  0  0  0  0  0  0  0  0
  -20.8521   -6.2952   24.0095 C   0  0  0  0  0  0  0  0  0  0  0  0
  -30.9229  -19.6771   21.3004 C   0  0  0  0  0  0  0  0  0  0  0  0
  -30.8616  -17.5447   20.1663 C   0  0  0  0  0  0  0  0  0  0  0  0
  -24.5994  -11.6839   20.7254 C   0  0  0  0  0  0  0  0  0  0  0  0
  -25.3538  -13.7286   20.4337 C   0  0  0  0  0  0  0  0  0  0  0  0
  -22.9789  -13.6223   21.2063 C   0  0  0  0  0  0  0  0  0  0  0  0
  -20.9466  -24.7156   23.6764 C   0  0  0  0  0  0  0  0  0  0  0  0
  -19.8401  -22.0381   25.1354 C   0  0  0  0  0  0  0  0  0  0  0  0
  -20.5233  -18.9694   26.4633 C   0  0  0  0  0  0  0  0  0  0  0  0
  -30.8584  -14.5470   20.6121 C   0  0  0  0  0  0  0  0  0  0  0  0
  -17.4594  -28.2648   22.5364 C   0  0  0  0  0  0  0  0  0  0  0  0
  -21.8982  -22.9078   22.1992 C   0  0  0  0  0  0  0  0  0  0  0  0
  -22.3449  -22.3318   25.0651 C   0  0  0  0  0  0  0  0  0  0  0  0
  -17.6472  -27.2364   23.6487 C   0  0  0  0  0  0  0  0  0  0  0  0
  -29.6559  -12.1025   18.3196 C   0  0  0  0  0  0  0  0  0  0  0  0
  -19.0624  -27.3125   24.2128 C   0  0  0  0  0  0  0  0  0  0  0  0
  -28.2027  -11.8871   18.7485 C   0  0  0  0  0  0  0  0  0  0  0  0
  -30.5730  -12.3335   19.5193 C   0  0  0  0  0  0  0  0  0  0  0  0
  -28.6907  -13.1852   20.8612 C   0  0  0  0  0  0  0  0  0  0  0  0
  -20.1042  -26.9931   23.1339 C   0  0  1  0  0  0  0  0  0  0  0  0
  -20.8668  -23.2735   23.2621 C   0  0  1  0  0  0  0  0  0  0  0  0
  -27.7182  -13.0129   19.6830 C   0  0  2  0  0  0  0  0  0  0  0  0
  -29.9032  -17.0210   23.7957 C   0  0  0  0  0  0  0  0  0  0  0  0
  -19.4209  -17.0321   27.6161 C   0  0  0  0  0  0  0  0  0  0  0  0
  -28.9902  -19.9776   26.5148 C   0  0  0  0  0  0  0  0  0  0  0  0
  -19.7250  -23.6477   27.7249 C   0  0  0  0  0  0  0  0  0  0  0  0
  -19.5493  -21.4874   28.9781 C   0  0  0  0  0  0  0  0  0  0  0  0
  -17.7714  -22.1316   27.3513 C   0  0  0  0  0  0  0  0  0  0  0  0
  -21.2664  -17.1033   24.2896 C   0  0  0  0  0  0  0  0  0  0  0  0
  -30.3698  -19.8895   23.7249 C   0  0  0  0  0  0  0  0  0  0  0  0
  -27.3426  -21.4842   25.3314 C   0  0  0  0  0  0  0  0  0  1  0  0
  -20.0336  -21.4012   26.4904 C   0  0  1  0  0  0  0  0  0  0  0  0
  -19.8507  -17.6207   26.2813 C   0  0  2  0  0  0  0  0  0  0  0  0
  -28.7533  -20.9061   25.3349 C   0  0  2  0  0  0  0  0  0  0  0  0
  -19.2918  -22.1719   27.6188 C   0  0  0  0  0  0  0  0  0  0  0  0
  -25.8614  -11.5202   20.3198 N   0  0  0  0  0  0  0  0  0  0  0  0
  -26.2934  -12.7815   20.1505 N   0  0  0  0  0  0  0  0  0  0  0  0
  -21.0013  -22.4714   24.4798 N   0  0  0  0  0  0  0  0  0  0  0  0
  -30.0534  -13.4167   20.3569 N   0  0  0  0  0  0  0  0  0  0  0  0
  -25.6211  -15.0466   20.3168 N   0  0  0  0  0  0  0  0  0  0  0  0
  -21.9272  -12.7690   21.5671 N   0  0  0  0  0  0  0  0  0  0  0  0
  -30.2464  -15.5262   21.3937 N   0  0  0  0  0  0  0  0  0  0  0  0
  -20.1753  -25.5656   22.9069 N   0  0  0  0  0  0  0  0  0  0  0  0
  -19.6238  -20.0082   26.3490 N   0  0  0  0  0  0  0  0  0  0  0  0
  -20.7824  -16.6618   25.6230 N   0  3  0  0  0  0  0  0  0  0  0  0
  -28.9469  -20.1227   24.0804 N   0  3  0  0  0  0  0  0  0  0  0  0
  -22.7949  -14.8631   21.2199 O   0  0  0  0  0  0  0  0  0  0  0  0
  -21.6544  -25.0335   24.6249 O   0  0  0  0  0  0  0  0  0  0  0  0
  -18.7013  -22.1406   24.6724 O   0  0  0  0  0  0  0  0  0  0  0  0
  -21.7256  -19.0892   26.6882 O   0  0  0  0  0  0  0  0  0  0  0  0
  -31.9964  -14.6515   20.1471 O   0  0  0  0  0  0  0  0  0  0  0  0
  -21.4166   -7.2294   21.8630 O   0  0  0  0  0  0  0  0  0  0  0  0
  -27.1632  -22.3557   24.2158 O   0  0  0  0  0  0  0  0  0  1  0  0
  -18.3950   -7.3571   26.4736 F   0  0  0  0  0  0  0  0  0  0  0  0
  -21.7727   -5.3354   23.8452 F   0  0  0  0  0  0  0  0  0  0  0  0
  -31.1394  -20.9995   21.2638 F   0  0  0  0  0  0  0  0  0  0  0  0
  -31.0709  -16.6513   18.7019 Cl  0  0  0  0  0  0  0  0  0  0  0  0
  1  2  1  0  0  0  0
  1  5  2  0  0  0  0
  2  6  2  0  0  0  0
  3  8  2  0  0  0  0
  3 16  1  0  0  0  0
  4  9  1  0  0  0  0
  4 16  2  0  0  0  0
  5 18  1  0  0  0  0
  6 20  1  0  0  0  0
  7 10  2  0  0  0  0
  7 19  1  0  0  0  0
  8 25  1  0  0  0  0
  9 25  2  0  0  0  0
 10 26  1  0  0  0  0
 11 12  2  0  0  0  0
 11 27  1  0  0  0  0
 12 28  1  0  0  0  0
 13 21  1  0  0  0  0
 13 26  2  0  0  0  0
 14 28  2  0  0  0  0
 14 29  1  0  0  0  0
 15 30  2  0  0  0  0
 15 31  1  0  0  0  0
 16 32  1  0  0  0  0
 17 32  1  0  0  0  0
 17 33  2  0  0  0  0
 17 34  1  0  0  0  0
 18 20  2  0  0  0  0
 18 39  1  0  0  0  0
 19 21  2  0  0  0  0
 19 40  1  0  0  0  0
 20 48  1  0  0  0  0
 21 41  1  0  0  0  0
 22 23  2  0  0  0  0
 22 24  1  0  0  0  0
 22 51  1  0  0  0  0
 23 30  1  0  0  0  0
 23 58  1  0  0  0  0
 24 31  2  0  0  0  0
 24 70  1  0  0  0  0
 25 80  1  0  0  0  0
 26 81  1  0  0  0  0
 27 29  2  0  0  0  0
 27 80  1  0  0  0  0
 28 82  1  0  0  0  0
 29 83  1  0  0  0  0
 30 84  1  0  0  0  0
 31 85  1  0  0  0  0
 32 64  2  0  0  0  0
 33 65  1  0  0  0  0
 33 68  1  0  0  0  0
 34 69  1  0  0  0  0
 34 75  2  0  0  0  0
 35 49  1  0  0  0  0
 35 71  1  0  0  0  0
 35 76  2  0  0  0  0
 36 60  1  0  0  0  0
 36 66  1  0  0  0  0
 36 77  2  0  0  0  0
 37 61  1  0  0  0  0
 37 72  1  0  0  0  0
 37 78  2  0  0  0  0
 38 67  1  0  0  0  0
 38 70  1  0  0  0  0
 38 79  2  0  0  0  0
 39 42  1  0  0  0  0
 40 49  1  0  0  0  0
 41 66  1  0  0  0  0
 42 44  1  0  0  0  0
 43 45  1  0  0  0  0
 43 46  1  0  0  0  0
 44 48  1  0  0  0  0
 45 50  1  0  0  0  0
 46 67  1  0  0  0  0
 47 50  1  0  0  0  0
 47 67  1  0  0  0  0
 48 71  1  0  0  0  0
 49 66  1  0  0  0  0
 50 65  1  0  0  0  0
 52 61  1  0  0  0  0
 53 62  1  0  0  0  0
 54 63  1  0  0  0  0
 55 63  1  0  0  0  0
 56 63  1  0  0  0  0
 57 73  1  0  0  0  0
 58 74  1  0  0  0  0
 59 62  1  0  0  0  0
 59 81  1  0  0  0  0
 60 63  1  0  0  0  0
 60 72  1  0  0  0  0
 61 73  1  0  0  0  0
 62 74  1  0  0  0  0
 64 65  1  0  0  0  0
M  CHG  2  73   1  74   1
M  ISO  4  38 100  59 101  70 100  81 101
M  END
> <Batch ID>
0016

> <Smiles>
CNC(C)C(=O)NC(C(=O)N1Cc2cc([101O:1][101CH2:1]C(C)NCc3c(F)cc(Cl)c([100NH:0][100C:0](=O)N4CCCC(n5nc(-c6ccc(Oc7ccc(F)cc7F)cc6)c(C(N)=O)c5N)C4)c3C)ccc2CC1C(=O)NC1CCCc2ccccc21)C(C)(C)C

> <Shape>
0.221

> <Color>
0.201

> <Negative vol penalty>
0.000

$$$$

  -OEChem-04052315583D

 94102  0     1  0  0  0  0  0999 V2000
  -26.2310  -23.3816   14.3980 C   0  0  0  0  0  0  0  0  0  0  0  0
  -25.4972  -23.5982   15.5600 C   0  0  0  0  0  0  0  0  0  0  0  0
  -24.3628   -9.6624   20.9041 C   0  0  0  0  0  0  0  0  0  0  0  0
  -24.8578  -10.4625   23.1294 C   0  0  0  0  0  0  0  0  0  0  0  0
  -27.6005  -23.6426   14.3809 C   0  0  0  0  0  0  0  0  0  0  0  0
  -26.1329  -24.0750   16.7059 C   0  0  0  0  0  0  0  0  0  0  0  0
  -23.5241  -27.7730   18.9784 C   0  0  0  0  0  0  0  0  0  0  0  0
  -24.0279   -8.4137   21.4275 C   0  0  0  0  0  0  0  0  0  0  0  0
  -24.5229   -9.2137   23.6528 C   0  0  0  0  0  0  0  0  0  0  0  0
  -22.4275  -27.3957   19.7523 C   0  0  0  0  0  0  0  0  0  0  0  0
  -22.6968   -5.1239   22.2156 C   0  0  0  0  0  0  0  0  0  0  0  0
  -21.5345   -4.5137   21.7443 C   0  0  0  0  0  0  0  0  0  0  0  0
  -23.7661  -27.6189   21.7467 C   0  0  0  0  0  0  0  0  0  0  0  0
  -23.0247  -22.5119   23.9817 C   0  0  0  0  0  0  0  0  0  0  0  0
  -20.2303   -6.3878   22.5344 C   0  0  0  0  0  0  0  0  0  0  0  0
  -24.7778  -10.6868   21.7550 C   0  0  0  0  0  0  0  0  0  0  0  0
  -24.2642  -13.0727   21.0124 C   0  0  0  0  0  0  0  0  0  0  0  0
  -28.2514  -24.1320   15.5243 C   0  0  0  0  0  0  0  0  0  0  0  0
  -24.7550  -28.0660   19.5829 C   0  0  0  0  0  0  0  0  0  0  0  0
  -27.5126  -24.3415   16.7044 C   0  0  0  0  0  0  0  0  0  0  0  0
  -24.8760  -28.0021   20.9784 C   0  0  0  0  0  0  0  0  0  0  0  0
  -24.0288  -21.6197   24.3575 C   0  0  0  0  0  0  0  0  0  0  0  0
  -24.2630  -20.9148   22.0585 C   0  0  0  0  0  0  0  0  0  0  0  0
  -22.6396  -22.6055   22.6443 C   0  0  0  0  0  0  0  0  0  0  0  0
  -24.1079   -8.1893   22.8019 C   0  0  0  0  0  0  0  0  0  0  0  0
  -22.5492  -27.3159   21.1365 C   0  0  0  0  0  0  0  0  0  0  0  0
  -22.6260   -6.3660   22.8464 C   0  0  0  0  0  0  0  0  0  0  0  0
  -20.3012   -5.1457   21.9037 C   0  0  0  0  0  0  0  0  0  0  0  0
  -21.3927   -6.9980   23.0057 C   0  0  0  0  0  0  0  0  0  0  0  0
  -24.6480  -20.8212   23.3959 C   0  0  0  0  0  0  0  0  0  0  0  0
  -23.2588  -21.8070   21.6827 C   0  0  0  0  0  0  0  0  0  0  0  0
  -25.1244  -11.9769   21.2148 C   0  0  0  0  0  0  0  0  0  0  0  0
  -25.0714  -14.0495   20.4826 C   0  0  0  0  0  0  0  0  0  0  0  0
  -22.8610  -13.1966   21.2796 C   0  0  0  0  0  0  0  0  0  0  0  0
  -27.6794  -26.8297   19.4310 C   0  0  0  0  0  0  0  0  0  0  0  0
  -28.4311  -29.3772   21.2931 C   0  0  0  0  0  0  0  0  0  0  0  0
  -20.9200  -24.3737   23.1549 C   0  0  0  0  0  0  0  0  0  0  0  0
  -27.3909  -31.7474   23.5173 C   0  0  0  0  0  0  0  0  0  0  0  0
  -29.8543  -16.9251   20.4546 C   0  0  0  0  0  0  0  0  0  0  0  0
  -29.7421  -24.3546   15.4716 C   0  0  0  0  0  0  0  0  0  0  0  0
  -25.9209  -28.4973   18.7362 C   0  0  0  0  0  0  0  0  0  0  0  0
  -26.1699  -28.3262   21.6778 C   0  0  0  0  0  0  0  0  0  0  0  0
  -30.2706  -25.2136   16.6176 C   0  0  0  0  0  0  0  0  0  0  0  0
  -29.8098  -13.8116   18.7281 C   0  0  0  0  0  0  0  0  0  0  0  0
  -29.6890  -24.7455   17.9478 C   0  0  0  0  0  0  0  0  0  0  0  0
  -28.5197  -13.1450   19.2092 C   0  0  0  0  0  0  0  0  0  0  0  0
  -30.4831  -14.6083   19.8434 C   0  0  0  0  0  0  0  0  0  0  0  0
  -28.3252  -14.9319   20.9890 C   0  0  0  0  0  0  0  0  0  0  0  0
  -28.1616  -24.8815   17.9604 C   0  0  1  0  0  0  0  0  0  0  0  0
  -27.2681  -28.2748   19.4165 C   0  0  1  0  0  0  0  0  0  0  0  0
  -27.5807  -14.1627   19.8843 C   0  0  2  0  0  0  0  0  0  0  0  0
  -24.4084  -21.5537   25.8022 C   0  0  0  0  0  0  0  0  0  0  0  0
  -28.2413  -33.6669   24.8920 C   0  0  0  0  0  0  0  0  0  0  0  0
  -26.8049  -17.6613   17.3568 C   0  0  0  0  0  0  0  0  0  0  0  0
  -26.6168  -19.5788   15.7601 C   0  0  0  0  0  0  0  0  0  0  0  0
  -29.6796  -27.4100   23.2632 C   0  0  0  0  0  0  0  0  0  0  0  0
  -29.6444  -29.2236   24.9889 C   0  0  0  0  0  0  0  0  0  0  0  0
  -30.9935  -29.5084   22.9102 C   0  0  0  0  0  0  0  0  0  0  0  0
  -25.6137  -33.6721   22.1403 C   0  0  0  0  0  0  0  0  0  0  0  0
  -24.9290  -20.0561   21.0256 C   0  0  0  0  0  0  0  0  0  0  0  0
  -19.9014  -25.1952   22.3729 C   0  0  0  0  0  0  0  0  0  0  0  0
  -28.5119  -19.8869   19.8862 C   0  0  0  0  0  0  0  0  0  0  0  0
  -26.5132  -19.9811   18.2800 C   0  0  0  0  0  0  0  0  0  0  0  0
  -29.0801  -19.1880   21.1172 C   0  0  0  0  0  0  0  0  0  0  0  0
  -20.5340  -26.0630   21.2956 C   0  0  0  0  0  0  0  0  0  1  0  0
  -28.4721  -29.6402   22.7791 C   0  0  1  0  0  0  0  0  0  0  0  0
  -27.6173  -33.2476   23.5700 C   0  0  2  0  0  0  0  0  0  0  0  0
  -27.1230  -19.1434   17.1355 C   0  0  0  0  0  0  0  0  0  0  0  0
  -27.0059  -19.6506   19.6986 C   0  0  2  0  0  0  0  0  0  0  0  0
  -29.6734  -28.9375   23.4723 C   0  0  0  0  0  0  0  0  0  0  0  0
  -26.3817  -12.2328   20.8436 N   0  0  0  0  0  0  0  0  0  0  0  0
  -26.3174  -13.5007   20.4026 N   0  0  0  0  0  0  0  0  0  0  0  0
  -27.2828  -28.7369   20.8059 N   0  0  0  0  0  0  0  0  0  0  0  0
  -29.5395  -15.5562   20.4408 N   0  0  0  0  0  0  0  0  0  0  0  0
  -24.8298  -15.3158   20.0818 N   0  0  0  0  0  0  0  0  0  0  0  0
  -22.1850  -12.0966   21.8246 N   0  0  0  0  0  0  0  0  0  0  0  0
  -21.6173  -23.5222   22.3019 N   0  0  0  0  0  0  0  0  0  0  0  0
  -27.7787  -26.2604   18.1758 N   0  0  0  0  0  0  0  0  0  0  0  0
  -28.4556  -31.0904   22.9376 N   0  0  0  0  0  0  0  0  0  0  0  0
  -28.9026  -17.7554   21.0339 N   0  0  0  0  0  0  0  0  0  0  0  0
  -26.3250  -33.9724   23.4094 N   0  3  0  0  0  0  0  0  0  0  0  0
  -26.2987  -20.5167   20.6795 N   0  3  0  0  0  0  0  0  0  0  0  0
  -22.2222  -14.2461   21.0266 O   0  0  0  0  0  0  0  0  0  0  0  0
  -27.8924  -26.2729   20.5016 O   0  0  0  0  0  0  0  0  0  0  0  0
  -29.3796  -29.7334   20.5895 O   0  0  0  0  0  0  0  0  0  0  0  0
  -21.0599  -24.4902   24.3678 O   0  0  0  0  0  0  0  0  0  0  0  0
  -26.3732  -31.2117   23.9506 O   0  0  0  0  0  0  0  0  0  0  0  0
  -30.9032  -17.3746   19.9806 O   0  0  0  0  0  0  0  0  0  0  0  0
  -23.7810   -6.9709   23.3130 O   0  0  0  0  0  0  0  0  0  0  0  0
  -21.4806  -26.9473   21.8942 O   0  0  0  0  0  0  0  0  0  1  0  0
  -19.1853   -4.5603   21.4496 F   0  0  0  0  0  0  0  0  0  0  0  0
  -21.3185   -8.1919   23.6098 F   0  0  0  0  0  0  0  0  0  0  0  0
  -25.8948  -19.7151   23.8706 Cl  0  0  0  0  0  0  0  0  0  0  0  0
  -22.7791  -21.9243   20.0196 Cl  0  0  0  0  0  0  0  0  0  0  0  0
  1  2  1  0  0  0  0
  1  5  2  0  0  0  0
  2  6  2  0  0  0  0
  3  8  2  0  0  0  0
  3 16  1  0  0  0  0
  4  9  1  0  0  0  0
  4 16  2  0  0  0  0
  5 18  1  0  0  0  0
  6 20  1  0  0  0  0
  7 10  2  0  0  0  0
  7 19  1  0  0  0  0
  8 25  1  0  0  0  0
  9 25  2  0  0  0  0
 10 26  1  0  0  0  0
 11 12  2  0  0  0  0
 11 27  1  0  0  0  0
 12 28  1  0  0  0  0
 13 21  1  0  0  0  0
 13 26  2  0  0  0  0
 14 22  2  0  0  0  0
 14 24  1  0  0  0  0
 15 28  2  0  0  0  0
 15 29  1  0  0  0  0
 16 32  1  0  0  0  0
 17 32  1  0  0  0  0
 17 33  2  0  0  0  0
 17 34  1  0  0  0  0
 18 20  2  0  0  0  0
 18 40  1  0  0  0  0
 19 21  2  0  0  0  0
 19 41  1  0  0  0  0
 20 49  1  0  0  0  0
 21 42  1  0  0  0  0
 22 30  1  0  0  0  0
 22 52  1  0  0  0  0
 23 30  2  0  0  0  0
 23 31  1  0  0  0  0
 23 60  1  0  0  0  0
 24 31  2  0  0  0  0
 24 77  1  0  0  0  0
 25 89  1  0  0  0  0
 26 90  1  0  0  0  0
 27 29  2  0  0  0  0
 27 89  1  0  0  0  0
 28 91  1  0  0  0  0
 29 92  1  0  0  0  0
 30 93  1  0  0  0  0
 31 94  1  0  0  0  0
 32 71  2  0  0  0  0
 33 72  1  0  0  0  0
 33 75  1  0  0  0  0
 34 76  1  0  0  0  0
 34 83  2  0  0  0  0
 35 50  1  0  0  0  0
 35 78  1  0  0  0  0
 35 84  2  0  0  0  0
 36 66  1  0  0  0  0
 36 73  1  0  0  0  0
 36 85  2  0  0  0  0
 37 61  1  0  0  0  0
 37 77  1  0  0  0  0
 37 86  2  0  0  0  0
 38 67  1  0  0  0  0
 38 79  1  0  0  0  0
 38 87  2  0  0  0  0
 39 74  1  0  0  0  0
 39 80  1  0  0  0  0
 39 88  2  0  0  0  0
 40 43  1  0  0  0  0
 41 50  1  0  0  0  0
 42 73  1  0  0  0  0
 43 45  1  0  0  0  0
 44 46  1  0  0  0  0
 44 47  1  0  0  0  0
 45 49  1  0  0  0  0
 46 51  1  0  0  0  0
 47 74  1  0  0  0  0
 48 51  1  0  0  0  0
 48 74  1  0  0  0  0
 49 78  1  0  0  0  0
 50 73  1  0  0  0  0
 51 72  1  0  0  0  0
 53 67  1  0  0  0  0
 54 68  1  0  0  0  0
 55 68  1  0  0  0  0
 56 70  1  0  0  0  0
 57 70  1  0  0  0  0
 58 70  1  0  0  0  0
 59 81  1  0  0  0  0
 60 82  1  0  0  0  0
 61 65  1  0  0  0  0
 62 64  1  0  0  0  0
 62 69  1  0  0  0  0
 63 68  1  0  0  0  0
 63 69  1  0  0  0  0
 64 80  1  0  0  0  0
 65 90  1  0  0  0  0
 66 70  1  0  0  0  0
 66 79  1  0  0  0  0
 67 81  1  0  0  0  0
 69 82  1  0  0  0  0
 71 72  1  0  0  0  0
M  CHG  2  81   1  82   1
M  ISO  4  39 100  65 101  80 100  90 101
M  END
> <Batch ID>
0016

> <Smiles>
CNC(C)C(=O)NC(C(=O)N1Cc2cc([101O:1][101CH2:1]CC(=O)Nc3cc(C)c(Cl)c(CNC(CC[100NH:0][100C:0](=O)N4CCCC(n5nc(-c6ccc(Oc7ccc(F)cc7F)cc6)c(C(N)=O)c5N)C4)CC(C)C)c3Cl)ccc2CC1C(=O)NC1CCCc2ccccc21)C(C)(C)C

> <Shape>
0.275

> <Color>
0.129

> <Negative vol penalty>
0.000

$$$$

  -OEChem-04052315583D

 82 90  0     1  0  0  0  0  0999 V2000
  -20.6402  -25.2849   18.7256 C   0  0  0  0  0  0  0  0  0  0  0  0
  -21.7943  -24.9451   19.4241 C   0  0  0  0  0  0  0  0  0  0  0  0
  -22.9983   -9.8959   19.9823 C   0  0  0  0  0  0  0  0  0  0  0  0
  -23.7242   -9.9454   22.2862 C   0  0  0  0  0  0  0  0  0  0  0  0
  -19.3883  -25.0253   19.2817 C   0  0  0  0  0  0  0  0  0  0  0  0
  -21.6972  -24.3465   20.6798 C   0  0  0  0  0  0  0  0  0  0  0  0
  -24.8607  -20.4284   21.2142 C   0  0  0  0  0  0  0  0  0  0  0  0
  -22.2311   -8.7618   20.2485 C   0  0  0  0  0  0  0  0  0  0  0  0
  -22.9570   -8.8113   22.5523 C   0  0  0  0  0  0  0  0  0  0  0  0
  -26.2004  -20.7215   21.4655 C   0  0  0  0  0  0  0  0  0  0  0  0
  -21.4738   -5.7188   23.7549 C   0  0  0  0  0  0  0  0  0  0  0  0
  -22.0594   -4.7023   24.5095 C   0  0  0  0  0  0  0  0  0  0  0  0
  -25.8500  -20.2824   23.8115 C   0  0  0  0  0  0  0  0  0  0  0  0
  -30.6526  -17.6527   20.2621 C   0  0  0  0  0  0  0  0  0  0  0  0
  -23.7851   -4.4547   22.8368 C   0  0  0  0  0  0  0  0  0  0  0  0
  -23.7449  -10.4877   21.0012 C   0  0  0  0  0  0  0  0  0  0  0  0
  -24.1318  -13.0031   20.8260 C   0  0  0  0  0  0  0  0  0  0  0  0
  -19.2757  -24.4144   20.5406 C   0  0  0  0  0  0  0  0  0  0  0  0
  -24.0016  -20.0702   22.2630 C   0  0  0  0  0  0  0  0  0  0  0  0
  -20.4426  -24.0798   21.2538 C   0  0  0  0  0  0  0  0  0  0  0  0
  -24.5005  -19.9828   23.5705 C   0  0  0  0  0  0  0  0  0  0  0  0
  -30.2878  -19.1897   22.5615 C   0  0  0  0  0  0  0  0  0  0  0  0
  -30.0909  -17.8095   22.6066 C   0  0  0  0  0  0  0  0  0  0  0  0
  -30.6671  -19.8014   21.3666 C   0  0  0  0  0  0  0  0  0  0  0  0
  -30.2733  -17.0411   21.4569 C   0  0  0  0  0  0  0  0  0  0  0  0
  -22.2104   -8.2195   21.5334 C   0  0  0  0  0  0  0  0  0  0  0  0
  -26.6946  -20.6513   22.7647 C   0  0  0  0  0  0  0  0  0  0  0  0
  -22.0438   -6.1032   22.5412 C   0  0  0  0  0  0  0  0  0  0  0  0
  -23.2150   -4.0703   24.0505 C   0  0  0  0  0  0  0  0  0  0  0  0
  -23.1994   -5.4711   22.0822 C   0  0  0  0  0  0  0  0  0  0  0  0
  -30.8495  -19.0329   20.2170 C   0  0  0  0  0  0  0  0  0  0  0  0
  -24.5381  -11.6589   20.7268 C   0  0  0  0  0  0  0  0  0  0  0  0
  -25.2420  -13.7251   20.4616 C   0  0  0  0  0  0  0  0  0  0  0  0
  -22.8644  -13.5502   21.2132 C   0  0  0  0  0  0  0  0  0  0  0  0
  -21.3604  -21.3115   23.5226 C   0  0  0  0  0  0  0  0  0  0  0  0
  -21.3744  -18.5768   25.2672 C   0  0  0  0  0  0  0  0  0  0  0  0
  -23.1660  -15.9818   26.5720 C   0  0  0  0  0  0  0  0  0  0  0  0
  -30.7221  -14.6824   20.6942 C   0  0  0  0  0  0  0  0  0  0  0  0
  -17.9010  -24.1968   21.1215 C   0  0  0  0  0  0  0  0  0  0  0  0
  -22.5654  -19.7312   21.9714 C   0  0  0  0  0  0  0  0  0  0  0  0
  -23.6243  -19.5833   24.7286 C   0  0  0  0  0  0  0  0  0  0  0  0
  -17.8827  -23.2184   22.2931 C   0  0  0  0  0  0  0  0  0  0  0  0
  -29.6015  -12.2312   18.3676 C   0  0  0  0  0  0  0  0  0  0  0  0
  -19.0043  -23.5409   23.2754 C   0  0  0  0  0  0  0  0  0  0  0  0
  -28.1509  -11.9744   18.7822 C   0  0  0  0  0  0  0  0  0  0  0  0
  -30.5026  -12.4735   19.5772 C   0  0  0  0  0  0  0  0  0  0  0  0
  -28.5881  -13.2631   20.9117 C   0  0  0  0  0  0  0  0  0  0  0  0
  -20.3781  -23.4065   22.6076 C   0  0  1  0  0  0  0  0  0  0  0  0
  -21.6580  -19.8770   23.1891 C   0  0  1  0  0  0  0  0  0  0  0  0
  -27.6300  -13.0779   19.7237 C   0  0  2  0  0  0  0  0  0  0  0  0
  -29.6838  -17.1548   23.8897 C   0  0  0  0  0  0  0  0  0  0  0  0
  -30.8750  -21.2838   21.3326 C   0  0  0  0  0  0  0  0  0  0  0  0
  -22.9087  -13.9239   27.9848 C   0  0  0  0  0  0  0  0  0  0  0  0
  -21.1948  -20.3181   27.7664 C   0  0  0  0  0  0  0  0  0  0  0  0
  -21.8915  -18.3289   29.1176 C   0  0  0  0  0  0  0  0  0  0  0  0
  -19.7631  -18.2682   27.8181 C   0  0  0  0  0  0  0  0  0  0  0  0
  -24.0804  -14.2195   24.3771 C   0  0  0  0  0  0  0  0  0  0  0  0
  -30.0900  -20.0201   23.8063 C   0  0  0  0  0  0  0  0  0  0  0  0
  -28.6163  -20.2655   24.1116 C   0  0  0  0  0  0  0  0  0  1  0  0
  -21.9695  -18.1549   26.5889 C   0  0  1  0  0  0  0  0  0  0  0  0
  -22.9165  -14.4844   26.5712 C   0  0  2  0  0  0  0  0  0  0  0  0
  -21.2211  -18.7770   27.8014 C   0  0  0  0  0  0  0  0  0  0  0  0
  -25.8071  -11.5317   20.3301 N   0  0  0  0  0  0  0  0  0  0  0  0
  -26.2079  -12.8052   20.1769 N   0  0  0  0  0  0  0  0  0  0  0  0
  -22.2259  -19.2676   24.3934 N   0  0  0  0  0  0  0  0  0  0  0  0
  -29.9485  -13.5345   20.4211 N   0  0  0  0  0  0  0  0  0  0  0  0
  -25.4763  -15.0506   20.3600 N   0  0  0  0  0  0  0  0  0  0  0  0
  -21.8321  -12.6666   21.5567 N   0  0  0  0  0  0  0  0  0  0  0  0
  -30.0788  -15.6377   21.4803 N   0  0  0  0  0  0  0  0  0  0  0  0
  -20.7530  -22.0129   22.4986 N   0  0  0  0  0  0  0  0  0  0  0  0
  -21.9867  -16.6961   26.5817 N   0  0  0  0  0  0  0  0  0  0  0  0
  -23.9766  -13.7830   25.7933 N   0  3  0  0  0  0  0  0  0  0  0  0
  -22.6485  -14.7856   21.2375 O   0  0  0  0  0  0  0  0  0  0  0  0
  -21.6583  -21.7492   24.6278 O   0  0  0  0  0  0  0  0  0  0  0  0
  -20.1994  -18.2974   25.0164 O   0  0  0  0  0  0  0  0  0  0  0  0
  -24.2944  -16.4690   26.5684 O   0  0  0  0  0  0  0  0  0  0  0  0
  -31.8607  -14.8208   20.2398 O   0  0  0  0  0  0  0  0  0  0  0  0
  -21.4617   -7.1130   21.7935 O   0  0  0  0  0  0  0  0  0  0  0  0
  -28.0016  -20.9374   23.0129 O   0  0  0  0  0  0  0  0  0  1  0  0
  -23.7782   -3.0952   24.7760 F   0  0  0  0  0  0  0  0  0  0  0  0
  -23.7522   -5.8369   20.9175 F   0  0  0  0  0  0  0  0  0  0  0  0
  -31.3187  -19.7515   18.7186 Cl  0  0  0  0  0  0  0  0  0  0  0  0
  1  2  1  0  0  0  0
  1  5  2  0  0  0  0
  2  6  2  0  0  0  0
  3  8  2  0  0  0  0
  3 16  1  0  0  0  0
  4  9  1  0  0  0  0
  4 16  2  0  0  0  0
  5 18  1  0  0  0  0
  6 20  1  0  0  0  0
  7 10  2  0  0  0  0
  7 19  1  0  0  0  0
  8 26  1  0  0  0  0
  9 26  2  0  0  0  0
 10 27  1  0  0  0  0
 11 12  2  0  0  0  0
 11 28  1  0  0  0  0
 12 29  1  0  0  0  0
 13 21  1  0  0  0  0
 13 27  2  0  0  0  0
 14 25  2  0  0  0  0
 14 31  1  0  0  0  0
 15 29  2  0  0  0  0
 15 30  1  0  0  0  0
 16 32  1  0  0  0  0
 17 32  1  0  0  0  0
 17 33  2  0  0  0  0
 17 34  1  0  0  0  0
 18 20  2  0  0  0  0
 18 39  1  0  0  0  0
 19 21  2  0  0  0  0
 19 40  1  0  0  0  0
 20 48  1  0  0  0  0
 21 41  1  0  0  0  0
 22 23  2  0  0  0  0
 22 24  1  0  0  0  0
 22 58  1  0  0  0  0
 23 25  1  0  0  0  0
 23 51  1  0  0  0  0
 24 31  2  0  0  0  0
 24 52  1  0  0  0  0
 25 69  1  0  0  0  0
 26 78  1  0  0  0  0
 27 79  1  0  0  0  0
 28 30  2  0  0  0  0
 28 78  1  0  0  0  0
 29 80  1  0  0  0  0
 30 81  1  0  0  0  0
 31 82  1  0  0  0  0
 32 63  2  0  0  0  0
 33 64  1  0  0  0  0
 33 67  1  0  0  0  0
 34 68  1  0  0  0  0
 34 73  2  0  0  0  0
 35 49  1  0  0  0  0
 35 70  1  0  0  0  0
 35 74  2  0  0  0  0
 36 60  1  0  0  0  0
 36 65  1  0  0  0  0
 36 75  2  0  0  0  0
 37 61  1  0  0  0  0
 37 71  1  0  0  0  0
 37 76  2  0  0  0  0
 38 66  1  0  0  0  0
 38 69  1  0  0  0  0
 38 77  2  0  0  0  0
 39 42  1  0  0  0  0
 40 49  1  0  0  0  0
 41 65  1  0  0  0  0
 42 44  1  0  0  0  0
 43 45  1  0  0  0  0
 43 46  1  0  0  0  0
 44 48  1  0  0  0  0
 45 50  1  0  0  0  0
 46 66  1  0  0  0  0
 47 50  1  0  0  0  0
 47 66  1  0  0  0  0
 48 70  1  0  0  0  0
 49 65  1  0  0  0  0
 50 64  1  0  0  0  0
 53 61  1  0  0  0  0
 54 62  1  0  0  0  0
 55 62  1  0  0  0  0
 56 62  1  0  0  0  0
 57 72  1  0  0  0  0
 58 59  1  0  0  0  0
 59 79  1  0  0  0  0
 60 62  1  0  0  0  0
 60 71  1  0  0  0  0
 61 72  1  0  0  0  0
 63 64  1  0  0  0  0
M  CHG  1  72   1
M  ISO  4  38 100  59 101  69 100  79 101
M  END
> <Batch ID>
0016

> <Smiles>
CNC(C)C(=O)NC(C(=O)N1Cc2cc([101O:1][101CH2:1]Cc3c(C)c(Cl)cc([100NH:0][100C:0](=O)N4CCCC(n5nc(-c6ccc(Oc7ccc(F)cc7F)cc6)c(C(N)=O)c5N)C4)c3C)ccc2CC1C(=O)NC1CCCc2ccccc21)C(C)(C)C

> <Shape>
0.192

> <Color>
0.206

> <Negative vol penalty>
0.000

$$$$

  -OEChem-04052315583D

 85 93  0     1  0  0  0  0  0999 V2000
  -26.6634  -35.7254   18.2178 C   0  0  0  0  0  0  0  0  0  0  0  0
  -27.3676  -34.5496   17.9790 C   0  0  0  0  0  0  0  0  0  0  0  0
  -24.5772   -8.9304   19.9767 C   0  0  0  0  0  0  0  0  0  0  0  0
  -24.4191   -9.7392   22.2478 C   0  0  0  0  0  0  0  0  0  0  0  0
  -26.0932  -35.9531   19.4695 C   0  0  0  0  0  0  0  0  0  0  0  0
  -27.5030  -33.6013   18.9924 C   0  0  0  0  0  0  0  0  0  0  0  0
  -27.6525  -27.5136   18.3414 C   0  0  0  0  0  0  0  0  0  0  0  0
  -24.3091   -7.6351   20.4193 C   0  0  0  0  0  0  0  0  0  0  0  0
  -24.1510   -8.4439   22.6904 C   0  0  0  0  0  0  0  0  0  0  0  0
  -28.7055  -26.6011   18.2922 C   0  0  0  0  0  0  0  0  0  0  0  0
  -21.5065   -6.3417   22.7809 C   0  0  0  0  0  0  0  0  0  0  0  0
  -20.4687   -6.1735   23.6975 C   0  0  0  0  0  0  0  0  0  0  0  0
  -28.4255  -26.1602   20.6472 C   0  0  0  0  0  0  0  0  0  0  0  0
  -28.1640  -19.5974   19.8094 C   0  0  0  0  0  0  0  0  0  0  0  0
  -25.6886  -20.6370   20.5675 C   0  0  0  0  0  0  0  0  0  0  0  0
  -22.0273   -5.2414   25.2910 C   0  0  0  0  0  0  0  0  0  0  0  0
  -24.6322   -9.9825   20.8910 C   0  0  0  0  0  0  0  0  0  0  0  0
  -23.9748  -12.2900   20.0244 C   0  0  0  0  0  0  0  0  0  0  0  0
  -26.2134  -35.0028   20.4958 C   0  0  0  0  0  0  0  0  0  0  0  0
  -26.9841  -27.7647   19.5483 C   0  0  0  0  0  0  0  0  0  0  0  0
  -26.9350  -33.8171   20.2594 C   0  0  0  0  0  0  0  0  0  0  0  0
  -27.3627  -27.0744   20.7086 C   0  0  0  0  0  0  0  0  0  0  0  0
  -27.7822  -20.8699   19.3844 C   0  0  0  0  0  0  0  0  0  0  0  0
  -27.3080  -18.8447   20.6134 C   0  0  0  0  0  0  0  0  0  0  0  0
  -26.0704  -19.3645   20.9925 C   0  0  0  0  0  0  0  0  0  0  0  0
  -24.0959   -7.3918   21.7761 C   0  0  0  0  0  0  0  0  0  0  0  0
  -29.0940  -25.9264   19.4458 C   0  0  0  0  0  0  0  0  0  0  0  0
  -22.8047   -5.9597   23.1192 C   0  0  0  0  0  0  0  0  0  0  0  0
  -20.7291   -5.6234   24.9526 C   0  0  0  0  0  0  0  0  0  0  0  0
  -23.0651   -5.4096   24.3743 C   0  0  0  0  0  0  0  0  0  0  0  0
  -26.5446  -21.3897   19.7634 C   0  0  0  0  0  0  0  0  0  0  0  0
  -24.9097  -11.3207   20.4345 C   0  0  0  0  0  0  0  0  0  0  0  0
  -24.7371  -13.3822   19.6894 C   0  0  0  0  0  0  0  0  0  0  0  0
  -22.5450  -12.2102   19.9529 C   0  0  0  0  0  0  0  0  0  0  0  0
  -26.5700  -30.3195   21.3936 C   0  0  0  0  0  0  0  0  0  0  0  0
  -24.5981  -28.3328   23.0328 C   0  0  0  0  0  0  0  0  0  0  0  0
  -23.7329  -25.1338   23.8480 C   0  0  0  0  0  0  0  0  0  0  0  0
  -28.9169  -16.9098   20.7327 C   0  0  0  0  0  0  0  0  0  0  0  0
  -25.6202  -35.3145   21.8469 C   0  0  0  0  0  0  0  0  0  0  0  0
  -25.8328  -28.7322   19.5790 C   0  0  0  0  0  0  0  0  0  0  0  0
  -26.6642  -27.2931   22.0249 C   0  0  0  0  0  0  0  0  0  0  0  0
  -25.4899  -34.0919   22.7517 C   0  0  0  0  0  0  0  0  0  0  0  0
  -29.7434  -13.8516   19.1075 C   0  0  0  0  0  0  0  0  0  0  0  0
  -26.7785  -33.2758   22.7350 C   0  0  0  0  0  0  0  0  0  0  0  0
  -28.4826  -13.0003   19.2741 C   0  0  0  0  0  0  0  0  0  0  0  0
  -30.0122  -14.7142   20.3393 C   0  0  0  0  0  0  0  0  0  0  0  0
  -27.6226  -14.6967   20.9382 C   0  0  0  0  0  0  0  0  0  0  0  0
  -27.0825  -32.7533   21.3256 C   0  0  1  0  0  0  0  0  0  0  0  0
  -25.5590  -29.2911   20.9718 C   0  0  1  0  0  0  0  0  0  0  0  0
  -27.2746  -13.8590   19.6969 C   0  0  2  0  0  0  0  0  0  0  0  0
  -22.1031  -23.8276   25.2391 C   0  0  0  0  0  0  0  0  0  0  0  0
  -32.1968  -22.9634   19.1635 C   0  0  0  0  0  0  0  0  0  0  0  0
  -26.1800  -29.0388   25.5447 C   0  0  0  0  0  0  0  0  0  0  0  0
  -25.1597  -27.0448   26.6633 C   0  0  0  0  0  0  0  0  0  0  0  0
  -23.7041  -28.9100   25.8729 C   0  0  0  0  0  0  0  0  0  0  0  0
  -22.6030  -23.7863   21.4676 C   0  0  0  0  0  0  0  0  0  0  0  0
  -28.7309  -21.6475   18.5205 C   0  0  0  0  0  0  0  0  0  0  0  0
  -30.3283  -24.3440   18.1697 C   0  0  0  0  0  0  0  0  0  1  0  0
  -24.7676  -27.3642   24.1783 C   0  0  1  0  0  0  0  0  0  0  0  0
  -22.3887  -24.4288   23.8717 C   0  0  2  0  0  0  0  0  0  0  0  0
  -30.8656  -22.9412   18.4301 C   0  0  2  0  0  0  0  0  0  0  0  0
  -24.9675  -28.0865   25.5406 C   0  0  0  0  0  0  0  0  0  0  0  0
  -26.1698  -11.7585   20.3668 N   0  0  0  0  0  0  0  0  0  0  0  0
  -26.0319  -13.0150   19.9102 N   0  0  0  0  0  0  0  0  0  0  0  0
  -25.5486  -28.2536   22.0051 N   0  0  0  0  0  0  0  0  0  0  0  0
  -28.8255  -15.5029   20.6780 N   0  0  0  0  0  0  0  0  0  0  0  0
  -24.4195  -14.6114   19.2304 N   0  0  0  0  0  0  0  0  0  0  0  0
  -21.9227  -11.0139   20.3348 N   0  0  0  0  0  0  0  0  0  0  0  0
  -27.7172  -17.5544   21.0323 N   0  0  0  0  0  0  0  0  0  0  0  0
  -25.1879  -18.6191   21.8064 N   0  0  0  0  0  0  0  0  0  0  0  0
  -26.2490  -31.6105   21.0196 N   0  0  0  0  0  0  0  0  0  0  0  0
  -23.6106  -26.4765   24.1368 N   0  0  0  0  0  0  0  0  0  0  0  0
  -22.3603  -23.3335   22.8615 N   0  3  0  0  0  0  0  0  0  0  0  0
  -29.8807  -22.2066   19.2759 N   0  3  0  0  0  0  0  0  0  0  0  0
  -21.8414  -13.1657   19.5463 O   0  0  0  0  0  0  0  0  0  0  0  0
  -27.5667  -29.9680   22.0139 O   0  0  0  0  0  0  0  0  0  0  0  0
  -23.6531  -29.1254   23.0459 O   0  0  0  0  0  0  0  0  0  0  0  0
  -24.7865  -24.5508   23.6019 O   0  0  0  0  0  0  0  0  0  0  0  0
  -29.9750  -17.5009   20.5019 O   0  0  0  0  0  0  0  0  0  0  0  0
  -23.8341   -6.1280   22.2083 O   0  0  0  0  0  0  0  0  0  0  0  0
  -30.1219  -25.0357   19.4007 O   0  0  0  0  0  0  0  0  0  1  0  0
  -19.7326   -5.4634   25.8333 F   0  0  0  0  0  0  0  0  0  0  0  0
  -24.3104   -5.0418   24.7055 F   0  0  0  0  0  0  0  0  0  0  0  0
  -23.8625  -19.0665   21.5660 F   0  0  0  0  0  0  0  0  0  0  0  0
  -26.0385  -22.9601   19.2564 Cl  0  0  0  0  0  0  0  0  0  0  0  0
  1  2  1  0  0  0  0
  1  5  2  0  0  0  0
  2  6  2  0  0  0  0
  3  8  2  0  0  0  0
  3 17  1  0  0  0  0
  4  9  1  0  0  0  0
  4 17  2  0  0  0  0
  5 19  1  0  0  0  0
  6 21  1  0  0  0  0
  7 10  2  0  0  0  0
  7 20  1  0  0  0  0
  8 26  1  0  0  0  0
  9 26  2  0  0  0  0
 10 27  1  0  0  0  0
 11 12  2  0  0  0  0
 11 28  1  0  0  0  0
 12 29  1  0  0  0  0
 13 22  1  0  0  0  0
 13 27  2  0  0  0  0
 14 23  1  0  0  0  0
 14 24  2  0  0  0  0
 15 25  2  0  0  0  0
 15 31  1  0  0  0  0
 16 29  2  0  0  0  0
 16 30  1  0  0  0  0
 17 32  1  0  0  0  0
 18 32  1  0  0  0  0
 18 33  2  0  0  0  0
 18 34  1  0  0  0  0
 19 21  2  0  0  0  0
 19 39  1  0  0  0  0
 20 22  2  0  0  0  0
 20 40  1  0  0  0  0
 21 48  1  0  0  0  0
 22 41  1  0  0  0  0
 23 31  2  0  0  0  0
 23 57  1  0  0  0  0
 24 25  1  0  0  0  0
 24 69  1  0  0  0  0
 25 70  1  0  0  0  0
 26 80  1  0  0  0  0
 27 81  1  0  0  0  0
 28 30  2  0  0  0  0
 28 80  1  0  0  0  0
 29 82  1  0  0  0  0
 30 83  1  0  0  0  0
 31 85  1  0  0  0  0
 32 63  2  0  0  0  0
 33 64  1  0  0  0  0
 33 67  1  0  0  0  0
 34 68  1  0  0  0  0
 34 75  2  0  0  0  0
 35 49  1  0  0  0  0
 35 71  1  0  0  0  0
 35 76  2  0  0  0  0
 36 59  1  0  0  0  0
 36 65  1  0  0  0  0
 36 77  2  0  0  0  0
 37 60  1  0  0  0  0
 37 72  1  0  0  0  0
 37 78  2  0  0  0  0
 38 66  1  0  0  0  0
 38 69  1  0  0  0  0
 38 79  2  0  0  0  0
 39 42  1  0  0  0  0
 40 49  1  0  0  0  0
 41 65  1  0  0  0  0
 42 44  1  0  0  0  0
 43 45  1  0  0  0  0
 43 46  1  0  0  0  0
 44 48  1  0  0  0  0
 45 50  1  0  0  0  0
 46 66  1  0  0  0  0
 47 50  1  0  0  0  0
 47 66  1  0  0  0  0
 48 71  1  0  0  0  0
 49 65  1  0  0  0  0
 50 64  1  0  0  0  0
 51 60  1  0  0  0  0
 52 61  1  0  0  0  0
 53 62  1  0  0  0  0
 54 62  1  0  0  0  0
 55 62  1  0  0  0  0
 56 73  1  0  0  0  0
 57 74  1  0  0  0  0
 58 61  1  0  0  0  0
 58 81  1  0  0  0  0
 59 62  1  0  0  0  0
 59 72  1  0  0  0  0
 60 73  1  0  0  0  0
 61 74  1  0  0  0  0
 63 64  1  0  0  0  0
 70 84  1  0  0  0  0
M  CHG  2  73   1  74   1
M  ISO  4  38 100  58 101  69 100  81 101
M  END
> <Batch ID>
0016

> <Smiles>
CNC(C)C(=O)NC(C(=O)N1Cc2cc([101O:1][101CH2:1]C(C)NCc3cc([100NH:0][100C:0](=O)N4CCCC(n5nc(-c6ccc(Oc7ccc(F)cc7F)cc6)c(C(N)=O)c5N)C4)c(NF)cc3Cl)ccc2CC1C(=O)NC1CCCc2ccccc21)C(C)(C)C

> <Shape>
0.254

> <Color>
0.100

> <Negative vol penalty>
0.000

$$$$

  -OEChem-04052315583D

 89 97  0     1  0  0  0  0  0999 V2000
  -32.3725  -12.7631   21.2477 C   0  0  0  0  0  0  0  0  0  0  0  0
  -31.9633  -13.9304   21.8844 C   0  0  0  0  0  0  0  0  0  0  0  0
  -29.5124  -25.7267   19.3494 C   0  0  0  0  0  0  0  0  0  0  0  0
  -27.7917  -24.1250   19.9069 C   0  0  0  0  0  0  0  0  0  0  0  0
  -31.5624  -12.1810   20.2736 C   0  0  0  0  0  0  0  0  0  0  0  0
  -30.7441  -14.5168   21.5466 C   0  0  0  0  0  0  0  0  0  0  0  0
  -25.3655  -18.2695   24.4284 C   0  0  0  0  0  0  0  0  0  0  0  0
  -18.0405  -27.2945   22.4711 C   0  0  0  0  0  0  0  0  0  0  0  0
  -18.4755  -28.5015   21.9239 C   0  0  0  0  0  0  0  0  0  0  0  0
  -30.4911  -24.8032   19.7167 C   0  0  0  0  0  0  0  0  0  0  0  0
  -28.7704  -23.2015   20.2742 C   0  0  0  0  0  0  0  0  0  0  0  0
  -24.6374  -19.4404   24.2221 C   0  0  0  0  0  0  0  0  0  0  0  0
  -30.8234  -20.2945   21.0176 C   0  0  0  0  0  0  0  0  0  0  0  0
  -30.6757  -18.9806   20.5734 C   0  0  0  0  0  0  0  0  0  0  0  0
  -23.2842  -18.3026   22.5810 C   0  0  0  0  0  0  0  0  0  0  0  0
  -30.7359  -19.7481   18.2833 C   0  0  0  0  0  0  0  0  0  0  0  0
  -28.1627  -25.3876   19.4445 C   0  0  0  0  0  0  0  0  0  0  0  0
  -26.5788  -26.5123   17.7911 C   0  0  0  0  0  0  0  0  0  0  0  0
  -30.3283  -12.7553   19.9306 C   0  0  0  0  0  0  0  0  0  0  0  0
  -25.0650  -17.1074   23.7035 C   0  0  0  0  0  0  0  0  0  0  0  0
  -29.9173  -13.9426   20.5661 C   0  0  0  0  0  0  0  0  0  0  0  0
  -24.0083  -17.1175   22.7818 C   0  0  0  0  0  0  0  0  0  0  0  0
  -18.9570  -26.4285   23.0676 C   0  0  0  0  0  0  0  0  0  0  0  0
  -19.8272  -28.8426   21.9732 C   0  0  0  0  0  0  0  0  0  0  0  0
  -20.3086  -26.7696   23.1168 C   0  0  0  0  0  0  0  0  0  0  0  0
  -20.7437  -27.9766   22.5696 C   0  0  0  0  0  0  0  0  0  0  0  0
  -30.1201  -23.5406   20.1791 C   0  0  0  0  0  0  0  0  0  0  0  0
  -23.5985  -19.4579   23.2962 C   0  0  0  0  0  0  0  0  0  0  0  0
  -30.9274  -21.3353   20.0947 C   0  0  0  0  0  0  0  0  0  0  0  0
  -30.6319  -18.7074   19.2062 C   0  0  0  0  0  0  0  0  0  0  0  0
  -30.8837  -21.0621   18.7276 C   0  0  0  0  0  0  0  0  0  0  0  0
  -27.1512  -26.3413   19.0658 C   0  0  0  0  0  0  0  0  0  0  0  0
  -25.6775  -27.5359   17.9539 C   0  0  0  0  0  0  0  0  0  0  0  0
  -26.8384  -25.8087   16.5691 C   0  0  0  0  0  0  0  0  0  0  0  0
  -26.6440  -15.2836   21.6336 C   0  0  0  0  0  0  0  0  0  0  0  0
  -24.0154  -13.3995   21.8848 C   0  0  0  0  0  0  0  0  0  0  0  0
  -20.6934  -13.1446   22.6237 C   0  0  0  0  0  0  0  0  0  0  0  0
  -22.6616  -29.6065   22.6785 C   0  0  0  0  0  0  0  0  0  0  0  0
  -29.5086  -12.1158   18.8379 C   0  0  0  0  0  0  0  0  0  0  0  0
  -25.8425  -15.8450   23.9571 C   0  0  0  0  0  0  0  0  0  0  0  0
  -23.6325  -15.8909   21.9927 C   0  0  0  0  0  0  0  0  0  0  0  0
  -28.0592  -12.5936   18.8047 C   0  0  0  0  0  0  0  0  0  0  0  0
  -24.8922  -31.4479   20.6023 C   0  0  0  0  0  0  0  0  0  0  0  0
  -27.9956  -14.1136   18.9158 C   0  0  0  0  0  0  0  0  0  0  0  0
  -25.6683  -30.3630   19.8522 C   0  0  0  0  0  0  0  0  0  0  0  0
  -24.5914  -31.0370   22.0426 C   0  0  0  0  0  0  0  0  0  0  0  0
  -24.7038  -28.6506   21.4410 C   0  0  0  0  0  0  0  0  0  0  0  0
  -28.5902  -14.5950   20.2448 C   0  0  1  0  0  0  0  0  0  0  0  0
  -25.7836  -14.8627   22.7913 C   0  0  1  0  0  0  0  0  0  0  0  0
  -24.9734  -28.9920   19.9664 C   0  0  2  0  0  0  0  0  0  0  0  0
  -21.2868  -25.8349   23.7573 C   0  0  0  0  0  0  0  0  0  0  0  0
  -20.8149  -11.5593   24.5652 C   0  0  0  0  0  0  0  0  0  0  0  0
  -16.8870  -22.4586   23.0517 C   0  0  0  0  0  0  0  0  0  0  0  0
  -19.1296  -31.2098   21.4677 C   0  0  0  0  0  0  0  0  0  0  0  0
  -20.6364  -29.9753   19.8735 C   0  0  0  0  0  0  0  0  0  0  0  0
  -21.5119  -30.8000   22.0494 C   0  0  0  0  0  0  0  0  0  0  0  0
  -23.8064  -13.5001   18.8424 C   0  0  0  0  0  0  0  0  0  0  0  0
  -21.4554  -12.6635   19.0458 C   0  0  0  0  0  0  0  0  0  0  0  0
  -23.3524  -11.2547   19.8455 C   0  0  0  0  0  0  0  0  0  0  0  0
  -18.4770  -11.4942   21.5642 C   0  0  0  0  0  0  0  0  0  0  0  0
  -18.4618  -25.1367   23.6480 C   0  0  0  0  0  0  0  0  0  0  0  0
  -20.7053  -21.6366   23.2063 C   0  0  0  0  0  0  0  0  0  0  0  0
  -19.2232  -21.5192   22.8270 C   0  0  0  0  0  0  0  0  0  0  0  0
  -21.5226  -20.4532   22.6995 C   0  0  0  0  0  0  0  0  0  1  0  0
  -22.6923  -13.3087   21.1636 C   0  0  1  0  0  0  0  0  0  0  0  0
  -19.9262  -12.1592   23.4868 C   0  0  2  0  0  0  0  0  0  0  0  0
  -18.3594  -22.6546   23.3883 C   0  0  1  0  0  0  0  0  0  0  0  0
  -20.2625  -30.1425   21.3778 C   0  0  0  0  0  0  0  0  0  0  0  0
  -22.8347  -12.7056   19.7376 C   0  0  0  0  0  0  0  0  0  0  0  0
  -26.6554  -27.1886   19.9715 N   0  0  0  0  0  0  0  0  0  0  0  0
  -25.7620  -27.9018   19.2651 N   0  0  0  0  0  0  0  0  0  0  0  0
  -24.4265  -14.6829   22.2717 N   0  0  0  0  0  0  0  0  0  0  0  0
  -23.9296  -29.7308   22.0723 N   0  0  0  0  0  0  0  0  0  0  0  0
  -24.8291  -28.1498   17.1020 N   0  0  0  0  0  0  0  0  0  0  0  0
  -27.7954  -24.7848   16.5780 N   0  0  0  0  0  0  0  0  0  0  0  0
  -22.1165  -28.3244   22.6173 N   0  0  0  0  0  0  0  0  0  0  0  0
  -27.6490  -14.3871   21.3244 N   0  0  0  0  0  0  0  0  0  0  0  0
  -21.7990  -12.5611   22.0421 N   0  0  0  0  0  0  0  0  0  0  0  0
  -19.3867  -11.0494   22.6512 N   0  3  0  0  0  0  0  0  0  0  0  0
  -18.7929  -23.9564   22.8083 N   0  3  0  0  0  0  0  0  0  0  0  0
  -26.2512  -26.0909   15.4971 O   0  0  0  0  0  0  0  0  0  0  0  0
  -26.4121  -16.3426   21.0622 O   0  0  0  0  0  0  0  0  0  0  0  0
  -24.6570  -12.3689   22.1033 O   0  0  0  0  0  0  0  0  0  0  0  0
  -20.3445  -14.3139   22.4770 O   0  0  0  0  0  0  0  0  0  0  0  0
  -22.0886  -30.5726   23.1886 O   0  0  0  0  0  0  0  0  0  0  0  0
  -31.0748  -22.6391   20.5374 O   0  0  0  0  0  0  0  0  0  0  0  0
  -22.8866  -20.5997   23.0923 O   0  0  0  0  0  0  0  0  0  1  0  0
  -30.4916  -17.4454   18.7797 F   0  0  0  0  0  0  0  0  0  0  0  0
  -30.9842  -22.0576   17.8362 F   0  0  0  0  0  0  0  0  0  0  0  0
  1  2  1  0  0  0  0
  1  5  2  0  0  0  0
  2  6  2  0  0  0  0
  3 10  2  0  0  0  0
  3 17  1  0  0  0  0
  4 11  1  0  0  0  0
  4 17  2  0  0  0  0
  5 19  1  0  0  0  0
  6 21  1  0  0  0  0
  7 12  2  0  0  0  0
  7 20  1  0  0  0  0
  8  9  2  0  0  0  0
  8 23  1  0  0  0  0
  9 24  1  0  0  0  0
 10 27  1  0  0  0  0
 11 27  2  0  0  0  0
 12 28  1  0  0  0  0
 13 14  2  0  0  0  0
 13 29  1  0  0  0  0
 14 30  1  0  0  0  0
 15 22  1  0  0  0  0
 15 28  2  0  0  0  0
 16 30  2  0  0  0  0
 16 31  1  0  0  0  0
 17 32  1  0  0  0  0
 18 32  1  0  0  0  0
 18 33  2  0  0  0  0
 18 34  1  0  0  0  0
 19 21  2  0  0  0  0
 19 39  1  0  0  0  0
 20 22  2  0  0  0  0
 20 40  1  0  0  0  0
 21 48  1  0  0  0  0
 22 41  1  0  0  0  0
 23 25  2  0  0  0  0
 23 61  1  0  0  0  0
 24 26  2  0  0  0  0
 24 68  1  0  0  0  0
 25 26  1  0  0  0  0
 25 51  1  0  0  0  0
 26 76  1  0  0  0  0
 27 86  1  0  0  0  0
 28 87  1  0  0  0  0
 29 31  2  0  0  0  0
 29 86  1  0  0  0  0
 30 88  1  0  0  0  0
 31 89  1  0  0  0  0
 32 70  2  0  0  0  0
 33 71  1  0  0  0  0
 33 74  1  0  0  0  0
 34 75  1  0  0  0  0
 34 81  2  0  0  0  0
 35 49  1  0  0  0  0
 35 77  1  0  0  0  0
 35 82  2  0  0  0  0
 36 65  1  0  0  0  0
 36 72  1  0  0  0  0
 36 83  2  0  0  0  0
 37 66  1  0  0  0  0
 37 78  1  0  0  0  0
 37 84  2  0  0  0  0
 38 73  1  0  0  0  0
 38 76  1  0  0  0  0
 38 85  2  0  0  0  0
 39 42  1  0  0  0  0
 40 49  1  0  0  0  0
 41 72  1  0  0  0  0
 42 44  1  0  0  0  0
 43 45  1  0  0  0  0
 43 46  1  0  0  0  0
 44 48  1  0  0  0  0
 45 50  1  0  0  0  0
 46 73  1  0  0  0  0
 47 50  1  0  0  0  0
 47 73  1  0  0  0  0
 48 77  1  0  0  0  0
 49 72  1  0  0  0  0
 50 71  1  0  0  0  0
 52 66  1  0  0  0  0
 53 67  1  0  0  0  0
 54 68  1  0  0  0  0
 55 68  1  0  0  0  0
 56 68  1  0  0  0  0
 57 69  1  0  0  0  0
 58 69  1  0  0  0  0
 59 69  1  0  0  0  0
 60 79  1  0  0  0  0
 61 80  1  0  0  0  0
 62 63  1  0  0  0  0
 62 64  1  0  0  0  0
 63 67  1  0  0  0  0
 64 87  1  0  0  0  0
 65 69  1  0  0  0  0
 65 78  1  0  0  0  0
 66 79  1  0  0  0  0
 67 80  1  0  0  0  0
 70 71  1  0  0  0  0
M  CHG  2  79   1  80   1
M  ISO  4  38 100  64 101  76 100  87 101
M  END
> <Batch ID>
0016

> <Smiles>
CNC(C)C(=O)NC(C(=O)N1Cc2cc([101O:1][101CH2:1]CCC(C)NCc3ccc(C(C)(C)C)c([100NH:0][100C:0](=O)N4CCCC(n5nc(-c6ccc(Oc7ccc(F)cc7F)cc6)c(C(N)=O)c5N)C4)c3C)ccc2CC1C(=O)NC1CCCc2ccccc21)C(C)(C)C

> <Shape>
0.252

> <Color>
0.075

> <Negative vol penalty>
0.000

$$$$

  -OEChem-04052315583D

 89 97  0     1  0  0  0  0  0999 V2000
  -21.7241  -33.7621   19.0113 C   0  0  0  0  0  0  0  0  0  0  0  0
  -22.8512  -32.9636   19.1764 C   0  0  0  0  0  0  0  0  0  0  0  0
  -25.9901  -13.2801   21.9383 C   0  0  0  0  0  0  0  0  0  0  0  0
  -25.0694  -14.5500   20.1007 C   0  0  0  0  0  0  0  0  0  0  0  0
  -20.7145  -33.7485   19.9729 C   0  0  0  0  0  0  0  0  0  0  0  0
  -22.9699  -32.1516   20.3038 C   0  0  0  0  0  0  0  0  0  0  0  0
  -24.5800  -27.4847   19.1760 C   0  0  0  0  0  0  0  0  0  0  0  0
  -24.9400  -12.3680   21.8342 C   0  0  0  0  0  0  0  0  0  0  0  0
  -24.0193  -13.6378   19.9965 C   0  0  0  0  0  0  0  0  0  0  0  0
  -25.9422  -27.3242   18.9258 C   0  0  0  0  0  0  0  0  0  0  0  0
  -24.0969   -9.7545   19.8616 C   0  0  0  0  0  0  0  0  0  0  0  0
  -24.4105   -8.3963   19.9121 C   0  0  0  0  0  0  0  0  0  0  0  0
  -26.2493  -26.4885   21.1678 C   0  0  0  0  0  0  0  0  0  0  0  0
  -32.5560  -24.2197   19.0541 C   0  0  0  0  0  0  0  0  0  0  0  0
  -23.0117   -8.1461   21.8661 C   0  0  0  0  0  0  0  0  0  0  0  0
  -26.0549  -14.3711   21.0715 C   0  0  0  0  0  0  0  0  0  0  0  0
  -28.3813  -15.2597   20.5188 C   0  0  0  0  0  0  0  0  0  0  0  0
  -20.8165  -32.9287   21.1079 C   0  0  0  0  0  0  0  0  0  0  0  0
  -24.0433  -27.1580   20.4296 C   0  0  0  0  0  0  0  0  0  0  0  0
  -21.9615  -32.1280   21.2822 C   0  0  0  0  0  0  0  0  0  0  0  0
  -24.8796  -26.6434   21.4305 C   0  0  0  0  0  0  0  0  0  0  0  0
  -32.8399  -23.7161   20.3234 C   0  0  0  0  0  0  0  0  0  0  0  0
  -31.9392  -22.8543   20.9493 C   0  0  0  0  0  0  0  0  0  0  0  0
  -30.4706  -23.0000   19.0364 C   0  0  0  0  0  0  0  0  0  0  0  0
  -31.3713  -23.8617   18.4106 C   0  0  0  0  0  0  0  0  0  0  0  0
  -30.7545  -22.4962   20.3058 C   0  0  0  0  0  0  0  0  0  0  0  0
  -23.9546  -12.5469   20.8633 C   0  0  0  0  0  0  0  0  0  0  0  0
  -26.7776  -26.8288   19.9227 C   0  0  0  0  0  0  0  0  0  0  0  0
  -23.2408  -10.3085   20.8133 C   0  0  0  0  0  0  0  0  0  0  0  0
  -23.8679   -7.5921   20.9143 C   0  0  0  0  0  0  0  0  0  0  0  0
  -22.6982   -9.5043   21.8156 C   0  0  0  0  0  0  0  0  0  0  0  0
  -27.1391  -15.3140   21.1789 C   0  0  0  0  0  0  0  0  0  0  0  0
  -29.0507  -16.3771   20.9545 C   0  0  0  0  0  0  0  0  0  0  0  0
  -28.8851  -14.2864   19.5944 C   0  0  0  0  0  0  0  0  0  0  0  0
  -22.5577  -28.7790   22.7250 C   0  0  0  0  0  0  0  0  0  0  0  0
  -30.4607  -25.5016   17.0049 C   0  0  0  0  0  0  0  0  0  0  0  0
  -22.1986  -25.8334   24.0352 C   0  0  0  0  0  0  0  0  0  0  0  0
  -23.3085  -22.6153   24.2773 C   0  0  0  0  0  0  0  0  0  0  0  0
  -29.1899  -21.8118   22.1578 C   0  0  0  0  0  0  0  0  0  0  0  0
  -19.7215  -32.9833   22.1435 C   0  0  0  0  0  0  0  0  0  0  0  0
  -22.5673  -27.3118   20.6749 C   0  0  0  0  0  0  0  0  0  0  0  0
  -24.3494  -26.2587   22.7867 C   0  0  0  0  0  0  0  0  0  0  0  0
  -19.7515  -31.8135   23.1239 C   0  0  0  0  0  0  0  0  0  0  0  0
  -27.9649  -19.6223   24.6843 C   0  0  0  0  0  0  0  0  0  0  0  0
  -21.1707  -31.5785   23.6313 C   0  0  0  0  0  0  0  0  0  0  0  0
  -27.7430  -18.3018   23.9432 C   0  0  0  0  0  0  0  0  0  0  0  0
  -27.6181  -20.8275   23.8118 C   0  0  0  0  0  0  0  0  0  0  0  0
  -28.0589  -19.5361   21.7606 C   0  0  0  0  0  0  0  0  0  0  0  0
  -22.1154  -31.2152   22.4793 C   0  0  1  0  0  0  0  0  0  0  0  0
  -22.2168  -27.4313   22.1549 C   0  0  1  0  0  0  0  0  0  0  0  0
  -28.4565  -18.2955   22.5770 C   0  0  2  0  0  0  0  0  0  0  0  0
  -34.1165  -24.1142   20.9894 C   0  0  0  0  0  0  0  0  0  0  0  0
  -32.2514  -22.3169   22.3111 C   0  0  0  0  0  0  0  0  0  0  0  0
  -29.2010  -22.6190   18.3403 C   0  0  0  0  0  0  0  0  0  0  0  0
  -30.1192  -26.1504   15.6793 C   0  0  0  0  0  0  0  0  0  0  0  0
  -22.8353  -20.4518   25.4574 C   0  0  0  0  0  0  0  0  0  0  0  0
  -23.4568  -26.9497   26.5810 C   0  0  0  0  0  0  0  0  0  0  0  0
  -23.8268  -24.5951   27.3474 C   0  0  0  0  0  0  0  0  0  0  0  0
  -21.5079  -25.4292   26.9606 C   0  0  0  0  0  0  0  0  0  0  0  0
  -22.7893  -21.2042   21.7281 C   0  0  0  0  0  0  0  0  0  0  0  0
  -28.4944  -26.3839   18.3383 C   0  0  0  0  0  0  0  0  0  1  0  0
  -30.0160  -26.2404   18.2719 C   0  0  2  0  0  0  0  0  0  0  0  0
  -23.0091  -24.9764   24.9774 C   0  0  1  0  0  0  0  0  0  0  0  0
  -22.5731  -21.2887   24.2151 C   0  0  2  0  0  0  0  0  0  0  0  0
  -22.9608  -25.4965   26.4418 C   0  0  0  0  0  0  0  0  0  0  0  0
  -30.7055  -27.5932   18.3291 C   0  0  0  0  0  0  0  0  0  0  0  0
  -27.0237  -16.3813   21.9736 N   0  0  0  0  0  0  0  0  0  0  0  0
  -31.1045  -24.3789   17.1343 N   0  0  0  0  0  0  0  0  0  0  0  0
  -28.2020  -17.0080   21.8158 N   0  0  0  0  0  0  0  0  0  0  0  0
  -22.9004  -26.4333   22.9800 N   0  0  0  0  0  0  0  0  0  0  0  0
  -28.3338  -20.7559   22.5361 N   0  0  0  0  0  0  0  0  0  0  0  0
  -30.2767  -16.8717   20.6810 N   0  0  0  0  0  0  0  0  0  0  0  0
  -28.0663  -13.2006   19.2553 N   0  0  0  0  0  0  0  0  0  0  0  0
  -29.8414  -21.6179   20.9402 N   0  0  0  0  0  0  0  0  0  0  0  0
  -21.9299  -29.8337   22.0901 N   0  0  0  0  0  0  0  0  0  0  0  0
  -22.5196  -23.6121   24.8114 N   0  0  0  0  0  0  0  0  0  0  0  0
  -23.0105  -20.5094   23.0225 N   0  3  0  0  0  0  0  0  0  0  0  0
  -30.0337  -14.3681   19.0969 O   0  0  0  0  0  0  0  0  0  0  0  0
  -23.3317  -28.8563   23.6719 O   0  0  0  0  0  0  0  0  0  0  0  0
  -20.9863  -25.9600   24.2244 O   0  0  0  0  0  0  0  0  0  0  0  0
  -24.4682  -22.7526   23.8941 O   0  0  0  0  0  0  0  0  0  0  0  0
  -29.3553  -22.8018   22.8751 O   0  0  0  0  0  0  0  0  0  0  0  0
  -22.9298  -11.6569   20.7613 O   0  0  0  0  0  0  0  0  0  0  0  0
  -28.1076  -26.6717   19.6814 O   0  0  0  0  0  0  0  0  0  1  0  0
  -24.1679   -6.2875   20.9618 F   0  0  0  0  0  0  0  0  0  0  0  0
  -21.8742  -10.0306   22.7320 F   0  0  0  0  0  0  0  0  0  0  0  0
  -32.0499  -27.4757   18.2893 F   0  0  0  0  0  0  0  0  0  0  0  0
  -30.3811  -28.2590   19.4596 F   0  0  0  0  0  0  0  0  0  0  0  0
  -30.3311  -28.3679   17.2860 F   0  0  0  0  0  0  0  0  0  0  0  0
  1  2  1  0  0  0  0
  1  5  2  0  0  0  0
  2  6  2  0  0  0  0
  3  8  2  0  0  0  0
  3 16  1  0  0  0  0
  4  9  1  0  0  0  0
  4 16  2  0  0  0  0
  5 18  1  0  0  0  0
  6 20  1  0  0  0  0
  7 10  2  0  0  0  0
  7 19  1  0  0  0  0
  8 27  1  0  0  0  0
  9 27  2  0  0  0  0
 10 28  1  0  0  0  0
 11 12  2  0  0  0  0
 11 29  1  0  0  0  0
 12 30  1  0  0  0  0
 13 21  1  0  0  0  0
 13 28  2  0  0  0  0
 14 22  2  0  0  0  0
 14 25  1  0  0  0  0
 15 30  2  0  0  0  0
 15 31  1  0  0  0  0
 16 32  1  0  0  0  0
 17 32  1  0  0  0  0
 17 33  2  0  0  0  0
 17 34  1  0  0  0  0
 18 20  2  0  0  0  0
 18 40  1  0  0  0  0
 19 21  2  0  0  0  0
 19 41  1  0  0  0  0
 20 49  1  0  0  0  0
 21 42  1  0  0  0  0
 22 23  1  0  0  0  0
 22 52  1  0  0  0  0
 23 26  2  0  0  0  0
 23 53  1  0  0  0  0
 24 25  2  0  0  0  0
 24 26  1  0  0  0  0
 24 54  1  0  0  0  0
 25 68  1  0  0  0  0
 26 74  1  0  0  0  0
 27 83  1  0  0  0  0
 28 84  1  0  0  0  0
 29 31  2  0  0  0  0
 29 83  1  0  0  0  0
 30 85  1  0  0  0  0
 31 86  1  0  0  0  0
 32 67  2  0  0  0  0
 33 69  1  0  0  0  0
 33 72  1  0  0  0  0
 34 73  1  0  0  0  0
 34 78  2  0  0  0  0
 35 50  1  0  0  0  0
 35 75  1  0  0  0  0
 35 79  2  0  0  0  0
 36 55  1  0  0  0  0
 36 62  1  0  0  0  0
 36 68  2  0  0  0  0
 37 63  1  0  0  0  0
 37 70  1  0  0  0  0
 37 80  2  0  0  0  0
 38 64  1  0  0  0  0
 38 76  1  0  0  0  0
 38 81  2  0  0  0  0
 39 71  1  0  0  0  0
 39 74  1  0  0  0  0
 39 82  2  0  0  0  0
 40 43  1  0  0  0  0
 41 50  1  0  0  0  0
 42 70  1  0  0  0  0
 43 45  1  0  0  0  0
 44 46  1  0  0  0  0
 44 47  1  0  0  0  0
 45 49  1  0  0  0  0
 46 51  1  0  0  0  0
 47 71  1  0  0  0  0
 48 51  1  0  0  0  0
 48 71  1  0  0  0  0
 49 75  1  0  0  0  0
 50 70  1  0  0  0  0
 51 69  1  0  0  0  0
 56 64  1  0  0  0  0
 57 65  1  0  0  0  0
 58 65  1  0  0  0  0
 59 65  1  0  0  0  0
 60 77  1  0  0  0  0
 61 62  1  0  0  0  0
 61 84  1  0  0  0  0
 62 66  1  0  0  0  0
 63 65  1  0  0  0  0
 63 76  1  0  0  0  0
 64 77  1  0  0  0  0
 66 87  1  0  0  0  0
 66 88  1  0  0  0  0
 66 89  1  0  0  0  0
 67 69  1  0  0  0  0
M  CHG  1  77   1
M  ISO  4  39 100  61 101  74 100  84 101
M  END
> <Batch ID>
0016

> <Smiles>
CNC(C)C(=O)NC(C(=O)N1Cc2cc([101O:1][101CH2:1]C(=C(C)Nc3cc(C)c(C)c([100NH:0][100C:0](=O)N4CCCC(n5nc(-c6ccc(Oc7ccc(F)cc7F)cc6)c(C(N)=O)c5N)C4)c3C)C(F)(F)F)ccc2CC1C(=O)NC1CCCc2ccccc21)C(C)(C)C

> <Shape>
0.209

> <Color>
0.075

> <Negative vol penalty>
0.000

$$$$

  -OEChem-04052315583D

 93101  0     1  0  0  0  0  0999 V2000
  -20.6638  -33.3598   15.1685 C   0  0  0  0  0  0  0  0  0  0  0  0
  -21.8258  -32.5977   15.2339 C   0  0  0  0  0  0  0  0  0  0  0  0
  -23.1039   -9.8520   19.9989 C   0  0  0  0  0  0  0  0  0  0  0  0
  -24.3770   -9.6372   22.0410 C   0  0  0  0  0  0  0  0  0  0  0  0
  -20.3496  -34.2399   16.2033 C   0  0  0  0  0  0  0  0  0  0  0  0
  -22.6749  -32.7160   16.3336 C   0  0  0  0  0  0  0  0  0  0  0  0
  -25.9946  -28.2651   18.9173 C   0  0  0  0  0  0  0  0  0  0  0  0
  -22.5518   -8.5886   20.2102 C   0  0  0  0  0  0  0  0  0  0  0  0
  -23.8248   -8.3739   22.2523 C   0  0  0  0  0  0  0  0  0  0  0  0
  -27.3348  -27.9017   18.7927 C   0  0  0  0  0  0  0  0  0  0  0  0
  -20.9186   -7.0880   23.4016 C   0  0  0  0  0  0  0  0  0  0  0  0
  -20.4651   -6.7872   24.6859 C   0  0  0  0  0  0  0  0  0  0  0  0
  -27.8609  -29.1890   20.7638 C   0  0  0  0  0  0  0  0  0  0  0  0
  -22.0219   -4.9434   24.8039 C   0  0  0  0  0  0  0  0  0  0  0  0
  -24.0165  -10.3763   20.9142 C   0  0  0  0  0  0  0  0  0  0  0  0
  -24.0807  -12.9163   21.1423 C   0  0  0  0  0  0  0  0  0  0  0  0
  -21.1904  -34.3619   17.3208 C   0  0  0  0  0  0  0  0  0  0  0  0
  -25.5786  -29.1034   19.9616 C   0  0  0  0  0  0  0  0  0  0  0  0
  -22.3724  -33.5995   17.3837 C   0  0  0  0  0  0  0  0  0  0  0  0
  -26.5144  -29.5595   20.9009 C   0  0  0  0  0  0  0  0  0  0  0  0
  -29.8091  -19.8101   22.0050 C   0  0  0  0  0  0  0  0  0  0  0  0
  -29.3388  -18.6075   21.4775 C   0  0  0  0  0  0  0  0  0  0  0  0
  -31.1091  -19.8918   22.5041 C   0  0  0  0  0  0  0  0  0  0  0  0
  -31.4685  -17.5683   21.9482 C   0  0  0  0  0  0  0  0  0  0  0  0
  -30.1685  -17.4866   21.4491 C   0  0  0  0  0  0  0  0  0  0  0  0
  -31.9388  -18.7709   22.4757 C   0  0  0  0  0  0  0  0  0  0  0  0
  -22.9122   -7.8495   21.3369 C   0  0  0  0  0  0  0  0  0  0  0  0
  -28.2687  -28.3660   19.7143 C   0  0  0  0  0  0  0  0  0  0  0  0
  -21.9237   -6.3164   22.8184 C   0  0  0  0  0  0  0  0  0  0  0  0
  -21.0167   -5.7150   25.3871 C   0  0  0  0  0  0  0  0  0  0  0  0
  -22.4754   -5.2442   23.5195 C   0  0  0  0  0  0  0  0  0  0  0  0
  -24.5876  -11.6810   20.6962 C   0  0  0  0  0  0  0  0  0  0  0  0
  -24.9812  -13.8443   20.6795 C   0  0  0  0  0  0  0  0  0  0  0  0
  -22.9013  -13.1994   21.9068 C   0  0  0  0  0  0  0  0  0  0  0  0
  -24.2424  -31.9826   20.1299 C   0  0  0  0  0  0  0  0  0  0  0  0
  -24.0953  -31.3005   23.2978 C   0  0  0  0  0  0  0  0  0  0  0  0
  -34.4094  -19.1991   22.2840 C   0  0  0  0  0  0  0  0  0  0  0  0
  -32.5141  -23.4946   22.5256 C   0  0  0  0  0  0  0  0  0  0  0  0
  -25.3283  -29.5266   25.9397 C   0  0  0  0  0  0  0  0  0  0  0  0
  -30.2117  -15.5552   19.8323 C   0  0  0  0  0  0  0  0  0  0  0  0
  -20.8331  -35.3613   18.3923 C   0  0  0  0  0  0  0  0  0  0  0  0
  -24.1248  -29.4645   20.0976 C   0  0  0  0  0  0  0  0  0  0  0  0
  -26.1156  -30.4453   22.0519 C   0  0  0  0  0  0  0  0  0  0  0  0
  -21.5948  -35.1522   19.6986 C   0  0  0  0  0  0  0  0  0  0  0  0
  -28.8052  -13.3716   17.3969 C   0  0  0  0  0  0  0  0  0  0  0  0
  -23.0794  -34.9371   19.4224 C   0  0  0  0  0  0  0  0  0  0  0  0
  -27.5409  -12.8387   18.0749 C   0  0  0  0  0  0  0  0  0  0  0  0
  -29.9512  -13.5471   18.3918 C   0  0  0  0  0  0  0  0  0  0  0  0
  -28.3623  -13.8183   20.2549 C   0  0  0  0  0  0  0  0  0  0  0  0
  -23.3061  -33.6816   18.5717 C   0  0  1  0  0  0  0  0  0  0  0  0
  -23.8988  -30.7406   20.9025 C   0  0  1  0  0  0  0  0  0  0  0  0
  -27.1609  -13.6865   19.3047 C   0  0  2  0  0  0  0  0  0  0  0  0
  -28.9191  -21.0127   22.0352 C   0  0  0  0  0  0  0  0  0  0  0  0
  -27.9426  -18.5244   20.9435 C   0  0  0  0  0  0  0  0  0  0  0  0
  -32.3598  -16.3644   21.9177 C   0  0  0  0  0  0  0  0  0  0  0  0
  -35.6184  -19.1714   23.1852 C   0  0  0  0  0  0  0  0  0  0  0  0
  -25.0303  -29.2108   28.4113 C   0  0  0  0  0  0  0  0  0  0  0  0
  -25.5295  -33.9452   23.8063 C   0  0  0  0  0  0  0  0  0  0  0  0
  -26.0420  -33.1420   26.1216 C   0  0  0  0  0  0  0  0  0  0  0  0
  -23.6720  -33.4419   25.4033 C   0  0  0  0  0  0  0  0  0  0  0  0
  -24.6394  -26.6675   25.6087 C   0  0  0  0  0  0  0  0  0  0  0  0
  -31.6130  -21.1932   23.0722 C   0  0  0  0  0  0  0  0  0  0  0  0
  -31.9870  -22.1833   21.9707 C   0  0  0  0  0  0  0  0  0  0  0  0
  -32.2799  -26.7523   21.9075 C   0  0  0  0  0  0  0  0  0  0  0  0
  -31.4507  -26.8955   20.6309 C   0  0  0  0  0  0  0  0  0  0  0  0
  -33.3754  -25.6988   21.7778 C   0  0  0  0  0  0  0  0  0  0  0  0
  -30.3386  -27.9233   20.7983 C   0  0  0  0  0  0  0  0  0  1  0  0
  -25.0117  -31.5070   24.4795 C   0  0  1  0  0  0  0  0  0  0  0  0
  -24.6347  -28.7242   27.0259 C   0  0  2  0  0  0  0  0  0  0  0  0
  -25.0719  -32.9939   24.9300 C   0  0  0  0  0  0  0  0  0  0  0  0
  -25.7221  -11.8093   20.0030 N   0  0  0  0  0  0  0  0  0  0  0  0
  -25.9354  -13.1362   20.0100 N   0  0  0  0  0  0  0  0  0  0  0  0
  -24.6835  -30.7757   22.1383 N   0  0  0  0  0  0  0  0  0  0  0  0
  -29.5192  -14.3642   19.5279 N   0  0  0  0  0  0  0  0  0  0  0  0
  -25.0419  -15.1889   20.7838 N   0  0  0  0  0  0  0  0  0  0  0  0
  -22.0873  -12.1286   22.3008 N   0  0  0  0  0  0  0  0  0  0  0  0
  -33.2437  -18.8538   22.9752 N   0  0  0  0  0  0  0  0  0  0  0  0
  -29.6903  -16.2651   20.9134 N   0  0  0  0  0  0  0  0  0  0  0  0
  -23.1939  -32.4914   19.3874 N   0  0  0  0  0  0  0  0  0  0  0  0
  -32.8509  -24.3871   21.5133 N   0  0  0  0  0  0  0  0  0  0  0  0
  -24.5554  -30.5868   25.5156 N   0  0  0  0  0  0  0  0  0  0  0  0
  -24.9939  -27.2822   26.9138 N   0  3  0  0  0  0  0  0  0  0  0  0
  -22.5700  -14.3689   22.2170 O   0  0  0  0  0  0  0  0  0  0  0  0
  -25.3744  -32.4460   20.2033 O   0  0  0  0  0  0  0  0  0  0  0  0
  -22.9001  -31.5873   23.4020 O   0  0  0  0  0  0  0  0  0  0  0  0
  -34.5155  -19.5011   21.0998 O   0  0  0  0  0  0  0  0  0  0  0  0
  -32.6246  -23.7223   23.7273 O   0  0  0  0  0  0  0  0  0  0  0  0
  -26.4456  -29.2436   25.5131 O   0  0  0  0  0  0  0  0  0  0  0  0
  -31.1783  -15.9325   19.1650 O   0  0  0  0  0  0  0  0  0  0  0  0
  -22.3735   -6.6168   21.5436 O   0  0  0  0  0  0  0  0  0  0  0  0
  -29.5776  -28.0133   19.5946 O   0  0  0  0  0  0  0  0  0  1  0  0
  -20.5822   -5.4272   26.6210 F   0  0  0  0  0  0  0  0  0  0  0  0
  -23.4421   -4.5001   22.9649 F   0  0  0  0  0  0  0  0  0  0  0  0
  1  2  1  0  0  0  0
  1  5  2  0  0  0  0
  2  6  2  0  0  0  0
  3  8  2  0  0  0  0
  3 15  1  0  0  0  0
  4  9  1  0  0  0  0
  4 15  2  0  0  0  0
  5 17  1  0  0  0  0
  6 19  1  0  0  0  0
  7 10  2  0  0  0  0
  7 18  1  0  0  0  0
  8 27  1  0  0  0  0
  9 27  2  0  0  0  0
 10 28  1  0  0  0  0
 11 12  2  0  0  0  0
 11 29  1  0  0  0  0
 12 30  1  0  0  0  0
 13 20  1  0  0  0  0
 13 28  2  0  0  0  0
 14 30  2  0  0  0  0
 14 31  1  0  0  0  0
 15 32  1  0  0  0  0
 16 32  1  0  0  0  0
 16 33  2  0  0  0  0
 16 34  1  0  0  0  0
 17 19  2  0  0  0  0
 17 41  1  0  0  0  0
 18 20  2  0  0  0  0
 18 42  1  0  0  0  0
 19 50  1  0  0  0  0
 20 43  1  0  0  0  0
 21 22  2  0  0  0  0
 21 23  1  0  0  0  0
 21 53  1  0  0  0  0
 22 25  1  0  0  0  0
 22 54  1  0  0  0  0
 23 26  2  0  0  0  0
 23 62  1  0  0  0  0
 24 25  2  0  0  0  0
 24 26  1  0  0  0  0
 24 55  1  0  0  0  0
 25 78  1  0  0  0  0
 26 77  1  0  0  0  0
 27 90  1  0  0  0  0
 28 91  1  0  0  0  0
 29 31  2  0  0  0  0
 29 90  1  0  0  0  0
 30 92  1  0  0  0  0
 31 93  1  0  0  0  0
 32 71  2  0  0  0  0
 33 72  1  0  0  0  0
 33 75  1  0  0  0  0
 34 76  1  0  0  0  0
 34 83  2  0  0  0  0
 35 51  1  0  0  0  0
 35 79  1  0  0  0  0
 35 84  2  0  0  0  0
 36 68  1  0  0  0  0
 36 73  1  0  0  0  0
 36 85  2  0  0  0  0
 37 56  1  0  0  0  0
 37 77  1  0  0  0  0
 37 86  2  0  0  0  0
 38 63  1  0  0  0  0
 38 80  1  0  0  0  0
 38 87  2  0  0  0  0
 39 69  1  0  0  0  0
 39 81  1  0  0  0  0
 39 88  2  0  0  0  0
 40 74  1  0  0  0  0
 40 78  1  0  0  0  0
 40 89  2  0  0  0  0
 41 44  1  0  0  0  0
 42 51  1  0  0  0  0
 43 73  1  0  0  0  0
 44 46  1  0  0  0  0
 45 47  1  0  0  0  0
 45 48  1  0  0  0  0
 46 50  1  0  0  0  0
 47 52  1  0  0  0  0
 48 74  1  0  0  0  0
 49 52  1  0  0  0  0
 49 74  1  0  0  0  0
 50 79  1  0  0  0  0
 51 73  1  0  0  0  0
 52 72  1  0  0  0  0
 57 69  1  0  0  0  0
 58 70  1  0  0  0  0
 59 70  1  0  0  0  0
 60 70  1  0  0  0  0
 61 82  1  0  0  0  0
 62 63  1  0  0  0  0
 64 65  1  0  0  0  0
 64 66  1  0  0  0  0
 65 67  1  0  0  0  0
 66 80  1  0  0  0  0
 67 91  1  0  0  0  0
 68 70  1  0  0  0  0
 68 81  1  0  0  0  0
 69 82  1  0  0  0  0
 71 72  1  0  0  0  0
M  CHG  1  82   1
M  ISO  4  40 100  67 101  78 100  91 101
M  END
> <Batch ID>
0016

> <Smiles>
CNC(C)C(=O)NC(C(=O)N1Cc2cc([101O:1][101CH2:1]CCCNC(=O)CCc3c(C)c(C)c([100NH:0][100C:0](=O)N4CCCC(n5nc(-c6ccc(Oc7ccc(F)cc7F)cc6)c(C(N)=O)c5N)C4)c(C)c3NC(C)=O)ccc2CC1C(=O)NC1CCCc2ccccc21)C(C)(C)C

> <Shape>
0.315

> <Color>
0.150

> <Negative vol penalty>
0.000

$$$$

  -OEChem-04052315583D

 84 92  0     1  0  0  0  0  0999 V2000
  -36.9438  -31.1235   27.2179 C   0  0  0  0  0  0  0  0  0  0  0  0
  -36.6375  -29.7772   27.3887 C   0  0  0  0  0  0  0  0  0  0  0  0
  -23.0777   -9.8646   19.9446 C   0  0  0  0  0  0  0  0  0  0  0  0
  -23.8332   -9.8802   22.2394 C   0  0  0  0  0  0  0  0  0  0  0  0
  -35.9529  -32.0168   26.8131 C   0  0  0  0  0  0  0  0  0  0  0  0
  -35.3397  -29.3236   27.1557 C   0  0  0  0  0  0  0  0  0  0  0  0
  -33.6959  -23.8944   24.8476 C   0  0  0  0  0  0  0  0  0  0  0  0
  -22.3337   -8.7121   20.1973 C   0  0  0  0  0  0  0  0  0  0  0  0
  -23.0892   -8.7277   22.4921 C   0  0  0  0  0  0  0  0  0  0  0  0
  -33.2633  -22.7124   25.4472 C   0  0  0  0  0  0  0  0  0  0  0  0
  -19.8601   -7.9310   23.0913 C   0  0  0  0  0  0  0  0  0  0  0  0
  -19.1009   -7.8951   24.2609 C   0  0  0  0  0  0  0  0  0  0  0  0
  -30.9724  -23.3642   25.0649 C   0  0  0  0  0  0  0  0  0  0  0  0
  -31.5674  -19.3829   22.8453 C   0  0  0  0  0  0  0  0  0  0  0  0
  -20.3415   -5.9608   25.0068 C   0  0  0  0  0  0  0  0  0  0  0  0
  -23.8275  -10.4486   20.9656 C   0  0  0  0  0  0  0  0  0  0  0  0
  -24.1687  -12.9734   20.8370 C   0  0  0  0  0  0  0  0  0  0  0  0
  -34.6445  -31.5722   26.5657 C   0  0  0  0  0  0  0  0  0  0  0  0
  -32.7683  -24.8267   24.3611 C   0  0  0  0  0  0  0  0  0  0  0  0
  -34.3299  -30.2121   26.7485 C   0  0  0  0  0  0  0  0  0  0  0  0
  -31.3959  -24.5561   24.4572 C   0  0  0  0  0  0  0  0  0  0  0  0
  -31.4484  -19.1524   21.4748 C   0  0  0  0  0  0  0  0  0  0  0  0
  -30.7000  -17.1728   23.2925 C   0  0  0  0  0  0  0  0  0  0  0  0
  -31.1932  -18.3931   23.7541 C   0  0  0  0  0  0  0  0  0  0  0  0
  -30.5809  -16.9423   21.9219 C   0  0  0  0  0  0  0  0  0  0  0  0
  -22.3394   -8.1437   21.4710 C   0  0  0  0  0  0  0  0  0  0  0  0
  -31.9013  -22.4485   25.5585 C   0  0  0  0  0  0  0  0  0  0  0  0
  -20.8600   -6.9818   22.8794 C   0  0  0  0  0  0  0  0  0  0  0  0
  -19.3416   -6.9100   25.2186 C   0  0  0  0  0  0  0  0  0  0  0  0
  -21.1007   -5.9967   23.8371 C   0  0  0  0  0  0  0  0  0  0  0  0
  -30.9551  -17.9321   21.0131 C   0  0  0  0  0  0  0  0  0  0  0  0
  -24.5967  -11.6388   20.7050 C   0  0  0  0  0  0  0  0  0  0  0  0
  -25.2614  -13.7220   20.4731 C   0  0  0  0  0  0  0  0  0  0  0  0
  -22.8973  -13.4904   21.2516 C   0  0  0  0  0  0  0  0  0  0  0  0
  -32.0589  -27.8496   25.0414 C   0  0  0  0  0  0  0  0  0  0  0  0
  -30.0955  -27.5579   22.4758 C   0  0  0  0  0  0  0  0  0  0  0  0
  -28.2960  -25.5102   20.4226 C   0  0  0  0  0  0  0  0  0  0  0  0
  -30.7269  -14.7700   20.6546 C   0  0  0  0  0  0  0  0  0  0  0  0
  -33.5958  -32.5835   26.1754 C   0  0  0  0  0  0  0  0  0  0  0  0
  -33.2517  -26.0847   23.6929 C   0  0  0  0  0  0  0  0  0  0  0  0
  -30.3598  -25.5151   23.9326 C   0  0  0  0  0  0  0  0  0  0  0  0
  -32.3344  -31.9567   25.5871 C   0  0  0  0  0  0  0  0  0  0  0  0
  -29.6178  -12.3472   18.2929 C   0  0  0  0  0  0  0  0  0  0  0  0
  -31.8745  -30.7799   26.4419 C   0  0  0  0  0  0  0  0  0  0  0  0
  -28.1774  -12.0567   18.7208 C   0  0  0  0  0  0  0  0  0  0  0  0
  -30.5305  -12.5807   19.4955 C   0  0  0  0  0  0  0  0  0  0  0  0
  -28.6207  -13.3095   20.8705 C   0  0  0  0  0  0  0  0  0  0  0  0
  -32.9396  -29.6774   26.4816 C   0  0  1  0  0  0  0  0  0  0  0  0
  -32.2109  -27.2001   23.6950 C   0  0  1  0  0  0  0  0  0  0  0  0
  -27.6502  -13.1317   19.6914 C   0  0  2  0  0  0  0  0  0  0  0  0
  -31.8623  -20.2420   20.5386 C   0  0  0  0  0  0  0  0  0  0  0  0
  -30.2997  -16.1132   24.2727 C   0  0  0  0  0  0  0  0  0  0  0  0
  -26.7625  -25.5657   18.4370 C   0  0  0  0  0  0  0  0  0  0  0  0
  -27.8229  -28.5361   24.2613 C   0  0  0  0  0  0  0  0  0  0  0  0
  -26.2053  -27.6782   22.5538 C   0  0  0  0  0  0  0  0  0  0  0  0
  -27.8143  -29.4855   21.9477 C   0  0  0  0  0  0  0  0  0  0  0  0
  -32.5608  -18.3125   25.8238 C   0  0  0  0  0  0  0  0  0  0  0  0
  -30.1513  -23.8740   18.7979 C   0  0  0  0  0  0  0  0  0  0  0  0
  -30.2428  -19.2464   25.8823 C   0  0  0  0  0  0  0  0  0  0  0  0
  -30.2383  -20.7532   25.6864 C   0  0  0  0  0  0  0  0  0  1  0  0
  -28.6639  -27.1260   22.2687 C   0  0  1  0  0  0  0  0  0  0  0  0
  -28.2018  -25.4314   18.9095 C   0  0  2  0  0  0  0  0  0  0  0  0
  -27.6458  -28.1891   22.7696 C   0  0  0  0  0  0  0  0  0  0  0  0
  -25.8624  -11.5419   20.2895 N   0  0  0  0  0  0  0  0  0  0  0  0
  -26.2391  -12.8251   20.1572 N   0  0  0  0  0  0  0  0  0  0  0  0
  -30.8821  -26.7341   23.2933 N   0  0  0  0  0  0  0  0  0  0  0  0
  -29.9695  -13.6145   20.3681 N   0  0  0  0  0  0  0  0  0  0  0  0
  -25.4715  -15.0532   20.3957 N   0  0  0  0  0  0  0  0  0  0  0  0
  -21.8850  -12.5821   21.5903 N   0  0  0  0  0  0  0  0  0  0  0  0
  -30.0776  -15.6978   21.4684 N   0  0  0  0  0  0  0  0  0  0  0  0
  -32.9187  -28.9101   25.2548 N   0  0  0  0  0  0  0  0  0  0  0  0
  -28.5372  -26.7978   20.8529 N   0  0  0  0  0  0  0  0  0  0  0  0
  -31.3181  -18.6454   25.1268 N   0  0  3  0  0  0  0  0  0  0  0  0
  -28.7360  -24.1274   18.4245 N   0  3  0  0  0  0  0  0  0  0  0  0
  -22.6605  -14.7211   21.3040 O   0  0  0  0  0  0  0  0  0  0  0  0
  -31.2224  -27.4213   25.8278 O   0  0  0  0  0  0  0  0  0  0  0  0
  -30.5029  -28.5845   21.9264 O   0  0  0  0  0  0  0  0  0  0  0  0
  -28.1649  -24.5284   21.1502 O   0  0  0  0  0  0  0  0  0  0  0  0
  -31.8568  -14.9374   20.1885 O   0  0  0  0  0  0  0  0  0  0  0  0
  -21.6134   -7.0193   21.7181 O   0  0  0  0  0  0  0  0  0  0  0  0
  -31.4762  -21.2959   26.1439 O   0  0  0  0  0  0  0  0  0  1  0  0
  -18.6135   -6.8766   26.3424 F   0  0  0  0  0  0  0  0  0  0  0  0
  -22.0607   -5.0828   23.6397 F   0  0  0  0  0  0  0  0  0  0  0  0
  -30.8129  -17.6546   19.3072 Cl  0  0  0  0  0  0  0  0  0  0  0  0
  1  2  1  0  0  0  0
  1  5  2  0  0  0  0
  2  6  2  0  0  0  0
  3  8  2  0  0  0  0
  3 16  1  0  0  0  0
  4  9  1  0  0  0  0
  4 16  2  0  0  0  0
  5 18  1  0  0  0  0
  6 20  1  0  0  0  0
  7 10  2  0  0  0  0
  7 19  1  0  0  0  0
  8 26  1  0  0  0  0
  9 26  2  0  0  0  0
 10 27  1  0  0  0  0
 11 12  2  0  0  0  0
 11 28  1  0  0  0  0
 12 29  1  0  0  0  0
 13 21  1  0  0  0  0
 13 27  2  0  0  0  0
 14 22  2  0  0  0  0
 14 24  1  0  0  0  0
 15 29  2  0  0  0  0
 15 30  1  0  0  0  0
 16 32  1  0  0  0  0
 17 32  1  0  0  0  0
 17 33  2  0  0  0  0
 17 34  1  0  0  0  0
 18 20  2  0  0  0  0
 18 39  1  0  0  0  0
 19 21  2  0  0  0  0
 19 40  1  0  0  0  0
 20 48  1  0  0  0  0
 21 41  1  0  0  0  0
 22 31  1  0  0  0  0
 22 51  1  0  0  0  0
 23 24  2  0  0  0  0
 23 25  1  0  0  0  0
 23 52  1  0  0  0  0
 24 73  1  0  0  0  0
 25 31  2  0  0  0  0
 25 70  1  0  0  0  0
 26 80  1  0  0  0  0
 27 81  1  0  0  0  0
 28 30  2  0  0  0  0
 28 80  1  0  0  0  0
 29 82  1  0  0  0  0
 30 83  1  0  0  0  0
 31 84  1  0  0  0  0
 32 64  2  0  0  0  0
 33 65  1  0  0  0  0
 33 68  1  0  0  0  0
 34 69  1  0  0  0  0
 34 75  2  0  0  0  0
 35 49  1  0  0  0  0
 35 71  1  0  0  0  0
 35 76  2  0  0  0  0
 36 61  1  0  0  0  0
 36 66  1  0  0  0  0
 36 77  2  0  0  0  0
 37 62  1  0  0  0  0
 37 72  1  0  0  0  0
 37 78  2  0  0  0  0
 38 67  1  0  0  0  0
 38 70  1  0  0  0  0
 38 79  2  0  0  0  0
 39 42  1  0  0  0  0
 40 49  1  0  0  0  0
 41 66  1  0  0  0  0
 42 44  1  0  0  0  0
 43 45  1  0  0  0  0
 43 46  1  0  0  0  0
 44 48  1  0  0  0  0
 45 50  1  0  0  0  0
 46 67  1  0  0  0  0
 47 50  1  0  0  0  0
 47 67  1  0  0  0  0
 48 71  1  0  0  0  0
 49 66  1  0  0  0  0
 50 65  1  0  0  0  0
 53 62  1  0  0  0  0
 54 63  1  0  0  0  0
 55 63  1  0  0  0  0
 56 63  1  0  0  0  0
 57 73  1  0  0  0  0
 58 74  1  0  0  0  0
 59 60  1  0  0  0  0
 59 73  1  0  0  0  0
 60 81  1  0  0  0  0
 61 63  1  0  0  0  0
 61 72  1  0  0  0  0
 62 74  1  0  0  0  0
 64 65  1  0  0  0  0
M  CHG  1  74   1
M  ISO  4  38 100  60 101  70 100  81 101
M  END
> <Batch ID>
0016

> <Smiles>
CNC(C)C(=O)NC(C(=O)N1Cc2cc([101O:1][101CH2:1]CN(C)c3cc(C)c(Cl)c([100NH:0][100C:0](=O)N4CCCC(n5nc(-c6ccc(Oc7ccc(F)cc7F)cc6)c(C(N)=O)c5N)C4)c3C)ccc2CC1C(=O)NC1CCCc2ccccc21)C(C)(C)C

> <Shape>
0.223

> <Color>
0.200

> <Negative vol penalty>
0.000

$$$$

  -OEChem-04052315583D

 84 92  0     1  0  0  0  0  0999 V2000
  -18.7842  -18.0311   23.5027 C   0  0  0  0  0  0  0  0  0  0  0  0
  -20.0159  -18.6502   23.3152 C   0  0  0  0  0  0  0  0  0  0  0  0
  -23.0316   -9.7895   20.6168 C   0  0  0  0  0  0  0  0  0  0  0  0
  -23.6807  -10.3736   22.8695 C   0  0  0  0  0  0  0  0  0  0  0  0
  -17.6158  -18.6634   23.0796 C   0  0  0  0  0  0  0  0  0  0  0  0
  -20.0799  -19.9017   22.7035 C   0  0  0  0  0  0  0  0  0  0  0  0
  -23.1950  -23.0848   25.1136 C   0  0  0  0  0  0  0  0  0  0  0  0
  -22.2443   -8.7506   21.1129 C   0  0  0  0  0  0  0  0  0  0  0  0
  -22.8933   -9.3346   23.3657 C   0  0  0  0  0  0  0  0  0  0  0  0
  -24.5631  -22.9193   24.9018 C   0  0  0  0  0  0  0  0  0  0  0  0
  -21.3389   -6.6113   25.2035 C   0  0  0  0  0  0  0  0  0  0  0  0
  -21.8884   -5.7977   26.1942 C   0  0  0  0  0  0  0  0  0  0  0  0
  -24.5314  -24.7370   23.3162 C   0  0  0  0  0  0  0  0  0  0  0  0
  -31.8788  -18.9124   23.0578 C   0  0  0  0  0  0  0  0  0  0  0  0
  -23.6663   -5.1627   24.6866 C   0  0  0  0  0  0  0  0  0  0  0  0
  -23.7499  -10.6010   21.4950 C   0  0  0  0  0  0  0  0  0  0  0  0
  -24.1685  -13.0053   20.7520 C   0  0  0  0  0  0  0  0  0  0  0  0
  -17.6648  -19.9276   22.4712 C   0  0  0  0  0  0  0  0  0  0  0  0
  -22.4816  -24.0722   24.4189 C   0  0  0  0  0  0  0  0  0  0  0  0
  -18.9112  -20.5509   22.2707 C   0  0  0  0  0  0  0  0  0  0  0  0
  -23.1549  -24.9147   23.5228 C   0  0  0  0  0  0  0  0  0  0  0  0
  -32.4397  -17.6368   23.1176 C   0  0  0  0  0  0  0  0  0  0  0  0
  -30.7255  -19.1326   22.3047 C   0  0  0  0  0  0  0  0  0  0  0  0
  -30.6942  -16.8014   21.6710 C   0  0  0  0  0  0  0  0  0  0  0  0
  -22.1751   -8.5231   22.4874 C   0  0  0  0  0  0  0  0  0  0  0  0
  -25.2309  -23.7436   24.0009 C   0  0  0  0  0  0  0  0  0  0  0  0
  -21.9530   -6.7007   23.9542 C   0  0  0  0  0  0  0  0  0  0  0  0
  -23.0521   -5.0734   25.9358 C   0  0  0  0  0  0  0  0  0  0  0  0
  -23.1167   -5.9764   23.6958 C   0  0  0  0  0  0  0  0  0  0  0  0
  -31.8475  -16.5813   22.4241 C   0  0  0  0  0  0  0  0  0  0  0  0
  -30.1332  -18.0771   21.6113 C   0  0  0  0  0  0  0  0  0  0  0  0
  -24.5639  -11.6741   20.9830 C   0  0  0  0  0  0  0  0  0  0  0  0
  -25.2975  -13.6198   20.2683 C   0  0  0  0  0  0  0  0  0  0  0  0
  -22.8945  -13.6304   20.9565 C   0  0  0  0  0  0  0  0  0  0  0  0
  -20.0702  -24.0586   22.3480 C   0  0  0  0  0  0  0  0  0  0  0  0
  -20.2625  -27.2776   22.6989 C   0  0  0  0  0  0  0  0  0  0  0  0
  -22.1570  -29.9943   23.5220 C   0  0  0  0  0  0  0  0  0  0  0  0
  -30.7765  -14.5926   20.4625 C   0  0  0  0  0  0  0  0  0  0  0  0
  -16.3792  -20.5508   21.9878 C   0  0  0  0  0  0  0  0  0  0  0  0
  -21.0114  -24.2555   24.6785 C   0  0  0  0  0  0  0  0  0  0  0  0
  -22.4387  -26.0030   22.7671 C   0  0  0  0  0  0  0  0  0  0  0  0
  -16.5009  -22.0424   21.6869 C   0  0  0  0  0  0  0  0  0  0  0  0
  -29.7089  -11.6688   18.7337 C   0  0  0  0  0  0  0  0  0  0  0  0
  -17.7551  -22.3204   20.8643 C   0  0  0  0  0  0  0  0  0  0  0  0
  -28.2427  -11.5190   19.1458 C   0  0  0  0  0  0  0  0  0  0  0  0
  -30.5715  -12.1846   19.8842 C   0  0  0  0  0  0  0  0  0  0  0  0
  -28.6219  -13.2680   20.9302 C   0  0  0  0  0  0  0  0  0  0  0  0
  -19.0195  -21.9193   21.6336 C   0  0  1  0  0  0  0  0  0  0  0  0
  -20.2853  -24.9557   23.5340 C   0  0  1  0  0  0  0  0  0  0  0  0
  -27.7021  -12.8129   19.7854 C   0  0  2  0  0  0  0  0  0  0  0  0
  -33.6727  -17.4049   23.9245 C   0  0  0  0  0  0  0  0  0  0  0  0
  -22.0503  -32.4967   23.6757 C   0  0  0  0  0  0  0  0  0  0  0  0
  -20.4719  -27.4707   19.6610 C   0  0  0  0  0  0  0  0  0  0  0  0
  -21.3028  -29.8162   19.9370 C   0  0  0  0  0  0  0  0  0  0  0  0
  -19.0139  -29.2057   20.7185 C   0  0  0  0  0  0  0  0  0  0  0  0
  -22.7168  -29.9556   26.4279 C   0  0  0  0  0  0  0  0  0  0  0  0
  -30.1558  -20.5284   22.2692 C   0  0  0  0  0  0  0  0  0  0  0  0
  -28.9116  -20.7117   23.1452 C   0  0  0  0  0  0  0  0  0  0  0  0
  -28.3037  -22.1109   23.0365 C   0  0  0  0  0  0  0  0  0  0  0  0
  -27.0952  -22.2678   23.9493 C   0  0  0  0  0  0  0  0  0  1  0  0
  -21.0252  -28.3843   22.0115 C   0  0  1  0  0  0  0  0  0  0  0  0
  -21.8749  -31.1835   24.4223 C   0  0  2  0  0  0  0  0  0  0  0  0
  -20.4668  -28.6975   20.5946 C   0  0  0  0  0  0  0  0  0  0  0  0
  -25.8441  -11.4550   20.6715 N   0  0  0  0  0  0  0  0  0  0  0  0
  -26.2629  -12.6567   20.2397 N   0  0  0  0  0  0  0  0  0  0  0  0
  -21.0004  -26.1385   23.0506 N   0  0  0  0  0  0  0  0  0  0  0  0
  -30.0006  -13.4144   20.4377 N   0  0  0  0  0  0  0  0  0  0  0  0
  -25.5488  -14.8845   19.8687 N   0  0  0  0  0  0  0  0  0  0  0  0
  -21.8422  -12.8537   21.4602 N   0  0  0  0  0  0  0  0  0  0  0  0
  -30.1171  -15.7064   20.9814 N   0  0  0  0  0  0  0  0  0  0  0  0
  -19.3431  -22.9178   22.6299 N   0  0  0  0  0  0  0  0  0  0  0  0
  -21.0073  -29.5212   22.9256 N   0  0  0  0  0  0  0  0  0  0  0  0
  -22.8004  -31.1798   25.5905 N   0  3  0  0  0  0  0  0  0  0  0  0
  -22.6907  -14.8380   20.6846 O   0  0  0  0  0  0  0  0  0  0  0  0
  -20.5286  -24.3785   21.2575 O   0  0  0  0  0  0  0  0  0  0  0  0
  -19.0578  -27.4216   22.9221 O   0  0  0  0  0  0  0  0  0  0  0  0
  -23.2849  -29.5335   23.3608 O   0  0  0  0  0  0  0  0  0  0  0  0
  -31.9310  -14.6185   20.0285 O   0  0  0  0  0  0  0  0  0  0  0  0
  -21.4067   -7.5095   22.9720 O   0  0  0  0  0  0  0  0  0  0  0  0
  -26.5660  -23.5837   23.7918 O   0  0  0  0  0  0  0  0  0  1  0  0
  -23.5805   -4.2932   26.8878 F   0  0  0  0  0  0  0  0  0  0  0  0
  -23.7119   -6.0591   22.4980 F   0  0  0  0  0  0  0  0  0  0  0  0
  -32.3881  -15.3548   22.4866 F   0  0  0  0  0  0  0  0  0  0  0  0
  -28.7003  -18.3571   20.6762 Cl  0  0  0  0  0  0  0  0  0  0  0  0
  1  2  1  0  0  0  0
  1  5  2  0  0  0  0
  2  6  2  0  0  0  0
  3  8  2  0  0  0  0
  3 16  1  0  0  0  0
  4  9  1  0  0  0  0
  4 16  2  0  0  0  0
  5 18  1  0  0  0  0
  6 20  1  0  0  0  0
  7 10  2  0  0  0  0
  7 19  1  0  0  0  0
  8 25  1  0  0  0  0
  9 25  2  0  0  0  0
 10 26  1  0  0  0  0
 11 12  2  0  0  0  0
 11 27  1  0  0  0  0
 12 28  1  0  0  0  0
 13 21  1  0  0  0  0
 13 26  2  0  0  0  0
 14 22  2  0  0  0  0
 14 23  1  0  0  0  0
 15 28  2  0  0  0  0
 15 29  1  0  0  0  0
 16 32  1  0  0  0  0
 17 32  1  0  0  0  0
 17 33  2  0  0  0  0
 17 34  1  0  0  0  0
 18 20  2  0  0  0  0
 18 39  1  0  0  0  0
 19 21  2  0  0  0  0
 19 40  1  0  0  0  0
 20 48  1  0  0  0  0
 21 41  1  0  0  0  0
 22 30  1  0  0  0  0
 22 51  1  0  0  0  0
 23 31  2  0  0  0  0
 23 57  1  0  0  0  0
 24 30  2  0  0  0  0
 24 31  1  0  0  0  0
 24 70  1  0  0  0  0
 25 79  1  0  0  0  0
 26 80  1  0  0  0  0
 27 29  2  0  0  0  0
 27 79  1  0  0  0  0
 28 81  1  0  0  0  0
 29 82  1  0  0  0  0
 30 83  1  0  0  0  0
 31 84  1  0  0  0  0
 32 64  2  0  0  0  0
 33 65  1  0  0  0  0
 33 68  1  0  0  0  0
 34 69  1  0  0  0  0
 34 74  2  0  0  0  0
 35 49  1  0  0  0  0
 35 71  1  0  0  0  0
 35 75  2  0  0  0  0
 36 61  1  0  0  0  0
 36 66  1  0  0  0  0
 36 76  2  0  0  0  0
 37 62  1  0  0  0  0
 37 72  1  0  0  0  0
 37 77  2  0  0  0  0
 38 67  1  0  0  0  0
 38 70  1  0  0  0  0
 38 78  2  0  0  0  0
 39 42  1  0  0  0  0
 40 49  1  0  0  0  0
 41 66  1  0  0  0  0
 42 44  1  0  0  0  0
 43 45  1  0  0  0  0
 43 46  1  0  0  0  0
 44 48  1  0  0  0  0
 45 50  1  0  0  0  0
 46 67  1  0  0  0  0
 47 50  1  0  0  0  0
 47 67  1  0  0  0  0
 48 71  1  0  0  0  0
 49 66  1  0  0  0  0
 50 65  1  0  0  0  0
 52 62  1  0  0  0  0
 53 63  1  0  0  0  0
 54 63  1  0  0  0  0
 55 63  1  0  0  0  0
 56 73  1  0  0  0  0
 57 58  1  0  0  0  0
 58 59  1  0  0  0  0
 59 60  1  0  0  0  0
 60 80  1  0  0  0  0
 61 63  1  0  0  0  0
 61 72  1  0  0  0  0
 62 73  1  0  0  0  0
 64 65  1  0  0  0  0
M  CHG  1  73   1
M  ISO  4  38 100  60 101  70 100  80 101
M  END
> <Batch ID>
0016

> <Smiles>
CNC(C)C(=O)NC(C(=O)N1Cc2cc([101O:1][101CH2:1]CCCc3cc(C)c(F)c([100NH:0][100C:0](=O)N4CCCC(n5nc(-c6ccc(Oc7ccc(F)cc7F)cc6)c(C(N)=O)c5N)C4)c3Cl)ccc2CC1C(=O)NC1CCCc2ccccc21)C(C)(C)C

> <Shape>
0.236

> <Color>
0.184

> <Negative vol penalty>
0.000

$$$$

  -OEChem-04052315583D

 81 89  0     1  0  0  0  0  0999 V2000
  -21.3356  -31.4989   19.9088 C   0  0  0  0  0  0  0  0  0  0  0  0
  -21.3903  -30.1871   19.4488 C   0  0  0  0  0  0  0  0  0  0  0  0
  -23.1393   -9.7514   20.9601 C   0  0  0  0  0  0  0  0  0  0  0  0
  -23.8258  -10.4737   23.1611 C   0  0  0  0  0  0  0  0  0  0  0  0
  -22.3933  -32.0202   20.6528 C   0  0  0  0  0  0  0  0  0  0  0  0
  -22.5033  -29.3961   19.7317 C   0  0  0  0  0  0  0  0  0  0  0  0
  -24.3304  -22.5954   21.0463 C   0  0  0  0  0  0  0  0  0  0  0  0
  -22.4060   -8.7109   21.5302 C   0  0  0  0  0  0  0  0  0  0  0  0
  -23.0924   -9.4331   23.7312 C   0  0  0  0  0  0  0  0  0  0  0  0
  -25.2224  -21.6164   20.6109 C   0  0  0  0  0  0  0  0  0  0  0  0
  -23.4528   -6.1070   24.2194 C   0  0  0  0  0  0  0  0  0  0  0  0
  -24.0611   -5.3638   25.2309 C   0  0  0  0  0  0  0  0  0  0  0  0
  -26.9550  -22.5981   21.9725 C   0  0  0  0  0  0  0  0  0  0  0  0
  -31.0717  -17.5846   19.4056 C   0  0  0  0  0  0  0  0  0  0  0  0
  -22.3039   -6.0060   26.7596 C   0  0  0  0  0  0  0  0  0  0  0  0
  -23.8493  -10.6328   21.7755 C   0  0  0  0  0  0  0  0  0  0  0  0
  -24.1552  -13.0097   20.9011 C   0  0  0  0  0  0  0  0  0  0  0  0
  -23.5155  -31.2321   20.9532 C   0  0  0  0  0  0  0  0  0  0  0  0
  -24.7476  -23.5912   21.9411 C   0  0  0  0  0  0  0  0  0  0  0  0
  -23.5776  -29.9078   20.4793 C   0  0  0  0  0  0  0  0  0  0  0  0
  -26.0656  -23.5871   22.4196 C   0  0  0  0  0  0  0  0  0  0  0  0
  -31.2337  -18.9031   18.9804 C   0  0  0  0  0  0  0  0  0  0  0  0
  -29.3869  -18.2999   20.9825 C   0  0  0  0  0  0  0  0  0  0  0  0
  -29.5489  -19.6185   20.5574 C   0  0  0  0  0  0  0  0  0  0  0  0
  -30.1482  -17.2829   20.4066 C   0  0  0  0  0  0  0  0  0  0  0  0
  -22.3825   -8.5517   22.9158 C   0  0  0  0  0  0  0  0  0  0  0  0
  -26.5357  -21.6193   21.0718 C   0  0  0  0  0  0  0  0  0  0  0  0
  -22.2700   -6.7998   24.4780 C   0  0  0  0  0  0  0  0  0  0  0  0
  -23.4867   -5.3133   26.5009 C   0  0  0  0  0  0  0  0  0  0  0  0
  -21.6956   -6.7493   25.7481 C   0  0  0  0  0  0  0  0  0  0  0  0
  -30.4723  -19.9201   19.5564 C   0  0  0  0  0  0  0  0  0  0  0  0
  -24.6074  -11.7076   21.1871 C   0  0  0  0  0  0  0  0  0  0  0  0
  -25.2465  -13.6399   20.3549 C   0  0  0  0  0  0  0  0  0  0  0  0
  -22.8642  -13.5971   21.1106 C   0  0  0  0  0  0  0  0  0  0  0  0
  -24.9663  -26.7603   21.8275 C   0  0  0  0  0  0  0  0  0  0  0  0
  -25.7456  -26.4293   24.9589 C   0  0  0  0  0  0  0  0  0  0  0  0
  -26.9822  -24.4418   27.4423 C   0  0  0  0  0  0  0  0  0  0  0  0
  -30.6874  -14.8230   20.3421 C   0  0  0  0  0  0  0  0  0  0  0  0
  -24.6551  -31.8544   21.7205 C   0  0  0  0  0  0  0  0  0  0  0  0
  -23.7659  -24.6245   22.4218 C   0  0  0  0  0  0  0  0  0  0  0  0
  -26.5577  -24.6222   23.3968 C   0  0  0  0  0  0  0  0  0  0  0  0
  -25.6319  -30.8321   22.2959 C   0  0  0  0  0  0  0  0  0  0  0  0
  -29.6866  -11.7770   18.7936 C   0  0  0  0  0  0  0  0  0  0  0  0
  -25.9960  -29.7902   21.2429 C   0  0  0  0  0  0  0  0  0  0  0  0
  -28.2388  -11.5945   19.2548 C   0  0  0  0  0  0  0  0  0  0  0  0
  -30.5594  -12.3826   19.8915 C   0  0  0  0  0  0  0  0  0  0  0  0
  -28.5985  -13.4455   20.9375 C   0  0  0  0  0  0  0  0  0  0  0  0
  -24.7568  -29.0106   20.7867 C   0  0  1  0  0  0  0  0  0  0  0  0
  -24.4381  -25.8939   22.9357 C   0  0  1  0  0  0  0  0  0  0  0  0
  -27.6664  -12.8987   19.8440 C   0  0  2  0  0  0  0  0  0  0  0  0
  -32.2221  -19.2223   17.9101 C   0  0  0  0  0  0  0  0  0  0  0  0
  -28.3965  -17.9796   22.0582 C   0  0  0  0  0  0  0  0  0  0  0  0
  -27.5341  -24.4614   29.8902 C   0  0  0  0  0  0  0  0  0  0  0  0
  -28.2579  -28.0601   24.3770 C   0  0  0  0  0  0  0  0  0  0  0  0
  -29.2026  -27.2501   26.5494 C   0  0  0  0  0  0  0  0  0  0  0  0
  -27.1223  -28.6266   26.5320 C   0  0  0  0  0  0  0  0  0  0  0  0
  -25.0538  -22.2705   28.0130 C   0  0  0  0  0  0  0  0  0  0  0  0
  -28.7389  -20.7282   21.1606 C   0  0  0  0  0  0  0  0  0  1  0  0
  -27.0309  -26.2321   25.7257 C   0  0  1  0  0  0  0  0  0  0  0  0
  -26.4767  -24.1480   28.8432 C   0  0  2  0  0  0  0  0  0  0  0  0
  -27.8950  -27.5237   25.7761 C   0  0  0  0  0  0  0  0  0  0  0  0
  -25.8863  -11.5202   20.8502 N   0  0  0  0  0  0  0  0  0  0  0  0
  -26.2470  -12.7129   20.3468 N   0  0  0  0  0  0  0  0  0  0  0  0
  -25.5618  -25.6152   23.8323 N   0  0  0  0  0  0  0  0  0  0  0  0
  -29.9568  -13.6172   20.3988 N   0  0  0  0  0  0  0  0  0  0  0  0
  -25.4383  -14.8910   19.8853 N   0  0  0  0  0  0  0  0  0  0  0  0
  -21.8564  -12.8088   21.6827 N   0  0  0  0  0  0  0  0  0  0  0  0
  -30.0000  -15.9368   20.8233 N   0  0  0  0  0  0  0  0  0  0  0  0
  -24.3933  -28.0166   21.7738 N   0  0  0  0  0  0  0  0  0  0  0  0
  -26.6495  -25.7168   27.0362 N   0  0  0  0  0  0  0  0  0  0  0  0
  -26.1029  -22.7108   28.9682 N   0  3  0  0  0  0  0  0  0  0  0  0
  -22.6070  -14.7807   20.7845 O   0  0  0  0  0  0  0  0  0  0  0  0
  -25.8308  -26.3220   21.0777 O   0  0  0  0  0  0  0  0  0  0  0  0
  -24.9313  -27.2696   25.3494 O   0  0  0  0  0  0  0  0  0  0  0  0
  -27.6127  -23.6235   26.7764 O   0  0  0  0  0  0  0  0  0  0  0  0
  -31.8280  -14.8693   19.8743 O   0  0  0  0  0  0  0  0  0  0  0  0
  -21.6668   -7.5366   23.4725 O   0  0  0  0  0  0  0  0  0  0  0  0
  -27.4086  -20.6653   20.6479 O   0  0  0  0  0  0  0  0  0  1  0  0
  -24.0701   -4.5982   27.4718 F   0  0  0  0  0  0  0  0  0  0  0  0
  -20.5587   -7.4118   26.0022 F   0  0  0  0  0  0  0  0  0  0  0  0
  -30.6273  -21.1878   19.1459 F   0  0  0  0  0  0  0  0  0  0  0  0
  1  2  1  0  0  0  0
  1  5  2  0  0  0  0
  2  6  2  0  0  0  0
  3  8  2  0  0  0  0
  3 16  1  0  0  0  0
  4  9  1  0  0  0  0
  4 16  2  0  0  0  0
  5 18  1  0  0  0  0
  6 20  1  0  0  0  0
  7 10  2  0  0  0  0
  7 19  1  0  0  0  0
  8 26  1  0  0  0  0
  9 26  2  0  0  0  0
 10 27  1  0  0  0  0
 11 12  2  0  0  0  0
 11 28  1  0  0  0  0
 12 29  1  0  0  0  0
 13 21  1  0  0  0  0
 13 27  2  0  0  0  0
 14 22  2  0  0  0  0
 14 25  1  0  0  0  0
 15 29  2  0  0  0  0
 15 30  1  0  0  0  0
 16 32  1  0  0  0  0
 17 32  1  0  0  0  0
 17 33  2  0  0  0  0
 17 34  1  0  0  0  0
 18 20  2  0  0  0  0
 18 39  1  0  0  0  0
 19 21  2  0  0  0  0
 19 40  1  0  0  0  0
 20 48  1  0  0  0  0
 21 41  1  0  0  0  0
 22 31  1  0  0  0  0
 22 51  1  0  0  0  0
 23 24  1  0  0  0  0
 23 25  2  0  0  0  0
 23 52  1  0  0  0  0
 24 31  2  0  0  0  0
 24 58  1  0  0  0  0
 25 68  1  0  0  0  0
 26 77  1  0  0  0  0
 27 78  1  0  0  0  0
 28 30  2  0  0  0  0
 28 77  1  0  0  0  0
 29 79  1  0  0  0  0
 30 80  1  0  0  0  0
 31 81  1  0  0  0  0
 32 62  2  0  0  0  0
 33 63  1  0  0  0  0
 33 66  1  0  0  0  0
 34 67  1  0  0  0  0
 34 72  2  0  0  0  0
 35 49  1  0  0  0  0
 35 69  1  0  0  0  0
 35 73  2  0  0  0  0
 36 59  1  0  0  0  0
 36 64  1  0  0  0  0
 36 74  2  0  0  0  0
 37 60  1  0  0  0  0
 37 70  1  0  0  0  0
 37 75  2  0  0  0  0
 38 65  1  0  0  0  0
 38 68  1  0  0  0  0
 38 76  2  0  0  0  0
 39 42  1  0  0  0  0
 40 49  1  0  0  0  0
 41 64  1  0  0  0  0
 42 44  1  0  0  0  0
 43 45  1  0  0  0  0
 43 46  1  0  0  0  0
 44 48  1  0  0  0  0
 45 50  1  0  0  0  0
 46 65  1  0  0  0  0
 47 50  1  0  0  0  0
 47 65  1  0  0  0  0
 48 69  1  0  0  0  0
 49 64  1  0  0  0  0
 50 63  1  0  0  0  0
 53 60  1  0  0  0  0
 54 61  1  0  0  0  0
 55 61  1  0  0  0  0
 56 61  1  0  0  0  0
 57 71  1  0  0  0  0
 58 78  1  0  0  0  0
 59 61  1  0  0  0  0
 59 70  1  0  0  0  0
 60 71  1  0  0  0  0
 62 63  1  0  0  0  0
M  CHG  1  71   1
M  ISO  4  38 100  58 101  68 100  78 101
M  END
> <Batch ID>
0016

> <Smiles>
CNC(C)C(=O)NC(C(=O)N1Cc2cc([101O:1][101CH2:1]c3c(C)c([100NH:0][100C:0](=O)N4CCCC(n5nc(-c6ccc(Oc7ccc(F)cc7F)cc6)c(C(N)=O)c5N)C4)cc(C)c3F)ccc2CC1C(=O)NC1CCCc2ccccc21)C(C)(C)C

> <Shape>
0.234

> <Color>
0.174

> <Negative vol penalty>
0.000

$$$$

  -OEChem-04052315583D

 89 96  0     1  0  0  0  0  0999 V2000
  -29.2865  -36.8647   21.2458 C   0  0  0  0  0  0  0  0  0  0  0  0
  -29.5145  -35.5127   21.0103 C   0  0  0  0  0  0  0  0  0  0  0  0
  -22.6651  -10.0778   20.1298 C   0  0  0  0  0  0  0  0  0  0  0  0
  -24.5944   -8.7414   20.7034 C   0  0  0  0  0  0  0  0  0  0  0  0
  -28.2707  -37.2579   22.1163 C   0  0  0  0  0  0  0  0  0  0  0  0
  -28.7277  -34.5530   21.6461 C   0  0  0  0  0  0  0  0  0  0  0  0
  -26.9342  -29.1613   19.3616 C   0  0  0  0  0  0  0  0  0  0  0  0
  -21.8264   -9.0807   20.6276 C   0  0  0  0  0  0  0  0  0  0  0  0
  -23.7556   -7.7443   21.2013 C   0  0  0  0  0  0  0  0  0  0  0  0
  -27.4246  -27.8658   19.5197 C   0  0  0  0  0  0  0  0  0  0  0  0
  -21.9651   -7.1705   24.0094 C   0  0  0  0  0  0  0  0  0  0  0  0
  -22.2978   -6.5994   25.2376 C   0  0  0  0  0  0  0  0  0  0  0  0
  -25.7956  -27.4672   21.2537 C   0  0  0  0  0  0  0  0  0  0  0  0
  -22.4670   -4.4318   24.1839 C   0  0  0  0  0  0  0  0  0  0  0  0
  -24.0492   -9.9081   20.1676 C   0  0  0  0  0  0  0  0  0  0  0  0
  -24.9527  -11.4393   18.3382 C   0  0  0  0  0  0  0  0  0  0  0  0
  -27.4647  -36.3027   22.7556 C   0  0  0  0  0  0  0  0  0  0  0  0
  -25.8762  -29.6239   20.1573 C   0  0  0  0  0  0  0  0  0  0  0  0
  -27.7011  -34.9337   22.5269 C   0  0  0  0  0  0  0  0  0  0  0  0
  -25.2919  -28.7681   21.1020 C   0  0  0  0  0  0  0  0  0  0  0  0
  -22.3716   -7.9140   21.1634 C   0  0  0  0  0  0  0  0  0  0  0  0
  -26.8572  -27.0195   20.4678 C   0  0  0  0  0  0  0  0  0  0  0  0
  -21.8832   -6.3723   22.8684 C   0  0  0  0  0  0  0  0  0  0  0  0
  -22.5488   -5.2301   25.3249 C   0  0  0  0  0  0  0  0  0  0  0  0
  -22.1342   -5.0030   22.9557 C   0  0  0  0  0  0  0  0  0  0  0  0
  -24.9161  -10.9375   19.6530 C   0  0  0  0  0  0  0  0  0  0  0  0
  -25.9392  -12.3946   18.3626 C   0  0  0  0  0  0  0  0  0  0  0  0
  -24.1653  -11.0745   17.1969 C   0  0  0  0  0  0  0  0  0  0  0  0
  -25.5251  -31.9570   22.2873 C   0  0  0  0  0  0  0  0  0  0  0  0
  -26.7589  -21.1439   24.5126 C   0  0  0  0  0  0  0  0  0  0  0  0
  -28.3645  -16.7574   20.8872 C   0  0  0  0  0  0  0  0  0  0  0  0
  -22.4160  -31.0356   22.2047 C   0  0  0  0  0  0  0  0  0  0  0  0
  -26.5606  -19.4159   20.7697 C   0  0  0  0  0  0  0  0  0  0  0  0
  -20.1392  -28.5763   21.5608 C   0  0  0  0  0  0  0  0  0  0  0  0
  -26.4097  -36.7746   23.7245 C   0  0  0  0  0  0  0  0  0  0  0  0
  -25.3411  -31.0151   19.9560 C   0  0  0  0  0  0  0  0  0  0  0  0
  -24.1408  -29.2097   21.9671 C   0  0  0  0  0  0  0  0  0  0  0  0
  -25.3768  -35.7047   24.0690 C   0  0  0  0  0  0  0  0  0  0  0  0
  -29.4033  -13.4736   21.8760 C   0  0  0  0  0  0  0  0  0  0  0  0
  -26.0650  -34.3813   24.3881 C   0  0  0  0  0  0  0  0  0  0  0  0
  -28.3156  -12.5655   21.3038 C   0  0  0  0  0  0  0  0  0  0  0  0
  -28.8295  -14.8096   22.3377 C   0  0  0  0  0  0  0  0  0  0  0  0
  -26.9761  -14.6334   20.7082 C   0  0  0  0  0  0  0  0  0  0  0  0
  -26.8526  -33.8634   23.1786 C   0  0  1  0  0  0  0  0  0  0  0  0
  -24.5987  -31.5521   21.1758 C   0  0  1  0  0  0  0  0  0  0  0  0
  -27.5181  -13.2850   20.2016 C   0  0  2  0  0  0  0  0  0  0  0  0
  -28.5331  -22.1379   23.0604 C   0  0  0  0  0  0  0  0  0  0  0  0
  -17.6745  -28.1083   21.6225 C   0  0  0  0  0  0  0  0  0  0  0  0
  -24.5349  -21.3674   19.6750 C   0  0  0  0  0  0  0  0  0  0  0  0
  -22.5464  -30.7624   25.2408 C   0  0  0  0  0  0  0  0  0  0  0  0
  -20.4362  -29.4187   25.1408 C   0  0  0  0  0  0  0  0  0  0  0  0
  -20.4384  -31.7931   24.3757 C   0  0  0  0  0  0  0  0  0  0  0  0
  -20.0458  -28.0643   18.6474 C   0  0  0  0  0  0  0  0  0  0  0  0
  -27.5316  -17.3487   19.7779 C   0  0  0  0  0  0  0  0  0  0  0  0
  -27.7300  -23.6077   19.5779 C   0  0  0  0  0  0  0  0  0  0  0  0
  -26.2577  -23.1887   19.6687 C   0  0  0  0  0  0  0  0  0  0  0  0
  -27.8901  -25.1209   19.4756 C   0  0  0  0  0  0  0  0  0  1  0  0
  -27.4108  -21.1194   23.1400 C   0  0  2  0  0  0  0  0  0  0  0  0
  -21.5773  -30.0341   22.9613 C   0  0  1  0  0  0  0  0  0  0  0  0
  -26.7833  -20.9283   20.8311 C   0  0  1  0  0  0  0  0  0  0  0  0
  -18.8418  -28.5859   20.7728 C   0  0  2  0  0  0  0  0  0  0  0  0
  -26.0455  -21.6563   19.6768 C   0  0  1  0  0  0  0  0  0  0  0  0
  -27.3050  -20.1889   25.5361 C   0  0  0  0  0  0  0  0  0  0  0  0
  -21.2725  -30.4941   24.4149 C   0  0  0  0  0  0  0  0  0  0  0  0
  -25.8086  -11.5254   20.4543 N   0  0  0  0  0  0  0  0  0  0  0  0
  -26.4153  -12.4063   19.6407 N   0  0  0  0  0  0  0  0  0  0  0  0
  -23.6572  -30.5811   21.7371 N   0  0  0  0  0  0  0  0  0  0  0  0
  -28.0605  -15.4508   21.2697 N   0  0  0  0  0  0  0  0  0  0  0  0
  -26.4373  -13.2173   17.4153 N   0  0  0  0  0  0  0  0  0  0  0  0
  -24.6330  -10.0502   16.3623 N   0  0  0  0  0  0  0  0  0  0  0  0
  -25.9575  -33.2672   22.2102 N   0  0  0  0  0  0  0  0  0  0  0  0
  -27.5206  -18.7768   19.9965 N   0  0  0  0  0  0  0  0  0  0  0  0
  -20.3895  -29.7988   22.1475 N   0  0  0  0  0  0  0  0  0  0  0  0
  -26.3732  -21.3895   22.1573 N   0  0  0  0  0  0  0  0  0  0  0  0
  -18.9520  -27.6957   19.5827 N   0  3  0  0  0  0  0  0  0  0  0  0
  -23.0874  -11.6512   16.9160 O   0  0  0  0  0  0  0  0  0  0  0  0
  -25.8243  -31.1416   23.1518 O   0  0  0  0  0  0  0  0  0  0  0  0
  -25.8524  -21.9267   24.7974 O   0  0  0  0  0  0  0  0  0  0  0  0
  -29.2602  -17.4370   21.3953 O   0  0  0  0  0  0  0  0  0  0  0  0
  -21.9827  -32.1771   22.0287 O   0  0  0  0  0  0  0  0  0  0  0  0
  -25.6324  -18.8481   21.3423 O   0  0  0  0  0  0  0  0  0  0  0  0
  -20.8568  -27.5825   21.6504 O   0  0  0  0  0  0  0  0  0  0  0  0
  -21.5534   -6.9409   21.6495 O   0  0  0  0  0  0  0  0  0  0  0  0
  -27.3379  -25.7452   20.6257 O   0  0  0  0  0  0  0  0  0  1  0  0
  -22.8699   -4.6820   26.5042 F   0  0  0  0  0  0  0  0  0  0  0  0
  -22.0582   -4.2312   21.8627 F   0  0  0  0  0  0  0  0  0  0  0  0
  -28.3239  -19.4397   25.0443 F   0  0  0  0  0  0  0  0  0  0  0  0
  -27.7859  -20.8389   26.6255 F   0  0  0  0  0  0  0  0  0  0  0  0
  -26.3577  -19.3239   25.9766 F   0  0  0  0  0  0  0  0  0  0  0  0
  1  2  1  0  0  0  0
  1  5  2  0  0  0  0
  2  6  2  0  0  0  0
  3  8  2  0  0  0  0
  3 15  1  0  0  0  0
  4  9  1  0  0  0  0
  4 15  2  0  0  0  0
  5 17  1  0  0  0  0
  6 19  1  0  0  0  0
  7 10  2  0  0  0  0
  7 18  1  0  0  0  0
  8 21  1  0  0  0  0
  9 21  2  0  0  0  0
 10 22  1  0  0  0  0
 11 12  2  0  0  0  0
 11 23  1  0  0  0  0
 12 24  1  0  0  0  0
 13 20  1  0  0  0  0
 13 22  2  0  0  0  0
 14 24  2  0  0  0  0
 14 25  1  0  0  0  0
 15 26  1  0  0  0  0
 16 26  1  0  0  0  0
 16 27  2  0  0  0  0
 16 28  1  0  0  0  0
 17 19  2  0  0  0  0
 17 35  1  0  0  0  0
 18 20  2  0  0  0  0
 18 36  1  0  0  0  0
 19 44  1  0  0  0  0
 20 37  1  0  0  0  0
 21 83  1  0  0  0  0
 22 84  1  0  0  0  0
 23 25  2  0  0  0  0
 23 83  1  0  0  0  0
 24 85  1  0  0  0  0
 25 86  1  0  0  0  0
 26 65  2  0  0  0  0
 27 66  1  0  0  0  0
 27 69  1  0  0  0  0
 28 70  1  0  0  0  0
 28 76  2  0  0  0  0
 29 45  1  0  0  0  0
 29 71  1  0  0  0  0
 29 77  2  0  0  0  0
 30 58  1  0  0  0  0
 30 63  1  0  0  0  0
 30 78  2  0  0  0  0
 31 54  1  0  0  0  0
 31 68  1  0  0  0  0
 31 79  2  0  0  0  0
 32 59  1  0  0  0  0
 32 67  1  0  0  0  0
 32 80  2  0  0  0  0
 33 60  1  0  0  0  0
 33 72  1  0  0  0  0
 33 81  2  0  0  0  0
 34 61  1  0  0  0  0
 34 73  1  0  0  0  0
 34 82  2  0  0  0  0
 35 38  1  0  0  0  0
 36 45  1  0  0  0  0
 37 67  1  0  0  0  0
 38 40  1  0  0  0  0
 39 41  1  0  0  0  0
 39 42  1  0  0  0  0
 40 44  1  0  0  0  0
 41 46  1  0  0  0  0
 42 68  1  0  0  0  0
 43 46  1  0  0  0  0
 43 68  1  0  0  0  0
 44 71  1  0  0  0  0
 45 67  1  0  0  0  0
 46 66  1  0  0  0  0
 47 58  1  0  0  0  0
 48 61  1  0  0  0  0
 49 62  1  0  0  0  0
 50 64  1  0  0  0  0
 51 64  1  0  0  0  0
 52 64  1  0  0  0  0
 53 75  1  0  0  0  0
 54 72  1  0  0  0  0
 55 56  1  0  0  0  0
 55 57  1  0  0  0  0
 56 62  1  0  0  0  0
 57 84  1  0  0  0  0
 58 74  1  0  0  0  0
 59 64  1  0  0  0  0
 59 73  1  0  0  0  0
 60 62  1  0  0  0  0
 60 74  1  0  0  0  0
 61 75  1  0  0  0  0
 63 87  1  0  0  0  0
 63 88  1  0  0  0  0
 63 89  1  0  0  0  0
 65 66  1  0  0  0  0
M  CHG  1  75   1
M  ISO  4  31 100  54 100  57 101  84 101
M  END
> <Batch ID>
0016

> <Smiles>
CNC(C)C(=O)NC(C(=O)N1Cc2cc([101O:1][101CH2:1]CCC(C)C(NC(C)C(=O)C(F)(F)F)C(=O)N[100CH2:0][100C:0](=O)N3CCCC(n4nc(-c5ccc(Oc6ccc(F)cc6F)cc5)c(C(N)=O)c4N)C3)ccc2CC1C(=O)NC1CCCc2ccccc21)C(C)(C)C

> <Shape>
0.276

> <Color>
0.101

> <Negative vol penalty>
0.000

$$$$

  -OEChem-04052315583D

 86 94  0     1  0  0  0  0  0999 V2000
  -19.3477  -32.2915   24.3135 C   0  0  0  0  0  0  0  0  0  0  0  0
  -20.6972  -31.9942   24.1530 C   0  0  0  0  0  0  0  0  0  0  0  0
  -26.7763  -12.9544   20.8070 C   0  0  0  0  0  0  0  0  0  0  0  0
  -27.3325  -12.5212   18.4961 C   0  0  0  0  0  0  0  0  0  0  0  0
  -18.3837  -31.3250   24.0298 C   0  0  0  0  0  0  0  0  0  0  0  0
  -21.0836  -30.7298   23.7099 C   0  0  0  0  0  0  0  0  0  0  0  0
  -25.8580  -29.3882   20.1166 C   0  0  0  0  0  0  0  0  0  0  0  0
  -26.2928  -11.6523   20.9347 C   0  0  0  0  0  0  0  0  0  0  0  0
  -26.8490  -11.2190   18.6238 C   0  0  0  0  0  0  0  0  0  0  0  0
  -27.1424  -28.9246   20.3977 C   0  0  0  0  0  0  0  0  0  0  0  0
  -24.5815   -8.5537   21.7677 C   0  0  0  0  0  0  0  0  0  0  0  0
  -23.3623   -8.3742   22.4211 C   0  0  0  0  0  0  0  0  0  0  0  0
  -26.4150  -26.6655   19.9659 C   0  0  0  0  0  0  0  0  0  0  0  0
  -31.9442  -23.4173   16.0470 C   0  0  0  0  0  0  0  0  0  0  0  0
  -22.2732   -9.7616   20.7700 C   0  0  0  0  0  0  0  0  0  0  0  0
  -27.2961  -13.3889   19.5876 C   0  0  0  0  0  0  0  0  0  0  0  0
  -29.1101  -15.1797   19.6876 C   0  0  0  0  0  0  0  0  0  0  0  0
  -18.7580  -30.0512   23.5737 C   0  0  0  0  0  0  0  0  0  0  0  0
  -24.8379  -28.4913   19.7681 C   0  0  0  0  0  0  0  0  0  0  0  0
  -20.1238  -29.7449   23.4211 C   0  0  0  0  0  0  0  0  0  0  0  0
  -25.1191  -27.1205   19.6784 C   0  0  0  0  0  0  0  0  0  0  0  0
  -30.8242  -23.6085   16.8560 C   0  0  0  0  0  0  0  0  0  0  0  0
  -29.8782  -21.5427   16.0347 C   0  0  0  0  0  0  0  0  0  0  0  0
  -26.3291  -10.7846   19.8432 C   0  0  0  0  0  0  0  0  0  0  0  0
  -27.4204  -27.5628   20.3252 C   0  0  0  0  0  0  0  0  0  0  0  0
  -24.6466   -9.3372   20.6155 C   0  0  0  0  0  0  0  0  0  0  0  0
  -22.2082   -8.9781   21.9223 C   0  0  0  0  0  0  0  0  0  0  0  0
  -32.0312  -22.2888   15.2317 C   0  0  0  0  0  0  0  0  0  0  0  0
  -23.4925   -9.9412   20.1167 C   0  0  0  0  0  0  0  0  0  0  0  0
  -29.7912  -22.6712   16.8500 C   0  0  0  0  0  0  0  0  0  0  0  0
  -30.9982  -21.3515   15.2256 C   0  0  0  0  0  0  0  0  0  0  0  0
  -27.7952  -14.7340   19.4549 C   0  0  0  0  0  0  0  0  0  0  0  0
  -29.0677  -16.5270   19.4240 C   0  0  0  0  0  0  0  0  0  0  0  0
  -30.2665  -14.4418   20.1047 C   0  0  0  0  0  0  0  0  0  0  0  0
  -22.0402  -27.6735   21.0359 C   0  0  0  0  0  0  0  0  0  0  0  0
  -21.7476  -25.9488   18.3041 C   0  0  0  0  0  0  0  0  0  0  0  0
  -23.2815  -24.3722   15.6949 C   0  0  0  0  0  0  0  0  0  0  0  0
  -27.4745  -20.8235   16.2610 C   0  0  0  0  0  0  0  0  0  0  0  0
  -17.6821  -29.0239   23.3252 C   0  0  0  0  0  0  0  0  0  0  0  0
  -23.4643  -29.0102   19.4418 C   0  0  0  0  0  0  0  0  0  0  0  0
  -24.0642  -26.1185   19.2889 C   0  0  0  0  0  0  0  0  0  0  0  0
  -18.1584  -27.8299   22.5019 C   0  0  0  0  0  0  0  0  0  0  0  0
  -25.1283  -19.6092   18.6481 C   0  0  0  0  0  0  0  0  0  0  0  0
  -19.4945  -27.3167   23.0294 C   0  0  0  0  0  0  0  0  0  0  0  0
  -25.7211  -18.2693   19.0899 C   0  0  0  0  0  0  0  0  0  0  0  0
  -25.3634  -19.8708   17.1615 C   0  0  0  0  0  0  0  0  0  0  0  0
  -27.3539  -18.4192   17.1667 C   0  0  0  0  0  0  0  0  0  0  0  0
  -20.5814  -28.3927   22.9188 C   0  0  1  0  0  0  0  0  0  0  0  0
  -22.3742  -27.9545   19.5981 C   0  0  1  0  0  0  0  0  0  0  0  0
  -27.1988  -18.1412   18.6709 C   0  0  2  0  0  0  0  0  0  0  0  0
  -22.7808  -23.0187   13.6419 C   0  0  0  0  0  0  0  0  0  0  0  0
  -21.1845  -23.5115   20.0513 C   0  0  0  0  0  0  0  0  0  0  0  0
  -21.6359  -22.0653   18.0580 C   0  0  0  0  0  0  0  0  0  0  0  0
  -19.7439  -23.6905   18.0148 C   0  0  0  0  0  0  0  0  0  0  0  0
  -30.9031  -23.4372   19.7128 C   0  0  0  0  0  0  0  0  0  0  0  0
  -32.7608  -24.9415   18.9667 C   0  0  0  0  0  0  0  0  0  0  0  0
  -24.5207  -26.3908   13.9206 C   0  0  0  0  0  0  0  0  0  0  0  0
  -30.6146  -25.9719   19.7645 C   0  0  0  0  0  0  0  0  0  0  0  0
  -29.0966  -25.9241   19.9240 C   0  0  0  0  0  0  0  0  0  1  0  0
  -22.1182  -24.5485   17.8790 C   0  0  1  0  0  0  0  0  0  0  0  0
  -23.0213  -24.4128   14.1999 C   0  0  2  0  0  0  0  0  0  0  0  0
  -21.1902  -23.4724   18.5100 C   0  0  0  0  0  0  0  0  0  0  0  0
  -31.2368  -24.7669   19.0271 C   0  0  0  0  0  0  0  0  0  0  0  0
  -26.9771  -15.7183   19.0729 N   0  0  0  0  0  0  0  0  0  0  0  0
  -27.7801  -16.7960   19.0637 N   0  0  0  0  0  0  0  0  0  0  0  0
  -22.7351  -26.6743   18.9856 N   0  0  0  0  0  0  0  0  0  0  0  0
  -26.7856  -19.7362   16.8390 N   0  0  0  0  0  0  0  0  0  0  0  0
  -30.0067  -17.4960   19.4676 N   0  0  0  0  0  0  0  0  0  0  0  0
  -30.1345  -13.0651   20.3318 N   0  0  0  0  0  0  0  0  0  0  0  0
  -28.8295  -20.5898   16.0288 N   0  0  0  0  0  0  0  0  0  0  0  0
  -30.7411  -24.7265   17.6614 N   0  0  0  0  0  0  0  0  0  0  0  0
  -21.0564  -28.4930   21.5554 N   0  0  0  0  0  0  0  0  0  0  0  0
  -22.1227  -24.5526   16.4201 N   0  0  0  0  0  0  0  0  0  0  0  0
  -24.1862  -25.0097   13.4874 N   0  3  0  0  0  0  0  0  0  0  0  0
  -31.3799  -14.9901   20.2870 O   0  0  0  0  0  0  0  0  0  0  0  0
  -22.6302  -26.7784   21.6294 O   0  0  0  0  0  0  0  0  0  0  0  0
  -20.6257  -26.3855   18.0351 O   0  0  0  0  0  0  0  0  0  0  0  0
  -24.4002  -24.1942   16.1718 O   0  0  0  0  0  0  0  0  0  0  0  0
  -26.9104  -21.8932   16.0170 O   0  0  0  0  0  0  0  0  0  0  0  0
  -25.8576   -9.5139   19.9675 O   0  0  0  0  0  0  0  0  0  0  0  0
  -28.6731  -27.1075   20.5997 O   0  0  0  0  0  0  0  0  0  1  0  0
  -21.0371   -8.8044   22.5489 F   0  0  0  0  0  0  0  0  0  0  0  0
  -33.1066  -22.1047   14.4548 F   0  0  0  0  0  0  0  0  0  0  0  0
  -23.5485  -10.6941   19.0095 F   0  0  0  0  0  0  0  0  0  0  0  0
  -28.7141  -22.8548   17.6289 F   0  0  0  0  0  0  0  0  0  0  0  0
  -31.0933  -20.2699   14.4390 F   0  0  0  0  0  0  0  0  0  0  0  0
  1  2  1  0  0  0  0
  1  5  2  0  0  0  0
  2  6  2  0  0  0  0
  3  8  2  0  0  0  0
  3 16  1  0  0  0  0
  4  9  1  0  0  0  0
  4 16  2  0  0  0  0
  5 18  1  0  0  0  0
  6 20  1  0  0  0  0
  7 10  2  0  0  0  0
  7 19  1  0  0  0  0
  8 24  1  0  0  0  0
  9 24  2  0  0  0  0
 10 25  1  0  0  0  0
 11 12  2  0  0  0  0
 11 26  1  0  0  0  0
 12 27  1  0  0  0  0
 13 21  1  0  0  0  0
 13 25  2  0  0  0  0
 14 22  1  0  0  0  0
 14 28  2  0  0  0  0
 15 27  2  0  0  0  0
 15 29  1  0  0  0  0
 16 32  1  0  0  0  0
 17 32  1  0  0  0  0
 17 33  2  0  0  0  0
 17 34  1  0  0  0  0
 18 20  2  0  0  0  0
 18 39  1  0  0  0  0
 19 21  2  0  0  0  0
 19 40  1  0  0  0  0
 20 48  1  0  0  0  0
 21 41  1  0  0  0  0
 22 30  2  0  0  0  0
 22 71  1  0  0  0  0
 23 30  1  0  0  0  0
 23 31  2  0  0  0  0
 23 70  1  0  0  0  0
 24 80  1  0  0  0  0
 25 81  1  0  0  0  0
 26 29  2  0  0  0  0
 26 80  1  0  0  0  0
 27 82  1  0  0  0  0
 28 31  1  0  0  0  0
 28 83  1  0  0  0  0
 29 84  1  0  0  0  0
 30 85  1  0  0  0  0
 31 86  1  0  0  0  0
 32 64  2  0  0  0  0
 33 65  1  0  0  0  0
 33 68  1  0  0  0  0
 34 69  1  0  0  0  0
 34 75  2  0  0  0  0
 35 49  1  0  0  0  0
 35 72  1  0  0  0  0
 35 76  2  0  0  0  0
 36 60  1  0  0  0  0
 36 66  1  0  0  0  0
 36 77  2  0  0  0  0
 37 61  1  0  0  0  0
 37 73  1  0  0  0  0
 37 78  2  0  0  0  0
 38 67  1  0  0  0  0
 38 70  1  0  0  0  0
 38 79  2  0  0  0  0
 39 42  1  0  0  0  0
 40 49  1  0  0  0  0
 41 66  1  0  0  0  0
 42 44  1  0  0  0  0
 43 45  1  0  0  0  0
 43 46  1  0  0  0  0
 44 48  1  0  0  0  0
 45 50  1  0  0  0  0
 46 67  1  0  0  0  0
 47 50  1  0  0  0  0
 47 67  1  0  0  0  0
 48 72  1  0  0  0  0
 49 66  1  0  0  0  0
 50 65  1  0  0  0  0
 51 61  1  0  0  0  0
 52 62  1  0  0  0  0
 53 62  1  0  0  0  0
 54 62  1  0  0  0  0
 55 63  1  0  0  0  0
 56 63  1  0  0  0  0
 57 74  1  0  0  0  0
 58 59  1  0  0  0  0
 58 63  1  0  0  0  0
 59 81  1  0  0  0  0
 60 62  1  0  0  0  0
 60 73  1  0  0  0  0
 61 74  1  0  0  0  0
 63 71  1  0  0  0  0
 64 65  1  0  0  0  0
M  CHG  1  74   1
M  ISO  4  38 100  59 101  70 100  81 101
M  END
> <Batch ID>
0016

> <Smiles>
CNC(C)C(=O)NC(C(=O)N1Cc2cc([101O:1][101CH2:1]CC(C)(C)Nc3cc(F)c(F)c([100NH:0][100C:0](=O)N4CCCC(n5nc(-c6ccc(Oc7ccc(F)cc7F)cc6)c(C(N)=O)c5N)C4)c3F)ccc2CC1C(=O)NC1CCCc2ccccc21)C(C)(C)C

> <Shape>
0.244

> <Color>
0.086

> <Negative vol penalty>
0.000

$$$$

  -OEChem-04052315583D

 86 94  0     1  0  0  0  0  0999 V2000
  -30.7515  -35.9499   26.1611 C   0  0  0  0  0  0  0  0  0  0  0  0
  -31.0437  -34.7597   25.5029 C   0  0  0  0  0  0  0  0  0  0  0  0
  -23.4456   -9.6405   20.0077 C   0  0  0  0  0  0  0  0  0  0  0  0
  -23.9094   -9.9687   22.3559 C   0  0  0  0  0  0  0  0  0  0  0  0
  -29.5652  -36.0728   26.8833 C   0  0  0  0  0  0  0  0  0  0  0  0
  -30.1501  -33.6911   25.5674 C   0  0  0  0  0  0  0  0  0  0  0  0
  -28.9708  -29.6070   21.1588 C   0  0  0  0  0  0  0  0  0  0  0  0
  -22.8238   -8.4267   20.3001 C   0  0  0  0  0  0  0  0  0  0  0  0
  -23.2875   -8.7549   22.6484 C   0  0  0  0  0  0  0  0  0  0  0  0
  -29.4324  -28.3110   20.9329 C   0  0  0  0  0  0  0  0  0  0  0  0
  -20.1322   -7.5900   22.9759 C   0  0  0  0  0  0  0  0  0  0  0  0
  -19.2469   -7.5602   24.0534 C   0  0  0  0  0  0  0  0  0  0  0  0
  -27.4700  -27.4286   22.0237 C   0  0  0  0  0  0  0  0  0  0  0  0
  -20.6161   -5.8871   25.1320 C   0  0  0  0  0  0  0  0  0  0  0  0
  -23.9885  -10.4115   21.0356 C   0  0  0  0  0  0  0  0  0  0  0  0
  -24.0300  -12.9366   20.6754 C   0  0  0  0  0  0  0  0  0  0  0  0
  -28.6522  -35.0085   26.9487 C   0  0  0  0  0  0  0  0  0  0  0  0
  -27.7587  -29.8241   21.8295 C   0  0  0  0  0  0  0  0  0  0  0  0
  -28.9511  -33.7993   26.2922 C   0  0  0  0  0  0  0  0  0  0  0  0
  -26.9941  -28.7283   22.2545 C   0  0  0  0  0  0  0  0  0  0  0  0
  -29.6535  -18.1989   23.3568 C   0  0  0  0  0  0  0  0  0  0  0  0
  -30.0817  -18.7462   21.0429 C   0  0  0  0  0  0  0  0  0  0  0  0
  -29.9357  -19.5156   23.7205 C   0  0  0  0  0  0  0  0  0  0  0  0
  -30.3638  -20.0630   21.4066 C   0  0  0  0  0  0  0  0  0  0  0  0
  -29.7266  -17.8142   22.0180 C   0  0  0  0  0  0  0  0  0  0  0  0
  -30.2908  -20.4476   22.7455 C   0  0  0  0  0  0  0  0  0  0  0  0
  -22.7447   -7.9839   21.6205 C   0  0  0  0  0  0  0  0  0  0  0  0
  -28.6834  -27.2215   21.3680 C   0  0  0  0  0  0  0  0  0  0  0  0
  -21.2594   -6.7683   22.9764 C   0  0  0  0  0  0  0  0  0  0  0  0
  -19.4888   -6.7088   25.1314 C   0  0  0  0  0  0  0  0  0  0  0  0
  -21.5013   -5.9169   24.0544 C   0  0  0  0  0  0  0  0  0  0  0  0
  -24.6315  -11.6652   20.7341 C   0  0  0  0  0  0  0  0  0  0  0  0
  -25.0584  -13.7885   20.3541 C   0  0  0  0  0  0  0  0  0  0  0  0
  -22.6638  -13.3139   20.8920 C   0  0  0  0  0  0  0  0  0  0  0  0
  -26.9202  -31.2586   24.5393 C   0  0  0  0  0  0  0  0  0  0  0  0
  -23.9166  -30.6385   23.4827 C   0  0  0  0  0  0  0  0  0  0  0  0
  -21.8684  -28.7310   21.5300 C   0  0  0  0  0  0  0  0  0  0  0  0
  -30.2910  -15.5739   21.0137 C   0  0  0  0  0  0  0  0  0  0  0  0
  -27.4050  -35.1721   27.7808 C   0  0  0  0  0  0  0  0  0  0  0  0
  -27.2617  -31.2278   22.0417 C   0  0  0  0  0  0  0  0  0  0  0  0
  -25.6762  -28.9072   22.9613 C   0  0  0  0  0  0  0  0  0  0  0  0
  -26.3363  -34.1216   27.4896 C   0  0  0  0  0  0  0  0  0  0  0  0
  -29.7828  -12.8169   18.8186 C   0  0  0  0  0  0  0  0  0  0  0  0
  -26.9562  -32.7287   27.4410 C   0  0  0  0  0  0  0  0  0  0  0  0
  -28.3479  -12.3761   19.1164 C   0  0  0  0  0  0  0  0  0  0  0  0
  -30.5072  -13.2807   20.0811 C   0  0  0  0  0  0  0  0  0  0  0  0
  -28.3697  -13.8697   21.1550 C   0  0  0  0  0  0  0  0  0  0  0  0
  -27.9955  -32.6262   26.3181 C   0  0  1  0  0  0  0  0  0  0  0  0
  -26.2640  -31.3413   23.1902 C   0  0  1  0  0  0  0  0  0  0  0  0
  -27.5787  -13.4552   19.9035 C   0  0  2  0  0  0  0  0  0  0  0  0
  -29.2717  -17.2016   24.4066 C   0  0  0  0  0  0  0  0  0  0  0  0
  -30.1597  -18.3381   19.6044 C   0  0  0  0  0  0  0  0  0  0  0  0
  -29.8567  -19.9256   25.1582 C   0  0  0  0  0  0  0  0  0  0  0  0
  -30.7442  -21.0611   20.3574 C   0  0  0  0  0  0  0  0  0  0  0  0
  -19.4561  -28.4384   20.9034 C   0  0  0  0  0  0  0  0  0  0  0  0
  -23.3854  -29.2889   26.1672 C   0  0  0  0  0  0  0  0  0  0  0  0
  -21.3662  -28.2148   25.1488 C   0  0  0  0  0  0  0  0  0  0  0  0
  -21.5031  -30.6998   25.3183 C   0  0  0  0  0  0  0  0  0  0  0  0
  -31.9444  -22.1568   23.4557 C   0  0  0  0  0  0  0  0  0  0  0  0
  -22.4194  -29.3029   18.6790 C   0  0  0  0  0  0  0  0  0  0  0  0
  -29.8397  -23.8877   22.1405 C   0  0  0  0  0  0  0  0  0  0  0  0
  -29.5438  -22.7806   23.1450 C   0  0  0  0  0  0  0  0  0  0  0  0
  -28.7578  -24.9605   22.1015 C   0  0  0  0  0  0  0  0  0  1  0  0
  -22.9467  -29.4912   23.6309 C   0  0  1  0  0  0  0  0  0  0  0  0
  -20.7740  -29.1090   20.5482 C   0  0  2  0  0  0  0  0  0  0  0  0
  -22.3261  -29.4200   25.0547 C   0  0  0  0  0  0  0  0  0  0  0  0
  -25.9405  -11.7014   20.4710 N   0  0  0  0  0  0  0  0  0  0  0  0
  -26.1700  -13.0060   20.2438 N   0  0  0  0  0  0  0  0  0  0  0  0
  -25.2359  -30.2993   23.1508 N   0  0  0  0  0  0  0  0  0  0  0  0
  -29.7218  -14.3056   20.7720 N   0  0  0  0  0  0  0  0  0  0  0  0
  -25.1112  -15.1231   20.1579 N   0  0  0  0  0  0  0  0  0  0  0  0
  -21.7373  -12.3129   21.2142 N   0  0  0  0  0  0  0  0  0  0  0  0
  -29.4388  -16.4769   21.6483 N   0  0  0  0  0  0  0  0  0  0  0  0
  -27.3412  -32.4775   25.0359 N   0  0  0  0  0  0  0  0  0  0  0  0
  -21.9682  -29.6429   22.5595 N   0  0  0  0  0  0  0  0  0  0  0  0
  -30.5745  -21.7713   23.1111 N   0  0  3  0  0  0  0  0  0  0  0  0
  -21.1530  -28.6983   19.1667 N   0  3  0  0  0  0  0  0  0  0  0  0
  -22.2731  -14.5012   20.7865 O   0  0  0  0  0  0  0  0  0  0  0  0
  -27.0346  -30.1697   25.0898 O   0  0  0  0  0  0  0  0  0  0  0  0
  -23.5167  -31.7937   23.6481 O   0  0  0  0  0  0  0  0  0  0  0  0
  -22.5625  -27.7253   21.3990 O   0  0  0  0  0  0  0  0  0  0  0  0
  -31.4400  -15.8480   20.6576 O   0  0  0  0  0  0  0  0  0  0  0  0
  -22.1377   -6.7996   21.9062 O   0  0  0  0  0  0  0  0  0  0  0  0
  -29.1319  -25.9555   21.1494 O   0  0  0  0  0  0  0  0  0  1  0  0
  -18.6394   -6.6814   26.1668 F   0  0  0  0  0  0  0  0  0  0  0  0
  -22.5831   -5.1261   24.0611 F   0  0  0  0  0  0  0  0  0  0  0  0
  1  2  1  0  0  0  0
  1  5  2  0  0  0  0
  2  6  2  0  0  0  0
  3  8  2  0  0  0  0
  3 15  1  0  0  0  0
  4  9  1  0  0  0  0
  4 15  2  0  0  0  0
  5 17  1  0  0  0  0
  6 19  1  0  0  0  0
  7 10  2  0  0  0  0
  7 18  1  0  0  0  0
  8 27  1  0  0  0  0
  9 27  2  0  0  0  0
 10 28  1  0  0  0  0
 11 12  2  0  0  0  0
 11 29  1  0  0  0  0
 12 30  1  0  0  0  0
 13 20  1  0  0  0  0
 13 28  2  0  0  0  0
 14 30  2  0  0  0  0
 14 31  1  0  0  0  0
 15 32  1  0  0  0  0
 16 32  1  0  0  0  0
 16 33  2  0  0  0  0
 16 34  1  0  0  0  0
 17 19  2  0  0  0  0
 17 39  1  0  0  0  0
 18 20  2  0  0  0  0
 18 40  1  0  0  0  0
 19 48  1  0  0  0  0
 20 41  1  0  0  0  0
 21 23  2  0  0  0  0
 21 25  1  0  0  0  0
 21 51  1  0  0  0  0
 22 24  1  0  0  0  0
 22 25  2  0  0  0  0
 22 52  1  0  0  0  0
 23 26  1  0  0  0  0
 23 53  1  0  0  0  0
 24 26  2  0  0  0  0
 24 54  1  0  0  0  0
 25 73  1  0  0  0  0
 26 76  1  0  0  0  0
 27 83  1  0  0  0  0
 28 84  1  0  0  0  0
 29 31  2  0  0  0  0
 29 83  1  0  0  0  0
 30 85  1  0  0  0  0
 31 86  1  0  0  0  0
 32 67  2  0  0  0  0
 33 68  1  0  0  0  0
 33 71  1  0  0  0  0
 34 72  1  0  0  0  0
 34 78  2  0  0  0  0
 35 49  1  0  0  0  0
 35 74  1  0  0  0  0
 35 79  2  0  0  0  0
 36 64  1  0  0  0  0
 36 69  1  0  0  0  0
 36 80  2  0  0  0  0
 37 65  1  0  0  0  0
 37 75  1  0  0  0  0
 37 81  2  0  0  0  0
 38 70  1  0  0  0  0
 38 73  1  0  0  0  0
 38 82  2  0  0  0  0
 39 42  1  0  0  0  0
 40 49  1  0  0  0  0
 41 69  1  0  0  0  0
 42 44  1  0  0  0  0
 43 45  1  0  0  0  0
 43 46  1  0  0  0  0
 44 48  1  0  0  0  0
 45 50  1  0  0  0  0
 46 70  1  0  0  0  0
 47 50  1  0  0  0  0
 47 70  1  0  0  0  0
 48 74  1  0  0  0  0
 49 69  1  0  0  0  0
 50 68  1  0  0  0  0
 55 65  1  0  0  0  0
 56 66  1  0  0  0  0
 57 66  1  0  0  0  0
 58 66  1  0  0  0  0
 59 76  1  0  0  0  0
 60 77  1  0  0  0  0
 61 62  1  0  0  0  0
 61 63  1  0  0  0  0
 62 76  1  0  0  0  0
 63 84  1  0  0  0  0
 64 66  1  0  0  0  0
 64 75  1  0  0  0  0
 65 77  1  0  0  0  0
 67 68  1  0  0  0  0
M  CHG  1  77   1
M  ISO  4  38 100  63 101  73 100  84 101
M  END
> <Batch ID>
0016

> <Smiles>
CNC(C)C(=O)NC(C(=O)N1Cc2cc([101O:1][101CH2:1]CCN(C)c3c(C)c(C)c([100NH:0][100C:0](=O)N4CCCC(n5nc(-c6ccc(Oc7ccc(F)cc7F)cc6)c(C(N)=O)c5N)C4)c(C)c3C)ccc2CC1C(=O)NC1CCCc2ccccc21)C(C)(C)C

> <Shape>
0.319

> <Color>
0.200

> <Negative vol penalty>
0.000

$$$$

  -OEChem-04052315583D

 85 93  0     1  0  0  0  0  0999 V2000
  -29.2587  -20.5348   14.2744 C   0  0  0  0  0  0  0  0  0  0  0  0
  -28.8486  -20.6662   15.5973 C   0  0  0  0  0  0  0  0  0  0  0  0
  -23.0990   -9.8944   19.8757 C   0  0  0  0  0  0  0  0  0  0  0  0
  -23.8873   -9.8032   22.1577 C   0  0  0  0  0  0  0  0  0  0  0  0
  -30.2852  -21.3390   13.7809 C   0  0  0  0  0  0  0  0  0  0  0  0
  -29.4654  -21.6012   16.4277 C   0  0  0  0  0  0  0  0  0  0  0  0
  -26.1395  -24.2460   19.1823 C   0  0  0  0  0  0  0  0  0  0  0  0
  -22.3773   -8.7180   20.0779 C   0  0  0  0  0  0  0  0  0  0  0  0
  -23.1656   -8.6268   22.3599 C   0  0  0  0  0  0  0  0  0  0  0  0
  -25.5988  -23.6177   20.3034 C   0  0  0  0  0  0  0  0  0  0  0  0
  -19.9588   -7.7459   22.9606 C   0  0  0  0  0  0  0  0  0  0  0  0
  -19.2173   -7.6364   24.1370 C   0  0  0  0  0  0  0  0  0  0  0  0
  -27.1524  -24.8090   21.7128 C   0  0  0  0  0  0  0  0  0  0  0  0
  -31.0610  -17.7845   20.8018 C   0  0  0  0  0  0  0  0  0  0  0  0
  -20.4995   -5.6869   24.7637 C   0  0  0  0  0  0  0  0  0  0  0  0
  -23.8540  -10.4370   20.9156 C   0  0  0  0  0  0  0  0  0  0  0  0
  -24.1528  -12.9705   20.9146 C   0  0  0  0  0  0  0  0  0  0  0  0
  -30.9084  -22.2911   14.6031 C   0  0  0  0  0  0  0  0  0  0  0  0
  -27.1997  -25.1538   19.3173 C   0  0  0  0  0  0  0  0  0  0  0  0
  -30.5021  -22.4180   15.9451 C   0  0  0  0  0  0  0  0  0  0  0  0
  -27.7030  -25.4494   20.5922 C   0  0  0  0  0  0  0  0  0  0  0  0
  -31.2329  -19.1680   20.8447 C   0  0  0  0  0  0  0  0  0  0  0  0
  -29.6292  -19.3114   22.6460 C   0  0  0  0  0  0  0  0  0  0  0  0
  -30.1732  -17.1644   21.6809 C   0  0  0  0  0  0  0  0  0  0  0  0
  -22.4106   -8.0842   21.3200 C   0  0  0  0  0  0  0  0  0  0  0  0
  -26.1072  -23.8970   21.5686 C   0  0  0  0  0  0  0  0  0  0  0  0
  -20.9706   -6.8259   22.6857 C   0  0  0  0  0  0  0  0  0  0  0  0
  -19.4876   -6.6069   25.0385 C   0  0  0  0  0  0  0  0  0  0  0  0
  -21.2409   -5.7964   23.5873 C   0  0  0  0  0  0  0  0  0  0  0  0
  -30.5171  -19.9315   21.7668 C   0  0  0  0  0  0  0  0  0  0  0  0
  -29.4573  -17.9278   22.6030 C   0  0  0  0  0  0  0  0  0  0  0  0
  -24.6001  -11.6519   20.7071 C   0  0  0  0  0  0  0  0  0  0  0  0
  -25.2278  -13.7551   20.5755 C   0  0  0  0  0  0  0  0  0  0  0  0
  -22.8793  -13.4437   21.3729 C   0  0  0  0  0  0  0  0  0  0  0  0
  -30.2018  -25.2669   18.2790 C   0  0  0  0  0  0  0  0  0  0  0  0
  -30.1363  -28.2286   19.6004 C   0  0  0  0  0  0  0  0  0  0  0  0
  -28.7411  -30.3559   21.8752 C   0  0  0  0  0  0  0  0  0  0  0  0
  -30.6779  -14.8839   20.7369 C   0  0  0  0  0  0  0  0  0  0  0  0
  -32.0455  -23.1050   14.0381 C   0  0  0  0  0  0  0  0  0  0  0  0
  -27.7540  -25.8433   18.1008 C   0  0  0  0  0  0  0  0  0  0  0  0
  -28.8271  -26.4316   20.7929 C   0  0  0  0  0  0  0  0  0  0  0  0
  -32.3930  -24.3313   14.8781 C   0  0  0  0  0  0  0  0  0  0  0  0
  -29.5737  -12.5691   18.2672 C   0  0  0  0  0  0  0  0  0  0  0  0
  -32.4766  -23.9603   16.3554 C   0  0  0  0  0  0  0  0  0  0  0  0
  -28.1446  -12.2326   18.6989 C   0  0  0  0  0  0  0  0  0  0  0  0
  -30.4999  -12.7549   19.4678 C   0  0  0  0  0  0  0  0  0  0  0  0
  -28.5987  -13.3790   20.9048 C   0  0  0  0  0  0  0  0  0  0  0  0
  -31.1299  -23.4380   16.8701 C   0  0  1  0  0  0  0  0  0  0  0  0
  -29.1741  -26.3627   18.3035 C   0  0  1  0  0  0  0  0  0  0  0  0
  -27.6142  -13.2465   19.7314 C   0  0  2  0  0  0  0  0  0  0  0  0
  -32.1951  -19.7887   19.8833 C   0  0  0  0  0  0  0  0  0  0  0  0
  -28.9232  -32.7013   22.7489 C   0  0  0  0  0  0  0  0  0  0  0  0
  -32.6345  -27.4478   21.1685 C   0  0  0  0  0  0  0  0  0  0  0  0
  -32.2140  -29.4017   22.6763 C   0  0  0  0  0  0  0  0  0  0  0  0
  -32.6634  -29.7742   20.2510 C   0  0  0  0  0  0  0  0  0  0  0  0
  -25.9753  -31.0039   21.0446 C   0  0  0  0  0  0  0  0  0  0  0  0
  -28.8596  -20.1333   23.6375 C   0  0  0  0  0  0  0  0  0  0  0  0
  -25.1851  -21.2003   23.7832 C   0  0  0  0  0  0  0  0  0  0  0  0
  -26.6245  -21.0613   24.2556 C   0  0  0  0  0  0  0  0  0  0  0  0
  -25.0397  -21.9774   22.4805 C   0  0  0  0  0  0  0  0  0  1  0  0
  -30.4431  -28.7977   20.9645 C   0  0  1  0  0  0  0  0  0  0  0  0
  -28.2424  -31.7838   21.7452 C   0  0  2  0  0  0  0  0  0  0  0  0
  -31.9689  -28.8353   21.2614 C   0  0  0  0  0  0  0  0  0  0  0  0
  -25.8611  -11.5980   20.2699 N   0  0  0  0  0  0  0  0  0  0  0  0
  -26.2152  -12.8925   20.1998 N   0  0  0  0  0  0  0  0  0  0  0  0
  -29.3397  -27.0751   19.5720 N   0  0  0  0  0  0  0  0  0  0  0  0
  -29.9351  -13.7324   20.4007 N   0  0  0  0  0  0  0  0  0  0  0  0
  -25.4154  -15.0920   20.5649 N   0  0  0  0  0  0  0  0  0  0  0  0
  -21.8868  -12.5021   21.6774 N   0  0  0  0  0  0  0  0  0  0  0  0
  -30.0257  -15.7571   21.6069 N   0  0  0  0  0  0  0  0  0  0  0  0
  -30.2182  -24.5370   17.1057 N   0  0  0  0  0  0  0  0  0  0  0  0
  -29.7915  -30.1018   21.0188 N   0  0  0  0  0  0  0  0  0  0  0  0
  -26.7715  -31.8420   21.9776 N   0  3  0  0  0  0  0  0  0  0  0  0
  -27.4284  -20.3075   23.2651 N   0  3  0  0  0  0  0  0  0  0  0  0
  -22.6236  -14.6659   21.4929 O   0  0  0  0  0  0  0  0  0  0  0  0
  -30.9273  -25.0971   19.2519 O   0  0  0  0  0  0  0  0  0  0  0  0
  -30.5808  -28.7910   18.5965 O   0  0  0  0  0  0  0  0  0  0  0  0
  -28.2505  -29.5480   22.6607 O   0  0  0  0  0  0  0  0  0  0  0  0
  -31.7981  -15.0943   20.2649 O   0  0  0  0  0  0  0  0  0  0  0  0
  -21.7064   -6.9364   21.5178 O   0  0  0  0  0  0  0  0  0  0  0  0
  -25.5818  -23.2846   22.6644 O   0  0  0  0  0  0  0  0  0  1  0  0
  -18.7765   -6.5028   26.1688 F   0  0  0  0  0  0  0  0  0  0  0  0
  -22.2125   -4.9103   23.3293 F   0  0  0  0  0  0  0  0  0  0  0  0
  -30.7360  -21.6500   21.8141 Cl  0  0  0  0  0  0  0  0  0  0  0  0
  -28.3533  -17.1555   23.6960 Cl  0  0  0  0  0  0  0  0  0  0  0  0
  1  2  1  0  0  0  0
  1  5  2  0  0  0  0
  2  6  2  0  0  0  0
  3  8  2  0  0  0  0
  3 16  1  0  0  0  0
  4  9  1  0  0  0  0
  4 16  2  0  0  0  0
  5 18  1  0  0  0  0
  6 20  1  0  0  0  0
  7 10  2  0  0  0  0
  7 19  1  0  0  0  0
  8 25  1  0  0  0  0
  9 25  2  0  0  0  0
 10 26  1  0  0  0  0
 11 12  2  0  0  0  0
 11 27  1  0  0  0  0
 12 28  1  0  0  0  0
 13 21  1  0  0  0  0
 13 26  2  0  0  0  0
 14 22  1  0  0  0  0
 14 24  2  0  0  0  0
 15 28  2  0  0  0  0
 15 29  1  0  0  0  0
 16 32  1  0  0  0  0
 17 32  1  0  0  0  0
 17 33  2  0  0  0  0
 17 34  1  0  0  0  0
 18 20  2  0  0  0  0
 18 39  1  0  0  0  0
 19 21  2  0  0  0  0
 19 40  1  0  0  0  0
 20 48  1  0  0  0  0
 21 41  1  0  0  0  0
 22 30  2  0  0  0  0
 22 51  1  0  0  0  0
 23 30  1  0  0  0  0
 23 31  2  0  0  0  0
 23 57  1  0  0  0  0
 24 31  1  0  0  0  0
 24 70  1  0  0  0  0
 25 80  1  0  0  0  0
 26 81  1  0  0  0  0
 27 29  2  0  0  0  0
 27 80  1  0  0  0  0
 28 82  1  0  0  0  0
 29 83  1  0  0  0  0
 30 84  1  0  0  0  0
 31 85  1  0  0  0  0
 32 64  2  0  0  0  0
 33 65  1  0  0  0  0
 33 68  1  0  0  0  0
 34 69  1  0  0  0  0
 34 75  2  0  0  0  0
 35 49  1  0  0  0  0
 35 71  1  0  0  0  0
 35 76  2  0  0  0  0
 36 61  1  0  0  0  0
 36 66  1  0  0  0  0
 36 77  2  0  0  0  0
 37 62  1  0  0  0  0
 37 72  1  0  0  0  0
 37 78  2  0  0  0  0
 38 67  1  0  0  0  0
 38 70  1  0  0  0  0
 38 79  2  0  0  0  0
 39 42  1  0  0  0  0
 40 49  1  0  0  0  0
 41 66  1  0  0  0  0
 42 44  1  0  0  0  0
 43 45  1  0  0  0  0
 43 46  1  0  0  0  0
 44 48  1  0  0  0  0
 45 50  1  0  0  0  0
 46 67  1  0  0  0  0
 47 50  1  0  0  0  0
 47 67  1  0  0  0  0
 48 71  1  0  0  0  0
 49 66  1  0  0  0  0
 50 65  1  0  0  0  0
 52 62  1  0  0  0  0
 53 63  1  0  0  0  0
 54 63  1  0  0  0  0
 55 63  1  0  0  0  0
 56 73  1  0  0  0  0
 57 74  1  0  0  0  0
 58 59  1  0  0  0  0
 58 60  1  0  0  0  0
 59 74  1  0  0  0  0
 60 81  1  0  0  0  0
 61 63  1  0  0  0  0
 61 72  1  0  0  0  0
 62 73  1  0  0  0  0
 64 65  1  0  0  0  0
M  CHG  2  73   1  74   1
M  ISO  4  38 100  60 101  70 100  81 101
M  END
> <Batch ID>
0016

> <Smiles>
CNC(C)C(=O)NC(C(=O)N1Cc2cc([101O:1][101CH2:1]CCNCc3c(Cl)c(C)cc([100NH:0][100C:0](=O)N4CCCC(n5nc(-c6ccc(Oc7ccc(F)cc7F)cc6)c(C(N)=O)c5N)C4)c3Cl)ccc2CC1C(=O)NC1CCCc2ccccc21)C(C)(C)C

> <Shape>
0.267

> <Color>
0.210

> <Negative vol penalty>
0.000

$$$$

  -OEChem-04052315583D

 85 93  0     1  0  0  0  0  0999 V2000
  -30.0026  -35.5682   25.1543 C   0  0  0  0  0  0  0  0  0  0  0  0
  -30.5655  -34.4473   25.7562 C   0  0  0  0  0  0  0  0  0  0  0  0
  -23.0776   -9.8660   19.9385 C   0  0  0  0  0  0  0  0  0  0  0  0
  -23.8361   -9.8734   22.2323 C   0  0  0  0  0  0  0  0  0  0  0  0
  -29.3522  -35.4464   23.9271 C   0  0  0  0  0  0  0  0  0  0  0  0
  -30.4774  -33.2037   25.1316 C   0  0  0  0  0  0  0  0  0  0  0  0
  -34.1255  -27.0921   24.3218 C   0  0  0  0  0  0  0  0  0  0  0  0
  -22.3343   -8.7124   20.1880 C   0  0  0  0  0  0  0  0  0  0  0  0
  -23.0928   -8.7197   22.4818 C   0  0  0  0  0  0  0  0  0  0  0  0
  -33.9618  -25.7141   24.4563 C   0  0  0  0  0  0  0  0  0  0  0  0
  -19.8648   -7.9198   23.0824 C   0  0  0  0  0  0  0  0  0  0  0  0
  -19.1072   -7.8794   24.2529 C   0  0  0  0  0  0  0  0  0  0  0  0
  -32.8835  -25.6378   22.2998 C   0  0  0  0  0  0  0  0  0  0  0  0
  -31.8459  -18.3622   24.2057 C   0  0  0  0  0  0  0  0  0  0  0  0
  -20.3494   -5.9427   24.9899 C   0  0  0  0  0  0  0  0  0  0  0  0
  -23.8285  -10.4465   20.9607 C   0  0  0  0  0  0  0  0  0  0  0  0
  -24.1688  -12.9719   20.8410 C   0  0  0  0  0  0  0  0  0  0  0  0
  -29.2645  -34.2024   23.2825 C   0  0  0  0  0  0  0  0  0  0  0  0
  -33.6589  -27.7560   23.1781 C   0  0  0  0  0  0  0  0  0  0  0  0
  -29.8241  -33.0649   23.8952 C   0  0  0  0  0  0  0  0  0  0  0  0
  -33.0448  -27.0238   22.1520 C   0  0  0  0  0  0  0  0  0  0  0  0
  -32.4546  -17.1371   23.9332 C   0  0  0  0  0  0  0  0  0  0  0  0
  -30.6508  -18.7033   23.5724 C   0  0  0  0  0  0  0  0  0  0  0  0
  -30.6732  -16.5943   22.3940 C   0  0  0  0  0  0  0  0  0  0  0  0
  -22.3419   -8.1393   21.4596 C   0  0  0  0  0  0  0  0  0  0  0  0
  -33.3381  -24.9871   23.4465 C   0  0  0  0  0  0  0  0  0  0  0  0
  -20.8647   -6.9717   22.8656 C   0  0  0  0  0  0  0  0  0  0  0  0
  -19.3495   -6.8908   25.2066 C   0  0  0  0  0  0  0  0  0  0  0  0
  -21.1070   -5.9831   23.8194 C   0  0  0  0  0  0  0  0  0  0  0  0
  -31.8683  -16.2532   23.0273 C   0  0  0  0  0  0  0  0  0  0  0  0
  -30.0645  -17.8194   22.6665 C   0  0  0  0  0  0  0  0  0  0  0  0
  -24.5970  -11.6379   20.7034 C   0  0  0  0  0  0  0  0  0  0  0  0
  -25.2607  -13.7221   20.4784 C   0  0  0  0  0  0  0  0  0  0  0  0
  -22.8978  -13.4869   21.2592 C   0  0  0  0  0  0  0  0  0  0  0  0
  -31.5093  -30.0315   22.6258 C   0  0  0  0  0  0  0  0  0  0  0  0
  -32.6669  -29.8484   19.6011 C   0  0  0  0  0  0  0  0  0  0  0  0
  -34.2573  -27.9985   17.2146 C   0  0  0  0  0  0  0  0  0  0  0  0
  -30.7261  -14.7711   20.6563 C   0  0  0  0  0  0  0  0  0  0  0  0
  -28.5104  -34.1116   21.9795 C   0  0  0  0  0  0  0  0  0  0  0  0
  -33.8671  -29.2389   23.0364 C   0  0  0  0  0  0  0  0  0  0  0  0
  -32.5443  -27.6862   20.8953 C   0  0  0  0  0  0  0  0  0  0  0  0
  -28.7871  -32.8261   21.2040 C   0  0  0  0  0  0  0  0  0  0  0  0
  -29.6147  -12.3567   18.2873 C   0  0  0  0  0  0  0  0  0  0  0  0
  -28.7122  -31.6169   22.1309 C   0  0  0  0  0  0  0  0  0  0  0  0
  -28.1749  -12.0642   18.7160 C   0  0  0  0  0  0  0  0  0  0  0  0
  -30.5289  -12.5861   19.4895 C   0  0  0  0  0  0  0  0  0  0  0  0
  -28.6207  -13.3092   20.8697 C   0  0  0  0  0  0  0  0  0  0  0  0
  -29.7708  -31.7033   23.2370 C   0  0  1  0  0  0  0  0  0  0  0  0
  -32.8931  -29.8882   22.0580 C   0  0  1  0  0  0  0  0  0  0  0  0
  -27.6487  -13.1354   19.6913 C   0  0  2  0  0  0  0  0  0  0  0  0
  -33.7346  -16.8155   24.6358 C   0  0  0  0  0  0  0  0  0  0  0  0
  -35.0267  -28.1042   14.8284 C   0  0  0  0  0  0  0  0  0  0  0  0
  -29.7927  -29.4464   18.6591 C   0  0  0  0  0  0  0  0  0  0  0  0
  -30.6974  -28.6248   16.4740 C   0  0  0  0  0  0  0  0  0  0  0  0
  -31.1616  -30.9611   17.2148 C   0  0  0  0  0  0  0  0  0  0  0  0
  -29.1087  -20.0546   24.9710 C   0  0  0  0  0  0  0  0  0  0  0  0
  -37.0889  -27.6237   17.9894 C   0  0  0  0  0  0  0  0  0  0  0  0
  -31.6195  -21.8212   23.7152 C   0  0  0  0  0  0  0  0  0  0  0  0
  -30.3985  -21.1306   23.1198 C   0  0  0  0  0  0  0  0  0  0  0  0
  -32.0426  -23.0597   22.9340 C   0  0  0  0  0  0  0  0  0  1  0  0
  -32.3261  -29.0391   18.3731 C   0  0  1  0  0  0  0  0  0  0  0  0
  -35.4083  -28.3319   16.2827 C   0  0  2  0  0  0  0  0  0  0  0  0
  -31.0020  -29.5054   17.7047 C   0  0  0  0  0  0  0  0  0  0  0  0
  -25.8622  -11.5429   20.2859 N   0  0  0  0  0  0  0  0  0  0  0  0
  -26.2383  -12.8267   20.1579 N   0  0  0  0  0  0  0  0  0  0  0  0
  -32.7656  -29.1390   20.8064 N   0  0  0  0  0  0  0  0  0  0  0  0
  -29.9688  -13.6165   20.3666 N   0  0  0  0  0  0  0  0  0  0  0  0
  -25.4703  -15.0537   20.4056 N   0  0  0  0  0  0  0  0  0  0  0  0
  -21.8862  -12.5770   21.5958 N   0  0  0  0  0  0  0  0  0  0  0  0
  -30.0777  -15.6957   21.4744 N   0  0  0  0  0  0  0  0  0  0  0  0
  -31.0726  -31.3391   22.7202 N   0  0  0  0  0  0  0  0  0  0  0  0
  -33.4932  -29.1101   17.5006 N   0  0  0  0  0  0  0  0  0  0  0  0
  -30.0670  -19.9432   23.8697 N   0  0  3  0  0  0  0  0  0  0  0  0
  -36.5918  -27.4822   16.5967 N   0  3  0  0  0  0  0  0  0  0  0  0
  -22.6607  -14.7173   21.3165 O   0  0  0  0  0  0  0  0  0  0  0  0
  -30.8836  -29.0299   22.9525 O   0  0  0  0  0  0  0  0  0  0  0  0
  -32.8462  -31.0641   19.4935 O   0  0  0  0  0  0  0  0  0  0  0  0
  -34.0540  -26.8645   17.6428 O   0  0  0  0  0  0  0  0  0  0  0  0
  -31.8554  -14.9406   20.1894 O   0  0  0  0  0  0  0  0  0  0  0  0
  -21.6165   -7.0137   21.7035 O   0  0  0  0  0  0  0  0  0  0  0  0
  -33.1764  -23.6421   23.5756 O   0  0  0  0  0  0  0  0  0  1  0  0
  -18.6229   -6.8530   26.3313 F   0  0  0  0  0  0  0  0  0  0  0  0
  -22.0670   -5.0703   23.6173 F   0  0  0  0  0  0  0  0  0  0  0  0
  -32.6345  -14.7319   22.6984 Cl  0  0  0  0  0  0  0  0  0  0  0  0
  -28.5772  -18.2515   21.8805 Cl  0  0  0  0  0  0  0  0  0  0  0  0
  1  2  1  0  0  0  0
  1  5  2  0  0  0  0
  2  6  2  0  0  0  0
  3  8  2  0  0  0  0
  3 16  1  0  0  0  0
  4  9  1  0  0  0  0
  4 16  2  0  0  0  0
  5 18  1  0  0  0  0
  6 20  1  0  0  0  0
  7 10  2  0  0  0  0
  7 19  1  0  0  0  0
  8 25  1  0  0  0  0
  9 25  2  0  0  0  0
 10 26  1  0  0  0  0
 11 12  2  0  0  0  0
 11 27  1  0  0  0  0
 12 28  1  0  0  0  0
 13 21  1  0  0  0  0
 13 26  2  0  0  0  0
 14 22  2  0  0  0  0
 14 23  1  0  0  0  0
 15 28  2  0  0  0  0
 15 29  1  0  0  0  0
 16 32  1  0  0  0  0
 17 32  1  0  0  0  0
 17 33  2  0  0  0  0
 17 34  1  0  0  0  0
 18 20  2  0  0  0  0
 18 39  1  0  0  0  0
 19 21  2  0  0  0  0
 19 40  1  0  0  0  0
 20 48  1  0  0  0  0
 21 41  1  0  0  0  0
 22 30  1  0  0  0  0
 22 51  1  0  0  0  0
 23 31  2  0  0  0  0
 23 73  1  0  0  0  0
 24 30  2  0  0  0  0
 24 31  1  0  0  0  0
 24 70  1  0  0  0  0
 25 80  1  0  0  0  0
 26 81  1  0  0  0  0
 27 29  2  0  0  0  0
 27 80  1  0  0  0  0
 28 82  1  0  0  0  0
 29 83  1  0  0  0  0
 30 84  1  0  0  0  0
 31 85  1  0  0  0  0
 32 64  2  0  0  0  0
 33 65  1  0  0  0  0
 33 68  1  0  0  0  0
 34 69  1  0  0  0  0
 34 75  2  0  0  0  0
 35 49  1  0  0  0  0
 35 71  1  0  0  0  0
 35 76  2  0  0  0  0
 36 61  1  0  0  0  0
 36 66  1  0  0  0  0
 36 77  2  0  0  0  0
 37 62  1  0  0  0  0
 37 72  1  0  0  0  0
 37 78  2  0  0  0  0
 38 67  1  0  0  0  0
 38 70  1  0  0  0  0
 38 79  2  0  0  0  0
 39 42  1  0  0  0  0
 40 49  1  0  0  0  0
 41 66  1  0  0  0  0
 42 44  1  0  0  0  0
 43 45  1  0  0  0  0
 43 46  1  0  0  0  0
 44 48  1  0  0  0  0
 45 50  1  0  0  0  0
 46 67  1  0  0  0  0
 47 50  1  0  0  0  0
 47 67  1  0  0  0  0
 48 71  1  0  0  0  0
 49 66  1  0  0  0  0
 50 65  1  0  0  0  0
 52 62  1  0  0  0  0
 53 63  1  0  0  0  0
 54 63  1  0  0  0  0
 55 63  1  0  0  0  0
 56 73  1  0  0  0  0
 57 74  1  0  0  0  0
 58 59  1  0  0  0  0
 58 60  1  0  0  0  0
 59 73  1  0  0  0  0
 60 81  1  0  0  0  0
 61 63  1  0  0  0  0
 61 72  1  0  0  0  0
 62 74  1  0  0  0  0
 64 65  1  0  0  0  0
M  CHG  1  74   1
M  ISO  4  38 100  60 101  70 100  81 101
M  END
> <Batch ID>
0016

> <Smiles>
CNC(C)C(=O)NC(C(=O)N1Cc2cc([101O:1][101CH2:1]CCN(C)c3cc(C)c(Cl)c([100NH:0][100C:0](=O)N4CCCC(n5nc(-c6ccc(Oc7ccc(F)cc7F)cc6)c(C(N)=O)c5N)C4)c3Cl)ccc2CC1C(=O)NC1CCCc2ccccc21)C(C)(C)C

> <Shape>
0.182

> <Color>
0.200

> <Negative vol penalty>
0.000

$$$$

  -OEChem-04052315583D

 86 95  0     1  0  0  0  0  0999 V2000
  -25.0573  -37.0574   22.0453 C   0  0  0  0  0  0  0  0  0  0  0  0
  -25.8471  -35.9912   21.6270 C   0  0  0  0  0  0  0  0  0  0  0  0
  -24.1859  -14.6310   21.9003 C   0  0  0  0  0  0  0  0  0  0  0  0
  -25.7880  -14.8756   20.1085 C   0  0  0  0  0  0  0  0  0  0  0  0
  -24.0563  -36.8518   22.9938 C   0  0  0  0  0  0  0  0  0  0  0  0
  -25.6370  -34.7190   22.1579 C   0  0  0  0  0  0  0  0  0  0  0  0
  -26.2638  -29.3664   19.2488 C   0  0  0  0  0  0  0  0  0  0  0  0
  -23.6970  -13.4684   21.3045 C   0  0  0  0  0  0  0  0  0  0  0  0
  -25.2992  -13.7130   19.5127 C   0  0  0  0  0  0  0  0  0  0  0  0
  -27.2967  -28.4304   19.2189 C   0  0  0  0  0  0  0  0  0  0  0  0
  -24.6041  -10.2197   21.0680 C   0  0  0  0  0  0  0  0  0  0  0  0
  -24.3774   -9.1160   21.8901 C   0  0  0  0  0  0  0  0  0  0  0  0
  -26.1847  -27.1575   20.9401 C   0  0  0  0  0  0  0  0  0  0  0  0
  -28.8519  -23.8119   16.7714 C   0  0  0  0  0  0  0  0  0  0  0  0
  -22.0430   -9.1317   21.2675 C   0  0  0  0  0  0  0  0  0  0  0  0
  -25.2313  -15.3347   21.3023 C   0  0  0  0  0  0  0  0  0  0  0  0
  -26.7765  -16.6357   22.8603 C   0  0  0  0  0  0  0  0  0  0  0  0
  -23.8275  -35.5746   23.5294 C   0  0  0  0  0  0  0  0  0  0  0  0
  -25.1873  -29.2104   20.1337 C   0  0  0  0  0  0  0  0  0  0  0  0
  -24.6329  -34.4965   23.1154 C   0  0  0  0  0  0  0  0  0  0  0  0
  -25.1382  -28.0916   20.9775 C   0  0  0  0  0  0  0  0  0  0  0  0
  -27.7305  -23.1576   17.2814 C   0  0  0  0  0  0  0  0  0  0  0  0
  -29.8133  -24.3281   17.6403 C   0  0  0  0  0  0  0  0  0  0  0  0
  -27.5705  -23.0196   18.6601 C   0  0  0  0  0  0  0  0  0  0  0  0
  -29.6533  -24.1901   19.0190 C   0  0  0  0  0  0  0  0  0  0  0  0
  -24.2537  -13.0094   20.1107 C   0  0  0  0  0  0  0  0  0  0  0  0
  -27.2587  -27.3272   20.0667 C   0  0  0  0  0  0  0  0  0  0  0  0
  -23.5502  -10.7795   20.3456 C   0  0  0  0  0  0  0  0  0  0  0  0
  -23.0969   -8.5719   21.9899 C   0  0  0  0  0  0  0  0  0  0  0  0
  -22.2697  -10.2355   20.4454 C   0  0  0  0  0  0  0  0  0  0  0  0
  -28.5319  -23.5358   19.5290 C   0  0  0  0  0  0  0  0  0  0  0  0
  -25.7364  -16.5360   21.9169 C   0  0  0  0  0  0  0  0  0  0  0  0
  -26.8707  -17.9797   23.1269 C   0  0  0  0  0  0  0  0  0  0  0  0
  -27.5853  -15.6054   23.4435 C   0  0  0  0  0  0  0  0  0  0  0  0
  -24.0173  -30.8954   22.5619 C   0  0  0  0  0  0  0  0  0  0  0  0
  -21.6620  -28.6671   22.4650 C   0  0  0  0  0  0  0  0  0  0  0  0
  -20.4405  -25.2932   22.0880 C   0  0  0  0  0  0  0  0  0  0  0  0
  -25.4449  -22.8705   20.0039 C   0  0  0  0  0  0  0  0  0  0  0  0
  -22.7650  -35.4107   24.5872 C   0  0  0  0  0  0  0  0  0  0  0  0
  -24.0678  -30.2150   20.1348 C   0  0  0  0  0  0  0  0  0  0  0  0
  -23.9946  -27.8674   21.9316 C   0  0  0  0  0  0  0  0  0  0  0  0
  -22.3596  -33.9580   24.8233 C   0  0  0  0  0  0  0  0  0  0  0  0
  -31.6513  -27.1364   21.9170 C   0  0  0  0  0  0  0  0  0  0  0  0
  -24.2273  -21.9718   23.2268 C   0  0  0  0  0  0  0  0  0  0  0  0
  -23.5952  -33.0716   24.9427 C   0  0  0  0  0  0  0  0  0  0  0  0
  -24.5762  -20.4864   23.3450 C   0  0  0  0  0  0  0  0  0  0  0  0
  -30.5561  -26.0503   21.9512 C   0  0  0  0  0  0  0  0  0  0  0  0
  -32.0327  -26.6292   20.5109 C   0  0  0  0  0  0  0  0  0  0  0  0
  -23.8144  -22.3460   21.8044 C   0  0  0  0  0  0  0  0  0  0  0  0
  -25.1185  -20.4731   20.8766 C   0  0  0  0  0  0  0  0  0  0  0  0
  -24.4192  -33.0968   23.6496 C   0  0  1  0  0  0  0  0  0  0  0  0
  -23.2763  -30.2262   21.4390 C   0  0  1  0  0  0  0  0  0  0  0  0
  -25.6029  -20.0620   22.2766 C   0  0  2  0  0  0  0  0  0  0  0  0
  -30.6020  -26.0395   20.3993 C   0  0  0  0  0  0  0  0  0  0  0  0
  -26.7190  -22.6162   16.3232 C   0  0  0  0  0  0  0  0  0  0  0  0
  -31.0038  -25.0233   17.0628 C   0  0  0  0  0  0  0  0  0  0  0  0
  -18.0972  -24.3955   22.1004 C   0  0  0  0  0  0  0  0  0  0  0  0
  -22.1740  -28.1783   25.4329 C   0  0  0  0  0  0  0  0  0  0  0  0
  -20.8947  -26.0358   25.2294 C   0  0  0  0  0  0  0  0  0  0  0  0
  -19.7594  -28.2117   24.7826 C   0  0  0  0  0  0  0  0  0  0  0  0
  -20.7954  -24.0073   19.4462 C   0  0  0  0  0  0  0  0  0  0  0  0
  -29.5642  -26.8860   19.6845 C   0  0  0  0  0  0  0  0  0  1  0  0
  -21.4355  -27.3220   23.1118 C   0  0  1  0  0  0  0  0  0  0  0  0
  -19.2673  -24.8412   21.2373 C   0  0  2  0  0  0  0  0  0  0  0  0
  -21.0886  -27.4419   24.6227 C   0  0  0  0  0  0  0  0  0  0  0  0
  -25.2075  -17.7223   21.6053 N   0  0  0  0  0  0  0  0  0  0  0  0
  -25.9181  -18.5800   22.3572 N   0  0  0  0  0  0  0  0  0  0  0  0
  -22.9272  -28.8809   21.8999 N   0  0  0  0  0  0  0  0  0  0  0  0
  -24.8366  -21.9169   20.8474 N   0  0  0  0  0  0  0  0  0  0  0  0
  -27.6745  -18.6948   23.9423 N   0  0  0  0  0  0  0  0  0  0  0  0
  -27.3560  -14.2775   23.0582 N   0  0  0  0  0  0  0  0  0  0  0  0
  -26.4252  -22.3510   19.1591 N   0  0  0  0  0  0  0  0  0  0  0  0
  -30.6242  -24.7123   19.8733 N   0  0  0  0  0  0  0  0  0  0  0  0
  -23.8050  -32.2585   22.6425 N   0  0  0  0  0  0  0  0  0  0  0  0
  -20.4128  -26.6529   22.3151 N   0  0  0  0  0  0  0  0  0  0  0  0
  -19.6687  -23.7016   20.3649 N   0  3  0  0  0  0  0  0  0  0  0  0
  -28.4736  -15.8533   24.2937 O   0  0  0  0  0  0  0  0  0  0  0  0
  -24.7279  -30.2245   23.3013 O   0  0  0  0  0  0  0  0  0  0  0  0
  -20.7475  -29.4950   22.4550 O   0  0  0  0  0  0  0  0  0  0  0  0
  -21.2940  -24.5171   22.5119 O   0  0  0  0  0  0  0  0  0  0  0  0
  -25.1393  -24.0649   20.0484 O   0  0  0  0  0  0  0  0  0  0  0  0
  -23.7771  -11.8748   19.5292 O   0  0  0  0  0  0  0  0  0  0  0  0
  -28.2658  -26.4125   20.0401 O   0  0  0  0  0  0  0  0  0  1  0  0
  -22.8796   -7.5111   22.7783 F   0  0  0  0  0  0  0  0  0  0  0  0
  -21.2536  -10.7682   19.7530 F   0  0  0  0  0  0  0  0  0  0  0  0
  -28.3322  -23.3657   21.2456 Cl  0  0  0  0  0  0  0  0  0  0  0  0
  1  2  1  0  0  0  0
  1  5  2  0  0  0  0
  2  6  2  0  0  0  0
  3  8  2  0  0  0  0
  3 16  1  0  0  0  0
  4  9  1  0  0  0  0
  4 16  2  0  0  0  0
  5 18  1  0  0  0  0
  6 20  1  0  0  0  0
  7 10  2  0  0  0  0
  7 19  1  0  0  0  0
  8 26  1  0  0  0  0
  9 26  2  0  0  0  0
 10 27  1  0  0  0  0
 11 12  2  0  0  0  0
 11 28  1  0  0  0  0
 12 29  1  0  0  0  0
 13 21  1  0  0  0  0
 13 27  2  0  0  0  0
 14 22  1  0  0  0  0
 14 23  2  0  0  0  0
 15 29  2  0  0  0  0
 15 30  1  0  0  0  0
 16 32  1  0  0  0  0
 17 32  1  0  0  0  0
 17 33  2  0  0  0  0
 17 34  1  0  0  0  0
 18 20  2  0  0  0  0
 18 39  1  0  0  0  0
 19 21  2  0  0  0  0
 19 40  1  0  0  0  0
 20 51  1  0  0  0  0
 21 41  1  0  0  0  0
 22 24  2  0  0  0  0
 22 55  1  0  0  0  0
 23 25  1  0  0  0  0
 23 56  1  0  0  0  0
 24 31  1  0  0  0  0
 24 72  1  0  0  0  0
 25 31  2  0  0  0  0
 25 73  1  0  0  0  0
 26 82  1  0  0  0  0
 27 83  1  0  0  0  0
 28 30  2  0  0  0  0
 28 82  1  0  0  0  0
 29 84  1  0  0  0  0
 30 85  1  0  0  0  0
 31 86  1  0  0  0  0
 32 66  2  0  0  0  0
 33 67  1  0  0  0  0
 33 70  1  0  0  0  0
 34 71  1  0  0  0  0
 34 77  2  0  0  0  0
 35 52  1  0  0  0  0
 35 74  1  0  0  0  0
 35 78  2  0  0  0  0
 36 63  1  0  0  0  0
 36 68  1  0  0  0  0
 36 79  2  0  0  0  0
 37 64  1  0  0  0  0
 37 75  1  0  0  0  0
 37 80  2  0  0  0  0
 38 69  1  0  0  0  0
 38 72  1  0  0  0  0
 38 81  2  0  0  0  0
 39 42  1  0  0  0  0
 40 52  1  0  0  0  0
 41 68  1  0  0  0  0
 42 45  1  0  0  0  0
 43 47  1  0  0  0  0
 43 48  1  0  0  0  0
 44 46  1  0  0  0  0
 44 49  1  0  0  0  0
 45 51  1  0  0  0  0
 46 53  1  0  0  0  0
 47 54  1  0  0  0  0
 48 54  1  0  0  0  0
 49 69  1  0  0  0  0
 50 53  1  0  0  0  0
 50 69  1  0  0  0  0
 51 74  1  0  0  0  0
 52 68  1  0  0  0  0
 53 67  1  0  0  0  0
 54 62  1  0  0  0  0
 54 73  1  0  0  0  0
 57 64  1  0  0  0  0
 58 65  1  0  0  0  0
 59 65  1  0  0  0  0
 60 65  1  0  0  0  0
 61 76  1  0  0  0  0
 62 83  1  0  0  0  0
 63 65  1  0  0  0  0
 63 75  1  0  0  0  0
 64 76  1  0  0  0  0
 66 67  1  0  0  0  0
M  CHG  1  76   1
M  ISO  4  38 100  62 101  72 100  83 101
M  END
> <Batch ID>
0016

> <Smiles>
CNC(C)C(=O)NC(C(=O)N1Cc2cc([101O:1][101CH2:1]C3(Nc4c(C)cc(C)c([100NH:0][100C:0](=O)N5CCCC(n6nc(-c7ccc(Oc8ccc(F)cc8F)cc7)c(C(N)=O)c6N)C5)c4Cl)CCC3)ccc2CC1C(=O)NC1CCCc2ccccc21)C(C)(C)C

> <Shape>
0.271

> <Color>
0.056

> <Negative vol penalty>
0.000

$$$$

  -OEChem-04052315583D

 92 99  0     1  0  0  0  0  0999 V2000
  -30.2113  -27.4076   22.3880 C   0  0  0  0  0  0  0  0  0  0  0  0
  -29.7929  -26.1452   22.7962 C   0  0  0  0  0  0  0  0  0  0  0  0
  -23.0764   -9.8661   19.9431 C   0  0  0  0  0  0  0  0  0  0  0  0
  -23.8390   -9.8764   22.2356 C   0  0  0  0  0  0  0  0  0  0  0  0
  -31.4406  -27.5603   21.7481 C   0  0  0  0  0  0  0  0  0  0  0  0
  -30.6032  -25.0344   22.5637 C   0  0  0  0  0  0  0  0  0  0  0  0
  -30.9281  -21.9884   26.5962 C   0  0  0  0  0  0  0  0  0  0  0  0
  -22.3343   -8.7123   20.1951 C   0  0  0  0  0  0  0  0  0  0  0  0
  -23.0967   -8.7226   22.4876 C   0  0  0  0  0  0  0  0  0  0  0  0
  -29.8490  -21.1406   26.8424 C   0  0  0  0  0  0  0  0  0  0  0  0
  -21.1167   -5.9846   23.8294 C   0  0  0  0  0  0  0  0  0  0  0  0
  -20.3618   -5.9413   25.0015 C   0  0  0  0  0  0  0  0  0  0  0  0
  -31.0590  -19.3161   25.8294 C   0  0  0  0  0  0  0  0  0  0  0  0
  -19.1140   -7.8763   24.2694 C   0  0  0  0  0  0  0  0  0  0  0  0
  -23.8288  -10.4481   20.9633 C   0  0  0  0  0  0  0  0  0  0  0  0
  -24.1675  -12.9736   20.8402 C   0  0  0  0  0  0  0  0  0  0  0  0
  -32.2706  -26.4522   21.5163 C   0  0  0  0  0  0  0  0  0  0  0  0
  -32.0784  -21.5082   25.9539 C   0  0  0  0  0  0  0  0  0  0  0  0
  -31.8442  -25.1722   21.9189 C   0  0  0  0  0  0  0  0  0  0  0  0
  -32.1524  -20.1592   25.5786 C   0  0  0  0  0  0  0  0  0  0  0  0
  -22.3444   -8.1406   21.4674 C   0  0  0  0  0  0  0  0  0  0  0  0
  -29.9132  -19.8050   26.4564 C   0  0  0  0  0  0  0  0  0  0  0  0
  -20.8703   -6.9737   22.8773 C   0  0  0  0  0  0  0  0  0  0  0  0
  -19.3605   -6.8871   25.2215 C   0  0  0  0  0  0  0  0  0  0  0  0
  -19.8690   -7.9196   23.0972 C   0  0  0  0  0  0  0  0  0  0  0  0
  -24.5962  -11.6397   20.7034 C   0  0  0  0  0  0  0  0  0  0  0  0
  -25.2583  -13.7240   20.4749 C   0  0  0  0  0  0  0  0  0  0  0  0
  -22.8968  -13.4883   21.2600 C   0  0  0  0  0  0  0  0  0  0  0  0
  -33.5753  -22.1838   23.2325 C   0  0  0  0  0  0  0  0  0  0  0  0
  -35.7865  -20.1104   24.3875 C   0  0  0  0  0  0  0  0  0  0  0  0
  -24.8967  -21.8430   20.1223 C   0  0  0  0  0  0  0  0  0  0  0  0
  -27.1772  -17.5626   25.7223 C   0  0  0  0  0  0  0  0  0  0  0  0
  -36.4974  -17.4817   26.4444 C   0  0  0  0  0  0  0  0  0  0  0  0
  -30.7410  -14.7499   20.6558 C   0  0  0  0  0  0  0  0  0  0  0  0
  -33.5696  -26.6600   20.7786 C   0  0  0  0  0  0  0  0  0  0  0  0
  -33.2444  -22.4290   25.7197 C   0  0  0  0  0  0  0  0  0  0  0  0
  -33.3726  -19.5895   24.9042 C   0  0  0  0  0  0  0  0  0  0  0  0
  -34.5366  -25.4855   20.9051 C   0  0  0  0  0  0  0  0  0  0  0  0
  -29.6036  -12.3615   18.2729 C   0  0  0  0  0  0  0  0  0  0  0  0
  -33.8090  -24.1667   20.6642 C   0  0  0  0  0  0  0  0  0  0  0  0
  -28.1670  -12.0665   18.7078 C   0  0  0  0  0  0  0  0  0  0  0  0
  -30.5218  -12.5847   19.4725 C   0  0  0  0  0  0  0  0  0  0  0  0
  -28.6208  -13.3149   20.8605 C   0  0  0  0  0  0  0  0  0  0  0  0
  -32.7061  -23.9466   21.7067 C   0  0  1  0  0  0  0  0  0  0  0  0
  -34.1626  -21.9567   24.5967 C   0  0  1  0  0  0  0  0  0  0  0  0
  -27.6455  -13.1379   19.6842 C   0  0  2  0  0  0  0  0  0  0  0  0
  -38.3840  -15.9826   27.1450 C   0  0  0  0  0  0  0  0  0  0  0  0
  -35.5506  -18.5870   21.7543 C   0  0  0  0  0  0  0  0  0  0  0  0
  -36.6867  -16.6467   22.8555 C   0  0  0  0  0  0  0  0  0  0  0  0
  -37.8858  -18.8212   22.6184 C   0  0  0  0  0  0  0  0  0  0  0  0
  -27.8052  -15.7674   24.0742 C   0  0  0  0  0  0  0  0  0  0  0  0
  -36.3036  -18.3617   29.2635 C   0  0  0  0  0  0  0  0  0  0  0  0
  -25.5160  -21.4948   18.8178 C   0  0  0  0  0  0  0  0  0  0  0  0
  -28.6513  -17.9014   25.7931 C   0  0  0  0  0  0  0  0  0  1  0  0
  -26.9989  -21.1459   18.9583 C   0  0  0  0  0  0  0  0  0  0  0  0
  -27.2364  -19.9128   19.8354 C   0  0  0  0  0  0  0  0  0  0  0  0
  -28.7279  -19.5819   19.9302 C   0  0  0  0  0  0  0  0  0  0  0  0
  -29.0307  -18.3976   20.8535 C   0  0  0  0  0  0  0  0  0  0  0  0
  -24.7038  -18.3388   23.8157 C   0  0  0  0  0  0  0  0  0  0  0  0
  -23.9615  -19.0506   22.6821 C   0  0  0  0  0  0  0  0  0  0  0  0
  -30.5216  -18.0524   20.9290 C   0  0  0  0  0  0  0  0  0  0  0  0
  -24.7271  -16.8230   23.5978 C   0  0  0  0  0  0  0  0  0  0  0  0
  -23.9033  -20.5621   22.9194 C   0  0  0  0  0  0  0  0  0  0  0  0
  -30.8056  -16.9019   21.8904 C   0  0  0  0  0  0  0  0  0  0  0  0
  -25.4481  -16.0803   24.7179 C   0  0  0  0  0  0  0  0  0  0  0  0
  -23.1838  -21.2968   21.7972 C   0  0  0  0  0  0  0  0  0  0  0  0
  -36.0048  -18.6195   24.2957 C   0  0  1  0  0  0  0  0  0  0  0  0
  -37.6163  -17.2604   27.4462 C   0  0  2  0  0  0  0  0  0  0  0  0
  -36.5081  -18.1795   22.8919 C   0  0  0  0  0  0  0  0  0  0  0  0
  -25.8607  -11.5449   20.2838 N   0  0  0  0  0  0  0  0  0  0  0  0
  -26.2359  -12.8288   20.1536 N   0  0  0  0  0  0  0  0  0  0  0  0
  -34.4841  -20.5312   24.6913 N   0  0  0  0  0  0  0  0  0  0  0  0
  -29.9710  -13.6135   20.3580 N   0  0  0  0  0  0  0  0  0  0  0  0
  -25.4670  -15.0556   20.4002 N   0  0  0  0  0  0  0  0  0  0  0  0
  -21.8864  -12.5782   21.5994 N   0  0  0  0  0  0  0  0  0  0  0  0
  -25.4016  -22.8889   20.7667 N   0  0  0  0  0  0  0  0  0  0  0  0
  -33.2772  -23.5056   22.9612 N   0  0  0  0  0  0  0  0  0  0  0  0
  -36.9049  -18.2706   25.3895 N   0  0  0  0  0  0  0  0  0  0  0  0
  -30.1417  -15.6789   21.4976 N   0  0  0  0  0  0  0  0  0  0  0  0
  -26.8129  -16.5037   24.8667 N   0  0  0  0  0  0  0  0  0  0  0  0
  -23.8899  -21.0730   20.5348 N   0  3  0  0  0  0  0  0  0  0  0  0
  -37.0637  -17.1623   28.8267 N   0  3  0  0  0  0  0  0  0  0  0  0
  -22.6591  -14.7187   21.3163 O   0  0  0  0  0  0  0  0  0  0  0  0
  -33.4066  -21.2307   22.4810 O   0  0  0  0  0  0  0  0  0  0  0  0
  -36.7382  -20.8734   24.2036 O   0  0  0  0  0  0  0  0  0  0  0  0
  -26.3852  -18.2142   26.4099 O   0  0  0  0  0  0  0  0  0  0  0  0
  -35.3752  -16.9996   26.5820 O   0  0  0  0  0  0  0  0  0  0  0  0
  -31.8762  -14.9263   20.2007 O   0  0  0  0  0  0  0  0  0  0  0  0
  -21.6201   -7.0149   21.7137 O   0  0  0  0  0  0  0  0  0  0  0  0
  -28.8500  -18.9668   26.6974 O   0  0  0  0  0  0  0  0  0  1  0  0
  -18.6346   -6.8445   26.3464 F   0  0  0  0  0  0  0  0  0  0  0  0
  -19.6269   -8.8715   22.1856 F   0  0  0  0  0  0  0  0  0  0  0  0
  1  2  1  0  0  0  0
  1  5  2  0  0  0  0
  2  6  2  0  0  0  0
  3  8  2  0  0  0  0
  3 15  1  0  0  0  0
  4  9  1  0  0  0  0
  4 15  2  0  0  0  0
  5 17  1  0  0  0  0
  6 19  1  0  0  0  0
  7 10  2  0  0  0  0
  7 18  1  0  0  0  0
  8 21  1  0  0  0  0
  9 21  2  0  0  0  0
 10 22  1  0  0  0  0
 11 12  2  0  0  0  0
 11 23  1  0  0  0  0
 12 24  1  0  0  0  0
 13 20  1  0  0  0  0
 13 22  2  0  0  0  0
 14 24  2  0  0  0  0
 14 25  1  0  0  0  0
 15 26  1  0  0  0  0
 16 26  1  0  0  0  0
 16 27  2  0  0  0  0
 16 28  1  0  0  0  0
 17 19  2  0  0  0  0
 17 35  1  0  0  0  0
 18 20  2  0  0  0  0
 18 36  1  0  0  0  0
 19 44  1  0  0  0  0
 20 37  1  0  0  0  0
 21 89  1  0  0  0  0
 22 90  1  0  0  0  0
 23 25  2  0  0  0  0
 23 89  1  0  0  0  0
 24 91  1  0  0  0  0
 25 92  1  0  0  0  0
 26 70  2  0  0  0  0
 27 71  1  0  0  0  0
 27 74  1  0  0  0  0
 28 75  1  0  0  0  0
 28 83  2  0  0  0  0
 29 45  1  0  0  0  0
 29 77  1  0  0  0  0
 29 84  2  0  0  0  0
 30 67  1  0  0  0  0
 30 72  1  0  0  0  0
 30 85  2  0  0  0  0
 31 53  1  0  0  0  0
 31 76  1  0  0  0  0
 31 81  2  0  0  0  0
 32 54  1  0  0  0  0
 32 80  1  0  0  0  0
 32 86  2  0  0  0  0
 33 68  1  0  0  0  0
 33 78  1  0  0  0  0
 33 87  2  0  0  0  0
 34 73  1  0  0  0  0
 34 79  1  0  0  0  0
 34 88  2  0  0  0  0
 35 38  1  0  0  0  0
 36 45  1  0  0  0  0
 37 72  1  0  0  0  0
 38 40  1  0  0  0  0
 39 41  1  0  0  0  0
 39 42  1  0  0  0  0
 40 44  1  0  0  0  0
 41 46  1  0  0  0  0
 42 73  1  0  0  0  0
 43 46  1  0  0  0  0
 43 73  1  0  0  0  0
 44 77  1  0  0  0  0
 45 72  1  0  0  0  0
 46 71  1  0  0  0  0
 47 68  1  0  0  0  0
 48 69  1  0  0  0  0
 49 69  1  0  0  0  0
 50 69  1  0  0  0  0
 51 80  1  0  0  0  0
 52 82  1  0  0  0  0
 53 55  1  0  0  0  0
 54 90  1  0  0  0  0
 55 56  1  0  0  0  0
 56 57  1  0  0  0  0
 57 58  1  0  0  0  0
 58 61  1  0  0  0  0
 59 60  1  0  0  0  0
 59 62  1  0  0  0  0
 60 63  1  0  0  0  0
 61 64  1  0  0  0  0
 62 65  1  0  0  0  0
 63 66  1  0  0  0  0
 64 79  1  0  0  0  0
 65 80  1  0  0  0  0
 66 81  1  0  0  0  0
 67 69  1  0  0  0  0
 67 78  1  0  0  0  0
 68 82  1  0  0  0  0
 70 71  1  0  0  0  0
M  CHG  2  81   1  82   1
M  ISO  4  34 100  54 101  79 100  90 101
M  END
> <Batch ID>
0016

> <Smiles>
CNC(C)C(=O)NC(C(=O)N1Cc2cc([101O:1][101CH2:1]C(=O)N(C)CCCCCCNC(=N)CCCCCCC[100NH:0][100C:0](=O)N3CCCC(n4nc(-c5ccc(Oc6ccc(F)cc6F)cc5)c(C(N)=O)c4N)C3)ccc2CC1C(=O)NC1CCCc2ccccc21)C(C)(C)C

> <Shape>
0.185

> <Color>
0.176

> <Negative vol penalty>
0.000

$$$$

  -OEChem-04052315583D

 85 93  0     1  0  0  0  0  0999 V2000
  -32.8990  -24.6464   17.7693 C   0  0  0  0  0  0  0  0  0  0  0  0
  -31.8011  -24.2269   18.5136 C   0  0  0  0  0  0  0  0  0  0  0  0
  -23.7420   -9.6439   19.8417 C   0  0  0  0  0  0  0  0  0  0  0  0
  -23.9136   -9.8844   22.2396 C   0  0  0  0  0  0  0  0  0  0  0  0
  -33.4955  -25.8767   18.0418 C   0  0  0  0  0  0  0  0  0  0  0  0
  -31.2997  -25.0371   19.5318 C   0  0  0  0  0  0  0  0  0  0  0  0
  -26.2462  -25.3542   19.4517 C   0  0  0  0  0  0  0  0  0  0  0  0
  -23.1773   -8.3795   20.0089 C   0  0  0  0  0  0  0  0  0  0  0  0
  -23.3488   -8.6200   22.4068 C   0  0  0  0  0  0  0  0  0  0  0  0
  -25.5322  -24.2744   19.9693 C   0  0  0  0  0  0  0  0  0  0  0  0
  -20.2656   -7.2393   22.3168 C   0  0  0  0  0  0  0  0  0  0  0  0
  -19.2685   -7.0991   23.2821 C   0  0  0  0  0  0  0  0  0  0  0  0
  -25.2063  -25.4854   22.0300 C   0  0  0  0  0  0  0  0  0  0  0  0
  -29.9138  -18.8666   21.6738 C   0  0  0  0  0  0  0  0  0  0  0  0
  -20.6204   -5.4663   24.4412 C   0  0  0  0  0  0  0  0  0  0  0  0
  -24.1103  -10.3963   20.9571 C   0  0  0  0  0  0  0  0  0  0  0  0
  -24.0161  -12.9336   20.7102 C   0  0  0  0  0  0  0  0  0  0  0  0
  -32.9952  -26.7068   19.0574 C   0  0  0  0  0  0  0  0  0  0  0  0
  -26.4553  -26.5054   20.2246 C   0  0  0  0  0  0  0  0  0  0  0  0
  -31.8909  -26.2792   19.8190 C   0  0  0  0  0  0  0  0  0  0  0  0
  -25.9211  -26.5795   21.5189 C   0  0  0  0  0  0  0  0  0  0  0  0
  -29.8594  -20.2574   21.5829 C   0  0  0  0  0  0  0  0  0  0  0  0
  -27.8393  -20.2650   22.9082 C   0  0  0  0  0  0  0  0  0  0  0  0
  -28.9309  -18.1749   22.3818 C   0  0  0  0  0  0  0  0  0  0  0  0
  -22.9806   -7.8676   21.2914 C   0  0  0  0  0  0  0  0  0  0  0  0
  -25.0146  -24.3387   21.2596 C   0  0  0  0  0  0  0  0  0  0  0  0
  -21.4400   -6.4930   22.4137 C   0  0  0  0  0  0  0  0  0  0  0  0
  -19.4459   -6.2126   24.3443 C   0  0  0  0  0  0  0  0  0  0  0  0
  -21.6174   -5.6065   23.4759 C   0  0  0  0  0  0  0  0  0  0  0  0
  -28.8221  -20.9566   22.2001 C   0  0  0  0  0  0  0  0  0  0  0  0
  -27.8937  -18.8741   22.9991 C   0  0  0  0  0  0  0  0  0  0  0  0
  -24.6943  -11.7023   20.7850 C   0  0  0  0  0  0  0  0  0  0  0  0
  -25.0122  -13.8649   20.5464 C   0  0  0  0  0  0  0  0  0  0  0  0
  -22.6112  -13.2108   20.7825 C   0  0  0  0  0  0  0  0  0  0  0  0
  -29.0141  -28.0071   21.3654 C   0  0  0  0  0  0  0  0  0  0  0  0
  -26.8246  -30.2156   22.2877 C   0  0  0  0  0  0  0  0  0  0  0  0
  -23.5846  -30.9221   23.0938 C   0  0  0  0  0  0  0  0  0  0  0  0
  -29.9996  -15.9489   21.8829 C   0  0  0  0  0  0  0  0  0  0  0  0
  -33.7026  -28.0070   19.3465 C   0  0  0  0  0  0  0  0  0  0  0  0
  -27.2048  -27.6722   19.6420 C   0  0  0  0  0  0  0  0  0  0  0  0
  -26.1004  -27.8006   22.3821 C   0  0  0  0  0  0  0  0  0  0  0  0
  -32.8788  -28.9733   20.1938 C   0  0  0  0  0  0  0  0  0  0  0  0
  -29.9360  -13.2772   19.5302 C   0  0  0  0  0  0  0  0  0  0  0  0
  -32.2583  -28.2457   21.3822 C   0  0  0  0  0  0  0  0  0  0  0  0
  -28.5109  -12.7306   19.6407 C   0  0  0  0  0  0  0  0  0  0  0  0
  -30.4791  -13.7235   20.8865 C   0  0  0  0  0  0  0  0  0  0  0  0
  -28.1981  -14.1195   21.7288 C   0  0  0  0  0  0  0  0  0  0  0  0
  -31.3028  -27.1410   20.9151 C   0  0  1  0  0  0  0  0  0  0  0  0
  -27.7980  -28.5921   20.7046 C   0  0  1  0  0  0  0  0  0  0  0  0
  -27.5844  -13.7175   20.3778 C   0  0  2  0  0  0  0  0  0  0  0  0
  -30.9344  -20.9559   20.8137 C   0  0  0  0  0  0  0  0  0  0  0  0
  -22.1071  -32.8070   23.8432 C   0  0  0  0  0  0  0  0  0  0  0  0
  -23.0016  -20.9743   23.0246 C   0  0  0  0  0  0  0  0  0  0  0  0
  -27.9634  -29.9834   25.1088 C   0  0  0  0  0  0  0  0  0  0  0  0
  -25.8998  -31.1170   25.9601 C   0  0  0  0  0  0  0  0  0  0  0  0
  -27.4228  -32.3172   24.3909 C   0  0  0  0  0  0  0  0  0  0  0  0
  -21.9040  -30.7240   20.6658 C   0  0  0  0  0  0  0  0  0  0  0  0
  -26.7240  -21.0178   23.5718 C   0  0  0  0  0  0  0  0  0  0  0  0
  -24.3775  -23.0881   23.1795 C   0  0  0  0  0  0  0  0  0  1  0  0
  -25.9793  -30.4334   23.5193 C   0  0  1  0  0  0  0  0  0  0  0  0
  -22.6570  -32.0393   22.6512 C   0  0  2  0  0  0  0  0  0  0  0  0
  -24.2964  -21.6028   23.5136 C   0  0  2  0  0  0  0  0  0  0  0  0
  -26.8144  -30.9389   24.7295 C   0  0  0  0  0  0  0  0  0  0  0  0
  -26.0189  -11.8358   20.6773 N   0  0  0  0  0  0  0  0  0  0  0  0
  -26.1810  -13.1621   20.5331 N   0  0  0  0  0  0  0  0  0  0  0  0
  -26.8459  -28.9128   21.7699 N   0  0  0  0  0  0  0  0  0  0  0  0
  -29.5511  -14.6602   21.5240 N   0  0  0  0  0  0  0  0  0  0  0  0
  -24.9937  -15.2082   20.4137 N   0  0  0  0  0  0  0  0  0  0  0  0
  -21.7262  -12.1374   20.9527 N   0  0  0  0  0  0  0  0  0  0  0  0
  -29.0203  -16.7625   22.4517 N   0  0  0  0  0  0  0  0  0  0  0  0
  -30.0416  -27.7099   20.4905 N   0  0  0  0  0  0  0  0  0  0  0  0
  -24.9009  -31.3316   23.1207 N   0  0  0  0  0  0  0  0  0  0  0  0
  -21.5092  -31.4844   21.8794 N   0  3  0  0  0  0  0  0  0  0  0  0
  -25.4332  -20.9048   22.8462 N   0  3  0  0  0  0  0  0  0  0  0  0
  -22.1530  -14.3743   20.6821 O   0  0  0  0  0  0  0  0  0  0  0  0
  -29.0203  -27.8392   22.5792 O   0  0  0  0  0  0  0  0  0  0  0  0
  -27.4375  -31.1679   21.7987 O   0  0  0  0  0  0  0  0  0  0  0  0
  -23.1812  -29.7995   23.3900 O   0  0  0  0  0  0  0  0  0  0  0  0
  -31.1595  -16.3138   21.6744 O   0  0  0  0  0  0  0  0  0  0  0  0
  -22.4293   -6.6339   21.4550 O   0  0  0  0  0  0  0  0  0  0  0  0
  -24.3178  -23.2859   21.7675 O   0  0  0  0  0  0  0  0  0  1  0  0
  -18.4890   -6.0792   25.2720 F   0  0  0  0  0  0  0  0  0  0  0  0
  -22.7441   -4.8877   23.5749 F   0  0  0  0  0  0  0  0  0  0  0  0
  -28.7613  -22.6846   22.0828 Cl  0  0  0  0  0  0  0  0  0  0  0  0
  -26.6718  -18.0128   23.8795 Cl  0  0  0  0  0  0  0  0  0  0  0  0
  1  2  1  0  0  0  0
  1  5  2  0  0  0  0
  2  6  2  0  0  0  0
  3  8  2  0  0  0  0
  3 16  1  0  0  0  0
  4  9  1  0  0  0  0
  4 16  2  0  0  0  0
  5 18  1  0  0  0  0
  6 20  1  0  0  0  0
  7 10  2  0  0  0  0
  7 19  1  0  0  0  0
  8 25  1  0  0  0  0
  9 25  2  0  0  0  0
 10 26  1  0  0  0  0
 11 12  2  0  0  0  0
 11 27  1  0  0  0  0
 12 28  1  0  0  0  0
 13 21  1  0  0  0  0
 13 26  2  0  0  0  0
 14 22  1  0  0  0  0
 14 24  2  0  0  0  0
 15 28  2  0  0  0  0
 15 29  1  0  0  0  0
 16 32  1  0  0  0  0
 17 32  1  0  0  0  0
 17 33  2  0  0  0  0
 17 34  1  0  0  0  0
 18 20  2  0  0  0  0
 18 39  1  0  0  0  0
 19 21  2  0  0  0  0
 19 40  1  0  0  0  0
 20 48  1  0  0  0  0
 21 41  1  0  0  0  0
 22 30  2  0  0  0  0
 22 51  1  0  0  0  0
 23 30  1  0  0  0  0
 23 31  2  0  0  0  0
 23 58  1  0  0  0  0
 24 31  1  0  0  0  0
 24 70  1  0  0  0  0
 25 80  1  0  0  0  0
 26 81  1  0  0  0  0
 27 29  2  0  0  0  0
 27 80  1  0  0  0  0
 28 82  1  0  0  0  0
 29 83  1  0  0  0  0
 30 84  1  0  0  0  0
 31 85  1  0  0  0  0
 32 64  2  0  0  0  0
 33 65  1  0  0  0  0
 33 68  1  0  0  0  0
 34 69  1  0  0  0  0
 34 75  2  0  0  0  0
 35 49  1  0  0  0  0
 35 71  1  0  0  0  0
 35 76  2  0  0  0  0
 36 60  1  0  0  0  0
 36 66  1  0  0  0  0
 36 77  2  0  0  0  0
 37 61  1  0  0  0  0
 37 72  1  0  0  0  0
 37 78  2  0  0  0  0
 38 67  1  0  0  0  0
 38 70  1  0  0  0  0
 38 79  2  0  0  0  0
 39 42  1  0  0  0  0
 40 49  1  0  0  0  0
 41 66  1  0  0  0  0
 42 44  1  0  0  0  0
 43 45  1  0  0  0  0
 43 46  1  0  0  0  0
 44 48  1  0  0  0  0
 45 50  1  0  0  0  0
 46 67  1  0  0  0  0
 47 50  1  0  0  0  0
 47 67  1  0  0  0  0
 48 71  1  0  0  0  0
 49 66  1  0  0  0  0
 50 65  1  0  0  0  0
 52 61  1  0  0  0  0
 53 62  1  0  0  0  0
 54 63  1  0  0  0  0
 55 63  1  0  0  0  0
 56 63  1  0  0  0  0
 57 73  1  0  0  0  0
 58 74  1  0  0  0  0
 59 62  1  0  0  0  0
 59 81  1  0  0  0  0
 60 63  1  0  0  0  0
 60 72  1  0  0  0  0
 61 73  1  0  0  0  0
 62 74  1  0  0  0  0
 64 65  1  0  0  0  0
M  CHG  2  73   1  74   1
M  ISO  4  38 100  59 101  70 100  81 101
M  END
> <Batch ID>
0016

> <Smiles>
CNC(C)C(=O)NC(C(=O)N1Cc2cc([101O:1][101CH2:1]C(C)NCc3c(Cl)c(C)cc([100NH:0][100C:0](=O)N4CCCC(n5nc(-c6ccc(Oc7ccc(F)cc7F)cc6)c(C(N)=O)c5N)C4)c3Cl)ccc2CC1C(=O)NC1CCCc2ccccc21)C(C)(C)C

> <Shape>
0.309

> <Color>
0.156

> <Negative vol penalty>
0.000

$$$$

  -OEChem-04052315583D

 94101  0     1  0  0  0  0  0999 V2000
  -22.9946  -10.5067   18.9451 C   0  0  0  0  0  0  0  0  0  0  0  0
  -22.2385  -11.6291   19.2676 C   0  0  0  0  0  0  0  0  0  0  0  0
  -29.8534  -26.6804   23.1255 C   0  0  0  0  0  0  0  0  0  0  0  0
  -28.1096  -25.0225   23.3436 C   0  0  0  0  0  0  0  0  0  0  0  0
  -24.3279  -10.4274   19.3449 C   0  0  0  0  0  0  0  0  0  0  0  0
  -22.8151  -12.6725   19.9911 C   0  0  0  0  0  0  0  0  0  0  0  0
  -22.5557  -19.7979   20.6822 C   0  0  0  0  0  0  0  0  0  0  0  0
  -30.5807  -26.0481   24.1339 C   0  0  0  0  0  0  0  0  0  0  0  0
  -28.8369  -24.3902   24.3520 C   0  0  0  0  0  0  0  0  0  0  0  0
  -22.4030  -20.7803   21.6595 C   0  0  0  0  0  0  0  0  0  0  0  0
  -31.4769  -22.2923   24.5755 C   0  0  0  0  0  0  0  0  0  0  0  0
  -31.5818  -20.9024   24.5226 C   0  0  0  0  0  0  0  0  0  0  0  0
  -24.7376  -20.5686   22.2286 C   0  0  0  0  0  0  0  0  0  0  0  0
  -30.5050  -20.7392   26.6793 C   0  0  0  0  0  0  0  0  0  0  0  0
  -28.6178  -26.1677   22.7304 C   0  0  0  0  0  0  0  0  0  0  0  0
  -27.9328  -26.5680   20.3059 C   0  0  0  0  0  0  0  0  0  0  0  0
  -24.9239  -11.4746   20.0653 C   0  0  0  0  0  0  0  0  0  0  0  0
  -23.8001  -19.1846   20.4778 C   0  0  0  0  0  0  0  0  0  0  0  0
  -24.1573  -12.6065   20.4020 C   0  0  0  0  0  0  0  0  0  0  0  0
  -24.9041  -19.5804   21.2463 C   0  0  0  0  0  0  0  0  0  0  0  0
  -30.0725  -24.9030   24.7471 C   0  0  0  0  0  0  0  0  0  0  0  0
  -23.4933  -21.1638   22.4349 C   0  0  0  0  0  0  0  0  0  0  0  0
  -30.8861  -22.9057   25.6803 C   0  0  0  0  0  0  0  0  0  0  0  0
  -31.0958  -20.1258   25.5745 C   0  0  0  0  0  0  0  0  0  0  0  0
  -30.4002  -22.1291   26.7321 C   0  0  0  0  0  0  0  0  0  0  0  0
  -27.8658  -26.8207   21.6892 C   0  0  0  0  0  0  0  0  0  0  0  0
  -27.0303  -27.4433   19.7529 C   0  0  0  0  0  0  0  0  0  0  0  0
  -28.7386  -25.6262   19.5853 C   0  0  0  0  0  0  0  0  0  0  0  0
  -24.9017  -16.2123   20.7135 C   0  0  0  0  0  0  0  0  0  0  0  0
  -27.5912  -17.5250   19.4621 C   0  0  0  0  0  0  0  0  0  0  0  0
  -29.4946  -20.3144   18.9690 C   0  0  0  0  0  0  0  0  0  0  0  0
  -20.6080  -26.4629   23.5181 C   0  0  0  0  0  0  0  0  0  0  0  0
  -22.1484  -30.1647   21.9004 C   0  0  0  0  0  0  0  0  0  0  0  0
  -26.3550  -11.3228   20.5166 C   0  0  0  0  0  0  0  0  0  0  0  0
  -23.9546  -18.1454   19.4013 C   0  0  0  0  0  0  0  0  0  0  0  0
  -26.2661  -18.9673   21.0525 C   0  0  0  0  0  0  0  0  0  0  0  0
  -26.9975  -12.6359   20.9564 C   0  0  0  0  0  0  0  0  0  0  0  0
  -25.0260  -31.7233   20.4982 C   0  0  0  0  0  0  0  0  0  0  0  0
  -26.0598  -13.4056   21.8811 C   0  0  0  0  0  0  0  0  0  0  0  0
  -26.0862  -30.6208   20.5196 C   0  0  0  0  0  0  0  0  0  0  0  0
  -24.1178  -31.6568   21.7241 C   0  0  0  0  0  0  0  0  0  0  0  0
  -24.5443  -29.2427   21.9764 C   0  0  0  0  0  0  0  0  0  0  0  0
  -24.7541  -13.7698   21.1641 C   0  0  1  0  0  0  0  0  0  0  0  0
  -25.1478  -17.2224   19.6287 C   0  0  1  0  0  0  0  0  0  0  0  0
  -25.4491  -29.2344   20.7324 C   0  0  2  0  0  0  0  0  0  0  0  0
  -31.6581  -21.0670   17.9442 C   0  0  0  0  0  0  0  0  0  0  0  0
  -20.4898  -26.2562   20.9971 C   0  0  0  0  0  0  0  0  0  0  0  0
  -29.1194  -16.3324   21.8184 C   0  0  0  0  0  0  0  0  0  0  0  0
  -31.0187  -17.8705   21.2752 C   0  0  0  0  0  0  0  0  0  0  0  0
  -30.2922  -16.1545   19.6168 C   0  0  0  0  0  0  0  0  0  0  0  0
  -28.1064  -22.1294   17.0882 C   0  0  0  0  0  0  0  0  0  0  0  0
  -22.0919  -23.7153   24.6727 C   0  0  0  0  0  0  0  0  0  0  0  0
  -20.7511  -24.3981   24.9061 C   0  0  0  0  0  0  0  0  0  0  0  0
  -20.2781  -28.5428   22.0752 C   0  0  0  0  0  0  0  0  0  0  0  0
  -22.0479  -22.6925   23.5438 C   0  0  0  0  0  0  0  0  0  1  0  0
  -28.8292  -18.1741   20.0323 C   0  0  1  0  0  0  0  0  0  0  0  0
  -30.1663  -20.8686   17.7256 C   0  0  2  0  0  0  0  0  0  0  0  0
  -19.9948  -27.0360   22.2260 C   0  0  2  0  0  0  0  0  0  0  0  0
  -29.7889  -17.1432   20.6909 C   0  0  0  0  0  0  0  0  0  0  0  0
  -17.9534  -27.8665   23.1765 C   0  0  0  0  0  0  0  0  0  0  0  0
  -16.5923  -27.3658   23.6648 C   0  0  0  0  0  0  0  0  0  0  0  0
  -17.7863  -29.1391   22.3435 C   0  0  0  0  0  0  0  0  0  0  0  0
  -18.8837  -28.1253   24.3648 C   0  0  0  0  0  0  0  0  0  0  0  0
  -26.9901  -27.7814   21.9960 N   0  0  0  0  0  0  0  0  0  0  0  0
  -26.4986  -28.1402   20.7978 N   0  0  0  0  0  0  0  0  0  0  0  0
  -26.3649  -17.9511   19.9918 N   0  0  0  0  0  0  0  0  0  0  0  0
  -23.5444  -30.3165   21.8678 N   0  0  0  0  0  0  0  0  0  0  0  0
  -26.6476  -27.6772   18.4796 N   0  0  0  0  0  0  0  0  0  0  0  0
  -29.6125  -24.8033   20.3088 N   0  0  0  0  0  0  0  0  0  0  0  0
  -24.9591  -14.9002   20.2840 N   0  0  0  0  0  0  0  0  0  0  0  0
  -20.2997  -25.1255   23.7522 N   0  0  0  0  0  0  0  0  0  0  0  0
  -29.4285  -18.9374   18.9430 N   0  0  0  0  0  0  0  0  0  0  0  0
  -21.6881  -28.8603   22.0327 N   0  0  0  0  0  0  0  0  0  0  0  0
  -18.5410  -26.8417   22.3328 N   0  0  0  0  0  0  0  0  0  0  0  0
  -29.5670  -22.1818   17.3548 N   0  3  0  0  0  0  0  0  0  0  0  0
  -28.6973  -25.5290   18.3354 O   0  0  0  0  0  0  0  0  0  0  0  0
  -24.6779  -16.5950   21.8560 O   0  0  0  0  0  0  0  0  0  0  0  0
  -27.7074  -16.6767   18.5742 O   0  0  0  0  0  0  0  0  0  0  0  0
  -29.0743  -21.0311   19.8747 O   0  0  0  0  0  0  0  0  0  0  0  0
  -21.2950  -27.1488   24.2752 O   0  0  0  0  0  0  0  0  0  0  0  0
  -21.3698  -31.1202   21.8125 O   0  0  0  0  0  0  0  0  0  0  0  0
  -30.7821  -24.2856   25.7309 O   0  0  0  0  0  0  0  0  0  0  0  0
  -23.3469  -22.1221   23.3899 O   0  0  0  0  0  0  0  0  0  1  0  0
  -31.1952  -18.7911   25.5229 F   0  0  0  0  0  0  0  0  0  0  0  0
  -29.8306  -22.7126   27.7956 F   0  0  0  0  0  0  0  0  0  0  0  0
  -15.7654  -27.0806   22.6334 F   0  0  0  0  0  0  0  0  0  0  0  0
  -16.7118  -26.2426   24.4086 F   0  0  0  0  0  0  0  0  0  0  0  0
  -15.9728  -28.2914   24.4318 F   0  0  0  0  0  0  0  0  0  0  0  0
  -17.2111  -30.1320   23.0593 F   0  0  0  0  0  0  0  0  0  0  0  0
  -17.0055  -28.9205   21.2609 F   0  0  0  0  0  0  0  0  0  0  0  0
  -18.9749  -29.6021   21.8942 F   0  0  0  0  0  0  0  0  0  0  0  0
  -19.0897  -27.0029   25.0905 F   0  0  0  0  0  0  0  0  0  0  0  0
  -18.3764  -29.0591   25.2010 F   0  0  0  0  0  0  0  0  0  0  0  0
  -20.0946  -28.5674   23.9562 F   0  0  0  0  0  0  0  0  0  0  0  0
  1  2  1  0  0  0  0
  1  5  2  0  0  0  0
  2  6  2  0  0  0  0
  3  8  2  0  0  0  0
  3 15  1  0  0  0  0
  4  9  1  0  0  0  0
  4 15  2  0  0  0  0
  5 17  1  0  0  0  0
  6 19  1  0  0  0  0
  7 10  2  0  0  0  0
  7 18  1  0  0  0  0
  8 21  1  0  0  0  0
  9 21  2  0  0  0  0
 10 22  1  0  0  0  0
 11 12  2  0  0  0  0
 11 23  1  0  0  0  0
 12 24  1  0  0  0  0
 13 20  1  0  0  0  0
 13 22  2  0  0  0  0
 14 24  2  0  0  0  0
 14 25  1  0  0  0  0
 15 26  1  0  0  0  0
 16 26  1  0  0  0  0
 16 27  2  0  0  0  0
 16 28  1  0  0  0  0
 17 19  2  0  0  0  0
 17 34  1  0  0  0  0
 18 20  2  0  0  0  0
 18 35  1  0  0  0  0
 19 43  1  0  0  0  0
 20 36  1  0  0  0  0
 21 82  1  0  0  0  0
 22 83  1  0  0  0  0
 23 25  2  0  0  0  0
 23 82  1  0  0  0  0
 24 84  1  0  0  0  0
 25 85  1  0  0  0  0
 26 64  2  0  0  0  0
 27 65  1  0  0  0  0
 27 68  1  0  0  0  0
 28 69  1  0  0  0  0
 28 76  2  0  0  0  0
 29 44  1  0  0  0  0
 29 70  1  0  0  0  0
 29 77  2  0  0  0  0
 30 56  1  0  0  0  0
 30 66  1  0  0  0  0
 30 78  2  0  0  0  0
 31 57  1  0  0  0  0
 31 72  1  0  0  0  0
 31 79  2  0  0  0  0
 32 58  1  0  0  0  0
 32 71  1  0  0  0  0
 32 80  2  0  0  0  0
 33 67  1  0  0  0  0
 33 73  1  0  0  0  0
 33 81  2  0  0  0  0
 34 37  1  0  0  0  0
 35 44  1  0  0  0  0
 36 66  1  0  0  0  0
 37 39  1  0  0  0  0
 38 40  1  0  0  0  0
 38 41  1  0  0  0  0
 39 43  1  0  0  0  0
 40 45  1  0  0  0  0
 41 67  1  0  0  0  0
 42 45  1  0  0  0  0
 42 67  1  0  0  0  0
 43 70  1  0  0  0  0
 44 66  1  0  0  0  0
 45 65  1  0  0  0  0
 46 57  1  0  0  0  0
 47 58  1  0  0  0  0
 48 59  1  0  0  0  0
 49 59  1  0  0  0  0
 50 59  1  0  0  0  0
 51 75  1  0  0  0  0
 52 53  1  0  0  0  0
 52 55  1  0  0  0  0
 53 71  1  0  0  0  0
 54 58  1  0  0  0  0
 54 73  1  0  0  0  0
 55 83  1  0  0  0  0
 56 59  1  0  0  0  0
 56 72  1  0  0  0  0
 57 75  1  0  0  0  0
 58 74  1  0  0  0  0
 60 61  1  0  0  0  0
 60 62  1  0  0  0  0
 60 63  1  0  0  0  0
 60 74  1  0  0  0  0
 61 86  1  0  0  0  0
 61 87  1  0  0  0  0
 61 88  1  0  0  0  0
 62 89  1  0  0  0  0
 62 90  1  0  0  0  0
 62 91  1  0  0  0  0
 63 92  1  0  0  0  0
 63 93  1  0  0  0  0
 63 94  1  0  0  0  0
 64 65  1  0  0  0  0
M  CHG  1  75   1
M  ISO  4  33 100  55 101  73 100  83 101
M  END
> <Batch ID>
0016

> <Smiles>
CNC(C)C(=O)NC(C(=O)N1Cc2cc([101O:1][101CH2:1]CCNC(=O)C(C)(C[100NH:0][100C:0](=O)N3CCCC(n4nc(-c5ccc(Oc6ccc(F)cc6F)cc5)c(C(N)=O)c4N)C3)NC(C(F)(F)F)(C(F)(F)F)C(F)(F)F)ccc2CC1C(=O)NC1CCCc2ccccc21)C(C)(C)C

> <Shape>
0.253

> <Color>
0.073

> <Negative vol penalty>
0.000

$$$$

  -OEChem-04052315583D

 86 94  0     1  0  0  0  0  0999 V2000
  -29.7111  -32.4755   23.5621 C   0  0  0  0  0  0  0  0  0  0  0  0
  -30.3423  -31.2858   23.2135 C   0  0  0  0  0  0  0  0  0  0  0  0
  -23.0041   -9.8892   19.9802 C   0  0  0  0  0  0  0  0  0  0  0  0
  -23.7262   -9.9440   22.2851 C   0  0  0  0  0  0  0  0  0  0  0  0
  -29.3450  -32.7068   24.8873 C   0  0  0  0  0  0  0  0  0  0  0  0
  -30.6087  -30.3270   24.1903 C   0  0  0  0  0  0  0  0  0  0  0  0
  -29.4255  -25.6389   22.6847 C   0  0  0  0  0  0  0  0  0  0  0  0
  -22.2389   -8.7540   20.2469 C   0  0  0  0  0  0  0  0  0  0  0  0
  -22.9609   -8.8088   22.5518 C   0  0  0  0  0  0  0  0  0  0  0  0
  -30.3194  -25.0014   21.8254 C   0  0  0  0  0  0  0  0  0  0  0  0
  -23.2106   -5.4696   22.0843 C   0  0  0  0  0  0  0  0  0  0  0  0
  -23.7986   -4.4542   22.8384 C   0  0  0  0  0  0  0  0  0  0  0  0
  -31.2293  -23.7742   23.6923 C   0  0  0  0  0  0  0  0  0  0  0  0
  -30.6485  -19.8135   21.3676 C   0  0  0  0  0  0  0  0  0  0  0  0
  -22.0722   -4.6967   24.5111 C   0  0  0  0  0  0  0  0  0  0  0  0
  -23.7478  -10.4843   20.9993 C   0  0  0  0  0  0  0  0  0  0  0  0
  -24.1298  -13.0002   20.8207 C   0  0  0  0  0  0  0  0  0  0  0  0
  -29.5984  -31.7462   25.8792 C   0  0  0  0  0  0  0  0  0  0  0  0
  -29.4341  -25.3564   24.0582 C   0  0  0  0  0  0  0  0  0  0  0  0
  -30.2469  -30.5461   25.5303 C   0  0  0  0  0  0  0  0  0  0  0  0
  -30.3328  -24.4076   24.5664 C   0  0  0  0  0  0  0  0  0  0  0  0
  -30.2684  -19.2000   22.5612 C   0  0  0  0  0  0  0  0  0  0  0  0
  -30.0751  -17.8193   22.6050 C   0  0  0  0  0  0  0  0  0  0  0  0
  -30.8352  -19.0463   20.2177 C   0  0  0  0  0  0  0  0  0  0  0  0
  -30.2618  -17.0521   21.4551 C   0  0  0  0  0  0  0  0  0  0  0  0
  -22.2172   -8.2138   21.5327 C   0  0  0  0  0  0  0  0  0  0  0  0
  -31.2234  -24.0711   22.3296 C   0  0  0  0  0  0  0  0  0  0  0  0
  -22.0534   -6.0987   22.5436 C   0  0  0  0  0  0  0  0  0  0  0  0
  -23.2294   -4.0677   24.0518 C   0  0  0  0  0  0  0  0  0  0  0  0
  -21.4842   -5.7122   23.7569 C   0  0  0  0  0  0  0  0  0  0  0  0
  -30.6418  -17.6656   20.2615 C   0  0  0  0  0  0  0  0  0  0  0  0
  -24.5390  -11.6567   20.7243 C   0  0  0  0  0  0  0  0  0  0  0  0
  -25.2390  -13.7239   20.4569 C   0  0  0  0  0  0  0  0  0  0  0  0
  -22.8605  -13.5452   21.2049 C   0  0  0  0  0  0  0  0  0  0  0  0
  -29.9770  -27.0493   26.6931 C   0  0  0  0  0  0  0  0  0  0  0  0
  -29.0616  -24.3114   28.1724 C   0  0  0  0  0  0  0  0  0  0  0  0
  -28.7073  -20.9201   28.0296 C   0  0  0  0  0  0  0  0  0  0  0  0
  -30.7167  -14.6932   20.6969 C   0  0  0  0  0  0  0  0  0  0  0  0
  -29.2267  -32.0611   27.3066 C   0  0  0  0  0  0  0  0  0  0  0  0
  -28.4454  -26.0328   24.9677 C   0  0  0  0  0  0  0  0  0  0  0  0
  -30.3689  -24.0538   26.0300 C   0  0  0  0  0  0  0  0  0  0  0  0
  -29.2076  -30.8350   28.2157 C   0  0  0  0  0  0  0  0  0  0  0  0
  -29.6051  -12.2359   18.3725 C   0  0  0  0  0  0  0  0  0  0  0  0
  -30.4587  -29.9898   27.9984 C   0  0  0  0  0  0  0  0  0  0  0  0
  -28.1543  -11.9766   18.7851 C   0  0  0  0  0  0  0  0  0  0  0  0
  -30.5036  -12.4820   19.5832 C   0  0  0  0  0  0  0  0  0  0  0  0
  -28.5854  -13.2698   20.9132 C   0  0  0  0  0  0  0  0  0  0  0  0
  -30.5306  -29.4712   26.5570 C   0  0  1  0  0  0  0  0  0  0  0  0
  -28.8891  -26.0475   26.4273 C   0  0  1  0  0  0  0  0  0  0  0  0
  -27.6296  -13.0806   19.7240 C   0  0  2  0  0  0  0  0  0  0  0  0
  -30.0750  -20.0444   23.7779 C   0  0  0  0  0  0  0  0  0  0  0  0
  -29.6677  -17.1658   23.8885 C   0  0  0  0  0  0  0  0  0  0  0  0
  -27.9684  -18.9569   29.4070 C   0  0  0  0  0  0  0  0  0  0  0  0
  -31.6712  -24.4381   29.7484 C   0  0  0  0  0  0  0  0  0  0  0  0
  -31.3303  -22.0374   30.3716 C   0  0  0  0  0  0  0  0  0  0  0  0
  -29.6737  -23.7582   31.0909 C   0  0  0  0  0  0  0  0  0  0  0  0
  -31.4132  -18.8628   17.8110 C   0  0  0  0  0  0  0  0  0  0  0  0
  -26.5561  -20.2384   26.1147 C   0  0  0  0  0  0  0  0  0  0  0  0
  -32.7990  -21.4859   19.4379 C   0  0  0  0  0  0  0  0  0  0  0  0
  -33.0610  -22.9885   19.3268 C   0  0  0  0  0  0  0  0  0  0  0  0
  -31.4108  -21.0938   18.9384 C   0  0  0  0  0  0  0  0  0  0  0  0
  -32.0332  -23.7952   20.1106 C   0  0  0  0  0  0  0  0  0  1  0  0
  -29.7707  -23.0710   28.6598 C   0  0  1  0  0  0  0  0  0  0  0  0
  -27.5472  -20.0122   28.3962 C   0  0  2  0  0  0  0  0  0  0  0  0
  -30.6124  -23.3340   29.9404 C   0  0  0  0  0  0  0  0  0  0  0  0
  -25.8090  -11.5315   20.3299 N   0  0  0  0  0  0  0  0  0  0  0  0
  -26.2073  -12.8057   20.1753 N   0  0  0  0  0  0  0  0  0  0  0  0
  -29.3866  -24.7468   26.8799 N   0  0  0  0  0  0  0  0  0  0  0  0
  -29.9460  -13.5432   20.4245 N   0  0  0  0  0  0  0  0  0  0  0  0
  -25.4707  -15.0498   20.3535 N   0  0  0  0  0  0  0  0  0  0  0  0
  -21.8295  -12.6600   21.5482 N   0  0  0  0  0  0  0  0  0  0  0  0
  -30.0701  -15.6484   21.4805 N   0  0  0  0  0  0  0  0  0  0  0  0
  -29.6332  -28.3501   26.3779 N   0  0  0  0  0  0  0  0  0  0  0  0
  -28.7419  -22.0491   28.8204 N   0  0  0  0  0  0  0  0  0  0  0  0
  -31.2167  -19.6657   19.0192 N   0  0  3  0  0  0  0  0  0  0  0  0
  -27.0277  -19.3200   27.1830 N   0  3  0  0  0  0  0  0  0  0  0  0
  -22.6420  -14.7803   21.2269 O   0  0  0  0  0  0  0  0  0  0  0  0
  -31.0483  -26.6704   27.1518 O   0  0  0  0  0  0  0  0  0  0  0  0
  -28.2440  -24.8692   28.9086 O   0  0  0  0  0  0  0  0  0  0  0  0
  -29.5053  -20.6526   27.1339 O   0  0  0  0  0  0  0  0  0  0  0  0
  -31.8558  -14.8332   20.2442 O   0  0  0  0  0  0  0  0  0  0  0  0
  -21.4704   -7.1061   21.7933 O   0  0  0  0  0  0  0  0  0  0  0  0
  -32.0975  -23.4479   21.4932 O   0  0  0  0  0  0  0  0  0  1  0  0
  -23.7933   -3.0915   24.7751 F   0  0  0  0  0  0  0  0  0  0  0  0
  -20.3719   -6.3120   24.2028 F   0  0  0  0  0  0  0  0  0  0  0  0
  -30.8213  -16.9288   19.1544 F   0  0  0  0  0  0  0  0  0  0  0  0
  1  2  1  0  0  0  0
  1  5  2  0  0  0  0
  2  6  2  0  0  0  0
  3  8  2  0  0  0  0
  3 16  1  0  0  0  0
  4  9  1  0  0  0  0
  4 16  2  0  0  0  0
  5 18  1  0  0  0  0
  6 20  1  0  0  0  0
  7 10  2  0  0  0  0
  7 19  1  0  0  0  0
  8 26  1  0  0  0  0
  9 26  2  0  0  0  0
 10 27  1  0  0  0  0
 11 12  2  0  0  0  0
 11 28  1  0  0  0  0
 12 29  1  0  0  0  0
 13 21  1  0  0  0  0
 13 27  2  0  0  0  0
 14 22  2  0  0  0  0
 14 24  1  0  0  0  0
 15 29  2  0  0  0  0
 15 30  1  0  0  0  0
 16 32  1  0  0  0  0
 17 32  1  0  0  0  0
 17 33  2  0  0  0  0
 17 34  1  0  0  0  0
 18 20  2  0  0  0  0
 18 39  1  0  0  0  0
 19 21  2  0  0  0  0
 19 40  1  0  0  0  0
 20 48  1  0  0  0  0
 21 41  1  0  0  0  0
 22 23  1  0  0  0  0
 22 51  1  0  0  0  0
 23 25  2  0  0  0  0
 23 52  1  0  0  0  0
 24 31  2  0  0  0  0
 24 75  1  0  0  0  0
 25 31  1  0  0  0  0
 25 72  1  0  0  0  0
 26 82  1  0  0  0  0
 27 83  1  0  0  0  0
 28 30  2  0  0  0  0
 28 82  1  0  0  0  0
 29 84  1  0  0  0  0
 30 85  1  0  0  0  0
 31 86  1  0  0  0  0
 32 66  2  0  0  0  0
 33 67  1  0  0  0  0
 33 70  1  0  0  0  0
 34 71  1  0  0  0  0
 34 77  2  0  0  0  0
 35 49  1  0  0  0  0
 35 73  1  0  0  0  0
 35 78  2  0  0  0  0
 36 63  1  0  0  0  0
 36 68  1  0  0  0  0
 36 79  2  0  0  0  0
 37 64  1  0  0  0  0
 37 74  1  0  0  0  0
 37 80  2  0  0  0  0
 38 69  1  0  0  0  0
 38 72  1  0  0  0  0
 38 81  2  0  0  0  0
 39 42  1  0  0  0  0
 40 49  1  0  0  0  0
 41 68  1  0  0  0  0
 42 44  1  0  0  0  0
 43 45  1  0  0  0  0
 43 46  1  0  0  0  0
 44 48  1  0  0  0  0
 45 50  1  0  0  0  0
 46 69  1  0  0  0  0
 47 50  1  0  0  0  0
 47 69  1  0  0  0  0
 48 73  1  0  0  0  0
 49 68  1  0  0  0  0
 50 67  1  0  0  0  0
 53 64  1  0  0  0  0
 54 65  1  0  0  0  0
 55 65  1  0  0  0  0
 56 65  1  0  0  0  0
 57 75  1  0  0  0  0
 58 76  1  0  0  0  0
 59 60  1  0  0  0  0
 59 61  1  0  0  0  0
 60 62  1  0  0  0  0
 61 75  1  0  0  0  0
 62 83  1  0  0  0  0
 63 65  1  0  0  0  0
 63 74  1  0  0  0  0
 64 76  1  0  0  0  0
 66 67  1  0  0  0  0
M  CHG  1  76   1
M  ISO  4  38 100  62 101  72 100  83 101
M  END
> <Batch ID>
0016

> <Smiles>
CNC(C)C(=O)NC(C(=O)N1Cc2cc([101O:1][101CH2:1]CCCN(C)c3cc(C)c(C)c([100NH:0][100C:0](=O)N4CCCC(n5nc(-c6ccc(Oc7ccc(F)cc7F)cc6)c(C(N)=O)c5N)C4)c3F)ccc2CC1C(=O)NC1CCCc2ccccc21)C(C)(C)C

> <Shape>
0.202

> <Color>
0.206

> <Negative vol penalty>
0.000

$$$$

  -OEChem-04052315583D

 87 95  0     1  0  0  0  0  0999 V2000
  -17.9894  -24.3122   22.9385 C   0  0  0  0  0  0  0  0  0  0  0  0
  -18.8790  -24.0970   21.8907 C   0  0  0  0  0  0  0  0  0  0  0  0
  -25.2888  -13.3227   22.0384 C   0  0  0  0  0  0  0  0  0  0  0  0
  -25.9282  -13.7617   19.7503 C   0  0  0  0  0  0  0  0  0  0  0  0
  -17.8689  -25.5830   23.4992 C   0  0  0  0  0  0  0  0  0  0  0  0
  -19.6477  -25.1528   21.4022 C   0  0  0  0  0  0  0  0  0  0  0  0
  -25.3705  -24.8491   19.2428 C   0  0  0  0  0  0  0  0  0  0  0  0
  -24.3734  -12.3664   21.5991 C   0  0  0  0  0  0  0  0  0  0  0  0
  -25.0128  -12.8054   19.3110 C   0  0  0  0  0  0  0  0  0  0  0  0
  -25.8821  -24.7847   17.9474 C   0  0  0  0  0  0  0  0  0  0  0  0
  -24.4414   -9.1594   20.5297 C   0  0  0  0  0  0  0  0  0  0  0  0
  -24.4033   -7.9398   21.2056 C   0  0  0  0  0  0  0  0  0  0  0  0
  -26.2090  -27.1747   17.9641 C   0  0  0  0  0  0  0  0  0  0  0  0
  -28.9808  -22.9883   19.1257 C   0  0  0  0  0  0  0  0  0  0  0  0
  -22.0889   -8.3298   21.7790 C   0  0  0  0  0  0  0  0  0  0  0  0
  -26.0662  -14.0204   21.1140 C   0  0  0  0  0  0  0  0  0  0  0  0
  -28.3625  -14.8013   21.9047 C   0  0  0  0  0  0  0  0  0  0  0  0
  -18.6436  -26.6528   23.0237 C   0  0  0  0  0  0  0  0  0  0  0  0
  -25.2640  -26.0803   19.9056 C   0  0  0  0  0  0  0  0  0  0  0  0
  -19.5364  -26.4395   21.9562 C   0  0  0  0  0  0  0  0  0  0  0  0
  -25.6982  -27.2517   19.2688 C   0  0  0  0  0  0  0  0  0  0  0  0
  -29.5678  -21.9048   16.6229 C   0  0  0  0  0  0  0  0  0  0  0  0
  -30.1679  -23.0983   17.0244 C   0  0  0  0  0  0  0  0  0  0  0  0
  -28.3806  -21.7949   18.7243 C   0  0  0  0  0  0  0  0  0  0  0  0
  -24.2354  -12.1077   20.2354 C   0  0  0  0  0  0  0  0  0  0  0  0
  -26.2987  -25.9479   17.3068 C   0  0  0  0  0  0  0  0  0  0  0  0
  -23.3032   -9.9642   20.4785 C   0  0  0  0  0  0  0  0  0  0  0  0
  -23.2271   -7.5250   21.8302 C   0  0  0  0  0  0  0  0  0  0  0  0
  -22.1270   -9.5494   21.1031 C   0  0  0  0  0  0  0  0  0  0  0  0
  -29.8744  -23.6401   18.2757 C   0  0  0  0  0  0  0  0  0  0  0  0
  -28.6742  -21.2531   17.4729 C   0  0  0  0  0  0  0  0  0  0  0  0
  -27.0116  -15.0088   21.5672 C   0  0  0  0  0  0  0  0  0  0  0  0
  -28.8199  -16.0437   22.2700 C   0  0  0  0  0  0  0  0  0  0  0  0
  -29.1348  -13.5933   21.8892 C   0  0  0  0  0  0  0  0  0  0  0  0
  -22.8586  -27.7968   21.0766 C   0  0  0  0  0  0  0  0  0  0  0  0
  -25.2559  -29.6738   22.1956 C   0  0  0  0  0  0  0  0  0  0  0  0
  -30.6227  -25.1842   15.6963 C   0  0  0  0  0  0  0  0  0  0  0  0
  -28.4881  -30.7286   21.9005 C   0  0  0  0  0  0  0  0  0  0  0  0
  -27.1011  -21.5965   20.8852 C   0  0  0  0  0  0  0  0  0  0  0  0
  -18.4441  -28.0193   23.6301 C   0  0  0  0  0  0  0  0  0  0  0  0
  -24.7349  -26.1295   21.3127 C   0  0  0  0  0  0  0  0  0  0  0  0
  -25.6238  -28.5958   19.9444 C   0  0  0  0  0  0  0  0  0  0  0  0
  -19.5673  -29.0002   23.3039 C   0  0  0  0  0  0  0  0  0  0  0  0
  -27.3163  -20.1851   24.1469 C   0  0  0  0  0  0  0  0  0  0  0  0
  -19.9075  -28.9472   21.8179 C   0  0  0  0  0  0  0  0  0  0  0  0
  -27.3917  -18.6790   23.8860 C   0  0  0  0  0  0  0  0  0  0  0  0
  -26.3877  -20.8864   23.1572 C   0  0  0  0  0  0  0  0  0  0  0  0
  -26.7529  -19.1186   21.4806 C   0  0  0  0  0  0  0  0  0  0  0  0
  -20.4056  -27.5539   21.4153 C   0  0  1  0  0  0  0  0  0  0  0  0
  -24.1937  -27.5023   21.6999 C   0  0  1  0  0  0  0  0  0  0  0  0
  -27.7269  -18.3785   22.4119 C   0  0  2  0  0  0  0  0  0  0  0  0
  -29.8953  -21.3379   15.2754 C   0  0  0  0  0  0  0  0  0  0  0  0
  -32.5358  -23.8811   16.7072 C   0  0  0  0  0  0  0  0  0  0  0  0
  -30.1510  -32.2965   22.9367 C   0  0  0  0  0  0  0  0  0  0  0  0
  -23.8739  -32.0319   20.8394 C   0  0  0  0  0  0  0  0  0  0  0  0
  -26.0016  -33.3289   21.0824 C   0  0  0  0  0  0  0  0  0  0  0  0
  -24.7926  -32.5276   23.1120 C   0  0  0  0  0  0  0  0  0  0  0  0
  -30.3128  -28.5093   22.6103 C   0  0  0  0  0  0  0  0  0  0  0  0
  -28.6825  -26.3030   14.6083 C   0  0  0  0  0  0  0  0  0  0  0  0
  -27.7681  -26.8695   15.6797 C   0  0  0  0  0  0  0  0  0  1  0  0
  -31.1374  -23.7993   16.0902 C   0  0  1  0  0  0  0  0  0  0  0  0
  -26.0222  -30.8603   21.6627 C   0  0  1  0  0  0  0  0  0  0  0  0
  -29.5957  -30.8808   22.9273 C   0  0  2  0  0  0  0  0  0  0  0  0
  -25.1723  -32.1623   21.6604 C   0  0  0  0  0  0  0  0  0  0  0  0
  -26.6354  -16.2829   21.7060 N   0  0  0  0  0  0  0  0  0  0  0  0
  -27.7566  -16.8871   22.1348 N   0  0  0  0  0  0  0  0  0  0  0  0
  -25.0932  -28.5928   21.3177 N   0  0  0  0  0  0  0  0  0  0  0  0
  -26.7681  -20.5588   21.7814 N   0  0  0  0  0  0  0  0  0  0  0  0
  -30.0240  -16.4862   22.6907 N   0  0  0  0  0  0  0  0  0  0  0  0
  -28.5091  -12.4054   21.4871 N   0  0  0  0  0  0  0  0  0  0  0  0
  -27.4782  -21.1623   19.6148 N   0  0  0  0  0  0  0  0  0  0  0  0
  -21.7804  -27.3699   21.8282 N   0  0  0  0  0  0  0  0  0  0  0  0
  -29.3829  -25.1327   15.0669 N   0  0  0  0  0  0  0  0  0  0  0  0
  -27.2444  -30.9460   22.4548 N   0  0  0  0  0  0  0  0  0  0  0  0
  -30.7122  -29.9401   22.6282 N   0  3  0  0  0  0  0  0  0  0  0  0
  -30.3394  -13.5652   22.2377 O   0  0  0  0  0  0  0  0  0  0  0  0
  -22.8102  -28.3702   19.9947 O   0  0  0  0  0  0  0  0  0  0  0  0
  -24.8239  -29.7022   23.3507 O   0  0  0  0  0  0  0  0  0  0  0  0
  -31.2484  -26.2166   15.9275 O   0  0  0  0  0  0  0  0  0  0  0  0
  -28.7048  -30.4487   20.7235 O   0  0  0  0  0  0  0  0  0  0  0  0
  -27.0813  -22.7814   21.2281 O   0  0  0  0  0  0  0  0  0  0  0  0
  -23.3424  -11.1744   19.8064 O   0  0  0  0  0  0  0  0  0  0  0  0
  -26.7978  -25.8879   16.0423 O   0  0  0  0  0  0  0  0  0  1  0  0
  -23.1903   -6.3532   22.4779 F   0  0  0  0  0  0  0  0  0  0  0  0
  -21.0301  -10.3178   21.0563 F   0  0  0  0  0  0  0  0  0  0  0  0
  -30.5914  -25.1178   18.8081 Cl  0  0  0  0  0  0  0  0  0  0  0  0
  -27.9286  -19.7693   16.9719 Cl  0  0  0  0  0  0  0  0  0  0  0  0
  1  2  1  0  0  0  0
  1  5  2  0  0  0  0
  2  6  2  0  0  0  0
  3  8  2  0  0  0  0
  3 16  1  0  0  0  0
  4  9  1  0  0  0  0
  4 16  2  0  0  0  0
  5 18  1  0  0  0  0
  6 20  1  0  0  0  0
  7 10  2  0  0  0  0
  7 19  1  0  0  0  0
  8 25  1  0  0  0  0
  9 25  2  0  0  0  0
 10 26  1  0  0  0  0
 11 12  2  0  0  0  0
 11 27  1  0  0  0  0
 12 28  1  0  0  0  0
 13 21  1  0  0  0  0
 13 26  2  0  0  0  0
 14 24  1  0  0  0  0
 14 30  2  0  0  0  0
 15 28  2  0  0  0  0
 15 29  1  0  0  0  0
 16 32  1  0  0  0  0
 17 32  1  0  0  0  0
 17 33  2  0  0  0  0
 17 34  1  0  0  0  0
 18 20  2  0  0  0  0
 18 40  1  0  0  0  0
 19 21  2  0  0  0  0
 19 41  1  0  0  0  0
 20 49  1  0  0  0  0
 21 42  1  0  0  0  0
 22 23  2  0  0  0  0
 22 31  1  0  0  0  0
 22 52  1  0  0  0  0
 23 30  1  0  0  0  0
 23 61  1  0  0  0  0
 24 31  2  0  0  0  0
 24 71  1  0  0  0  0
 25 82  1  0  0  0  0
 26 83  1  0  0  0  0
 27 29  2  0  0  0  0
 27 82  1  0  0  0  0
 28 84  1  0  0  0  0
 29 85  1  0  0  0  0
 30 86  1  0  0  0  0
 31 87  1  0  0  0  0
 32 65  2  0  0  0  0
 33 66  1  0  0  0  0
 33 69  1  0  0  0  0
 34 70  1  0  0  0  0
 34 76  2  0  0  0  0
 35 50  1  0  0  0  0
 35 72  1  0  0  0  0
 35 77  2  0  0  0  0
 36 62  1  0  0  0  0
 36 67  1  0  0  0  0
 36 78  2  0  0  0  0
 37 61  1  0  0  0  0
 37 73  1  0  0  0  0
 37 79  2  0  0  0  0
 38 63  1  0  0  0  0
 38 74  1  0  0  0  0
 38 80  2  0  0  0  0
 39 68  1  0  0  0  0
 39 71  1  0  0  0  0
 39 81  2  0  0  0  0
 40 43  1  0  0  0  0
 41 50  1  0  0  0  0
 42 67  1  0  0  0  0
 43 45  1  0  0  0  0
 44 46  1  0  0  0  0
 44 47  1  0  0  0  0
 45 49  1  0  0  0  0
 46 51  1  0  0  0  0
 47 68  1  0  0  0  0
 48 51  1  0  0  0  0
 48 68  1  0  0  0  0
 49 72  1  0  0  0  0
 50 67  1  0  0  0  0
 51 66  1  0  0  0  0
 53 61  1  0  0  0  0
 54 63  1  0  0  0  0
 55 64  1  0  0  0  0
 56 64  1  0  0  0  0
 57 64  1  0  0  0  0
 58 75  1  0  0  0  0
 59 60  1  0  0  0  0
 59 73  1  0  0  0  0
 60 83  1  0  0  0  0
 62 64  1  0  0  0  0
 62 74  1  0  0  0  0
 63 75  1  0  0  0  0
 65 66  1  0  0  0  0
M  CHG  1  75   1
M  ISO  4  39 100  60 101  71 100  83 101
M  END
> <Batch ID>
0016

> <Smiles>
CNC(C)C(=O)NC(C(=O)N1Cc2cc([101O:1][101CH2:1]CNC(=O)C(C)c3c(Cl)cc([100NH:0][100C:0](=O)N4CCCC(n5nc(-c6ccc(Oc7ccc(F)cc7F)cc6)c(C(N)=O)c5N)C4)c(Cl)c3C)ccc2CC1C(=O)NC1CCCc2ccccc21)C(C)(C)C

> <Shape>
0.259

> <Color>
0.052

> <Negative vol penalty>
0.000

$$$$

  -OEChem-04052315583D

 80 88  0     1  0  0  0  0  0999 V2000
  -34.8478  -31.3448   22.4140 C   0  0  0  0  0  0  0  0  0  0  0  0
  -35.0190  -30.0332   22.8451 C   0  0  0  0  0  0  0  0  0  0  0  0
  -23.0134   -9.9995   19.9099 C   0  0  0  0  0  0  0  0  0  0  0  0
  -23.8302   -9.8624   22.1794 C   0  0  0  0  0  0  0  0  0  0  0  0
  -33.5636  -31.8500   22.2152 C   0  0  0  0  0  0  0  0  0  0  0  0
  -33.9059  -29.2264   23.0789 C   0  0  0  0  0  0  0  0  0  0  0  0
  -33.4628  -23.1950   22.1136 C   0  0  0  0  0  0  0  0  0  0  0  0
  -22.2583   -8.8442   20.1118 C   0  0  0  0  0  0  0  0  0  0  0  0
  -23.0752   -8.7071   22.3814 C   0  0  0  0  0  0  0  0  0  0  0  0
  -33.5765  -22.0978   22.9662 C   0  0  0  0  0  0  0  0  0  0  0  0
  -23.3011   -5.4195   21.6255 C   0  0  0  0  0  0  0  0  0  0  0  0
  -23.9184   -4.3457   22.2669 C   0  0  0  0  0  0  0  0  0  0  0  0
  -31.1775  -22.0503   23.2150 C   0  0  0  0  0  0  0  0  0  0  0  0
  -22.2630   -4.4433   24.0239 C   0  0  0  0  0  0  0  0  0  0  0  0
  -23.7994  -10.5086   20.9437 C   0  0  0  0  0  0  0  0  0  0  0  0
  -24.1768  -13.0315   20.9611 C   0  0  0  0  0  0  0  0  0  0  0  0
  -32.4345  -31.0460   22.4373 C   0  0  0  0  0  0  0  0  0  0  0  0
  -32.2043  -23.7358   21.8134 C   0  0  0  0  0  0  0  0  0  0  0  0
  -32.6054  -29.7218   22.8842 C   0  0  0  0  0  0  0  0  0  0  0  0
  -31.0504  -23.1528   22.3563 C   0  0  0  0  0  0  0  0  0  0  0  0
  -22.2892   -8.1980   21.3476 C   0  0  0  0  0  0  0  0  0  0  0  0
  -32.4340  -21.5271   23.5194 C   0  0  0  0  0  0  0  0  0  0  0  0
  -22.1647   -6.0053   22.1834 C   0  0  0  0  0  0  0  0  0  0  0  0
  -23.3994   -3.8575   23.4660 C   0  0  0  0  0  0  0  0  0  0  0  0
  -21.6456   -5.5171   23.3825 C   0  0  0  0  0  0  0  0  0  0  0  0
  -32.1025  -16.6344   22.8605 C   0  0  0  0  0  0  0  0  0  0  0  0
  -24.5800  -11.7017   20.7355 C   0  0  0  0  0  0  0  0  0  0  0  0
  -32.1007  -17.5954   23.8892 C   0  0  0  0  0  0  0  0  0  0  0  0
  -25.2710  -13.7856   20.6138 C   0  0  0  0  0  0  0  0  0  0  0  0
  -30.7759  -16.4626   22.5487 C   0  0  0  0  0  0  0  0  0  0  0  0
  -22.9253  -13.5396   21.4418 C   0  0  0  0  0  0  0  0  0  0  0  0
  -30.8058  -26.5530   22.2732 C   0  0  0  0  0  0  0  0  0  0  0  0
  -28.4421  -25.2332   20.4863 C   0  0  0  0  0  0  0  0  0  0  0  0
  -26.8924  -22.4072   19.3642 C   0  0  0  0  0  0  0  0  0  0  0  0
  -30.7553  -14.7432   20.7077 C   0  0  0  0  0  0  0  0  0  0  0  0
  -31.0652  -31.6511   22.2543 C   0  0  0  0  0  0  0  0  0  0  0  0
  -32.0967  -24.9030   20.8707 C   0  0  0  0  0  0  0  0  0  0  0  0
  -29.6745  -23.6831   22.0495 C   0  0  0  0  0  0  0  0  0  0  0  0
  -29.9482  -30.6144   22.1645 C   0  0  0  0  0  0  0  0  0  0  0  0
  -29.5451  -12.4872   18.2332 C   0  0  0  0  0  0  0  0  0  0  0  0
  -30.0999  -29.5695   23.2654 C   0  0  0  0  0  0  0  0  0  0  0  0
  -28.1123  -12.1911   18.6822 C   0  0  0  0  0  0  0  0  0  0  0  0
  -30.4933  -12.6328   19.4221 C   0  0  0  0  0  0  0  0  0  0  0  0
  -28.6328  -13.3020   20.8917 C   0  0  0  0  0  0  0  0  0  0  0  0
  -31.4234  -28.8079   23.1247 C   0  0  1  0  0  0  0  0  0  0  0  0
  -30.8022  -25.6919   21.0419 C   0  0  1  0  0  0  0  0  0  0  0  0
  -27.6284  -13.2112   19.7313 C   0  0  2  0  0  0  0  0  0  0  0  0
  -24.9646  -21.6476   17.9485 C   0  0  0  0  0  0  0  0  0  0  0  0
  -26.5092  -25.9602   22.7325 C   0  0  0  0  0  0  0  0  0  0  0  0
  -24.8523  -24.3766   21.7249 C   0  0  0  0  0  0  0  0  0  0  0  0
  -25.6272  -26.3608   20.4268 C   0  0  0  0  0  0  0  0  0  0  0  0
  -28.6549  -17.4823   23.4354 C   0  0  0  0  0  0  0  0  0  0  0  0
  -28.6827  -20.9878   17.4830 C   0  0  0  0  0  0  0  0  0  0  0  0
  -33.2846  -18.1746   24.6248 C   0  0  0  0  0  0  0  0  0  0  0  0
  -33.6426  -19.5740   24.1364 C   0  0  0  0  0  0  0  0  0  1  0  0
  -27.2061  -24.4184   20.7823 C   0  0  1  0  0  0  0  0  0  0  0  0
  -26.4469  -21.9866   17.9753 C   0  0  2  0  0  0  0  0  0  0  0  0
  -26.0746  -25.2700   21.4242 C   0  0  0  0  0  0  0  0  0  0  0  0
  -25.8324  -11.6128   20.2799 N   0  0  0  0  0  0  0  0  0  0  0  0
  -30.8706  -18.0056   24.2094 N   0  0  0  0  0  0  0  0  0  0  0  0
  -26.2256  -12.8963   20.2164 N   0  0  0  0  0  0  0  0  0  0  0  0
  -30.0870  -17.2990   23.3771 N   0  0  0  0  0  0  0  0  0  0  0  0
  -29.6219  -24.8296   21.1274 N   0  0  0  0  0  0  0  0  0  0  0  0
  -29.9723  -13.6184   20.3718 N   0  0  0  0  0  0  0  0  0  0  0  0
  -25.4999  -15.1160   20.6125 N   0  0  0  0  0  0  0  0  0  0  0  0
  -21.9082  -12.6265   21.7519 N   0  0  0  0  0  0  0  0  0  0  0  0
  -30.1428  -15.6278   21.5947 N   0  0  0  0  0  0  0  0  0  0  0  0
  -31.3271  -27.8172   22.0741 N   0  0  0  0  0  0  0  0  0  0  0  0
  -26.8313  -23.7750   19.5277 N   0  0  0  0  0  0  0  0  0  0  0  0
  -27.2112  -20.7884   17.5269 N   0  3  0  0  0  0  0  0  0  0  0  0
  -22.7094  -14.7680   21.5763 O   0  0  0  0  0  0  0  0  0  0  0  0
  -30.3667  -26.1043   23.3256 O   0  0  0  0  0  0  0  0  0  0  0  0
  -28.3651  -26.1881   19.7092 O   0  0  0  0  0  0  0  0  0  0  0  0
  -27.2545  -21.6026   20.2198 O   0  0  0  0  0  0  0  0  0  0  0  0
  -31.8748  -14.9231   20.2217 O   0  0  0  0  0  0  0  0  0  0  0  0
  -21.5524   -7.0708   21.5450 O   0  0  0  0  0  0  0  0  0  0  0  0
  -32.5421  -20.4564   24.3524 O   0  0  0  0  0  0  0  0  0  1  0  0
  -23.9915   -2.8253   24.0810 F   0  0  0  0  0  0  0  0  0  0  0  0
  -20.5534   -6.0750   23.9227 F   0  0  0  0  0  0  0  0  0  0  0  0
  -33.4573  -15.8782   22.1815 Cl  0  0  0  0  0  0  0  0  0  0  0  0
  1  2  1  0  0  0  0
  1  5  2  0  0  0  0
  2  6  2  0  0  0  0
  3  8  2  0  0  0  0
  3 15  1  0  0  0  0
  4  9  1  0  0  0  0
  4 15  2  0  0  0  0
  5 17  1  0  0  0  0
  6 19  1  0  0  0  0
  7 10  2  0  0  0  0
  7 18  1  0  0  0  0
  8 21  1  0  0  0  0
  9 21  2  0  0  0  0
 10 22  1  0  0  0  0
 11 12  2  0  0  0  0
 11 23  1  0  0  0  0
 12 24  1  0  0  0  0
 13 20  1  0  0  0  0
 13 22  2  0  0  0  0
 14 24  2  0  0  0  0
 14 25  1  0  0  0  0
 15 27  1  0  0  0  0
 16 27  1  0  0  0  0
 16 29  2  0  0  0  0
 16 31  1  0  0  0  0
 17 19  2  0  0  0  0
 17 36  1  0  0  0  0
 18 20  2  0  0  0  0
 18 37  1  0  0  0  0
 19 45  1  0  0  0  0
 20 38  1  0  0  0  0
 21 76  1  0  0  0  0
 22 77  1  0  0  0  0
 23 25  2  0  0  0  0
 23 76  1  0  0  0  0
 24 78  1  0  0  0  0
 25 79  1  0  0  0  0
 26 28  1  0  0  0  0
 26 30  2  0  0  0  0
 26 80  1  0  0  0  0
 27 59  2  0  0  0  0
 28 54  1  0  0  0  0
 28 60  2  0  0  0  0
 29 61  1  0  0  0  0
 29 65  1  0  0  0  0
 30 62  1  0  0  0  0
 30 67  1  0  0  0  0
 31 66  1  0  0  0  0
 31 71  2  0  0  0  0
 32 46  1  0  0  0  0
 32 68  1  0  0  0  0
 32 72  2  0  0  0  0
 33 56  1  0  0  0  0
 33 63  1  0  0  0  0
 33 73  2  0  0  0  0
 34 57  1  0  0  0  0
 34 69  1  0  0  0  0
 34 74  2  0  0  0  0
 35 64  1  0  0  0  0
 35 67  1  0  0  0  0
 35 75  2  0  0  0  0
 36 39  1  0  0  0  0
 37 46  1  0  0  0  0
 38 63  1  0  0  0  0
 39 41  1  0  0  0  0
 40 42  1  0  0  0  0
 40 43  1  0  0  0  0
 41 45  1  0  0  0  0
 42 47  1  0  0  0  0
 43 64  1  0  0  0  0
 44 47  1  0  0  0  0
 44 64  1  0  0  0  0
 45 68  1  0  0  0  0
 46 63  1  0  0  0  0
 47 61  1  0  0  0  0
 48 57  1  0  0  0  0
 49 58  1  0  0  0  0
 50 58  1  0  0  0  0
 51 58  1  0  0  0  0
 52 62  1  0  0  0  0
 53 70  1  0  0  0  0
 54 55  1  0  0  0  0
 55 77  1  0  0  0  0
 56 58  1  0  0  0  0
 56 69  1  0  0  0  0
 57 70  1  0  0  0  0
 59 61  1  0  0  0  0
 60 62  1  0  0  0  0
M  CHG  1  70   1
M  ISO  4  35 100  55 101  67 100  77 101
M  END
> <Batch ID>
0016

> <Smiles>
CNC(C)C(=O)NC(C(=O)N1Cc2cc([101O:1][101CH2:1]Cc3nn(C)c([100NH:0][100C:0](=O)N4CCCC(n5nc(-c6ccc(Oc7ccc(F)cc7F)cc6)c(C(N)=O)c5N)C4)c3Cl)ccc2CC1C(=O)NC1CCCc2ccccc21)C(C)(C)C

> <Shape>
0.215

> <Color>
0.213

> <Negative vol penalty>
0.000

$$$$

  -OEChem-04052315583D

 86 94  0     1  0  0  0  0  0999 V2000
  -23.9224  -39.8134   23.3839 C   0  0  0  0  0  0  0  0  0  0  0  0
  -24.7858  -38.7496   23.1429 C   0  0  0  0  0  0  0  0  0  0  0  0
  -23.1112   -9.7362   21.5280 C   0  0  0  0  0  0  0  0  0  0  0  0
  -23.7756  -10.7791   23.6035 C   0  0  0  0  0  0  0  0  0  0  0  0
  -22.6967  -39.5871   24.0087 C   0  0  0  0  0  0  0  0  0  0  0  0
  -24.4245  -37.4589   23.5275 C   0  0  0  0  0  0  0  0  0  0  0  0
  -25.7737  -32.2385   20.6235 C   0  0  0  0  0  0  0  0  0  0  0  0
  -22.4012   -8.7700   22.2407 C   0  0  0  0  0  0  0  0  0  0  0  0
  -23.0655   -9.8130   24.3163 C   0  0  0  0  0  0  0  0  0  0  0  0
  -26.7651  -31.2800   20.8290 C   0  0  0  0  0  0  0  0  0  0  0  0
  -23.0843   -5.9428   23.9625 C   0  0  0  0  0  0  0  0  0  0  0  0
  -23.2279   -4.6124   23.5689 C   0  0  0  0  0  0  0  0  0  0  0  0
  -25.2088  -29.9535   22.1086 C   0  0  0  0  0  0  0  0  0  0  0  0
  -20.8553   -4.4859   23.1309 C   0  0  0  0  0  0  0  0  0  0  0  0
  -23.7985  -10.7407   22.2094 C   0  0  0  0  0  0  0  0  0  0  0  0
  -24.0507  -12.9761   21.0065 C   0  0  0  0  0  0  0  0  0  0  0  0
  -22.3160  -38.2915   24.3925 C   0  0  0  0  0  0  0  0  0  0  0  0
  -24.4934  -32.0666   21.1691 C   0  0  0  0  0  0  0  0  0  0  0  0
  -23.1932  -37.2152   24.1593 C   0  0  0  0  0  0  0  0  0  0  0  0
  -24.2022  -30.9100   21.9065 C   0  0  0  0  0  0  0  0  0  0  0  0
  -22.3783   -8.8084   23.6348 C   0  0  0  0  0  0  0  0  0  0  0  0
  -26.4836  -30.1387   21.5741 C   0  0  0  0  0  0  0  0  0  0  0  0
  -21.8262   -6.5448   23.9403 C   0  0  0  0  0  0  0  0  0  0  0  0
  -22.1135   -3.8839   23.1531 C   0  0  0  0  0  0  0  0  0  0  0  0
  -20.7117   -5.8163   23.5245 C   0  0  0  0  0  0  0  0  0  0  0  0
  -29.4054  -18.3658   20.7307 C   0  0  0  0  0  0  0  0  0  0  0  0
  -24.5326  -11.7387   21.4737 C   0  0  0  0  0  0  0  0  0  0  0  0
  -30.2529  -17.3420   20.3594 C   0  0  0  0  0  0  0  0  0  0  0  0
  -29.8983  -19.6426   20.5541 C   0  0  0  0  0  0  0  0  0  0  0  0
  -25.1281  -13.5480   20.3752 C   0  0  0  0  0  0  0  0  0  0  0  0
  -31.8537  -18.8279   19.7296 C   0  0  0  0  0  0  0  0  0  0  0  0
  -22.7457  -13.5567   21.1319 C   0  0  0  0  0  0  0  0  0  0  0  0
  -22.7170  -33.6610   23.2681 C   0  0  0  0  0  0  0  0  0  0  0  0
  -20.4568  -31.4982   22.4102 C   0  0  0  0  0  0  0  0  0  0  0  0
  -19.7311  -28.4197   21.1284 C   0  0  0  0  0  0  0  0  0  0  0  0
  -30.5398  -14.8450   20.1891 C   0  0  0  0  0  0  0  0  0  0  0  0
  -21.0015  -38.1030   25.1075 C   0  0  0  0  0  0  0  0  0  0  0  0
  -23.4273  -33.0970   20.9159 C   0  0  0  0  0  0  0  0  0  0  0  0
  -22.8378  -30.6683   22.4966 C   0  0  0  0  0  0  0  0  0  0  0  0
  -20.5318  -36.6510   25.1461 C   0  0  0  0  0  0  0  0  0  0  0  0
  -29.6142  -11.5876   19.0892 C   0  0  0  0  0  0  0  0  0  0  0  0
  -21.6776  -35.7300   25.5531 C   0  0  0  0  0  0  0  0  0  0  0  0
  -28.1700  -11.4383   19.5731 C   0  0  0  0  0  0  0  0  0  0  0  0
  -30.4701  -12.3630   20.0892 C   0  0  0  0  0  0  0  0  0  0  0  0
  -28.4824  -13.5171   20.9760 C   0  0  0  0  0  0  0  0  0  0  0  0
  -22.8262  -35.7971   24.5394 C   0  0  1  0  0  0  0  0  0  0  0  0
  -22.3073  -33.0649   21.9512 C   0  0  1  0  0  0  0  0  0  0  0  0
  -27.5658  -12.7990   19.9720 C   0  0  2  0  0  0  0  0  0  0  0  0
  -33.2133  -19.0847   19.1735 C   0  0  0  0  0  0  0  0  0  0  0  0
  -17.7949  -26.9188   20.5846 C   0  0  0  0  0  0  0  0  0  0  0  0
  -20.1261  -30.8549   25.3745 C   0  0  0  0  0  0  0  0  0  0  0  0
  -18.9304  -28.7567   24.7143 C   0  0  0  0  0  0  0  0  0  0  0  0
  -17.9846  -30.9786   24.0886 C   0  0  0  0  0  0  0  0  0  0  0  0
  -20.4317  -28.3643   18.2535 C   0  0  0  0  0  0  0  0  0  0  0  0
  -28.7968  -24.4990   21.0604 C   0  0  0  0  0  0  0  0  0  0  0  0
  -27.6849  -25.4318   21.5443 C   0  0  0  0  0  0  0  0  0  0  0  0
  -28.3958  -23.0308   21.2091 C   0  0  0  0  0  0  0  0  0  0  0  0
  -28.1002  -26.9009   21.4223 C   0  0  0  0  0  0  0  0  0  0  0  0
  -29.5189  -22.0998   20.7626 C   0  0  0  0  0  0  0  0  0  0  0  0
  -27.0209  -27.8494   21.9298 C   0  0  0  0  0  0  0  0  0  1  0  0
  -20.0470  -30.1295   22.8979 C   0  0  1  0  0  0  0  0  0  0  0  0
  -18.7482  -27.9804   20.0582 C   0  0  2  0  0  0  0  0  0  0  0  0
  -19.2984  -30.1851   24.2595 C   0  0  0  0  0  0  0  0  0  0  0  0
  -25.8162  -11.5356   21.1655 N   0  0  0  0  0  0  0  0  0  0  0  0
  -31.4882  -17.5377   19.8534 N   0  0  0  0  0  0  0  0  0  0  0  0
  -31.1225  -19.9111   20.0545 N   0  0  0  0  0  0  0  0  0  0  0  0
  -26.1500  -12.6531   20.4977 N   0  0  0  0  0  0  0  0  0  0  0  0
  -21.8309  -31.7079   22.2265 N   0  0  0  0  0  0  0  0  0  0  0  0
  -29.8375  -13.6426   20.4169 N   0  0  0  0  0  0  0  0  0  0  0  0
  -25.2916  -14.7240   19.7328 N   0  0  0  0  0  0  0  0  0  0  0  0
  -21.7554  -12.8341   21.8111 N   0  0  0  0  0  0  0  0  0  0  0  0
  -29.8254  -15.9993   20.5081 N   0  0  0  0  0  0  0  0  0  0  0  0
  -29.1056  -20.7240   20.9042 N   0  0  0  0  0  0  0  0  0  0  0  0
  -22.5047  -35.0234   23.3594 N   0  0  0  0  0  0  0  0  0  0  0  0
  -19.2766  -29.5247   21.8166 N   0  0  0  0  0  0  0  0  0  0  0  0
  -19.4761  -27.4185   18.8855 N   0  3  0  0  0  0  0  0  0  0  0  0
  -22.4616  -14.6758   20.6415 O   0  0  0  0  0  0  0  0  0  0  0  0
  -23.1893  -32.9382   24.1377 O   0  0  0  0  0  0  0  0  0  0  0  0
  -19.5890  -32.3477   22.1932 O   0  0  0  0  0  0  0  0  0  0  0  0
  -20.7939  -27.8384   21.3357 O   0  0  0  0  0  0  0  0  0  0  0  0
  -31.6801  -14.8513   19.7182 O   0  0  0  0  0  0  0  0  0  0  0  0
  -21.6854   -7.8660   24.3306 O   0  0  0  0  0  0  0  0  0  0  0  0
  -27.4496  -29.2019   21.7767 O   0  0  0  0  0  0  0  0  0  1  0  0
  -22.2518   -2.6068   22.7737 F   0  0  0  0  0  0  0  0  0  0  0  0
  -19.5007   -6.3896   23.5000 F   0  0  0  0  0  0  0  0  0  0  0  0
  -27.8318  -18.0686   21.3731 Cl  0  0  0  0  0  0  0  0  0  0  0  0
  1  2  1  0  0  0  0
  1  5  2  0  0  0  0
  2  6  2  0  0  0  0
  3  8  2  0  0  0  0
  3 15  1  0  0  0  0
  4  9  1  0  0  0  0
  4 15  2  0  0  0  0
  5 17  1  0  0  0  0
  6 19  1  0  0  0  0
  7 10  2  0  0  0  0
  7 18  1  0  0  0  0
  8 21  1  0  0  0  0
  9 21  2  0  0  0  0
 10 22  1  0  0  0  0
 11 12  2  0  0  0  0
 11 23  1  0  0  0  0
 12 24  1  0  0  0  0
 13 20  1  0  0  0  0
 13 22  2  0  0  0  0
 14 24  2  0  0  0  0
 14 25  1  0  0  0  0
 15 27  1  0  0  0  0
 16 27  1  0  0  0  0
 16 30  2  0  0  0  0
 16 32  1  0  0  0  0
 17 19  2  0  0  0  0
 17 37  1  0  0  0  0
 18 20  2  0  0  0  0
 18 38  1  0  0  0  0
 19 46  1  0  0  0  0
 20 39  1  0  0  0  0
 21 82  1  0  0  0  0
 22 83  1  0  0  0  0
 23 25  2  0  0  0  0
 23 82  1  0  0  0  0
 24 84  1  0  0  0  0
 25 85  1  0  0  0  0
 26 28  1  0  0  0  0
 26 29  2  0  0  0  0
 26 86  1  0  0  0  0
 27 64  2  0  0  0  0
 28 65  2  0  0  0  0
 28 72  1  0  0  0  0
 29 66  1  0  0  0  0
 29 73  1  0  0  0  0
 30 67  1  0  0  0  0
 30 70  1  0  0  0  0
 31 49  1  0  0  0  0
 31 65  1  0  0  0  0
 31 66  2  0  0  0  0
 32 71  1  0  0  0  0
 32 77  2  0  0  0  0
 33 47  1  0  0  0  0
 33 74  1  0  0  0  0
 33 78  2  0  0  0  0
 34 61  1  0  0  0  0
 34 68  1  0  0  0  0
 34 79  2  0  0  0  0
 35 62  1  0  0  0  0
 35 75  1  0  0  0  0
 35 80  2  0  0  0  0
 36 69  1  0  0  0  0
 36 72  1  0  0  0  0
 36 81  2  0  0  0  0
 37 40  1  0  0  0  0
 38 47  1  0  0  0  0
 39 68  1  0  0  0  0
 40 42  1  0  0  0  0
 41 43  1  0  0  0  0
 41 44  1  0  0  0  0
 42 46  1  0  0  0  0
 43 48  1  0  0  0  0
 44 69  1  0  0  0  0
 45 48  1  0  0  0  0
 45 69  1  0  0  0  0
 46 74  1  0  0  0  0
 47 68  1  0  0  0  0
 48 67  1  0  0  0  0
 50 62  1  0  0  0  0
 51 63  1  0  0  0  0
 52 63  1  0  0  0  0
 53 63  1  0  0  0  0
 54 76  1  0  0  0  0
 55 56  1  0  0  0  0
 55 57  1  0  0  0  0
 56 58  1  0  0  0  0
 57 59  1  0  0  0  0
 58 60  1  0  0  0  0
 59 73  1  0  0  0  0
 60 83  1  0  0  0  0
 61 63  1  0  0  0  0
 61 75  1  0  0  0  0
 62 76  1  0  0  0  0
 64 67  1  0  0  0  0
M  CHG  1  76   1
M  ISO  4  36 100  60 101  72 100  83 101
M  END
> <Batch ID>
0016

> <Smiles>
CNC(C)C(=O)NC(C(=O)N1Cc2cc([101O:1][101CH2:1]CCCCCNc3nc(C)nc([100NH:0][100C:0](=O)N4CCCC(n5nc(-c6ccc(Oc7ccc(F)cc7F)cc6)c(C(N)=O)c5N)C4)c3Cl)ccc2CC1C(=O)NC1CCCc2ccccc21)C(C)(C)C

> <Shape>
0.311

> <Color>
0.159

> <Negative vol penalty>
0.000

$$$$

  -OEChem-04052315583D

 88 96  0     1  0  0  0  0  0999 V2000
  -33.3879  -31.2013   16.6642 C   0  0  0  0  0  0  0  0  0  0  0  0
  -32.5706  -30.2128   17.2029 C   0  0  0  0  0  0  0  0  0  0  0  0
  -23.0393   -9.9480   20.0055 C   0  0  0  0  0  0  0  0  0  0  0  0
  -24.3570   -9.5586   21.9927 C   0  0  0  0  0  0  0  0  0  0  0  0
  -33.5796  -32.3979   17.3535 C   0  0  0  0  0  0  0  0  0  0  0  0
  -31.9453  -30.4199   18.4319 C   0  0  0  0  0  0  0  0  0  0  0  0
  -27.0829  -29.0056   18.4007 C   0  0  0  0  0  0  0  0  0  0  0  0
  -22.5844   -8.6302   20.0489 C   0  0  0  0  0  0  0  0  0  0  0  0
  -23.9020   -8.2408   22.0362 C   0  0  0  0  0  0  0  0  0  0  0  0
  -26.8160  -27.6410   18.5031 C   0  0  0  0  0  0  0  0  0  0  0  0
  -21.1160   -6.6005   23.0202 C   0  0  0  0  0  0  0  0  0  0  0  0
  -20.7061   -6.0984   24.2553 C   0  0  0  0  0  0  0  0  0  0  0  0
  -26.3369  -27.9171   20.8512 C   0  0  0  0  0  0  0  0  0  0  0  0
  -29.0386  -19.7170   23.8351 C   0  0  0  0  0  0  0  0  0  0  0  0
  -22.3950   -4.3765   24.1158 C   0  0  0  0  0  0  0  0  0  0  0  0
  -23.9257  -10.4123   20.9774 C   0  0  0  0  0  0  0  0  0  0  0  0
  -23.8080  -12.8969   21.5434 C   0  0  0  0  0  0  0  0  0  0  0  0
  -32.9487  -32.6237   18.5870 C   0  0  0  0  0  0  0  0  0  0  0  0
  -26.9892  -29.8356   19.5270 C   0  0  0  0  0  0  0  0  0  0  0  0
  -32.1298  -31.6202   19.1391 C   0  0  0  0  0  0  0  0  0  0  0  0
  -26.6006  -29.2923   20.7599 C   0  0  0  0  0  0  0  0  0  0  0  0
  -29.1034  -18.3727   23.4688 C   0  0  0  0  0  0  0  0  0  0  0  0
  -29.0887  -18.0157   22.1205 C   0  0  0  0  0  0  0  0  0  0  0  0
  -28.9443  -20.3474   21.5047 C   0  0  0  0  0  0  0  0  0  0  0  0
  -23.0156   -7.7766   21.0643 C   0  0  0  0  0  0  0  0  0  0  0  0
  -26.4458  -27.0960   19.7291 C   0  0  0  0  0  0  0  0  0  0  0  0
  -22.1654   -5.9905   22.3329 C   0  0  0  0  0  0  0  0  0  0  0  0
  -21.3456   -4.9864   24.8032 C   0  0  0  0  0  0  0  0  0  0  0  0
  -28.9590  -20.7044   22.8530 C   0  0  0  0  0  0  0  0  0  0  0  0
  -22.8049   -4.8785   22.8807 C   0  0  0  0  0  0  0  0  0  0  0  0
  -29.0092  -19.0030   21.1384 C   0  0  0  0  0  0  0  0  0  0  0  0
  -24.3965  -11.7733   20.9327 C   0  0  0  0  0  0  0  0  0  0  0  0
  -24.6309  -13.9428   21.2037 C   0  0  0  0  0  0  0  0  0  0  0  0
  -22.6233  -12.9871   22.3460 C   0  0  0  0  0  0  0  0  0  0  0  0
  -29.0304  -31.6528   21.1504 C   0  0  0  0  0  0  0  0  0  0  0  0
  -26.3552  -32.5482   22.7516 C   0  0  0  0  0  0  0  0  0  0  0  0
  -23.1661  -31.8017   23.7102 C   0  0  0  0  0  0  0  0  0  0  0  0
  -29.7085  -16.1359   20.5621 C   0  0  0  0  0  0  0  0  0  0  0  0
  -33.2238  -33.9141   19.3177 C   0  0  0  0  0  0  0  0  0  0  0  0
  -27.2543  -31.3102   19.3942 C   0  0  0  0  0  0  0  0  0  0  0  0
  -26.4658  -30.1440   21.9947 C   0  0  0  0  0  0  0  0  0  0  0  0
  -32.2267  -34.2053   20.4362 C   0  0  0  0  0  0  0  0  0  0  0  0
  -28.4266  -14.1975   17.8646 C   0  0  0  0  0  0  0  0  0  0  0  0
  -32.0052  -32.9615   21.2911 C   0  0  0  0  0  0  0  0  0  0  0  0
  -27.2154  -13.4864   18.4726 C   0  0  0  0  0  0  0  0  0  0  0  0
  -29.5723  -14.3238   18.8671 C   0  0  0  0  0  0  0  0  0  0  0  0
  -27.9977  -14.2253   20.7593 C   0  0  0  0  0  0  0  0  0  0  0  0
  -31.4146  -31.8175   20.4580 C   0  0  1  0  0  0  0  0  0  0  0  0
  -27.6274  -31.9718   20.7172 C   0  0  1  0  0  0  0  0  0  0  0  0
  -26.7942  -14.1322   19.8072 C   0  0  2  0  0  0  0  0  0  0  0  0
  -21.2467  -32.7117   25.0464 C   0  0  0  0  0  0  0  0  0  0  0  0
  -27.8011  -31.8012   25.3325 C   0  0  0  0  0  0  0  0  0  0  0  0
  -25.5846  -31.8163   26.4966 C   0  0  0  0  0  0  0  0  0  0  0  0
  -26.4613  -33.9091   25.4599 C   0  0  0  0  0  0  0  0  0  0  0  0
  -21.3918  -31.8559   21.3420 C   0  0  0  0  0  0  0  0  0  0  0  0
  -27.8384  -22.5704   18.6865 C   0  0  0  0  0  0  0  0  0  0  0  0
  -27.0696  -23.5293   19.5967 C   0  0  0  0  0  0  0  0  0  0  0  0
  -28.0683  -21.2063   19.3320 C   0  0  0  0  0  0  0  0  0  0  0  0
  -26.8884  -24.8947   18.9455 C   0  0  0  0  0  0  0  0  0  1  0  0
  -25.6209  -32.0463   23.9714 C   0  0  1  0  0  0  0  0  0  0  0  0
  -21.8854  -32.6158   23.6696 C   0  0  2  0  0  0  0  0  0  0  0  0
  -29.1879  -17.3368   24.5425 C   0  0  0  0  0  0  0  0  0  0  0  0
  -26.3713  -32.3766   25.2924 C   0  0  0  0  0  0  0  0  0  0  0  0
  -25.5075  -12.0769   20.2562 N   0  0  0  0  0  0  0  0  0  0  0  0
  -25.6235  -13.4032   20.4397 N   0  0  0  0  0  0  0  0  0  0  0  0
  -26.7418  -31.5790   21.8152 N   0  0  0  0  0  0  0  0  0  0  0  0
  -29.0999  -14.9478   20.1050 N   0  0  0  0  0  0  0  0  0  0  0  0
  -24.5950  -15.2622   21.4869 N   0  0  0  0  0  0  0  0  0  0  0  0
  -21.8961  -11.8158   22.5978 N   0  0  0  0  0  0  0  0  0  0  0  0
  -29.1539  -16.6547   21.7317 N   0  0  0  0  0  0  0  0  0  0  0  0
  -28.8653  -21.3288   20.5294 N   0  0  0  0  0  0  0  0  0  0  0  0
  -29.9996  -32.0292   20.2402 N   0  0  0  0  0  0  0  0  0  0  0  0
  -24.2741  -32.6016   23.8943 N   0  0  0  0  0  0  0  0  0  0  0  0
  -20.9037  -31.9910   22.7386 N   0  3  0  0  0  0  0  0  0  0  0  0
  -22.2126  -14.0769   22.8120 O   0  0  0  0  0  0  0  0  0  0  0  0
  -29.2197  -31.1068   22.2310 O   0  0  0  0  0  0  0  0  0  0  0  0
  -26.5713  -33.7566   22.6305 O   0  0  0  0  0  0  0  0  0  0  0  0
  -23.1816  -30.5783   23.5942 O   0  0  0  0  0  0  0  0  0  0  0  0
  -30.6342  -16.6696   19.9456 O   0  0  0  0  0  0  0  0  0  0  0  0
  -22.5717   -6.4907   21.1071 O   0  0  0  0  0  0  0  0  0  0  0  0
  -26.1854  -25.7643   19.8320 O   0  0  0  0  0  0  0  0  0  1  0  0
  -20.9529   -4.5054   25.9899 F   0  0  0  0  0  0  0  0  0  0  0  0
  -28.8971  -21.9934   23.2164 F   0  0  0  0  0  0  0  0  0  0  0  0
  -23.8144   -4.2890   22.2256 F   0  0  0  0  0  0  0  0  0  0  0  0
  -28.9949  -18.6608   19.8409 F   0  0  0  0  0  0  0  0  0  0  0  0
  -29.1914  -17.8587   25.8036 F   0  0  0  0  0  0  0  0  0  0  0  0
  -28.1515  -16.4491   24.5246 F   0  0  0  0  0  0  0  0  0  0  0  0
  -30.3208  -16.5828   24.4526 F   0  0  0  0  0  0  0  0  0  0  0  0
  1  2  1  0  0  0  0
  1  5  2  0  0  0  0
  2  6  2  0  0  0  0
  3  8  2  0  0  0  0
  3 16  1  0  0  0  0
  4  9  1  0  0  0  0
  4 16  2  0  0  0  0
  5 18  1  0  0  0  0
  6 20  1  0  0  0  0
  7 10  2  0  0  0  0
  7 19  1  0  0  0  0
  8 25  1  0  0  0  0
  9 25  2  0  0  0  0
 10 26  1  0  0  0  0
 11 12  2  0  0  0  0
 11 27  1  0  0  0  0
 12 28  1  0  0  0  0
 13 21  1  0  0  0  0
 13 26  2  0  0  0  0
 14 22  1  0  0  0  0
 14 29  2  0  0  0  0
 15 28  2  0  0  0  0
 15 30  1  0  0  0  0
 16 32  1  0  0  0  0
 17 32  1  0  0  0  0
 17 33  2  0  0  0  0
 17 34  1  0  0  0  0
 18 20  2  0  0  0  0
 18 39  1  0  0  0  0
 19 21  2  0  0  0  0
 19 40  1  0  0  0  0
 20 48  1  0  0  0  0
 21 41  1  0  0  0  0
 22 23  2  0  0  0  0
 22 62  1  0  0  0  0
 23 31  1  0  0  0  0
 23 70  1  0  0  0  0
 24 29  1  0  0  0  0
 24 31  2  0  0  0  0
 24 71  1  0  0  0  0
 25 80  1  0  0  0  0
 26 81  1  0  0  0  0
 27 30  2  0  0  0  0
 27 80  1  0  0  0  0
 28 82  1  0  0  0  0
 29 83  1  0  0  0  0
 30 84  1  0  0  0  0
 31 85  1  0  0  0  0
 32 64  2  0  0  0  0
 33 65  1  0  0  0  0
 33 68  1  0  0  0  0
 34 69  1  0  0  0  0
 34 75  2  0  0  0  0
 35 49  1  0  0  0  0
 35 72  1  0  0  0  0
 35 76  2  0  0  0  0
 36 60  1  0  0  0  0
 36 66  1  0  0  0  0
 36 77  2  0  0  0  0
 37 61  1  0  0  0  0
 37 73  1  0  0  0  0
 37 78  2  0  0  0  0
 38 67  1  0  0  0  0
 38 70  1  0  0  0  0
 38 79  2  0  0  0  0
 39 42  1  0  0  0  0
 40 49  1  0  0  0  0
 41 66  1  0  0  0  0
 42 44  1  0  0  0  0
 43 45  1  0  0  0  0
 43 46  1  0  0  0  0
 44 48  1  0  0  0  0
 45 50  1  0  0  0  0
 46 67  1  0  0  0  0
 47 50  1  0  0  0  0
 47 67  1  0  0  0  0
 48 72  1  0  0  0  0
 49 66  1  0  0  0  0
 50 65  1  0  0  0  0
 51 61  1  0  0  0  0
 52 63  1  0  0  0  0
 53 63  1  0  0  0  0
 54 63  1  0  0  0  0
 55 74  1  0  0  0  0
 56 57  1  0  0  0  0
 56 58  1  0  0  0  0
 57 59  1  0  0  0  0
 58 71  1  0  0  0  0
 59 81  1  0  0  0  0
 60 63  1  0  0  0  0
 60 73  1  0  0  0  0
 61 74  1  0  0  0  0
 62 86  1  0  0  0  0
 62 87  1  0  0  0  0
 62 88  1  0  0  0  0
 64 65  1  0  0  0  0
M  CHG  1  74   1
M  ISO  4  38 100  59 101  70 100  81 101
M  END
> <Batch ID>
0016

> <Smiles>
CNC(C)C(=O)NC(C(=O)N1Cc2cc([101O:1][101CH2:1]CCCNc3c(F)cc(C(F)(F)F)c([100NH:0][100C:0](=O)N4CCCC(n5nc(-c6ccc(Oc7ccc(F)cc7F)cc6)c(C(N)=O)c5N)C4)c3F)ccc2CC1C(=O)NC1CCCc2ccccc21)C(C)(C)C

> <Shape>
0.296

> <Color>
0.115

> <Negative vol penalty>
0.000

$$$$

  -OEChem-04052315583D

 85 93  0     1  0  0  0  0  0999 V2000
  -28.1904  -33.5270   22.6485 C   0  0  0  0  0  0  0  0  0  0  0  0
  -29.0675  -32.5740   23.1564 C   0  0  0  0  0  0  0  0  0  0  0  0
  -23.0757   -9.8692   19.9400 C   0  0  0  0  0  0  0  0  0  0  0  0
  -23.8362   -9.8740   22.2332 C   0  0  0  0  0  0  0  0  0  0  0  0
  -26.8139  -33.3368   22.7623 C   0  0  0  0  0  0  0  0  0  0  0  0
  -28.5684  -31.4306   23.7794 C   0  0  0  0  0  0  0  0  0  0  0  0
  -30.9954  -25.8094   23.6471 C   0  0  0  0  0  0  0  0  0  0  0  0
  -22.3318   -8.7159   20.1891 C   0  0  0  0  0  0  0  0  0  0  0  0
  -23.0922   -8.7207   22.4824 C   0  0  0  0  0  0  0  0  0  0  0  0
  -31.7982  -25.1128   24.5494 C   0  0  0  0  0  0  0  0  0  0  0  0
  -19.8641   -7.9228   23.0850 C   0  0  0  0  0  0  0  0  0  0  0  0
  -19.1075   -7.8819   24.2561 C   0  0  0  0  0  0  0  0  0  0  0  0
  -29.8363  -24.0469   25.4627 C   0  0  0  0  0  0  0  0  0  0  0  0
  -32.0673  -16.5786   22.5253 C   0  0  0  0  0  0  0  0  0  0  0  0
  -20.3488   -5.9436   24.9905 C   0  0  0  0  0  0  0  0  0  0  0  0
  -23.8280  -10.4482   20.9620 C   0  0  0  0  0  0  0  0  0  0  0  0
  -24.1702  -12.9734   20.8442 C   0  0  0  0  0  0  0  0  0  0  0  0
  -26.2977  -32.1859   23.3784 C   0  0  0  0  0  0  0  0  0  0  0  0
  -29.6037  -25.6379   23.6531 C   0  0  0  0  0  0  0  0  0  0  0  0
  -27.1837  -31.2254   23.9027 C   0  0  0  0  0  0  0  0  0  0  0  0
  -29.0184  -24.7406   24.5577 C   0  0  0  0  0  0  0  0  0  0  0  0
  -30.5365  -18.3406   24.0532 C   0  0  0  0  0  0  0  0  0  0  0  0
  -30.6787  -16.5895   22.3947 C   0  0  0  0  0  0  0  0  0  0  0  0
  -31.9252  -18.3296   24.1838 C   0  0  0  0  0  0  0  0  0  0  0  0
  -22.3400   -8.1417   21.4603 C   0  0  0  0  0  0  0  0  0  0  0  0
  -31.2184  -24.2336   25.4593 C   0  0  0  0  0  0  0  0  0  0  0  0
  -20.8631   -6.9740   22.8666 C   0  0  0  0  0  0  0  0  0  0  0  0
  -19.3499   -6.8923   25.2088 C   0  0  0  0  0  0  0  0  0  0  0  0
  -21.1055   -5.9845   23.8193 C   0  0  0  0  0  0  0  0  0  0  0  0
  -32.6906  -17.4486   23.4199 C   0  0  0  0  0  0  0  0  0  0  0  0
  -29.9132  -17.4705   23.1587 C   0  0  0  0  0  0  0  0  0  0  0  0
  -24.5972  -11.6392   20.7052 C   0  0  0  0  0  0  0  0  0  0  0  0
  -25.2623  -13.7231   20.4813 C   0  0  0  0  0  0  0  0  0  0  0  0
  -22.8999  -13.4890   21.2639 C   0  0  0  0  0  0  0  0  0  0  0  0
  -27.1113  -27.5410   24.1722 C   0  0  0  0  0  0  0  0  0  0  0  0
  -25.4201  -24.9227   23.2742 C   0  0  0  0  0  0  0  0  0  0  0  0
  -25.2918  -21.5279   22.9486 C   0  0  0  0  0  0  0  0  0  0  0  0
  -30.7287  -14.7677   20.6555 C   0  0  0  0  0  0  0  0  0  0  0  0
  -24.8026  -32.0468   23.5200 C   0  0  0  0  0  0  0  0  0  0  0  0
  -28.7542  -26.3765   22.6555 C   0  0  0  0  0  0  0  0  0  0  0  0
  -27.5311  -24.5055   24.5914 C   0  0  0  0  0  0  0  0  0  0  0  0
  -24.3523  -30.6286   23.8609 C   0  0  0  0  0  0  0  0  0  0  0  0
  -29.6133  -12.3562   18.2853 C   0  0  0  0  0  0  0  0  0  0  0  0
  -25.2089  -30.0519   24.9836 C   0  0  0  0  0  0  0  0  0  0  0  0
  -28.1737  -12.0644   18.7150 C   0  0  0  0  0  0  0  0  0  0  0  0
  -30.5288  -12.5838   19.4869 C   0  0  0  0  0  0  0  0  0  0  0  0
  -28.6223  -13.3073   20.8694 C   0  0  0  0  0  0  0  0  0  0  0  0
  -26.6807  -29.9602   24.5632 C   0  0  1  0  0  0  0  0  0  0  0  0
  -27.2993  -26.5119   23.0937 C   0  0  1  0  0  0  0  0  0  0  0  0
  -27.6491  -13.1352   19.6916 C   0  0  2  0  0  0  0  0  0  0  0  0
  -29.7273  -19.2933   24.8802 C   0  0  0  0  0  0  0  0  0  0  0  0
  -23.7637  -19.6751   22.2210 C   0  0  0  0  0  0  0  0  0  0  0  0
  -23.8515  -25.1976   25.8769 C   0  0  0  0  0  0  0  0  0  0  0  0
  -23.0390  -22.8516   25.5536 C   0  0  0  0  0  0  0  0  0  0  0  0
  -22.4648  -24.6103   23.8803 C   0  0  0  0  0  0  0  0  0  0  0  0
  -27.1523  -20.6766   20.8102 C   0  0  0  0  0  0  0  0  0  0  0  0
  -33.6619  -21.2034   25.9110 C   0  0  0  0  0  0  0  0  0  0  0  0
  -32.7263  -21.3810   27.1077 C   0  0  0  0  0  0  0  0  0  0  0  0
  -32.9774  -20.5260   24.7266 C   0  0  0  0  0  0  0  0  0  0  0  0
  -31.5381  -22.2698   26.7620 C   0  0  0  0  0  0  0  0  0  1  0  0
  -24.8328  -23.7314   23.9918 C   0  0  1  0  0  0  0  0  0  0  0  0
  -24.8570  -20.6424   21.7948 C   0  0  2  0  0  0  0  0  0  0  0  0
  -23.5749  -24.1034   24.8266 C   0  0  0  0  0  0  0  0  0  0  0  0
  -25.8619  -11.5436   20.2865 N   0  0  0  0  0  0  0  0  0  0  0  0
  -26.2390  -12.8272   20.1592 N   0  0  0  0  0  0  0  0  0  0  0  0
  -26.7424  -25.2559   23.6003 N   0  0  0  0  0  0  0  0  0  0  0  0
  -29.9702  -13.6139   20.3654 N   0  0  0  0  0  0  0  0  0  0  0  0
  -25.4729  -15.0546   20.4094 N   0  0  0  0  0  0  0  0  0  0  0  0
  -21.8879  -12.5797   21.6007 N   0  0  0  0  0  0  0  0  0  0  0  0
  -30.0817  -15.6921   21.4749 N   0  0  0  0  0  0  0  0  0  0  0  0
  -32.5362  -19.1966   25.0758 N   0  0  0  0  0  0  0  0  0  0  0  0
  -26.8889  -28.8195   23.6973 N   0  0  0  0  0  0  0  0  0  0  0  0
  -24.5939  -22.7169   22.9710 N   0  0  0  0  0  0  0  0  0  0  0  0
  -26.0124  -19.8508   21.2854 N   0  3  0  0  0  0  0  0  0  0  0  0
  -22.6638  -14.7196   21.3224 O   0  0  0  0  0  0  0  0  0  0  0  0
  -27.1626  -27.2001   25.3482 O   0  0  0  0  0  0  0  0  0  0  0  0
  -24.7334  -25.5307   22.4493 O   0  0  0  0  0  0  0  0  0  0  0  0
  -26.1608  -21.1963   23.7520 O   0  0  0  0  0  0  0  0  0  0  0  0
  -31.8577  -14.9367   20.1877 O   0  0  0  0  0  0  0  0  0  0  0  0
  -21.6140   -7.0164   21.7038 O   0  0  0  0  0  0  0  0  0  0  0  0
  -31.9996  -23.5530   26.3415 O   0  0  0  0  0  0  0  0  0  1  0  0
  -18.6242   -6.8541   26.3341 F   0  0  0  0  0  0  0  0  0  0  0  0
  -22.0646   -5.0711   23.6156 F   0  0  0  0  0  0  0  0  0  0  0  0
  -34.4135  -17.4000   23.5477 Cl  0  0  0  0  0  0  0  0  0  0  0  0
  -28.1865  -17.4862   22.9956 Cl  0  0  0  0  0  0  0  0  0  0  0  0
  1  2  1  0  0  0  0
  1  5  2  0  0  0  0
  2  6  2  0  0  0  0
  3  8  2  0  0  0  0
  3 16  1  0  0  0  0
  4  9  1  0  0  0  0
  4 16  2  0  0  0  0
  5 18  1  0  0  0  0
  6 20  1  0  0  0  0
  7 10  2  0  0  0  0
  7 19  1  0  0  0  0
  8 25  1  0  0  0  0
  9 25  2  0  0  0  0
 10 26  1  0  0  0  0
 11 12  2  0  0  0  0
 11 27  1  0  0  0  0
 12 28  1  0  0  0  0
 13 21  1  0  0  0  0
 13 26  2  0  0  0  0
 14 23  1  0  0  0  0
 14 30  2  0  0  0  0
 15 28  2  0  0  0  0
 15 29  1  0  0  0  0
 16 32  1  0  0  0  0
 17 32  1  0  0  0  0
 17 33  2  0  0  0  0
 17 34  1  0  0  0  0
 18 20  2  0  0  0  0
 18 39  1  0  0  0  0
 19 21  2  0  0  0  0
 19 40  1  0  0  0  0
 20 48  1  0  0  0  0
 21 41  1  0  0  0  0
 22 24  2  0  0  0  0
 22 31  1  0  0  0  0
 22 51  1  0  0  0  0
 23 31  2  0  0  0  0
 23 70  1  0  0  0  0
 24 30  1  0  0  0  0
 24 71  1  0  0  0  0
 25 80  1  0  0  0  0
 26 81  1  0  0  0  0
 27 29  2  0  0  0  0
 27 80  1  0  0  0  0
 28 82  1  0  0  0  0
 29 83  1  0  0  0  0
 30 84  1  0  0  0  0
 31 85  1  0  0  0  0
 32 64  2  0  0  0  0
 33 65  1  0  0  0  0
 33 68  1  0  0  0  0
 34 69  1  0  0  0  0
 34 75  2  0  0  0  0
 35 49  1  0  0  0  0
 35 72  1  0  0  0  0
 35 76  2  0  0  0  0
 36 61  1  0  0  0  0
 36 66  1  0  0  0  0
 36 77  2  0  0  0  0
 37 62  1  0  0  0  0
 37 73  1  0  0  0  0
 37 78  2  0  0  0  0
 38 67  1  0  0  0  0
 38 70  1  0  0  0  0
 38 79  2  0  0  0  0
 39 42  1  0  0  0  0
 40 49  1  0  0  0  0
 41 66  1  0  0  0  0
 42 44  1  0  0  0  0
 43 45  1  0  0  0  0
 43 46  1  0  0  0  0
 44 48  1  0  0  0  0
 45 50  1  0  0  0  0
 46 67  1  0  0  0  0
 47 50  1  0  0  0  0
 47 67  1  0  0  0  0
 48 72  1  0  0  0  0
 49 66  1  0  0  0  0
 50 65  1  0  0  0  0
 52 62  1  0  0  0  0
 53 63  1  0  0  0  0
 54 63  1  0  0  0  0
 55 63  1  0  0  0  0
 56 74  1  0  0  0  0
 57 58  1  0  0  0  0
 57 59  1  0  0  0  0
 58 60  1  0  0  0  0
 59 71  1  0  0  0  0
 60 81  1  0  0  0  0
 61 63  1  0  0  0  0
 61 73  1  0  0  0  0
 62 74  1  0  0  0  0
 64 65  1  0  0  0  0
M  CHG  1  74   1
M  ISO  4  38 100  60 101  70 100  81 101
M  END
> <Batch ID>
0016

> <Smiles>
CNC(C)C(=O)NC(C(=O)N1Cc2cc([101O:1][101CH2:1]CCCNc3c(Cl)cc([100NH:0][100C:0](=O)N4CCCC(n5nc(-c6ccc(Oc7ccc(F)cc7F)cc6)c(C(N)=O)c5N)C4)c(Cl)c3C)ccc2CC1C(=O)NC1CCCc2ccccc21)C(C)(C)C

> <Shape>
0.227

> <Color>
0.196

> <Negative vol penalty>
0.000

$$$$

  -OEChem-04052315583D

 85 93  0     1  0  0  0  0  0999 V2000
  -24.5021  -19.1297   26.2007 C   0  0  0  0  0  0  0  0  0  0  0  0
  -25.0784  -19.8645   25.1695 C   0  0  0  0  0  0  0  0  0  0  0  0
  -24.3202   -9.5439   21.3509 C   0  0  0  0  0  0  0  0  0  0  0  0
  -24.8976  -10.5614   23.4648 C   0  0  0  0  0  0  0  0  0  0  0  0
  -23.1556  -19.3090   26.5149 C   0  0  0  0  0  0  0  0  0  0  0  0
  -24.3081  -20.7783   24.4511 C   0  0  0  0  0  0  0  0  0  0  0  0
  -26.6927  -25.1876   23.7321 C   0  0  0  0  0  0  0  0  0  0  0  0
  -23.9561   -8.3722   22.0143 C   0  0  0  0  0  0  0  0  0  0  0  0
  -24.5335   -9.3897   24.1282 C   0  0  0  0  0  0  0  0  0  0  0  0
  -27.6635  -25.2308   22.7323 C   0  0  0  0  0  0  0  0  0  0  0  0
  -22.5338   -5.2380   23.1844 C   0  0  0  0  0  0  0  0  0  0  0  0
  -21.3399   -4.6234   22.8071 C   0  0  0  0  0  0  0  0  0  0  0  0
  -26.0752  -26.2701   21.2435 C   0  0  0  0  0  0  0  0  0  0  0  0
  -29.5366  -19.2038   18.9046 C   0  0  0  0  0  0  0  0  0  0  0  0
  -20.1205   -6.6184   23.4155 C   0  0  0  0  0  0  0  0  0  0  0  0
  -24.7910  -10.6385   22.0761 C   0  0  0  0  0  0  0  0  0  0  0  0
  -24.3407  -12.9472   21.0888 C   0  0  0  0  0  0  0  0  0  0  0  0
  -22.3709  -20.2324   25.8063 C   0  0  0  0  0  0  0  0  0  0  0  0
  -25.4006  -25.6762   23.4911 C   0  0  0  0  0  0  0  0  0  0  0  0
  -22.9495  -20.9691   24.7552 C   0  0  0  0  0  0  0  0  0  0  0  0
  -25.0906  -26.2343   22.2427 C   0  0  0  0  0  0  0  0  0  0  0  0
  -27.5674  -20.8041   20.0639 C   0  0  0  0  0  0  0  0  0  0  0  0
  -28.3105  -21.2840   18.9854 C   0  0  0  0  0  0  0  0  0  0  0  0
  -28.7936  -18.7239   19.9831 C   0  0  0  0  0  0  0  0  0  0  0  0
  -24.0628   -8.2951   23.4030 C   0  0  0  0  0  0  0  0  0  0  0  0
  -27.3540  -25.7695   21.4869 C   0  0  0  0  0  0  0  0  0  0  0  0
  -22.5211   -6.5429   23.6773 C   0  0  0  0  0  0  0  0  0  0  0  0
  -20.1333   -5.3135   22.9226 C   0  0  0  0  0  0  0  0  0  0  0  0
  -21.3145   -7.2330   23.7928 C   0  0  0  0  0  0  0  0  0  0  0  0
  -29.2951  -20.4839   18.4058 C   0  0  0  0  0  0  0  0  0  0  0  0
  -27.8089  -19.5240   20.5627 C   0  0  0  0  0  0  0  0  0  0  0  0
  -25.1678  -11.8490   21.3913 C   0  0  0  0  0  0  0  0  0  0  0  0
  -25.1672  -13.8308   20.4387 C   0  0  0  0  0  0  0  0  0  0  0  0
  -22.9496  -13.1506   21.3704 C   0  0  0  0  0  0  0  0  0  0  0  0
  -22.4887  -24.4016   23.4674 C   0  0  0  0  0  0  0  0  0  0  0  0
  -21.5670  -27.4836   23.0499 C   0  0  0  0  0  0  0  0  0  0  0  0
  -22.3660  -30.6288   21.9934 C   0  0  0  0  0  0  0  0  0  0  0  0
  -30.0191  -16.5229   19.9754 C   0  0  0  0  0  0  0  0  0  0  0  0
  -20.9079  -20.3573   26.1511 C   0  0  0  0  0  0  0  0  0  0  0  0
  -24.3725  -25.6466   24.5887 C   0  0  0  0  0  0  0  0  0  0  0  0
  -23.7242  -26.7906   21.9400 C   0  0  0  0  0  0  0  0  0  0  0  0
  -20.2548  -21.6170   25.5881 C   0  0  0  0  0  0  0  0  0  0  0  0
  -29.8553  -13.2320   18.6262 C   0  0  0  0  0  0  0  0  0  0  0  0
  -20.6380  -21.8083   24.1241 C   0  0  0  0  0  0  0  0  0  0  0  0
  -28.5531  -12.6692   19.2004 C   0  0  0  0  0  0  0  0  0  0  0  0
  -30.5786  -14.1263   19.6316 C   0  0  0  0  0  0  0  0  0  0  0  0
  -28.4597  -14.6414   20.7779 C   0  0  0  0  0  0  0  0  0  0  0  0
  -22.1530  -21.9879   23.9692 C   0  0  1  0  0  0  0  0  0  0  0  0
  -22.9399  -25.7033   24.0672 C   0  0  1  0  0  0  0  0  0  0  0  0
  -27.6630  -13.7865   19.7789 C   0  0  2  0  0  0  0  0  0  0  0  0
  -26.5140  -21.6776   20.6734 C   0  0  0  0  0  0  0  0  0  0  0  0
  -21.3941  -32.9287   21.7419 C   0  0  0  0  0  0  0  0  0  0  0  0
  -30.2079  -25.7348   18.2712 C   0  0  0  0  0  0  0  0  0  0  0  0
  -20.0077  -26.5538   20.5975 C   0  0  0  0  0  0  0  0  0  0  0  0
  -19.8624  -28.9449   19.8697 C   0  0  0  0  0  0  0  0  0  0  0  0
  -18.8148  -28.2311   22.0181 C   0  0  0  0  0  0  0  0  0  0  0  0
  -24.3678  -31.8018   23.8308 C   0  0  0  0  0  0  0  0  0  0  0  0
  -28.0430  -22.6630   18.4584 C   0  0  0  0  0  0  0  0  0  0  0  0
  -27.8424  -25.7312   19.1597 C   0  0  0  0  0  0  0  0  0  1  0  0
  -21.3335  -28.3772   21.8558 C   0  0  1  0  0  0  0  0  0  0  0  0
  -22.1782  -31.9878   22.6434 C   0  0  2  0  0  0  0  0  0  0  0  0
  -28.8697  -25.0140   18.2911 C   0  0  2  0  0  0  0  0  0  0  0  0
  -20.0299  -28.0146   21.0900 C   0  0  0  0  0  0  0  0  0  0  0  0
  -26.4234  -12.0170   20.9680 N   0  0  0  0  0  0  0  0  0  0  0  0
  -26.3914  -13.2312   20.3928 N   0  0  0  0  0  0  0  0  0  0  0  0
  -22.7514  -26.7333   23.0436 N   0  0  0  0  0  0  0  0  0  0  0  0
  -29.6749  -15.1637   20.1334 N   0  0  0  0  0  0  0  0  0  0  0  0
  -24.9590  -15.0542   19.9075 N   0  0  0  0  0  0  0  0  0  0  0  0
  -22.2503  -12.1415   22.0464 N   0  0  0  0  0  0  0  0  0  0  0  0
  -29.0679  -17.4189   20.4622 N   0  0  0  0  0  0  0  0  0  0  0  0
  -22.5432  -23.3313   24.3397 N   0  0  0  0  0  0  0  0  0  0  0  0
  -21.3706  -29.7467   22.3574 N   0  0  0  0  0  0  0  0  0  0  0  0
  -23.5008  -32.6097   22.9349 N   0  3  0  0  0  0  0  0  0  0  0  0
  -29.0863  -23.6463   18.8456 N   0  3  0  0  0  0  0  0  0  0  0  0
  -22.3408  -14.1892   21.0182 O   0  0  0  0  0  0  0  0  0  0  0  0
  -22.1172  -24.3709   22.3000 O   0  0  0  0  0  0  0  0  0  0  0  0
  -20.7328  -27.4578   23.9582 O   0  0  0  0  0  0  0  0  0  0  0  0
  -23.3000  -30.3762   21.2356 O   0  0  0  0  0  0  0  0  0  0  0  0
  -31.0670  -16.8670   19.4226 O   0  0  0  0  0  0  0  0  0  0  0  0
  -23.7073   -7.1520   24.0507 O   0  0  0  0  0  0  0  0  0  0  0  0
  -28.2994  -25.8123   20.5091 O   0  0  0  0  0  0  0  0  0  1  0  0
  -18.9870   -4.7237   22.5588 F   0  0  0  0  0  0  0  0  0  0  0  0
  -21.2961   -8.4872   24.2645 F   0  0  0  0  0  0  0  0  0  0  0  0
  -30.2405  -21.0424   17.0732 Cl  0  0  0  0  0  0  0  0  0  0  0  0
  -26.8843  -18.9291   21.9042 Cl  0  0  0  0  0  0  0  0  0  0  0  0
  1  2  1  0  0  0  0
  1  5  2  0  0  0  0
  2  6  2  0  0  0  0
  3  8  2  0  0  0  0
  3 16  1  0  0  0  0
  4  9  1  0  0  0  0
  4 16  2  0  0  0  0
  5 18  1  0  0  0  0
  6 20  1  0  0  0  0
  7 10  2  0  0  0  0
  7 19  1  0  0  0  0
  8 25  1  0  0  0  0
  9 25  2  0  0  0  0
 10 26  1  0  0  0  0
 11 12  2  0  0  0  0
 11 27  1  0  0  0  0
 12 28  1  0  0  0  0
 13 21  1  0  0  0  0
 13 26  2  0  0  0  0
 14 24  1  0  0  0  0
 14 30  2  0  0  0  0
 15 28  2  0  0  0  0
 15 29  1  0  0  0  0
 16 32  1  0  0  0  0
 17 32  1  0  0  0  0
 17 33  2  0  0  0  0
 17 34  1  0  0  0  0
 18 20  2  0  0  0  0
 18 39  1  0  0  0  0
 19 21  2  0  0  0  0
 19 40  1  0  0  0  0
 20 48  1  0  0  0  0
 21 41  1  0  0  0  0
 22 23  2  0  0  0  0
 22 31  1  0  0  0  0
 22 51  1  0  0  0  0
 23 30  1  0  0  0  0
 23 58  1  0  0  0  0
 24 31  2  0  0  0  0
 24 70  1  0  0  0  0
 25 80  1  0  0  0  0
 26 81  1  0  0  0  0
 27 29  2  0  0  0  0
 27 80  1  0  0  0  0
 28 82  1  0  0  0  0
 29 83  1  0  0  0  0
 30 84  1  0  0  0  0
 31 85  1  0  0  0  0
 32 64  2  0  0  0  0
 33 65  1  0  0  0  0
 33 68  1  0  0  0  0
 34 69  1  0  0  0  0
 34 75  2  0  0  0  0
 35 49  1  0  0  0  0
 35 71  1  0  0  0  0
 35 76  2  0  0  0  0
 36 60  1  0  0  0  0
 36 66  1  0  0  0  0
 36 77  2  0  0  0  0
 37 61  1  0  0  0  0
 37 72  1  0  0  0  0
 37 78  2  0  0  0  0
 38 67  1  0  0  0  0
 38 70  1  0  0  0  0
 38 79  2  0  0  0  0
 39 42  1  0  0  0  0
 40 49  1  0  0  0  0
 41 66  1  0  0  0  0
 42 44  1  0  0  0  0
 43 45  1  0  0  0  0
 43 46  1  0  0  0  0
 44 48  1  0  0  0  0
 45 50  1  0  0  0  0
 46 67  1  0  0  0  0
 47 50  1  0  0  0  0
 47 67  1  0  0  0  0
 48 71  1  0  0  0  0
 49 66  1  0  0  0  0
 50 65  1  0  0  0  0
 52 61  1  0  0  0  0
 53 62  1  0  0  0  0
 54 63  1  0  0  0  0
 55 63  1  0  0  0  0
 56 63  1  0  0  0  0
 57 73  1  0  0  0  0
 58 74  1  0  0  0  0
 59 62  1  0  0  0  0
 59 81  1  0  0  0  0
 60 63  1  0  0  0  0
 60 72  1  0  0  0  0
 61 73  1  0  0  0  0
 62 74  1  0  0  0  0
 64 65  1  0  0  0  0
M  CHG  2  73   1  74   1
M  ISO  4  38 100  59 101  70 100  81 101
M  END
> <Batch ID>
0016

> <Smiles>
CNC(C)C(=O)NC(C(=O)N1Cc2cc([101O:1][101CH2:1]C(C)NCc3c(Cl)cc([100NH:0][100C:0](=O)N4CCCC(n5nc(-c6ccc(Oc7ccc(F)cc7F)cc6)c(C(N)=O)c5N)C4)c(Cl)c3C)ccc2CC1C(=O)NC1CCCc2ccccc21)C(C)(C)C

> <Shape>
0.272

> <Color>
0.126

> <Negative vol penalty>
0.000

$$$$

  -OEChem-04052315583D

 86 94  0     1  0  0  0  0  0999 V2000
  -32.2319  -15.7726   19.9742 C   0  0  0  0  0  0  0  0  0  0  0  0
  -31.2489  -16.7471   19.8344 C   0  0  0  0  0  0  0  0  0  0  0  0
  -29.5198  -27.9835   19.9365 C   0  0  0  0  0  0  0  0  0  0  0  0
  -27.7498  -26.6151   19.0245 C   0  0  0  0  0  0  0  0  0  0  0  0
  -31.8717  -14.4288   20.0652 C   0  0  0  0  0  0  0  0  0  0  0  0
  -29.9051  -16.3782   19.7845 C   0  0  0  0  0  0  0  0  0  0  0  0
  -25.1424  -19.5082   22.0263 C   0  0  0  0  0  0  0  0  0  0  0  0
  -30.3860  -26.8910   19.8946 C   0  0  0  0  0  0  0  0  0  0  0  0
  -28.6161  -25.5226   18.9825 C   0  0  0  0  0  0  0  0  0  0  0  0
  -24.2170  -20.3630   21.4291 C   0  0  0  0  0  0  0  0  0  0  0  0
  -29.8663  -23.2498   21.1510 C   0  0  0  0  0  0  0  0  0  0  0  0
  -29.3861  -22.0239   21.6118 C   0  0  0  0  0  0  0  0  0  0  0  0
  -22.6711  -18.5245   21.2067 C   0  0  0  0  0  0  0  0  0  0  0  0
  -18.2403  -26.5798   22.8680 C   0  0  0  0  0  0  0  0  0  0  0  0
  -19.6922  -28.3264   23.6915 C   0  0  0  0  0  0  0  0  0  0  0  0
  -29.7778  -21.0522   19.4347 C   0  0  0  0  0  0  0  0  0  0  0  0
  -28.2016  -27.8455   19.5015 C   0  0  0  0  0  0  0  0  0  0  0  0
  -27.0904  -29.9272   18.5323 C   0  0  0  0  0  0  0  0  0  0  0  0
  -30.5222  -14.0440   20.0260 C   0  0  0  0  0  0  0  0  0  0  0  0
  -24.8428  -18.1504   22.2086 C   0  0  0  0  0  0  0  0  0  0  0  0
  -29.5266  -15.0278   19.8737 C   0  0  0  0  0  0  0  0  0  0  0  0
  -23.5934  -17.6551   21.8088 C   0  0  0  0  0  0  0  0  0  0  0  0
  -18.6217  -27.4536   23.8862 C   0  0  0  0  0  0  0  0  0  0  0  0
  -18.9294  -26.5788   21.6553 C   0  0  0  0  0  0  0  0  0  0  0  0
  -20.3813  -28.3254   22.4787 C   0  0  0  0  0  0  0  0  0  0  0  0
  -29.9342  -25.6606   19.4176 C   0  0  0  0  0  0  0  0  0  0  0  0
  -22.9823  -19.8707   21.0166 C   0  0  0  0  0  0  0  0  0  0  0  0
  -30.3021  -23.3769   19.8321 C   0  0  0  0  0  0  0  0  0  0  0  0
  -29.3419  -20.9252   20.7537 C   0  0  0  0  0  0  0  0  0  0  0  0
  -30.2579  -22.2782   18.9739 C   0  0  0  0  0  0  0  0  0  0  0  0
  -19.9999  -27.4516   21.4606 C   0  0  0  0  0  0  0  0  0  0  0  0
  -27.3062  -28.9735   19.5450 C   0  0  0  0  0  0  0  0  0  0  0  0
  -26.1552  -30.7833   19.0605 C   0  0  0  0  0  0  0  0  0  0  0  0
  -27.6823  -30.0300   17.2305 C   0  0  0  0  0  0  0  0  0  0  0  0
  -26.0847  -15.4189   21.1597 C   0  0  0  0  0  0  0  0  0  0  0  0
  -23.9294  -14.1078   23.1989 C   0  0  0  0  0  0  0  0  0  0  0  0
  -20.9934  -14.4262   24.9092 C   0  0  0  0  0  0  0  0  0  0  0  0
  -21.9425  -30.1459   23.2500 C   0  0  0  0  0  0  0  0  0  0  0  0
  -30.1843  -12.5752   20.0806 C   0  0  0  0  0  0  0  0  0  0  0  0
  -25.8415  -17.2470   22.8786 C   0  0  0  0  0  0  0  0  0  0  0  0
  -23.2152  -16.2098   22.0003 C   0  0  0  0  0  0  0  0  0  0  0  0
  -28.7164  -12.2991   20.3961 C   0  0  0  0  0  0  0  0  0  0  0  0
  -24.6031  -32.5120   23.2481 C   0  0  0  0  0  0  0  0  0  0  0  0
  -27.8118  -13.1846   19.5450 C   0  0  0  0  0  0  0  0  0  0  0  0
  -25.5757  -31.9632   22.2018 C   0  0  0  0  0  0  0  0  0  0  0  0
  -23.9388  -31.3924   24.0475 C   0  0  0  0  0  0  0  0  0  0  0  0
  -24.2620  -29.8042   22.1922 C   0  0  0  0  0  0  0  0  0  0  0  0
  -28.0567  -14.6693   19.8405 C   0  0  1  0  0  0  0  0  0  0  0  0
  -25.6302  -15.7729   22.5474 C   0  0  1  0  0  0  0  0  0  0  0  0
  -24.9071  -30.8920   21.3180 C   0  0  2  0  0  0  0  0  0  0  0  0
  -17.8840  -27.4549   25.1821 C   0  0  0  0  0  0  0  0  0  0  0  0
  -19.4732  -13.1731   26.4634 C   0  0  0  0  0  0  0  0  0  0  0  0
  -19.2105  -24.3258   17.7964 C   0  0  0  0  0  0  0  0  0  0  0  0
  -22.9215  -12.4312   20.8572 C   0  0  0  0  0  0  0  0  0  0  0  0
  -20.8598  -11.9370   22.1890 C   0  0  0  0  0  0  0  0  0  0  0  0
  -23.0904  -11.1984   23.0266 C   0  0  0  0  0  0  0  0  0  0  0  0
  -21.3163  -16.4506   27.0439 C   0  0  0  0  0  0  0  0  0  0  0  0
  -18.4840  -25.6212   20.5896 C   0  0  0  0  0  0  0  0  0  0  0  0
  -19.8704  -21.6770   20.5942 C   0  0  0  0  0  0  0  0  0  0  0  0
  -19.9939  -22.4153   19.2548 C   0  0  0  0  0  0  0  0  0  0  0  0
  -20.6967  -20.3957   20.6213 C   0  0  0  0  0  0  0  0  0  1  0  0
  -22.4936  -13.6544   23.0904 C   0  0  1  0  0  0  0  0  0  0  0  0
  -20.6363  -14.1471   26.3580 C   0  0  2  0  0  0  0  0  0  0  0  0
  -19.1141  -23.6676   19.1665 C   0  0  1  0  0  0  0  0  0  0  0  0
  -22.3489  -12.3321   22.2853 C   0  0  0  0  0  0  0  0  0  0  0  0
  -26.5676  -29.2019   20.6342 N   0  0  0  0  0  0  0  0  0  0  0  0
  -25.8787  -30.3090   20.3090 N   0  0  0  0  0  0  0  0  0  0  0  0
  -24.2279  -15.3649   22.6545 N   0  0  0  0  0  0  0  0  0  0  0  0
  -23.3231  -30.4176   23.1445 N   0  0  0  0  0  0  0  0  0  0  0  0
  -25.5507  -31.8880   18.5741 N   0  0  0  0  0  0  0  0  0  0  0  0
  -28.6255  -29.0667   16.8474 N   0  0  0  0  0  0  0  0  0  0  0  0
  -21.4630  -29.2264   22.3177 N   0  0  0  0  0  0  0  0  0  0  0  0
  -27.4142  -15.0505   21.0800 N   0  0  0  0  0  0  0  0  0  0  0  0
  -21.9843  -13.5815   24.4556 N   0  0  0  0  0  0  0  0  0  0  0  0
  -20.2554  -15.4107   27.0503 N   0  3  0  0  0  0  0  0  0  0  0  0
  -19.5466  -24.6645   20.1854 N   0  3  0  0  0  0  0  0  0  0  0  0
  -27.3958  -30.9583   16.4369 O   0  0  0  0  0  0  0  0  0  0  0  0
  -25.2879  -15.4743   20.2304 O   0  0  0  0  0  0  0  0  0  0  0  0
  -24.7543  -13.3767   23.7527 O   0  0  0  0  0  0  0  0  0  0  0  0
  -20.4454  -15.3033   24.2451 O   0  0  0  0  0  0  0  0  0  0  0  0
  -21.2323  -30.7092   24.0868 O   0  0  0  0  0  0  0  0  0  0  0  0
  -30.7793  -24.5944   19.3763 O   0  0  0  0  0  0  0  0  0  0  0  0
  -22.0775  -20.7028   20.4329 O   0  0  0  0  0  0  0  0  0  1  0  0
  -28.8822  -19.7476   21.1967 F   0  0  0  0  0  0  0  0  0  0  0  0
  -30.6763  -22.3939   17.7061 F   0  0  0  0  0  0  0  0  0  0  0  0
  -20.8526  -27.4449   19.9512 Cl  0  0  0  0  0  0  0  0  0  0  0  0
  1  2  1  0  0  0  0
  1  5  2  0  0  0  0
  2  6  2  0  0  0  0
  3  8  2  0  0  0  0
  3 17  1  0  0  0  0
  4  9  1  0  0  0  0
  4 17  2  0  0  0  0
  5 19  1  0  0  0  0
  6 21  1  0  0  0  0
  7 10  2  0  0  0  0
  7 20  1  0  0  0  0
  8 26  1  0  0  0  0
  9 26  2  0  0  0  0
 10 27  1  0  0  0  0
 11 12  2  0  0  0  0
 11 28  1  0  0  0  0
 12 29  1  0  0  0  0
 13 22  1  0  0  0  0
 13 27  2  0  0  0  0
 14 23  2  0  0  0  0
 14 24  1  0  0  0  0
 15 23  1  0  0  0  0
 15 25  2  0  0  0  0
 16 29  2  0  0  0  0
 16 30  1  0  0  0  0
 17 32  1  0  0  0  0
 18 32  1  0  0  0  0
 18 33  2  0  0  0  0
 18 34  1  0  0  0  0
 19 21  2  0  0  0  0
 19 39  1  0  0  0  0
 20 22  2  0  0  0  0
 20 40  1  0  0  0  0
 21 48  1  0  0  0  0
 22 41  1  0  0  0  0
 23 51  1  0  0  0  0
 24 31  2  0  0  0  0
 24 58  1  0  0  0  0
 25 31  1  0  0  0  0
 25 72  1  0  0  0  0
 26 82  1  0  0  0  0
 27 83  1  0  0  0  0
 28 30  2  0  0  0  0
 28 82  1  0  0  0  0
 29 84  1  0  0  0  0
 30 85  1  0  0  0  0
 31 86  1  0  0  0  0
 32 66  2  0  0  0  0
 33 67  1  0  0  0  0
 33 70  1  0  0  0  0
 34 71  1  0  0  0  0
 34 77  2  0  0  0  0
 35 49  1  0  0  0  0
 35 73  1  0  0  0  0
 35 78  2  0  0  0  0
 36 62  1  0  0  0  0
 36 68  1  0  0  0  0
 36 79  2  0  0  0  0
 37 63  1  0  0  0  0
 37 74  1  0  0  0  0
 37 80  2  0  0  0  0
 38 69  1  0  0  0  0
 38 72  1  0  0  0  0
 38 81  2  0  0  0  0
 39 42  1  0  0  0  0
 40 49  1  0  0  0  0
 41 68  1  0  0  0  0
 42 44  1  0  0  0  0
 43 45  1  0  0  0  0
 43 46  1  0  0  0  0
 44 48  1  0  0  0  0
 45 50  1  0  0  0  0
 46 69  1  0  0  0  0
 47 50  1  0  0  0  0
 47 69  1  0  0  0  0
 48 73  1  0  0  0  0
 49 68  1  0  0  0  0
 50 67  1  0  0  0  0
 52 63  1  0  0  0  0
 53 64  1  0  0  0  0
 54 65  1  0  0  0  0
 55 65  1  0  0  0  0
 56 65  1  0  0  0  0
 57 75  1  0  0  0  0
 58 76  1  0  0  0  0
 59 60  1  0  0  0  0
 59 61  1  0  0  0  0
 60 64  1  0  0  0  0
 61 83  1  0  0  0  0
 62 65  1  0  0  0  0
 62 74  1  0  0  0  0
 63 75  1  0  0  0  0
 64 76  1  0  0  0  0
 66 67  1  0  0  0  0
M  CHG  2  75   1  76   1
M  ISO  4  38 100  61 101  72 100  83 101
M  END
> <Batch ID>
0016

> <Smiles>
CNC(C)C(=O)NC(C(=O)N1Cc2cc([101O:1][101CH2:1]CCC(C)NCc3cc(C)cc([100NH:0][100C:0](=O)N4CCCC(n5nc(-c6ccc(Oc7ccc(F)cc7F)cc6)c(C(N)=O)c5N)C4)c3Cl)ccc2CC1C(=O)NC1CCCc2ccccc21)C(C)(C)C

> <Shape>
0.258

> <Color>
0.075

> <Negative vol penalty>
0.000

$$$$

  -OEChem-04052315583D

 81 89  0     1  0  0  0  0  0999 V2000
  -28.1496  -37.0333   21.2706 C   0  0  0  0  0  0  0  0  0  0  0  0
  -28.5492  -35.7141   21.0823 C   0  0  0  0  0  0  0  0  0  0  0  0
  -26.8721  -12.7094   21.7983 C   0  0  0  0  0  0  0  0  0  0  0  0
  -26.2247  -14.3159   20.1140 C   0  0  0  0  0  0  0  0  0  0  0  0
  -27.0352  -37.3170   22.0589 C   0  0  0  0  0  0  0  0  0  0  0  0
  -27.8352  -34.6779   21.6831 C   0  0  0  0  0  0  0  0  0  0  0  0
  -26.8478  -29.0810   19.4014 C   0  0  0  0  0  0  0  0  0  0  0  0
  -25.5543  -12.2588   21.8751 C   0  0  0  0  0  0  0  0  0  0  0  0
  -24.9068  -13.8653   20.1908 C   0  0  0  0  0  0  0  0  0  0  0  0
  -27.4724  -27.8543   19.6226 C   0  0  0  0  0  0  0  0  0  0  0  0
  -22.4296  -10.4401   22.2541 C   0  0  0  0  0  0  0  0  0  0  0  0
  -22.2157   -9.0619   22.2760 C   0  0  0  0  0  0  0  0  0  0  0  0
  -25.7800  -27.2924   21.2472 C   0  0  0  0  0  0  0  0  0  0  0  0
  -30.3461  -22.6446   21.9249 C   0  0  0  0  0  0  0  0  0  0  0  0
  -23.2894   -8.8611   20.1210 C   0  0  0  0  0  0  0  0  0  0  0  0
  -27.2073  -13.7380   20.9178 C   0  0  0  0  0  0  0  0  0  0  0  0
  -29.5834  -13.7238   19.9897 C   0  0  0  0  0  0  0  0  0  0  0  0
  -26.3014  -36.2832   22.6618 C   0  0  0  0  0  0  0  0  0  0  0  0
  -25.6888  -29.4277   20.1107 C   0  0  0  0  0  0  0  0  0  0  0  0
  -26.7107  -34.9482   22.4813 C   0  0  0  0  0  0  0  0  0  0  0  0
  -25.1412  -28.5230   21.0314 C   0  0  0  0  0  0  0  0  0  0  0  0
  -29.8771  -23.9145   21.5888 C   0  0  0  0  0  0  0  0  0  0  0  0
  -29.2285  -24.1186   20.3708 C   0  0  0  0  0  0  0  0  0  0  0  0
  -29.0490  -23.0528   19.4890 C   0  0  0  0  0  0  0  0  0  0  0  0
  -30.1666  -21.5788   21.0431 C   0  0  0  0  0  0  0  0  0  0  0  0
  -24.5716  -12.8367   21.0713 C   0  0  0  0  0  0  0  0  0  0  0  0
  -26.9402  -26.9610   20.5477 C   0  0  0  0  0  0  0  0  0  0  0  0
  -23.0733  -11.0288   21.1657 C   0  0  0  0  0  0  0  0  0  0  0  0
  -22.6456   -8.2724   21.2095 C   0  0  0  0  0  0  0  0  0  0  0  0
  -23.5033  -10.2393   20.0992 C   0  0  0  0  0  0  0  0  0  0  0  0
  -29.5180  -21.7829   19.8252 C   0  0  0  0  0  0  0  0  0  0  0  0
  -28.5683  -14.2043   20.8385 C   0  0  0  0  0  0  0  0  0  0  0  0
  -30.6804  -14.4905   20.2981 C   0  0  0  0  0  0  0  0  0  0  0  0
  -29.5387  -12.6779   19.0099 C   0  0  0  0  0  0  0  0  0  0  0  0
  -24.9174  -31.7338   22.1577 C   0  0  0  0  0  0  0  0  0  0  0  0
  -21.9500  -30.4533   21.8791 C   0  0  0  0  0  0  0  0  0  0  0  0
  -20.0259  -27.7351   21.1337 C   0  0  0  0  0  0  0  0  0  0  0  0
  -31.3159  -19.9673   22.6015 C   0  0  0  0  0  0  0  0  0  0  0  0
  -25.1318  -36.6420   23.5439 C   0  0  0  0  0  0  0  0  0  0  0  0
  -25.0120  -30.7437   19.8411 C   0  0  0  0  0  0  0  0  0  0  0  0
  -23.8875  -28.8389   21.8038 C   0  0  0  0  0  0  0  0  0  0  0  0
  -24.2078  -35.4634   23.8395 C   0  0  0  0  0  0  0  0  0  0  0  0
  -32.6415  -16.9365   23.9183 C   0  0  0  0  0  0  0  0  0  0  0  0
  -25.0200  -34.2346   24.2357 C   0  0  0  0  0  0  0  0  0  0  0  0
  -31.8440  -15.8481   23.1962 C   0  0  0  0  0  0  0  0  0  0  0  0
  -31.7774  -18.1550   24.2379 C   0  0  0  0  0  0  0  0  0  0  0  0
  -30.2586  -17.6341   22.3694 C   0  0  0  0  0  0  0  0  0  0  0  0
  -25.9473  -33.7952   23.0961 C   0  0  1  0  0  0  0  0  0  0  0  0
  -24.1265  -31.2073   20.9937 C   0  0  1  0  0  0  0  0  0  0  0  0
  -31.1027  -16.4132   21.9687 C   0  0  2  0  0  0  0  0  0  0  0  0
  -30.0829  -25.0391   22.5505 C   0  0  0  0  0  0  0  0  0  0  0  0
  -28.3518  -23.2933   18.1855 C   0  0  0  0  0  0  0  0  0  0  0  0
  -17.6341  -26.9824   21.0338 C   0  0  0  0  0  0  0  0  0  0  0  0
  -21.8924  -30.2406   24.9224 C   0  0  0  0  0  0  0  0  0  0  0  0
  -19.9649  -28.6576   24.7056 C   0  0  0  0  0  0  0  0  0  0  0  0
  -19.7469  -31.0047   23.8892 C   0  0  0  0  0  0  0  0  0  0  0  0
  -20.2023  -27.1740   18.2332 C   0  0  0  0  0  0  0  0  0  0  0  0
  -28.7280  -25.4869   20.0123 C   0  0  0  0  0  0  0  0  0  1  0  0
  -21.1808  -29.3712   22.5978 C   0  0  1  0  0  0  0  0  0  0  0  0
  -18.7962  -27.5813   20.2570 C   0  0  2  0  0  0  0  0  0  0  0  0
  -20.7210  -29.8131   24.0158 C   0  0  0  0  0  0  0  0  0  0  0  0
  -28.9835  -15.1992   21.6270 N   0  0  0  0  0  0  0  0  0  0  0  0
  -30.2718  -15.3500   21.2751 N   0  0  0  0  0  0  0  0  0  0  0  0
  -23.2660  -30.1408   21.5097 N   0  0  0  0  0  0  0  0  0  0  0  0
  -31.1096  -18.6380   23.0272 N   0  0  0  0  0  0  0  0  0  0  0  0
  -31.9452  -14.5066   19.8263 N   0  0  0  0  0  0  0  0  0  0  0  0
  -28.3316  -11.9914   18.8202 N   0  0  0  0  0  0  0  0  0  0  0  0
  -30.6555  -20.3035   21.4202 N   0  0  0  0  0  0  0  0  0  0  0  0
  -25.1993  -33.0844   22.0814 N   0  0  0  0  0  0  0  0  0  0  0  0
  -20.0900  -28.9867   21.7086 N   0  0  0  0  0  0  0  0  0  0  0  0
  -19.0942  -26.6932   19.0979 N   0  3  0  0  0  0  0  0  0  0  0  0
  -30.5439  -12.3505   18.3347 O   0  0  0  0  0  0  0  0  0  0  0  0
  -25.2461  -30.9716   23.0591 O   0  0  0  0  0  0  0  0  0  0  0  0
  -21.4011  -31.5334   21.6476 O   0  0  0  0  0  0  0  0  0  0  0  0
  -20.8455  -26.8336   21.2955 O   0  0  0  0  0  0  0  0  0  0  0  0
  -32.0478  -20.7417   23.2233 O   0  0  0  0  0  0  0  0  0  0  0  0
  -23.2857  -12.3971   21.1458 O   0  0  0  0  0  0  0  0  0  0  0  0
  -27.5482  -25.7633   20.7659 O   0  0  0  0  0  0  0  0  0  1  0  0
  -22.4415   -6.9488   21.2313 F   0  0  0  0  0  0  0  0  0  0  0  0
  -24.1234  -10.7990   19.0513 F   0  0  0  0  0  0  0  0  0  0  0  0
  -29.2928  -20.4585   18.7282 Cl  0  0  0  0  0  0  0  0  0  0  0  0
  1  2  1  0  0  0  0
  1  5  2  0  0  0  0
  2  6  2  0  0  0  0
  3  8  2  0  0  0  0
  3 16  1  0  0  0  0
  4  9  1  0  0  0  0
  4 16  2  0  0  0  0
  5 18  1  0  0  0  0
  6 20  1  0  0  0  0
  7 10  2  0  0  0  0
  7 19  1  0  0  0  0
  8 26  1  0  0  0  0
  9 26  2  0  0  0  0
 10 27  1  0  0  0  0
 11 12  2  0  0  0  0
 11 28  1  0  0  0  0
 12 29  1  0  0  0  0
 13 21  1  0  0  0  0
 13 27  2  0  0  0  0
 14 22  2  0  0  0  0
 14 25  1  0  0  0  0
 15 29  2  0  0  0  0
 15 30  1  0  0  0  0
 16 32  1  0  0  0  0
 17 32  1  0  0  0  0
 17 33  2  0  0  0  0
 17 34  1  0  0  0  0
 18 20  2  0  0  0  0
 18 39  1  0  0  0  0
 19 21  2  0  0  0  0
 19 40  1  0  0  0  0
 20 48  1  0  0  0  0
 21 41  1  0  0  0  0
 22 23  1  0  0  0  0
 22 51  1  0  0  0  0
 23 24  2  0  0  0  0
 23 58  1  0  0  0  0
 24 31  1  0  0  0  0
 24 52  1  0  0  0  0
 25 31  2  0  0  0  0
 25 68  1  0  0  0  0
 26 77  1  0  0  0  0
 27 78  1  0  0  0  0
 28 30  2  0  0  0  0
 28 77  1  0  0  0  0
 29 79  1  0  0  0  0
 30 80  1  0  0  0  0
 31 81  1  0  0  0  0
 32 62  2  0  0  0  0
 33 63  1  0  0  0  0
 33 66  1  0  0  0  0
 34 67  1  0  0  0  0
 34 72  2  0  0  0  0
 35 49  1  0  0  0  0
 35 69  1  0  0  0  0
 35 73  2  0  0  0  0
 36 59  1  0  0  0  0
 36 64  1  0  0  0  0
 36 74  2  0  0  0  0
 37 60  1  0  0  0  0
 37 70  1  0  0  0  0
 37 75  2  0  0  0  0
 38 65  1  0  0  0  0
 38 68  1  0  0  0  0
 38 76  2  0  0  0  0
 39 42  1  0  0  0  0
 40 49  1  0  0  0  0
 41 64  1  0  0  0  0
 42 44  1  0  0  0  0
 43 45  1  0  0  0  0
 43 46  1  0  0  0  0
 44 48  1  0  0  0  0
 45 50  1  0  0  0  0
 46 65  1  0  0  0  0
 47 50  1  0  0  0  0
 47 65  1  0  0  0  0
 48 69  1  0  0  0  0
 49 64  1  0  0  0  0
 50 63  1  0  0  0  0
 53 60  1  0  0  0  0
 54 61  1  0  0  0  0
 55 61  1  0  0  0  0
 56 61  1  0  0  0  0
 57 71  1  0  0  0  0
 58 78  1  0  0  0  0
 59 61  1  0  0  0  0
 59 70  1  0  0  0  0
 60 71  1  0  0  0  0
 62 63  1  0  0  0  0
M  CHG  1  71   1
M  ISO  4  38 100  58 101  68 100  78 101
M  END
> <Batch ID>
0016

> <Smiles>
CNC(C)C(=O)NC(C(=O)N1Cc2cc([101O:1][101CH2:1]c3c(C)cc([100NH:0][100C:0](=O)N4CCCC(n5nc(-c6ccc(Oc7ccc(F)cc7F)cc6)c(C(N)=O)c5N)C4)c(Cl)c3C)ccc2CC1C(=O)NC1CCCc2ccccc21)C(C)(C)C

> <Shape>
0.349

> <Color>
0.081

> <Negative vol penalty>
0.000

$$$$

  -OEChem-04052315583D

 85 93  0     1  0  0  0  0  0999 V2000
  -32.8990  -24.6464   17.7693 C   0  0  0  0  0  0  0  0  0  0  0  0
  -31.8011  -24.2269   18.5136 C   0  0  0  0  0  0  0  0  0  0  0  0
  -23.7420   -9.6439   19.8417 C   0  0  0  0  0  0  0  0  0  0  0  0
  -23.9136   -9.8844   22.2396 C   0  0  0  0  0  0  0  0  0  0  0  0
  -33.4955  -25.8767   18.0418 C   0  0  0  0  0  0  0  0  0  0  0  0
  -31.2997  -25.0371   19.5318 C   0  0  0  0  0  0  0  0  0  0  0  0
  -26.2462  -25.3542   19.4517 C   0  0  0  0  0  0  0  0  0  0  0  0
  -23.1773   -8.3795   20.0089 C   0  0  0  0  0  0  0  0  0  0  0  0
  -23.3488   -8.6200   22.4068 C   0  0  0  0  0  0  0  0  0  0  0  0
  -25.5322  -24.2744   19.9693 C   0  0  0  0  0  0  0  0  0  0  0  0
  -20.2656   -7.2393   22.3168 C   0  0  0  0  0  0  0  0  0  0  0  0
  -19.2685   -7.0991   23.2821 C   0  0  0  0  0  0  0  0  0  0  0  0
  -25.2063  -25.4854   22.0300 C   0  0  0  0  0  0  0  0  0  0  0  0
  -29.9138  -18.8666   21.6738 C   0  0  0  0  0  0  0  0  0  0  0  0
  -20.6204   -5.4663   24.4412 C   0  0  0  0  0  0  0  0  0  0  0  0
  -24.1103  -10.3963   20.9571 C   0  0  0  0  0  0  0  0  0  0  0  0
  -24.0161  -12.9336   20.7102 C   0  0  0  0  0  0  0  0  0  0  0  0
  -32.9952  -26.7068   19.0574 C   0  0  0  0  0  0  0  0  0  0  0  0
  -26.4553  -26.5054   20.2246 C   0  0  0  0  0  0  0  0  0  0  0  0
  -31.8909  -26.2792   19.8190 C   0  0  0  0  0  0  0  0  0  0  0  0
  -25.9211  -26.5795   21.5189 C   0  0  0  0  0  0  0  0  0  0  0  0
  -29.8594  -20.2574   21.5829 C   0  0  0  0  0  0  0  0  0  0  0  0
  -27.8393  -20.2650   22.9082 C   0  0  0  0  0  0  0  0  0  0  0  0
  -28.9309  -18.1749   22.3818 C   0  0  0  0  0  0  0  0  0  0  0  0
  -22.9806   -7.8676   21.2914 C   0  0  0  0  0  0  0  0  0  0  0  0
  -25.0146  -24.3387   21.2596 C   0  0  0  0  0  0  0  0  0  0  0  0
  -21.4400   -6.4930   22.4137 C   0  0  0  0  0  0  0  0  0  0  0  0
  -19.4459   -6.2126   24.3443 C   0  0  0  0  0  0  0  0  0  0  0  0
  -21.6174   -5.6065   23.4759 C   0  0  0  0  0  0  0  0  0  0  0  0
  -28.8221  -20.9566   22.2001 C   0  0  0  0  0  0  0  0  0  0  0  0
  -27.8937  -18.8741   22.9991 C   0  0  0  0  0  0  0  0  0  0  0  0
  -24.6943  -11.7023   20.7850 C   0  0  0  0  0  0  0  0  0  0  0  0
  -25.0122  -13.8649   20.5464 C   0  0  0  0  0  0  0  0  0  0  0  0
  -22.6112  -13.2108   20.7825 C   0  0  0  0  0  0  0  0  0  0  0  0
  -29.0141  -28.0071   21.3654 C   0  0  0  0  0  0  0  0  0  0  0  0
  -26.8246  -30.2156   22.2877 C   0  0  0  0  0  0  0  0  0  0  0  0
  -23.5846  -30.9221   23.0938 C   0  0  0  0  0  0  0  0  0  0  0  0
  -29.9996  -15.9489   21.8829 C   0  0  0  0  0  0  0  0  0  0  0  0
  -33.7026  -28.0070   19.3465 C   0  0  0  0  0  0  0  0  0  0  0  0
  -27.2048  -27.6722   19.6420 C   0  0  0  0  0  0  0  0  0  0  0  0
  -26.1004  -27.8006   22.3821 C   0  0  0  0  0  0  0  0  0  0  0  0
  -32.8788  -28.9733   20.1938 C   0  0  0  0  0  0  0  0  0  0  0  0
  -29.9360  -13.2772   19.5302 C   0  0  0  0  0  0  0  0  0  0  0  0
  -32.2583  -28.2457   21.3822 C   0  0  0  0  0  0  0  0  0  0  0  0
  -28.5109  -12.7306   19.6407 C   0  0  0  0  0  0  0  0  0  0  0  0
  -30.4791  -13.7235   20.8865 C   0  0  0  0  0  0  0  0  0  0  0  0
  -28.1981  -14.1195   21.7288 C   0  0  0  0  0  0  0  0  0  0  0  0
  -31.3028  -27.1410   20.9151 C   0  0  1  0  0  0  0  0  0  0  0  0
  -27.7980  -28.5921   20.7046 C   0  0  1  0  0  0  0  0  0  0  0  0
  -27.5844  -13.7175   20.3778 C   0  0  2  0  0  0  0  0  0  0  0  0
  -30.9344  -20.9559   20.8137 C   0  0  0  0  0  0  0  0  0  0  0  0
  -22.1071  -32.8070   23.8432 C   0  0  0  0  0  0  0  0  0  0  0  0
  -23.0016  -20.9743   23.0246 C   0  0  0  0  0  0  0  0  0  0  0  0
  -27.9634  -29.9834   25.1088 C   0  0  0  0  0  0  0  0  0  0  0  0
  -25.8998  -31.1170   25.9601 C   0  0  0  0  0  0  0  0  0  0  0  0
  -27.4228  -32.3172   24.3909 C   0  0  0  0  0  0  0  0  0  0  0  0
  -21.9040  -30.7240   20.6658 C   0  0  0  0  0  0  0  0  0  0  0  0
  -26.7240  -21.0178   23.5718 C   0  0  0  0  0  0  0  0  0  0  0  0
  -24.3775  -23.0881   23.1795 C   0  0  0  0  0  0  0  0  0  1  0  0
  -25.9793  -30.4334   23.5193 C   0  0  1  0  0  0  0  0  0  0  0  0
  -22.6570  -32.0393   22.6512 C   0  0  2  0  0  0  0  0  0  0  0  0
  -24.2964  -21.6028   23.5136 C   0  0  2  0  0  0  0  0  0  0  0  0
  -26.8144  -30.9389   24.7295 C   0  0  0  0  0  0  0  0  0  0  0  0
  -26.0189  -11.8358   20.6773 N   0  0  0  0  0  0  0  0  0  0  0  0
  -26.1810  -13.1621   20.5331 N   0  0  0  0  0  0  0  0  0  0  0  0
  -26.8459  -28.9128   21.7699 N   0  0  0  0  0  0  0  0  0  0  0  0
  -29.5511  -14.6602   21.5240 N   0  0  0  0  0  0  0  0  0  0  0  0
  -24.9937  -15.2082   20.4137 N   0  0  0  0  0  0  0  0  0  0  0  0
  -21.7262  -12.1374   20.9527 N   0  0  0  0  0  0  0  0  0  0  0  0
  -29.0203  -16.7625   22.4517 N   0  0  0  0  0  0  0  0  0  0  0  0
  -30.0416  -27.7099   20.4905 N   0  0  0  0  0  0  0  0  0  0  0  0
  -24.9009  -31.3316   23.1207 N   0  0  0  0  0  0  0  0  0  0  0  0
  -21.5092  -31.4844   21.8794 N   0  3  0  0  0  0  0  0  0  0  0  0
  -25.4332  -20.9048   22.8462 N   0  3  0  0  0  0  0  0  0  0  0  0
  -22.1530  -14.3743   20.6821 O   0  0  0  0  0  0  0  0  0  0  0  0
  -29.0203  -27.8392   22.5792 O   0  0  0  0  0  0  0  0  0  0  0  0
  -27.4375  -31.1679   21.7987 O   0  0  0  0  0  0  0  0  0  0  0  0
  -23.1812  -29.7995   23.3900 O   0  0  0  0  0  0  0  0  0  0  0  0
  -31.1595  -16.3138   21.6744 O   0  0  0  0  0  0  0  0  0  0  0  0
  -22.4293   -6.6339   21.4550 O   0  0  0  0  0  0  0  0  0  0  0  0
  -24.3178  -23.2859   21.7675 O   0  0  0  0  0  0  0  0  0  1  0  0
  -18.4890   -6.0792   25.2720 F   0  0  0  0  0  0  0  0  0  0  0  0
  -22.7441   -4.8877   23.5749 F   0  0  0  0  0  0  0  0  0  0  0  0
  -28.7613  -22.6846   22.0828 Cl  0  0  0  0  0  0  0  0  0  0  0  0
  -26.6718  -18.0128   23.8795 Cl  0  0  0  0  0  0  0  0  0  0  0  0
  1  2  1  0  0  0  0
  1  5  2  0  0  0  0
  2  6  2  0  0  0  0
  3  8  2  0  0  0  0
  3 16  1  0  0  0  0
  4  9  1  0  0  0  0
  4 16  2  0  0  0  0
  5 18  1  0  0  0  0
  6 20  1  0  0  0  0
  7 10  2  0  0  0  0
  7 19  1  0  0  0  0
  8 25  1  0  0  0  0
  9 25  2  0  0  0  0
 10 26  1  0  0  0  0
 11 12  2  0  0  0  0
 11 27  1  0  0  0  0
 12 28  1  0  0  0  0
 13 21  1  0  0  0  0
 13 26  2  0  0  0  0
 14 22  1  0  0  0  0
 14 24  2  0  0  0  0
 15 28  2  0  0  0  0
 15 29  1  0  0  0  0
 16 32  1  0  0  0  0
 17 32  1  0  0  0  0
 17 33  2  0  0  0  0
 17 34  1  0  0  0  0
 18 20  2  0  0  0  0
 18 39  1  0  0  0  0
 19 21  2  0  0  0  0
 19 40  1  0  0  0  0
 20 48  1  0  0  0  0
 21 41  1  0  0  0  0
 22 30  2  0  0  0  0
 22 51  1  0  0  0  0
 23 30  1  0  0  0  0
 23 31  2  0  0  0  0
 23 58  1  0  0  0  0
 24 31  1  0  0  0  0
 24 70  1  0  0  0  0
 25 80  1  0  0  0  0
 26 81  1  0  0  0  0
 27 29  2  0  0  0  0
 27 80  1  0  0  0  0
 28 82  1  0  0  0  0
 29 83  1  0  0  0  0
 30 84  1  0  0  0  0
 31 85  1  0  0  0  0
 32 64  2  0  0  0  0
 33 65  1  0  0  0  0
 33 68  1  0  0  0  0
 34 69  1  0  0  0  0
 34 75  2  0  0  0  0
 35 49  1  0  0  0  0
 35 71  1  0  0  0  0
 35 76  2  0  0  0  0
 36 60  1  0  0  0  0
 36 66  1  0  0  0  0
 36 77  2  0  0  0  0
 37 61  1  0  0  0  0
 37 72  1  0  0  0  0
 37 78  2  0  0  0  0
 38 67  1  0  0  0  0
 38 70  1  0  0  0  0
 38 79  2  0  0  0  0
 39 42  1  0  0  0  0
 40 49  1  0  0  0  0
 41 66  1  0  0  0  0
 42 44  1  0  0  0  0
 43 45  1  0  0  0  0
 43 46  1  0  0  0  0
 44 48  1  0  0  0  0
 45 50  1  0  0  0  0
 46 67  1  0  0  0  0
 47 50  1  0  0  0  0
 47 67  1  0  0  0  0
 48 71  1  0  0  0  0
 49 66  1  0  0  0  0
 50 65  1  0  0  0  0
 52 61  1  0  0  0  0
 53 62  1  0  0  0  0
 54 63  1  0  0  0  0
 55 63  1  0  0  0  0
 56 63  1  0  0  0  0
 57 73  1  0  0  0  0
 58 74  1  0  0  0  0
 59 62  1  0  0  0  0
 59 81  1  0  0  0  0
 60 63  1  0  0  0  0
 60 72  1  0  0  0  0
 61 73  1  0  0  0  0
 62 74  1  0  0  0  0
 64 65  1  0  0  0  0
M  CHG  2  73   1  74   1
M  ISO  4  38 100  59 101  70 100  81 101
M  END
> <Batch ID>
0016

> <Smiles>
CNC(C)C(=O)NC(C(=O)N1Cc2cc([101O:1][101CH2:1]C(C)NCc3c(Cl)c(C)cc([100NH:0][100C:0](=O)N4CCCC(n5nc(-c6ccc(Oc7ccc(F)cc7F)cc6)c(C(N)=O)c5N)C4)c3Cl)ccc2CC1C(=O)NC1CCCc2ccccc21)C(C)(C)C

> <Shape>
0.309

> <Color>
0.156

> <Negative vol penalty>
0.000

$$$$

  -OEChem-04052315583D

 82 90  0     1  0  0  0  0  0999 V2000
  -30.4483  -35.0251   24.6197 C   0  0  0  0  0  0  0  0  0  0  0  0
  -30.4933  -34.2438   23.4694 C   0  0  0  0  0  0  0  0  0  0  0  0
  -24.5995   -9.0577   21.1744 C   0  0  0  0  0  0  0  0  0  0  0  0
  -22.8385  -10.6812   20.8579 C   0  0  0  0  0  0  0  0  0  0  0  0
  -29.6947  -34.6071   25.7157 C   0  0  0  0  0  0  0  0  0  0  0  0
  -29.7856  -33.0436   23.4150 C   0  0  0  0  0  0  0  0  0  0  0  0
  -26.2491  -28.8518   18.8064 C   0  0  0  0  0  0  0  0  0  0  0  0
  -23.6447   -8.0548   21.3425 C   0  0  0  0  0  0  0  0  0  0  0  0
  -21.8837   -9.6783   21.0260 C   0  0  0  0  0  0  0  0  0  0  0  0
  -26.2042  -27.5283   18.3705 C   0  0  0  0  0  0  0  0  0  0  0  0
  -21.5850   -6.9623   23.7897 C   0  0  0  0  0  0  0  0  0  0  0  0
  -21.7667   -6.0656   24.8424 C   0  0  0  0  0  0  0  0  0  0  0  0
  -24.8725  -26.9458   20.2957 C   0  0  0  0  0  0  0  0  0  0  0  0
  -27.4671  -20.1894   21.8596 C   0  0  0  0  0  0  0  0  0  0  0  0
  -27.0422  -20.6376   19.1391 C   0  0  0  0  0  0  0  0  0  0  0  0
  -21.8475   -4.2343   23.2686 C   0  0  0  0  0  0  0  0  0  0  0  0
  -24.1964  -10.3709   20.9321 C   0  0  0  0  0  0  0  0  0  0  0  0
  -25.7791  -11.8199   19.5525 C   0  0  0  0  0  0  0  0  0  0  0  0
  -28.9696  -33.4059   25.6712 C   0  0  0  0  0  0  0  0  0  0  0  0
  -25.6142  -29.2307   19.9979 C   0  0  0  0  0  0  0  0  0  0  0  0
  -29.0227  -32.6085   24.5120 C   0  0  0  0  0  0  0  0  0  0  0  0
  -24.9087  -28.2753   20.7432 C   0  0  0  0  0  0  0  0  0  0  0  0
  -27.3160  -21.4914   21.3826 C   0  0  0  0  0  0  0  0  0  0  0  0
  -27.4058  -19.1115   20.9764 C   0  0  0  0  0  0  0  0  0  0  0  0
  -27.1036  -21.7155   20.0223 C   0  0  0  0  0  0  0  0  0  0  0  0
  -22.2869   -8.3651   21.2683 C   0  0  0  0  0  0  0  0  0  0  0  0
  -25.5183  -26.5745   19.1167 C   0  0  0  0  0  0  0  0  0  0  0  0
  -21.5345   -6.4951   22.4763 C   0  0  0  0  0  0  0  0  0  0  0  0
  -21.8979   -4.7015   24.5819 C   0  0  0  0  0  0  0  0  0  0  0  0
  -21.6658   -5.1311   22.2158 C   0  0  0  0  0  0  0  0  0  0  0  0
  -27.1934  -19.3356   19.6161 C   0  0  0  0  0  0  0  0  0  0  0  0
  -25.1822  -11.4074   20.7589 C   0  0  0  0  0  0  0  0  0  0  0  0
  -26.6389  -12.8256   19.9211 C   0  0  0  0  0  0  0  0  0  0  0  0
  -25.5745  -11.3372   18.2180 C   0  0  0  0  0  0  0  0  0  0  0  0
  -26.5866  -30.4441   22.7702 C   0  0  0  0  0  0  0  0  0  0  0  0
  -23.4027  -30.6156   23.3668 C   0  0  0  0  0  0  0  0  0  0  0  0
  -20.2635  -29.4550   22.6999 C   0  0  0  0  0  0  0  0  0  0  0  0
  -27.7802  -17.4388   22.8225 C   0  0  0  0  0  0  0  0  0  0  0  0
  -28.2073  -32.9723   26.8981 C   0  0  0  0  0  0  0  0  0  0  0  0
  -25.6494  -30.6678   20.4405 C   0  0  0  0  0  0  0  0  0  0  0  0
  -24.1932  -28.6348   22.0189 C   0  0  0  0  0  0  0  0  0  0  0  0
  -27.1852  -31.8723   26.6230 C   0  0  0  0  0  0  0  0  0  0  0  0
  -28.1826  -14.3254   24.5025 C   0  0  0  0  0  0  0  0  0  0  0  0
  -27.8041  -30.7700   25.7692 C   0  0  0  0  0  0  0  0  0  0  0  0
  -27.4870  -13.3226   23.5790 C   0  0  0  0  0  0  0  0  0  0  0  0
  -27.4534  -15.6674   24.5344 C   0  0  0  0  0  0  0  0  0  0  0  0
  -26.5075  -15.2667   22.2952 C   0  0  0  0  0  0  0  0  0  0  0  0
  -28.2487  -31.3125   24.4056 C   0  0  1  0  0  0  0  0  0  0  0  0
  -25.4009  -30.8387   21.9360 C   0  0  1  0  0  0  0  0  0  0  0  0
  -27.2419  -13.9210   22.1799 C   0  0  2  0  0  0  0  0  0  0  0  0
  -27.3861  -22.6274   22.3506 C   0  0  0  0  0  0  0  0  0  0  0  0
  -17.8654  -29.7627   23.3720 C   0  0  0  0  0  0  0  0  0  0  0  0
  -23.9295  -29.0705   25.9446 C   0  0  0  0  0  0  0  0  0  0  0  0
  -21.4760  -28.5892   26.0753 C   0  0  0  0  0  0  0  0  0  0  0  0
  -22.2898  -30.9454   26.1688 C   0  0  0  0  0  0  0  0  0  0  0  0
  -19.4793  -30.2643   19.9632 C   0  0  0  0  0  0  0  0  0  0  0  0
  -26.7288  -23.3060   18.1367 C   0  0  0  0  0  0  0  0  0  0  0  0
  -26.5876  -24.8060   17.9398 C   0  0  0  0  0  0  0  0  0  1  0  0
  -22.3778  -29.6898   23.9761 C   0  0  1  0  0  0  0  0  0  0  0  0
  -18.9628  -30.1803   22.4056 C   0  0  2  0  0  0  0  0  0  0  0  0
  -22.5333  -29.5662   25.5182 C   0  0  0  0  0  0  0  0  0  0  0  0
  -25.6255  -12.0947   21.8149 N   0  0  0  0  0  0  0  0  0  0  0  0
  -26.5100  -12.9492   21.2732 N   0  0  0  0  0  0  0  0  0  0  0  0
  -24.2621  -30.0516   22.4133 N   0  0  0  0  0  0  0  0  0  0  0  0
  -27.2604  -16.1751   23.1743 N   0  0  0  0  0  0  0  0  0  0  0  0
  -27.4850  -13.6072   19.2172 N   0  0  0  0  0  0  0  0  0  0  0  0
  -24.6546  -10.2991   18.0167 N   0  0  0  0  0  0  0  0  0  0  0  0
  -27.5635  -17.8018   21.4937 N   0  0  0  0  0  0  0  0  0  0  0  0
  -26.9514  -23.0017   19.5316 N   0  0  0  0  0  0  0  0  0  0  0  0
  -27.1081  -31.4741   23.5296 N   0  0  0  0  0  0  0  0  0  0  0  0
  -21.0744  -30.1830   23.5446 N   0  0  0  0  0  0  0  0  0  0  0  0
  -18.5060  -29.8825   21.0186 N   0  3  0  0  0  0  0  0  0  0  0  0
  -26.2013  -11.8012   17.2355 O   0  0  0  0  0  0  0  0  0  0  0  0
  -26.9971  -29.2902   22.7292 O   0  0  0  0  0  0  0  0  0  0  0  0
  -23.4349  -31.7975   23.7185 O   0  0  0  0  0  0  0  0  0  0  0  0
  -20.5316  -28.3512   22.2305 O   0  0  0  0  0  0  0  0  0  0  0  0
  -28.3975  -18.1349   23.6326 O   0  0  0  0  0  0  0  0  0  0  0  0
  -21.3549   -7.3868   21.4321 O   0  0  0  0  0  0  0  0  0  0  0  0
  -25.4734  -25.2818   18.6938 O   0  0  0  0  0  0  0  0  0  1  0  0
  -22.0739   -3.8406   25.5929 F   0  0  0  0  0  0  0  0  0  0  0  0
  -21.6193   -4.6764   20.9560 F   0  0  0  0  0  0  0  0  0  0  0  0
  -27.1107  -18.0296   18.4880 Cl  0  0  0  0  0  0  0  0  0  0  0  0
  1  2  1  0  0  0  0
  1  5  2  0  0  0  0
  2  6  2  0  0  0  0
  3  8  2  0  0  0  0
  3 17  1  0  0  0  0
  4  9  1  0  0  0  0
  4 17  2  0  0  0  0
  5 19  1  0  0  0  0
  6 21  1  0  0  0  0
  7 10  2  0  0  0  0
  7 20  1  0  0  0  0
  8 26  1  0  0  0  0
  9 26  2  0  0  0  0
 10 27  1  0  0  0  0
 11 12  2  0  0  0  0
 11 28  1  0  0  0  0
 12 29  1  0  0  0  0
 13 22  1  0  0  0  0
 13 27  2  0  0  0  0
 14 23  1  0  0  0  0
 14 24  2  0  0  0  0
 15 25  1  0  0  0  0
 15 31  2  0  0  0  0
 16 29  2  0  0  0  0
 16 30  1  0  0  0  0
 17 32  1  0  0  0  0
 18 32  1  0  0  0  0
 18 33  2  0  0  0  0
 18 34  1  0  0  0  0
 19 21  2  0  0  0  0
 19 39  1  0  0  0  0
 20 22  2  0  0  0  0
 20 40  1  0  0  0  0
 21 48  1  0  0  0  0
 22 41  1  0  0  0  0
 23 25  2  0  0  0  0
 23 51  1  0  0  0  0
 24 31  1  0  0  0  0
 24 68  1  0  0  0  0
 25 69  1  0  0  0  0
 26 78  1  0  0  0  0
 27 79  1  0  0  0  0
 28 30  2  0  0  0  0
 28 78  1  0  0  0  0
 29 80  1  0  0  0  0
 30 81  1  0  0  0  0
 31 82  1  0  0  0  0
 32 62  2  0  0  0  0
 33 63  1  0  0  0  0
 33 66  1  0  0  0  0
 34 67  1  0  0  0  0
 34 73  2  0  0  0  0
 35 49  1  0  0  0  0
 35 70  1  0  0  0  0
 35 74  2  0  0  0  0
 36 59  1  0  0  0  0
 36 64  1  0  0  0  0
 36 75  2  0  0  0  0
 37 60  1  0  0  0  0
 37 71  1  0  0  0  0
 37 76  2  0  0  0  0
 38 65  1  0  0  0  0
 38 68  1  0  0  0  0
 38 77  2  0  0  0  0
 39 42  1  0  0  0  0
 40 49  1  0  0  0  0
 41 64  1  0  0  0  0
 42 44  1  0  0  0  0
 43 45  1  0  0  0  0
 43 46  1  0  0  0  0
 44 48  1  0  0  0  0
 45 50  1  0  0  0  0
 46 65  1  0  0  0  0
 47 50  1  0  0  0  0
 47 65  1  0  0  0  0
 48 70  1  0  0  0  0
 49 64  1  0  0  0  0
 50 63  1  0  0  0  0
 52 60  1  0  0  0  0
 53 61  1  0  0  0  0
 54 61  1  0  0  0  0
 55 61  1  0  0  0  0
 56 72  1  0  0  0  0
 57 58  1  0  0  0  0
 57 69  1  0  0  0  0
 58 79  1  0  0  0  0
 59 61  1  0  0  0  0
 59 71  1  0  0  0  0
 60 72  1  0  0  0  0
 62 63  1  0  0  0  0
M  CHG  1  72   1
M  ISO  4  38 100  58 101  68 100  79 101
M  END
> <Batch ID>
0016

> <Smiles>
CNC(C)C(=O)NC(C(=O)N1Cc2cc([101O:1][101CH2:1]CNc3cc(Cl)c([100NH:0][100C:0](=O)N4CCCC(n5nc(-c6ccc(Oc7ccc(F)cc7F)cc6)c(C(N)=O)c5N)C4)cc3C)ccc2CC1C(=O)NC1CCCc2ccccc21)C(C)(C)C

> <Shape>
0.272

> <Color>
0.109

> <Negative vol penalty>
0.000

$$$$

  -OEChem-04052315583D

 84 92  0     1  0  0  0  0  0999 V2000
  -28.2256  -35.5750   17.9142 C   0  0  0  0  0  0  0  0  0  0  0  0
  -28.8804  -34.4111   18.3039 C   0  0  0  0  0  0  0  0  0  0  0  0
  -24.5112   -9.7935   21.7510 C   0  0  0  0  0  0  0  0  0  0  0  0
  -24.7286  -11.0589   23.7975 C   0  0  0  0  0  0  0  0  0  0  0  0
  -26.9809  -35.8887   18.4584 C   0  0  0  0  0  0  0  0  0  0  0  0
  -28.2913  -33.5607   19.2389 C   0  0  0  0  0  0  0  0  0  0  0  0
  -28.6602  -27.4499   19.4041 C   0  0  0  0  0  0  0  0  0  0  0  0
  -24.1629   -8.6616   22.4878 C   0  0  0  0  0  0  0  0  0  0  0  0
  -24.3802   -9.9270   24.5344 C   0  0  0  0  0  0  0  0  0  0  0  0
  -29.4612  -26.5781   20.1404 C   0  0  0  0  0  0  0  0  0  0  0  0
  -22.8651   -5.5333   23.8088 C   0  0  0  0  0  0  0  0  0  0  0  0
  -21.7837   -4.7751   23.3603 C   0  0  0  0  0  0  0  0  0  0  0  0
  -27.6930  -26.3337   21.7631 C   0  0  0  0  0  0  0  0  0  0  0  0
  -28.5249  -22.1380   20.1166 C   0  0  0  0  0  0  0  0  0  0  0  0
  -20.3370   -6.6947   23.6032 C   0  0  0  0  0  0  0  0  0  0  0  0
  -24.7941  -10.9922   22.4058 C   0  0  0  0  0  0  0  0  0  0  0  0
  -24.2854  -13.1426   21.1312 C   0  0  0  0  0  0  0  0  0  0  0  0
  -26.3718  -35.0369   19.3933 C   0  0  0  0  0  0  0  0  0  0  0  0
  -27.3715  -27.7792   19.8481 C   0  0  0  0  0  0  0  0  0  0  0  0
  -27.0379  -33.8640   19.7971 C   0  0  0  0  0  0  0  0  0  0  0  0
  -26.8767  -27.2079   21.0292 C   0  0  0  0  0  0  0  0  0  0  0  0
  -27.6340  -21.3241   19.4170 C   0  0  0  0  0  0  0  0  0  0  0  0
  -29.4642  -21.5670   20.9754 C   0  0  0  0  0  0  0  0  0  0  0  0
  -28.6216  -19.3682   20.4351 C   0  0  0  0  0  0  0  0  0  0  0  0
  -24.0974   -8.7283   23.8795 C   0  0  0  0  0  0  0  0  0  0  0  0
  -28.9787  -26.0221   21.3216 C   0  0  0  0  0  0  0  0  0  0  0  0
  -22.6825   -6.8723   24.1546 C   0  0  0  0  0  0  0  0  0  0  0  0
  -20.5196   -5.3557   23.2575 C   0  0  0  0  0  0  0  0  0  0  0  0
  -21.4184   -7.4530   24.0517 C   0  0  0  0  0  0  0  0  0  0  0  0
  -27.6823  -19.9392   19.5763 C   0  0  0  0  0  0  0  0  0  0  0  0
  -29.5125  -20.1821   21.1346 C   0  0  0  0  0  0  0  0  0  0  0  0
  -25.1545  -12.1617   21.6452 C   0  0  0  0  0  0  0  0  0  0  0  0
  -25.1128  -14.0341   20.4932 C   0  0  0  0  0  0  0  0  0  0  0  0
  -22.8578  -13.2394   21.2225 C   0  0  0  0  0  0  0  0  0  0  0  0
  -25.9205  -30.4671   20.7274 C   0  0  0  0  0  0  0  0  0  0  0  0
  -23.3022  -28.5559   20.8456 C   0  0  0  0  0  0  0  0  0  0  0  0
  -22.0250  -25.4091   21.1817 C   0  0  0  0  0  0  0  0  0  0  0  0
  -29.7465  -17.1169   20.3239 C   0  0  0  0  0  0  0  0  0  0  0  0
  -25.0469  -35.4420   19.9892 C   0  0  0  0  0  0  0  0  0  0  0  0
  -26.5100  -28.7002   19.0285 C   0  0  0  0  0  0  0  0  0  0  0  0
  -25.4926  -27.5133   21.5386 C   0  0  0  0  0  0  0  0  0  0  0  0
  -24.3209  -34.2988   20.6938 C   0  0  0  0  0  0  0  0  0  0  0  0
  -30.0271  -13.7112   19.3240 C   0  0  0  0  0  0  0  0  0  0  0  0
  -25.2810  -33.5349   21.6002 C   0  0  0  0  0  0  0  0  0  0  0  0
  -28.7130  -13.0852   19.7965 C   0  0  0  0  0  0  0  0  0  0  0  0
  -30.5403  -14.7622   20.3068 C   0  0  0  0  0  0  0  0  0  0  0  0
  -28.2573  -15.1817   21.1321 C   0  0  0  0  0  0  0  0  0  0  0  0
  -26.4200  -32.9038   20.7903 C   0  0  1  0  0  0  0  0  0  0  0  0
  -25.4056  -29.3674   19.8424 C   0  0  1  0  0  0  0  0  0  0  0  0
  -27.6675  -14.1634   20.1427 C   0  0  2  0  0  0  0  0  0  0  0  0
  -26.6450  -21.9813   18.5085 C   0  0  0  0  0  0  0  0  0  0  0  0
  -19.8466  -24.1669   21.2759 C   0  0  0  0  0  0  0  0  0  0  0  0
  -22.8679  -29.5391   23.7013 C   0  0  0  0  0  0  0  0  0  0  0  0
  -21.3085  -27.6122   24.0533 C   0  0  0  0  0  0  0  0  0  0  0  0
  -20.7813  -29.3435   22.3366 C   0  0  0  0  0  0  0  0  0  0  0  0
  -31.6288  -22.7781   21.0657 C   0  0  0  0  0  0  0  0  0  0  0  0
  -22.6961  -23.8163   18.7792 C   0  0  0  0  0  0  0  0  0  0  0  0
  -30.0050  -22.9595   22.9575 C   0  0  0  0  0  0  0  0  0  0  0  0
  -29.0914  -24.1636   22.8013 C   0  0  0  0  0  0  0  0  0  1  0  0
  -22.6515  -27.6982   21.9039 C   0  0  1  0  0  0  0  0  0  0  0  0
  -20.9757  -24.6573   20.3828 C   0  0  2  0  0  0  0  0  0  0  0  0
  -21.9291  -28.5438   22.9905 C   0  0  0  0  0  0  0  0  0  0  0  0
  -26.4358  -12.4066   21.3583 N   0  0  0  0  0  0  0  0  0  0  0  0
  -26.3779  -13.5516   20.6571 N   0  0  0  0  0  0  0  0  0  0  0  0
  -24.6910  -28.4244   20.7051 N   0  0  0  0  0  0  0  0  0  0  0  0
  -29.4978  -15.7526   20.5842 N   0  0  0  0  0  0  0  0  0  0  0  0
  -24.8743  -15.1758   19.8134 N   0  0  0  0  0  0  0  0  0  0  0  0
  -22.1632  -12.2380   21.9146 N   0  0  0  0  0  0  0  0  0  0  0  0
  -28.6706  -17.9612   20.5960 N   0  0  0  0  0  0  0  0  0  0  0  0
  -25.9599  -31.7071   20.1189 N   0  0  0  0  0  0  0  0  0  0  0  0
  -21.7810  -26.7661   21.1955 N   0  0  0  0  0  0  0  0  0  0  0  0
  -30.3432  -22.4148   21.6625 N   0  0  3  0  0  0  0  0  0  0  0  0
  -21.5861  -23.4778   19.7067 N   0  3  0  0  0  0  0  0  0  0  0  0
  -22.2157  -14.1771   20.6916 O   0  0  0  0  0  0  0  0  0  0  0  0
  -26.2557  -30.2100   21.8777 O   0  0  0  0  0  0  0  0  0  0  0  0
  -22.6029  -29.3094   20.1638 O   0  0  0  0  0  0  0  0  0  0  0  0
  -22.9649  -24.8482   21.7407 O   0  0  0  0  0  0  0  0  0  0  0  0
  -30.8246  -17.5041   19.8658 O   0  0  0  0  0  0  0  0  0  0  0  0
  -23.7573   -7.6240   24.5989 O   0  0  0  0  0  0  0  0  0  0  0  0
  -29.7587  -25.1714   22.0426 O   0  0  0  0  0  0  0  0  0  1  0  0
  -19.4816   -4.6278   22.8254 F   0  0  0  0  0  0  0  0  0  0  0  0
  -21.2370   -8.7392   24.3813 F   0  0  0  0  0  0  0  0  0  0  0  0
  -26.5699  -18.9378   18.6992 Cl  0  0  0  0  0  0  0  0  0  0  0  0
  -30.6836  -19.4783   22.2068 Cl  0  0  0  0  0  0  0  0  0  0  0  0
  1  2  1  0  0  0  0
  1  5  2  0  0  0  0
  2  6  2  0  0  0  0
  3  8  2  0  0  0  0
  3 16  1  0  0  0  0
  4  9  1  0  0  0  0
  4 16  2  0  0  0  0
  5 18  1  0  0  0  0
  6 20  1  0  0  0  0
  7 10  2  0  0  0  0
  7 19  1  0  0  0  0
  8 25  1  0  0  0  0
  9 25  2  0  0  0  0
 10 26  1  0  0  0  0
 11 12  2  0  0  0  0
 11 27  1  0  0  0  0
 12 28  1  0  0  0  0
 13 21  1  0  0  0  0
 13 26  2  0  0  0  0
 14 22  2  0  0  0  0
 14 23  1  0  0  0  0
 15 28  2  0  0  0  0
 15 29  1  0  0  0  0
 16 32  1  0  0  0  0
 17 32  1  0  0  0  0
 17 33  2  0  0  0  0
 17 34  1  0  0  0  0
 18 20  2  0  0  0  0
 18 39  1  0  0  0  0
 19 21  2  0  0  0  0
 19 40  1  0  0  0  0
 20 48  1  0  0  0  0
 21 41  1  0  0  0  0
 22 30  1  0  0  0  0
 22 51  1  0  0  0  0
 23 31  2  0  0  0  0
 23 72  1  0  0  0  0
 24 30  2  0  0  0  0
 24 31  1  0  0  0  0
 24 69  1  0  0  0  0
 25 79  1  0  0  0  0
 26 80  1  0  0  0  0
 27 29  2  0  0  0  0
 27 79  1  0  0  0  0
 28 81  1  0  0  0  0
 29 82  1  0  0  0  0
 30 83  1  0  0  0  0
 31 84  1  0  0  0  0
 32 63  2  0  0  0  0
 33 64  1  0  0  0  0
 33 67  1  0  0  0  0
 34 68  1  0  0  0  0
 34 74  2  0  0  0  0
 35 49  1  0  0  0  0
 35 70  1  0  0  0  0
 35 75  2  0  0  0  0
 36 60  1  0  0  0  0
 36 65  1  0  0  0  0
 36 76  2  0  0  0  0
 37 61  1  0  0  0  0
 37 71  1  0  0  0  0
 37 77  2  0  0  0  0
 38 66  1  0  0  0  0
 38 69  1  0  0  0  0
 38 78  2  0  0  0  0
 39 42  1  0  0  0  0
 40 49  1  0  0  0  0
 41 65  1  0  0  0  0
 42 44  1  0  0  0  0
 43 45  1  0  0  0  0
 43 46  1  0  0  0  0
 44 48  1  0  0  0  0
 45 50  1  0  0  0  0
 46 66  1  0  0  0  0
 47 50  1  0  0  0  0
 47 66  1  0  0  0  0
 48 70  1  0  0  0  0
 49 65  1  0  0  0  0
 50 64  1  0  0  0  0
 52 61  1  0  0  0  0
 53 62  1  0  0  0  0
 54 62  1  0  0  0  0
 55 62  1  0  0  0  0
 56 72  1  0  0  0  0
 57 73  1  0  0  0  0
 58 59  1  0  0  0  0
 58 72  1  0  0  0  0
 59 80  1  0  0  0  0
 60 62  1  0  0  0  0
 60 71  1  0  0  0  0
 61 73  1  0  0  0  0
 63 64  1  0  0  0  0
M  CHG  1  73   1
M  ISO  4  38 100  59 101  69 100  80 101
M  END
> <Batch ID>
0016

> <Smiles>
CNC(C)C(=O)NC(C(=O)N1Cc2cc([101O:1][101CH2:1]CN(C)c3cc(C)c(Cl)c([100NH:0][100C:0](=O)N4CCCC(n5nc(-c6ccc(Oc7ccc(F)cc7F)cc6)c(C(N)=O)c5N)C4)c3Cl)ccc2CC1C(=O)NC1CCCc2ccccc21)C(C)(C)C

> <Shape>
0.285

> <Color>
0.119

> <Negative vol penalty>
0.000

$$$$

  -OEChem-04052315583D

 89 97  0     1  0  0  0  0  0999 V2000
  -33.2324  -19.8645   21.8409 C   0  0  0  0  0  0  0  0  0  0  0  0
  -32.4233  -20.3571   20.8220 C   0  0  0  0  0  0  0  0  0  0  0  0
  -27.2164  -31.1624   21.8527 C   0  0  0  0  0  0  0  0  0  0  0  0
  -26.4943  -29.5489   23.4996 C   0  0  0  0  0  0  0  0  0  0  0  0
  -33.2142  -18.5047   22.1482 C   0  0  0  0  0  0  0  0  0  0  0  0
  -31.5964  -19.4897   20.1089 C   0  0  0  0  0  0  0  0  0  0  0  0
  -24.4640  -20.4822   19.9211 C   0  0  0  0  0  0  0  0  0  0  0  0
  -27.6894  -31.9901   22.8709 C   0  0  0  0  0  0  0  0  0  0  0  0
  -26.9674  -30.3765   24.5179 C   0  0  0  0  0  0  0  0  0  0  0  0
  -23.1148  -20.7260   19.6636 C   0  0  0  0  0  0  0  0  0  0  0  0
  -26.4014  -34.1766   25.1035 C   0  0  0  0  0  0  0  0  0  0  0  0
  -26.1018  -35.5365   25.0240 C   0  0  0  0  0  0  0  0  0  0  0  0
  -22.9821  -18.6867   18.3707 C   0  0  0  0  0  0  0  0  0  0  0  0
  -17.6296  -23.6774   22.2477 C   0  0  0  0  0  0  0  0  0  0  0  0
  -28.4614  -36.0534   24.9756 C   0  0  0  0  0  0  0  0  0  0  0  0
  -26.6188  -29.9418   22.1670 C   0  0  0  0  0  0  0  0  0  0  0  0
  -26.8416  -28.0778   20.4398 C   0  0  0  0  0  0  0  0  0  0  0  0
  -32.3795  -17.6218   21.4450 C   0  0  0  0  0  0  0  0  0  0  0  0
  -25.0742  -19.3305   19.4167 C   0  0  0  0  0  0  0  0  0  0  0  0
  -31.5681  -18.1166   20.4062 C   0  0  0  0  0  0  0  0  0  0  0  0
  -24.3301  -18.4308   18.6358 C   0  0  0  0  0  0  0  0  0  0  0  0
  -18.0145  -24.7891   22.9970 C   0  0  0  0  0  0  0  0  0  0  0  0
  -18.8660  -25.7440   22.4412 C   0  0  0  0  0  0  0  0  0  0  0  0
  -18.9477  -24.4752   20.3868 C   0  0  0  0  0  0  0  0  0  0  0  0
  -18.0963  -23.5204   20.9426 C   0  0  0  0  0  0  0  0  0  0  0  0
  -19.3326  -25.5870   21.1361 C   0  0  0  0  0  0  0  0  0  0  0  0
  -27.5650  -31.5971   24.2035 C   0  0  0  0  0  0  0  0  0  0  0  0
  -22.3758  -19.8306   18.8901 C   0  0  0  0  0  0  0  0  0  0  0  0
  -27.7309  -33.7550   25.1192 C   0  0  0  0  0  0  0  0  0  0  0  0
  -27.1318  -36.4750   24.9600 C   0  0  0  0  0  0  0  0  0  0  0  0
  -28.7609  -34.6934   25.0552 C   0  0  0  0  0  0  0  0  0  0  0  0
  -26.1294  -29.0867   21.1157 C   0  0  0  0  0  0  0  0  0  0  0  0
  -25.9389  -27.5635   19.5413 C   0  0  0  0  0  0  0  0  0  0  0  0
  -28.1977  -27.6443   20.6090 C   0  0  0  0  0  0  0  0  0  0  0  0
  -28.1969  -17.2674   19.1545 C   0  0  0  0  0  0  0  0  0  0  0  0
  -25.8660  -15.3107   19.5403 C   0  0  0  0  0  0  0  0  0  0  0  0
  -23.0888  -13.5252   20.3985 C   0  0  0  0  0  0  0  0  0  0  0  0
  -19.9691  -27.3300   19.4322 C   0  0  0  0  0  0  0  0  0  0  0  0
  -32.4293  -16.1525   21.7815 C   0  0  0  0  0  0  0  0  0  0  0  0
  -26.5404  -19.0585   19.6175 C   0  0  0  0  0  0  0  0  0  0  0  0
  -25.0370  -17.2226   18.0850 C   0  0  0  0  0  0  0  0  0  0  0  0
  -31.2471  -15.3606   21.2286 C   0  0  0  0  0  0  0  0  0  0  0  0
  -22.0879  -28.8005   16.9774 C   0  0  0  0  0  0  0  0  0  0  0  0
  -30.9951  -15.7266   19.7694 C   0  0  0  0  0  0  0  0  0  0  0  0
  -23.4312  -28.9433   17.6966 C   0  0  0  0  0  0  0  0  0  0  0  0
  -20.9113  -29.0594   17.9168 C   0  0  0  0  0  0  0  0  0  0  0  0
  -22.2614  -28.4102   19.8725 C   0  0  0  0  0  0  0  0  0  0  0  0
  -30.6392  -17.2114   19.6266 C   0  0  1  0  0  0  0  0  0  0  0  0
  -26.8609  -17.5609   19.7712 C   0  0  1  0  0  0  0  0  0  0  0  0
  -23.4749  -28.0950   18.9827 C   0  0  2  0  0  0  0  0  0  0  0  0
  -17.5014  -24.9326   24.3926 C   0  0  0  0  0  0  0  0  0  0  0  0
  -19.2773  -26.9328   23.2528 C   0  0  0  0  0  0  0  0  0  0  0  0
  -19.4455  -24.3049   18.9845 C   0  0  0  0  0  0  0  0  0  0  0  0
  -14.5091  -20.1608   22.1271 C   0  0  0  0  0  0  0  0  0  0  0  0
  -15.4936  -22.5953   19.1900 C   0  0  0  0  0  0  0  0  0  0  0  0
  -22.3161  -11.1807   20.8499 C   0  0  0  0  0  0  0  0  0  0  0  0
  -25.8843  -14.7320   16.5455 C   0  0  0  0  0  0  0  0  0  0  0  0
  -24.2776  -12.8592   16.9696 C   0  0  0  0  0  0  0  0  0  0  0  0
  -26.5551  -12.8006   17.9858 C   0  0  0  0  0  0  0  0  0  0  0  0
  -22.3118  -14.1922   23.1752 C   0  0  0  0  0  0  0  0  0  0  0  0
  -15.8007  -20.9406   21.9347 C   0  0  0  0  0  0  0  0  0  0  0  0
  -16.7042  -20.2764   20.8908 C   0  0  0  0  0  0  0  0  0  0  0  0
  -18.8736  -20.3543   19.6015 C   0  0  0  0  0  0  0  0  0  0  0  0
  -16.9651  -22.5602   18.9530 C   0  0  0  0  0  0  0  0  0  0  0  0
  -20.3348  -20.7908   19.6449 C   0  0  0  0  0  0  0  0  0  1  0  0
  -24.8378  -14.4234   18.8855 C   0  0  1  0  0  0  0  0  0  0  0  0
  -22.8619  -12.4629   21.4589 C   0  0  2  0  0  0  0  0  0  0  0  0
  -18.0079  -21.0566   20.6560 C   0  0  1  0  0  0  0  0  0  0  0  0
  -25.3824  -13.7303   17.6047 C   0  0  0  0  0  0  0  0  0  0  0  0
  -24.8714  -29.2078   20.6835 N   0  0  0  0  0  0  0  0  0  0  0  0
  -24.7860  -28.2683   19.7263 N   0  0  0  0  0  0  0  0  0  0  0  0
  -25.9161  -16.6430   19.1126 N   0  0  0  0  0  0  0  0  0  0  0  0
  -21.0175  -28.2179   19.1107 N   0  0  0  0  0  0  0  0  0  0  0  0
  -26.0269  -26.5817   18.6190 N   0  0  0  0  0  0  0  0  0  0  0  0
  -28.9867  -28.2805   21.5770 N   0  0  0  0  0  0  0  0  0  0  0  0
  -20.1962  -26.5580   20.5710 N   0  0  0  0  0  0  0  0  0  0  0  0
  -29.2641  -17.4411   20.0149 N   0  0  0  0  0  0  0  0  0  0  0  0
  -24.3806  -13.4984   19.9170 N   0  0  0  0  0  0  0  0  0  0  0  0
  -17.6974  -22.3992   20.2071 N   0  0  3  0  0  0  0  0  0  0  0  0
  -21.8907  -12.9490   22.4795 N   0  3  0  0  0  0  0  0  0  0  0  0
  -28.7001  -26.7313   19.9107 O   0  0  0  0  0  0  0  0  0  0  0  0
  -28.2564  -16.9081   17.9844 O   0  0  0  0  0  0  0  0  0  0  0  0
  -26.6096  -14.8367   20.4038 O   0  0  0  0  0  0  0  0  0  0  0  0
  -22.2072  -14.2987   20.0311 O   0  0  0  0  0  0  0  0  0  0  0  0
  -18.9571  -27.2402   18.7323 O   0  0  0  0  0  0  0  0  0  0  0  0
  -28.0267  -32.4044   25.1974 O   0  0  0  0  0  0  0  0  0  0  0  0
  -21.0579  -20.0724   18.6462 O   0  0  0  0  0  0  0  0  0  1  0  0
  -26.8440  -37.7808   24.8821 F   0  0  0  0  0  0  0  0  0  0  0  0
  -30.0402  -34.2943   25.0686 F   0  0  0  0  0  0  0  0  0  0  0  0
  1  2  1  0  0  0  0
  1  5  2  0  0  0  0
  2  6  2  0  0  0  0
  3  8  2  0  0  0  0
  3 16  1  0  0  0  0
  4  9  1  0  0  0  0
  4 16  2  0  0  0  0
  5 18  1  0  0  0  0
  6 20  1  0  0  0  0
  7 10  2  0  0  0  0
  7 19  1  0  0  0  0
  8 27  1  0  0  0  0
  9 27  2  0  0  0  0
 10 28  1  0  0  0  0
 11 12  2  0  0  0  0
 11 29  1  0  0  0  0
 12 30  1  0  0  0  0
 13 21  1  0  0  0  0
 13 28  2  0  0  0  0
 14 22  2  0  0  0  0
 14 25  1  0  0  0  0
 15 30  2  0  0  0  0
 15 31  1  0  0  0  0
 16 32  1  0  0  0  0
 17 32  1  0  0  0  0
 17 33  2  0  0  0  0
 17 34  1  0  0  0  0
 18 20  2  0  0  0  0
 18 39  1  0  0  0  0
 19 21  2  0  0  0  0
 19 40  1  0  0  0  0
 20 48  1  0  0  0  0
 21 41  1  0  0  0  0
 22 23  1  0  0  0  0
 22 51  1  0  0  0  0
 23 26  2  0  0  0  0
 23 52  1  0  0  0  0
 24 25  2  0  0  0  0
 24 26  1  0  0  0  0
 24 53  1  0  0  0  0
 25 79  1  0  0  0  0
 26 76  1  0  0  0  0
 27 86  1  0  0  0  0
 28 87  1  0  0  0  0
 29 31  2  0  0  0  0
 29 86  1  0  0  0  0
 30 88  1  0  0  0  0
 31 89  1  0  0  0  0
 32 70  2  0  0  0  0
 33 71  1  0  0  0  0
 33 74  1  0  0  0  0
 34 75  1  0  0  0  0
 34 81  2  0  0  0  0
 35 49  1  0  0  0  0
 35 77  1  0  0  0  0
 35 82  2  0  0  0  0
 36 66  1  0  0  0  0
 36 72  1  0  0  0  0
 36 83  2  0  0  0  0
 37 67  1  0  0  0  0
 37 78  1  0  0  0  0
 37 84  2  0  0  0  0
 38 73  1  0  0  0  0
 38 76  1  0  0  0  0
 38 85  2  0  0  0  0
 39 42  1  0  0  0  0
 40 49  1  0  0  0  0
 41 72  1  0  0  0  0
 42 44  1  0  0  0  0
 43 45  1  0  0  0  0
 43 46  1  0  0  0  0
 44 48  1  0  0  0  0
 45 50  1  0  0  0  0
 46 73  1  0  0  0  0
 47 50  1  0  0  0  0
 47 73  1  0  0  0  0
 48 77  1  0  0  0  0
 49 72  1  0  0  0  0
 50 71  1  0  0  0  0
 54 61  1  0  0  0  0
 55 64  1  0  0  0  0
 56 67  1  0  0  0  0
 57 69  1  0  0  0  0
 58 69  1  0  0  0  0
 59 69  1  0  0  0  0
 60 80  1  0  0  0  0
 61 62  1  0  0  0  0
 62 68  1  0  0  0  0
 63 65  1  0  0  0  0
 63 68  1  0  0  0  0
 64 79  1  0  0  0  0
 65 87  1  0  0  0  0
 66 69  1  0  0  0  0
 66 78  1  0  0  0  0
 67 80  1  0  0  0  0
 68 79  1  0  0  0  0
 70 71  1  0  0  0  0
M  CHG  1  80   1
M  ISO  4  38 100  65 101  76 100  87 101
M  END
> <Batch ID>
0016

> <Smiles>
CCCC(C[101CH2:1][101O:1]c1ccc2c(c1)CN(C(=O)C(NC(=O)C(C)NC)C(C)(C)C)C(C(=O)NC1CCCc3ccccc31)C2)N(CC)c1cc(C)c(C)c([100NH:0][100C:0](=O)N2CCCC(n3nc(-c4ccc(Oc5ccc(F)cc5F)cc4)c(C(N)=O)c3N)C2)c1C

> <Shape>
0.223

> <Color>
0.065

> <Negative vol penalty>
0.000

$$$$

  -OEChem-04052315583D

 87 95  0     1  0  0  0  0  0999 V2000
  -26.2656  -35.3135   23.6089 C   0  0  0  0  0  0  0  0  0  0  0  0
  -26.7779  -34.0533   23.3174 C   0  0  0  0  0  0  0  0  0  0  0  0
  -23.7535  -13.8313   21.6515 C   0  0  0  0  0  0  0  0  0  0  0  0
  -26.1666  -13.9128   21.7391 C   0  0  0  0  0  0  0  0  0  0  0  0
  -24.9615  -35.4415   24.0853 C   0  0  0  0  0  0  0  0  0  0  0  0
  -25.9867  -32.9203   23.5033 C   0  0  0  0  0  0  0  0  0  0  0  0
  -26.2785  -29.6880   19.6159 C   0  0  0  0  0  0  0  0  0  0  0  0
  -23.8186  -12.5934   21.0120 C   0  0  0  0  0  0  0  0  0  0  0  0
  -26.2316  -12.6749   21.0996 C   0  0  0  0  0  0  0  0  0  0  0  0
  -27.4104  -28.8772   19.5455 C   0  0  0  0  0  0  0  0  0  0  0  0
  -23.3431   -9.2445   19.6801 C   0  0  0  0  0  0  0  0  0  0  0  0
  -22.4856   -8.2386   20.1255 C   0  0  0  0  0  0  0  0  0  0  0  0
  -26.1523  -27.0490   20.4912 C   0  0  0  0  0  0  0  0  0  0  0  0
  -31.6115  -23.0871   20.7461 C   0  0  0  0  0  0  0  0  0  0  0  0
  -23.4841   -8.3599   22.3221 C   0  0  0  0  0  0  0  0  0  0  0  0
  -24.9276  -14.4910   22.0151 C   0  0  0  0  0  0  0  0  0  0  0  0
  -24.8028  -16.0093   24.0613 C   0  0  0  0  0  0  0  0  0  0  0  0
  -24.1507  -34.3102   24.2679 C   0  0  0  0  0  0  0  0  0  0  0  0
  -25.0758  -29.1878   20.1354 C   0  0  0  0  0  0  0  0  0  0  0  0
  -24.6710  -33.0331   23.9839 C   0  0  0  0  0  0  0  0  0  0  0  0
  -25.0058  -27.8548   20.5646 C   0  0  0  0  0  0  0  0  0  0  0  0
  -30.6266  -23.5802   21.6018 C   0  0  0  0  0  0  0  0  0  0  0  0
  -31.3455  -21.9792   19.9414 C   0  0  0  0  0  0  0  0  0  0  0  0
  -29.3755  -22.9655   21.6529 C   0  0  0  0  0  0  0  0  0  0  0  0
  -29.1094  -21.8576   20.8482 C   0  0  0  0  0  0  0  0  0  0  0  0
  -25.0576  -12.0152   20.7361 C   0  0  0  0  0  0  0  0  0  0  0  0
  -27.3483  -27.5584   19.9859 C   0  0  0  0  0  0  0  0  0  0  0  0
  -24.2713   -9.8081   20.5557 C   0  0  0  0  0  0  0  0  0  0  0  0
  -22.5560   -7.7963   21.4465 C   0  0  0  0  0  0  0  0  0  0  0  0
  -24.3417   -9.3658   21.8767 C   0  0  0  0  0  0  0  0  0  0  0  0
  -30.0944  -21.3645   19.9925 C   0  0  0  0  0  0  0  0  0  0  0  0
  -24.8610  -15.7701   22.6752 C   0  0  0  0  0  0  0  0  0  0  0  0
  -24.7534  -17.3774   24.1718 C   0  0  0  0  0  0  0  0  0  0  0  0
  -24.7943  -15.0781   25.1514 C   0  0  0  0  0  0  0  0  0  0  0  0
  -23.2284  -29.9182   22.6167 C   0  0  0  0  0  0  0  0  0  0  0  0
  -21.2561  -27.7031   21.3030 C   0  0  0  0  0  0  0  0  0  0  0  0
  -20.9043  -24.9580   19.3061 C   0  0  0  0  0  0  0  0  0  0  0  0
  -26.5993  -21.8277   20.6372 C   0  0  0  0  0  0  0  0  0  0  0  0
  -22.7633  -34.4945   24.8300 C   0  0  0  0  0  0  0  0  0  0  0  0
  -23.8564  -30.0673   20.1797 C   0  0  0  0  0  0  0  0  0  0  0  0
  -23.7332  -27.2636   21.1118 C   0  0  0  0  0  0  0  0  0  0  0  0
  -21.8638  -33.2753   24.6439 C   0  0  0  0  0  0  0  0  0  0  0  0
  -23.2828  -21.2746   21.8087 C   0  0  0  0  0  0  0  0  0  0  0  0
  -22.6041  -32.0008   25.0365 C   0  0  0  0  0  0  0  0  0  0  0  0
  -23.3075  -19.8239   22.2956 C   0  0  0  0  0  0  0  0  0  0  0  0
  -24.1416  -21.4685   20.5603 C   0  0  0  0  0  0  0  0  0  0  0  0
  -25.5497  -19.5395   21.1648 C   0  0  0  0  0  0  0  0  0  0  0  0
  -23.8354  -31.7823   24.1489 C   0  0  1  0  0  0  0  0  0  0  0  0
  -22.8239  -29.6061   21.2037 C   0  0  1  0  0  0  0  0  0  0  0  0
  -24.7510  -19.3085   22.4580 C   0  0  2  0  0  0  0  0  0  0  0  0
  -28.3251  -23.5012   22.5752 C   0  0  0  0  0  0  0  0  0  0  0  0
  -33.6688  -21.0090   19.8230 C   0  0  0  0  0  0  0  0  0  0  0  0
  -32.8455  -22.5353   17.9934 C   0  0  0  0  0  0  0  0  0  0  0  0
  -19.1761  -23.3500   18.4545 C   0  0  0  0  0  0  0  0  0  0  0  0
  -32.1254  -27.0855   20.7448 C   0  0  0  0  0  0  0  0  0  0  0  0
  -21.2193  -26.3090   24.0169 C   0  0  0  0  0  0  0  0  0  0  0  0
  -20.3016  -24.2750   22.8816 C   0  0  0  0  0  0  0  0  0  0  0  0
  -19.0026  -26.4046   22.8631 C   0  0  0  0  0  0  0  0  0  0  0  0
  -21.4141  -25.7201   16.4922 C   0  0  0  0  0  0  0  0  0  0  0  0
  -30.9392  -24.7719   22.4580 C   0  0  0  0  0  0  0  0  0  0  0  0
  -29.7211  -27.4066   20.0367 C   0  0  0  0  0  0  0  0  0  1  0  0
  -32.4322  -21.4861   19.0408 C   0  0  0  0  0  0  0  0  0  0  0  0
  -21.0836  -26.2096   21.4405 C   0  0  1  0  0  0  0  0  0  0  0  0
  -19.9274  -24.6450   18.1871 C   0  0  2  0  0  0  0  0  0  0  0  0
  -30.7539  -26.4437   20.6115 C   0  0  2  0  0  0  0  0  0  0  0  0
  -20.4264  -25.8110   22.7921 C   0  0  0  0  0  0  0  0  0  0  0  0
  -24.8496  -16.8959   21.9567 N   0  0  0  0  0  0  0  0  0  0  0  0
  -24.7835  -17.8559   22.8949 N   0  0  0  0  0  0  0  0  0  0  0  0
  -22.5698  -28.1654   21.1406 N   0  0  0  0  0  0  0  0  0  0  0  0
  -25.4962  -20.9612   20.7896 N   0  0  0  0  0  0  0  0  0  0  0  0
  -24.6875  -18.2059   25.2356 N   0  0  0  0  0  0  0  0  0  0  0  0
  -24.8504  -13.7082   24.8605 N   0  0  0  0  0  0  0  0  0  0  0  0
  -27.8346  -21.2426   20.9133 N   0  0  0  0  0  0  0  0  0  0  0  0
  -23.4413  -31.2622   22.8572 N   0  0  0  0  0  0  0  0  0  0  0  0
  -20.3399  -25.7746   20.2632 N   0  0  0  0  0  0  0  0  0  0  0  0
  -20.6505  -24.5098   16.8910 N   0  3  0  0  0  0  0  0  0  0  0  0
  -30.3037  -26.0221   21.9696 N   0  3  0  0  0  0  0  0  0  0  0  0
  -24.7220  -15.4492   26.3475 O   0  0  0  0  0  0  0  0  0  0  0  0
  -23.3376  -29.0073   23.4291 O   0  0  0  0  0  0  0  0  0  0  0  0
  -20.2614  -28.4319   21.3313 O   0  0  0  0  0  0  0  0  0  0  0  0
  -22.0519  -24.5188   19.3308 O   0  0  0  0  0  0  0  0  0  0  0  0
  -26.4562  -23.0097   20.3140 O   0  0  0  0  0  0  0  0  0  0  0  0
  -25.1214  -10.8072   20.1122 O   0  0  0  0  0  0  0  0  0  0  0  0
  -28.4519  -26.7650   19.9190 O   0  0  0  0  0  0  0  0  0  1  0  0
  -21.7314   -6.8315   21.8744 F   0  0  0  0  0  0  0  0  0  0  0  0
  -25.2305   -9.9042   22.7229 F   0  0  0  0  0  0  0  0  0  0  0  0
  -29.7738  -19.9870   18.9886 Cl  0  0  0  0  0  0  0  0  0  0  0  0
  1  2  1  0  0  0  0
  1  5  2  0  0  0  0
  2  6  2  0  0  0  0
  3  8  2  0  0  0  0
  3 16  1  0  0  0  0
  4  9  1  0  0  0  0
  4 16  2  0  0  0  0
  5 18  1  0  0  0  0
  6 20  1  0  0  0  0
  7 10  2  0  0  0  0
  7 19  1  0  0  0  0
  8 26  1  0  0  0  0
  9 26  2  0  0  0  0
 10 27  1  0  0  0  0
 11 12  2  0  0  0  0
 11 28  1  0  0  0  0
 12 29  1  0  0  0  0
 13 21  1  0  0  0  0
 13 27  2  0  0  0  0
 14 22  1  0  0  0  0
 14 23  2  0  0  0  0
 15 29  2  0  0  0  0
 15 30  1  0  0  0  0
 16 32  1  0  0  0  0
 17 32  1  0  0  0  0
 17 33  2  0  0  0  0
 17 34  1  0  0  0  0
 18 20  2  0  0  0  0
 18 39  1  0  0  0  0
 19 21  2  0  0  0  0
 19 40  1  0  0  0  0
 20 48  1  0  0  0  0
 21 41  1  0  0  0  0
 22 24  2  0  0  0  0
 22 60  1  0  0  0  0
 23 31  1  0  0  0  0
 23 62  1  0  0  0  0
 24 25  1  0  0  0  0
 24 51  1  0  0  0  0
 25 31  2  0  0  0  0
 25 73  1  0  0  0  0
 26 83  1  0  0  0  0
 27 84  1  0  0  0  0
 28 30  2  0  0  0  0
 28 83  1  0  0  0  0
 29 85  1  0  0  0  0
 30 86  1  0  0  0  0
 31 87  1  0  0  0  0
 32 67  2  0  0  0  0
 33 68  1  0  0  0  0
 33 71  1  0  0  0  0
 34 72  1  0  0  0  0
 34 78  2  0  0  0  0
 35 49  1  0  0  0  0
 35 74  1  0  0  0  0
 35 79  2  0  0  0  0
 36 63  1  0  0  0  0
 36 69  1  0  0  0  0
 36 80  2  0  0  0  0
 37 64  1  0  0  0  0
 37 75  1  0  0  0  0
 37 81  2  0  0  0  0
 38 70  1  0  0  0  0
 38 73  1  0  0  0  0
 38 82  2  0  0  0  0
 39 42  1  0  0  0  0
 40 49  1  0  0  0  0
 41 69  1  0  0  0  0
 42 44  1  0  0  0  0
 43 45  1  0  0  0  0
 43 46  1  0  0  0  0
 44 48  1  0  0  0  0
 45 50  1  0  0  0  0
 46 70  1  0  0  0  0
 47 50  1  0  0  0  0
 47 70  1  0  0  0  0
 48 74  1  0  0  0  0
 49 69  1  0  0  0  0
 50 68  1  0  0  0  0
 52 62  1  0  0  0  0
 53 62  1  0  0  0  0
 54 64  1  0  0  0  0
 55 65  1  0  0  0  0
 56 66  1  0  0  0  0
 57 66  1  0  0  0  0
 58 66  1  0  0  0  0
 59 76  1  0  0  0  0
 60 77  1  0  0  0  0
 61 65  1  0  0  0  0
 61 84  1  0  0  0  0
 63 66  1  0  0  0  0
 63 75  1  0  0  0  0
 64 76  1  0  0  0  0
 65 77  1  0  0  0  0
 67 68  1  0  0  0  0
M  CHG  2  76   1  77   1
M  ISO  4  38 100  61 101  73 100  84 101
M  END
> <Batch ID>
0016

> <Smiles>
CNC(C)C(=O)NC(C(=O)N1Cc2cc([101O:1][101CH2:1]C(C)NCc3cc(C(C)C)c(Cl)c([100NH:0][100C:0](=O)N4CCCC(n5nc(-c6ccc(Oc7ccc(F)cc7F)cc6)c(C(N)=O)c5N)C4)c3C)ccc2CC1C(=O)NC1CCCc2ccccc21)C(C)(C)C

> <Shape>
0.258

> <Color>
0.081

> <Negative vol penalty>
0.000

$$$$

  -OEChem-04052315583D

 84 92  0     1  0  0  0  0  0999 V2000
  -29.0656  -37.8874   20.7165 C   0  0  0  0  0  0  0  0  0  0  0  0
  -29.3343  -36.5980   20.2686 C   0  0  0  0  0  0  0  0  0  0  0  0
  -23.4438   -9.7328   21.7046 C   0  0  0  0  0  0  0  0  0  0  0  0
  -24.0556  -10.9110   23.7231 C   0  0  0  0  0  0  0  0  0  0  0  0
  -28.4712  -38.0815   21.9627 C   0  0  0  0  0  0  0  0  0  0  0  0
  -29.0098  -35.5019   21.0672 C   0  0  0  0  0  0  0  0  0  0  0  0
  -27.0849  -30.0063   19.1701 C   0  0  0  0  0  0  0  0  0  0  0  0
  -22.8081   -8.7541   22.4685 C   0  0  0  0  0  0  0  0  0  0  0  0
  -23.4199   -9.9323   24.4871 C   0  0  0  0  0  0  0  0  0  0  0  0
  -27.7482  -28.7953   18.9771 C   0  0  0  0  0  0  0  0  0  0  0  0
  -19.8730   -8.3895   24.1072 C   0  0  0  0  0  0  0  0  0  0  0  0
  -18.6103   -7.9640   23.6948 C   0  0  0  0  0  0  0  0  0  0  0  0
  -27.0610  -28.0756   21.1746 C   0  0  0  0  0  0  0  0  0  0  0  0
  -19.4471   -5.7098   23.4586 C   0  0  0  0  0  0  0  0  0  0  0  0
  -29.9527  -19.2448   18.1014 C   0  0  0  0  0  0  0  0  0  0  0  0
  -24.0676  -10.8112   22.3319 C   0  0  0  0  0  0  0  0  0  0  0  0
  -24.1554  -13.0019   21.0277 C   0  0  0  0  0  0  0  0  0  0  0  0
  -28.1303  -36.9868   22.7728 C   0  0  0  0  0  0  0  0  0  0  0  0
  -26.4127  -30.2658   20.3731 C   0  0  0  0  0  0  0  0  0  0  0  0
  -28.4115  -35.6816   22.3259 C   0  0  0  0  0  0  0  0  0  0  0  0
  -26.3877  -29.2896   21.3794 C   0  0  0  0  0  0  0  0  0  0  0  0
  -30.0624  -17.8872   18.3066 C   0  0  0  0  0  0  0  0  0  0  0  0
  -29.7303  -17.6358   19.6607 C   0  0  0  0  0  0  0  0  0  0  0  0
  -22.7961   -8.8538   23.8597 C   0  0  0  0  0  0  0  0  0  0  0  0
  -27.7388  -27.8309   19.9806 C   0  0  0  0  0  0  0  0  0  0  0  0
  -20.9228   -7.4752   24.1952 C   0  0  0  0  0  0  0  0  0  0  0  0
  -18.3973   -6.6241   23.3705 C   0  0  0  0  0  0  0  0  0  0  0  0
  -20.7098   -6.1354   23.8709 C   0  0  0  0  0  0  0  0  0  0  0  0
  -24.7250  -11.8223   21.5434 C   0  0  0  0  0  0  0  0  0  0  0  0
  -29.4275  -18.8475   20.2417 C   0  0  0  0  0  0  0  0  0  0  0  0
  -25.1853  -13.6161   20.3580 C   0  0  0  0  0  0  0  0  0  0  0  0
  -22.8152  -13.4981   21.1437 C   0  0  0  0  0  0  0  0  0  0  0  0
  -26.7123  -32.4208   22.6904 C   0  0  0  0  0  0  0  0  0  0  0  0
  -23.9928  -31.0393   23.7941 C   0  0  0  0  0  0  0  0  0  0  0  0
  -21.9706  -28.2918   23.8877 C   0  0  0  0  0  0  0  0  0  0  0  0
  -30.4940  -15.2662   20.0456 C   0  0  0  0  0  0  0  0  0  0  0  0
  -27.5326  -37.2483   24.1325 C   0  0  0  0  0  0  0  0  0  0  0  0
  -25.6794  -31.5664   20.5552 C   0  0  0  0  0  0  0  0  0  0  0  0
  -25.6635  -29.5111   22.6813 C   0  0  0  0  0  0  0  0  0  0  0  0
  -26.8774  -36.0188   24.7565 C   0  0  0  0  0  0  0  0  0  0  0  0
  -29.7818  -11.9072   19.1037 C   0  0  0  0  0  0  0  0  0  0  0  0
  -27.7898  -34.8033   24.6255 C   0  0  0  0  0  0  0  0  0  0  0  0
  -28.3559  -11.6827   19.6120 C   0  0  0  0  0  0  0  0  0  0  0  0
  -30.5925  -12.7832   20.0572 C   0  0  0  0  0  0  0  0  0  0  0  0
  -28.5395  -13.8392   20.9169 C   0  0  0  0  0  0  0  0  0  0  0  0
  -28.0515  -34.4662   23.1526 C   0  0  1  0  0  0  0  0  0  0  0  0
  -25.4604  -31.9287   22.0209 C   0  0  1  0  0  0  0  0  0  0  0  0
  -27.6643  -13.0161   19.9576 C   0  0  2  0  0  0  0  0  0  0  0  0
  -30.4557  -16.8888   17.2920 C   0  0  0  0  0  0  0  0  0  0  0  0
  -29.0178  -19.1688   21.6261 C   0  0  0  0  0  0  0  0  0  0  0  0
  -19.8367  -27.4501   24.9053 C   0  0  0  0  0  0  0  0  0  0  0  0
  -27.2417  -21.7695   18.1094 C   0  0  0  0  0  0  0  0  0  0  0  0
  -25.4202  -30.6545   26.4633 C   0  0  0  0  0  0  0  0  0  0  0  0
  -23.6424  -29.0098   27.0976 C   0  0  0  0  0  0  0  0  0  0  0  0
  -23.0368  -31.3881   26.6512 C   0  0  0  0  0  0  0  0  0  0  0  0
  -20.7226  -27.9016   21.2327 C   0  0  0  0  0  0  0  0  0  0  0  0
  -28.1754  -24.2613   19.6438 C   0  0  0  0  0  0  0  0  0  0  0  0
  -27.6154  -22.9993   20.3030 C   0  0  0  0  0  0  0  0  0  0  0  0
  -29.3330  -21.2973   19.4830 C   0  0  0  0  0  0  0  0  0  0  0  0
  -27.8544  -25.5051   20.4636 C   0  0  0  0  0  0  0  0  0  1  0  0
  -23.6775  -29.8887   24.7191 C   0  0  1  0  0  0  0  0  0  0  0  0
  -20.4713  -28.1379   23.7065 C   0  0  2  0  0  0  0  0  0  0  0  0
  -27.8408  -21.6887   19.5176 C   0  0  2  0  0  0  0  0  0  0  0  0
  -23.9596  -30.2316   26.2091 C   0  0  0  0  0  0  0  0  0  0  0  0
  -26.0164  -11.6927   21.2282 N   0  0  0  0  0  0  0  0  0  0  0  0
  -29.5658  -19.8184   19.2845 N   0  0  0  0  0  0  0  0  0  0  0  0
  -26.2669  -12.7988   20.5071 N   0  0  0  0  0  0  0  0  0  0  0  0
  -24.9668  -30.8012   22.8141 N   0  0  0  0  0  0  0  0  0  0  0  0
  -29.8775  -14.0307   20.3356 N   0  0  0  0  0  0  0  0  0  0  0  0
  -25.2621  -14.7703   19.6619 N   0  0  0  0  0  0  0  0  0  0  0  0
  -21.8830  -12.7416   21.8669 N   0  0  0  0  0  0  0  0  0  0  0  0
  -29.7057  -16.3828   20.3220 N   0  0  0  0  0  0  0  0  0  0  0  0
  -26.9109  -33.7838   22.5800 N   0  0  0  0  0  0  0  0  0  0  0  0
  -22.2954  -29.5109   24.4442 N   0  0  0  0  0  0  0  0  0  0  0  0
  -20.1769  -27.3288   22.4902 N   0  3  0  0  0  0  0  0  0  0  0  0
  -22.4509  -14.5721   20.6078 O   0  0  0  0  0  0  0  0  0  0  0  0
  -27.4432  -31.6231   23.2660 O   0  0  0  0  0  0  0  0  0  0  0  0
  -23.3917  -32.1078   23.9314 O   0  0  0  0  0  0  0  0  0  0  0  0
  -22.7732  -27.4165   23.5710 O   0  0  0  0  0  0  0  0  0  0  0  0
  -31.6266  -15.3283   19.5604 O   0  0  0  0  0  0  0  0  0  0  0  0
  -22.1757   -7.8991   24.6055 O   0  0  0  0  0  0  0  0  0  0  0  0
  -28.3860  -26.6482   19.7951 O   0  0  0  0  0  0  0  0  0  1  0  0
  -17.1843   -6.2153   22.9761 F   0  0  0  0  0  0  0  0  0  0  0  0
  -21.7142   -5.2522   23.9547 F   0  0  0  0  0  0  0  0  0  0  0  0
  1  2  1  0  0  0  0
  1  5  2  0  0  0  0
  2  6  2  0  0  0  0
  3  8  2  0  0  0  0
  3 16  1  0  0  0  0
  4  9  1  0  0  0  0
  4 16  2  0  0  0  0
  5 18  1  0  0  0  0
  6 20  1  0  0  0  0
  7 10  2  0  0  0  0
  7 19  1  0  0  0  0
  8 24  1  0  0  0  0
  9 24  2  0  0  0  0
 10 25  1  0  0  0  0
 11 12  2  0  0  0  0
 11 26  1  0  0  0  0
 12 27  1  0  0  0  0
 13 21  1  0  0  0  0
 13 25  2  0  0  0  0
 14 27  2  0  0  0  0
 14 28  1  0  0  0  0
 15 22  2  0  0  0  0
 15 66  1  0  0  0  0
 16 29  1  0  0  0  0
 17 29  1  0  0  0  0
 17 31  2  0  0  0  0
 17 32  1  0  0  0  0
 18 20  2  0  0  0  0
 18 37  1  0  0  0  0
 19 21  2  0  0  0  0
 19 38  1  0  0  0  0
 20 46  1  0  0  0  0
 21 39  1  0  0  0  0
 22 23  1  0  0  0  0
 22 49  1  0  0  0  0
 23 30  2  0  0  0  0
 23 72  1  0  0  0  0
 24 81  1  0  0  0  0
 25 82  1  0  0  0  0
 26 28  2  0  0  0  0
 26 81  1  0  0  0  0
 27 83  1  0  0  0  0
 28 84  1  0  0  0  0
 29 65  2  0  0  0  0
 30 50  1  0  0  0  0
 30 66  1  0  0  0  0
 31 67  1  0  0  0  0
 31 70  1  0  0  0  0
 32 71  1  0  0  0  0
 32 76  2  0  0  0  0
 33 47  1  0  0  0  0
 33 73  1  0  0  0  0
 33 77  2  0  0  0  0
 34 61  1  0  0  0  0
 34 68  1  0  0  0  0
 34 78  2  0  0  0  0
 35 62  1  0  0  0  0
 35 74  1  0  0  0  0
 35 79  2  0  0  0  0
 36 69  1  0  0  0  0
 36 72  1  0  0  0  0
 36 80  2  0  0  0  0
 37 40  1  0  0  0  0
 38 47  1  0  0  0  0
 39 68  1  0  0  0  0
 40 42  1  0  0  0  0
 41 43  1  0  0  0  0
 41 44  1  0  0  0  0
 42 46  1  0  0  0  0
 43 48  1  0  0  0  0
 44 69  1  0  0  0  0
 45 48  1  0  0  0  0
 45 69  1  0  0  0  0
 46 73  1  0  0  0  0
 47 68  1  0  0  0  0
 48 67  1  0  0  0  0
 51 62  1  0  0  0  0
 52 63  1  0  0  0  0
 53 64  1  0  0  0  0
 54 64  1  0  0  0  0
 55 64  1  0  0  0  0
 56 75  1  0  0  0  0
 57 58  1  0  0  0  0
 57 60  1  0  0  0  0
 58 63  1  0  0  0  0
 59 63  1  0  0  0  0
 59 66  1  0  0  0  0
 60 82  1  0  0  0  0
 61 64  1  0  0  0  0
 61 74  1  0  0  0  0
 62 75  1  0  0  0  0
 65 67  1  0  0  0  0
M  CHG  1  75   1
M  ISO  4  36 100  60 101  72 100  82 101
M  END
> <Batch ID>
0016

> <Smiles>
CNC(C)C(=O)NC(C(=O)N1Cc2cc([101O:1][101CH2:1]CCC(C)Cn3cc(C)c([100NH:0][100C:0](=O)N4CCCC(n5nc(-c6ccc(Oc7ccc(F)cc7F)cc6)c(C(N)=O)c5N)C4)c3C)ccc2CC1C(=O)NC1CCCc2ccccc21)C(C)(C)C

> <Shape>
0.329

> <Color>
0.175

> <Negative vol penalty>
0.000

$$$$

  -OEChem-04052315583D

 87 95  0     1  0  0  0  0  0999 V2000
  -22.0088  -11.3172   21.6344 C   0  0  0  0  0  0  0  0  0  0  0  0
  -21.9372  -12.6440   22.0465 C   0  0  0  0  0  0  0  0  0  0  0  0
  -29.4881  -28.6942   20.0642 C   0  0  0  0  0  0  0  0  0  0  0  0
  -27.7875  -27.2464   19.1430 C   0  0  0  0  0  0  0  0  0  0  0  0
  -23.1874  -10.8246   21.0758 C   0  0  0  0  0  0  0  0  0  0  0  0
  -23.0447  -13.4788   21.9012 C   0  0  0  0  0  0  0  0  0  0  0  0
  -21.8188  -18.0267   20.0413 C   0  0  0  0  0  0  0  0  0  0  0  0
  -30.4295  -27.6737   19.9303 C   0  0  0  0  0  0  0  0  0  0  0  0
  -28.7289  -26.2258   19.0090 C   0  0  0  0  0  0  0  0  0  0  0  0
  -21.2522  -18.9442   20.9249 C   0  0  0  0  0  0  0  0  0  0  0  0
  -31.2996  -24.8558   21.5816 C   0  0  0  0  0  0  0  0  0  0  0  0
  -32.1573  -24.6213   22.6562 C   0  0  0  0  0  0  0  0  0  0  0  0
  -23.3938  -20.0289   21.1624 C   0  0  0  0  0  0  0  0  0  0  0  0
  -17.7879  -28.9320   22.3859 C   0  0  0  0  0  0  0  0  0  0  0  0
  -34.0583  -25.0957   21.2426 C   0  0  0  0  0  0  0  0  0  0  0  0
  -28.1671  -28.4805   19.6706 C   0  0  0  0  0  0  0  0  0  0  0  0
  -26.8683  -30.5208   18.8593 C   0  0  0  0  0  0  0  0  0  0  0  0
  -24.3068  -11.6563   20.9147 C   0  0  0  0  0  0  0  0  0  0  0  0
  -23.1819  -18.0968   19.7196 C   0  0  0  0  0  0  0  0  0  0  0  0
  -24.2398  -12.9965   21.3411 C   0  0  0  0  0  0  0  0  0  0  0  0
  -23.9747  -19.1125   20.2725 C   0  0  0  0  0  0  0  0  0  0  0  0
  -17.6121  -27.5498   22.4509 C   0  0  0  0  0  0  0  0  0  0  0  0
  -19.0657  -29.4788   22.5038 C   0  0  0  0  0  0  0  0  0  0  0  0
  -18.7140  -26.7144   22.6340 C   0  0  0  0  0  0  0  0  0  0  0  0
  -19.9918  -27.2612   22.7520 C   0  0  0  0  0  0  0  0  0  0  0  0
  -20.1677  -28.6434   22.6869 C   0  0  0  0  0  0  0  0  0  0  0  0
  -30.0499  -26.4395   19.4027 C   0  0  0  0  0  0  0  0  0  0  0  0
  -22.0403  -19.9438   21.4879 C   0  0  0  0  0  0  0  0  0  0  0  0
  -31.8212  -25.2103   20.3374 C   0  0  0  0  0  0  0  0  0  0  0  0
  -33.5367  -24.7412   22.4868 C   0  0  0  0  0  0  0  0  0  0  0  0
  -33.2005  -25.3302   20.1679 C   0  0  0  0  0  0  0  0  0  0  0  0
  -27.1940  -29.5341   19.8092 C   0  0  0  0  0  0  0  0  0  0  0  0
  -25.8951  -31.2752   19.4679 C   0  0  0  0  0  0  0  0  0  0  0  0
  -27.3979  -30.7360   17.5445 C   0  0  0  0  0  0  0  0  0  0  0  0
  -25.6772  -16.1634   20.0930 C   0  0  0  0  0  0  0  0  0  0  0  0
  -17.8233  -23.5470   24.2113 C   0  0  0  0  0  0  0  0  0  0  0  0
  -27.1974  -18.4234   18.3314 C   0  0  0  0  0  0  0  0  0  0  0  0
  -27.3393  -21.6673   17.2808 C   0  0  0  0  0  0  0  0  0  0  0  0
  -21.9135  -30.1037   23.7666 C   0  0  0  0  0  0  0  0  0  0  0  0
  -25.5743  -11.0662   20.3491 C   0  0  0  0  0  0  0  0  0  0  0  0
  -23.7721  -17.1157   18.7441 C   0  0  0  0  0  0  0  0  0  0  0  0
  -25.4387  -19.2435   19.9439 C   0  0  0  0  0  0  0  0  0  0  0  0
  -26.5810  -12.1159   19.8857 C   0  0  0  0  0  0  0  0  0  0  0  0
  -24.3916  -32.6601   23.7987 C   0  0  0  0  0  0  0  0  0  0  0  0
  -26.7379  -13.2071   20.9400 C   0  0  0  0  0  0  0  0  0  0  0  0
  -25.3586  -32.2416   22.6887 C   0  0  0  0  0  0  0  0  0  0  0  0
  -23.8439  -31.4533   24.5585 C   0  0  0  0  0  0  0  0  0  0  0  0
  -24.2070  -29.9934   22.6076 C   0  0  0  0  0  0  0  0  0  0  0  0
  -25.4118  -13.9397   21.1773 C   0  0  1  0  0  0  0  0  0  0  0  0
  -25.2838  -16.9676   18.8863 C   0  0  1  0  0  0  0  0  0  0  0  0
  -24.7348  -31.1711   21.7720 C   0  0  2  0  0  0  0  0  0  0  0  0
  -16.2335  -26.9899   22.3203 C   0  0  0  0  0  0  0  0  0  0  0  0
  -19.2220  -30.9633   22.4288 C   0  0  0  0  0  0  0  0  0  0  0  0
  -21.1711  -26.3602   22.9485 C   0  0  0  0  0  0  0  0  0  0  0  0
  -17.2885  -22.9622   25.4970 C   0  0  0  0  0  0  0  0  0  0  0  0
  -28.7180  -23.2247   15.8768 C   0  0  0  0  0  0  0  0  0  0  0  0
  -29.2915  -18.5623   20.5463 C   0  0  0  0  0  0  0  0  0  0  0  0
  -30.0739  -20.7331   19.5748 C   0  0  0  0  0  0  0  0  0  0  0  0
  -30.2207  -18.6399   18.2257 C   0  0  0  0  0  0  0  0  0  0  0  0
  -25.0774  -22.2051   15.4494 C   0  0  0  0  0  0  0  0  0  0  0  0
  -18.5210  -25.2254   22.7038 C   0  0  0  0  0  0  0  0  0  0  0  0
  -18.2298  -22.5794   23.1139 C   0  0  0  0  0  0  0  0  0  0  0  0
  -19.6995  -22.1842   23.2145 C   0  0  0  0  0  0  0  0  0  0  0  0
  -20.1112  -21.1583   22.1657 C   0  0  0  0  0  0  0  0  0  1  0  0
  -27.9587  -19.6891   18.6436 C   0  0  1  0  0  0  0  0  0  0  0  0
  -27.5329  -22.2720   15.9019 C   0  0  2  0  0  0  0  0  0  0  0  0
  -29.3591  -19.4027   19.2555 C   0  0  0  0  0  0  0  0  0  0  0  0
  -26.4855  -29.6489   20.9356 N   0  0  0  0  0  0  0  0  0  0  0  0
  -17.9961  -24.8073   23.9942 N   0  0  0  0  0  0  0  0  0  0  0  0
  -25.7049  -30.7166   20.6975 N   0  0  0  0  0  0  0  0  0  0  0  0
  -25.9708  -18.2566   18.9897 N   0  0  0  0  0  0  0  0  0  0  0  0
  -23.2650  -30.4837   23.6260 N   0  0  0  0  0  0  0  0  0  0  0  0
  -25.1923  -32.3554   19.0658 N   0  0  0  0  0  0  0  0  0  0  0  0
  -28.3927  -29.8678   17.0745 N   0  0  0  0  0  0  0  0  0  0  0  0
  -21.4651  -29.2011   22.8029 N   0  0  0  0  0  0  0  0  0  0  0  0
  -25.1575  -14.8831   20.1097 N   0  0  0  0  0  0  0  0  0  0  0  0
  -27.9939  -20.4602   17.4056 N   0  0  0  0  0  0  0  0  0  0  0  0
  -26.3149  -23.0260   15.4912 N   0  3  0  0  0  0  0  0  0  0  0  0
  -27.0124  -31.6805   16.8145 O   0  0  0  0  0  0  0  0  0  0  0  0
  -26.3999  -16.6666   20.9451 O   0  0  0  0  0  0  0  0  0  0  0  0
  -27.6702  -17.6161   17.5275 O   0  0  0  0  0  0  0  0  0  0  0  0
  -26.6769  -22.2132   18.1604 O   0  0  0  0  0  0  0  0  0  0  0  0
  -21.1985  -30.5674   24.6587 O   0  0  0  0  0  0  0  0  0  0  0  0
  -30.9683  -25.4436   19.2717 O   0  0  0  0  0  0  0  0  0  0  0  0
  -21.4899  -20.8403   22.3511 O   0  0  0  0  0  0  0  0  0  1  0  0
  -34.3601  -24.5174   23.5192 F   0  0  0  0  0  0  0  0  0  0  0  0
  -33.7075  -25.6716   18.9753 F   0  0  0  0  0  0  0  0  0  0  0  0
  1  2  1  0  0  0  0
  1  5  2  0  0  0  0
  2  6  2  0  0  0  0
  3  8  2  0  0  0  0
  3 16  1  0  0  0  0
  4  9  1  0  0  0  0
  4 16  2  0  0  0  0
  5 18  1  0  0  0  0
  6 20  1  0  0  0  0
  7 10  2  0  0  0  0
  7 19  1  0  0  0  0
  8 27  1  0  0  0  0
  9 27  2  0  0  0  0
 10 28  1  0  0  0  0
 11 12  2  0  0  0  0
 11 29  1  0  0  0  0
 12 30  1  0  0  0  0
 13 21  1  0  0  0  0
 13 28  2  0  0  0  0
 14 22  2  0  0  0  0
 14 23  1  0  0  0  0
 15 30  2  0  0  0  0
 15 31  1  0  0  0  0
 16 32  1  0  0  0  0
 17 32  1  0  0  0  0
 17 33  2  0  0  0  0
 17 34  1  0  0  0  0
 18 20  2  0  0  0  0
 18 40  1  0  0  0  0
 19 21  2  0  0  0  0
 19 41  1  0  0  0  0
 20 49  1  0  0  0  0
 21 42  1  0  0  0  0
 22 24  1  0  0  0  0
 22 52  1  0  0  0  0
 23 26  2  0  0  0  0
 23 53  1  0  0  0  0
 24 25  2  0  0  0  0
 24 61  1  0  0  0  0
 25 26  1  0  0  0  0
 25 54  1  0  0  0  0
 26 75  1  0  0  0  0
 27 84  1  0  0  0  0
 28 85  1  0  0  0  0
 29 31  2  0  0  0  0
 29 84  1  0  0  0  0
 30 86  1  0  0  0  0
 31 87  1  0  0  0  0
 32 68  2  0  0  0  0
 33 70  1  0  0  0  0
 33 73  1  0  0  0  0
 34 74  1  0  0  0  0
 34 79  2  0  0  0  0
 35 50  1  0  0  0  0
 35 76  1  0  0  0  0
 35 80  2  0  0  0  0
 36 55  1  0  0  0  0
 36 62  1  0  0  0  0
 36 69  2  0  0  0  0
 37 65  1  0  0  0  0
 37 71  1  0  0  0  0
 37 81  2  0  0  0  0
 38 66  1  0  0  0  0
 38 77  1  0  0  0  0
 38 82  2  0  0  0  0
 39 72  1  0  0  0  0
 39 75  1  0  0  0  0
 39 83  2  0  0  0  0
 40 43  1  0  0  0  0
 41 50  1  0  0  0  0
 42 71  1  0  0  0  0
 43 45  1  0  0  0  0
 44 46  1  0  0  0  0
 44 47  1  0  0  0  0
 45 49  1  0  0  0  0
 46 51  1  0  0  0  0
 47 72  1  0  0  0  0
 48 51  1  0  0  0  0
 48 72  1  0  0  0  0
 49 76  1  0  0  0  0
 50 71  1  0  0  0  0
 51 70  1  0  0  0  0
 56 66  1  0  0  0  0
 57 67  1  0  0  0  0
 58 67  1  0  0  0  0
 59 67  1  0  0  0  0
 60 78  1  0  0  0  0
 61 69  1  0  0  0  0
 62 63  1  0  0  0  0
 63 64  1  0  0  0  0
 64 85  1  0  0  0  0
 65 67  1  0  0  0  0
 65 77  1  0  0  0  0
 66 78  1  0  0  0  0
 68 70  1  0  0  0  0
M  CHG  1  78   1
M  ISO  4  39 100  64 101  75 100  85 101
M  END
> <Batch ID>
0016

> <Smiles>
CNC(C)C(=O)NC(C(=O)N1Cc2cc([101O:1][101CH2:1]CC=C(C)NCc3c(C)cc(C)c([100NH:0][100C:0](=O)N4CCCC(n5nc(-c6ccc(Oc7ccc(F)cc7F)cc6)c(C(N)=O)c5N)C4)c3C)ccc2CC1C(=O)NC1CCCc2ccccc21)C(C)(C)C

> <Shape>
0.241

> <Color>
0.082

> <Negative vol penalty>
0.000

$$$$

  -OEChem-04052315583D

 87 95  0     1  0  0  0  0  0999 V2000
  -16.6106  -28.4417   21.1606 C   0  0  0  0  0  0  0  0  0  0  0  0
  -17.5716  -29.0438   20.3547 C   0  0  0  0  0  0  0  0  0  0  0  0
  -23.2365  -12.7424   18.1235 C   0  0  0  0  0  0  0  0  0  0  0  0
  -25.3073  -13.5500   17.1765 C   0  0  0  0  0  0  0  0  0  0  0  0
  -16.7700  -28.4332   22.5457 C   0  0  0  0  0  0  0  0  0  0  0  0
  -18.6920  -29.6388   20.9336 C   0  0  0  0  0  0  0  0  0  0  0  0
  -25.3438  -27.4592   19.2323 C   0  0  0  0  0  0  0  0  0  0  0  0
  -22.7198  -12.5629   16.8404 C   0  0  0  0  0  0  0  0  0  0  0  0
  -24.7906  -13.3704   15.8934 C   0  0  0  0  0  0  0  0  0  0  0  0
  -26.6527  -27.2419   18.8015 C   0  0  0  0  0  0  0  0  0  0  0  0
  -22.9835  -10.2986   14.3432 C   0  0  0  0  0  0  0  0  0  0  0  0
  -22.3093   -9.1070   14.0768 C   0  0  0  0  0  0  0  0  0  0  0  0
  -30.5943  -20.6905   20.6942 C   0  0  0  0  0  0  0  0  0  0  0  0
  -27.4651  -28.8294   20.4349 C   0  0  0  0  0  0  0  0  0  0  0  0
  -20.3119  -10.3566   13.5421 C   0  0  0  0  0  0  0  0  0  0  0  0
  -24.5303  -13.2361   18.2916 C   0  0  0  0  0  0  0  0  0  0  0  0
  -30.0384  -21.9630   20.5623 C   0  0  0  0  0  0  0  0  0  0  0  0
  -25.7812  -12.4845   20.3839 C   0  0  0  0  0  0  0  0  0  0  0  0
  -17.8977  -29.0199   23.1413 C   0  0  0  0  0  0  0  0  0  0  0  0
  -25.0918  -28.3521   20.2776 C   0  0  0  0  0  0  0  0  0  0  0  0
  -18.8659  -29.6394   22.3281 C   0  0  0  0  0  0  0  0  0  0  0  0
  -26.1573  -29.0418   20.8790 C   0  0  0  0  0  0  0  0  0  0  0  0
  -28.7102  -22.1849   20.9261 C   0  0  0  0  0  0  0  0  0  0  0  0
  -28.4939  -19.8619   21.5535 C   0  0  0  0  0  0  0  0  0  0  0  0
  -23.4968  -12.8768   15.7254 C   0  0  0  0  0  0  0  0  0  0  0  0
  -27.7107  -27.9255   19.4012 C   0  0  0  0  0  0  0  0  0  0  0  0
  -22.3219  -11.5193   14.2091 C   0  0  0  0  0  0  0  0  0  0  0  0
  -20.9735   -9.1360   13.6762 C   0  0  0  0  0  0  0  0  0  0  0  0
  -20.9861  -11.5483   13.8086 C   0  0  0  0  0  0  0  0  0  0  0  0
  -27.9379  -21.1344   21.4217 C   0  0  0  0  0  0  0  0  0  0  0  0
  -29.8220  -19.6399   21.1898 C   0  0  0  0  0  0  0  0  0  0  0  0
  -25.0645  -13.4223   19.6167 C   0  0  0  0  0  0  0  0  0  0  0  0
  -26.0617  -13.1426   21.5564 C   0  0  0  0  0  0  0  0  0  0  0  0
  -30.8884  -23.0608   20.0336 C   0  0  0  0  0  0  0  0  0  0  0  0
  -26.1598  -11.1388   20.0652 C   0  0  0  0  0  0  0  0  0  0  0  0
  -22.5421  -29.9657   22.5073 C   0  0  0  0  0  0  0  0  0  0  0  0
  -24.9728  -29.3118   24.2607 C   0  0  0  0  0  0  0  0  0  0  0  0
  -27.6710  -28.0484   25.9223 C   0  0  0  0  0  0  0  0  0  0  0  0
  -26.6251  -18.9238   22.9586 C   0  0  0  0  0  0  0  0  0  0  0  0
  -18.0029  -29.0275   24.6458 C   0  0  0  0  0  0  0  0  0  0  0  0
  -23.6919  -28.6633   20.7329 C   0  0  0  0  0  0  0  0  0  0  0  0
  -25.8354  -30.0187   21.9767 C   0  0  0  0  0  0  0  0  0  0  0  0
  -19.4045  -29.3508   25.1567 C   0  0  0  0  0  0  0  0  0  0  0  0
  -24.3641  -16.5901   24.4142 C   0  0  0  0  0  0  0  0  0  0  0  0
  -19.9769  -30.5567   24.4185 C   0  0  0  0  0  0  0  0  0  0  0  0
  -24.3570  -15.4250   23.4220 C   0  0  0  0  0  0  0  0  0  0  0  0
  -24.4691  -17.9388   23.7044 C   0  0  0  0  0  0  0  0  0  0  0  0
  -25.5827  -16.8943   21.7710 C   0  0  0  0  0  0  0  0  0  0  0  0
  -20.1073  -30.2735   22.9170 C   0  0  1  0  0  0  0  0  0  0  0  0
  -23.5943  -28.9283   22.2460 C   0  0  1  0  0  0  0  0  0  0  0  0
  -25.5437  -15.5118   22.4424 C   0  0  2  0  0  0  0  0  0  0  0  0
  -28.6701  -27.8834   28.2183 C   0  0  0  0  0  0  0  0  0  0  0  0
  -25.8596  -32.2247   24.0801 C   0  0  0  0  0  0  0  0  0  0  0  0
  -27.5791  -31.7359   25.8330 C   0  0  0  0  0  0  0  0  0  0  0  0
  -25.1543  -31.4883   26.3636 C   0  0  0  0  0  0  0  0  0  0  0  0
  -27.5976  -24.1877   21.9144 C   0  0  0  0  0  0  0  0  0  0  0  0
  -27.5480  -25.0916   25.8896 C   0  0  0  0  0  0  0  0  0  0  0  0
  -30.7551  -26.1042   18.7184 C   0  0  0  0  0  0  0  0  0  0  0  0
  -31.1711  -24.7277   18.2177 C   0  0  0  0  0  0  0  0  0  0  0  0
  -29.2840  -26.4086   18.4624 C   0  0  0  0  0  0  0  0  0  1  0  0
  -26.2717  -29.7962   24.8536 C   0  0  1  0  0  0  0  0  0  0  0  0
  -27.7758  -27.2143   27.1863 C   0  0  2  0  0  0  0  0  0  0  0  0
  -26.2155  -31.2963   25.2584 C   0  0  0  0  0  0  0  0  0  0  0  0
  -24.8997  -14.5874   20.2487 N   0  0  0  0  0  0  0  0  0  0  0  0
  -25.5168  -14.3861   21.4254 N   0  0  0  0  0  0  0  0  0  0  0  0
  -24.8202  -29.4478   22.8755 N   0  0  0  0  0  0  0  0  0  0  0  0
  -25.6182  -17.9489   22.7965 N   0  0  0  0  0  0  0  0  0  0  0  0
  -26.7188  -12.7732   22.6763 N   0  0  0  0  0  0  0  0  0  0  0  0
  -25.7909  -10.6188   18.8171 N   0  0  0  0  0  0  0  0  0  0  0  0
  -27.6841  -18.8142   22.0579 N   0  0  0  0  0  0  0  0  0  0  0  0
  -28.1317  -23.4679   20.8016 N   0  0  0  0  0  0  0  0  0  0  0  0
  -30.4463  -23.6688   18.8640 N   0  0  0  0  0  0  0  0  0  0  0  0
  -21.2688  -29.4502   22.6570 N   0  0  0  0  0  0  0  0  0  0  0  0
  -26.5800  -28.8911   25.9555 N   0  0  0  0  0  0  0  0  0  0  0  0
  -28.3410  -25.8709   26.8749 N   0  3  0  0  0  0  0  0  0  0  0  0
  -31.9226  -23.3573   20.6261 O   0  0  0  0  0  0  0  0  0  0  0  0
  -26.7917  -10.4133   20.8701 O   0  0  0  0  0  0  0  0  0  0  0  0
  -22.8610  -31.1472   22.5702 O   0  0  0  0  0  0  0  0  0  0  0  0
  -24.1128  -28.8309   25.0039 O   0  0  0  0  0  0  0  0  0  0  0  0
  -28.4783  -27.9639   24.9995 O   0  0  0  0  0  0  0  0  0  0  0  0
  -26.5667  -19.7752   23.8494 O   0  0  0  0  0  0  0  0  0  0  0  0
  -22.9929  -12.7015   14.4732 O   0  0  0  0  0  0  0  0  0  0  0  0
  -28.9866  -27.7052   18.9788 O   0  0  0  0  0  0  0  0  0  1  0  0
  -20.3266   -7.9916   13.4190 F   0  0  0  0  0  0  0  0  0  0  0  0
  -20.3456  -12.7180   13.6769 F   0  0  0  0  0  0  0  0  0  0  0  0
  -26.6604  -21.3492   21.7728 F   0  0  0  0  0  0  0  0  0  0  0  0
  -30.5501  -18.0798   21.3358 Cl  0  0  0  0  0  0  0  0  0  0  0  0
  1  2  1  0  0  0  0
  1  5  2  0  0  0  0
  2  6  2  0  0  0  0
  3  8  2  0  0  0  0
  3 16  1  0  0  0  0
  4  9  1  0  0  0  0
  4 16  2  0  0  0  0
  5 19  1  0  0  0  0
  6 21  1  0  0  0  0
  7 10  2  0  0  0  0
  7 20  1  0  0  0  0
  8 25  1  0  0  0  0
  9 25  2  0  0  0  0
 10 26  1  0  0  0  0
 11 12  2  0  0  0  0
 11 27  1  0  0  0  0
 12 28  1  0  0  0  0
 13 17  2  0  0  0  0
 13 31  1  0  0  0  0
 14 22  1  0  0  0  0
 14 26  2  0  0  0  0
 15 28  2  0  0  0  0
 15 29  1  0  0  0  0
 16 32  1  0  0  0  0
 17 23  1  0  0  0  0
 17 34  1  0  0  0  0
 18 32  1  0  0  0  0
 18 33  2  0  0  0  0
 18 35  1  0  0  0  0
 19 21  2  0  0  0  0
 19 40  1  0  0  0  0
 20 22  2  0  0  0  0
 20 41  1  0  0  0  0
 21 49  1  0  0  0  0
 22 42  1  0  0  0  0
 23 30  2  0  0  0  0
 23 71  1  0  0  0  0
 24 30  1  0  0  0  0
 24 31  2  0  0  0  0
 24 70  1  0  0  0  0
 25 82  1  0  0  0  0
 26 83  1  0  0  0  0
 27 29  2  0  0  0  0
 27 82  1  0  0  0  0
 28 84  1  0  0  0  0
 29 85  1  0  0  0  0
 30 86  1  0  0  0  0
 31 87  1  0  0  0  0
 32 64  2  0  0  0  0
 33 65  1  0  0  0  0
 33 68  1  0  0  0  0
 34 72  1  0  0  0  0
 34 76  2  0  0  0  0
 35 69  1  0  0  0  0
 35 77  2  0  0  0  0
 36 50  1  0  0  0  0
 36 73  1  0  0  0  0
 36 78  2  0  0  0  0
 37 61  1  0  0  0  0
 37 66  1  0  0  0  0
 37 79  2  0  0  0  0
 38 62  1  0  0  0  0
 38 74  1  0  0  0  0
 38 80  2  0  0  0  0
 39 67  1  0  0  0  0
 39 70  1  0  0  0  0
 39 81  2  0  0  0  0
 40 43  1  0  0  0  0
 41 50  1  0  0  0  0
 42 66  1  0  0  0  0
 43 45  1  0  0  0  0
 44 46  1  0  0  0  0
 44 47  1  0  0  0  0
 45 49  1  0  0  0  0
 46 51  1  0  0  0  0
 47 67  1  0  0  0  0
 48 51  1  0  0  0  0
 48 67  1  0  0  0  0
 49 73  1  0  0  0  0
 50 66  1  0  0  0  0
 51 65  1  0  0  0  0
 52 62  1  0  0  0  0
 53 63  1  0  0  0  0
 54 63  1  0  0  0  0
 55 63  1  0  0  0  0
 56 71  1  0  0  0  0
 57 75  1  0  0  0  0
 58 59  1  0  0  0  0
 58 60  1  0  0  0  0
 59 72  1  0  0  0  0
 60 83  1  0  0  0  0
 61 63  1  0  0  0  0
 61 74  1  0  0  0  0
 62 75  1  0  0  0  0
 64 65  1  0  0  0  0
M  CHG  1  75   1
M  ISO  4  39 100  60 101  70 100  83 101
M  END
> <Batch ID>
0016

> <Smiles>
CNc1c(C(=O)NCC[101CH2:1][101O:1]c2ccc3c(c2)CN(C(=O)C(NC(=O)C(C)NC)C(C)(C)C)C(C(=O)NC2CCCc4ccccc42)C3)cc(Cl)c([100NH:0][100C:0](=O)N2CCCC(n3nc(-c4ccc(Oc5ccc(F)cc5F)cc4)c(C(N)=O)c3N)C2)c1F

> <Shape>
0.239

> <Color>
0.079

> <Negative vol penalty>
0.000

$$$$

  -OEChem-04052315583D

 86 93  0     1  0  0  0  0  0999 V2000
  -17.0153  -29.0297   24.5425 C   0  0  0  0  0  0  0  0  0  0  0  0
  -17.7465  -27.9505   24.0566 C   0  0  0  0  0  0  0  0  0  0  0  0
  -27.7024  -13.9439   21.7886 C   0  0  0  0  0  0  0  0  0  0  0  0
  -27.2564  -14.1672   19.4246 C   0  0  0  0  0  0  0  0  0  0  0  0
  -17.2385  -30.3079   24.0322 C   0  0  0  0  0  0  0  0  0  0  0  0
  -18.7007  -28.1488   23.0592 C   0  0  0  0  0  0  0  0  0  0  0  0
  -23.0312  -25.6974   23.9987 C   0  0  0  0  0  0  0  0  0  0  0  0
  -26.8026  -12.8803   21.8579 C   0  0  0  0  0  0  0  0  0  0  0  0
  -26.3566  -13.1036   19.4939 C   0  0  0  0  0  0  0  0  0  0  0  0
  -23.0563  -24.3276   23.7404 C   0  0  0  0  0  0  0  0  0  0  0  0
  -23.1701  -12.5980   20.5043 C   0  0  0  0  0  0  0  0  0  0  0  0
  -21.9425  -12.7445   19.8584 C   0  0  0  0  0  0  0  0  0  0  0  0
  -24.1797  -24.7489   21.6476 C   0  0  0  0  0  0  0  0  0  0  0  0
  -22.4423  -10.8286   18.4740 C   0  0  0  0  0  0  0  0  0  0  0  0
  -27.9293  -14.5874   20.5720 C   0  0  0  0  0  0  0  0  0  0  0  0
  -30.2386  -15.6167   20.2326 C   0  0  0  0  0  0  0  0  0  0  0  0
  -18.2026  -30.5234   23.0349 C   0  0  0  0  0  0  0  0  0  0  0  0
  -23.5712  -26.6056   23.0767 C   0  0  0  0  0  0  0  0  0  0  0  0
  -18.9360  -29.4308   22.5342 C   0  0  0  0  0  0  0  0  0  0  0  0
  -24.1624  -26.1296   21.8977 C   0  0  0  0  0  0  0  0  0  0  0  0
  -26.1298  -12.4602   20.7106 C   0  0  0  0  0  0  0  0  0  0  0  0
  -23.6281  -23.8533   22.5634 C   0  0  0  0  0  0  0  0  0  0  0  0
  -24.0338  -11.5668   20.1350 C   0  0  0  0  0  0  0  0  0  0  0  0
  -21.5786  -11.8598   18.8433 C   0  0  0  0  0  0  0  0  0  0  0  0
  -23.6699  -10.6821   19.1199 C   0  0  0  0  0  0  0  0  0  0  0  0
  -28.8582  -15.6865   20.4998 C   0  0  0  0  0  0  0  0  0  0  0  0
  -30.6630  -16.9223   20.2751 C   0  0  0  0  0  0  0  0  0  0  0  0
  -31.0635  -14.4739   19.9695 C   0  0  0  0  0  0  0  0  0  0  0  0
  -22.4055  -28.9982   21.3389 C   0  0  0  0  0  0  0  0  0  0  0  0
  -25.5262  -29.4502   20.5779 C   0  0  0  0  0  0  0  0  0  0  0  0
  -24.7263  -21.3537   15.9587 C   0  0  0  0  0  0  0  0  0  0  0  0
  -28.6581  -28.1263   20.2854 C   0  0  0  0  0  0  0  0  0  0  0  0
  -22.5274  -22.0398   21.6116 C   0  0  0  0  0  0  0  0  0  1  0  0
  -27.8715  -22.1473   19.4045 C   0  0  0  0  0  0  0  0  0  0  0  0
  -18.3752  -31.9155   22.4808 C   0  0  0  0  0  0  0  0  0  0  0  0
  -23.5602  -28.0782   23.3825 C   0  0  0  0  0  0  0  0  0  0  0  0
  -24.7740  -27.0616   20.8850 C   0  0  0  0  0  0  0  0  0  0  0  0
  -19.6679  -32.1005   21.6902 C   0  0  0  0  0  0  0  0  0  0  0  0
  -29.6435  -21.1263   22.3190 C   0  0  0  0  0  0  0  0  0  0  0  0
  -19.8708  -30.9410   20.7200 C   0  0  0  0  0  0  0  0  0  0  0  0
  -29.7678  -19.6101   22.1591 C   0  0  0  0  0  0  0  0  0  0  0  0
  -28.3069  -21.6420   21.7902 C   0  0  0  0  0  0  0  0  0  0  0  0
  -28.1207  -19.7326   20.2431 C   0  0  0  0  0  0  0  0  0  0  0  0
  -19.9972  -29.6096   21.4702 C   0  0  1  0  0  0  0  0  0  0  0  0
  -23.6788  -28.9484   22.1351 C   0  0  1  0  0  0  0  0  0  0  0  0
  -29.4751  -19.1731   20.7112 C   0  0  2  0  0  0  0  0  0  0  0  0
  -30.9963  -28.7305   19.6034 C   0  0  0  0  0  0  0  0  0  0  0  0
  -24.6981  -29.3328   17.6436 C   0  0  0  0  0  0  0  0  0  0  0  0
  -27.1055  -28.9851   17.0503 C   0  0  0  0  0  0  0  0  0  0  0  0
  -26.3928  -31.0920   18.1797 C   0  0  0  0  0  0  0  0  0  0  0  0
  -27.0552  -22.7551   14.5266 C   0  0  0  0  0  0  0  0  0  0  0  0
  -28.5505  -20.9316   15.3308 C   0  0  0  0  0  0  0  0  0  0  0  0
  -29.7238  -27.5233   22.9797 C   0  0  0  0  0  0  0  0  0  0  0  0
  -26.0854  -20.7219   15.7053 C   0  0  0  0  0  0  0  0  0  0  0  0
  -22.6666  -20.5493   21.3866 C   0  0  0  0  0  0  0  0  0  0  0  0
  -21.9527  -20.0649   20.1249 C   0  0  0  0  0  0  0  0  0  0  0  0
  -22.5362  -20.6823   18.8492 C   0  0  0  0  0  0  0  0  0  0  0  0
  -21.7760  -20.2057   17.6074 C   0  0  0  0  0  0  0  0  0  0  0  0
  -22.3316  -20.7921   16.3130 C   0  0  0  0  0  0  0  0  0  0  0  0
  -27.4514  -22.4940   16.9833 C   0  0  0  0  0  0  0  0  0  0  0  0
  -26.4489  -28.9362   19.4993 C   0  0  1  0  0  0  0  0  0  0  0  0
  -30.0113  -28.6267   20.7575 C   0  0  2  0  0  0  0  0  0  0  0  0
  -26.1482  -29.5688   18.1112 C   0  0  0  0  0  0  0  0  0  0  0  0
  -27.2658  -21.7252   15.6539 C   0  0  0  0  0  0  0  0  0  0  0  0
  -28.4339  -16.9374   20.6976 N   0  0  0  0  0  0  0  0  0  0  0  0
  -29.5542  -17.6657   20.5546 N   0  0  0  0  0  0  0  0  0  0  0  0
  -24.7330  -28.4931   21.2265 N   0  0  0  0  0  0  0  0  0  0  0  0
  -28.0910  -21.1938   20.4123 N   0  0  0  0  0  0  0  0  0  0  0  0
  -31.8727  -17.4954   20.1003 N   0  0  0  0  0  0  0  0  0  0  0  0
  -30.4662  -13.2060   19.9631 N   0  0  0  0  0  0  0  0  0  0  0  0
  -21.3186  -29.4769   22.0453 N   0  0  0  0  0  0  0  0  0  0  0  0
  -23.7009  -20.4251   16.0767 N   0  0  0  0  0  0  0  0  0  0  0  0
  -27.8069  -29.1672   19.9796 N   0  0  0  0  0  0  0  0  0  0  0  0
  -27.6822  -21.6381   18.1256 N   0  0  0  0  0  0  0  0  0  0  0  0
  -30.5788  -27.7007   21.7779 N   0  3  0  0  0  0  0  0  0  0  0  0
  -32.2968  -14.5726   19.7628 O   0  0  0  0  0  0  0  0  0  0  0  0
  -22.4092  -28.6309   20.1698 O   0  0  0  0  0  0  0  0  0  0  0  0
  -25.5151  -30.6554   20.8405 O   0  0  0  0  0  0  0  0  0  0  0  0
  -24.5873  -22.5725   16.0405 O   0  0  0  0  0  0  0  0  0  0  0  0
  -28.3847  -26.9316   20.1933 O   0  0  0  0  0  0  0  0  0  0  0  0
  -21.5709  -22.7208   21.2671 O   0  0  0  0  0  0  0  0  0  0  0  0
  -27.8514  -23.3627   19.6270 O   0  0  0  0  0  0  0  0  0  0  0  0
  -25.2519  -11.4222   20.7778 O   0  0  0  0  0  0  0  0  0  0  0  0
  -23.6534  -22.5168   22.3086 O   0  0  0  0  0  0  0  0  0  1  0  0
  -20.3991  -11.9997   18.2242 F   0  0  0  0  0  0  0  0  0  0  0  0
  -24.4950   -9.6889   18.7615 F   0  0  0  0  0  0  0  0  0  0  0  0
  1  2  1  0  0  0  0
  1  5  2  0  0  0  0
  2  6  2  0  0  0  0
  3  8  2  0  0  0  0
  3 15  1  0  0  0  0
  4  9  1  0  0  0  0
  4 15  2  0  0  0  0
  5 17  1  0  0  0  0
  6 19  1  0  0  0  0
  7 10  2  0  0  0  0
  7 18  1  0  0  0  0
  8 21  1  0  0  0  0
  9 21  2  0  0  0  0
 10 22  1  0  0  0  0
 11 12  2  0  0  0  0
 11 23  1  0  0  0  0
 12 24  1  0  0  0  0
 13 20  1  0  0  0  0
 13 22  2  0  0  0  0
 14 24  2  0  0  0  0
 14 25  1  0  0  0  0
 15 26  1  0  0  0  0
 16 26  1  0  0  0  0
 16 27  2  0  0  0  0
 16 28  1  0  0  0  0
 17 19  2  0  0  0  0
 17 35  1  0  0  0  0
 18 20  2  0  0  0  0
 18 36  1  0  0  0  0
 19 44  1  0  0  0  0
 20 37  1  0  0  0  0
 21 83  1  0  0  0  0
 22 84  1  0  0  0  0
 23 25  2  0  0  0  0
 23 83  1  0  0  0  0
 24 85  1  0  0  0  0
 25 86  1  0  0  0  0
 26 65  2  0  0  0  0
 27 66  1  0  0  0  0
 27 69  1  0  0  0  0
 28 70  1  0  0  0  0
 28 76  2  0  0  0  0
 29 45  1  0  0  0  0
 29 71  1  0  0  0  0
 29 77  2  0  0  0  0
 30 61  1  0  0  0  0
 30 67  1  0  0  0  0
 30 78  2  0  0  0  0
 31 54  1  0  0  0  0
 31 72  1  0  0  0  0
 31 79  2  0  0  0  0
 32 62  1  0  0  0  0
 32 73  1  0  0  0  0
 32 80  2  0  0  0  0
 33 55  1  0  0  0  0
 33 81  2  0  0  0  0
 33 84  1  0  0  0  0
 34 68  1  0  0  0  0
 34 74  1  0  0  0  0
 34 82  2  0  0  0  0
 35 38  1  0  0  0  0
 36 45  1  0  0  0  0
 37 67  1  0  0  0  0
 38 40  1  0  0  0  0
 39 41  1  0  0  0  0
 39 42  1  0  0  0  0
 40 44  1  0  0  0  0
 41 46  1  0  0  0  0
 42 68  1  0  0  0  0
 43 46  1  0  0  0  0
 43 68  1  0  0  0  0
 44 71  1  0  0  0  0
 45 67  1  0  0  0  0
 46 66  1  0  0  0  0
 47 62  1  0  0  0  0
 48 63  1  0  0  0  0
 49 63  1  0  0  0  0
 50 63  1  0  0  0  0
 51 64  1  0  0  0  0
 52 64  1  0  0  0  0
 53 75  1  0  0  0  0
 54 64  1  0  0  0  0
 55 56  1  0  0  0  0
 56 57  1  0  0  0  0
 57 58  1  0  0  0  0
 58 59  1  0  0  0  0
 59 72  1  0  0  0  0
 60 64  1  0  0  0  0
 60 74  1  0  0  0  0
 61 63  1  0  0  0  0
 61 73  1  0  0  0  0
 62 75  1  0  0  0  0
 65 66  1  0  0  0  0
M  CHG  1  75   1
M  ISO  4  33 101  34 100  74 100  84 101
M  END
> <Batch ID>
0016

> <Smiles>
CNC(C)C(=O)NC(C(=O)N1Cc2cc([101O:1][101C:1](=O)CCCCCNC(=O)CC(C)(C)C[100NH:0][100C:0](=O)N3CCCC(n4nc(-c5ccc(Oc6ccc(F)cc6F)cc5)c(C(N)=O)c4N)C3)ccc2CC1C(=O)NC1CCCc2ccccc21)C(C)(C)C

> <Shape>
0.224

> <Color>
0.082

> <Negative vol penalty>
0.000

$$$$

  -OEChem-04052315583D

 84 92  0     1  0  0  0  0  0999 V2000
  -31.4414  -22.5785   15.1112 C   0  0  0  0  0  0  0  0  0  0  0  0
  -31.0117  -22.4074   16.4232 C   0  0  0  0  0  0  0  0  0  0  0  0
  -23.1392   -9.8702   19.8904 C   0  0  0  0  0  0  0  0  0  0  0  0
  -23.9283   -9.8114   22.1731 C   0  0  0  0  0  0  0  0  0  0  0  0
  -31.5960  -23.8630   14.5914 C   0  0  0  0  0  0  0  0  0  0  0  0
  -30.7374  -23.5209   17.2167 C   0  0  0  0  0  0  0  0  0  0  0  0
  -26.4221  -23.0344   19.8217 C   0  0  0  0  0  0  0  0  0  0  0  0
  -22.4618   -8.6680   20.0935 C   0  0  0  0  0  0  0  0  0  0  0  0
  -23.2508   -8.6091   22.3763 C   0  0  0  0  0  0  0  0  0  0  0  0
  -26.4549  -22.2369   20.9648 C   0  0  0  0  0  0  0  0  0  0  0  0
  -20.0786   -7.6100   22.9754 C   0  0  0  0  0  0  0  0  0  0  0  0
  -19.3406   -7.4744   24.1513 C   0  0  0  0  0  0  0  0  0  0  0  0
  -26.6256  -24.2160   22.3334 C   0  0  0  0  0  0  0  0  0  0  0  0
  -31.7895  -16.9331   22.6887 C   0  0  0  0  0  0  0  0  0  0  0  0
  -20.6941   -5.5750   24.7817 C   0  0  0  0  0  0  0  0  0  0  0  0
  -23.8725  -10.4419   20.9302 C   0  0  0  0  0  0  0  0  0  0  0  0
  -24.0766  -12.9848   20.9261 C   0  0  0  0  0  0  0  0  0  0  0  0
  -31.3142  -24.9926   15.3758 C   0  0  0  0  0  0  0  0  0  0  0  0
  -26.5019  -24.4305   19.9254 C   0  0  0  0  0  0  0  0  0  0  0  0
  -30.8897  -24.8216   16.7073 C   0  0  0  0  0  0  0  0  0  0  0  0
  -26.5910  -25.0291   21.1903 C   0  0  0  0  0  0  0  0  0  0  0  0
  -32.3772  -17.7928   23.6167 C   0  0  0  0  0  0  0  0  0  0  0  0
  -30.1870  -18.5359   24.3153 C   0  0  0  0  0  0  0  0  0  0  0  0
  -30.4006  -16.8749   22.5739 C   0  0  0  0  0  0  0  0  0  0  0  0
  -22.5176   -8.0374   21.3365 C   0  0  0  0  0  0  0  0  0  0  0  0
  -26.5596  -22.8275   22.2207 C   0  0  0  0  0  0  0  0  0  0  0  0
  -21.1243   -6.7280   22.7026 C   0  0  0  0  0  0  0  0  0  0  0  0
  -19.6484   -6.4569   25.0544 C   0  0  0  0  0  0  0  0  0  0  0  0
  -21.4320   -5.7105   23.6057 C   0  0  0  0  0  0  0  0  0  0  0  0
  -31.5760  -18.5941   24.4300 C   0  0  0  0  0  0  0  0  0  0  0  0
  -29.5993  -17.6762   23.3873 C   0  0  0  0  0  0  0  0  0  0  0  0
  -24.5730  -11.6835   20.7208 C   0  0  0  0  0  0  0  0  0  0  0  0
  -25.1219  -13.8086   20.5869 C   0  0  0  0  0  0  0  0  0  0  0  0
  -22.7860  -13.4107   21.3828 C   0  0  0  0  0  0  0  0  0  0  0  0
  -28.5466  -26.6420   18.9094 C   0  0  0  0  0  0  0  0  0  0  0  0
  -26.3241  -28.6845   20.0971 C   0  0  0  0  0  0  0  0  0  0  0  0
  -23.7404  -29.2150   22.2628 C   0  0  0  0  0  0  0  0  0  0  0  0
  -30.5259  -15.1401   20.7515 C   0  0  0  0  0  0  0  0  0  0  0  0
  -31.5416  -26.3616   14.7852 C   0  0  0  0  0  0  0  0  0  0  0  0
  -26.4383  -25.2780   18.6844 C   0  0  0  0  0  0  0  0  0  0  0  0
  -26.6592  -26.5245   21.3569 C   0  0  0  0  0  0  0  0  0  0  0  0
  -30.8705  -27.4839   15.5728 C   0  0  0  0  0  0  0  0  0  0  0  0
  -29.5111  -12.7825   18.2839 C   0  0  0  0  0  0  0  0  0  0  0  0
  -31.1389  -27.3227   17.0657 C   0  0  0  0  0  0  0  0  0  0  0  0
  -28.0951  -12.3935   18.7148 C   0  0  0  0  0  0  0  0  0  0  0  0
  -30.4287  -13.0043   19.4850 C   0  0  0  0  0  0  0  0  0  0  0  0
  -28.5042  -13.5589   20.9196 C   0  0  0  0  0  0  0  0  0  0  0  0
  -30.5584  -26.0043   17.5914 C   0  0  1  0  0  0  0  0  0  0  0  0
  -27.0446  -26.6648   18.8761 C   0  0  1  0  0  0  0  0  0  0  0  0
  -27.5264  -13.3883   19.7456 C   0  0  2  0  0  0  0  0  0  0  0  0
  -33.8695  -17.8216   23.7042 C   0  0  0  0  0  0  0  0  0  0  0  0
  -22.1497  -30.9965   23.0329 C   0  0  0  0  0  0  0  0  0  0  0  0
  -28.5612  -29.9771   21.7201 C   0  0  0  0  0  0  0  0  0  0  0  0
  -26.8086  -31.0690   23.1359 C   0  0  0  0  0  0  0  0  0  0  0  0
  -26.9457  -31.5911   20.7004 C   0  0  0  0  0  0  0  0  0  0  0  0
  -21.3847  -27.6560   21.3800 C   0  0  0  0  0  0  0  0  0  0  0  0
  -29.3260  -19.3981   25.1906 C   0  0  0  0  0  0  0  0  0  0  0  0
  -27.8306  -21.3962   25.2926 C   0  0  0  0  0  0  0  0  0  0  0  0
  -27.3218  -22.5541   24.4569 C   0  0  0  0  0  0  0  0  0  1  0  0
  -26.0768  -29.3341   21.4372 C   0  0  1  0  0  0  0  0  0  0  0  0
  -22.3735  -29.8450   22.0650 C   0  0  2  0  0  0  0  0  0  0  0  0
  -27.0988  -30.4645   21.7455 C   0  0  0  0  0  0  0  0  0  0  0  0
  -25.8355  -11.6761   20.2847 N   0  0  0  0  0  0  0  0  0  0  0  0
  -26.1411  -12.9829   20.2132 N   0  0  0  0  0  0  0  0  0  0  0  0
  -26.5998  -27.3100   20.1131 N   0  0  0  0  0  0  0  0  0  0  0  0
  -29.8269  -13.9612   20.4162 N   0  0  0  0  0  0  0  0  0  0  0  0
  -25.2595  -15.1514   20.5747 N   0  0  0  0  0  0  0  0  0  0  0  0
  -21.8290  -12.4332   21.6876 N   0  0  0  0  0  0  0  0  0  0  0  0
  -29.8408  -15.9894   21.6198 N   0  0  0  0  0  0  0  0  0  0  0  0
  -29.1267  -26.1180   17.7699 N   0  0  0  0  0  0  0  0  0  0  0  0
  -24.6854  -29.7727   21.4278 N   0  0  0  0  0  0  0  0  0  0  0  0
  -21.3007  -28.8336   22.2818 N   0  3  0  0  0  0  0  0  0  0  0  0
  -28.7361  -20.5572   24.4677 N   0  3  0  0  0  0  0  0  0  0  0  0
  -22.4847  -14.6227   21.5009 O   0  0  0  0  0  0  0  0  0  0  0  0
  -29.1357  -27.0697   19.8952 O   0  0  0  0  0  0  0  0  0  0  0  0
  -26.2673  -29.3701   19.0732 O   0  0  0  0  0  0  0  0  0  0  0  0
  -23.9497  -28.3204   23.0791 O   0  0  0  0  0  0  0  0  0  0  0  0
  -31.6379  -15.3915   20.2802 O   0  0  0  0  0  0  0  0  0  0  0  0
  -21.8565   -6.8644   21.5352 O   0  0  0  0  0  0  0  0  0  0  0  0
  -26.5924  -22.0514   23.3381 O   0  0  0  0  0  0  0  0  0  1  0  0
  -18.9406   -6.3278   26.1843 F   0  0  0  0  0  0  0  0  0  0  0  0
  -22.4362   -4.8609   23.3497 F   0  0  0  0  0  0  0  0  0  0  0  0
  -32.3135  -19.6597   25.5806 Cl  0  0  0  0  0  0  0  0  0  0  0  0
  -27.8719  -17.6029   23.2438 Cl  0  0  0  0  0  0  0  0  0  0  0  0
  1  2  1  0  0  0  0
  1  5  2  0  0  0  0
  2  6  2  0  0  0  0
  3  8  2  0  0  0  0
  3 16  1  0  0  0  0
  4  9  1  0  0  0  0
  4 16  2  0  0  0  0
  5 18  1  0  0  0  0
  6 20  1  0  0  0  0
  7 10  2  0  0  0  0
  7 19  1  0  0  0  0
  8 25  1  0  0  0  0
  9 25  2  0  0  0  0
 10 26  1  0  0  0  0
 11 12  2  0  0  0  0
 11 27  1  0  0  0  0
 12 28  1  0  0  0  0
 13 21  1  0  0  0  0
 13 26  2  0  0  0  0
 14 22  1  0  0  0  0
 14 24  2  0  0  0  0
 15 28  2  0  0  0  0
 15 29  1  0  0  0  0
 16 32  1  0  0  0  0
 17 32  1  0  0  0  0
 17 33  2  0  0  0  0
 17 34  1  0  0  0  0
 18 20  2  0  0  0  0
 18 39  1  0  0  0  0
 19 21  2  0  0  0  0
 19 40  1  0  0  0  0
 20 48  1  0  0  0  0
 21 41  1  0  0  0  0
 22 30  2  0  0  0  0
 22 51  1  0  0  0  0
 23 30  1  0  0  0  0
 23 31  2  0  0  0  0
 23 57  1  0  0  0  0
 24 31  1  0  0  0  0
 24 69  1  0  0  0  0
 25 79  1  0  0  0  0
 26 80  1  0  0  0  0
 27 29  2  0  0  0  0
 27 79  1  0  0  0  0
 28 81  1  0  0  0  0
 29 82  1  0  0  0  0
 30 83  1  0  0  0  0
 31 84  1  0  0  0  0
 32 63  2  0  0  0  0
 33 64  1  0  0  0  0
 33 67  1  0  0  0  0
 34 68  1  0  0  0  0
 34 74  2  0  0  0  0
 35 49  1  0  0  0  0
 35 70  1  0  0  0  0
 35 75  2  0  0  0  0
 36 60  1  0  0  0  0
 36 65  1  0  0  0  0
 36 76  2  0  0  0  0
 37 61  1  0  0  0  0
 37 71  1  0  0  0  0
 37 77  2  0  0  0  0
 38 66  1  0  0  0  0
 38 69  1  0  0  0  0
 38 78  2  0  0  0  0
 39 42  1  0  0  0  0
 40 49  1  0  0  0  0
 41 65  1  0  0  0  0
 42 44  1  0  0  0  0
 43 45  1  0  0  0  0
 43 46  1  0  0  0  0
 44 48  1  0  0  0  0
 45 50  1  0  0  0  0
 46 66  1  0  0  0  0
 47 50  1  0  0  0  0
 47 66  1  0  0  0  0
 48 70  1  0  0  0  0
 49 65  1  0  0  0  0
 50 64  1  0  0  0  0
 52 61  1  0  0  0  0
 53 62  1  0  0  0  0
 54 62  1  0  0  0  0
 55 62  1  0  0  0  0
 56 72  1  0  0  0  0
 57 73  1  0  0  0  0
 58 59  1  0  0  0  0
 58 73  1  0  0  0  0
 59 80  1  0  0  0  0
 60 62  1  0  0  0  0
 60 71  1  0  0  0  0
 61 72  1  0  0  0  0
 63 64  1  0  0  0  0
M  CHG  2  72   1  73   1
M  ISO  4  38 100  59 101  69 100  80 101
M  END
> <Batch ID>
0016

> <Smiles>
CNC(C)C(=O)NC(C(=O)N1Cc2cc([101O:1][101CH2:1]CNCc3c(Cl)c(C)cc([100NH:0][100C:0](=O)N4CCCC(n5nc(-c6ccc(Oc7ccc(F)cc7F)cc6)c(C(N)=O)c5N)C4)c3Cl)ccc2CC1C(=O)NC1CCCc2ccccc21)C(C)(C)C

> <Shape>
0.303

> <Color>
0.223

> <Negative vol penalty>
0.000

$$$$

  -OEChem-04052315583D

 93101  0     1  0  0  0  0  0999 V2000
  -28.9552  -18.0075   18.7921 C   0  0  0  0  0  0  0  0  0  0  0  0
  -28.6150  -19.2840   19.2282 C   0  0  0  0  0  0  0  0  0  0  0  0
  -23.1950   -9.8601   19.9441 C   0  0  0  0  0  0  0  0  0  0  0  0
  -23.9106   -9.9230   22.2508 C   0  0  0  0  0  0  0  0  0  0  0  0
  -30.1254  -17.8110   18.0600 C   0  0  0  0  0  0  0  0  0  0  0  0
  -29.4454  -20.3647   18.9333 C   0  0  0  0  0  0  0  0  0  0  0  0
  -26.8648  -24.4182   17.3351 C   0  0  0  0  0  0  0  0  0  0  0  0
  -22.5010   -8.6758   20.1917 C   0  0  0  0  0  0  0  0  0  0  0  0
  -23.2165   -8.7387   22.4984 C   0  0  0  0  0  0  0  0  0  0  0  0
  -26.2215  -25.1864   18.3046 C   0  0  0  0  0  0  0  0  0  0  0  0
  -20.0182   -7.7966   23.0495 C   0  0  0  0  0  0  0  0  0  0  0  0
  -19.2421   -7.7319   24.2067 C   0  0  0  0  0  0  0  0  0  0  0  0
  -28.0351  -26.7757   18.2400 C   0  0  0  0  0  0  0  0  0  0  0  0
  -32.5906  -17.0722   24.8163 C   0  0  0  0  0  0  0  0  0  0  0  0
  -32.4606  -15.8156   22.7570 C   0  0  0  0  0  0  0  0  0  0  0  0
  -20.5582   -5.8611   24.9847 C   0  0  0  0  0  0  0  0  0  0  0  0
  -23.8999  -10.4837   20.9737 C   0  0  0  0  0  0  0  0  0  0  0  0
  -24.1262  -13.0209   20.8352 C   0  0  0  0  0  0  0  0  0  0  0  0
  -30.9656  -18.8913   17.7477 C   0  0  0  0  0  0  0  0  0  0  0  0
  -28.1053  -24.8181   16.8178 C   0  0  0  0  0  0  0  0  0  0  0  0
  -30.6286  -20.1822   18.1974 C   0  0  0  0  0  0  0  0  0  0  0  0
  -28.6908  -26.0122   17.2622 C   0  0  0  0  0  0  0  0  0  0  0  0
  -31.2973  -16.6667   25.1455 C   0  0  0  0  0  0  0  0  0  0  0  0
  -31.1672  -15.4100   23.0862 C   0  0  0  0  0  0  0  0  0  0  0  0
  -22.5117   -8.1151   21.4688 C   0  0  0  0  0  0  0  0  0  0  0  0
  -26.8080  -26.3638   18.7593 C   0  0  0  0  0  0  0  0  0  0  0  0
  -21.0643   -6.8935   22.8599 C   0  0  0  0  0  0  0  0  0  0  0  0
  -33.1723  -16.6467   23.6220 C   0  0  0  0  0  0  0  0  0  0  0  0
  -19.5121   -6.7641   25.1743 C   0  0  0  0  0  0  0  0  0  0  0  0
  -21.3343   -5.9258   23.8275 C   0  0  0  0  0  0  0  0  0  0  0  0
  -30.5856  -15.8356   24.2805 C   0  0  0  0  0  0  0  0  0  0  0  0
  -24.6175  -11.7068   20.7184 C   0  0  0  0  0  0  0  0  0  0  0  0
  -25.1889  -13.8172   20.4846 C   0  0  0  0  0  0  0  0  0  0  0  0
  -22.8255  -13.4806   21.2257 C   0  0  0  0  0  0  0  0  0  0  0  0
  -31.0315  -23.5768   16.7949 C   0  0  0  0  0  0  0  0  0  0  0  0
  -31.6657  -26.1020   14.8601 C   0  0  0  0  0  0  0  0  0  0  0  0
  -30.0775  -19.5395   26.1732 C   0  0  0  0  0  0  0  0  0  0  0  0
  -30.8380  -29.2531   13.8439 C   0  0  0  0  0  0  0  0  0  0  0  0
  -30.9392  -14.0730   20.9633 C   0  0  0  0  0  0  0  0  0  0  0  0
  -32.2442  -18.6223   16.9943 C   0  0  0  0  0  0  0  0  0  0  0  0
  -28.7736  -23.9922   15.7531 C   0  0  0  0  0  0  0  0  0  0  0  0
  -30.0117  -26.4960   16.7240 C   0  0  0  0  0  0  0  0  0  0  0  0
  -32.8782  -19.8785   16.4025 C   0  0  0  0  0  0  0  0  0  0  0  0
  -29.3608  -13.1289   17.9146 C   0  0  0  0  0  0  0  0  0  0  0  0
  -32.9090  -20.9991   17.4370 C   0  0  0  0  0  0  0  0  0  0  0  0
  -27.9283  -12.7941   18.3365 C   0  0  0  0  0  0  0  0  0  0  0  0
  -30.3781  -12.6991   18.9701 C   0  0  0  0  0  0  0  0  0  0  0  0
  -28.6806  -12.8613   20.7483 C   0  0  0  0  0  0  0  0  0  0  0  0
  -31.4910  -21.3836   17.8762 C   0  0  1  0  0  0  0  0  0  0  0  0
  -30.2784  -24.2288   15.6699 C   0  0  1  0  0  0  0  0  0  0  0  0
  -27.6152  -13.3340   19.7458 C   0  0  2  0  0  0  0  0  0  0  0  0
  -31.5644  -31.0712   12.2741 C   0  0  0  0  0  0  0  0  0  0  0  0
  -33.9577  -26.8108   16.7454 C   0  0  0  0  0  0  0  0  0  0  0  0
  -34.0229  -29.0843   15.6990 C   0  0  0  0  0  0  0  0  0  0  0  0
  -34.4904  -27.0624   14.3148 C   0  0  0  0  0  0  0  0  0  0  0  0
  -28.2720  -29.1667   12.3717 C   0  0  0  0  0  0  0  0  0  0  0  0
  -35.1044  -17.8929   24.2302 C   0  0  0  0  0  0  0  0  0  0  0  0
  -30.7125  -17.1496   26.4413 C   0  0  0  0  0  0  0  0  0  0  0  0
  -28.8561  -20.4140   25.9507 C   0  0  0  0  0  0  0  0  0  0  0  0
  -29.1840  -21.6888   25.1768 C   0  0  0  0  0  0  0  0  0  0  0  0
  -27.9302  -22.5314   24.9340 C   0  0  0  0  0  0  0  0  0  0  0  0
  -28.2563  -23.7890   24.1254 C   0  0  0  0  0  0  0  0  0  0  0  0
  -27.0241  -24.6347   23.7912 C   0  0  0  0  0  0  0  0  0  0  0  0
  -27.3533  -25.9058   23.0036 C   0  0  0  0  0  0  0  0  0  0  0  0
  -26.0836  -26.6977   22.6799 C   0  0  0  0  0  0  0  0  0  0  0  0
  -26.3618  -28.0222   21.9604 C   0  0  0  0  0  0  0  0  0  0  0  0
  -27.0076  -27.8725   20.5868 C   0  0  0  0  0  0  0  0  0  1  0  0
  -32.1236  -27.5245   15.0743 C   0  0  1  0  0  0  0  0  0  0  0  0
  -30.6717  -29.8540   12.4599 C   0  0  2  0  0  0  0  0  0  0  0  0
  -33.6247  -27.6107   15.4701 C   0  0  0  0  0  0  0  0  0  0  0  0
  -25.8930  -11.6664   20.3243 N   0  0  0  0  0  0  0  0  0  0  0  0
  -26.2122  -12.9649   20.1903 N   0  0  0  0  0  0  0  0  0  0  0  0
  -30.6289  -25.6504   15.6889 N   0  0  0  0  0  0  0  0  0  0  0  0
  -30.0193  -13.2511   20.2783 N   0  0  0  0  0  0  0  0  0  0  0  0
  -25.3386  -15.1563   20.4024 N   0  0  0  0  0  0  0  0  0  0  0  0
  -21.8507  -12.5283   21.5533 N   0  0  0  0  0  0  0  0  0  0  0  0
  -30.4752  -14.5663   22.1823 N   0  0  0  0  0  0  0  0  0  0  0  0
  -30.8564  -22.2082   16.8703 N   0  0  0  0  0  0  0  0  0  0  0  0
  -29.7377  -18.1960   26.2378 N   0  0  0  0  0  0  0  0  0  0  0  0
  -31.7845  -28.2505   13.8551 N   0  0  0  0  0  0  0  0  0  0  0  0
  -29.2575  -30.2708   12.2426 N   0  3  0  0  0  0  0  0  0  0  0  0
  -22.5312  -14.6993   21.2666 O   0  0  0  0  0  0  0  0  0  0  0  0
  -31.7215  -24.2644   17.5384 O   0  0  0  0  0  0  0  0  0  0  0  0
  -32.2032  -25.4191   13.9846 O   0  0  0  0  0  0  0  0  0  0  0  0
  -31.2159  -19.9879   26.2782 O   0  0  0  0  0  0  0  0  0  0  0  0
  -30.1954  -29.6374   14.8186 O   0  0  0  0  0  0  0  0  0  0  0  0
  -32.0459  -14.3429   20.4897 O   0  0  0  0  0  0  0  0  0  0  0  0
  -21.8344   -6.9596   21.7109 O   0  0  0  0  0  0  0  0  0  0  0  0
  -34.4341  -17.0429   23.3007 O   0  0  0  0  0  0  0  0  0  0  0  0
  -26.1778  -27.1208   19.7132 O   0  0  0  0  0  0  0  0  0  1  0  0
  -18.7678   -6.7031   26.2862 F   0  0  0  0  0  0  0  0  0  0  0  0
  -22.3387   -5.0563   23.6514 F   0  0  0  0  0  0  0  0  0  0  0  0
  -28.9786  -15.3350   24.6954 Cl  0  0  0  0  0  0  0  0  0  0  0  0
  1  2  1  0  0  0  0
  1  5  2  0  0  0  0
  2  6  2  0  0  0  0
  3  8  2  0  0  0  0
  3 17  1  0  0  0  0
  4  9  1  0  0  0  0
  4 17  2  0  0  0  0
  5 19  1  0  0  0  0
  6 21  1  0  0  0  0
  7 10  2  0  0  0  0
  7 20  1  0  0  0  0
  8 25  1  0  0  0  0
  9 25  2  0  0  0  0
 10 26  1  0  0  0  0
 11 12  2  0  0  0  0
 11 27  1  0  0  0  0
 12 29  1  0  0  0  0
 13 22  1  0  0  0  0
 13 26  2  0  0  0  0
 14 23  1  0  0  0  0
 14 28  2  0  0  0  0
 15 24  2  0  0  0  0
 15 28  1  0  0  0  0
 16 29  2  0  0  0  0
 16 30  1  0  0  0  0
 17 32  1  0  0  0  0
 18 32  1  0  0  0  0
 18 33  2  0  0  0  0
 18 34  1  0  0  0  0
 19 21  2  0  0  0  0
 19 40  1  0  0  0  0
 20 22  2  0  0  0  0
 20 41  1  0  0  0  0
 21 49  1  0  0  0  0
 22 42  1  0  0  0  0
 23 31  2  0  0  0  0
 23 58  1  0  0  0  0
 24 31  1  0  0  0  0
 24 77  1  0  0  0  0
 25 88  1  0  0  0  0
 26 90  1  0  0  0  0
 27 30  2  0  0  0  0
 27 88  1  0  0  0  0
 28 89  1  0  0  0  0
 29 91  1  0  0  0  0
 30 92  1  0  0  0  0
 31 93  1  0  0  0  0
 32 71  2  0  0  0  0
 33 72  1  0  0  0  0
 33 75  1  0  0  0  0
 34 76  1  0  0  0  0
 34 82  2  0  0  0  0
 35 50  1  0  0  0  0
 35 78  1  0  0  0  0
 35 83  2  0  0  0  0
 36 68  1  0  0  0  0
 36 73  1  0  0  0  0
 36 84  2  0  0  0  0
 37 59  1  0  0  0  0
 37 79  1  0  0  0  0
 37 85  2  0  0  0  0
 38 69  1  0  0  0  0
 38 80  1  0  0  0  0
 38 86  2  0  0  0  0
 39 74  1  0  0  0  0
 39 77  1  0  0  0  0
 39 87  2  0  0  0  0
 40 43  1  0  0  0  0
 41 50  1  0  0  0  0
 42 73  1  0  0  0  0
 43 45  1  0  0  0  0
 44 46  1  0  0  0  0
 44 47  1  0  0  0  0
 45 49  1  0  0  0  0
 46 51  1  0  0  0  0
 47 74  1  0  0  0  0
 48 51  1  0  0  0  0
 48 74  1  0  0  0  0
 49 78  1  0  0  0  0
 50 73  1  0  0  0  0
 51 72  1  0  0  0  0
 52 69  1  0  0  0  0
 53 70  1  0  0  0  0
 54 70  1  0  0  0  0
 55 70  1  0  0  0  0
 56 81  1  0  0  0  0
 57 89  1  0  0  0  0
 58 79  1  0  0  0  0
 59 60  1  0  0  0  0
 60 61  1  0  0  0  0
 61 62  1  0  0  0  0
 62 63  1  0  0  0  0
 63 64  1  0  0  0  0
 64 65  1  0  0  0  0
 65 66  1  0  0  0  0
 66 67  1  0  0  0  0
 67 90  1  0  0  0  0
 68 70  1  0  0  0  0
 68 80  1  0  0  0  0
 69 81  1  0  0  0  0
 71 72  1  0  0  0  0
M  CHG  1  81   1
M  ISO  4  39 100  67 101  77 100  90 101
M  END
> <Batch ID>
0016

> <Smiles>
CNC(C)C(=O)NC(C(=O)N1Cc2cc([101O:1][101CH2:1]CCCCCCCCC(=O)NCc3cc(OC)cc([100NH:0][100C:0](=O)N4CCCC(n5nc(-c6ccc(Oc7ccc(F)cc7F)cc6)c(C(N)=O)c5N)C4)c3Cl)ccc2CC1C(=O)NC1CCCc2ccccc21)C(C)(C)C

> <Shape>
0.220

> <Color>
0.182

> <Negative vol penalty>
0.000

$$$$

  -OEChem-04052315583D

 83 91  0     1  0  0  0  0  0999 V2000
  -32.9330  -33.1193   14.9259 C   0  0  0  0  0  0  0  0  0  0  0  0
  -33.5066  -32.0835   15.6563 C   0  0  0  0  0  0  0  0  0  0  0  0
  -23.0688   -9.8827   19.9390 C   0  0  0  0  0  0  0  0  0  0  0  0
  -23.8300   -9.8813   22.2319 C   0  0  0  0  0  0  0  0  0  0  0  0
  -31.5826  -33.4237   15.0924 C   0  0  0  0  0  0  0  0  0  0  0  0
  -32.7303  -31.3521   16.5545 C   0  0  0  0  0  0  0  0  0  0  0  0
  -33.2399  -25.3893   17.8549 C   0  0  0  0  0  0  0  0  0  0  0  0
  -22.3186   -8.7334   20.1873 C   0  0  0  0  0  0  0  0  0  0  0  0
  -23.0798   -8.7319   22.4803 C   0  0  0  0  0  0  0  0  0  0  0  0
  -33.8593  -24.7071   18.9012 C   0  0  0  0  0  0  0  0  0  0  0  0
  -19.8475   -7.9512   23.0833 C   0  0  0  0  0  0  0  0  0  0  0  0
  -19.0910   -7.9134   24.2545 C   0  0  0  0  0  0  0  0  0  0  0  0
  -31.7511  -24.5954   20.0684 C   0  0  0  0  0  0  0  0  0  0  0  0
  -20.3219   -5.9677   24.9868 C   0  0  0  0  0  0  0  0  0  0  0  0
  -23.8246  -10.4567   20.9613 C   0  0  0  0  0  0  0  0  0  0  0  0
  -24.1806  -12.9801   20.8456 C   0  0  0  0  0  0  0  0  0  0  0  0
  -30.7871  -32.6894   15.9861 C   0  0  0  0  0  0  0  0  0  0  0  0
  -31.8714  -25.6898   17.9126 C   0  0  0  0  0  0  0  0  0  0  0  0
  -31.3683  -31.6479   16.7342 C   0  0  0  0  0  0  0  0  0  0  0  0
  -31.1162  -25.2793   19.0205 C   0  0  0  0  0  0  0  0  0  0  0  0
  -22.3240   -8.1580   21.4580 C   0  0  0  0  0  0  0  0  0  0  0  0
  -33.1155  -24.3125   20.0095 C   0  0  0  0  0  0  0  0  0  0  0  0
  -20.8412   -6.9972   22.8637 C   0  0  0  0  0  0  0  0  0  0  0  0
  -19.3282   -6.9217   25.2063 C   0  0  0  0  0  0  0  0  0  0  0  0
  -21.0784   -6.0055   23.8154 C   0  0  0  0  0  0  0  0  0  0  0  0
  -32.0264  -16.7605   22.7312 C   0  0  0  0  0  0  0  0  0  0  0  0
  -24.6002  -11.6437   20.7052 C   0  0  0  0  0  0  0  0  0  0  0  0
  -31.9911  -17.7777   23.7037 C   0  0  0  0  0  0  0  0  0  0  0  0
  -25.2767  -13.7241   20.4830 C   0  0  0  0  0  0  0  0  0  0  0  0
  -30.7095  -16.5587   22.3974 C   0  0  0  0  0  0  0  0  0  0  0  0
  -22.9133  -13.5023   21.2662 C   0  0  0  0  0  0  0  0  0  0  0  0
  -30.1626  -28.3700   17.9403 C   0  0  0  0  0  0  0  0  0  0  0  0
  -27.6594  -26.3154   17.7536 C   0  0  0  0  0  0  0  0  0  0  0  0
  -26.4391  -23.1773   18.3104 C   0  0  0  0  0  0  0  0  0  0  0  0
  -30.7489  -14.7384   20.6564 C   0  0  0  0  0  0  0  0  0  0  0  0
  -29.3433  -33.0861   16.1671 C   0  0  0  0  0  0  0  0  0  0  0  0
  -31.2126  -26.4029   16.7637 C   0  0  0  0  0  0  0  0  0  0  0  0
  -29.6399  -25.5597   19.1217 C   0  0  0  0  0  0  0  0  0  0  0  0
  -28.5013  -32.0197   16.8629 C   0  0  0  0  0  0  0  0  0  0  0  0
  -29.6194  -12.3353   18.2843 C   0  0  0  0  0  0  0  0  0  0  0  0
  -29.2289  -31.4824   18.0912 C   0  0  0  0  0  0  0  0  0  0  0  0
  -28.1784  -12.0511   18.7142 C   0  0  0  0  0  0  0  0  0  0  0  0
  -30.5365  -12.5567   19.4858 C   0  0  0  0  0  0  0  0  0  0  0  0
  -28.6345  -13.2894   20.8696 C   0  0  0  0  0  0  0  0  0  0  0  0
  -30.5532  -30.8155   17.7000 C   0  0  1  0  0  0  0  0  0  0  0  0
  -29.9197  -27.1086   17.1608 C   0  0  1  0  0  0  0  0  0  0  0  0
  -27.6600  -13.1238   19.6921 C   0  0  2  0  0  0  0  0  0  0  0  0
  -24.3465  -21.8098   18.0912 C   0  0  0  0  0  0  0  0  0  0  0  0
  -26.4961  -27.7065   20.2075 C   0  0  0  0  0  0  0  0  0  0  0  0
  -24.9602  -25.7513   20.5015 C   0  0  0  0  0  0  0  0  0  0  0  0
  -24.8228  -27.1436   18.4362 C   0  0  0  0  0  0  0  0  0  0  0  0
  -28.5587  -17.6060   23.1732 C   0  0  0  0  0  0  0  0  0  0  0  0
  -27.7380  -21.2756   16.4515 C   0  0  0  0  0  0  0  0  0  0  0  0
  -33.1504  -18.4082   24.4335 C   0  0  0  0  0  0  0  0  0  0  0  0
  -33.9075  -19.4541   23.6073 C   0  0  0  0  0  0  0  0  0  0  0  0
  -33.0070  -20.5862   23.1030 C   0  0  0  0  0  0  0  0  0  0  0  0
  -33.8075  -21.6193   22.3120 C   0  0  0  0  0  0  0  0  0  0  0  0
  -32.9148  -22.7269   21.7705 C   0  0  0  0  0  0  0  0  0  1  0  0
  -26.7930  -25.5919   18.7561 C   0  0  1  0  0  0  0  0  0  0  0  0
  -25.6464  -22.2329   17.4249 C   0  0  2  0  0  0  0  0  0  0  0  0
  -25.7962  -26.5446   19.4746 C   0  0  0  0  0  0  0  0  0  0  0  0
  -25.8643  -11.5415   20.2860 N   0  0  0  0  0  0  0  0  0  0  0  0
  -30.7500  -18.1934   23.9703 N   0  0  0  0  0  0  0  0  0  0  0  0
  -26.2483  -12.8231   20.1598 N   0  0  0  0  0  0  0  0  0  0  0  0
  -29.9933  -17.4335   23.1603 N   0  0  0  0  0  0  0  0  0  0  0  0
  -29.0428  -26.2652   17.9758 N   0  0  0  0  0  0  0  0  0  0  0  0
  -29.9839  -13.5890   20.3655 N   0  0  0  0  0  0  0  0  0  0  0  0
  -25.4946  -15.0544   20.4123 N   0  0  0  0  0  0  0  0  0  0  0  0
  -21.8964  -12.5983   21.6024 N   0  0  0  0  0  0  0  0  0  0  0  0
  -30.1072  -15.6655   21.4769 N   0  0  0  0  0  0  0  0  0  0  0  0
  -30.3131  -29.4967   17.1546 N   0  0  0  0  0  0  0  0  0  0  0  0
  -26.1565  -24.4976   18.0310 N   0  0  0  0  0  0  0  0  0  0  0  0
  -26.4431  -21.0088   17.1291 N   0  3  0  0  0  0  0  0  0  0  0  0
  -22.6840  -14.7341   21.3259 O   0  0  0  0  0  0  0  0  0  0  0  0
  -30.2086  -28.3246   19.1640 O   0  0  0  0  0  0  0  0  0  0  0  0
  -27.1286  -26.8974   16.8042 O   0  0  0  0  0  0  0  0  0  0  0  0
  -27.2273  -22.7830   19.1671 O   0  0  0  0  0  0  0  0  0  0  0  0
  -31.8786  -14.9016   20.1884 O   0  0  0  0  0  0  0  0  0  0  0  0
  -21.5919   -7.0365   21.7007 O   0  0  0  0  0  0  0  0  0  0  0  0
  -33.7178  -23.6470   21.0323 O   0  0  0  0  0  0  0  0  0  1  0  0
  -18.6028   -6.8865   26.3317 F   0  0  0  0  0  0  0  0  0  0  0  0
  -22.0324   -5.0870   23.6106 F   0  0  0  0  0  0  0  0  0  0  0  0
  -33.4040  -15.9805   22.1292 Cl  0  0  0  0  0  0  0  0  0  0  0  0
  1  2  1  0  0  0  0
  1  5  2  0  0  0  0
  2  6  2  0  0  0  0
  3  8  2  0  0  0  0
  3 15  1  0  0  0  0
  4  9  1  0  0  0  0
  4 15  2  0  0  0  0
  5 17  1  0  0  0  0
  6 19  1  0  0  0  0
  7 10  2  0  0  0  0
  7 18  1  0  0  0  0
  8 21  1  0  0  0  0
  9 21  2  0  0  0  0
 10 22  1  0  0  0  0
 11 12  2  0  0  0  0
 11 23  1  0  0  0  0
 12 24  1  0  0  0  0
 13 20  1  0  0  0  0
 13 22  2  0  0  0  0
 14 24  2  0  0  0  0
 14 25  1  0  0  0  0
 15 27  1  0  0  0  0
 16 27  1  0  0  0  0
 16 29  2  0  0  0  0
 16 31  1  0  0  0  0
 17 19  2  0  0  0  0
 17 36  1  0  0  0  0
 18 20  2  0  0  0  0
 18 37  1  0  0  0  0
 19 45  1  0  0  0  0
 20 38  1  0  0  0  0
 21 79  1  0  0  0  0
 22 80  1  0  0  0  0
 23 25  2  0  0  0  0
 23 79  1  0  0  0  0
 24 81  1  0  0  0  0
 25 82  1  0  0  0  0
 26 28  1  0  0  0  0
 26 30  2  0  0  0  0
 26 83  1  0  0  0  0
 27 62  2  0  0  0  0
 28 54  1  0  0  0  0
 28 63  2  0  0  0  0
 29 64  1  0  0  0  0
 29 68  1  0  0  0  0
 30 65  1  0  0  0  0
 30 70  1  0  0  0  0
 31 69  1  0  0  0  0
 31 74  2  0  0  0  0
 32 46  1  0  0  0  0
 32 71  1  0  0  0  0
 32 75  2  0  0  0  0
 33 59  1  0  0  0  0
 33 66  1  0  0  0  0
 33 76  2  0  0  0  0
 34 60  1  0  0  0  0
 34 72  1  0  0  0  0
 34 77  2  0  0  0  0
 35 67  1  0  0  0  0
 35 70  1  0  0  0  0
 35 78  2  0  0  0  0
 36 39  1  0  0  0  0
 37 46  1  0  0  0  0
 38 66  1  0  0  0  0
 39 41  1  0  0  0  0
 40 42  1  0  0  0  0
 40 43  1  0  0  0  0
 41 45  1  0  0  0  0
 42 47  1  0  0  0  0
 43 67  1  0  0  0  0
 44 47  1  0  0  0  0
 44 67  1  0  0  0  0
 45 71  1  0  0  0  0
 46 66  1  0  0  0  0
 47 64  1  0  0  0  0
 48 60  1  0  0  0  0
 49 61  1  0  0  0  0
 50 61  1  0  0  0  0
 51 61  1  0  0  0  0
 52 65  1  0  0  0  0
 53 73  1  0  0  0  0
 54 55  1  0  0  0  0
 55 56  1  0  0  0  0
 56 57  1  0  0  0  0
 57 58  1  0  0  0  0
 58 80  1  0  0  0  0
 59 61  1  0  0  0  0
 59 72  1  0  0  0  0
 60 73  1  0  0  0  0
 62 64  1  0  0  0  0
 63 65  1  0  0  0  0
M  CHG  1  73   1
M  ISO  4  35 100  58 101  70 100  80 101
M  END
> <Batch ID>
0016

> <Smiles>
CNC(C)C(=O)NC(C(=O)N1Cc2cc([101O:1][101CH2:1]CCCCc3nn(C)c([100NH:0][100C:0](=O)N4CCCC(n5nc(-c6ccc(Oc7ccc(F)cc7F)cc6)c(C(N)=O)c5N)C4)c3Cl)ccc2CC1C(=O)NC1CCCc2ccccc21)C(C)(C)C

> <Shape>
0.227

> <Color>
0.192

> <Negative vol penalty>
0.000

$$$$

  -OEChem-04052315583D

 86 94  0     1  0  0  0  0  0999 V2000
  -24.4201   -9.0522   27.1102 C   0  0  0  0  0  0  0  0  0  0  0  0
  -25.5923   -9.5568   26.5563 C   0  0  0  0  0  0  0  0  0  0  0  0
  -24.7725  -30.8892   21.1290 C   0  0  0  0  0  0  0  0  0  0  0  0
  -24.8610  -29.3755   23.0099 C   0  0  0  0  0  0  0  0  0  0  0  0
  -23.2918   -8.8764   26.3101 C   0  0  0  0  0  0  0  0  0  0  0  0
  -25.6372   -9.8849   25.2018 C   0  0  0  0  0  0  0  0  0  0  0  0
  -28.7754  -14.4704   22.6268 C   0  0  0  0  0  0  0  0  0  0  0  0
  -24.0459  -31.7998   21.8960 C   0  0  0  0  0  0  0  0  0  0  0  0
  -24.1343  -30.2861   23.7770 C   0  0  0  0  0  0  0  0  0  0  0  0
  -30.0049  -14.5133   21.9708 C   0  0  0  0  0  0  0  0  0  0  0  0
  -22.4785  -34.6781   23.4688 C   0  0  0  0  0  0  0  0  0  0  0  0
  -22.8524  -36.0206   23.4085 C   0  0  0  0  0  0  0  0  0  0  0  0
  -28.8716  -14.3390   19.8484 C   0  0  0  0  0  0  0  0  0  0  0  0
  -28.3120  -20.0964   18.5508 C   0  0  0  0  0  0  0  0  0  0  0  0
  -25.0501  -35.4454   24.2309 C   0  0  0  0  0  0  0  0  0  0  0  0
  -25.1800  -29.6770   21.6859 C   0  0  0  0  0  0  0  0  0  0  0  0
  -27.3299  -28.6577   20.7658 C   0  0  0  0  0  0  0  0  0  0  0  0
  -23.3200   -9.2116   24.9472 C   0  0  0  0  0  0  0  0  0  0  0  0
  -27.5835  -14.3503   21.8979 C   0  0  0  0  0  0  0  0  0  0  0  0
  -24.5087   -9.7122   24.3825 C   0  0  0  0  0  0  0  0  0  0  0  0
  -27.6282  -14.2973   20.4974 C   0  0  0  0  0  0  0  0  0  0  0  0
  -30.0168  -21.7519   18.9863 C   0  0  0  0  0  0  0  0  0  0  0  0
  -30.6354  -19.4410   18.6487 C   0  0  0  0  0  0  0  0  0  0  0  0
  -28.6741  -21.4185   18.8086 C   0  0  0  0  0  0  0  0  0  0  0  0
  -23.7268  -31.4983   23.2200 C   0  0  0  0  0  0  0  0  0  0  0  0
  -30.0533  -14.4447   20.5815 C   0  0  0  0  0  0  0  0  0  0  0  0
  -23.3904  -33.7193   23.9102 C   0  0  0  0  0  0  0  0  0  0  0  0
  -24.1382  -36.4042   23.7895 C   0  0  0  0  0  0  0  0  0  0  0  0
  -24.6762  -34.1029   24.2912 C   0  0  0  0  0  0  0  0  0  0  0  0
  -29.2927  -19.1076   18.4709 C   0  0  0  0  0  0  0  0  0  0  0  0
  -30.9975  -20.7631   18.9064 C   0  0  0  0  0  0  0  0  0  0  0  0
  -25.9302  -28.7356   20.8940 C   0  0  0  0  0  0  0  0  0  0  0  0
  -27.5382  -27.6044   19.9093 C   0  0  0  0  0  0  0  0  0  0  0  0
  -28.3506  -29.4653   21.3671 C   0  0  0  0  0  0  0  0  0  0  0  0
  -25.2539  -12.1929   21.7475 C   0  0  0  0  0  0  0  0  0  0  0  0
  -23.8661  -14.3984   19.8155 C   0  0  0  0  0  0  0  0  0  0  0  0
  -24.2498  -17.0558   17.7090 C   0  0  0  0  0  0  0  0  0  0  0  0
  -26.4395  -22.4166   18.2113 C   0  0  0  0  0  0  0  0  0  0  0  0
  -22.0897   -8.9597   24.1121 C   0  0  0  0  0  0  0  0  0  0  0  0
  -26.2637  -14.3322   22.6192 C   0  0  0  0  0  0  0  0  0  0  0  0
  -26.3759  -14.1883   19.6676 C   0  0  0  0  0  0  0  0  0  0  0  0
  -22.1070   -9.6836   22.7683 C   0  0  0  0  0  0  0  0  0  0  0  0
  -24.2822  -24.9967   17.0423 C   0  0  0  0  0  0  0  0  0  0  0  0
  -23.4568   -9.5020   22.0814 C   0  0  0  0  0  0  0  0  0  0  0  0
  -24.6338  -26.1930   17.9296 C   0  0  0  0  0  0  0  0  0  0  0  0
  -24.3369  -23.6808   17.8165 C   0  0  0  0  0  0  0  0  0  0  0  0
  -25.9454  -24.6314   19.4222 C   0  0  0  0  0  0  0  0  0  0  0  0
  -24.5892  -10.1030   22.9228 C   0  0  1  0  0  0  0  0  0  0  0  0
  -25.1457  -13.6906   21.8033 C   0  0  1  0  0  0  0  0  0  0  0  0
  -25.9671  -25.9724   18.6707 C   0  0  2  0  0  0  0  0  0  0  0  0
  -30.3875  -23.1776   19.2618 C   0  0  0  0  0  0  0  0  0  0  0  0
  -23.5821  -18.9657   16.2244 C   0  0  0  0  0  0  0  0  0  0  0  0
  -34.0835  -16.9718   20.0693 C   0  0  0  0  0  0  0  0  0  0  0  0
  -33.4416  -14.2682   20.9108 C   0  0  0  0  0  0  0  0  0  0  0  0
  -23.5596  -12.1938   17.7284 C   0  0  0  0  0  0  0  0  0  0  0  0
  -23.1441  -13.9706   16.0142 C   0  0  0  0  0  0  0  0  0  0  0  0
  -21.5825  -13.7104   17.9419 C   0  0  0  0  0  0  0  0  0  0  0  0
  -24.1627  -18.9461   19.9846 C   0  0  0  0  0  0  0  0  0  0  0  0
  -31.6860  -18.3734   18.5614 C   0  0  0  0  0  0  0  0  0  0  0  0
  -23.8832  -14.6829   18.3331 C   0  0  1  0  0  0  0  0  0  0  0  0
  -23.5330  -18.3918   17.6319 C   0  0  2  0  0  0  0  0  0  0  0  0
  -32.7279  -16.3955   19.6753 C   0  0  1  0  0  0  0  0  0  0  0  0
  -32.3014  -15.2205   20.5675 C   0  0  1  0  0  0  0  0  0  1  0  0
  -23.0663  -13.6395   17.5198 C   0  0  0  0  0  0  0  0  0  0  0  0
  -25.2942  -27.8059   20.1763 N   0  0  0  0  0  0  0  0  0  0  0  0
  -26.2988  -27.1339   19.5888 N   0  0  0  0  0  0  0  0  0  0  0  0
  -25.1103  -14.1680   20.4194 N   0  0  0  0  0  0  0  0  0  0  0  0
  -25.6302  -23.5385   18.4889 N   0  0  0  0  0  0  0  0  0  0  0  0
  -28.6588  -27.0440   19.4066 N   0  0  0  0  0  0  0  0  0  0  0  0
  -27.9622  -30.5060   22.2219 N   0  0  0  0  0  0  0  0  0  0  0  0
  -27.6605  -22.4057   18.8848 N   0  0  0  0  0  0  0  0  0  0  0  0
  -24.6119  -11.5434   22.7845 N   0  0  0  0  0  0  0  0  0  0  0  0
  -23.4209  -16.0577   18.1760 N   0  0  0  0  0  0  0  0  0  0  0  0
  -24.1628  -19.3719   18.5613 N   0  3  0  0  0  0  0  0  0  0  0  0
  -31.7260  -17.4970   19.7597 N   0  3  0  0  0  0  0  0  0  0  0  0
  -29.5704  -29.2804   21.1399 O   0  0  0  0  0  0  0  0  0  0  0  0
  -25.8727  -11.6657   20.8306 O   0  0  0  0  0  0  0  0  0  0  0  0
  -22.7891  -14.3882   20.4169 O   0  0  0  0  0  0  0  0  0  0  0  0
  -25.4262  -16.9113   17.3837 O   0  0  0  0  0  0  0  0  0  0  0  0
  -26.0881  -21.5445   17.4126 O   0  0  0  0  0  0  0  0  0  0  0  0
  -23.0179  -32.3868   23.9688 O   0  0  0  0  0  0  0  0  0  0  0  0
  -31.2520  -14.4857   19.9387 O   0  0  0  0  0  0  0  0  0  1  0  0
  -24.4976  -37.6932   23.7301 F   0  0  0  0  0  0  0  0  0  0  0  0
  -25.5570  -33.1861   24.7150 F   0  0  0  0  0  0  0  0  0  0  0  0
  -28.7998  -17.4840   18.1500 Cl  0  0  0  0  0  0  0  0  0  0  0  0
  -32.6656  -21.1798   19.1286 Cl  0  0  0  0  0  0  0  0  0  0  0  0
  1  2  1  0  0  0  0
  1  5  2  0  0  0  0
  2  6  2  0  0  0  0
  3  8  2  0  0  0  0
  3 16  1  0  0  0  0
  4  9  1  0  0  0  0
  4 16  2  0  0  0  0
  5 18  1  0  0  0  0
  6 20  1  0  0  0  0
  7 10  2  0  0  0  0
  7 19  1  0  0  0  0
  8 25  1  0  0  0  0
  9 25  2  0  0  0  0
 10 26  1  0  0  0  0
 11 12  2  0  0  0  0
 11 27  1  0  0  0  0
 12 28  1  0  0  0  0
 13 21  1  0  0  0  0
 13 26  2  0  0  0  0
 14 24  1  0  0  0  0
 14 30  2  0  0  0  0
 15 28  2  0  0  0  0
 15 29  1  0  0  0  0
 16 32  1  0  0  0  0
 17 32  1  0  0  0  0
 17 33  2  0  0  0  0
 17 34  1  0  0  0  0
 18 20  2  0  0  0  0
 18 39  1  0  0  0  0
 19 21  2  0  0  0  0
 19 40  1  0  0  0  0
 20 48  1  0  0  0  0
 21 41  1  0  0  0  0
 22 24  2  0  0  0  0
 22 31  1  0  0  0  0
 22 51  1  0  0  0  0
 23 30  1  0  0  0  0
 23 31  2  0  0  0  0
 23 59  1  0  0  0  0
 24 71  1  0  0  0  0
 25 81  1  0  0  0  0
 26 82  1  0  0  0  0
 27 29  2  0  0  0  0
 27 81  1  0  0  0  0
 28 83  1  0  0  0  0
 29 84  1  0  0  0  0
 30 85  1  0  0  0  0
 31 86  1  0  0  0  0
 32 65  2  0  0  0  0
 33 66  1  0  0  0  0
 33 69  1  0  0  0  0
 34 70  1  0  0  0  0
 34 76  2  0  0  0  0
 35 49  1  0  0  0  0
 35 72  1  0  0  0  0
 35 77  2  0  0  0  0
 36 60  1  0  0  0  0
 36 67  1  0  0  0  0
 36 78  2  0  0  0  0
 37 61  1  0  0  0  0
 37 73  1  0  0  0  0
 37 79  2  0  0  0  0
 38 68  1  0  0  0  0
 38 71  1  0  0  0  0
 38 80  2  0  0  0  0
 39 42  1  0  0  0  0
 40 49  1  0  0  0  0
 41 67  1  0  0  0  0
 42 44  1  0  0  0  0
 43 45  1  0  0  0  0
 43 46  1  0  0  0  0
 44 48  1  0  0  0  0
 45 50  1  0  0  0  0
 46 68  1  0  0  0  0
 47 50  1  0  0  0  0
 47 68  1  0  0  0  0
 48 72  1  0  0  0  0
 49 67  1  0  0  0  0
 50 66  1  0  0  0  0
 52 61  1  0  0  0  0
 53 62  1  0  0  0  0
 54 63  1  0  0  0  0
 55 64  1  0  0  0  0
 56 64  1  0  0  0  0
 57 64  1  0  0  0  0
 58 74  1  0  0  0  0
 59 75  1  0  0  0  0
 60 64  1  0  0  0  0
 60 73  1  0  0  0  0
 61 74  1  0  0  0  0
 62 63  1  0  0  0  0
 62 75  1  0  0  0  0
 63 82  1  0  0  0  0
 65 66  1  0  0  0  0
M  CHG  2  74   1  75   1
M  ISO  4  38 100  63 101  71 100  82 101
M  END
> <Batch ID>
0016

> <Smiles>
CNC(C)C(=O)NC(C(=O)N1Cc2cc([101O:1][101CH:1](C)C(C)NCc3c(Cl)cc([100NH:0][100C:0](=O)N4CCCC(n5nc(-c6ccc(Oc7ccc(F)cc7F)cc6)c(C(N)=O)c5N)C4)c(C)c3Cl)ccc2CC1C(=O)NC1CCCc2ccccc21)C(C)(C)C

> <Shape>
0.227

> <Color>
0.090

> <Negative vol penalty>
0.000

$$$$

  -OEChem-04052315583D

 91 99  0     1  0  0  0  0  0999 V2000
  -24.1984  -17.1361   24.2540 C   0  0  0  0  0  0  0  0  0  0  0  0
  -25.5424  -17.1210   24.6132 C   0  0  0  0  0  0  0  0  0  0  0  0
  -23.0010   -9.8939   19.9818 C   0  0  0  0  0  0  0  0  0  0  0  0
  -23.7316   -9.9434   22.2841 C   0  0  0  0  0  0  0  0  0  0  0  0
  -23.6115  -18.3182   23.8045 C   0  0  0  0  0  0  0  0  0  0  0  0
  -26.3004  -18.2878   24.5221 C   0  0  0  0  0  0  0  0  0  0  0  0
  -29.2032  -19.0422   28.6025 C   0  0  0  0  0  0  0  0  0  0  0  0
  -22.2365   -8.7582   20.2488 C   0  0  0  0  0  0  0  0  0  0  0  0
  -22.9670   -8.8077   22.5512 C   0  0  0  0  0  0  0  0  0  0  0  0
  -30.3769  -18.2955   28.6958 C   0  0  0  0  0  0  0  0  0  0  0  0
  -23.2142   -5.4695   22.0753 C   0  0  0  0  0  0  0  0  0  0  0  0
  -23.8047   -4.4523   22.8249 C   0  0  0  0  0  0  0  0  0  0  0  0
  -31.6395  -20.1925   27.9042 C   0  0  0  0  0  0  0  0  0  0  0  0
  -31.1196  -15.8303   24.1339 C   0  0  0  0  0  0  0  0  0  0  0  0
  -33.5317  -17.1800   24.5115 C   0  0  0  0  0  0  0  0  0  0  0  0
  -22.0845   -4.6915   24.5045 C   0  0  0  0  0  0  0  0  0  0  0  0
  -23.7486  -10.4865   20.9995 C   0  0  0  0  0  0  0  0  0  0  0  0
  -24.1306  -13.0027   20.8251 C   0  0  0  0  0  0  0  0  0  0  0  0
  -24.3603  -19.5024   23.7170 C   0  0  0  0  0  0  0  0  0  0  0  0
  -29.2375  -20.3684   28.1482 C   0  0  0  0  0  0  0  0  0  0  0  0
  -25.7233  -19.4866   24.0698 C   0  0  0  0  0  0  0  0  0  0  0  0
  -30.4651  -20.9547   27.8085 C   0  0  0  0  0  0  0  0  0  0  0  0
  -31.6072  -16.6784   23.1397 C   0  0  0  0  0  0  0  0  0  0  0  0
  -32.8133  -17.3532   23.3285 C   0  0  0  0  0  0  0  0  0  0  0  0
  -33.0440  -16.3319   25.5058 C   0  0  0  0  0  0  0  0  0  0  0  0
  -22.2194   -8.2151   21.5335 C   0  0  0  0  0  0  0  0  0  0  0  0
  -31.5949  -18.8697   28.3438 C   0  0  0  0  0  0  0  0  0  0  0  0
  -22.0588   -6.0978   22.5402 C   0  0  0  0  0  0  0  0  0  0  0  0
  -23.2399   -4.0632   24.0395 C   0  0  0  0  0  0  0  0  0  0  0  0
  -21.4940   -5.7088   23.7548 C   0  0  0  0  0  0  0  0  0  0  0  0
  -31.8379  -15.6570   25.3170 C   0  0  0  0  0  0  0  0  0  0  0  0
  -24.5391  -11.6593   20.7241 C   0  0  0  0  0  0  0  0  0  0  0  0
  -25.2386  -13.7269   20.4588 C   0  0  0  0  0  0  0  0  0  0  0  0
  -22.8629  -13.5472   21.2152 C   0  0  0  0  0  0  0  0  0  0  0  0
  -27.9892  -21.9249   25.6738 C   0  0  0  0  0  0  0  0  0  0  0  0
  -29.2261  -24.5181   27.1798 C   0  0  0  0  0  0  0  0  0  0  0  0
  -31.5305  -25.7773   29.3594 C   0  0  0  0  0  0  0  0  0  0  0  0
  -30.7344  -14.6678   20.6952 C   0  0  0  0  0  0  0  0  0  0  0  0
  -23.6941  -20.7446   23.1806 C   0  0  0  0  0  0  0  0  0  0  0  0
  -27.9660  -21.1688   28.0788 C   0  0  0  0  0  0  0  0  0  0  0  0
  -30.5584  -22.3812   27.3343 C   0  0  0  0  0  0  0  0  0  0  0  0
  -24.4721  -22.0259   23.4690 C   0  0  0  0  0  0  0  0  0  0  0  0
  -29.5910  -12.2452   18.3500 C   0  0  0  0  0  0  0  0  0  0  0  0
  -25.9499  -21.8385   23.1409 C   0  0  0  0  0  0  0  0  0  0  0  0
  -28.1439  -11.9833   18.7707 C   0  0  0  0  0  0  0  0  0  0  0  0
  -30.4960  -12.4804   19.5573 C   0  0  0  0  0  0  0  0  0  0  0  0
  -28.5882  -13.2723   20.9014 C   0  0  0  0  0  0  0  0  0  0  0  0
  -26.5723  -20.7377   24.0083 C   0  0  1  0  0  0  0  0  0  0  0  0
  -28.0539  -22.3475   27.1142 C   0  0  1  0  0  0  0  0  0  0  0  0
  -27.6265  -13.0847   19.7155 C   0  0  2  0  0  0  0  0  0  0  0  0
  -29.8135  -18.0035   21.9614 C   0  0  0  0  0  0  0  0  0  0  0  0
  -32.3214  -27.9390   30.3587 C   0  0  0  0  0  0  0  0  0  0  0  0
  -35.2906  -16.6910   28.4837 C   0  0  0  0  0  0  0  0  0  0  0  0
  -34.3276  -20.1480   23.3686 C   0  0  0  0  0  0  0  0  0  0  0  0
  -30.6377  -25.2079   24.5641 C   0  0  0  0  0  0  0  0  0  0  0  0
  -32.1143  -26.7658   25.8529 C   0  0  0  0  0  0  0  0  0  0  0  0
  -29.6538  -27.1674   25.7669 C   0  0  0  0  0  0  0  0  0  0  0  0
  -30.8768  -24.8821   32.1035 C   0  0  0  0  0  0  0  0  0  0  0  0
  -33.7862  -18.4618   27.5145 C   0  0  0  0  0  0  0  0  0  1  0  0
  -30.8174  -16.8456   21.8824 C   0  0  2  0  0  0  0  0  0  0  0  0
  -30.5485  -25.2453   27.1442 C   0  0  1  0  0  0  0  0  0  0  0  0
  -31.3946  -26.7444   30.5216 C   0  0  2  0  0  0  0  0  0  0  0  0
  -34.6246  -17.2197   27.2202 C   0  0  2  0  0  0  0  0  0  0  0  0
  -34.5509  -18.9301   22.4800 C   0  0  2  0  0  0  0  0  0  0  0  0
  -30.7369  -26.0691   25.8391 C   0  0  0  0  0  0  0  0  0  0  0  0
  -35.0727  -19.3304   21.1123 C   0  0  0  0  0  0  0  0  0  0  0  0
  -25.8076  -11.5347   20.3248 N   0  0  0  0  0  0  0  0  0  0  0  0
  -26.2057  -12.8091   20.1715 N   0  0  0  0  0  0  0  0  0  0  0  0
  -29.2867  -23.1207   27.2774 N   0  0  0  0  0  0  0  0  0  0  0  0
  -29.9500  -13.5376   20.4118 N   0  0  0  0  0  0  0  0  0  0  0  0
  -25.4703  -15.0530   20.3575 N   0  0  0  0  0  0  0  0  0  0  0  0
  -21.8330  -12.6615   21.5603 N   0  0  0  0  0  0  0  0  0  0  0  0
  -33.3209  -18.2172   22.3333 N   0  0  0  0  0  0  0  0  0  0  0  0
  -33.7768  -16.1817   26.6687 N   0  0  0  0  0  0  0  0  0  0  0  0
  -26.8392  -21.2348   25.3410 N   0  0  0  0  0  0  0  0  0  0  0  0
  -30.6106  -26.0396   28.3664 N   0  0  0  0  0  0  0  0  0  0  0  0
  -30.1389  -15.6250   21.5074 N   0  0  0  0  0  0  0  0  0  0  0  0
  -31.7274  -26.0628   31.8043 N   0  3  0  0  0  0  0  0  0  0  0  0
  -22.6448  -14.7822   21.2407 O   0  0  0  0  0  0  0  0  0  0  0  0
  -28.9136  -22.2054   24.9198 O   0  0  0  0  0  0  0  0  0  0  0  0
  -28.1778  -25.1664   27.1301 O   0  0  0  0  0  0  0  0  0  0  0  0
  -32.3713  -24.8812   29.3333 O   0  0  0  0  0  0  0  0  0  0  0  0
  -31.8786  -14.8155   20.2525 O   0  0  0  0  0  0  0  0  0  0  0  0
  -21.4733   -7.1071   21.7944 O   0  0  0  0  0  0  0  0  0  0  0  0
  -32.7420  -18.1430   28.4333 O   0  0  0  0  0  0  0  0  0  1  0  0
  -23.8062   -3.0852   24.7586 F   0  0  0  0  0  0  0  0  0  0  0  0
  -20.3835   -6.3079   24.2061 F   0  0  0  0  0  0  0  0  0  0  0  0
  -35.2675  -18.2579   20.3154 F   0  0  0  0  0  0  0  0  0  0  0  0
  -36.2489  -19.9887   21.2150 F   0  0  0  0  0  0  0  0  0  0  0  0
  -34.2035  -20.1553   20.4864 F   0  0  0  0  0  0  0  0  0  0  0  0
  -31.1958  -14.6018   26.5247 Cl  0  0  0  0  0  0  0  0  0  0  0  0
  1  2  1  0  0  0  0
  1  5  2  0  0  0  0
  2  6  2  0  0  0  0
  3  8  2  0  0  0  0
  3 17  1  0  0  0  0
  4  9  1  0  0  0  0
  4 17  2  0  0  0  0
  5 19  1  0  0  0  0
  6 21  1  0  0  0  0
  7 10  2  0  0  0  0
  7 20  1  0  0  0  0
  8 26  1  0  0  0  0
  9 26  2  0  0  0  0
 10 27  1  0  0  0  0
 11 12  2  0  0  0  0
 11 28  1  0  0  0  0
 12 29  1  0  0  0  0
 13 22  1  0  0  0  0
 13 27  2  0  0  0  0
 14 23  2  0  0  0  0
 14 31  1  0  0  0  0
 15 24  2  0  0  0  0
 15 25  1  0  0  0  0
 16 29  2  0  0  0  0
 16 30  1  0  0  0  0
 17 32  1  0  0  0  0
 18 32  1  0  0  0  0
 18 33  2  0  0  0  0
 18 34  1  0  0  0  0
 19 21  2  0  0  0  0
 19 39  1  0  0  0  0
 20 22  2  0  0  0  0
 20 40  1  0  0  0  0
 21 48  1  0  0  0  0
 22 41  1  0  0  0  0
 23 24  1  0  0  0  0
 23 60  1  0  0  0  0
 24 73  1  0  0  0  0
 25 31  2  0  0  0  0
 25 74  1  0  0  0  0
 26 84  1  0  0  0  0
 27 85  1  0  0  0  0
 28 30  2  0  0  0  0
 28 84  1  0  0  0  0
 29 86  1  0  0  0  0
 30 87  1  0  0  0  0
 31 91  1  0  0  0  0
 32 67  2  0  0  0  0
 33 68  1  0  0  0  0
 33 71  1  0  0  0  0
 34 72  1  0  0  0  0
 34 79  2  0  0  0  0
 35 49  1  0  0  0  0
 35 75  1  0  0  0  0
 35 80  2  0  0  0  0
 36 61  1  0  0  0  0
 36 69  1  0  0  0  0
 36 81  2  0  0  0  0
 37 62  1  0  0  0  0
 37 76  1  0  0  0  0
 37 82  2  0  0  0  0
 38 70  1  0  0  0  0
 38 77  1  0  0  0  0
 38 83  2  0  0  0  0
 39 42  1  0  0  0  0
 40 49  1  0  0  0  0
 41 69  1  0  0  0  0
 42 44  1  0  0  0  0
 43 45  1  0  0  0  0
 43 46  1  0  0  0  0
 44 48  1  0  0  0  0
 45 50  1  0  0  0  0
 46 70  1  0  0  0  0
 47 50  1  0  0  0  0
 47 70  1  0  0  0  0
 48 75  1  0  0  0  0
 49 69  1  0  0  0  0
 50 68  1  0  0  0  0
 51 60  1  0  0  0  0
 52 62  1  0  0  0  0
 53 63  1  0  0  0  0
 54 64  1  0  0  0  0
 55 65  1  0  0  0  0
 56 65  1  0  0  0  0
 57 65  1  0  0  0  0
 58 78  1  0  0  0  0
 59 63  1  0  0  0  0
 59 85  1  0  0  0  0
 60 77  1  0  0  0  0
 61 65  1  0  0  0  0
 61 76  1  0  0  0  0
 62 78  1  0  0  0  0
 63 74  1  0  0  0  0
 64 66  1  0  0  0  0
 64 73  1  0  0  0  0
 66 88  1  0  0  0  0
 66 89  1  0  0  0  0
 66 90  1  0  0  0  0
 67 68  1  0  0  0  0
M  CHG  1  78   1
M  ISO  4  38 100  59 101  77 100  85 101
M  END
> <Batch ID>
0016

> <Smiles>
CNC(C)C(=O)NC(C(=O)N1Cc2cc([101O:1][101CH2:1]C(C)Nc3cc(NC(C)C(F)(F)F)c(C(C)[100NH:0][100C:0](=O)N4CCCC(n5nc(-c6ccc(Oc7ccc(F)cc7F)cc6)c(C(N)=O)c5N)C4)cc3Cl)ccc2CC1C(=O)NC1CCCc2ccccc21)C(C)(C)C

> <Shape>
0.171

> <Color>
0.197

> <Negative vol penalty>
0.000

$$$$

  -OEChem-04052315583D

 97105  0     1  0  0  0  0  0999 V2000
  -16.3153  -28.8636   23.5807 C   0  0  0  0  0  0  0  0  0  0  0  0
  -17.4584  -28.7081   22.8031 C   0  0  0  0  0  0  0  0  0  0  0  0
  -26.3778  -12.4783   21.4660 C   0  0  0  0  0  0  0  0  0  0  0  0
  -26.0467  -13.0616   19.1450 C   0  0  0  0  0  0  0  0  0  0  0  0
  -16.0258  -30.1017   24.1526 C   0  0  0  0  0  0  0  0  0  0  0  0
  -18.3121  -29.7911   22.5961 C   0  0  0  0  0  0  0  0  0  0  0  0
  -23.1920  -28.5481   23.1308 C   0  0  0  0  0  0  0  0  0  0  0  0
  -30.7992  -21.5099   14.9324 C   0  0  0  0  0  0  0  0  0  0  0  0
  -31.5732  -21.4366   16.0904 C   0  0  0  0  0  0  0  0  0  0  0  0
  -25.1579  -11.8020   21.4701 C   0  0  0  0  0  0  0  0  0  0  0  0
  -24.8267  -12.3853   19.1491 C   0  0  0  0  0  0  0  0  0  0  0  0
  -23.7980  -27.8768   22.0697 C   0  0  0  0  0  0  0  0  0  0  0  0
  -23.9607   -8.8176   20.4245 C   0  0  0  0  0  0  0  0  0  0  0  0
  -23.9202   -7.5575   21.0211 C   0  0  0  0  0  0  0  0  0  0  0  0
  -24.7889  -29.9490   21.3326 C   0  0  0  0  0  0  0  0  0  0  0  0
  -22.2604   -8.3520   22.5867 C   0  0  0  0  0  0  0  0  0  0  0  0
  -26.8222  -13.1082   20.3035 C   0  0  0  0  0  0  0  0  0  0  0  0
  -29.3476  -13.2769   19.9847 C   0  0  0  0  0  0  0  0  0  0  0  0
  -16.8814  -31.1979   23.9604 C   0  0  0  0  0  0  0  0  0  0  0  0
  -23.3714  -29.9292   23.2947 C   0  0  0  0  0  0  0  0  0  0  0  0
  -18.0330  -31.0454   23.1648 C   0  0  0  0  0  0  0  0  0  0  0  0
  -24.1862  -30.6350   22.3981 C   0  0  0  0  0  0  0  0  0  0  0  0
  -29.4800  -21.0568   14.9453 C   0  0  0  0  0  0  0  0  0  0  0  0
  -31.0281  -20.9099   17.2614 C   0  0  0  0  0  0  0  0  0  0  0  0
  -28.9350  -20.5301   16.1163 C   0  0  0  0  0  0  0  0  0  0  0  0
  -29.7090  -20.4567   17.2743 C   0  0  0  0  0  0  0  0  0  0  0  0
  -24.3824  -11.7555   20.3117 C   0  0  0  0  0  0  0  0  0  0  0  0
  -24.5943  -28.5777   21.1688 C   0  0  0  0  0  0  0  0  0  0  0  0
  -23.1512   -9.8451   20.9091 C   0  0  0  0  0  0  0  0  0  0  0  0
  -23.0700   -7.3247   22.1021 C   0  0  0  0  0  0  0  0  0  0  0  0
  -22.3010   -9.6123   21.9901 C   0  0  0  0  0  0  0  0  0  0  0  0
  -28.0820  -13.8074   20.2988 C   0  0  0  0  0  0  0  0  0  0  0  0
  -30.2093  -14.3369   20.1273 C   0  0  0  0  0  0  0  0  0  0  0  0
  -29.7117  -11.9450   19.5985 C   0  0  0  0  0  0  0  0  0  0  0  0
  -21.4451  -32.4577   23.2885 C   0  0  0  0  0  0  0  0  0  0  0  0
  -27.9126  -19.7943   11.9019 C   0  0  0  0  0  0  0  0  0  0  0  0
  -24.1455  -34.0289   24.1610 C   0  0  0  0  0  0  0  0  0  0  0  0
  -27.5566  -34.1320   24.1894 C   0  0  0  0  0  0  0  0  0  0  0  0
  -29.4897  -20.2584   19.7761 C   0  0  0  0  0  0  0  0  0  0  0  0
  -16.5019  -32.5288   24.5599 C   0  0  0  0  0  0  0  0  0  0  0  0
  -22.7324  -30.6338   24.4599 C   0  0  0  0  0  0  0  0  0  0  0  0
  -24.4269  -32.1148   22.5416 C   0  0  0  0  0  0  0  0  0  0  0  0
  -17.6542  -33.5292   24.6008 C   0  0  0  0  0  0  0  0  0  0  0  0
  -30.7440  -18.4271   22.5601 C   0  0  0  0  0  0  0  0  0  0  0  0
  -18.3840  -33.5580   23.2616 C   0  0  0  0  0  0  0  0  0  0  0  0
  -30.3241  -16.9854   22.2646 C   0  0  0  0  0  0  0  0  0  0  0  0
  -29.6829  -19.4302   22.1110 C   0  0  0  0  0  0  0  0  0  0  0  0
  -28.8349  -17.8551   20.4172 C   0  0  0  0  0  0  0  0  0  0  0  0
  -18.9965  -32.1900   22.9376 C   0  0  1  0  0  0  0  0  0  0  0  0
  -22.5672  -32.1334   24.2338 C   0  0  1  0  0  0  0  0  0  0  0  0
  -29.9003  -16.8123   20.7928 C   0  0  2  0  0  0  0  0  0  0  0  0
  -27.5191  -20.0444   16.1225 C   0  0  0  0  0  0  0  0  0  0  0  0
  -27.7042  -18.5302   11.1018 C   0  0  0  0  0  0  0  0  0  0  0  0
  -29.4780  -35.5600   24.9419 C   0  0  0  0  0  0  0  0  0  0  0  0
  -33.3085  -21.4104   18.2076 C   0  0  0  0  0  0  0  0  0  0  0  0
  -32.0458  -19.3745   18.9800 C   0  0  0  0  0  0  0  0  0  0  0  0
  -31.3475  -21.6436   19.7181 C   0  0  0  0  0  0  0  0  0  0  0  0
  -23.6445  -35.9289   21.8266 C   0  0  0  0  0  0  0  0  0  0  0  0
  -26.0154  -36.7045   22.0397 C   0  0  0  0  0  0  0  0  0  0  0  0
  -24.4206  -37.0403   23.9283 C   0  0  0  0  0  0  0  0  0  0  0  0
  -28.5873  -32.0079   25.9739 C   0  0  0  0  0  0  0  0  0  0  0  0
  -28.6687  -21.1474   13.6832 C   0  0  0  0  0  0  0  0  0  0  0  0
  -27.2853  -21.0730   11.3733 C   0  0  0  0  0  0  0  0  0  0  0  0
  -25.8445  -21.2422   11.8548 C   0  0  0  0  0  0  0  0  0  0  0  0
  -25.1774  -22.4924   11.2731 C   0  0  0  0  0  0  0  0  0  0  0  0
  -23.7069  -22.6393   11.6759 C   0  0  0  0  0  0  0  0  0  0  0  0
  -23.4415  -22.7937   13.1776 C   0  0  0  0  0  0  0  0  0  0  0  0
  -24.1415  -23.9713   13.8650 C   0  0  0  0  0  0  0  0  0  0  0  0
  -23.8160  -24.0864   15.3562 C   0  0  0  0  0  0  0  0  0  0  0  0
  -24.5180  -25.2642   16.0402 C   0  0  0  0  0  0  0  0  0  0  0  0
  -24.1379  -25.4310   17.5129 C   0  0  0  0  0  0  0  0  0  0  0  0
  -24.8498  -26.6315   18.1348 C   0  0  0  0  0  0  0  0  0  0  0  0
  -24.5119  -26.7822   19.6115 C   0  0  0  0  0  0  0  0  0  1  0  0
  -25.2702  -34.7135   23.4223 C   0  0  1  0  0  0  0  0  0  0  0  0
  -28.5466  -34.4141   25.3051 C   0  0  2  0  0  0  0  0  0  0  0  0
  -31.8828  -20.8442   18.4858 C   0  0  0  0  0  0  0  0  0  0  0  0
  -24.8318  -36.0693   22.8001 C   0  0  0  0  0  0  0  0  0  0  0  0
  -28.1308  -15.1037   20.6171 N   0  0  0  0  0  0  0  0  0  0  0  0
  -28.5467  -19.8565   13.0239 N   0  0  0  0  0  0  0  0  0  0  0  0
  -29.4375  -15.3966   20.5038 N   0  0  0  0  0  0  0  0  0  0  0  0
  -23.7753  -32.7601   23.6934 N   0  0  0  0  0  0  0  0  0  0  0  0
  -29.3342  -19.2086   20.7060 N   0  0  0  0  0  0  0  0  0  0  0  0
  -31.5442  -14.4566   19.9662 N   0  0  0  0  0  0  0  0  0  0  0  0
  -28.7018  -10.9781   19.5003 N   0  0  0  0  0  0  0  0  0  0  0  0
  -29.1576  -19.9207   18.4645 N   0  0  0  0  0  0  0  0  0  0  0  0
  -20.2116  -31.9876   23.6971 N   0  0  0  0  0  0  0  0  0  0  0  0
  -26.3751  -34.8199   24.3689 N   0  0  0  0  0  0  0  0  0  0  0  0
  -29.3737  -33.2057   25.5815 N   0  3  0  0  0  0  0  0  0  0  0  0
  -30.8997  -11.6178   19.3638 O   0  0  0  0  0  0  0  0  0  0  0  0
  -21.6808  -33.0889   22.2649 O   0  0  0  0  0  0  0  0  0  0  0  0
  -23.6199  -34.5961   25.1221 O   0  0  0  0  0  0  0  0  0  0  0  0
  -27.8078  -33.3799   23.2504 O   0  0  0  0  0  0  0  0  0  0  0  0
  -29.9140  -21.3666   20.1135 O   0  0  0  0  0  0  0  0  0  0  0  0
  -23.1920  -11.0954   20.3152 O   0  0  0  0  0  0  0  0  0  0  0  0
  -25.1908  -27.9203   20.1242 O   0  0  0  0  0  0  0  0  0  1  0  0
  -23.0300   -6.1140   22.6739 F   0  0  0  0  0  0  0  0  0  0  0  0
  -21.5201  -10.5950   22.4593 F   0  0  0  0  0  0  0  0  0  0  0  0
  1  2  1  0  0  0  0
  1  5  2  0  0  0  0
  2  6  2  0  0  0  0
  3 10  2  0  0  0  0
  3 17  1  0  0  0  0
  4 11  1  0  0  0  0
  4 17  2  0  0  0  0
  5 19  1  0  0  0  0
  6 21  1  0  0  0  0
  7 12  2  0  0  0  0
  7 20  1  0  0  0  0
  8  9  2  0  0  0  0
  8 23  1  0  0  0  0
  9 24  1  0  0  0  0
 10 27  1  0  0  0  0
 11 27  2  0  0  0  0
 12 28  1  0  0  0  0
 13 14  2  0  0  0  0
 13 29  1  0  0  0  0
 14 30  1  0  0  0  0
 15 22  1  0  0  0  0
 15 28  2  0  0  0  0
 16 30  2  0  0  0  0
 16 31  1  0  0  0  0
 17 32  1  0  0  0  0
 18 32  1  0  0  0  0
 18 33  2  0  0  0  0
 18 34  1  0  0  0  0
 19 21  2  0  0  0  0
 19 40  1  0  0  0  0
 20 22  2  0  0  0  0
 20 41  1  0  0  0  0
 21 49  1  0  0  0  0
 22 42  1  0  0  0  0
 23 25  2  0  0  0  0
 23 62  1  0  0  0  0
 24 26  2  0  0  0  0
 24 76  1  0  0  0  0
 25 26  1  0  0  0  0
 25 52  1  0  0  0  0
 26 85  1  0  0  0  0
 27 94  1  0  0  0  0
 28 95  1  0  0  0  0
 29 31  2  0  0  0  0
 29 94  1  0  0  0  0
 30 96  1  0  0  0  0
 31 97  1  0  0  0  0
 32 78  2  0  0  0  0
 33 80  1  0  0  0  0
 33 83  1  0  0  0  0
 34 84  1  0  0  0  0
 34 89  2  0  0  0  0
 35 50  1  0  0  0  0
 35 86  1  0  0  0  0
 35 90  2  0  0  0  0
 36 53  1  0  0  0  0
 36 63  1  0  0  0  0
 36 79  2  0  0  0  0
 37 74  1  0  0  0  0
 37 81  1  0  0  0  0
 37 91  2  0  0  0  0
 38 75  1  0  0  0  0
 38 87  1  0  0  0  0
 38 92  2  0  0  0  0
 39 82  1  0  0  0  0
 39 85  1  0  0  0  0
 39 93  2  0  0  0  0
 40 43  1  0  0  0  0
 41 50  1  0  0  0  0
 42 81  1  0  0  0  0
 43 45  1  0  0  0  0
 44 46  1  0  0  0  0
 44 47  1  0  0  0  0
 45 49  1  0  0  0  0
 46 51  1  0  0  0  0
 47 82  1  0  0  0  0
 48 51  1  0  0  0  0
 48 82  1  0  0  0  0
 49 86  1  0  0  0  0
 50 81  1  0  0  0  0
 51 80  1  0  0  0  0
 54 75  1  0  0  0  0
 55 76  1  0  0  0  0
 56 76  1  0  0  0  0
 57 76  1  0  0  0  0
 58 77  1  0  0  0  0
 59 77  1  0  0  0  0
 60 77  1  0  0  0  0
 61 88  1  0  0  0  0
 62 79  1  0  0  0  0
 63 64  1  0  0  0  0
 64 65  1  0  0  0  0
 65 66  1  0  0  0  0
 66 67  1  0  0  0  0
 67 68  1  0  0  0  0
 68 69  1  0  0  0  0
 69 70  1  0  0  0  0
 70 71  1  0  0  0  0
 71 72  1  0  0  0  0
 72 73  1  0  0  0  0
 73 95  1  0  0  0  0
 74 77  1  0  0  0  0
 74 87  1  0  0  0  0
 75 88  1  0  0  0  0
 78 80  1  0  0  0  0
M  CHG  1  88   1
M  ISO  4  39 100  73 101  85 100  95 101
M  END
> <Batch ID>
0016

> <Smiles>
C=C(CCCCCCCCCC[101CH2:1][101O:1]c1ccc2c(c1)CN(C(=O)C(NC(=O)C(C)NC)C(C)(C)C)C(C(=O)NC1CCCc3ccccc31)C2)NCc1ccc(C(C)(C)C)c([100NH:0][100C:0](=O)N2CCCC(n3nc(-c4ccc(Oc5ccc(F)cc5F)cc4)c(C(N)=O)c3N)C2)c1C

> <Shape>
0.288

> <Color>
0.063

> <Negative vol penalty>
0.000

$$$$

  -OEChem-04052315583D

 98105  0     1  0  0  0  0  0999 V2000
  -24.6930  -32.6491   28.1978 C   0  0  0  0  0  0  0  0  0  0  0  0
  -25.1886  -31.3492   28.1985 C   0  0  0  0  0  0  0  0  0  0  0  0
  -23.1163   -9.8464   19.9467 C   0  0  0  0  0  0  0  0  0  0  0  0
  -23.6651  -10.0003   22.2946 C   0  0  0  0  0  0  0  0  0  0  0  0
  -23.7737  -33.0429   27.2263 C   0  0  0  0  0  0  0  0  0  0  0  0
  -24.7643  -30.4420   27.2283 C   0  0  0  0  0  0  0  0  0  0  0  0
  -28.0905  -26.0018   24.6344 C   0  0  0  0  0  0  0  0  0  0  0  0
  -22.3613   -8.7008   20.1983 C   0  0  0  0  0  0  0  0  0  0  0  0
  -22.9101   -8.8547   22.5461 C   0  0  0  0  0  0  0  0  0  0  0  0
  -28.1862  -24.6336   24.8846 C   0  0  0  0  0  0  0  0  0  0  0  0
  -23.2747   -5.5093   22.2200 C   0  0  0  0  0  0  0  0  0  0  0  0
  -23.8301   -4.5368   23.0514 C   0  0  0  0  0  0  0  0  0  0  0  0
  -26.5840  -24.2072   23.1324 C   0  0  0  0  0  0  0  0  0  0  0  0
  -21.9797   -4.7904   24.5841 C   0  0  0  0  0  0  0  0  0  0  0  0
  -23.7682  -10.4961   20.9949 C   0  0  0  0  0  0  0  0  0  0  0  0
  -24.1010  -13.0137   20.7530 C   0  0  0  0  0  0  0  0  0  0  0  0
  -23.3452  -32.1428   26.2380 C   0  0  0  0  0  0  0  0  0  0  0  0
  -27.2312  -26.4846   23.6370 C   0  0  0  0  0  0  0  0  0  0  0  0
  -23.8374  -30.8237   26.2435 C   0  0  0  0  0  0  0  0  0  0  0  0
  -26.4812  -25.5818   22.8697 C   0  0  0  0  0  0  0  0  0  0  0  0
  -22.2582   -8.2050   21.4980 C   0  0  0  0  0  0  0  0  0  0  0  0
  -27.4308  -23.7363   24.1355 C   0  0  0  0  0  0  0  0  0  0  0  0
  -22.0718   -6.1225   22.5707 C   0  0  0  0  0  0  0  0  0  0  0  0
  -23.1826   -4.1773   24.2335 C   0  0  0  0  0  0  0  0  0  0  0  0
  -21.4244   -5.7630   23.7527 C   0  0  0  0  0  0  0  0  0  0  0  0
  -24.5488  -11.6792   20.7356 C   0  0  0  0  0  0  0  0  0  0  0  0
  -25.2161  -13.7541   20.4447 C   0  0  0  0  0  0  0  0  0  0  0  0
  -22.7940  -13.5374   21.0237 C   0  0  0  0  0  0  0  0  0  0  0  0
  -24.6859  -28.3882   23.5975 C   0  0  0  0  0  0  0  0  0  0  0  0
  -27.7307  -19.5667   25.0949 C   0  0  0  0  0  0  0  0  0  0  0  0
  -24.9847  -28.0728   20.3829 C   0  0  0  0  0  0  0  0  0  0  0  0
  -33.1848  -16.0797   22.4857 C   0  0  0  0  0  0  0  0  0  0  0  0
  -26.1283  -26.2323   17.7462 C   0  0  0  0  0  0  0  0  0  0  0  0
  -30.5204  -14.8902   21.1662 C   0  0  0  0  0  0  0  0  0  0  0  0
  -22.3142  -32.6007   25.2369 C   0  0  0  0  0  0  0  0  0  0  0  0
  -27.1594  -27.9615   23.3614 C   0  0  0  0  0  0  0  0  0  0  0  0
  -25.5590  -26.0477   21.7738 C   0  0  0  0  0  0  0  0  0  0  0  0
  -22.2000  -31.6874   24.0191 C   0  0  0  0  0  0  0  0  0  0  0  0
  -29.7565  -12.3172   18.7385 C   0  0  0  0  0  0  0  0  0  0  0  0
  -22.1411  -30.2258   24.4516 C   0  0  0  0  0  0  0  0  0  0  0  0
  -28.2857  -12.0333   19.0487 C   0  0  0  0  0  0  0  0  0  0  0  0
  -30.5467  -12.5959   20.0137 C   0  0  0  0  0  0  0  0  0  0  0  0
  -28.5268  -13.4177   21.1618 C   0  0  0  0  0  0  0  0  0  0  0  0
  -23.4201  -29.8178   25.1927 C   0  0  1  0  0  0  0  0  0  0  0  0
  -25.8661  -28.3778   22.6676 C   0  0  1  0  0  0  0  0  0  0  0  0
  -27.6693  -13.1504   19.9115 C   0  0  2  0  0  0  0  0  0  0  0  0
  -24.2912  -18.4256   17.3761 C   0  0  0  0  0  0  0  0  0  0  0  0
  -29.1048  -21.6393   18.1151 C   0  0  0  0  0  0  0  0  0  0  0  0
  -26.1886  -26.2110   15.2376 C   0  0  0  0  0  0  0  0  0  0  0  0
  -34.7664  -15.5265   19.9340 C   0  0  0  0  0  0  0  0  0  0  0  0
  -33.0405  -16.8242   18.6595 C   0  0  0  0  0  0  0  0  0  0  0  0
  -29.1284  -18.4775   19.6893 C   0  0  0  0  0  0  0  0  0  0  0  0
  -22.0613  -27.2010   20.3225 C   0  0  0  0  0  0  0  0  0  0  0  0
  -22.4493  -26.3024   18.0181 C   0  0  0  0  0  0  0  0  0  0  0  0
  -22.7296  -28.7400   18.4679 C   0  0  0  0  0  0  0  0  0  0  0  0
  -29.0863  -26.3162   17.7010 C   0  0  0  0  0  0  0  0  0  0  0  0
  -27.0318  -19.3603   23.7610 C   0  0  0  0  0  0  0  0  0  0  0  0
  -27.1853  -20.6524   26.0118 C   0  0  0  0  0  0  0  0  0  0  0  0
  -25.3058  -19.4986   17.7364 C   0  0  0  0  0  0  0  0  0  0  0  0
  -28.0169  -19.5644   22.6113 C   0  0  0  0  0  0  0  0  0  0  0  0
  -31.6051  -18.1800   25.5470 C   0  0  0  0  0  0  0  0  0  0  0  0
  -30.6020  -17.9598   26.6838 C   0  0  0  0  0  0  0  0  0  0  0  0
  -32.7373  -17.1492   25.6006 C   0  0  0  0  0  0  0  0  0  0  0  0
  -27.3256  -19.4065   21.2548 C   0  0  0  0  0  0  0  0  0  0  0  0
  -29.4309  -18.9348   26.6256 C   0  0  0  0  0  0  0  0  0  0  0  0
  -33.7872  -17.3753   24.5177 C   0  0  0  0  0  0  0  0  0  0  0  0
  -28.2468  -20.4604   17.7106 C   0  0  0  0  0  0  0  0  0  0  0  0
  -26.4708  -18.9135   18.5187 C   0  0  0  0  0  0  0  0  0  0  0  0
  -27.8254  -22.0007   25.7129 C   0  0  0  0  0  0  0  0  0  1  0  0
  -24.4509  -27.1112   19.3488 C   0  0  1  0  0  0  0  0  0  0  0  0
  -32.5926  -16.2528   21.0887 C   0  0  1  0  0  0  0  0  0  0  0  0
  -26.9137  -26.6261   16.5083 C   0  0  2  0  0  0  0  0  0  0  0  0
  -33.6699  -16.5919   20.0367 C   0  0  0  0  0  0  0  0  0  0  0  0
  -28.2634  -19.6706   20.0723 C   0  0  2  0  0  0  0  0  0  0  0  0
  -22.9386  -27.3297   19.0612 C   0  0  0  0  0  0  0  0  0  0  0  0
  -25.8470  -11.5747   20.4395 N   0  0  0  0  0  0  0  0  0  0  0  0
  -28.7325  -18.7981   25.3591 N   0  0  0  0  0  0  0  0  0  0  0  0
  -26.2246  -12.8530   20.2679 N   0  0  0  0  0  0  0  0  0  0  0  0
  -25.5188  -27.5018   21.5467 N   0  0  0  0  0  0  0  0  0  0  0  0
  -29.9180  -13.6814   20.7794 N   0  0  0  0  0  0  0  0  0  0  0  0
  -25.4224  -15.0814   20.3102 N   0  0  0  0  0  0  0  0  0  0  0  0
  -21.7624  -12.6371   21.3231 N   0  0  0  0  0  0  0  0  0  0  0  0
  -24.4974  -29.5896   24.2537 N   0  0  0  0  0  0  0  0  0  0  0  0
  -33.2387  -17.2767   23.1935 N   0  0  0  0  0  0  0  0  0  0  0  0
  -25.3086  -27.2539   18.1774 N   0  0  0  0  0  0  0  0  0  0  0  0
  -31.8416  -15.0588   20.7703 N   0  0  0  0  0  0  0  0  0  0  0  0
  -28.2550  -25.9766   16.5175 N   0  3  0  0  0  0  0  0  0  0  0  0
  -27.4211  -20.0205   18.8898 N   0  3  1  0  0  0  0  0  0  0  0  0
  -22.5445  -14.7661   20.9847 O   0  0  0  0  0  0  0  0  0  0  0  0
  -23.9965  -27.3814   23.7101 O   0  0  0  0  0  0  0  0  0  0  0  0
  -24.9364  -29.2856   20.1629 O   0  0  0  0  0  0  0  0  0  0  0  0
  -33.5931  -15.0008   22.9109 O   0  0  0  0  0  0  0  0  0  0  0  0
  -26.2289  -25.1277   18.2755 O   0  0  0  0  0  0  0  0  0  0  0  0
  -29.9230  -15.7579   21.8122 O   0  0  0  0  0  0  0  0  0  0  0  0
  -21.5213   -7.0873   21.7438 O   0  0  0  0  0  0  0  0  0  0  0  0
  -27.5224  -22.3908   24.3798 O   0  0  0  0  0  0  0  0  0  1  0  0
  -23.7153   -3.2422   25.0310 F   0  0  0  0  0  0  0  0  0  0  0  0
  -20.2680   -6.3477   24.0943 F   0  0  0  0  0  0  0  0  0  0  0  0
  1  2  1  0  0  0  0
  1  5  2  0  0  0  0
  2  6  2  0  0  0  0
  3  8  2  0  0  0  0
  3 15  1  0  0  0  0
  4  9  1  0  0  0  0
  4 15  2  0  0  0  0
  5 17  1  0  0  0  0
  6 19  1  0  0  0  0
  7 10  2  0  0  0  0
  7 18  1  0  0  0  0
  8 21  1  0  0  0  0
  9 21  2  0  0  0  0
 10 22  1  0  0  0  0
 11 12  2  0  0  0  0
 11 23  1  0  0  0  0
 12 24  1  0  0  0  0
 13 20  1  0  0  0  0
 13 22  2  0  0  0  0
 14 24  2  0  0  0  0
 14 25  1  0  0  0  0
 15 26  1  0  0  0  0
 16 26  1  0  0  0  0
 16 27  2  0  0  0  0
 16 28  1  0  0  0  0
 17 19  2  0  0  0  0
 17 35  1  0  0  0  0
 18 20  2  0  0  0  0
 18 36  1  0  0  0  0
 19 44  1  0  0  0  0
 20 37  1  0  0  0  0
 21 95  1  0  0  0  0
 22 96  1  0  0  0  0
 23 25  2  0  0  0  0
 23 95  1  0  0  0  0
 24 97  1  0  0  0  0
 25 98  1  0  0  0  0
 26 76  2  0  0  0  0
 27 78  1  0  0  0  0
 27 81  1  0  0  0  0
 28 82  1  0  0  0  0
 28 89  2  0  0  0  0
 29 45  1  0  0  0  0
 29 83  1  0  0  0  0
 29 90  2  0  0  0  0
 30 57  1  0  0  0  0
 30 58  1  0  0  0  0
 30 77  2  0  0  0  0
 31 70  1  0  0  0  0
 31 79  1  0  0  0  0
 31 91  2  0  0  0  0
 32 71  1  0  0  0  0
 32 84  1  0  0  0  0
 32 92  2  0  0  0  0
 33 72  1  0  0  0  0
 33 85  1  0  0  0  0
 33 93  2  0  0  0  0
 34 80  1  0  0  0  0
 34 86  1  0  0  0  0
 34 94  2  0  0  0  0
 35 38  1  0  0  0  0
 36 45  1  0  0  0  0
 37 79  1  0  0  0  0
 38 40  1  0  0  0  0
 39 41  1  0  0  0  0
 39 42  1  0  0  0  0
 40 44  1  0  0  0  0
 41 46  1  0  0  0  0
 42 80  1  0  0  0  0
 43 46  1  0  0  0  0
 43 80  1  0  0  0  0
 44 83  1  0  0  0  0
 45 79  1  0  0  0  0
 46 78  1  0  0  0  0
 47 59  1  0  0  0  0
 48 67  1  0  0  0  0
 49 72  1  0  0  0  0
 50 73  1  0  0  0  0
 51 73  1  0  0  0  0
 52 74  1  0  0  0  0
 53 75  1  0  0  0  0
 54 75  1  0  0  0  0
 55 75  1  0  0  0  0
 56 87  1  0  0  0  0
 57 60  1  0  0  0  0
 58 69  1  0  0  0  0
 59 68  1  0  0  0  0
 60 64  1  0  0  0  0
 61 62  1  0  0  0  0
 61 63  1  0  0  0  0
 62 65  1  0  0  0  0
 63 66  1  0  0  0  0
 64 74  1  0  0  0  0
 65 77  1  0  0  0  0
 66 84  1  0  0  0  0
 67 88  1  0  0  0  0
 68 88  1  0  0  0  0
 69 96  1  0  0  0  0
 70 75  1  0  0  0  0
 70 85  1  0  0  0  0
 71 73  1  0  0  0  0
 71 86  1  0  0  0  0
 72 87  1  0  0  0  0
 74 88  1  0  0  0  0
 76 78  1  0  0  0  0
M  CHG  2  87   1  88   1
M  ISO  4  34 100  69 101  86 100  96 101
M  END
> <Batch ID>
0016

> <Smiles>
CCCN(CC)C(C)CCCC(=C[101CH2:1][101O:1]c1ccc2c(c1)CN(C(=O)C(NC(=O)C(C)NC)C(C)(C)C)C(C(=O)NC1CCCc3ccccc31)C2)NCCCCCNC(=O)C([100NH:0][100C:0](=O)N1CCCC(n2nc(-c3ccc(Oc4ccc(F)cc4F)cc3)c(C(N)=O)c2N)C1)C(C)C

> <Shape>
0.246

> <Color>
0.163

> <Negative vol penalty>
0.000

$$$$

  -OEChem-04052315583D

 88 96  0     1  0  0  0  0  0999 V2000
  -30.2834  -32.7369   24.9347 C   0  0  0  0  0  0  0  0  0  0  0  0
  -30.0778  -31.6416   24.1019 C   0  0  0  0  0  0  0  0  0  0  0  0
  -26.7691  -12.3076   21.8984 C   0  0  0  0  0  0  0  0  0  0  0  0
  -25.9084  -14.1008   20.5270 C   0  0  0  0  0  0  0  0  0  0  0  0
  -29.3277  -33.0714   25.8932 C   0  0  0  0  0  0  0  0  0  0  0  0
  -28.9169  -30.8795   24.2279 C   0  0  0  0  0  0  0  0  0  0  0  0
  -26.8146  -29.7873   19.7522 C   0  0  0  0  0  0  0  0  0  0  0  0
  -25.4983  -11.7349   21.9473 C   0  0  0  0  0  0  0  0  0  0  0  0
  -24.6375  -13.5281   20.5758 C   0  0  0  0  0  0  0  0  0  0  0  0
  -27.3977  -28.7628   19.0079 C   0  0  0  0  0  0  0  0  0  0  0  0
  -23.5333   -9.8571   19.9359 C   0  0  0  0  0  0  0  0  0  0  0  0
  -23.4344   -8.4806   19.7338 C   0  0  0  0  0  0  0  0  0  0  0  0
  -25.6838  -27.2442   19.7666 C   0  0  0  0  0  0  0  0  0  0  0  0
  -28.0727  -23.9451   22.2886 C   0  0  0  0  0  0  0  0  0  0  0  0
  -22.4570   -8.2286   21.9288 C   0  0  0  0  0  0  0  0  0  0  0  0
  -26.9742  -13.4907   21.1883 C   0  0  0  0  0  0  0  0  0  0  0  0
  -29.2939  -13.8383   20.1854 C   0  0  0  0  0  0  0  0  0  0  0  0
  -28.1500  -32.3188   26.0245 C   0  0  0  0  0  0  0  0  0  0  0  0
  -25.6660  -29.5448   20.5193 C   0  0  0  0  0  0  0  0  0  0  0  0
  -27.9452  -31.2034   25.1900 C   0  0  0  0  0  0  0  0  0  0  0  0
  -25.0866  -28.2680   20.5178 C   0  0  0  0  0  0  0  0  0  0  0  0
  -28.5073  -23.2815   21.1413 C   0  0  0  0  0  0  0  0  0  0  0  0
  -28.2434  -23.3565   23.5417 C   0  0  0  0  0  0  0  0  0  0  0  0
  -29.2831  -21.4405   22.5001 C   0  0  0  0  0  0  0  0  0  0  0  0
  -24.4324  -12.3451   21.2860 C   0  0  0  0  0  0  0  0  0  0  0  0
  -26.8340  -27.4902   19.0173 C   0  0  0  0  0  0  0  0  0  0  0  0
  -23.0941  -10.4195   21.1344 C   0  0  0  0  0  0  0  0  0  0  0  0
  -22.8962   -7.6663   20.7303 C   0  0  0  0  0  0  0  0  0  0  0  0
  -22.5559   -9.6052   22.1309 C   0  0  0  0  0  0  0  0  0  0  0  0
  -28.8486  -22.1042   23.6474 C   0  0  0  0  0  0  0  0  0  0  0  0
  -29.1125  -22.0292   21.2470 C   0  0  0  0  0  0  0  0  0  0  0  0
  -28.2867  -14.0831   21.1380 C   0  0  0  0  0  0  0  0  0  0  0  0
  -30.3385  -14.6398   20.5764 C   0  0  0  0  0  0  0  0  0  0  0  0
  -29.2860  -12.9645   19.0486 C   0  0  0  0  0  0  0  0  0  0  0  0
  -24.9662  -29.6858   23.6167 C   0  0  0  0  0  0  0  0  0  0  0  0
  -21.9589  -29.0727   22.5668 C   0  0  0  0  0  0  0  0  0  0  0  0
  -19.9478  -27.7745   20.1343 C   0  0  0  0  0  0  0  0  0  0  0  0
  -30.6374  -19.7075   23.7283 C   0  0  0  0  0  0  0  0  0  0  0  0
  -27.1678  -32.6906   27.1069 C   0  0  0  0  0  0  0  0  0  0  0  0
  -25.0337  -30.6673   21.2955 C   0  0  0  0  0  0  0  0  0  0  0  0
  -23.8421  -27.9609   21.3086 C   0  0  0  0  0  0  0  0  0  0  0  0
  -25.7915  -32.0558   26.9248 C   0  0  0  0  0  0  0  0  0  0  0  0
  -32.2717  -16.6342   24.4777 C   0  0  0  0  0  0  0  0  0  0  0  0
  -25.9271  -30.5726   26.5953 C   0  0  0  0  0  0  0  0  0  0  0  0
  -31.5308  -15.6099   23.6150 C   0  0  0  0  0  0  0  0  0  0  0  0
  -31.3276  -17.7032   25.0251 C   0  0  0  0  0  0  0  0  0  0  0  0
  -29.7648  -17.3575   23.1524 C   0  0  0  0  0  0  0  0  0  0  0  0
  -26.6872  -30.3670   25.2795 C   0  0  1  0  0  0  0  0  0  0  0  0
  -24.1612  -30.1796   22.4480 C   0  0  1  0  0  0  0  0  0  0  0  0
  -30.6849  -16.2975   22.5253 C   0  0  2  0  0  0  0  0  0  0  0  0
  -17.5326  -27.3840   19.5757 C   0  0  0  0  0  0  0  0  0  0  0  0
  -28.2437  -26.3854   24.4951 C   0  0  0  0  0  0  0  0  0  0  0  0
  -26.3749  -25.5106   25.9401 C   0  0  0  0  0  0  0  0  0  0  0  0
  -30.7409  -25.1677   17.2204 C   0  0  0  0  0  0  0  0  0  0  0  0
  -21.8868  -26.7333   24.5242 C   0  0  0  0  0  0  0  0  0  0  0  0
  -19.9086  -25.8404   23.2762 C   0  0  0  0  0  0  0  0  0  0  0  0
  -19.7703  -28.0601   24.4060 C   0  0  0  0  0  0  0  0  0  0  0  0
  -20.1126  -29.4722   17.7157 C   0  0  0  0  0  0  0  0  0  0  0  0
  -28.3021  -23.9529   19.8154 C   0  0  0  0  0  0  0  0  0  0  0  0
  -28.8140  -26.5474   18.0971 C   0  0  0  0  0  0  0  0  0  1  0  0
  -21.1526  -27.8241   22.3023 C   0  0  1  0  0  0  0  0  0  0  0  0
  -18.7158  -28.3302   19.4430 C   0  0  2  0  0  0  0  0  0  0  0  0
  -27.1757  -25.3141   24.6612 C   0  0  0  0  0  0  0  0  0  0  0  0
  -29.3850  -25.1466   17.9073 C   0  0  2  0  0  0  0  0  0  0  0  0
  -20.7041  -27.1195   23.6137 C   0  0  0  0  0  0  0  0  0  0  0  0
  -28.6580  -14.9706   22.0645 N   0  0  0  0  0  0  0  0  0  0  0  0
  -29.9102  -15.2904   21.6960 N   0  0  0  0  0  0  0  0  0  0  0  0
  -23.2646  -29.0901   22.0563 N   0  0  0  0  0  0  0  0  0  0  0  0
  -30.5626  -18.3139   23.9358 N   0  0  0  0  0  0  0  0  0  0  0  0
  -31.5723  -14.8445   20.0684 N   0  0  0  0  0  0  0  0  0  0  0  0
  -28.1313  -12.2128   18.7918 N   0  0  0  0  0  0  0  0  0  0  0  0
  -29.8932  -20.1697   22.6434 N   0  0  0  0  0  0  0  0  0  0  0  0
  -27.8030  -24.0295   24.7004 N   0  0  0  0  0  0  0  0  0  0  0  0
  -25.8222  -30.6307   24.1496 N   0  0  0  0  0  0  0  0  0  0  0  0
  -20.0518  -28.2255   21.4331 N   0  0  0  0  0  0  0  0  0  0  0  0
  -18.9871  -28.5431   17.9932 N   0  3  0  0  0  0  0  0  0  0  0  0
  -29.5533  -24.5181   19.2495 N   0  3  0  0  0  0  0  0  0  0  0  0
  -30.2795  -12.8414   18.2928 O   0  0  0  0  0  0  0  0  0  0  0  0
  -24.8204  -28.5334   24.0070 O   0  0  0  0  0  0  0  0  0  0  0  0
  -21.4465  -30.0014   23.1966 O   0  0  0  0  0  0  0  0  0  0  0  0
  -20.7368  -27.0132   19.5789 O   0  0  0  0  0  0  0  0  0  0  0  0
  -31.3337  -20.4334   24.4427 O   0  0  0  0  0  0  0  0  0  0  0  0
  -23.1922  -11.7864   21.3332 O   0  0  0  0  0  0  0  0  0  0  0  0
  -27.4016  -26.4883   18.2922 O   0  0  0  0  0  0  0  0  0  1  0  0
  -22.7999   -6.3446   20.5355 F   0  0  0  0  0  0  0  0  0  0  0  0
  -22.1311  -10.1398   23.2840 F   0  0  0  0  0  0  0  0  0  0  0  0
  -29.0118  -21.5399   24.8541 F   0  0  0  0  0  0  0  0  0  0  0  0
  -29.6505  -21.2084   19.8176 Cl  0  0  0  0  0  0  0  0  0  0  0  0
  1  2  1  0  0  0  0
  1  5  2  0  0  0  0
  2  6  2  0  0  0  0
  3  8  2  0  0  0  0
  3 16  1  0  0  0  0
  4  9  1  0  0  0  0
  4 16  2  0  0  0  0
  5 18  1  0  0  0  0
  6 20  1  0  0  0  0
  7 10  2  0  0  0  0
  7 19  1  0  0  0  0
  8 25  1  0  0  0  0
  9 25  2  0  0  0  0
 10 26  1  0  0  0  0
 11 12  2  0  0  0  0
 11 27  1  0  0  0  0
 12 28  1  0  0  0  0
 13 21  1  0  0  0  0
 13 26  2  0  0  0  0
 14 22  1  0  0  0  0
 14 23  2  0  0  0  0
 15 28  2  0  0  0  0
 15 29  1  0  0  0  0
 16 32  1  0  0  0  0
 17 32  1  0  0  0  0
 17 33  2  0  0  0  0
 17 34  1  0  0  0  0
 18 20  2  0  0  0  0
 18 39  1  0  0  0  0
 19 21  2  0  0  0  0
 19 40  1  0  0  0  0
 20 48  1  0  0  0  0
 21 41  1  0  0  0  0
 22 31  2  0  0  0  0
 22 59  1  0  0  0  0
 23 30  1  0  0  0  0
 23 73  1  0  0  0  0
 24 30  2  0  0  0  0
 24 31  1  0  0  0  0
 24 72  1  0  0  0  0
 25 83  1  0  0  0  0
 26 84  1  0  0  0  0
 27 29  2  0  0  0  0
 27 83  1  0  0  0  0
 28 85  1  0  0  0  0
 29 86  1  0  0  0  0
 30 87  1  0  0  0  0
 31 88  1  0  0  0  0
 32 66  2  0  0  0  0
 33 67  1  0  0  0  0
 33 70  1  0  0  0  0
 34 71  1  0  0  0  0
 34 78  2  0  0  0  0
 35 49  1  0  0  0  0
 35 74  1  0  0  0  0
 35 79  2  0  0  0  0
 36 61  1  0  0  0  0
 36 68  1  0  0  0  0
 36 80  2  0  0  0  0
 37 62  1  0  0  0  0
 37 75  1  0  0  0  0
 37 81  2  0  0  0  0
 38 69  1  0  0  0  0
 38 72  1  0  0  0  0
 38 82  2  0  0  0  0
 39 42  1  0  0  0  0
 40 49  1  0  0  0  0
 41 68  1  0  0  0  0
 42 44  1  0  0  0  0
 43 45  1  0  0  0  0
 43 46  1  0  0  0  0
 44 48  1  0  0  0  0
 45 50  1  0  0  0  0
 46 69  1  0  0  0  0
 47 50  1  0  0  0  0
 47 69  1  0  0  0  0
 48 74  1  0  0  0  0
 49 68  1  0  0  0  0
 50 67  1  0  0  0  0
 51 62  1  0  0  0  0
 52 63  1  0  0  0  0
 53 63  1  0  0  0  0
 54 64  1  0  0  0  0
 55 65  1  0  0  0  0
 56 65  1  0  0  0  0
 57 65  1  0  0  0  0
 58 76  1  0  0  0  0
 59 77  1  0  0  0  0
 60 64  1  0  0  0  0
 60 84  1  0  0  0  0
 61 65  1  0  0  0  0
 61 75  1  0  0  0  0
 62 76  1  0  0  0  0
 63 73  1  0  0  0  0
 64 77  1  0  0  0  0
 66 67  1  0  0  0  0
M  CHG  2  76   1  77   1
M  ISO  4  38 100  60 101  72 100  84 101
M  END
> <Batch ID>
0016

> <Smiles>
CNC(C)C(=O)NC(C(=O)N1Cc2cc([101O:1][101CH2:1]C(C)NCc3cc(NC(C)C)c(F)c([100NH:0][100C:0](=O)N4CCCC(n5nc(-c6ccc(Oc7ccc(F)cc7F)cc6)c(C(N)=O)c5N)C4)c3Cl)ccc2CC1C(=O)NC1CCCc2ccccc21)C(C)(C)C

> <Shape>
0.320

> <Color>
0.068

> <Negative vol penalty>
0.000

$$$$

  -OEChem-04052315583D

 84 92  0     1  0  0  0  0  0999 V2000
  -35.0078  -31.1421   25.9795 C   0  0  0  0  0  0  0  0  0  0  0  0
  -34.1356  -30.3018   25.2950 C   0  0  0  0  0  0  0  0  0  0  0  0
  -23.1383   -9.7758   21.5451 C   0  0  0  0  0  0  0  0  0  0  0  0
  -23.8185  -10.8490   23.6000 C   0  0  0  0  0  0  0  0  0  0  0  0
  -34.5066  -32.0816   26.8795 C   0  0  0  0  0  0  0  0  0  0  0  0
  -32.7615  -30.3999   25.5110 C   0  0  0  0  0  0  0  0  0  0  0  0
  -30.1051  -30.2949   21.2008 C   0  0  0  0  0  0  0  0  0  0  0  0
  -22.4572   -8.8040   22.2781 C   0  0  0  0  0  0  0  0  0  0  0  0
  -23.1374   -9.8772   24.3330 C   0  0  0  0  0  0  0  0  0  0  0  0
  -29.9147  -29.0511   20.6004 C   0  0  0  0  0  0  0  0  0  0  0  0
  -23.2182   -6.0049   24.0131 C   0  0  0  0  0  0  0  0  0  0  0  0
  -23.3785   -4.6736   23.6290 C   0  0  0  0  0  0  0  0  0  0  0  0
  -27.6947  -28.9449   21.5383 C   0  0  0  0  0  0  0  0  0  0  0  0
  -21.0016   -4.5019   23.2318 C   0  0  0  0  0  0  0  0  0  0  0  0
  -23.8191  -10.7983   22.2061 C   0  0  0  0  0  0  0  0  0  0  0  0
  -24.0121  -13.0267   20.9794 C   0  0  0  0  0  0  0  0  0  0  0  0
  -33.1250  -32.1977   27.0994 C   0  0  0  0  0  0  0  0  0  0  0  0
  -29.0940  -30.8690   21.9848 C   0  0  0  0  0  0  0  0  0  0  0  0
  -32.2413  -31.3409   26.4158 C   0  0  0  0  0  0  0  0  0  0  0  0
  -27.8738  -30.1973   22.1455 C   0  0  0  0  0  0  0  0  0  0  0  0
  -22.4567   -8.8547   23.6720 C   0  0  0  0  0  0  0  0  0  0  0  0
  -28.7104  -28.3746   20.7714 C   0  0  0  0  0  0  0  0  0  0  0  0
  -21.9495   -6.5847   24.0067 C   0  0  0  0  0  0  0  0  0  0  0  0
  -22.2703   -3.9221   23.2383 C   0  0  0  0  0  0  0  0  0  0  0  0
  -20.8412   -5.8332   23.6160 C   0  0  0  0  0  0  0  0  0  0  0  0
  -24.5233  -11.8021   21.4495 C   0  0  0  0  0  0  0  0  0  0  0  0
  -31.6718  -19.0421   19.5268 C   0  0  0  0  0  0  0  0  0  0  0  0
  -30.8171  -20.0557   19.9004 C   0  0  0  0  0  0  0  0  0  0  0  0
  -29.2710  -18.5072   20.5646 C   0  0  0  0  0  0  0  0  0  0  0  0
  -30.1253  -17.4935   20.1903 C   0  0  0  0  0  0  0  0  0  0  0  0
  -25.0688  -13.6114   20.3252 C   0  0  0  0  0  0  0  0  0  0  0  0
  -22.6994  -13.5856   21.1214 C   0  0  0  0  0  0  0  0  0  0  0  0
  -28.8378  -31.7349   25.0325 C   0  0  0  0  0  0  0  0  0  0  0  0
  -25.9836  -32.9227   24.0501 C   0  0  0  0  0  0  0  0  0  0  0  0
  -23.4256  -32.8217   21.7932 C   0  0  0  0  0  0  0  0  0  0  0  0
  -30.4531  -15.0005   20.0373 C   0  0  0  0  0  0  0  0  0  0  0  0
  -32.6333  -33.1962   28.1172 C   0  0  0  0  0  0  0  0  0  0  0  0
  -29.3052  -32.2236   22.6038 C   0  0  0  0  0  0  0  0  0  0  0  0
  -26.7493  -30.7797   22.9607 C   0  0  0  0  0  0  0  0  0  0  0  0
  -31.1393  -33.4903   28.0096 C   0  0  0  0  0  0  0  0  0  0  0  0
  -29.5666  -11.7175   18.9819 C   0  0  0  0  0  0  0  0  0  0  0  0
  -30.3480  -32.1929   27.8770 C   0  0  0  0  0  0  0  0  0  0  0  0
  -28.1335  -11.5476   19.4911 C   0  0  0  0  0  0  0  0  0  0  0  0
  -30.4252  -12.5168   19.9605 C   0  0  0  0  0  0  0  0  0  0  0  0
  -28.4325  -13.6442   20.8702 C   0  0  0  0  0  0  0  0  0  0  0  0
  -30.7427  -31.4336   26.6046 C   0  0  1  0  0  0  0  0  0  0  0  0
  -28.3987  -32.4800   23.8038 C   0  0  1  0  0  0  0  0  0  0  0  0
  -27.5122  -12.9012   19.8880 C   0  0  2  0  0  0  0  0  0  0  0  0
  -33.0131  -19.3318   18.9450 C   0  0  0  0  0  0  0  0  0  0  0  0
  -27.9273  -18.2275   21.1483 C   0  0  0  0  0  0  0  0  0  0  0  0
  -21.2142  -33.8877   21.2732 C   0  0  0  0  0  0  0  0  0  0  0  0
  -24.6839  -31.3161   26.2950 C   0  0  0  0  0  0  0  0  0  0  0  0
  -22.4771  -31.6471   25.1599 C   0  0  0  0  0  0  0  0  0  0  0  0
  -23.7589  -33.6195   25.9900 C   0  0  0  0  0  0  0  0  0  0  0  0
  -24.3875  -33.8120   19.1754 C   0  0  0  0  0  0  0  0  0  0  0  0
  -31.1989  -21.5059   19.7408 C   0  0  0  0  0  0  0  0  0  0  0  0
  -30.0337  -22.4798   19.9491 C   0  0  0  0  0  0  0  0  0  0  0  0
  -30.4572  -23.9493   19.8589 C   0  0  0  0  0  0  0  0  0  0  0  0
  -29.2612  -24.8820   20.0418 C   0  0  0  0  0  0  0  0  0  0  0  0
  -29.6779  -26.3452   19.9959 C   0  0  0  0  0  0  0  0  0  1  0  0
  -24.5789  -32.3799   23.9448 C   0  0  1  0  0  0  0  0  0  0  0  0
  -22.7145  -33.9223   21.0268 C   0  0  2  0  0  0  0  0  0  0  0  0
  -23.8964  -32.2285   25.3336 C   0  0  0  0  0  0  0  0  0  0  0  0
  -25.8050  -11.6186   21.1216 N   0  0  0  0  0  0  0  0  0  0  0  0
  -29.6014  -19.8065   20.4261 N   0  0  0  0  0  0  0  0  0  0  0  0
  -31.3412  -17.7428   19.6650 N   0  0  0  0  0  0  0  0  0  0  0  0
  -26.1081  -12.7355   20.4385 N   0  0  0  0  0  0  0  0  0  0  0  0
  -27.0063  -32.1037   23.5510 N   0  0  0  0  0  0  0  0  0  0  0  0
  -29.7759  -13.7882   20.2875 N   0  0  0  0  0  0  0  0  0  0  0  0
  -25.2010  -14.7841   19.6698 N   0  0  0  0  0  0  0  0  0  0  0  0
  -21.7333  -12.8521   21.8235 N   0  0  0  0  0  0  0  0  0  0  0  0
  -29.7239  -16.1450   20.3580 N   0  0  0  0  0  0  0  0  0  0  0  0
  -30.1222  -32.0355   25.4439 N   0  0  0  0  0  0  0  0  0  0  0  0
  -23.8691  -33.2602   23.0230 N   0  0  0  0  0  0  0  0  0  0  0  0
  -22.9540  -33.7725   19.5635 N   0  3  0  0  0  0  0  0  0  0  0  0
  -22.3877  -14.6951   20.6260 O   0  0  0  0  0  0  0  0  0  0  0  0
  -28.0676  -30.9467   25.5685 O   0  0  0  0  0  0  0  0  0  0  0  0
  -26.1660  -34.0355   24.5500 O   0  0  0  0  0  0  0  0  0  0  0  0
  -23.5698  -31.6855   21.3473 O   0  0  0  0  0  0  0  0  0  0  0  0
  -31.5851  -15.0223   19.5474 O   0  0  0  0  0  0  0  0  0  0  0  0
  -21.7920   -7.9067   24.3876 O   0  0  0  0  0  0  0  0  0  0  0  0
  -28.5222  -27.1602   20.1870 O   0  0  0  0  0  0  0  0  0  1  0  0
  -22.4247   -2.6442   22.8679 F   0  0  0  0  0  0  0  0  0  0  0  0
  -19.6201   -6.3850   23.6066 F   0  0  0  0  0  0  0  0  0  0  0  0
  1  2  1  0  0  0  0
  1  5  2  0  0  0  0
  2  6  2  0  0  0  0
  3  8  2  0  0  0  0
  3 15  1  0  0  0  0
  4  9  1  0  0  0  0
  4 15  2  0  0  0  0
  5 17  1  0  0  0  0
  6 19  1  0  0  0  0
  7 10  2  0  0  0  0
  7 18  1  0  0  0  0
  8 21  1  0  0  0  0
  9 21  2  0  0  0  0
 10 22  1  0  0  0  0
 11 12  2  0  0  0  0
 11 23  1  0  0  0  0
 12 24  1  0  0  0  0
 13 20  1  0  0  0  0
 13 22  2  0  0  0  0
 14 24  2  0  0  0  0
 14 25  1  0  0  0  0
 15 26  1  0  0  0  0
 16 26  1  0  0  0  0
 16 31  2  0  0  0  0
 16 32  1  0  0  0  0
 17 19  2  0  0  0  0
 17 37  1  0  0  0  0
 18 20  2  0  0  0  0
 18 38  1  0  0  0  0
 19 46  1  0  0  0  0
 20 39  1  0  0  0  0
 21 81  1  0  0  0  0
 22 82  1  0  0  0  0
 23 25  2  0  0  0  0
 23 81  1  0  0  0  0
 24 83  1  0  0  0  0
 25 84  1  0  0  0  0
 26 64  2  0  0  0  0
 27 28  2  0  0  0  0
 27 49  1  0  0  0  0
 27 66  1  0  0  0  0
 28 56  1  0  0  0  0
 28 65  1  0  0  0  0
 29 30  1  0  0  0  0
 29 50  1  0  0  0  0
 29 65  2  0  0  0  0
 30 66  2  0  0  0  0
 30 72  1  0  0  0  0
 31 67  1  0  0  0  0
 31 70  1  0  0  0  0
 32 71  1  0  0  0  0
 32 76  2  0  0  0  0
 33 47  1  0  0  0  0
 33 73  1  0  0  0  0
 33 77  2  0  0  0  0
 34 61  1  0  0  0  0
 34 68  1  0  0  0  0
 34 78  2  0  0  0  0
 35 62  1  0  0  0  0
 35 74  1  0  0  0  0
 35 79  2  0  0  0  0
 36 69  1  0  0  0  0
 36 72  1  0  0  0  0
 36 80  2  0  0  0  0
 37 40  1  0  0  0  0
 38 47  1  0  0  0  0
 39 68  1  0  0  0  0
 40 42  1  0  0  0  0
 41 43  1  0  0  0  0
 41 44  1  0  0  0  0
 42 46  1  0  0  0  0
 43 48  1  0  0  0  0
 44 69  1  0  0  0  0
 45 48  1  0  0  0  0
 45 69  1  0  0  0  0
 46 73  1  0  0  0  0
 47 68  1  0  0  0  0
 48 67  1  0  0  0  0
 51 62  1  0  0  0  0
 52 63  1  0  0  0  0
 53 63  1  0  0  0  0
 54 63  1  0  0  0  0
 55 75  1  0  0  0  0
 56 57  1  0  0  0  0
 57 58  1  0  0  0  0
 58 59  1  0  0  0  0
 59 60  1  0  0  0  0
 60 82  1  0  0  0  0
 61 63  1  0  0  0  0
 61 74  1  0  0  0  0
 62 75  1  0  0  0  0
 64 67  1  0  0  0  0
M  CHG  1  75   1
M  ISO  4  36 100  60 101  72 100  82 101
M  END
> <Batch ID>
0016

> <Smiles>
CNC(C)C(=O)NC(C(=O)N1Cc2cc([101O:1][101CH2:1]CCCCc3nc(C)c([100NH:0][100C:0](=O)N4CCCC(n5nc(-c6ccc(Oc7ccc(F)cc7F)cc6)c(C(N)=O)c5N)C4)nc3C)ccc2CC1C(=O)NC1CCCc2ccccc21)C(C)(C)C

> <Shape>
0.291

> <Color>
0.176

> <Negative vol penalty>
0.000

$$$$

  -OEChem-04052315583D

 85 93  0     1  0  0  0  0  0999 V2000
  -30.8638  -33.8458   16.5093 C   0  0  0  0  0  0  0  0  0  0  0  0
  -30.4596  -32.5846   16.9352 C   0  0  0  0  0  0  0  0  0  0  0  0
  -23.1486   -9.6865   20.2923 C   0  0  0  0  0  0  0  0  0  0  0  0
  -23.7812  -10.1033   22.5864 C   0  0  0  0  0  0  0  0  0  0  0  0
  -30.6638  -34.9548   17.3303 C   0  0  0  0  0  0  0  0  0  0  0  0
  -29.8559  -32.4316   18.1829 C   0  0  0  0  0  0  0  0  0  0  0  0
  -25.4277  -28.4708   19.6692 C   0  0  0  0  0  0  0  0  0  0  0  0
  -31.8838  -16.9534   22.1414 C   0  0  0  0  0  0  0  0  0  0  0  0
  -22.4091   -8.5756   20.6980 C   0  0  0  0  0  0  0  0  0  0  0  0
  -23.0417   -8.9923   22.9922 C   0  0  0  0  0  0  0  0  0  0  0  0
  -25.4544  -27.2263   20.2972 C   0  0  0  0  0  0  0  0  0  0  0  0
  -19.7974   -8.2323   23.5555 C   0  0  0  0  0  0  0  0  0  0  0  0
  -18.9779   -8.3748   24.6752 C   0  0  0  0  0  0  0  0  0  0  0  0
  -32.4454  -17.9788   22.9021 C   0  0  0  0  0  0  0  0  0  0  0  0
  -24.9629  -28.2874   22.4072 C   0  0  0  0  0  0  0  0  0  0  0  0
  -20.2054   -6.6219   25.7967 C   0  0  0  0  0  0  0  0  0  0  0  0
  -23.8346  -10.4504   21.2365 C   0  0  0  0  0  0  0  0  0  0  0  0
  -24.1454  -12.9253   20.7021 C   0  0  0  0  0  0  0  0  0  0  0  0
  -30.0486  -34.8167   18.5845 C   0  0  0  0  0  0  0  0  0  0  0  0
  -25.1789  -29.6360   20.4085 C   0  0  0  0  0  0  0  0  0  0  0  0
  -29.6487  -33.5396   19.0219 C   0  0  0  0  0  0  0  0  0  0  0  0
  -24.9311  -29.5452   21.7857 C   0  0  0  0  0  0  0  0  0  0  0  0
  -30.2477  -18.9166   23.2601 C   0  0  0  0  0  0  0  0  0  0  0  0
  -30.5042  -16.9096   21.9399 C   0  0  0  0  0  0  0  0  0  0  0  0
  -22.3556   -8.2285   22.0479 C   0  0  0  0  0  0  0  0  0  0  0  0
  -25.2248  -27.1348   21.6669 C   0  0  0  0  0  0  0  0  0  0  0  0
  -20.8208   -7.2844   23.5563 C   0  0  0  0  0  0  0  0  0  0  0  0
  -19.1819   -7.5697   25.7958 C   0  0  0  0  0  0  0  0  0  0  0  0
  -21.0248   -6.4793   24.6769 C   0  0  0  0  0  0  0  0  0  0  0  0
  -31.6273  -18.9604   23.4615 C   0  0  0  0  0  0  0  0  0  0  0  0
  -29.6862  -17.8912   22.4993 C   0  0  0  0  0  0  0  0  0  0  0  0
  -24.5991  -11.5977   20.8180 C   0  0  0  0  0  0  0  0  0  0  0  0
  -25.2447  -13.6276   20.2723 C   0  0  0  0  0  0  0  0  0  0  0  0
  -22.8464  -13.4746   20.9601 C   0  0  0  0  0  0  0  0  0  0  0  0
  -26.8177  -32.2857   21.0385 C   0  0  0  0  0  0  0  0  0  0  0  0
  -24.0383  -33.2072   22.4343 C   0  0  0  0  0  0  0  0  0  0  0  0
  -21.0911  -32.3009   23.8969 C   0  0  0  0  0  0  0  0  0  0  0  0
  -30.6771  -14.8180   20.5465 C   0  0  0  0  0  0  0  0  0  0  0  0
  -29.8965  -36.0377   19.4568 C   0  0  0  0  0  0  0  0  0  0  0  0
  -25.1270  -30.9679   19.7115 C   0  0  0  0  0  0  0  0  0  0  0  0
  -24.6391  -30.7639   22.6210 C   0  0  0  0  0  0  0  0  0  0  0  0
  -28.9103  -35.8461   20.6061 C   0  0  0  0  0  0  0  0  0  0  0  0
  -29.7301  -12.0092   18.5739 C   0  0  0  0  0  0  0  0  0  0  0  0
  -29.1665  -34.5194   21.3139 C   0  0  0  0  0  0  0  0  0  0  0  0
  -28.2734  -11.7610   18.9724 C   0  0  0  0  0  0  0  0  0  0  0  0
  -30.5743  -12.4617   19.7640 C   0  0  0  0  0  0  0  0  0  0  0  0
  -28.5840  -13.3657   20.8999 C   0  0  0  0  0  0  0  0  0  0  0  0
  -28.9679  -33.3368   20.3582 C   0  0  1  0  0  0  0  0  0  0  0  0
  -25.3728  -32.1441   20.6514 C   0  0  1  0  0  0  0  0  0  0  0  0
  -27.6799  -12.9706   19.7208 C   0  0  2  0  0  0  0  0  0  0  0  0
  -19.0437  -33.2758   24.9717 C   0  0  0  0  0  0  0  0  0  0  0  0
  -25.6468  -33.7948   24.9596 C   0  0  0  0  0  0  0  0  0  0  0  0
  -23.4939  -33.8387   26.2368 C   0  0  0  0  0  0  0  0  0  0  0  0
  -23.8969  -35.4973   24.4176 C   0  0  0  0  0  0  0  0  0  0  0  0
  -19.3100  -31.1071   21.8569 C   0  0  0  0  0  0  0  0  0  0  0  0
  -29.3729  -19.9745   23.8656 C   0  0  0  0  0  0  0  0  0  0  0  0
  -27.5144  -22.9158   22.3051 C   0  0  0  0  0  0  0  0  0  0  0  0
  -26.6013  -24.0174   22.8381 C   0  0  0  0  0  0  0  0  0  0  0  0
  -27.9648  -21.9899   23.4252 C   0  0  0  0  0  0  0  0  0  0  0  0
  -26.1074  -24.9271   21.7222 C   0  0  0  0  0  0  0  0  0  1  0  0
  -23.4437  -33.0838   23.8164 C   0  0  1  0  0  0  0  0  0  0  0  0
  -19.6677  -32.7806   23.6763 C   0  0  2  0  0  0  0  0  0  0  0  0
  -24.1277  -34.0307   24.8425 C   0  0  0  0  0  0  0  0  0  0  0  0
  -25.8863  -11.4621   20.4882 N   0  0  0  0  0  0  0  0  0  0  0  0
  -26.2508  -12.7135   20.1608 N   0  0  0  0  0  0  0  0  0  0  0  0
  -24.6055  -32.0441   21.8946 N   0  0  0  0  0  0  0  0  0  0  0  0
  -29.9529  -13.6136   20.4211 N   0  0  0  0  0  0  0  0  0  0  0  0
  -25.4392  -14.9317   19.9825 N   0  0  0  0  0  0  0  0  0  0  0  0
  -21.8310  -12.6125   21.3959 N   0  0  0  0  0  0  0  0  0  0  0  0
  -29.9723  -15.8535   21.1592 N   0  0  0  0  0  0  0  0  0  0  0  0
  -27.5580  -33.0681   20.1728 N   0  0  0  0  0  0  0  0  0  0  0  0
  -22.0094  -33.3030   23.6648 N   0  0  0  0  0  0  0  0  0  0  0  0
  -18.8251  -31.6737   23.1418 N   0  3  0  0  0  0  0  0  0  0  0  0
  -28.8827  -20.9664   22.8697 N   0  3  0  0  0  0  0  0  0  0  0  0
  -22.5893  -14.6909   20.7928 O   0  0  0  0  0  0  0  0  0  0  0  0
  -27.2301  -31.7278   22.0486 O   0  0  0  0  0  0  0  0  0  0  0  0
  -23.9945  -34.2938   21.8519 O   0  0  0  0  0  0  0  0  0  0  0  0
  -21.3610  -31.1533   24.2442 O   0  0  0  0  0  0  0  0  0  0  0  0
  -31.8276  -14.9313   20.1157 O   0  0  0  0  0  0  0  0  0  0  0  0
  -21.6340   -7.1446   22.4442 O   0  0  0  0  0  0  0  0  0  0  0  0
  -25.2509  -25.9215   22.2826 O   0  0  0  0  0  0  0  0  0  1  0  0
  -18.3959   -7.7078   26.8716 F   0  0  0  0  0  0  0  0  0  0  0  0
  -22.0071   -5.5678   24.6840 F   0  0  0  0  0  0  0  0  0  0  0  0
  -32.3657  -20.2123   24.3943 Cl  0  0  0  0  0  0  0  0  0  0  0  0
  -27.9702  -17.8341   22.2505 Cl  0  0  0  0  0  0  0  0  0  0  0  0
  1  2  1  0  0  0  0
  1  5  2  0  0  0  0
  2  6  2  0  0  0  0
  3  9  2  0  0  0  0
  3 17  1  0  0  0  0
  4 10  1  0  0  0  0
  4 17  2  0  0  0  0
  5 19  1  0  0  0  0
  6 21  1  0  0  0  0
  7 11  2  0  0  0  0
  7 20  1  0  0  0  0
  8 14  1  0  0  0  0
  8 24  2  0  0  0  0
  9 25  1  0  0  0  0
 10 25  2  0  0  0  0
 11 26  1  0  0  0  0
 12 13  2  0  0  0  0
 12 27  1  0  0  0  0
 13 28  1  0  0  0  0
 14 30  2  0  0  0  0
 15 22  1  0  0  0  0
 15 26  2  0  0  0  0
 16 28  2  0  0  0  0
 16 29  1  0  0  0  0
 17 32  1  0  0  0  0
 18 32  1  0  0  0  0
 18 33  2  0  0  0  0
 18 34  1  0  0  0  0
 19 21  2  0  0  0  0
 19 39  1  0  0  0  0
 20 22  2  0  0  0  0
 20 40  1  0  0  0  0
 21 48  1  0  0  0  0
 22 41  1  0  0  0  0
 23 30  1  0  0  0  0
 23 31  2  0  0  0  0
 23 56  1  0  0  0  0
 24 31  1  0  0  0  0
 24 70  1  0  0  0  0
 25 80  1  0  0  0  0
 26 81  1  0  0  0  0
 27 29  2  0  0  0  0
 27 80  1  0  0  0  0
 28 82  1  0  0  0  0
 29 83  1  0  0  0  0
 30 84  1  0  0  0  0
 31 85  1  0  0  0  0
 32 64  2  0  0  0  0
 33 65  1  0  0  0  0
 33 68  1  0  0  0  0
 34 69  1  0  0  0  0
 34 75  2  0  0  0  0
 35 49  1  0  0  0  0
 35 71  1  0  0  0  0
 35 76  2  0  0  0  0
 36 61  1  0  0  0  0
 36 66  1  0  0  0  0
 36 77  2  0  0  0  0
 37 62  1  0  0  0  0
 37 72  1  0  0  0  0
 37 78  2  0  0  0  0
 38 67  1  0  0  0  0
 38 70  1  0  0  0  0
 38 79  2  0  0  0  0
 39 42  1  0  0  0  0
 40 49  1  0  0  0  0
 41 66  1  0  0  0  0
 42 44  1  0  0  0  0
 43 45  1  0  0  0  0
 43 46  1  0  0  0  0
 44 48  1  0  0  0  0
 45 50  1  0  0  0  0
 46 67  1  0  0  0  0
 47 50  1  0  0  0  0
 47 67  1  0  0  0  0
 48 71  1  0  0  0  0
 49 66  1  0  0  0  0
 50 65  1  0  0  0  0
 51 62  1  0  0  0  0
 52 63  1  0  0  0  0
 53 63  1  0  0  0  0
 54 63  1  0  0  0  0
 55 73  1  0  0  0  0
 56 74  1  0  0  0  0
 57 58  1  0  0  0  0
 57 59  1  0  0  0  0
 58 60  1  0  0  0  0
 59 74  1  0  0  0  0
 60 81  1  0  0  0  0
 61 63  1  0  0  0  0
 61 72  1  0  0  0  0
 62 73  1  0  0  0  0
 64 65  1  0  0  0  0
M  CHG  2  73   1  74   1
M  ISO  4  38 100  60 101  70 100  81 101
M  END
> <Batch ID>
0016

> <Smiles>
CNC(C)C(=O)NC(C(=O)N1Cc2cc([101O:1][101CH2:1]CCCNCc3c(Cl)ccc([100NH:0][100C:0](=O)N4CCCC(n5nc(-c6ccc(Oc7ccc(F)cc7F)cc6)c(C(N)=O)c5N)C4)c3Cl)ccc2CC1C(=O)NC1CCCc2ccccc21)C(C)(C)C

> <Shape>
0.256

> <Color>
0.188

> <Negative vol penalty>
0.000

$$$$

  -OEChem-04052315583D

 83 91  0     1  0  0  0  0  0999 V2000
  -29.3950  -24.2010   16.6821 C   0  0  0  0  0  0  0  0  0  0  0  0
  -28.1840  -24.2478   17.3651 C   0  0  0  0  0  0  0  0  0  0  0  0
  -28.1655  -15.6475   21.2456 C   0  0  0  0  0  0  0  0  0  0  0  0
  -27.0888  -17.7023   20.5705 C   0  0  0  0  0  0  0  0  0  0  0  0
  -30.5056  -24.8755   17.1876 C   0  0  0  0  0  0  0  0  0  0  0  0
  -28.0831  -24.9683   18.5547 C   0  0  0  0  0  0  0  0  0  0  0  0
  -23.8877  -27.7968   18.7630 C   0  0  0  0  0  0  0  0  0  0  0  0
  -29.4022  -16.1722   20.8703 C   0  0  0  0  0  0  0  0  0  0  0  0
  -28.3255  -18.2270   20.1953 C   0  0  0  0  0  0  0  0  0  0  0  0
  -22.6938  -27.1436   19.0658 C   0  0  0  0  0  0  0  0  0  0  0  0
  -31.0084  -19.6085   21.7165 C   0  0  0  0  0  0  0  0  0  0  0  0
  -31.3007  -20.9160   22.1046 C   0  0  0  0  0  0  0  0  0  0  0  0
  -22.8693  -27.8952   21.3513 C   0  0  0  0  0  0  0  0  0  0  0  0
  -31.5359  -21.5519   19.7857 C   0  0  0  0  0  0  0  0  0  0  0  0
  -16.8339  -19.5016   18.9623 C   0  0  0  0  0  0  0  0  0  0  0  0
  -27.0088  -16.4125   21.0956 C   0  0  0  0  0  0  0  0  0  0  0  0
  -25.3467  -15.4309   22.7635 C   0  0  0  0  0  0  0  0  0  0  0  0
  -30.4158  -25.6126   18.3789 C   0  0  0  0  0  0  0  0  0  0  0  0
  -24.5882  -28.4962   19.7563 C   0  0  0  0  0  0  0  0  0  0  0  0
  -29.1939  -25.6522   19.0773 C   0  0  0  0  0  0  0  0  0  0  0  0
  -24.0705  -28.5586   21.0579 C   0  0  0  0  0  0  0  0  0  0  0  0
  -17.0795  -20.7124   19.5894 C   0  0  0  0  0  0  0  0  0  0  0  0
  -18.3342  -20.9094   20.1555 C   0  0  0  0  0  0  0  0  0  0  0  0
  -29.4822  -17.4619   20.3452 C   0  0  0  0  0  0  0  0  0  0  0  0
  -22.1859  -27.1903   20.3607 C   0  0  0  0  0  0  0  0  0  0  0  0
  -30.9800  -19.2727   20.3629 C   0  0  0  0  0  0  0  0  0  0  0  0
  -31.5644  -21.8877   21.1393 C   0  0  0  0  0  0  0  0  0  0  0  0
  -31.2437  -20.2444   19.3975 C   0  0  0  0  0  0  0  0  0  0  0  0
  -19.2912  -19.9037   20.0782 C   0  0  0  0  0  0  0  0  0  0  0  0
  -25.7309  -15.8708   21.4826 C   0  0  0  0  0  0  0  0  0  0  0  0
  -18.9465  -18.7290   19.4293 C   0  0  0  0  0  0  0  0  0  0  0  0
  -24.0482  -15.0114   22.6073 C   0  0  0  0  0  0  0  0  0  0  0  0
  -26.0965  -15.4040   23.9852 C   0  0  0  0  0  0  0  0  0  0  0  0
  -27.4645  -28.2292   21.0826 C   0  0  0  0  0  0  0  0  0  0  0  0
  -26.6138  -30.9925   22.5532 C   0  0  0  0  0  0  0  0  0  0  0  0
  -24.1136  -33.0498   23.6319 C   0  0  0  0  0  0  0  0  0  0  0  0
  -19.7349  -16.4417   18.7273 C   0  0  0  0  0  0  0  0  0  0  0  0
  -31.6558  -26.2864   18.9110 C   0  0  0  0  0  0  0  0  0  0  0  0
  -25.8609  -29.2179   19.4073 C   0  0  0  0  0  0  0  0  0  0  0  0
  -24.7737  -29.3129   22.1557 C   0  0  0  0  0  0  0  0  0  0  0  0
  -31.3672  -27.3356   19.9815 C   0  0  0  0  0  0  0  0  0  0  0  0
  -21.0685  -13.1954   19.3274 C   0  0  0  0  0  0  0  0  0  0  0  0
  -30.3816  -26.7913   21.0106 C   0  0  0  0  0  0  0  0  0  0  0  0
  -22.3775  -13.4728   20.0701 C   0  0  0  0  0  0  0  0  0  0  0  0
  -20.7935  -14.2444   18.2515 C   0  0  0  0  0  0  0  0  0  0  0  0
  -22.1433  -15.9140   19.4597 C   0  0  0  0  0  0  0  0  0  0  0  0
  -29.0383  -26.4435   20.3579 C   0  0  1  0  0  0  0  0  0  0  0  0
  -26.7560  -29.4696   20.6168 C   0  0  1  0  0  0  0  0  0  0  0  0
  -22.4306  -14.9202   20.5970 C   0  0  2  0  0  0  0  0  0  0  0  0
  -16.0149  -21.7535   19.6396 C   0  0  0  0  0  0  0  0  0  0  0  0
  -23.7279  -35.2189   24.8332 C   0  0  0  0  0  0  0  0  0  0  0  0
  -27.2756  -29.6381   25.2061 C   0  0  0  0  0  0  0  0  0  0  0  0
  -26.0007  -31.4514   26.3701 C   0  0  0  0  0  0  0  0  0  0  0  0
  -28.0291  -32.0165   25.0325 C   0  0  0  0  0  0  0  0  0  0  0  0
  -22.7407  -34.2347   21.2931 C   0  0  0  0  0  0  0  0  0  0  0  0
  -18.6340  -22.2164   20.8452 C   0  0  0  0  0  0  0  0  0  0  0  0
  -19.5132  -23.1638   20.0215 C   0  0  0  0  0  0  0  0  0  0  0  0
  -19.8698  -24.4502   20.7677 C   0  0  0  0  0  0  0  0  0  0  0  0
  -20.7094  -25.3825   19.9049 C   0  0  0  0  0  0  0  0  0  1  0  0
  -25.9042  -31.3452   23.8382 C   0  0  1  0  0  0  0  0  0  0  0  0
  -23.9046  -34.5458   23.4811 C   0  0  2  0  0  0  0  0  0  0  0  0
  -26.7899  -31.0969   25.0917 C   0  0  0  0  0  0  0  0  0  0  0  0
  -17.7382  -18.5012   18.8673 N   0  0  0  0  0  0  0  0  0  0  0  0
  -24.7554  -15.7425   20.5792 N   0  0  0  0  0  0  0  0  0  0  0  0
  -23.7455  -15.2171   21.2934 N   0  0  0  0  0  0  0  0  0  0  0  0
  -26.0178  -29.9969   21.7662 N   0  0  0  0  0  0  0  0  0  0  0  0
  -20.8561  -15.5907   18.8245 N   0  0  0  0  0  0  0  0  0  0  0  0
  -23.1473  -14.4901   23.4669 N   0  0  0  0  0  0  0  0  0  0  0  0
  -26.0470  -16.5254   24.8244 N   0  0  0  0  0  0  0  0  0  0  0  0
  -19.8999  -17.6848   19.3371 N   0  0  0  0  0  0  0  0  0  0  0  0
  -28.2657  -27.6440   20.1208 N   0  0  0  0  0  0  0  0  0  0  0  0
  -25.4523  -32.7244   23.6896 N   0  0  0  0  0  0  0  0  0  0  0  0
  -22.6926  -34.8191   22.6580 N   0  3  0  0  0  0  0  0  0  0  0  0
  -26.8029  -14.4212   24.3149 O   0  0  0  0  0  0  0  0  0  0  0  0
  -27.2978  -27.8332   22.2303 O   0  0  0  0  0  0  0  0  0  0  0  0
  -27.6546  -31.5838   22.2552 O   0  0  0  0  0  0  0  0  0  0  0  0
  -23.1824  -32.2502   23.6960 O   0  0  0  0  0  0  0  0  0  0  0  0
  -18.6945  -16.0831   18.1695 O   0  0  0  0  0  0  0  0  0  0  0  0
  -30.6889  -17.9744   19.9791 O   0  0  0  0  0  0  0  0  0  0  0  0
  -21.0211  -26.5531   20.6591 O   0  0  0  0  0  0  0  0  0  1  0  0
  -31.8435  -23.1435   21.5121 F   0  0  0  0  0  0  0  0  0  0  0  0
  -31.2166  -19.9280   18.0956 F   0  0  0  0  0  0  0  0  0  0  0  0
  -20.8577  -20.1268   20.7762 Cl  0  0  0  0  0  0  0  0  0  0  0  0
  1  2  1  0  0  0  0
  1  5  2  0  0  0  0
  2  6  2  0  0  0  0
  3  8  2  0  0  0  0
  3 16  1  0  0  0  0
  4  9  1  0  0  0  0
  4 16  2  0  0  0  0
  5 18  1  0  0  0  0
  6 20  1  0  0  0  0
  7 10  2  0  0  0  0
  7 19  1  0  0  0  0
  8 24  1  0  0  0  0
  9 24  2  0  0  0  0
 10 25  1  0  0  0  0
 11 12  2  0  0  0  0
 11 26  1  0  0  0  0
 12 27  1  0  0  0  0
 13 21  1  0  0  0  0
 13 25  2  0  0  0  0
 14 27  2  0  0  0  0
 14 28  1  0  0  0  0
 15 22  2  0  0  0  0
 15 63  1  0  0  0  0
 16 30  1  0  0  0  0
 17 30  1  0  0  0  0
 17 32  2  0  0  0  0
 17 33  1  0  0  0  0
 18 20  2  0  0  0  0
 18 38  1  0  0  0  0
 19 21  2  0  0  0  0
 19 39  1  0  0  0  0
 20 47  1  0  0  0  0
 21 40  1  0  0  0  0
 22 23  1  0  0  0  0
 22 50  1  0  0  0  0
 23 29  2  0  0  0  0
 23 56  1  0  0  0  0
 24 79  1  0  0  0  0
 25 80  1  0  0  0  0
 26 28  2  0  0  0  0
 26 79  1  0  0  0  0
 27 81  1  0  0  0  0
 28 82  1  0  0  0  0
 29 31  1  0  0  0  0
 29 83  1  0  0  0  0
 30 64  2  0  0  0  0
 31 63  2  0  0  0  0
 31 70  1  0  0  0  0
 32 65  1  0  0  0  0
 32 68  1  0  0  0  0
 33 69  1  0  0  0  0
 33 74  2  0  0  0  0
 34 48  1  0  0  0  0
 34 71  1  0  0  0  0
 34 75  2  0  0  0  0
 35 60  1  0  0  0  0
 35 66  1  0  0  0  0
 35 76  2  0  0  0  0
 36 61  1  0  0  0  0
 36 72  1  0  0  0  0
 36 77  2  0  0  0  0
 37 67  1  0  0  0  0
 37 70  1  0  0  0  0
 37 78  2  0  0  0  0
 38 41  1  0  0  0  0
 39 48  1  0  0  0  0
 40 66  1  0  0  0  0
 41 43  1  0  0  0  0
 42 44  1  0  0  0  0
 42 45  1  0  0  0  0
 43 47  1  0  0  0  0
 44 49  1  0  0  0  0
 45 67  1  0  0  0  0
 46 49  1  0  0  0  0
 46 67  1  0  0  0  0
 47 71  1  0  0  0  0
 48 66  1  0  0  0  0
 49 65  1  0  0  0  0
 51 61  1  0  0  0  0
 52 62  1  0  0  0  0
 53 62  1  0  0  0  0
 54 62  1  0  0  0  0
 55 73  1  0  0  0  0
 56 57  1  0  0  0  0
 57 58  1  0  0  0  0
 58 59  1  0  0  0  0
 59 80  1  0  0  0  0
 60 62  1  0  0  0  0
 60 72  1  0  0  0  0
 61 73  1  0  0  0  0
 64 65  1  0  0  0  0
M  CHG  1  73   1
M  ISO  4  37 100  59 101  70 100  80 101
M  END
> <Batch ID>
0016

> <Smiles>
CNC(C)C(=O)NC(C(=O)N1Cc2cc([101O:1][101CH2:1]CCCc3c(C)cnc([100NH:0][100C:0](=O)N4CCCC(n5nc(-c6ccc(Oc7ccc(F)cc7F)cc6)c(C(N)=O)c5N)C4)c3Cl)ccc2CC1C(=O)NC1CCCc2ccccc21)C(C)(C)C

> <Shape>
0.219

> <Color>
0.068

> <Negative vol penalty>
0.000

$$$$

  -OEChem-04052315583D

 86 94  0     1  0  0  0  0  0999 V2000
  -33.1838  -35.3887   22.9985 C   0  0  0  0  0  0  0  0  0  0  0  0
  -32.9078  -34.1605   23.5907 C   0  0  0  0  0  0  0  0  0  0  0  0
  -23.0736   -9.8694   19.9406 C   0  0  0  0  0  0  0  0  0  0  0  0
  -23.8318   -9.8777   22.2345 C   0  0  0  0  0  0  0  0  0  0  0  0
  -33.2595  -35.4905   21.6101 C   0  0  0  0  0  0  0  0  0  0  0  0
  -32.7062  -33.0335   22.7947 C   0  0  0  0  0  0  0  0  0  0  0  0
  -34.2995  -27.2673   24.1055 C   0  0  0  0  0  0  0  0  0  0  0  0
  -22.3287   -8.7170   20.1910 C   0  0  0  0  0  0  0  0  0  0  0  0
  -23.0869   -8.7253   22.4850 C   0  0  0  0  0  0  0  0  0  0  0  0
  -33.5788  -26.1874   24.6135 C   0  0  0  0  0  0  0  0  0  0  0  0
  -19.3788   -7.9238   21.6409 C   0  0  0  0  0  0  0  0  0  0  0  0
  -18.0722   -7.8781   21.1547 C   0  0  0  0  0  0  0  0  0  0  0  0
  -33.2127  -25.3836   22.3687 C   0  0  0  0  0  0  0  0  0  0  0  0
  -31.8586  -18.3530   24.2018 C   0  0  0  0  0  0  0  0  0  0  0  0
  -18.6314   -5.9335   19.8345 C   0  0  0  0  0  0  0  0  0  0  0  0
  -23.8252  -10.4497   20.9624 C   0  0  0  0  0  0  0  0  0  0  0  0
  -24.1690  -12.9745   20.8404 C   0  0  0  0  0  0  0  0  0  0  0  0
  -33.0682  -34.3623   20.7970 C   0  0  0  0  0  0  0  0  0  0  0  0
  -34.4733  -27.4197   22.7223 C   0  0  0  0  0  0  0  0  0  0  0  0
  -32.7780  -33.1206   21.3940 C   0  0  0  0  0  0  0  0  0  0  0  0
  -33.9383  -26.4649   21.8458 C   0  0  0  0  0  0  0  0  0  0  0  0
  -30.6643  -18.6985   23.5695 C   0  0  0  0  0  0  0  0  0  0  0  0
  -30.6781  -16.5894   22.3910 C   0  0  0  0  0  0  0  0  0  0  0  0
  -22.3353   -8.1450   21.4632 C   0  0  0  0  0  0  0  0  0  0  0  0
  -33.0328  -25.2469   23.7449 C   0  0  0  0  0  0  0  0  0  0  0  0
  -20.3118   -6.9744   21.2238 C   0  0  0  0  0  0  0  0  0  0  0  0
  -17.6985   -6.8830   20.2516 C   0  0  0  0  0  0  0  0  0  0  0  0
  -32.4628  -17.1258   23.9287 C   0  0  0  0  0  0  0  0  0  0  0  0
  -19.9381   -5.9792   20.3207 C   0  0  0  0  0  0  0  0  0  0  0  0
  -30.0740  -17.8167   22.6641 C   0  0  0  0  0  0  0  0  0  0  0  0
  -31.8725  -16.2440   23.0233 C   0  0  0  0  0  0  0  0  0  0  0  0
  -24.5954  -11.6398   20.7042 C   0  0  0  0  0  0  0  0  0  0  0  0
  -25.2620  -13.7229   20.4773 C   0  0  0  0  0  0  0  0  0  0  0  0
  -22.8986  -13.4916   21.2580 C   0  0  0  0  0  0  0  0  0  0  0  0
  -33.6371  -29.6191   20.5853 C   0  0  0  0  0  0  0  0  0  0  0  0
  -35.4325  -27.7998   18.5880 C   0  0  0  0  0  0  0  0  0  0  0  0
  -36.7745  -24.7449   17.8715 C   0  0  0  0  0  0  0  0  0  0  0  0
  -30.7288  -14.7646   20.6550 C   0  0  0  0  0  0  0  0  0  0  0  0
  -33.1130  -34.5311   19.2989 C   0  0  0  0  0  0  0  0  0  0  0  0
  -35.2762  -28.5756   22.1917 C   0  0  0  0  0  0  0  0  0  0  0  0
  -34.1136  -26.5718   20.3537 C   0  0  0  0  0  0  0  0  0  0  0  0
  -33.2574  -33.2136   18.5415 C   0  0  0  0  0  0  0  0  0  0  0  0
  -29.6143  -12.3496   18.2880 C   0  0  0  0  0  0  0  0  0  0  0  0
  -32.2864  -32.1731   19.0904 C   0  0  0  0  0  0  0  0  0  0  0  0
  -28.1741  -12.0594   18.7168 C   0  0  0  0  0  0  0  0  0  0  0  0
  -30.5287  -12.5787   19.4901 C   0  0  0  0  0  0  0  0  0  0  0  0
  -28.6213  -13.3058   20.8694 C   0  0  0  0  0  0  0  0  0  0  0  0
  -32.5778  -31.8703   20.5652 C   0  0  1  0  0  0  0  0  0  0  0  0
  -34.9531  -28.9105   20.7388 C   0  0  1  0  0  0  0  0  0  0  0  0
  -27.6492  -13.1322   19.6910 C   0  0  2  0  0  0  0  0  0  0  0  0
  -38.1628  -23.5577   16.1509 C   0  0  0  0  0  0  0  0  0  0  0  0
  -29.1686  -21.6502   22.4254 C   0  0  0  0  0  0  0  0  0  0  0  0
  -33.0233  -27.6970   16.7184 C   0  0  0  0  0  0  0  0  0  0  0  0
  -34.1104  -25.7763   15.5363 C   0  0  0  0  0  0  0  0  0  0  0  0
  -35.2227  -28.0089   15.5696 C   0  0  0  0  0  0  0  0  0  0  0  0
  -29.1307  -20.0622   24.9654 C   0  0  0  0  0  0  0  0  0  0  0  0
  -38.8895  -24.1156   19.8437 C   0  0  0  0  0  0  0  0  0  0  0  0
  -31.0250  -22.1858   24.0417 C   0  0  0  0  0  0  0  0  0  0  0  0
  -31.7966  -23.2665   23.2911 C   0  0  0  0  0  0  0  0  0  1  0  0
  -35.1635  -26.6221   17.6827 C   0  0  1  0  0  0  0  0  0  0  0  0
  -38.1760  -24.3319   17.4598 C   0  0  2  0  0  0  0  0  0  0  0  0
  -30.4263  -21.1262   23.1113 C   0  0  1  0  0  0  0  0  0  0  0  0
  -34.3748  -27.0248   16.4047 C   0  0  0  0  0  0  0  0  0  0  0  0
  -25.8604  -11.5427   20.2869 N   0  0  0  0  0  0  0  0  0  0  0  0
  -26.2384  -12.8259   20.1577 N   0  0  0  0  0  0  0  0  0  0  0  0
  -34.9012  -27.7233   19.8832 N   0  0  0  0  0  0  0  0  0  0  0  0
  -29.9699  -13.6107   20.3662 N   0  0  0  0  0  0  0  0  0  0  0  0
  -25.4734  -15.0541   20.4033 N   0  0  0  0  0  0  0  0  0  0  0  0
  -21.8858  -12.5835   21.5953 N   0  0  0  0  0  0  0  0  0  0  0  0
  -30.0815  -15.6908   21.4722 N   0  0  0  0  0  0  0  0  0  0  0  0
  -33.7238  -30.9946   20.6845 N   0  0  0  0  0  0  0  0  0  0  0  0
  -36.4597  -26.0078   17.4161 N   0  0  0  0  0  0  0  0  0  0  0  0
  -30.0869  -19.9383   23.8667 N   0  0  3  0  0  0  0  0  0  0  0  0
  -38.7915  -23.4708   18.5089 N   0  3  0  0  0  0  0  0  0  0  0  0
  -22.6632  -14.7225   21.3141 O   0  0  0  0  0  0  0  0  0  0  0  0
  -32.6186  -28.9662   20.3897 O   0  0  0  0  0  0  0  0  0  0  0  0
  -36.0957  -28.7495   18.1638 O   0  0  0  0  0  0  0  0  0  0  0  0
  -36.0317  -24.0183   18.5279 O   0  0  0  0  0  0  0  0  0  0  0  0
  -31.8583  -14.9321   20.1880 O   0  0  0  0  0  0  0  0  0  0  0  0
  -21.6083   -7.0206   21.7080 O   0  0  0  0  0  0  0  0  0  0  0  0
  -32.3283  -24.1922   24.2381 O   0  0  0  0  0  0  0  0  0  1  0  0
  -16.4434   -6.8383   19.7860 F   0  0  0  0  0  0  0  0  0  0  0  0
  -33.6117  -16.8115   24.5445 F   0  0  0  0  0  0  0  0  0  0  0  0
  -20.8296   -5.0637   19.9173 F   0  0  0  0  0  0  0  0  0  0  0  0
  -28.5873  -18.2531   21.8802 Cl  0  0  0  0  0  0  0  0  0  0  0  0
  -32.6549  -14.7329   22.7145 Cl  0  0  0  0  0  0  0  0  0  0  0  0
  1  2  1  0  0  0  0
  1  5  2  0  0  0  0
  2  6  2  0  0  0  0
  3  8  2  0  0  0  0
  3 16  1  0  0  0  0
  4  9  1  0  0  0  0
  4 16  2  0  0  0  0
  5 18  1  0  0  0  0
  6 20  1  0  0  0  0
  7 10  2  0  0  0  0
  7 19  1  0  0  0  0
  8 24  1  0  0  0  0
  9 24  2  0  0  0  0
 10 25  1  0  0  0  0
 11 12  2  0  0  0  0
 11 26  1  0  0  0  0
 12 27  1  0  0  0  0
 13 21  1  0  0  0  0
 13 25  2  0  0  0  0
 14 22  1  0  0  0  0
 14 28  2  0  0  0  0
 15 27  2  0  0  0  0
 15 29  1  0  0  0  0
 16 32  1  0  0  0  0
 17 32  1  0  0  0  0
 17 33  2  0  0  0  0
 17 34  1  0  0  0  0
 18 20  2  0  0  0  0
 18 39  1  0  0  0  0
 19 21  2  0  0  0  0
 19 40  1  0  0  0  0
 20 48  1  0  0  0  0
 21 41  1  0  0  0  0
 22 30  2  0  0  0  0
 22 73  1  0  0  0  0
 23 30  1  0  0  0  0
 23 31  2  0  0  0  0
 23 70  1  0  0  0  0
 24 80  1  0  0  0  0
 25 81  1  0  0  0  0
 26 29  2  0  0  0  0
 26 80  1  0  0  0  0
 27 82  1  0  0  0  0
 28 31  1  0  0  0  0
 28 83  1  0  0  0  0
 29 84  1  0  0  0  0
 30 85  1  0  0  0  0
 31 86  1  0  0  0  0
 32 64  2  0  0  0  0
 33 65  1  0  0  0  0
 33 68  1  0  0  0  0
 34 69  1  0  0  0  0
 34 75  2  0  0  0  0
 35 49  1  0  0  0  0
 35 71  1  0  0  0  0
 35 76  2  0  0  0  0
 36 60  1  0  0  0  0
 36 66  1  0  0  0  0
 36 77  2  0  0  0  0
 37 61  1  0  0  0  0
 37 72  1  0  0  0  0
 37 78  2  0  0  0  0
 38 67  1  0  0  0  0
 38 70  1  0  0  0  0
 38 79  2  0  0  0  0
 39 42  1  0  0  0  0
 40 49  1  0  0  0  0
 41 66  1  0  0  0  0
 42 44  1  0  0  0  0
 43 45  1  0  0  0  0
 43 46  1  0  0  0  0
 44 48  1  0  0  0  0
 45 50  1  0  0  0  0
 46 67  1  0  0  0  0
 47 50  1  0  0  0  0
 47 67  1  0  0  0  0
 48 71  1  0  0  0  0
 49 66  1  0  0  0  0
 50 65  1  0  0  0  0
 51 61  1  0  0  0  0
 52 62  1  0  0  0  0
 53 63  1  0  0  0  0
 54 63  1  0  0  0  0
 55 63  1  0  0  0  0
 56 73  1  0  0  0  0
 57 74  1  0  0  0  0
 58 59  1  0  0  0  0
 58 62  1  0  0  0  0
 59 81  1  0  0  0  0
 60 63  1  0  0  0  0
 60 72  1  0  0  0  0
 61 74  1  0  0  0  0
 62 73  1  0  0  0  0
 64 65  1  0  0  0  0
M  CHG  1  74   1
M  ISO  4  38 100  59 101  70 100  81 101
M  END
> <Batch ID>
0016

> <Smiles>
CNC(C)C(=O)NC(C(=O)N1Cc2cc([101O:1][101CH2:1]CC(C)N(C)c3cc(F)c(Cl)c([100NH:0][100C:0](=O)N4CCCC(n5nc(-c6ccc(Oc7ccc(F)cc7F)cc6)c(C(N)=O)c5N)C4)c3Cl)ccc2CC1C(=O)NC1CCCc2ccccc21)C(C)(C)C

> <Shape>
0.155

> <Color>
0.200

> <Negative vol penalty>
0.000

$$$$

  -OEChem-04052315583D

 91 98  0     1  0  0  0  0  0999 V2000
  -31.5263  -27.4774   14.0753 C   0  0  0  0  0  0  0  0  0  0  0  0
  -31.0854  -26.7345   15.1658 C   0  0  0  0  0  0  0  0  0  0  0  0
  -22.2788  -13.1592   19.8540 C   0  0  0  0  0  0  0  0  0  0  0  0
  -22.8167  -15.2950   20.8469 C   0  0  0  0  0  0  0  0  0  0  0  0
  -31.5994  -28.8669   14.1636 C   0  0  0  0  0  0  0  0  0  0  0  0
  -30.7184  -27.3807   16.3457 C   0  0  0  0  0  0  0  0  0  0  0  0
  -26.4006  -25.5802   18.2847 C   0  0  0  0  0  0  0  0  0  0  0  0
  -21.1002  -13.1099   20.5984 C   0  0  0  0  0  0  0  0  0  0  0  0
  -21.6381  -15.2458   21.5913 C   0  0  0  0  0  0  0  0  0  0  0  0
  -26.4684  -24.3715   18.9762 C   0  0  0  0  0  0  0  0  0  0  0  0
  -17.7728  -12.5917   21.9675 C   0  0  0  0  0  0  0  0  0  0  0  0
  -16.6061  -12.2023   21.3097 C   0  0  0  0  0  0  0  0  0  0  0  0
  -26.4733  -25.5750   21.0669 C   0  0  0  0  0  0  0  0  0  0  0  0
  -16.8361  -14.0710   19.7957 C   0  0  0  0  0  0  0  0  0  0  0  0
  -23.1371  -14.2517   19.9783 C   0  0  0  0  0  0  0  0  0  0  0  0
  -24.5283  -14.8559   17.9272 C   0  0  0  0  0  0  0  0  0  0  0  0
  -31.2239  -29.5312   15.3420 C   0  0  0  0  0  0  0  0  0  0  0  0
  -26.3796  -26.7979   18.9799 C   0  0  0  0  0  0  0  0  0  0  0  0
  -30.7878  -28.7803   16.4503 C   0  0  0  0  0  0  0  0  0  0  0  0
  -26.4027  -26.7976   20.3819 C   0  0  0  0  0  0  0  0  0  0  0  0
  -20.7798  -14.1532   21.4670 C   0  0  0  0  0  0  0  0  0  0  0  0
  -26.5077  -24.3689   20.3675 C   0  0  0  0  0  0  0  0  0  0  0  0
  -18.4711  -13.7208   21.5396 C   0  0  0  0  0  0  0  0  0  0  0  0
  -16.1378  -12.9419   20.2238 C   0  0  0  0  0  0  0  0  0  0  0  0
  -18.0028  -14.4604   20.4536 C   0  0  0  0  0  0  0  0  0  0  0  0
  -24.3550  -14.3029   19.2101 C   0  0  0  0  0  0  0  0  0  0  0  0
  -25.8569  -14.6544   17.6430 C   0  0  0  0  0  0  0  0  0  0  0  0
  -23.5737  -15.4947   17.0691 C   0  0  0  0  0  0  0  0  0  0  0  0
  -28.2815  -29.3416   19.1066 C   0  0  0  0  0  0  0  0  0  0  0  0
  -25.8984  -30.5464   20.9484 C   0  0  0  0  0  0  0  0  0  0  0  0
  -30.1886  -18.2046   21.2816 C   0  0  0  0  0  0  0  0  0  0  0  0
  -23.2439  -29.9478   23.0080 C   0  0  0  0  0  0  0  0  0  0  0  0
  -30.6988  -13.9258   21.0891 C   0  0  0  0  0  0  0  0  0  0  0  0
  -31.3649  -31.0314   15.4060 C   0  0  0  0  0  0  0  0  0  0  0  0
  -26.2794  -28.0920   18.2200 C   0  0  0  0  0  0  0  0  0  0  0  0
  -26.3619  -28.0768   21.1759 C   0  0  0  0  0  0  0  0  0  0  0  0
  -30.6017  -31.6660   16.5658 C   0  0  0  0  0  0  0  0  0  0  0  0
  -29.4831  -11.6848   18.6039 C   0  0  0  0  0  0  0  0  0  0  0  0
  -30.8530  -30.8931   17.8567 C   0  0  0  0  0  0  0  0  0  0  0  0
  -28.0466  -12.1515   18.3617 C   0  0  0  0  0  0  0  0  0  0  0  0
  -29.8806  -11.8205   20.0721 C   0  0  0  0  0  0  0  0  0  0  0  0
  -28.2410  -13.6301   20.4049 C   0  0  0  0  0  0  0  0  0  0  0  0
  -30.3574  -29.4467   17.7390 C   0  0  1  0  0  0  0  0  0  0  0  0
  -26.7825  -29.2926   19.0155 C   0  0  1  0  0  0  0  0  0  0  0  0
  -27.8130  -13.5647   18.9288 C   0  0  2  0  0  0  0  0  0  0  0  0
  -21.5172  -31.1325   24.3909 C   0  0  0  0  0  0  0  0  0  0  0  0
  -26.1952  -18.5375   21.0076 C   0  0  0  0  0  0  0  0  0  0  0  0
  -27.8842  -17.7846   19.3168 C   0  0  0  0  0  0  0  0  0  0  0  0
  -30.3782  -21.9611   21.5096 C   0  0  0  0  0  0  0  0  0  0  0  0
  -28.0081  -31.1370   23.0721 C   0  0  0  0  0  0  0  0  0  0  0  0
  -26.1567  -31.4135   24.7347 C   0  0  0  0  0  0  0  0  0  0  0  0
  -26.3018  -32.9398   22.7669 C   0  0  0  0  0  0  0  0  0  0  0  0
  -27.4661  -23.0923   24.7754 C   0  0  0  0  0  0  0  0  0  0  0  0
  -21.0211  -28.7919   21.4326 C   0  0  0  0  0  0  0  0  0  0  0  0
  -30.7742  -17.4467   22.4627 C   0  0  0  0  0  0  0  0  0  0  0  0
  -31.3701  -16.0986   22.0829 C   0  0  0  0  0  0  0  0  0  0  0  0
  -27.2366  -22.1053   20.3959 C   0  0  0  0  0  0  0  0  0  1  0  0
  -25.5810  -30.5408   22.4242 C   0  0  1  0  0  0  0  0  0  0  0  0
  -21.8398  -30.5243   23.0349 C   0  0  2  0  0  0  0  0  0  0  0  0
  -27.2949  -19.0009   20.0466 C   0  0  0  0  0  0  0  0  0  0  0  0
  -29.0182  -21.9591   22.2289 C   0  0  1  0  0  0  0  0  0  0  0  0
  -27.9149  -21.1659   21.4269 C   0  0  2  0  0  0  0  0  0  0  0  0
  -28.4049  -19.8473   20.7389 C   0  0  1  0  0  0  0  0  0  0  0  0
  -26.5147  -31.4836   23.2348 C   0  0  0  0  0  0  0  0  0  0  0  0
  -28.0477  -21.6986   24.6578 C   0  0  0  0  0  0  0  0  0  0  0  0
  -29.2343  -21.5795   23.7129 C   0  0  0  0  0  0  0  0  0  0  0  0
  -25.4833  -13.7885   19.7066 N   0  0  0  0  0  0  0  0  0  0  0  0
  -26.3782  -14.0174   18.7305 N   0  0  0  0  0  0  0  0  0  0  0  0
  -26.2703  -29.3165   20.3871 N   0  0  0  0  0  0  0  0  0  0  0  0
  -29.6358  -13.1842   20.5478 N   0  0  0  0  0  0  0  0  0  0  0  0
  -26.6183  -14.9616   16.5714 N   0  0  0  0  0  0  0  0  0  0  0  0
  -22.2512  -15.6189   17.5164 N   0  0  0  0  0  0  0  0  0  0  0  0
  -28.9182  -29.3924   17.8813 N   0  0  0  0  0  0  0  0  0  0  0  0
  -24.1625  -30.8624   22.5379 N   0  0  0  0  0  0  0  0  0  0  0  0
  -29.1310  -19.0141   21.6696 N   0  0  0  0  0  0  0  0  0  0  0  0
  -30.3822  -15.2116   21.5102 N   0  0  0  0  0  0  0  0  0  0  0  0
  -20.8373  -29.4599   22.7468 N   0  3  0  0  0  0  0  0  0  0  0  0
  -23.8805  -15.9274   15.9324 O   0  0  0  0  0  0  0  0  0  0  0  0
  -28.8204  -29.3354   20.2072 O   0  0  0  0  0  0  0  0  0  0  0  0
  -25.8125  -31.6016   20.3153 O   0  0  0  0  0  0  0  0  0  0  0  0
  -30.6181  -18.1049   20.1355 O   0  0  0  0  0  0  0  0  0  0  0  0
  -23.5007  -28.8022   23.3714 O   0  0  0  0  0  0  0  0  0  0  0  0
  -31.8463  -13.4774   21.1848 O   0  0  0  0  0  0  0  0  0  0  0  0
  -19.6297  -14.1056   22.1933 O   0  0  0  0  0  0  0  0  0  0  0  0
  -26.5750  -23.1828   21.0494 O   0  0  0  0  0  0  0  0  0  1  0  0
  -15.0182  -12.5670   19.5911 F   0  0  0  0  0  0  0  0  0  0  0  0
  -18.6701  -15.5454   20.0372 F   0  0  0  0  0  0  0  0  0  0  0  0
  -27.0657  -20.8363   24.2986 F   0  0  0  0  0  0  0  0  0  0  0  0
  -28.4542  -21.3039   25.8970 F   0  0  0  0  0  0  0  0  0  0  0  0
  -30.2205  -22.3927   24.2031 F   0  0  0  0  0  0  0  0  0  0  0  0
  -29.7322  -20.3193   23.8090 F   0  0  0  0  0  0  0  0  0  0  0  0
  1  2  1  0  0  0  0
  1  5  2  0  0  0  0
  2  6  2  0  0  0  0
  3  8  2  0  0  0  0
  3 15  1  0  0  0  0
  4  9  1  0  0  0  0
  4 15  2  0  0  0  0
  5 17  1  0  0  0  0
  6 19  1  0  0  0  0
  7 10  2  0  0  0  0
  7 18  1  0  0  0  0
  8 21  1  0  0  0  0
  9 21  2  0  0  0  0
 10 22  1  0  0  0  0
 11 12  2  0  0  0  0
 11 23  1  0  0  0  0
 12 24  1  0  0  0  0
 13 20  1  0  0  0  0
 13 22  2  0  0  0  0
 14 24  2  0  0  0  0
 14 25  1  0  0  0  0
 15 26  1  0  0  0  0
 16 26  1  0  0  0  0
 16 27  2  0  0  0  0
 16 28  1  0  0  0  0
 17 19  2  0  0  0  0
 17 34  1  0  0  0  0
 18 20  2  0  0  0  0
 18 35  1  0  0  0  0
 19 43  1  0  0  0  0
 20 36  1  0  0  0  0
 21 84  1  0  0  0  0
 22 85  1  0  0  0  0
 23 25  2  0  0  0  0
 23 84  1  0  0  0  0
 24 86  1  0  0  0  0
 25 87  1  0  0  0  0
 26 67  2  0  0  0  0
 27 68  1  0  0  0  0
 27 71  1  0  0  0  0
 28 72  1  0  0  0  0
 28 78  2  0  0  0  0
 29 44  1  0  0  0  0
 29 73  1  0  0  0  0
 29 79  2  0  0  0  0
 30 58  1  0  0  0  0
 30 69  1  0  0  0  0
 30 80  2  0  0  0  0
 31 55  1  0  0  0  0
 31 75  1  0  0  0  0
 31 81  2  0  0  0  0
 32 59  1  0  0  0  0
 32 74  1  0  0  0  0
 32 82  2  0  0  0  0
 33 70  1  0  0  0  0
 33 76  1  0  0  0  0
 33 83  2  0  0  0  0
 34 37  1  0  0  0  0
 35 44  1  0  0  0  0
 36 69  1  0  0  0  0
 37 39  1  0  0  0  0
 38 40  1  0  0  0  0
 38 41  1  0  0  0  0
 39 43  1  0  0  0  0
 40 45  1  0  0  0  0
 41 70  1  0  0  0  0
 42 45  1  0  0  0  0
 42 70  1  0  0  0  0
 43 73  1  0  0  0  0
 44 69  1  0  0  0  0
 45 68  1  0  0  0  0
 46 59  1  0  0  0  0
 47 60  1  0  0  0  0
 48 60  1  0  0  0  0
 49 61  1  0  0  0  0
 50 64  1  0  0  0  0
 51 64  1  0  0  0  0
 52 64  1  0  0  0  0
 53 65  1  0  0  0  0
 54 77  1  0  0  0  0
 55 56  1  0  0  0  0
 56 76  1  0  0  0  0
 57 62  1  0  0  0  0
 57 85  1  0  0  0  0
 58 64  1  0  0  0  0
 58 74  1  0  0  0  0
 59 77  1  0  0  0  0
 60 63  1  0  0  0  0
 61 62  1  0  0  0  0
 61 66  1  0  0  0  0
 62 63  1  0  0  0  0
 63 75  1  0  0  0  0
 65 66  1  0  0  0  0
 65 88  1  0  0  0  0
 65 89  1  0  0  0  0
 66 90  1  0  0  0  0
 66 91  1  0  0  0  0
 67 68  1  0  0  0  0
M  CHG  1  77   1
M  ISO  4  33 100  57 101  76 100  85 101
M  END
> <Batch ID>
0016

> <Smiles>
CNC(C)C(=O)NC(C(=O)N1Cc2cc([101O:1][101CH2:1]C(C(NC(=O)CC[100NH:0][100C:0](=O)N3CCCC(n4nc(-c5ccc(Oc6ccc(F)cc6F)cc5)c(C(N)=O)c4N)C3)C(C)C)C(C)C(F)(F)C(C)(F)F)ccc2CC1C(=O)NC1CCCc2ccccc21)C(C)(C)C

> <Shape>
0.228

> <Color>
0.079

> <Negative vol penalty>
0.000

$$$$

  -OEChem-04052315583D

 85 93  0     1  0  0  0  0  0999 V2000
  -25.7827  -37.6583   19.0056 C   0  0  0  0  0  0  0  0  0  0  0  0
  -26.4577  -36.4554   18.8251 C   0  0  0  0  0  0  0  0  0  0  0  0
  -22.3559   -9.8930   21.3027 C   0  0  0  0  0  0  0  0  0  0  0  0
  -24.7226   -9.5530   20.9559 C   0  0  0  0  0  0  0  0  0  0  0  0
  -24.9973  -37.8521   20.1411 C   0  0  0  0  0  0  0  0  0  0  0  0
  -26.3486  -35.4458   19.7807 C   0  0  0  0  0  0  0  0  0  0  0  0
  -26.3043  -29.4062   18.7670 C   0  0  0  0  0  0  0  0  0  0  0  0
  -22.1773   -8.5159   21.4339 C   0  0  0  0  0  0  0  0  0  0  0  0
  -24.5440   -8.1758   21.0872 C   0  0  0  0  0  0  0  0  0  0  0  0
  -27.2987  -28.4330   18.8549 C   0  0  0  0  0  0  0  0  0  0  0  0
  -22.6447   -6.1590   23.8130 C   0  0  0  0  0  0  0  0  0  0  0  0
  -21.8433   -5.7063   24.8610 C   0  0  0  0  0  0  0  0  0  0  0  0
  -26.5533  -27.8810   21.0817 C   0  0  0  0  0  0  0  0  0  0  0  0
  -20.3531   -4.6633   23.2708 C   0  0  0  0  0  0  0  0  0  0  0  0
  -23.6286  -10.4116   21.0636 C   0  0  0  0  0  0  0  0  0  0  0  0
  -24.0966  -12.7565   21.9523 C   0  0  0  0  0  0  0  0  0  0  0  0
  -24.8707  -36.8408   21.1064 C   0  0  0  0  0  0  0  0  0  0  0  0
  -25.4323  -29.6320   19.8418 C   0  0  0  0  0  0  0  0  0  0  0  0
  -25.5618  -35.6267   20.9309 C   0  0  0  0  0  0  0  0  0  0  0  0
  -25.5470  -28.8559   21.0040 C   0  0  0  0  0  0  0  0  0  0  0  0
  -23.2714   -7.6573   21.3262 C   0  0  0  0  0  0  0  0  0  0  0  0
  -27.4252  -27.6722   20.0134 C   0  0  0  0  0  0  0  0  0  0  0  0
  -22.3004   -5.8639   22.4938 C   0  0  0  0  0  0  0  0  0  0  0  0
  -20.6975   -4.9584   24.5899 C   0  0  0  0  0  0  0  0  0  0  0  0
  -21.1546   -5.1160   22.2228 C   0  0  0  0  0  0  0  0  0  0  0  0
  -28.6225  -18.8088   17.2311 C   0  0  0  0  0  0  0  0  0  0  0  0
  -23.8137  -11.8340   20.9273 C   0  0  0  0  0  0  0  0  0  0  0  0
  -29.7306  -19.3817   17.8836 C   0  0  0  0  0  0  0  0  0  0  0  0
  -24.1775  -13.9683   21.3109 C   0  0  0  0  0  0  0  0  0  0  0  0
  -27.9298  -18.1682   18.2293 C   0  0  0  0  0  0  0  0  0  0  0  0
  -24.2707  -12.5376   23.3585 C   0  0  0  0  0  0  0  0  0  0  0  0
  -24.8073  -32.1018   21.7426 C   0  0  0  0  0  0  0  0  0  0  0  0
  -22.4595  -30.1562   22.8493 C   0  0  0  0  0  0  0  0  0  0  0  0
  -21.2907  -26.9781   23.2746 C   0  0  0  0  0  0  0  0  0  0  0  0
  -25.9400  -17.1330   17.0823 C   0  0  0  0  0  0  0  0  0  0  0  0
  -24.0481  -37.1141   22.3406 C   0  0  0  0  0  0  0  0  0  0  0  0
  -24.3478  -30.6672   19.7210 C   0  0  0  0  0  0  0  0  0  0  0  0
  -24.6230  -29.0452   22.1782 C   0  0  0  0  0  0  0  0  0  0  0  0
  -23.6851  -35.8540   23.1221 C   0  0  0  0  0  0  0  0  0  0  0  0
  -22.9406  -15.2811   16.5814 C   0  0  0  0  0  0  0  0  0  0  0  0
  -24.9093  -34.9601   23.2922 C   0  0  0  0  0  0  0  0  0  0  0  0
  -22.9236  -14.2951   17.7517 C   0  0  0  0  0  0  0  0  0  0  0  0
  -24.3564  -15.5152   16.0576 C   0  0  0  0  0  0  0  0  0  0  0  0
  -25.3207  -14.9246   18.2463 C   0  0  0  0  0  0  0  0  0  0  0  0
  -25.4485  -34.4983   21.9330 C   0  0  1  0  0  0  0  0  0  0  0  0
  -23.8432  -31.1643   21.0721 C   0  0  1  0  0  0  0  0  0  0  0  0
  -23.9236  -14.7067   18.8499 C   0  0  2  0  0  0  0  0  0  0  0  0
  -27.2063  -18.7296   21.3473 C   0  0  0  0  0  0  0  0  0  0  0  0
  -19.3607  -25.7027   24.2472 C   0  0  0  0  0  0  0  0  0  0  0  0
  -23.5688  -30.6205   25.6535 C   0  0  0  0  0  0  0  0  0  0  0  0
  -22.2526  -28.6363   26.4273 C   0  0  0  0  0  0  0  0  0  0  0  0
  -21.0724  -30.6308   25.5043 C   0  0  0  0  0  0  0  0  0  0  0  0
  -20.5663  -25.8387   20.6410 C   0  0  0  0  0  0  0  0  0  0  0  0
  -30.8404  -20.2066   17.2822 C   0  0  0  0  0  0  0  0  0  0  0  0
  -30.4534  -21.6658   17.0160 C   0  0  0  0  0  0  0  0  0  0  0  0
  -30.0490  -22.4204   18.2874 C   0  0  0  0  0  0  0  0  0  0  0  0
  -29.7006  -23.8785   17.9769 C   0  0  0  0  0  0  0  0  0  0  0  0
  -29.2233  -24.6601   19.2013 C   0  0  0  0  0  0  0  0  0  0  0  0
  -28.3151  -17.9164   20.7016 C   0  0  0  0  0  0  0  0  0  0  0  0
  -28.7963  -26.0880   18.8883 C   0  0  0  0  0  0  0  0  0  1  0  0
  -22.3576  -29.1169   23.9395 C   0  0  1  0  0  0  0  0  0  0  0  0
  -19.9319  -26.3594   23.0001 C   0  0  2  0  0  0  0  0  0  0  0  0
  -22.3317  -29.7486   25.3599 C   0  0  0  0  0  0  0  0  0  0  0  0
  -23.7209  -12.4104   19.7260 N   0  0  0  0  0  0  0  0  0  0  0  0
  -29.7450  -19.1276   19.1948 N   0  0  0  0  0  0  0  0  0  0  0  0
  -23.9468  -13.7082   19.9921 N   0  0  0  0  0  0  0  0  0  0  0  0
  -28.6374  -18.3880   19.3743 N   0  0  0  0  0  0  0  0  0  0  0  0
  -23.5828  -30.0740   22.0142 N   0  0  0  0  0  0  0  0  0  0  0  0
  -25.2469  -15.9061   17.1527 N   0  0  0  0  0  0  0  0  0  0  0  0
  -24.4228  -15.2204   21.7520 N   0  0  0  0  0  0  0  0  0  0  0  0
  -24.1543  -11.2304   23.8507 N   0  0  0  0  0  0  0  0  0  0  0  0
  -26.7314  -17.4129   18.1958 N   0  0  0  0  0  0  0  0  0  0  0  0
  -24.6305  -33.4292   21.4016 N   0  0  0  0  0  0  0  0  0  0  0  0
  -21.1853  -28.3079   23.6239 N   0  0  0  0  0  0  0  0  0  0  0  0
  -20.0397  -25.3258   21.9320 N   0  3  0  0  0  0  0  0  0  0  0  0
  -24.5059  -13.4757   24.1574 O   0  0  0  0  0  0  0  0  0  0  0  0
  -25.6482  -31.6541   22.5133 O   0  0  0  0  0  0  0  0  0  0  0  0
  -21.5715  -31.0051   22.7381 O   0  0  0  0  0  0  0  0  0  0  0  0
  -22.3403  -26.3442   23.1915 O   0  0  0  0  0  0  0  0  0  0  0  0
  -25.8178  -17.8930   16.1182 O   0  0  0  0  0  0  0  0  0  0  0  0
  -23.0975   -6.3135   21.4545 O   0  0  0  0  0  0  0  0  0  0  0  0
  -28.3954  -26.7222   20.1021 O   0  0  0  0  0  0  0  0  0  1  0  0
  -19.9289   -4.5224   25.5965 F   0  0  0  0  0  0  0  0  0  0  0  0
  -20.8193   -4.8284   20.9576 F   0  0  0  0  0  0  0  0  0  0  0  0
  -28.2550  -18.9072   15.5808 Cl  0  0  0  0  0  0  0  0  0  0  0  0
  1  2  1  0  0  0  0
  1  5  2  0  0  0  0
  2  6  2  0  0  0  0
  3  8  2  0  0  0  0
  3 15  1  0  0  0  0
  4  9  1  0  0  0  0
  4 15  2  0  0  0  0
  5 17  1  0  0  0  0
  6 19  1  0  0  0  0
  7 10  2  0  0  0  0
  7 18  1  0  0  0  0
  8 21  1  0  0  0  0
  9 21  2  0  0  0  0
 10 22  1  0  0  0  0
 11 12  2  0  0  0  0
 11 23  1  0  0  0  0
 12 24  1  0  0  0  0
 13 20  1  0  0  0  0
 13 22  2  0  0  0  0
 14 24  2  0  0  0  0
 14 25  1  0  0  0  0
 15 27  1  0  0  0  0
 16 27  1  0  0  0  0
 16 29  2  0  0  0  0
 16 31  1  0  0  0  0
 17 19  2  0  0  0  0
 17 36  1  0  0  0  0
 18 20  2  0  0  0  0
 18 37  1  0  0  0  0
 19 45  1  0  0  0  0
 20 38  1  0  0  0  0
 21 81  1  0  0  0  0
 22 82  1  0  0  0  0
 23 25  2  0  0  0  0
 23 81  1  0  0  0  0
 24 83  1  0  0  0  0
 25 84  1  0  0  0  0
 26 28  1  0  0  0  0
 26 30  2  0  0  0  0
 26 85  1  0  0  0  0
 27 64  2  0  0  0  0
 28 54  1  0  0  0  0
 28 65  2  0  0  0  0
 29 66  1  0  0  0  0
 29 70  1  0  0  0  0
 30 67  1  0  0  0  0
 30 72  1  0  0  0  0
 31 71  1  0  0  0  0
 31 76  2  0  0  0  0
 32 46  1  0  0  0  0
 32 73  1  0  0  0  0
 32 77  2  0  0  0  0
 33 61  1  0  0  0  0
 33 68  1  0  0  0  0
 33 78  2  0  0  0  0
 34 62  1  0  0  0  0
 34 74  1  0  0  0  0
 34 79  2  0  0  0  0
 35 69  1  0  0  0  0
 35 72  1  0  0  0  0
 35 80  2  0  0  0  0
 36 39  1  0  0  0  0
 37 46  1  0  0  0  0
 38 68  1  0  0  0  0
 39 41  1  0  0  0  0
 40 42  1  0  0  0  0
 40 43  1  0  0  0  0
 41 45  1  0  0  0  0
 42 47  1  0  0  0  0
 43 69  1  0  0  0  0
 44 47  1  0  0  0  0
 44 69  1  0  0  0  0
 45 73  1  0  0  0  0
 46 68  1  0  0  0  0
 47 66  1  0  0  0  0
 48 59  1  0  0  0  0
 49 62  1  0  0  0  0
 50 63  1  0  0  0  0
 51 63  1  0  0  0  0
 52 63  1  0  0  0  0
 53 75  1  0  0  0  0
 54 55  1  0  0  0  0
 55 56  1  0  0  0  0
 56 57  1  0  0  0  0
 57 58  1  0  0  0  0
 58 60  1  0  0  0  0
 59 67  1  0  0  0  0
 60 82  1  0  0  0  0
 61 63  1  0  0  0  0
 61 74  1  0  0  0  0
 62 75  1  0  0  0  0
 64 66  1  0  0  0  0
 65 67  1  0  0  0  0
M  CHG  1  75   1
M  ISO  4  35 100  60 101  72 100  82 101
M  END
> <Batch ID>
0016

> <Smiles>
CCn1nc(CCCCC[101CH2:1][101O:1]c2ccc3c(c2)CN(C(=O)C(NC(=O)C(C)NC)C(C)(C)C)C(C(=O)NC2CCCc4ccccc42)C3)c(Cl)c1[100NH:0][100C:0](=O)N1CCCC(n2nc(-c3ccc(Oc4ccc(F)cc4F)cc3)c(C(N)=O)c2N)C1

> <Shape>
0.271

> <Color>
0.099

> <Negative vol penalty>
0.000

$$$$

  -OEChem-04052315583D

 86 94  0     1  0  0  0  0  0999 V2000
  -27.2956  -34.2570   25.2102 C   0  0  0  0  0  0  0  0  0  0  0  0
  -27.5982  -33.0044   24.6859 C   0  0  0  0  0  0  0  0  0  0  0  0
  -24.8575  -10.3395   18.6681 C   0  0  0  0  0  0  0  0  0  0  0  0
  -26.9405  -11.4302   18.1128 C   0  0  0  0  0  0  0  0  0  0  0  0
  -25.9892  -34.5523   25.5974 C   0  0  0  0  0  0  0  0  0  0  0  0
  -26.5946  -32.0460   24.5494 C   0  0  0  0  0  0  0  0  0  0  0  0
  -26.7597  -29.6842   20.0728 C   0  0  0  0  0  0  0  0  0  0  0  0
  -25.0904   -9.3886   17.6746 C   0  0  0  0  0  0  0  0  0  0  0  0
  -27.1735  -10.4792   17.1193 C   0  0  0  0  0  0  0  0  0  0  0  0
  -27.7224  -28.6884   19.9134 C   0  0  0  0  0  0  0  0  0  0  0  0
  -26.9651   -6.6018   17.2843 C   0  0  0  0  0  0  0  0  0  0  0  0
  -26.7400   -5.2627   17.6031 C   0  0  0  0  0  0  0  0  0  0  0  0
  -26.0418  -27.0068   20.3218 C   0  0  0  0  0  0  0  0  0  0  0  0
  -25.6622  -20.8093   17.9403 C   0  0  0  0  0  0  0  0  0  0  0  0
  -25.0872   -5.1222   15.8465 C   0  0  0  0  0  0  0  0  0  0  0  0
  -25.7825  -11.3604   18.8872 C   0  0  0  0  0  0  0  0  0  0  0  0
  -25.9367  -12.2773   21.2627 C   0  0  0  0  0  0  0  0  0  0  0  0
  -24.9672  -33.6003   25.4566 C   0  0  0  0  0  0  0  0  0  0  0  0
  -25.4308  -29.3486   20.3692 C   0  0  0  0  0  0  0  0  0  0  0  0
  -25.2736  -32.3283   24.9363 C   0  0  0  0  0  0  0  0  0  0  0  0
  -25.0636  -28.0000   20.4820 C   0  0  0  0  0  0  0  0  0  0  0  0
  -28.4051  -20.4990   17.5365 C   0  0  0  0  0  0  0  0  0  0  0  0
  -27.7385  -21.5936   16.9858 C   0  0  0  0  0  0  0  0  0  0  0  0
  -26.3288  -19.7148   18.4910 C   0  0  0  0  0  0  0  0  0  0  0  0
  -26.2484   -9.4585   16.9002 C   0  0  0  0  0  0  0  0  0  0  0  0
  -27.3641  -27.3496   20.0407 C   0  0  0  0  0  0  0  0  0  0  0  0
  -26.2511   -7.2012   16.2466 C   0  0  0  0  0  0  0  0  0  0  0  0
  -25.8012   -4.5229   16.8842 C   0  0  0  0  0  0  0  0  0  0  0  0
  -25.3122   -6.4614   15.5277 C   0  0  0  0  0  0  0  0  0  0  0  0
  -26.3670  -21.7487   17.1876 C   0  0  0  0  0  0  0  0  0  0  0  0
  -27.7002  -19.5596   18.2891 C   0  0  0  0  0  0  0  0  0  0  0  0
  -25.5421  -12.3433   19.9130 C   0  0  0  0  0  0  0  0  0  0  0  0
  -25.4724  -13.4466   21.8137 C   0  0  0  0  0  0  0  0  0  0  0  0
  -26.6585  -11.2509   21.9564 C   0  0  0  0  0  0  0  0  0  0  0  0
  -23.4595  -29.9245   22.7953 C   0  0  0  0  0  0  0  0  0  0  0  0
  -21.2886  -28.4803   20.8655 C   0  0  0  0  0  0  0  0  0  0  0  0
  -28.8205  -24.6484   17.5561 C   0  0  0  0  0  0  0  0  0  0  0  0
  -20.6838  -26.3329   18.2830 C   0  0  0  0  0  0  0  0  0  0  0  0
  -24.2124  -18.8202   19.5240 C   0  0  0  0  0  0  0  0  0  0  0  0
  -23.5794  -33.9492   25.9330 C   0  0  0  0  0  0  0  0  0  0  0  0
  -24.3988  -30.4335   20.5118 C   0  0  0  0  0  0  0  0  0  0  0  0
  -23.6463  -27.5863   20.7794 C   0  0  0  0  0  0  0  0  0  0  0  0
  -22.4999  -33.0066   25.4072 C   0  0  0  0  0  0  0  0  0  0  0  0
  -21.9890  -16.6955   21.3182 C   0  0  0  0  0  0  0  0  0  0  0  0
  -22.9382  -31.5537   25.5623 C   0  0  0  0  0  0  0  0  0  0  0  0
  -22.6867  -15.3337   21.2895 C   0  0  0  0  0  0  0  0  0  0  0  0
  -22.1891  -17.4628   20.0125 C   0  0  0  0  0  0  0  0  0  0  0  0
  -24.2845  -16.2494   19.5588 C   0  0  0  0  0  0  0  0  0  0  0  0
  -24.2074  -31.2707   24.7496 C   0  0  1  0  0  0  0  0  0  0  0  0
  -23.1811  -29.9973   21.3206 C   0  0  1  0  0  0  0  0  0  0  0  0
  -24.1657  -15.4667   20.8768 C   0  0  2  0  0  0  0  0  0  0  0  0
  -29.8782  -20.3491   17.3091 C   0  0  0  0  0  0  0  0  0  0  0  0
  -18.8064  -25.3252   16.9574 C   0  0  0  0  0  0  0  0  0  0  0  0
  -20.6619  -26.6012   23.1864 C   0  0  0  0  0  0  0  0  0  0  0  0
  -19.5308  -25.0759   21.5547 C   0  0  0  0  0  0  0  0  0  0  0  0
  -18.6598  -27.3863   21.9098 C   0  0  0  0  0  0  0  0  0  0  0  0
  -21.6673  -27.5298   15.7612 C   0  0  0  0  0  0  0  0  0  0  0  0
  -28.5072  -22.5973   16.1760 C   0  0  0  0  0  0  0  0  0  0  0  0
  -29.8817  -25.3537   18.3861 C   0  0  0  0  0  0  0  0  0  0  0  0
  -29.3871  -26.6533   19.0022 C   0  0  0  0  0  0  0  0  0  1  0  0
  -20.8277  -27.0589   20.6508 C   0  0  1  0  0  0  0  0  0  0  0  0
  -19.8110  -26.4634   17.0478 C   0  0  2  0  0  0  0  0  0  0  0  0
  -19.9472  -26.5381   21.8217 C   0  0  0  0  0  0  0  0  0  0  0  0
  -24.8781  -13.4656   19.6241 N   0  0  0  0  0  0  0  0  0  0  0  0
  -24.8518  -14.1156   20.8000 N   0  0  0  0  0  0  0  0  0  0  0  0
  -22.6749  -28.6840   20.9163 N   0  0  0  0  0  0  0  0  0  0  0  0
  -23.6143  -17.5528   19.6874 N   0  0  0  0  0  0  0  0  0  0  0  0
  -25.5384  -13.9575   23.0615 N   0  0  0  0  0  0  0  0  0  0  0  0
  -27.0607  -10.1159   21.2393 N   0  0  0  0  0  0  0  0  0  0  0  0
  -25.5790  -18.7816   19.2492 N   0  0  0  0  0  0  0  0  0  0  0  0
  -23.8858  -31.1176   23.3469 N   0  0  0  0  0  0  0  0  0  0  0  0
  -29.3041  -23.4684   17.0096 N   0  0  0  0  0  0  0  0  0  0  0  0
  -20.1668  -27.0362   19.3504 N   0  0  0  0  0  0  0  0  0  0  0  0
  -20.6503  -26.4483   15.8165 N   0  3  0  0  0  0  0  0  0  0  0  0
  -26.9242  -11.3303   23.1797 O   0  0  0  0  0  0  0  0  0  0  0  0
  -23.2980  -28.8648   23.3891 O   0  0  0  0  0  0  0  0  0  0  0  0
  -20.4498  -29.3779   20.9768 O   0  0  0  0  0  0  0  0  0  0  0  0
  -27.6839  -25.0870   17.4025 O   0  0  0  0  0  0  0  0  0  0  0  0
  -21.7187  -25.6702   18.3003 O   0  0  0  0  0  0  0  0  0  0  0  0
  -23.5661  -19.8637   19.6476 O   0  0  0  0  0  0  0  0  0  0  0  0
  -26.4762   -8.5306   15.9308 O   0  0  0  0  0  0  0  0  0  0  0  0
  -28.3019  -26.3757   19.8863 O   0  0  0  0  0  0  0  0  0  1  0  0
  -25.5863   -3.2365   17.1895 F   0  0  0  0  0  0  0  0  0  0  0  0
  -24.6242   -7.0314   14.5290 F   0  0  0  0  0  0  0  0  0  0  0  0
  -25.5037  -23.0861   16.5187 Cl  0  0  0  0  0  0  0  0  0  0  0  0
  -28.5307  -18.1989   18.9728 Cl  0  0  0  0  0  0  0  0  0  0  0  0
  1  2  1  0  0  0  0
  1  5  2  0  0  0  0
  2  6  2  0  0  0  0
  3  8  2  0  0  0  0
  3 16  1  0  0  0  0
  4  9  1  0  0  0  0
  4 16  2  0  0  0  0
  5 18  1  0  0  0  0
  6 20  1  0  0  0  0
  7 10  2  0  0  0  0
  7 19  1  0  0  0  0
  8 25  1  0  0  0  0
  9 25  2  0  0  0  0
 10 26  1  0  0  0  0
 11 12  2  0  0  0  0
 11 27  1  0  0  0  0
 12 28  1  0  0  0  0
 13 21  1  0  0  0  0
 13 26  2  0  0  0  0
 14 24  1  0  0  0  0
 14 30  2  0  0  0  0
 15 28  2  0  0  0  0
 15 29  1  0  0  0  0
 16 32  1  0  0  0  0
 17 32  1  0  0  0  0
 17 33  2  0  0  0  0
 17 34  1  0  0  0  0
 18 20  2  0  0  0  0
 18 40  1  0  0  0  0
 19 21  2  0  0  0  0
 19 41  1  0  0  0  0
 20 49  1  0  0  0  0
 21 42  1  0  0  0  0
 22 23  2  0  0  0  0
 22 31  1  0  0  0  0
 22 52  1  0  0  0  0
 23 30  1  0  0  0  0
 23 58  1  0  0  0  0
 24 31  2  0  0  0  0
 24 70  1  0  0  0  0
 25 81  1  0  0  0  0
 26 82  1  0  0  0  0
 27 29  2  0  0  0  0
 27 81  1  0  0  0  0
 28 83  1  0  0  0  0
 29 84  1  0  0  0  0
 30 85  1  0  0  0  0
 31 86  1  0  0  0  0
 32 64  2  0  0  0  0
 33 65  1  0  0  0  0
 33 68  1  0  0  0  0
 34 69  1  0  0  0  0
 34 75  2  0  0  0  0
 35 50  1  0  0  0  0
 35 71  1  0  0  0  0
 35 76  2  0  0  0  0
 36 61  1  0  0  0  0
 36 66  1  0  0  0  0
 36 77  2  0  0  0  0
 37 59  1  0  0  0  0
 37 72  1  0  0  0  0
 37 78  2  0  0  0  0
 38 62  1  0  0  0  0
 38 73  1  0  0  0  0
 38 79  2  0  0  0  0
 39 67  1  0  0  0  0
 39 70  1  0  0  0  0
 39 80  2  0  0  0  0
 40 43  1  0  0  0  0
 41 50  1  0  0  0  0
 42 66  1  0  0  0  0
 43 45  1  0  0  0  0
 44 46  1  0  0  0  0
 44 47  1  0  0  0  0
 45 49  1  0  0  0  0
 46 51  1  0  0  0  0
 47 67  1  0  0  0  0
 48 51  1  0  0  0  0
 48 67  1  0  0  0  0
 49 71  1  0  0  0  0
 50 66  1  0  0  0  0
 51 65  1  0  0  0  0
 53 62  1  0  0  0  0
 54 63  1  0  0  0  0
 55 63  1  0  0  0  0
 56 63  1  0  0  0  0
 57 74  1  0  0  0  0
 58 72  1  0  0  0  0
 59 60  1  0  0  0  0
 60 82  1  0  0  0  0
 61 63  1  0  0  0  0
 61 73  1  0  0  0  0
 62 74  1  0  0  0  0
 64 65  1  0  0  0  0
M  CHG  1  74   1
M  ISO  4  39 100  60 101  70 100  82 101
M  END
> <Batch ID>
0016

> <Smiles>
CNC(C)C(=O)NC(C(=O)N1Cc2cc([101O:1][101CH2:1]CC(=O)NCc3c(Cl)cc([100NH:0][100C:0](=O)N4CCCC(n5nc(-c6ccc(Oc7ccc(F)cc7F)cc6)c(C(N)=O)c5N)C4)c(Cl)c3C)ccc2CC1C(=O)NC1CCCc2ccccc21)C(C)(C)C

> <Shape>
0.213

> <Color>
0.071

> <Negative vol penalty>
0.000

$$$$

  -OEChem-04052315583D

 87 95  0     1  0  0  0  0  0999 V2000
  -28.6475  -30.9921   12.4774 C   0  0  0  0  0  0  0  0  0  0  0  0
  -28.8872  -30.3892   13.7081 C   0  0  0  0  0  0  0  0  0  0  0  0
  -23.1761   -9.7130   20.0853 C   0  0  0  0  0  0  0  0  0  0  0  0
  -23.8760   -9.9449   22.3860 C   0  0  0  0  0  0  0  0  0  0  0  0
  -27.6683  -30.4770   11.6291 C   0  0  0  0  0  0  0  0  0  0  0  0
  -28.1469  -29.2715   14.0917 C   0  0  0  0  0  0  0  0  0  0  0  0
  -31.0328  -25.6239   16.0946 C   0  0  0  0  0  0  0  0  0  0  0  0
  -22.4794   -8.5502   20.4144 C   0  0  0  0  0  0  0  0  0  0  0  0
  -23.1793   -8.7822   22.7152 C   0  0  0  0  0  0  0  0  0  0  0  0
  -31.4477  -25.7932   17.4149 C   0  0  0  0  0  0  0  0  0  0  0  0
  -21.2877   -6.0731   24.2321 C   0  0  0  0  0  0  0  0  0  0  0  0
  -20.5045   -6.0902   25.3862 C   0  0  0  0  0  0  0  0  0  0  0  0
  -29.6996  -24.3018   18.1491 C   0  0  0  0  0  0  0  0  0  0  0  0
  -31.2027  -17.9386   20.8107 C   0  0  0  0  0  0  0  0  0  0  0  0
  -19.1920   -7.8993   24.4687 C   0  0  0  0  0  0  0  0  0  0  0  0
  -23.8744  -10.4103   21.0711 C   0  0  0  0  0  0  0  0  0  0  0  0
  -24.1037  -12.9304   20.7482 C   0  0  0  0  0  0  0  0  0  0  0  0
  -26.9223  -29.3466   11.9983 C   0  0  0  0  0  0  0  0  0  0  0  0
  -29.9395  -24.7995   15.7923 C   0  0  0  0  0  0  0  0  0  0  0  0
  -27.1559  -28.7416   13.2480 C   0  0  0  0  0  0  0  0  0  0  0  0
  -29.2744  -24.1217   16.8240 C   0  0  0  0  0  0  0  0  0  0  0  0
  -29.8428  -17.8802   22.8068 C   0  0  0  0  0  0  0  0  0  0  0  0
  -30.2844  -19.1594   23.1450 C   0  0  0  0  0  0  0  0  0  0  0  0
  -30.3020  -17.2698   21.6396 C   0  0  0  0  0  0  0  0  0  0  0  0
  -31.1851  -19.8282   22.3161 C   0  0  0  0  0  0  0  0  0  0  0  0
  -22.4810   -8.0849   21.7293 C   0  0  0  0  0  0  0  0  0  0  0  0
  -30.7793  -25.1343   18.4426 C   0  0  0  0  0  0  0  0  0  0  0  0
  -21.0231   -6.9692   23.1964 C   0  0  0  0  0  0  0  0  0  0  0  0
  -19.4566   -7.0033   25.5045 C   0  0  0  0  0  0  0  0  0  0  0  0
  -19.9752   -7.8822   23.3146 C   0  0  0  0  0  0  0  0  0  0  0  0
  -31.6443  -19.2177   21.1490 C   0  0  0  0  0  0  0  0  0  0  0  0
  -24.5947  -11.6111   20.7316 C   0  0  0  0  0  0  0  0  0  0  0  0
  -25.1695  -13.6985   20.3474 C   0  0  0  0  0  0  0  0  0  0  0  0
  -22.8007  -13.4179   21.0950 C   0  0  0  0  0  0  0  0  0  0  0  0
  -27.0868  -25.2537   14.4657 C   0  0  0  0  0  0  0  0  0  0  0  0
  -26.9071  -22.0217   14.6759 C   0  0  0  0  0  0  0  0  0  0  0  0
  -27.9512  -19.1553   16.2058 C   0  0  0  0  0  0  0  0  0  0  0  0
  -30.5760  -15.0137   20.5528 C   0  0  0  0  0  0  0  0  0  0  0  0
  -25.8418  -28.8544   11.0682 C   0  0  0  0  0  0  0  0  0  0  0  0
  -29.5211  -24.6064   14.3605 C   0  0  0  0  0  0  0  0  0  0  0  0
  -28.1076  -23.2095   16.5503 C   0  0  0  0  0  0  0  0  0  0  0  0
  -25.3596  -27.4418   11.3883 C   0  0  0  0  0  0  0  0  0  0  0  0
  -29.6338  -12.3628   18.3706 C   0  0  0  0  0  0  0  0  0  0  0  0
  -25.1041  -27.2911   12.8845 C   0  0  0  0  0  0  0  0  0  0  0  0
  -28.1984  -12.0394   18.7917 C   0  0  0  0  0  0  0  0  0  0  0  0
  -30.5065  -12.7330   19.5685 C   0  0  0  0  0  0  0  0  0  0  0  0
  -28.5338  -13.4773   20.8428 C   0  0  0  0  0  0  0  0  0  0  0  0
  -26.3907  -27.5127   13.6889 C   0  0  1  0  0  0  0  0  0  0  0  0
  -28.0731  -24.1477   14.2177 C   0  0  1  0  0  0  0  0  0  0  0  0
  -27.6003  -13.1615   19.6628 C   0  0  2  0  0  0  0  0  0  0  0  0
  -28.8762  -17.1637   23.6974 C   0  0  0  0  0  0  0  0  0  0  0  0
  -29.7887  -19.8105   24.3988 C   0  0  0  0  0  0  0  0  0  0  0  0
  -27.5980  -16.6709   16.1864 C   0  0  0  0  0  0  0  0  0  0  0  0
  -33.4012  -20.9469   24.2866 C   0  0  0  0  0  0  0  0  0  0  0  0
  -24.2564  -22.3896   16.1418 C   0  0  0  0  0  0  0  0  0  0  0  0
  -24.4334  -20.0144   16.9134 C   0  0  0  0  0  0  0  0  0  0  0  0
  -24.2774  -20.5239   14.4765 C   0  0  0  0  0  0  0  0  0  0  0  0
  -30.7796  -18.6420   15.5016 C   0  0  0  0  0  0  0  0  0  0  0  0
  -32.8030  -23.4821   21.3872 C   0  0  0  0  0  0  0  0  0  0  0  0
  -32.9946  -25.0000   21.3027 C   0  0  0  0  0  0  0  0  0  0  0  0
  -33.2086  -22.9485   22.7665 C   0  0  0  0  0  0  0  0  0  0  0  0
  -32.5671  -25.5607   19.9518 C   0  0  0  0  0  0  0  0  0  1  0  0
  -26.4183  -21.0436   15.7168 C   0  0  1  0  0  0  0  0  0  0  0  0
  -28.4227  -17.8270   15.6422 C   0  0  2  0  0  0  0  0  0  0  0  0
  -33.0056  -21.4330   22.8956 C   0  0  2  0  0  0  0  0  0  0  0  0
  -24.8671  -21.0115   15.8178 C   0  0  0  0  0  0  0  0  0  0  0  0
  -25.8729  -11.5414   20.3503 N   0  0  0  0  0  0  0  0  0  0  0  0
  -26.1941  -12.8265   20.1235 N   0  0  0  0  0  0  0  0  0  0  0  0
  -27.7324  -23.0581   15.1347 N   0  0  0  0  0  0  0  0  0  0  0  0
  -29.8788  -13.8049   20.3445 N   0  0  0  0  0  0  0  0  0  0  0  0
  -25.3207  -15.0279   20.1681 N   0  0  0  0  0  0  0  0  0  0  0  0
  -21.8230  -12.4925   21.4849 N   0  0  0  0  0  0  0  0  0  0  0  0
  -29.8665  -15.9711   21.2769 N   0  0  0  0  0  0  0  0  0  0  0  0
  -31.6170  -21.0965   22.6605 N   0  0  0  0  0  0  0  0  0  0  0  0
  -27.2357  -26.3395   13.6241 N   0  0  0  0  0  0  0  0  0  0  0  0
  -27.0222  -19.7579   15.3841 N   0  0  0  0  0  0  0  0  0  0  0  0
  -29.8514  -17.5923   15.9953 N   0  3  0  0  0  0  0  0  0  0  0  0
  -22.5072  -14.6364   21.0443 O   0  0  0  0  0  0  0  0  0  0  0  0
  -26.2515  -25.1305   15.3539 O   0  0  0  0  0  0  0  0  0  0  0  0
  -26.5748  -21.8676   13.4980 O   0  0  0  0  0  0  0  0  0  0  0  0
  -28.3630  -19.6110   17.2704 O   0  0  0  0  0  0  0  0  0  0  0  0
  -31.7078  -15.1968   20.0973 O   0  0  0  0  0  0  0  0  0  0  0  0
  -21.8011   -6.9504   22.0509 O   0  0  0  0  0  0  0  0  0  0  0  0
  -31.1818  -25.2983   19.7322 O   0  0  0  0  0  0  0  0  0  1  0  0
  -18.7036   -7.0185   26.6122 F   0  0  0  0  0  0  0  0  0  0  0  0
  -19.7155   -8.7447   22.3224 F   0  0  0  0  0  0  0  0  0  0  0  0
  -32.7602  -20.0079   20.0922 Cl  0  0  0  0  0  0  0  0  0  0  0  0
  1  2  1  0  0  0  0
  1  5  2  0  0  0  0
  2  6  2  0  0  0  0
  3  8  2  0  0  0  0
  3 16  1  0  0  0  0
  4  9  1  0  0  0  0
  4 16  2  0  0  0  0
  5 18  1  0  0  0  0
  6 20  1  0  0  0  0
  7 10  2  0  0  0  0
  7 19  1  0  0  0  0
  8 26  1  0  0  0  0
  9 26  2  0  0  0  0
 10 27  1  0  0  0  0
 11 12  2  0  0  0  0
 11 28  1  0  0  0  0
 12 29  1  0  0  0  0
 13 21  1  0  0  0  0
 13 27  2  0  0  0  0
 14 24  1  0  0  0  0
 14 31  2  0  0  0  0
 15 29  2  0  0  0  0
 15 30  1  0  0  0  0
 16 32  1  0  0  0  0
 17 32  1  0  0  0  0
 17 33  2  0  0  0  0
 17 34  1  0  0  0  0
 18 20  2  0  0  0  0
 18 39  1  0  0  0  0
 19 21  2  0  0  0  0
 19 40  1  0  0  0  0
 20 48  1  0  0  0  0
 21 41  1  0  0  0  0
 22 23  1  0  0  0  0
 22 24  2  0  0  0  0
 22 51  1  0  0  0  0
 23 25  2  0  0  0  0
 23 52  1  0  0  0  0
 24 73  1  0  0  0  0
 25 31  1  0  0  0  0
 25 74  1  0  0  0  0
 26 83  1  0  0  0  0
 27 84  1  0  0  0  0
 28 30  2  0  0  0  0
 28 83  1  0  0  0  0
 29 85  1  0  0  0  0
 30 86  1  0  0  0  0
 31 87  1  0  0  0  0
 32 67  2  0  0  0  0
 33 68  1  0  0  0  0
 33 71  1  0  0  0  0
 34 72  1  0  0  0  0
 34 78  2  0  0  0  0
 35 49  1  0  0  0  0
 35 75  1  0  0  0  0
 35 79  2  0  0  0  0
 36 63  1  0  0  0  0
 36 69  1  0  0  0  0
 36 80  2  0  0  0  0
 37 64  1  0  0  0  0
 37 76  1  0  0  0  0
 37 81  2  0  0  0  0
 38 70  1  0  0  0  0
 38 73  1  0  0  0  0
 38 82  2  0  0  0  0
 39 42  1  0  0  0  0
 40 49  1  0  0  0  0
 41 69  1  0  0  0  0
 42 44  1  0  0  0  0
 43 45  1  0  0  0  0
 43 46  1  0  0  0  0
 44 48  1  0  0  0  0
 45 50  1  0  0  0  0
 46 70  1  0  0  0  0
 47 50  1  0  0  0  0
 47 70  1  0  0  0  0
 48 75  1  0  0  0  0
 49 69  1  0  0  0  0
 50 68  1  0  0  0  0
 53 64  1  0  0  0  0
 54 65  1  0  0  0  0
 55 66  1  0  0  0  0
 56 66  1  0  0  0  0
 57 66  1  0  0  0  0
 58 77  1  0  0  0  0
 59 60  1  0  0  0  0
 59 61  1  0  0  0  0
 60 62  1  0  0  0  0
 61 65  1  0  0  0  0
 62 84  1  0  0  0  0
 63 66  1  0  0  0  0
 63 76  1  0  0  0  0
 64 77  1  0  0  0  0
 65 74  1  0  0  0  0
 67 68  1  0  0  0  0
M  CHG  1  77   1
M  ISO  4  38 100  62 101  73 100  84 101
M  END
> <Batch ID>
0016

> <Smiles>
CNC(C)C(=O)NC(C(=O)N1Cc2cc([101O:1][101CH2:1]CCCC(C)Nc3c(Cl)cc([100NH:0][100C:0](=O)N4CCCC(n5nc(-c6ccc(Oc7ccc(F)cc7F)cc6)c(C(N)=O)c5N)C4)c(C)c3C)ccc2CC1C(=O)NC1CCCc2ccccc21)C(C)(C)C

> <Shape>
0.199

> <Color>
0.205

> <Negative vol penalty>
0.000

$$$$

  -OEChem-04052315583D

 90 98  0     1  0  0  0  0  0999 V2000
  -24.3720  -31.4159   21.8481 C   0  0  0  0  0  0  0  0  0  0  0  0
  -25.2104  -30.3870   22.2651 C   0  0  0  0  0  0  0  0  0  0  0  0
  -23.2758   -9.8056   19.8461 C   0  0  0  0  0  0  0  0  0  0  0  0
  -23.8023   -9.8075   22.2040 C   0  0  0  0  0  0  0  0  0  0  0  0
  -24.0106  -31.5183   20.5054 C   0  0  0  0  0  0  0  0  0  0  0  0
  -25.6871  -29.4592   21.3397 C   0  0  0  0  0  0  0  0  0  0  0  0
  -31.1649  -26.7208   21.3596 C   0  0  0  0  0  0  0  0  0  0  0  0
  -22.5653   -8.6159   20.0057 C   0  0  0  0  0  0  0  0  0  0  0  0
  -23.0918   -8.6178   22.3636 C   0  0  0  0  0  0  0  0  0  0  0  0
  -31.5846  -25.4659   21.7988 C   0  0  0  0  0  0  0  0  0  0  0  0
  -19.8604   -7.6648   22.6292 C   0  0  0  0  0  0  0  0  0  0  0  0
  -18.9933   -7.5707   23.7177 C   0  0  0  0  0  0  0  0  0  0  0  0
  -31.3697  -24.6144   19.5520 C   0  0  0  0  0  0  0  0  0  0  0  0
  -20.2441   -5.6789   24.5506 C   0  0  0  0  0  0  0  0  0  0  0  0
  -23.8943  -10.4014   20.9453 C   0  0  0  0  0  0  0  0  0  0  0  0
  -24.1283  -12.9410   20.8918 C   0  0  0  0  0  0  0  0  0  0  0  0
  -24.4909  -30.5970   19.5614 C   0  0  0  0  0  0  0  0  0  0  0  0
  -30.8334  -26.9295   20.0132 C   0  0  0  0  0  0  0  0  0  0  0  0
  -25.3308  -29.5486   19.9833 C   0  0  0  0  0  0  0  0  0  0  0  0
  -30.9485  -25.8736   19.0978 C   0  0  0  0  0  0  0  0  0  0  0  0
  -22.4733   -8.0220   21.2644 C   0  0  0  0  0  0  0  0  0  0  0  0
  -31.6843  -24.4117   20.8955 C   0  0  0  0  0  0  0  0  0  0  0  0
  -20.9194   -6.7660   22.5014 C   0  0  0  0  0  0  0  0  0  0  0  0
  -19.1851   -6.5777   24.6784 C   0  0  0  0  0  0  0  0  0  0  0  0
  -21.1113   -5.7730   23.4621 C   0  0  0  0  0  0  0  0  0  0  0  0
  -24.6289  -11.6300   20.7809 C   0  0  0  0  0  0  0  0  0  0  0  0
  -25.2150  -13.7452   20.6494 C   0  0  0  0  0  0  0  0  0  0  0  0
  -31.9879  -17.6982   22.1240 C   0  0  0  0  0  0  0  0  0  0  0  0
  -22.7997  -13.3917   21.1877 C   0  0  0  0  0  0  0  0  0  0  0  0
  -29.8126  -19.2023   23.8776 C   0  0  0  0  0  0  0  0  0  0  0  0
  -28.1946  -27.7804   18.4587 C   0  0  0  0  0  0  0  0  0  0  0  0
  -30.1851  -27.8242   15.8977 C   0  0  0  0  0  0  0  0  0  0  0  0
  -33.0706  -26.7152   14.4518 C   0  0  0  0  0  0  0  0  0  0  0  0
  -31.1157  -12.9096   21.2283 C   0  0  0  0  0  0  0  0  0  0  0  0
  -24.0348  -30.7206   18.1292 C   0  0  0  0  0  0  0  0  0  0  0  0
  -30.4079  -28.2959   19.5503 C   0  0  0  0  0  0  0  0  0  0  0  0
  -30.6238  -26.0508   17.6378 C   0  0  0  0  0  0  0  0  0  0  0  0
  -24.8843  -29.9171   17.1479 C   0  0  0  0  0  0  0  0  0  0  0  0
  -29.3625  -13.8168   18.2652 C   0  0  0  0  0  0  0  0  0  0  0  0
  -25.1213  -28.5064   17.6777 C   0  0  0  0  0  0  0  0  0  0  0  0
  -27.9054  -13.4776   18.5840 C   0  0  0  0  0  0  0  0  0  0  0  0
  -30.1269  -16.7878   23.2515 C   0  0  0  0  0  0  0  0  0  0  0  0
  -30.3256  -12.8054   18.8828 C   0  0  0  0  0  0  0  0  0  0  0  0
  -28.6998  -12.2559   20.6516 C   0  0  0  0  0  0  0  0  0  0  0  0
  -25.8883  -28.5374   19.0052 C   0  0  1  0  0  0  0  0  0  0  0  0
  -31.6580  -16.7392   23.2005 C   0  0  1  0  0  0  0  0  0  0  0  0
  -29.6026  -28.2640   18.2550 C   0  0  1  0  0  0  0  0  0  0  0  0
  -27.6939  -13.2791   20.0970 C   0  0  2  0  0  0  0  0  0  0  0  0
  -29.7997  -18.2055   22.7585 C   0  0  1  0  0  0  0  0  0  0  0  0
  -29.4360  -18.6924   25.2423 C   0  0  0  0  0  0  0  0  0  0  0  0
  -34.4104  -26.8957   12.3376 C   0  0  0  0  0  0  0  0  0  0  0  0
  -28.4966  -17.2589   20.8322 C   0  0  0  0  0  0  0  0  0  0  0  0
  -27.3050  -17.9749   22.9229 C   0  0  0  0  0  0  0  0  0  0  0  0
  -32.8091  -14.6645   25.2311 C   0  0  0  0  0  0  0  0  0  0  0  0
  -28.2184  -25.9601   14.4951 C   0  0  0  0  0  0  0  0  0  0  0  0
  -30.0143  -25.4293   12.8334 C   0  0  0  0  0  0  0  0  0  0  0  0
  -29.1622  -27.7644   13.0432 C   0  0  0  0  0  0  0  0  0  0  0  0
  -35.3908  -27.8670   15.8832 C   0  0  0  0  0  0  0  0  0  0  0  0
  -31.5238  -20.8688   21.5787 C   0  0  0  0  0  0  0  0  0  0  0  0
  -30.9758  -19.6117   20.9234 C   0  0  0  0  0  0  0  0  0  0  0  0
  -31.7539  -12.9832   23.6255 C   0  0  0  0  0  0  0  0  0  0  0  0
  -31.5849  -22.0516   20.6203 C   0  0  0  0  0  0  0  0  0  1  0  0
  -30.6272  -26.8108   14.8698 C   0  0  1  0  0  0  0  0  0  0  0  0
  -34.1863  -27.4536   13.7345 C   0  0  2  0  0  0  0  0  0  0  0  0
  -28.4864  -18.2545   21.9931 C   0  0  0  0  0  0  0  0  0  0  0  0
  -31.7853  -14.4243   24.1300 C   0  0  2  0  0  0  0  0  0  0  0  0
  -29.5099  -26.4870   13.8382 C   0  0  0  0  0  0  0  0  0  0  0  0
  -25.9322  -11.5985   20.4905 N   0  0  0  0  0  0  0  0  0  0  0  0
  -26.2597  -12.8998   20.4167 N   0  0  0  0  0  0  0  0  0  0  0  0
  -30.9578  -18.5208   21.8976 N   0  0  0  0  0  0  0  0  0  0  0  0
  -30.2062  -27.4039   17.2352 N   0  0  0  0  0  0  0  0  0  0  0  0
  -30.0734  -12.6650   20.3190 N   0  0  0  0  0  0  0  0  0  0  0  0
  -25.3693  -15.0859   20.6146 N   0  0  0  0  0  0  0  0  0  0  0  0
  -21.8027  -12.4321   21.4103 N   0  0  0  0  0  0  0  0  0  0  0  0
  -27.2952  -28.7821   18.7705 N   0  0  0  0  0  0  0  0  0  0  0  0
  -31.8524  -27.3373   14.2782 N   0  0  0  0  0  0  0  0  0  0  0  0
  -30.7902  -12.7602   22.5708 N   0  0  0  0  0  0  0  0  0  0  0  0
  -33.1814  -17.6699   21.5523 N   0  3  0  0  0  0  0  0  0  0  0  0
  -32.0909  -15.3367   22.9938 N   0  3  0  0  0  0  0  0  0  0  0  0
  -35.4606  -27.3347   14.4980 N   0  3  0  0  0  0  0  0  0  0  0  0
  -22.5018  -14.6092   21.2365 O   0  0  0  0  0  0  0  0  0  0  0  0
  -30.1180  -20.3789   23.6900 O   0  0  0  0  0  0  0  0  0  0  0  0
  -27.9426  -26.5870   18.3401 O   0  0  0  0  0  0  0  0  0  0  0  0
  -29.8408  -28.9496   15.5283 O   0  0  0  0  0  0  0  0  0  0  0  0
  -33.2602  -25.6872   15.0981 O   0  0  0  0  0  0  0  0  0  0  0  0
  -32.2507  -13.2421   20.8705 O   0  0  0  0  0  0  0  0  0  0  0  0
  -21.7799   -6.8612   21.4206 O   0  0  0  0  0  0  0  0  0  0  0  0
  -32.0931  -23.1857   21.3216 O   0  0  0  0  0  0  0  0  0  1  0  0
  -18.3532   -6.4884   25.7244 F   0  0  0  0  0  0  0  0  0  0  0  0
  -22.1275   -4.9074   23.3452 F   0  0  0  0  0  0  0  0  0  0  0  0
  1  2  1  0  0  0  0
  1  5  2  0  0  0  0
  2  6  2  0  0  0  0
  3  8  2  0  0  0  0
  3 15  1  0  0  0  0
  4  9  1  0  0  0  0
  4 15  2  0  0  0  0
  5 17  1  0  0  0  0
  6 19  1  0  0  0  0
  7 10  2  0  0  0  0
  7 18  1  0  0  0  0
  8 21  1  0  0  0  0
  9 21  2  0  0  0  0
 10 22  1  0  0  0  0
 11 12  2  0  0  0  0
 11 23  1  0  0  0  0
 12 24  1  0  0  0  0
 13 20  1  0  0  0  0
 13 22  2  0  0  0  0
 14 24  2  0  0  0  0
 14 25  1  0  0  0  0
 15 26  1  0  0  0  0
 16 26  1  0  0  0  0
 16 27  2  0  0  0  0
 16 29  1  0  0  0  0
 17 19  2  0  0  0  0
 17 35  1  0  0  0  0
 18 20  2  0  0  0  0
 18 36  1  0  0  0  0
 19 45  1  0  0  0  0
 20 37  1  0  0  0  0
 21 87  1  0  0  0  0
 22 88  1  0  0  0  0
 23 25  2  0  0  0  0
 23 87  1  0  0  0  0
 24 89  1  0  0  0  0
 25 90  1  0  0  0  0
 26 68  2  0  0  0  0
 27 69  1  0  0  0  0
 27 73  1  0  0  0  0
 28 46  1  0  0  0  0
 28 70  1  0  0  0  0
 28 78  2  0  0  0  0
 29 74  1  0  0  0  0
 29 81  2  0  0  0  0
 30 49  1  0  0  0  0
 30 50  1  0  0  0  0
 30 82  2  0  0  0  0
 31 47  1  0  0  0  0
 31 75  1  0  0  0  0
 31 83  2  0  0  0  0
 32 63  1  0  0  0  0
 32 71  1  0  0  0  0
 32 84  2  0  0  0  0
 33 64  1  0  0  0  0
 33 76  1  0  0  0  0
 33 85  2  0  0  0  0
 34 72  1  0  0  0  0
 34 77  1  0  0  0  0
 34 86  2  0  0  0  0
 35 38  1  0  0  0  0
 36 47  1  0  0  0  0
 37 71  1  0  0  0  0
 38 40  1  0  0  0  0
 39 41  1  0  0  0  0
 39 43  1  0  0  0  0
 40 45  1  0  0  0  0
 41 48  1  0  0  0  0
 42 46  1  0  0  0  0
 42 49  1  0  0  0  0
 43 72  1  0  0  0  0
 44 48  1  0  0  0  0
 44 72  1  0  0  0  0
 45 75  1  0  0  0  0
 46 79  1  0  0  0  0
 47 71  1  0  0  0  0
 48 69  1  0  0  0  0
 49 65  1  0  0  0  0
 49 70  1  0  0  0  0
 51 64  1  0  0  0  0
 52 65  1  0  0  0  0
 53 65  1  0  0  0  0
 54 66  1  0  0  0  0
 55 67  1  0  0  0  0
 56 67  1  0  0  0  0
 57 67  1  0  0  0  0
 58 80  1  0  0  0  0
 59 60  1  0  0  0  0
 59 62  1  0  0  0  0
 60 70  1  0  0  0  0
 61 66  1  0  0  0  0
 61 77  1  0  0  0  0
 62 88  1  0  0  0  0
 63 67  1  0  0  0  0
 63 76  1  0  0  0  0
 64 80  1  0  0  0  0
 66 79  1  0  0  0  0
 68 69  1  0  0  0  0
M  CHG  3  78   1  79   1  80   1
M  ISO  4  34 100  62 101  77 100  88 101
M  END
> <Batch ID>
0016

> <Smiles>
CNC(C)C(=O)NC(C(=O)N1Cc2cc([101O:1][101CH2:1]CCN3C(=N)C(NC(C)C[100NH:0][100C:0](=O)N4CCCC(n5nc(-c6ccc(Oc7ccc(F)cc7F)cc6)c(C(N)=O)c5N)C4)CC3(C(C)=O)C(C)C)ccc2CC1C(=O)NC1CCCc2ccccc21)C(C)(C)C

> <Shape>
0.254

> <Color>
0.177

> <Negative vol penalty>
0.000

$$$$

  -OEChem-04052315583D

 85 93  0     1  0  0  0  0  0999 V2000
  -30.8613  -32.5879   16.3225 C   0  0  0  0  0  0  0  0  0  0  0  0
  -30.5554  -31.4076   16.9924 C   0  0  0  0  0  0  0  0  0  0  0  0
  -23.0574   -9.8162   19.9912 C   0  0  0  0  0  0  0  0  0  0  0  0
  -23.7891   -9.8964   22.2923 C   0  0  0  0  0  0  0  0  0  0  0  0
  -29.9163  -33.1772   15.4838 C   0  0  0  0  0  0  0  0  0  0  0  0
  -29.3036  -30.8165   16.8247 C   0  0  0  0  0  0  0  0  0  0  0  0
  -29.5973  -25.8089   16.1304 C   0  0  0  0  0  0  0  0  0  0  0  0
  -22.2994   -8.6795   20.2718 C   0  0  0  0  0  0  0  0  0  0  0  0
  -23.0311   -8.7596   22.5730 C   0  0  0  0  0  0  0  0  0  0  0  0
  -29.8101  -25.0207   17.2606 C   0  0  0  0  0  0  0  0  0  0  0  0
  -19.3260   -7.9613   21.7128 C   0  0  0  0  0  0  0  0  0  0  0  0
  -18.0248   -7.9102   21.2130 C   0  0  0  0  0  0  0  0  0  0  0  0
  -27.4558  -24.5000   17.3333 C   0  0  0  0  0  0  0  0  0  0  0  0
  -30.8321  -19.0465   20.1536 C   0  0  0  0  0  0  0  0  0  0  0  0
  -18.5819   -5.9170   19.9665 C   0  0  0  0  0  0  0  0  0  0  0  0
  -23.8023  -10.4247   21.0015 C   0  0  0  0  0  0  0  0  0  0  0  0
  -24.1699  -12.9409   20.7978 C   0  0  0  0  0  0  0  0  0  0  0  0
  -28.6558  -32.5879   15.2982 C   0  0  0  0  0  0  0  0  0  0  0  0
  -28.3083  -25.9575   15.5987 C   0  0  0  0  0  0  0  0  0  0  0  0
  -28.3403  -31.3992   15.9837 C   0  0  0  0  0  0  0  0  0  0  0  0
  -27.2297  -25.2885   16.1947 C   0  0  0  0  0  0  0  0  0  0  0  0
  -30.6390  -19.7975   21.3130 C   0  0  0  0  0  0  0  0  0  0  0  0
  -30.2679  -19.1653   22.4997 C   0  0  0  0  0  0  0  0  0  0  0  0
  -30.0898  -17.7821   22.5270 C   0  0  0  0  0  0  0  0  0  0  0  0
  -30.2828  -17.0311   21.3675 C   0  0  0  0  0  0  0  0  0  0  0  0
  -22.2862   -8.1512   21.5627 C   0  0  0  0  0  0  0  0  0  0  0  0
  -28.7388  -24.3685   17.8639 C   0  0  0  0  0  0  0  0  0  0  0  0
  -20.2552   -6.9903   21.3393 C   0  0  0  0  0  0  0  0  0  0  0  0
  -17.6527   -6.8880   20.3399 C   0  0  0  0  0  0  0  0  0  0  0  0
  -19.8832   -5.9682   20.4662 C   0  0  0  0  0  0  0  0  0  0  0  0
  -30.6539  -17.6633   20.1808 C   0  0  0  0  0  0  0  0  0  0  0  0
  -24.5859  -11.5987   20.7121 C   0  0  0  0  0  0  0  0  0  0  0  0
  -25.2736  -13.6671   20.4224 C   0  0  0  0  0  0  0  0  0  0  0  0
  -22.8994  -13.4827   21.1824 C   0  0  0  0  0  0  0  0  0  0  0  0
  -26.3355  -28.4092   15.1509 C   0  0  0  0  0  0  0  0  0  0  0  0
  -24.5353  -26.1797   13.6307 C   0  0  0  0  0  0  0  0  0  0  0  0
  -23.7336  -22.8871   13.2268 C   0  0  0  0  0  0  0  0  0  0  0  0
  -30.7471  -14.6677   20.6293 C   0  0  0  0  0  0  0  0  0  0  0  0
  -27.6500  -33.2870   14.4183 C   0  0  0  0  0  0  0  0  0  0  0  0
  -28.0997  -26.7896   14.3632 C   0  0  0  0  0  0  0  0  0  0  0  0
  -25.8296  -25.3991   15.6508 C   0  0  0  0  0  0  0  0  0  0  0  0
  -26.4813  -32.3970   14.0030 C   0  0  0  0  0  0  0  0  0  0  0  0
  -29.6386  -12.1829   18.3328 C   0  0  0  0  0  0  0  0  0  0  0  0
  -25.9348  -31.6370   15.2073 C   0  0  0  0  0  0  0  0  0  0  0  0
  -28.1910  -11.9198   18.7541 C   0  0  0  0  0  0  0  0  0  0  0  0
  -30.5410  -12.4451   19.5372 C   0  0  0  0  0  0  0  0  0  0  0  0
  -28.6244  -13.2350   20.8682 C   0  0  0  0  0  0  0  0  0  0  0  0
  -27.0022  -30.7145   15.8083 C   0  0  1  0  0  0  0  0  0  0  0  0
  -26.6645  -27.2840   14.2111 C   0  0  1  0  0  0  0  0  0  0  0  0
  -27.6644  -13.0297   19.6850 C   0  0  2  0  0  0  0  0  0  0  0  0
  -30.0609  -19.9738   23.7415 C   0  0  0  0  0  0  0  0  0  0  0  0
  -29.6915  -17.1099   23.8042 C   0  0  0  0  0  0  0  0  0  0  0  0
  -22.1978  -21.3773   11.9387 C   0  0  0  0  0  0  0  0  0  0  0  0
  -28.4659  -24.1498   21.8180 C   0  0  0  0  0  0  0  0  0  0  0  0
  -22.2167  -27.0026   15.4353 C   0  0  0  0  0  0  0  0  0  0  0  0
  -21.0516  -24.8834   14.7875 C   0  0  0  0  0  0  0  0  0  0  0  0
  -21.5871  -26.5915   13.0502 C   0  0  0  0  0  0  0  0  0  0  0  0
  -26.0013  -21.4744   11.9537 C   0  0  0  0  0  0  0  0  0  0  0  0
  -30.8379  -21.2835   21.2564 C   0  0  0  0  0  0  0  0  0  0  0  0
  -30.0165  -23.9739   19.8306 C   0  0  0  0  0  0  0  0  0  1  0  0
  -23.4553  -25.2113   14.0486 C   0  0  1  0  0  0  0  0  0  0  0  0
  -23.5677  -22.0364   11.9806 C   0  0  2  0  0  0  0  0  0  0  0  0
  -29.7335  -23.5238   21.2594 C   0  0  2  0  0  0  0  0  0  0  0  0
  -22.1037  -25.9214   14.3421 C   0  0  0  0  0  0  0  0  0  0  0  0
  -25.8548  -11.4766   20.3133 N   0  0  0  0  0  0  0  0  0  0  0  0
  -26.2457  -12.7514   20.1451 N   0  0  0  0  0  0  0  0  0  0  0  0
  -25.6757  -26.2295   14.4449 N   0  0  0  0  0  0  0  0  0  0  0  0
  -29.9813  -13.5111   20.3710 N   0  0  0  0  0  0  0  0  0  0  0  0
  -25.4978  -14.9932   20.3057 N   0  0  0  0  0  0  0  0  0  0  0  0
  -21.8747  -12.5953   21.5384 N   0  0  0  0  0  0  0  0  0  0  0  0
  -30.0987  -15.6267   21.4068 N   0  0  0  0  0  0  0  0  0  0  0  0
  -27.1464  -29.5186   15.0060 N   0  0  0  0  0  0  0  0  0  0  0  0
  -23.3840  -24.2012   12.9983 N   0  0  0  0  0  0  0  0  0  0  0  0
  -24.6051  -20.9671   11.9415 N   0  3  0  0  0  0  0  0  0  0  0  0
  -29.5613  -22.0421   21.2636 N   0  3  0  0  0  0  0  0  0  0  0  0
  -22.6744  -14.7167   21.1939 O   0  0  0  0  0  0  0  0  0  0  0  0
  -25.4131  -28.2810   15.9475 O   0  0  0  0  0  0  0  0  0  0  0  0
  -24.3762  -26.8616   12.6151 O   0  0  0  0  0  0  0  0  0  0  0  0
  -24.1299  -22.4308   14.2970 O   0  0  0  0  0  0  0  0  0  0  0  0
  -31.8834  -14.8095   20.1704 O   0  0  0  0  0  0  0  0  0  0  0  0
  -21.5465   -7.0420   21.8370 O   0  0  0  0  0  0  0  0  0  0  0  0
  -28.9436  -23.5991   18.9676 O   0  0  0  0  0  0  0  0  0  1  0  0
  -16.4027   -6.8382   19.8613 F   0  0  0  0  0  0  0  0  0  0  0  0
  -20.7711   -5.0318   20.1048 F   0  0  0  0  0  0  0  0  0  0  0  0
  -30.9041  -16.7742   18.7199 Cl  0  0  0  0  0  0  0  0  0  0  0  0
  1  2  1  0  0  0  0
  1  5  2  0  0  0  0
  2  6  2  0  0  0  0
  3  8  2  0  0  0  0
  3 16  1  0  0  0  0
  4  9  1  0  0  0  0
  4 16  2  0  0  0  0
  5 18  1  0  0  0  0
  6 20  1  0  0  0  0
  7 10  2  0  0  0  0
  7 19  1  0  0  0  0
  8 26  1  0  0  0  0
  9 26  2  0  0  0  0
 10 27  1  0  0  0  0
 11 12  2  0  0  0  0
 11 28  1  0  0  0  0
 12 29  1  0  0  0  0
 13 21  1  0  0  0  0
 13 27  2  0  0  0  0
 14 22  1  0  0  0  0
 14 31  2  0  0  0  0
 15 29  2  0  0  0  0
 15 30  1  0  0  0  0
 16 32  1  0  0  0  0
 17 32  1  0  0  0  0
 17 33  2  0  0  0  0
 17 34  1  0  0  0  0
 18 20  2  0  0  0  0
 18 39  1  0  0  0  0
 19 21  2  0  0  0  0
 19 40  1  0  0  0  0
 20 48  1  0  0  0  0
 21 41  1  0  0  0  0
 22 23  2  0  0  0  0
 22 59  1  0  0  0  0
 23 24  1  0  0  0  0
 23 51  1  0  0  0  0
 24 25  2  0  0  0  0
 24 52  1  0  0  0  0
 25 31  1  0  0  0  0
 25 71  1  0  0  0  0
 26 81  1  0  0  0  0
 27 82  1  0  0  0  0
 28 30  2  0  0  0  0
 28 81  1  0  0  0  0
 29 83  1  0  0  0  0
 30 84  1  0  0  0  0
 31 85  1  0  0  0  0
 32 65  2  0  0  0  0
 33 66  1  0  0  0  0
 33 69  1  0  0  0  0
 34 70  1  0  0  0  0
 34 76  2  0  0  0  0
 35 49  1  0  0  0  0
 35 72  1  0  0  0  0
 35 77  2  0  0  0  0
 36 61  1  0  0  0  0
 36 67  1  0  0  0  0
 36 78  2  0  0  0  0
 37 62  1  0  0  0  0
 37 73  1  0  0  0  0
 37 79  2  0  0  0  0
 38 68  1  0  0  0  0
 38 71  1  0  0  0  0
 38 80  2  0  0  0  0
 39 42  1  0  0  0  0
 40 49  1  0  0  0  0
 41 67  1  0  0  0  0
 42 44  1  0  0  0  0
 43 45  1  0  0  0  0
 43 46  1  0  0  0  0
 44 48  1  0  0  0  0
 45 50  1  0  0  0  0
 46 68  1  0  0  0  0
 47 50  1  0  0  0  0
 47 68  1  0  0  0  0
 48 72  1  0  0  0  0
 49 67  1  0  0  0  0
 50 66  1  0  0  0  0
 53 62  1  0  0  0  0
 54 63  1  0  0  0  0
 55 64  1  0  0  0  0
 56 64  1  0  0  0  0
 57 64  1  0  0  0  0
 58 74  1  0  0  0  0
 59 75  1  0  0  0  0
 60 63  1  0  0  0  0
 60 82  1  0  0  0  0
 61 64  1  0  0  0  0
 61 73  1  0  0  0  0
 62 74  1  0  0  0  0
 63 75  1  0  0  0  0
 65 66  1  0  0  0  0
M  CHG  2  74   1  75   1
M  ISO  4  38 100  60 101  71 100  82 101
M  END
> <Batch ID>
0016

> <Smiles>
CNC(C)C(=O)NC(C(=O)N1Cc2cc([101O:1][101CH2:1]C(C)NCc3cc(Cl)c([100NH:0][100C:0](=O)N4CCCC(n5nc(-c6ccc(Oc7ccc(F)cc7F)cc6)c(C(N)=O)c5N)C4)c(C)c3C)ccc2CC1C(=O)NC1CCCc2ccccc21)C(C)(C)C

> <Shape>
0.198

> <Color>
0.207

> <Negative vol penalty>
0.000

$$$$

  -OEChem-04052315583D

 85 93  0     1  0  0  0  0  0999 V2000
  -27.5607  -27.9062   27.1738 C   0  0  0  0  0  0  0  0  0  0  0  0
  -28.4099  -27.0945   26.4286 C   0  0  0  0  0  0  0  0  0  0  0  0
  -23.0665   -9.8298   20.1775 C   0  0  0  0  0  0  0  0  0  0  0  0
  -23.7678  -10.0901   22.4748 C   0  0  0  0  0  0  0  0  0  0  0  0
  -26.5109  -28.5762   26.5470 C   0  0  0  0  0  0  0  0  0  0  0  0
  -28.2091  -26.9514   25.0561 C   0  0  0  0  0  0  0  0  0  0  0  0
  -32.5182  -27.2848   22.4170 C   0  0  0  0  0  0  0  0  0  0  0  0
  -22.3003   -8.7211   20.5370 C   0  0  0  0  0  0  0  0  0  0  0  0
  -23.0016   -8.9813   22.8343 C   0  0  0  0  0  0  0  0  0  0  0  0
  -33.3462  -26.1632   22.4054 C   0  0  0  0  0  0  0  0  0  0  0  0
  -19.3052   -8.1280   21.9897 C   0  0  0  0  0  0  0  0  0  0  0  0
  -18.0105   -8.0412   21.4779 C   0  0  0  0  0  0  0  0  0  0  0  0
  -32.4933  -25.5635   20.2300 C   0  0  0  0  0  0  0  0  0  0  0  0
  -18.5763   -5.9539   20.4009 C   0  0  0  0  0  0  0  0  0  0  0  0
  -23.8003  -10.5143   21.1464 C   0  0  0  0  0  0  0  0  0  0  0  0
  -24.1806  -13.0053   20.7490 C   0  0  0  0  0  0  0  0  0  0  0  0
  -26.3030  -28.4489   25.1646 C   0  0  0  0  0  0  0  0  0  0  0  0
  -31.6622  -27.5488   21.3381 C   0  0  0  0  0  0  0  0  0  0  0  0
  -27.1547  -27.6193   24.4104 C   0  0  0  0  0  0  0  0  0  0  0  0
  -31.6573  -26.6906   20.2292 C   0  0  0  0  0  0  0  0  0  0  0  0
  -22.2678   -8.2968   21.8653 C   0  0  0  0  0  0  0  0  0  0  0  0
  -33.3317  -25.3007   21.3131 C   0  0  0  0  0  0  0  0  0  0  0  0
  -20.2354   -7.1278   21.7070 C   0  0  0  0  0  0  0  0  0  0  0  0
  -17.6461   -6.9541   20.6835 C   0  0  0  0  0  0  0  0  0  0  0  0
  -19.8710   -6.0407   20.9127 C   0  0  0  0  0  0  0  0  0  0  0  0
  -32.0066  -16.9359   22.3940 C   0  0  0  0  0  0  0  0  0  0  0  0
  -24.5924  -11.6594   20.7756 C   0  0  0  0  0  0  0  0  0  0  0  0
  -31.9552  -18.0602   23.2398 C   0  0  0  0  0  0  0  0  0  0  0  0
  -25.2921  -13.6963   20.3323 C   0  0  0  0  0  0  0  0  0  0  0  0
  -30.6970  -16.7043   22.0508 C   0  0  0  0  0  0  0  0  0  0  0  0
  -22.9072  -13.5796   21.0722 C   0  0  0  0  0  0  0  0  0  0  0  0
  -33.0841  -18.7552   23.9102 C   0  0  0  0  0  0  0  0  0  0  0  0
  -28.5122  -27.7754   20.9774 C   0  0  0  0  0  0  0  0  0  0  0  0
  -29.3147  -28.7055   17.9752 C   0  0  0  0  0  0  0  0  0  0  0  0
  -31.6049  -28.6677   15.4453 C   0  0  0  0  0  0  0  0  0  0  0  0
  -30.7663  -14.6942   20.5339 C   0  0  0  0  0  0  0  0  0  0  0  0
  -25.1261  -29.1553   24.5394 C   0  0  0  0  0  0  0  0  0  0  0  0
  -30.7947  -28.7775   21.3542 C   0  0  0  0  0  0  0  0  0  0  0  0
  -30.7715  -26.9403   19.0371 C   0  0  0  0  0  0  0  0  0  0  0  0
  -25.2087  -29.2468   23.0179 C   0  0  0  0  0  0  0  0  0  0  0  0
  -29.6785  -12.0385   18.4264 C   0  0  0  0  0  0  0  0  0  0  0  0
  -25.6004  -27.8981   22.4224 C   0  0  0  0  0  0  0  0  0  0  0  0
  -28.2244  -11.8138   18.8475 C   0  0  0  0  0  0  0  0  0  0  0  0
  -30.5659  -12.3927   19.6184 C   0  0  0  0  0  0  0  0  0  0  0  0
  -28.6348  -13.2911   20.8566 C   0  0  0  0  0  0  0  0  0  0  0  0
  -26.9843  -27.4584   22.9154 C   0  0  1  0  0  0  0  0  0  0  0  0
  -29.5878  -28.6689   20.4275 C   0  0  1  0  0  0  0  0  0  0  0  0
  -27.6899  -12.9955   19.6804 C   0  0  2  0  0  0  0  0  0  0  0  0
  -31.9625  -29.4842   13.0995 C   0  0  0  0  0  0  0  0  0  0  0  0
  -27.4413  -26.5328   16.9360 C   0  0  0  0  0  0  0  0  0  0  0  0
  -28.5411  -26.7526   14.6977 C   0  0  0  0  0  0  0  0  0  0  0  0
  -27.3268  -28.6952   15.6847 C   0  0  0  0  0  0  0  0  0  0  0  0
  -28.5362  -17.8473   22.6413 C   0  0  0  0  0  0  0  0  0  0  0  0
  -33.9679  -30.2638   16.2374 C   0  0  0  0  0  0  0  0  0  0  0  0
  -35.0245  -21.4465   23.7180 C   0  0  0  0  0  0  0  0  0  0  0  0
  -34.7018  -22.1224   22.3850 C   0  0  0  0  0  0  0  0  0  0  0  0
  -35.2366  -19.9427   23.5745 C   0  0  0  0  0  0  0  0  0  0  0  0
  -34.4546  -23.6155   22.5601 C   0  0  0  0  0  0  0  0  0  1  0  0
  -29.5507  -27.9964   16.6635 C   0  0  1  0  0  0  0  0  0  0  0  0
  -32.1655  -29.7799   14.5774 C   0  0  2  0  0  0  0  0  0  0  0  0
  -28.2303  -27.4882   16.0186 C   0  0  0  0  0  0  0  0  0  0  0  0
  -25.8660  -11.5024   20.4051 N   0  0  0  0  0  0  0  0  0  0  0  0
  -30.7114  -18.5115   23.4225 N   0  0  0  0  0  0  0  0  0  0  0  0
  -26.2641  -12.7587   20.1417 N   0  0  0  0  0  0  0  0  0  0  0  0
  -29.9692  -17.6665   22.6868 N   0  0  0  0  0  0  0  0  0  0  0  0
  -29.9369  -28.1514   19.1029 N   0  0  0  0  0  0  0  0  0  0  0  0
  -29.9994  -13.5230   20.3575 N   0  0  0  0  0  0  0  0  0  0  0  0
  -25.5230  -15.0083   20.1139 N   0  0  0  0  0  0  0  0  0  0  0  0
  -21.8743  -12.7262   21.4834 N   0  0  0  0  0  0  0  0  0  0  0  0
  -30.1114  -15.7137   21.2241 N   0  0  0  0  0  0  0  0  0  0  0  0
  -34.0709  -19.2663   23.0751 N   0  0  0  0  0  0  0  0  0  0  0  0
  -28.0239  -28.1739   22.2071 N   0  0  0  0  0  0  0  0  0  0  0  0
  -30.3053  -28.9242   15.8279 N   0  0  0  0  0  0  0  0  0  0  0  0
  -33.6252  -29.9461   14.8272 N   0  3  0  0  0  0  0  0  0  0  0  0
  -22.6869  -14.8113   20.9828 O   0  0  0  0  0  0  0  0  0  0  0  0
  -33.1024  -18.8253   25.1363 O   0  0  0  0  0  0  0  0  0  0  0  0
  -28.1510  -26.7976   20.3331 O   0  0  0  0  0  0  0  0  0  0  0  0
  -28.6103  -29.7178   17.9972 O   0  0  0  0  0  0  0  0  0  0  0  0
  -32.2537  -27.6693   15.7501 O   0  0  0  0  0  0  0  0  0  0  0  0
  -31.9091  -14.7959   20.0806 O   0  0  0  0  0  0  0  0  0  0  0  0
  -21.5201   -7.2151   22.2165 O   0  0  0  0  0  0  0  0  0  0  0  0
  -34.1384  -24.2048   21.2995 O   0  0  0  0  0  0  0  0  0  1  0  0
  -16.4023   -6.8701   20.1934 F   0  0  0  0  0  0  0  0  0  0  0  0
  -20.7600   -5.0761   20.6387 F   0  0  0  0  0  0  0  0  0  0  0  0
  -33.3902  -16.0798   21.9233 Cl  0  0  0  0  0  0  0  0  0  0  0  0
  1  2  1  0  0  0  0
  1  5  2  0  0  0  0
  2  6  2  0  0  0  0
  3  8  2  0  0  0  0
  3 15  1  0  0  0  0
  4  9  1  0  0  0  0
  4 15  2  0  0  0  0
  5 17  1  0  0  0  0
  6 19  1  0  0  0  0
  7 10  2  0  0  0  0
  7 18  1  0  0  0  0
  8 21  1  0  0  0  0
  9 21  2  0  0  0  0
 10 22  1  0  0  0  0
 11 12  2  0  0  0  0
 11 23  1  0  0  0  0
 12 24  1  0  0  0  0
 13 20  1  0  0  0  0
 13 22  2  0  0  0  0
 14 24  2  0  0  0  0
 14 25  1  0  0  0  0
 15 27  1  0  0  0  0
 16 27  1  0  0  0  0
 16 29  2  0  0  0  0
 16 31  1  0  0  0  0
 17 19  2  0  0  0  0
 17 37  1  0  0  0  0
 18 20  2  0  0  0  0
 18 38  1  0  0  0  0
 19 46  1  0  0  0  0
 20 39  1  0  0  0  0
 21 81  1  0  0  0  0
 22 82  1  0  0  0  0
 23 25  2  0  0  0  0
 23 81  1  0  0  0  0
 24 83  1  0  0  0  0
 25 84  1  0  0  0  0
 26 28  1  0  0  0  0
 26 30  2  0  0  0  0
 26 85  1  0  0  0  0
 27 62  2  0  0  0  0
 28 32  1  0  0  0  0
 28 63  2  0  0  0  0
 29 64  1  0  0  0  0
 29 68  1  0  0  0  0
 30 65  1  0  0  0  0
 30 70  1  0  0  0  0
 31 69  1  0  0  0  0
 31 75  2  0  0  0  0
 32 71  1  0  0  0  0
 32 76  2  0  0  0  0
 33 47  1  0  0  0  0
 33 72  1  0  0  0  0
 33 77  2  0  0  0  0
 34 59  1  0  0  0  0
 34 66  1  0  0  0  0
 34 78  2  0  0  0  0
 35 60  1  0  0  0  0
 35 73  1  0  0  0  0
 35 79  2  0  0  0  0
 36 67  1  0  0  0  0
 36 70  1  0  0  0  0
 36 80  2  0  0  0  0
 37 40  1  0  0  0  0
 38 47  1  0  0  0  0
 39 66  1  0  0  0  0
 40 42  1  0  0  0  0
 41 43  1  0  0  0  0
 41 44  1  0  0  0  0
 42 46  1  0  0  0  0
 43 48  1  0  0  0  0
 44 67  1  0  0  0  0
 45 48  1  0  0  0  0
 45 67  1  0  0  0  0
 46 72  1  0  0  0  0
 47 66  1  0  0  0  0
 48 64  1  0  0  0  0
 49 60  1  0  0  0  0
 50 61  1  0  0  0  0
 51 61  1  0  0  0  0
 52 61  1  0  0  0  0
 53 65  1  0  0  0  0
 54 74  1  0  0  0  0
 55 56  1  0  0  0  0
 55 57  1  0  0  0  0
 56 58  1  0  0  0  0
 57 71  1  0  0  0  0
 58 82  1  0  0  0  0
 59 61  1  0  0  0  0
 59 73  1  0  0  0  0
 60 74  1  0  0  0  0
 62 64  1  0  0  0  0
 63 65  1  0  0  0  0
M  CHG  1  74   1
M  ISO  4  36 100  58 101  70 100  82 101
M  END
> <Batch ID>
0016

> <Smiles>
CNC(C)C(=O)NC(C(=O)N1Cc2cc([101O:1][101CH2:1]CCCNC(=O)c3nn(C)c([100NH:0][100C:0](=O)N4CCCC(n5nc(-c6ccc(Oc7ccc(F)cc7F)cc6)c(C(N)=O)c5N)C4)c3Cl)ccc2CC1C(=O)NC1CCCc2ccccc21)C(C)(C)C

> <Shape>
0.204

> <Color>
0.195

> <Negative vol penalty>
0.000

$$$$

  -OEChem-04052315583D

 79 86  0     1  0  0  0  0  0999 V2000
  -17.4147  -26.3012   22.3817 C   0  0  0  0  0  0  0  0  0  0  0  0
  -18.6228  -26.0041   21.7590 C   0  0  0  0  0  0  0  0  0  0  0  0
  -25.7472  -13.3198   21.7822 C   0  0  0  0  0  0  0  0  0  0  0  0
  -25.3856  -13.3636   19.3938 C   0  0  0  0  0  0  0  0  0  0  0  0
  -17.2204  -27.5538   22.9622 C   0  0  0  0  0  0  0  0  0  0  0  0
  -19.6370  -26.9601   21.7157 C   0  0  0  0  0  0  0  0  0  0  0  0
  -25.6697  -25.9420   21.9919 C   0  0  0  0  0  0  0  0  0  0  0  0
  -25.1624  -12.0552   21.8476 C   0  0  0  0  0  0  0  0  0  0  0  0
  -24.8008  -12.0989   19.4592 C   0  0  0  0  0  0  0  0  0  0  0  0
  -26.6526  -25.8565   21.0069 C   0  0  0  0  0  0  0  0  0  0  0  0
  -26.0586   -8.8598   21.2002 C   0  0  0  0  0  0  0  0  0  0  0  0
  -26.7007   -7.8876   21.9671 C   0  0  0  0  0  0  0  0  0  0  0  0
  -27.2110  -28.1748   21.3715 C   0  0  0  0  0  0  0  0  0  0  0  0
  -24.7355   -7.6871   23.3582 C   0  0  0  0  0  0  0  0  0  0  0  0
  -25.8588  -13.9740   20.5553 C   0  0  0  0  0  0  0  0  0  0  0  0
  -27.8234  -15.5790   20.2863 C   0  0  0  0  0  0  0  0  0  0  0  0
  -18.2364  -28.5222   22.9344 C   0  0  0  0  0  0  0  0  0  0  0  0
  -25.4423  -27.1495   22.6677 C   0  0  0  0  0  0  0  0  0  0  0  0
  -19.4557  -28.2273   22.2953 C   0  0  0  0  0  0  0  0  0  0  0  0
  -26.2264  -28.2723   22.3665 C   0  0  0  0  0  0  0  0  0  0  0  0
  -24.6892  -11.4447   20.6861 C   0  0  0  0  0  0  0  0  0  0  0  0
  -27.4215  -26.9738   20.6945 C   0  0  0  0  0  0  0  0  0  0  0  0
  -24.7550   -9.2458   21.5123 C   0  0  0  0  0  0  0  0  0  0  0  0
  -26.0391   -7.3012   23.0460 C   0  0  0  0  0  0  0  0  0  0  0  0
  -24.0935   -8.6594   22.5913 C   0  0  0  0  0  0  0  0  0  0  0  0
  -26.4623  -15.2807   20.4871 C   0  0  0  0  0  0  0  0  0  0  0  0
  -27.8801  -16.9512   20.3020 C   0  0  0  0  0  0  0  0  0  0  0  0
  -29.8259  -25.6517   21.1329 C   0  0  0  0  0  0  0  0  0  0  0  0
  -28.9369  -14.6947   20.1020 C   0  0  0  0  0  0  0  0  0  0  0  0
  -29.3962  -25.9956   19.9105 C   0  0  0  0  0  0  0  0  0  1  0  0
  -22.9783  -29.1393   22.9379 C   0  0  0  0  0  0  0  0  0  0  0  0
  -24.9086  -30.6178   25.0850 C   0  0  0  0  0  0  0  0  0  0  0  0
  -28.7596  -23.3167   18.1933 C   0  0  0  0  0  0  0  0  0  0  0  0
  -28.0781  -31.2205   26.1976 C   0  0  0  0  0  0  0  0  0  0  0  0
  -25.8610  -21.9233   18.7702 C   0  0  0  0  0  0  0  0  0  0  0  0
  -17.9628  -29.8787   23.5342 C   0  0  0  0  0  0  0  0  0  0  0  0
  -24.3963  -27.2180   23.7464 C   0  0  0  0  0  0  0  0  0  0  0  0
  -26.0356  -29.5864   23.0771 C   0  0  0  0  0  0  0  0  0  0  0  0
  -19.2241  -30.7047   23.7730 C   0  0  0  0  0  0  0  0  0  0  0  0
  -24.3993  -20.3752   21.6239 C   0  0  0  0  0  0  0  0  0  0  0  0
  -20.1304  -30.6619   22.5467 C   0  0  0  0  0  0  0  0  0  0  0  0
  -24.9129  -18.9356   21.5622 C   0  0  0  0  0  0  0  0  0  0  0  0
  -24.1212  -20.9352   20.2307 C   0  0  0  0  0  0  0  0  0  0  0  0
  -25.7638  -19.3975   19.2253 C   0  0  0  0  0  0  0  0  0  0  0  0
  -20.5890  -29.2292   22.2494 C   0  0  1  0  0  0  0  0  0  0  0  0
  -23.9026  -28.6370   24.0107 C   0  0  1  0  0  0  0  0  0  0  0  0
  -26.1117  -18.8084   20.6031 C   0  0  2  0  0  0  0  0  0  0  0  0
  -30.5492  -26.5245   17.7360 C   0  0  0  0  0  0  0  0  0  0  0  0
  -29.3413  -32.4992   27.9488 C   0  0  0  0  0  0  0  0  0  0  0  0
  -24.4715  -33.1966   23.5138 C   0  0  0  0  0  0  0  0  0  0  0  0
  -26.4480  -34.1727   24.7007 C   0  0  0  0  0  0  0  0  0  0  0  0
  -24.4371  -33.4709   25.9993 C   0  0  0  0  0  0  0  0  0  0  0  0
  -29.1949  -28.7419   27.3675 C   0  0  0  0  0  0  0  0  0  0  0  0
  -27.6719  -22.7649   17.2965 C   0  0  0  0  0  0  0  0  0  0  0  0
  -29.9883  -25.4356   18.6445 C   0  0  2  0  0  0  0  0  0  0  0  0
  -25.9534  -31.7050   25.0121 C   0  0  1  0  0  0  0  0  0  0  0  0
  -28.6825  -31.1765   27.5895 C   0  0  2  0  0  0  0  0  0  0  0  0
  -25.3300  -33.1122   24.7916 C   0  0  0  0  0  0  0  0  0  0  0  0
  -25.7088  -16.3753   20.6207 N   0  0  0  0  0  0  0  0  0  0  0  0
  -26.5995  -17.3749   20.5038 N   0  0  0  0  0  0  0  0  0  0  0  0
  -24.9962  -29.6048   24.1196 N   0  0  0  0  0  0  0  0  0  0  0  0
  -25.2979  -20.7855   19.3712 N   0  0  0  0  0  0  0  0  0  0  0  0
  -28.9000  -17.8246   20.1629 N   0  0  0  0  0  0  0  0  0  0  0  0
  -28.7018  -13.3131   20.1131 N   0  0  0  0  0  0  0  0  0  0  0  0
  -21.6473  -28.8388   23.1561 N   0  0  0  0  0  0  0  0  0  0  0  0
  -28.9775  -24.6674   17.9575 N   0  0  0  0  0  0  0  0  0  0  0  0
  -26.7496  -31.5883   26.2291 N   0  0  0  0  0  0  0  0  0  0  0  0
  -26.9780  -21.6938   17.9762 N   0  0  0  0  0  0  0  0  0  0  0  0
  -29.7106  -30.1010   27.6740 N   0  3  0  0  0  0  0  0  0  0  0  0
  -30.1081  -15.1170   19.9490 O   0  0  0  0  0  0  0  0  0  0  0  0
  -23.4384  -29.7551   21.9836 O   0  0  0  0  0  0  0  0  0  0  0  0
  -24.0508  -30.6618   25.9704 O   0  0  0  0  0  0  0  0  0  0  0  0
  -29.3852  -22.6284   18.9955 O   0  0  0  0  0  0  0  0  0  0  0  0
  -28.7213  -30.9586   25.1836 O   0  0  0  0  0  0  0  0  0  0  0  0
  -25.4055  -23.0603   18.9336 O   0  0  0  0  0  0  0  0  0  0  0  0
  -24.1187  -10.2106   20.7495 O   0  0  0  0  0  0  0  0  0  0  0  0
  -28.3811  -26.8933   19.7330 O   0  0  0  0  0  0  0  0  0  1  0  0
  -26.6553   -6.3665   23.7814 F   0  0  0  0  0  0  0  0  0  0  0  0
  -22.8407   -9.0253   22.8953 F   0  0  0  0  0  0  0  0  0  0  0  0
  1  2  1  0  0  0  0
  1  5  2  0  0  0  0
  2  6  2  0  0  0  0
  3  8  2  0  0  0  0
  3 15  1  0  0  0  0
  4  9  1  0  0  0  0
  4 15  2  0  0  0  0
  5 17  1  0  0  0  0
  6 19  1  0  0  0  0
  7 10  2  0  0  0  0
  7 18  1  0  0  0  0
  8 21  1  0  0  0  0
  9 21  2  0  0  0  0
 10 22  1  0  0  0  0
 11 12  2  0  0  0  0
 11 23  1  0  0  0  0
 12 24  1  0  0  0  0
 13 20  1  0  0  0  0
 13 22  2  0  0  0  0
 14 24  2  0  0  0  0
 14 25  1  0  0  0  0
 15 26  1  0  0  0  0
 16 26  1  0  0  0  0
 16 27  2  0  0  0  0
 16 29  1  0  0  0  0
 17 19  2  0  0  0  0
 17 36  1  0  0  0  0
 18 20  2  0  0  0  0
 18 37  1  0  0  0  0
 19 45  1  0  0  0  0
 20 38  1  0  0  0  0
 21 76  1  0  0  0  0
 22 77  1  0  0  0  0
 23 25  2  0  0  0  0
 23 76  1  0  0  0  0
 24 78  1  0  0  0  0
 25 79  1  0  0  0  0
 26 59  2  0  0  0  0
 27 60  1  0  0  0  0
 27 63  1  0  0  0  0
 28 30  2  0  0  0  0
 29 64  1  0  0  0  0
 29 70  2  0  0  0  0
 30 55  1  0  0  0  0
 30 77  1  0  0  0  0
 31 46  1  0  0  0  0
 31 65  1  0  0  0  0
 31 71  2  0  0  0  0
 32 56  1  0  0  0  0
 32 61  1  0  0  0  0
 32 72  2  0  0  0  0
 33 54  1  0  0  0  0
 33 66  1  0  0  0  0
 33 73  2  0  0  0  0
 34 57  1  0  0  0  0
 34 67  1  0  0  0  0
 34 74  2  0  0  0  0
 35 62  1  0  0  0  0
 35 68  1  0  0  0  0
 35 75  2  0  0  0  0
 36 39  1  0  0  0  0
 37 46  1  0  0  0  0
 38 61  1  0  0  0  0
 39 41  1  0  0  0  0
 40 42  1  0  0  0  0
 40 43  1  0  0  0  0
 41 45  1  0  0  0  0
 42 47  1  0  0  0  0
 43 62  1  0  0  0  0
 44 47  1  0  0  0  0
 44 62  1  0  0  0  0
 45 65  1  0  0  0  0
 46 61  1  0  0  0  0
 47 60  1  0  0  0  0
 48 55  1  0  0  0  0
 49 57  1  0  0  0  0
 50 58  1  0  0  0  0
 51 58  1  0  0  0  0
 52 58  1  0  0  0  0
 53 69  1  0  0  0  0
 54 68  1  0  0  0  0
 55 66  1  0  0  0  0
 56 58  1  0  0  0  0
 56 67  1  0  0  0  0
 57 69  1  0  0  0  0
 59 60  1  0  0  0  0
M  CHG  1  69   1
M  ISO  4  30 101  35 100  68 100  77 101
M  END
> <Batch ID>
0016

> <Smiles>
C=[101C:1](C(C)NC(=O)C[100NH:0][100C:0](=O)N1CCCC(n2nc(-c3ccc(Oc4ccc(F)cc4F)cc3)c(C(N)=O)c2N)C1)[101O:1]c1ccc2c(c1)CN(C(=O)C(NC(=O)C(C)NC)C(C)(C)C)C(C(=O)NC1CCCc3ccccc31)C2

> <Shape>
0.289

> <Color>
0.078

> <Negative vol penalty>
0.000

$$$$

  -OEChem-04052315583D

 87 95  0     1  0  0  0  0  0999 V2000
  -25.4374  -30.7214   28.1887 C   0  0  0  0  0  0  0  0  0  0  0  0
  -25.6215  -29.5236   27.5055 C   0  0  0  0  0  0  0  0  0  0  0  0
  -22.9974   -9.8918   19.9865 C   0  0  0  0  0  0  0  0  0  0  0  0
  -23.7206   -9.9519   22.2910 C   0  0  0  0  0  0  0  0  0  0  0  0
  -25.1446  -31.8874   27.4826 C   0  0  0  0  0  0  0  0  0  0  0  0
  -25.5118  -29.4909   26.1158 C   0  0  0  0  0  0  0  0  0  0  0  0
  -29.2317  -26.8352   23.9353 C   0  0  0  0  0  0  0  0  0  0  0  0
  -22.2302   -8.7587   20.2568 C   0  0  0  0  0  0  0  0  0  0  0  0
  -22.9533   -8.8188   22.5613 C   0  0  0  0  0  0  0  0  0  0  0  0
  -29.1261  -25.4454   23.9692 C   0  0  0  0  0  0  0  0  0  0  0  0
  -23.1967   -5.4779   22.1032 C   0  0  0  0  0  0  0  0  0  0  0  0
  -23.7832   -4.4635   22.8600 C   0  0  0  0  0  0  0  0  0  0  0  0
  -28.3070  -25.4584   21.7002 C   0  0  0  0  0  0  0  0  0  0  0  0
  -31.5661  -19.3256   22.6476 C   0  0  0  0  0  0  0  0  0  0  0  0
  -22.0579   -4.7140   24.5327 C   0  0  0  0  0  0  0  0  0  0  0  0
  -23.7427  -10.4884   21.0036 C   0  0  0  0  0  0  0  0  0  0  0  0
  -24.1292  -13.0031   20.8177 C   0  0  0  0  0  0  0  0  0  0  0  0
  -25.0407  -31.8709   26.0828 C   0  0  0  0  0  0  0  0  0  0  0  0
  -28.8648  -27.5491   22.7855 C   0  0  0  0  0  0  0  0  0  0  0  0
  -25.2160  -30.6575   25.3904 C   0  0  0  0  0  0  0  0  0  0  0  0
  -28.4113  -26.8570   21.6535 C   0  0  0  0  0  0  0  0  0  0  0  0
  -30.2874  -18.9502   23.0442 C   0  0  0  0  0  0  0  0  0  0  0  0
  -29.7784  -17.7168   22.6534 C   0  0  0  0  0  0  0  0  0  0  0  0
  -22.2081   -8.2222   21.5442 C   0  0  0  0  0  0  0  0  0  0  0  0
  -28.6610  -24.7570   22.8525 C   0  0  0  0  0  0  0  0  0  0  0  0
  -22.0409   -6.1104   22.5612 C   0  0  0  0  0  0  0  0  0  0  0  0
  -23.2138   -4.0816   24.0747 C   0  0  0  0  0  0  0  0  0  0  0  0
  -21.4715   -5.7284   23.7759 C   0  0  0  0  0  0  0  0  0  0  0  0
  -24.5359  -11.6586   20.7249 C   0  0  0  0  0  0  0  0  0  0  0  0
  -32.2895  -18.4385   21.8668 C   0  0  0  0  0  0  0  0  0  0  0  0
  -30.5817  -16.9018   21.8722 C   0  0  0  0  0  0  0  0  0  0  0  0
  -25.2395  -13.7237   20.4513 C   0  0  0  0  0  0  0  0  0  0  0  0
  -22.8611  -13.5516   21.2008 C   0  0  0  0  0  0  0  0  0  0  0  0
  -26.6762  -29.7556   22.1182 C   0  0  0  0  0  0  0  0  0  0  0  0
  -28.1801  -29.8190   19.2448 C   0  0  0  0  0  0  0  0  0  0  0  0
  -30.1278  -28.1995   16.9578 C   0  0  0  0  0  0  0  0  0  0  0  0
  -30.7192  -14.6836   20.6861 C   0  0  0  0  0  0  0  0  0  0  0  0
  -24.6758  -33.1472   25.3668 C   0  0  0  0  0  0  0  0  0  0  0  0
  -29.0098  -29.0459   22.7558 C   0  0  0  0  0  0  0  0  0  0  0  0
  -28.0238  -27.5751   20.3875 C   0  0  0  0  0  0  0  0  0  0  0  0
  -24.9468  -33.1021   23.8652 C   0  0  0  0  0  0  0  0  0  0  0  0
  -29.6019  -12.2216   18.3692 C   0  0  0  0  0  0  0  0  0  0  0  0
  -24.4222  -31.8006   23.2670 C   0  0  0  0  0  0  0  0  0  0  0  0
  -28.1509  -11.9663   18.7832 C   0  0  0  0  0  0  0  0  0  0  0  0
  -30.5015  -12.4696   19.5788 C   0  0  0  0  0  0  0  0  0  0  0  0
  -28.5853  -13.2647   20.9074 C   0  0  0  0  0  0  0  0  0  0  0  0
  -25.1296  -30.5866   23.8812 C   0  0  1  0  0  0  0  0  0  0  0  0
  -28.1214  -29.7117   21.7095 C   0  0  1  0  0  0  0  0  0  0  0  0
  -27.6286  -13.0739   19.7191 C   0  0  2  0  0  0  0  0  0  0  0  0
  -28.4082  -17.2958   23.0718 C   0  0  0  0  0  0  0  0  0  0  0  0
  -31.1584  -28.4924   14.6886 C   0  0  0  0  0  0  0  0  0  0  0  0
  -26.2179  -21.6546   23.2567 C   0  0  0  0  0  0  0  0  0  0  0  0
  -34.6050  -19.0591   22.6407 C   0  0  0  0  0  0  0  0  0  0  0  0
  -33.6495  -20.1113   20.5632 C   0  0  0  0  0  0  0  0  0  0  0  0
  -34.3960  -17.7398   20.5437 C   0  0  0  0  0  0  0  0  0  0  0  0
  -25.4576  -29.3483   17.9502 C   0  0  0  0  0  0  0  0  0  0  0  0
  -26.6481  -28.7101   15.8422 C   0  0  0  0  0  0  0  0  0  0  0  0
  -26.9014  -31.0128   16.7673 C   0  0  0  0  0  0  0  0  0  0  0  0
  -32.8680  -27.9046   18.0364 C   0  0  0  0  0  0  0  0  0  0  0  0
  -29.4803  -19.8904   23.8902 C   0  0  0  0  0  0  0  0  0  0  0  0
  -28.2872  -22.7982   24.1484 C   0  0  0  0  0  0  0  0  0  1  0  0
  -28.0249  -29.0753   17.9403 C   0  0  1  0  0  0  0  0  0  0  0  0
  -31.3588  -28.6437   16.1885 C   0  0  2  0  0  0  0  0  0  0  0  0
  -27.5516  -21.4758   23.9636 C   0  0  2  0  0  0  0  0  0  0  0  0
  -33.6650  -18.8088   21.4214 C   0  0  0  0  0  0  0  0  0  0  0  0
  -26.7634  -29.5230   17.1494 C   0  0  0  0  0  0  0  0  0  0  0  0
  -25.8054  -11.5299   20.3303 N   0  0  0  0  0  0  0  0  0  0  0  0
  -31.8286  -17.2320   21.4674 N   0  0  0  0  0  0  0  0  0  0  0  0
  -26.2061  -12.8029   20.1719 N   0  0  0  0  0  0  0  0  0  0  0  0
  -28.1774  -29.0391   20.4100 N   0  0  0  0  0  0  0  0  0  0  0  0
  -29.9462  -13.5342   20.4173 N   0  0  0  0  0  0  0  0  0  0  0  0
  -25.4736  -15.0489   20.3440 N   0  0  0  0  0  0  0  0  0  0  0  0
  -21.8286  -12.6693   21.5471 N   0  0  0  0  0  0  0  0  0  0  0  0
  -30.0746  -15.6422   21.4672 N   0  0  0  0  0  0  0  0  0  0  0  0
  -26.4474  -30.4247   23.3054 N   0  0  0  0  0  0  0  0  0  0  0  0
  -29.2788  -29.2548   17.2165 N   0  0  0  0  0  0  0  0  0  0  0  0
  -32.5414  -27.8302   16.5891 N   0  3  0  0  0  0  0  0  0  0  0  0
  -28.4010  -20.5737   23.1330 N   0  3  0  0  0  0  0  0  0  0  0  0
  -22.6449  -14.7871   21.2194 O   0  0  0  0  0  0  0  0  0  0  0  0
  -25.8311  -29.2232   21.4083 O   0  0  0  0  0  0  0  0  0  0  0  0
  -28.3065  -31.0460   19.2301 O   0  0  0  0  0  0  0  0  0  0  0  0
  -29.9365  -27.0324   17.2923 O   0  0  0  0  0  0  0  0  0  0  0  0
  -31.8583  -14.8202   20.2325 O   0  0  0  0  0  0  0  0  0  0  0  0
  -21.4594   -7.1167   21.8084 O   0  0  0  0  0  0  0  0  0  0  0  0
  -28.5563  -23.4006   22.8831 O   0  0  0  0  0  0  0  0  0  1  0  0
  -23.7762   -3.1064   24.8006 F   0  0  0  0  0  0  0  0  0  0  0  0
  -20.3605   -6.3315   24.2205 F   0  0  0  0  0  0  0  0  0  0  0  0
  1  2  1  0  0  0  0
  1  5  2  0  0  0  0
  2  6  2  0  0  0  0
  3  8  2  0  0  0  0
  3 16  1  0  0  0  0
  4  9  1  0  0  0  0
  4 16  2  0  0  0  0
  5 18  1  0  0  0  0
  6 20  1  0  0  0  0
  7 10  2  0  0  0  0
  7 19  1  0  0  0  0
  8 24  1  0  0  0  0
  9 24  2  0  0  0  0
 10 25  1  0  0  0  0
 11 12  2  0  0  0  0
 11 26  1  0  0  0  0
 12 27  1  0  0  0  0
 13 21  1  0  0  0  0
 13 25  2  0  0  0  0
 14 22  1  0  0  0  0
 14 30  2  0  0  0  0
 15 27  2  0  0  0  0
 15 28  1  0  0  0  0
 16 29  1  0  0  0  0
 17 29  1  0  0  0  0
 17 32  2  0  0  0  0
 17 33  1  0  0  0  0
 18 20  2  0  0  0  0
 18 38  1  0  0  0  0
 19 21  2  0  0  0  0
 19 39  1  0  0  0  0
 20 47  1  0  0  0  0
 21 40  1  0  0  0  0
 22 23  2  0  0  0  0
 22 60  1  0  0  0  0
 23 31  1  0  0  0  0
 23 50  1  0  0  0  0
 24 84  1  0  0  0  0
 25 85  1  0  0  0  0
 26 28  2  0  0  0  0
 26 84  1  0  0  0  0
 27 86  1  0  0  0  0
 28 87  1  0  0  0  0
 29 67  2  0  0  0  0
 30 65  1  0  0  0  0
 30 68  1  0  0  0  0
 31 68  2  0  0  0  0
 31 74  1  0  0  0  0
 32 69  1  0  0  0  0
 32 72  1  0  0  0  0
 33 73  1  0  0  0  0
 33 79  2  0  0  0  0
 34 48  1  0  0  0  0
 34 75  1  0  0  0  0
 34 80  2  0  0  0  0
 35 62  1  0  0  0  0
 35 70  1  0  0  0  0
 35 81  2  0  0  0  0
 36 63  1  0  0  0  0
 36 76  1  0  0  0  0
 36 82  2  0  0  0  0
 37 71  1  0  0  0  0
 37 74  1  0  0  0  0
 37 83  2  0  0  0  0
 38 41  1  0  0  0  0
 39 48  1  0  0  0  0
 40 70  1  0  0  0  0
 41 43  1  0  0  0  0
 42 44  1  0  0  0  0
 42 45  1  0  0  0  0
 43 47  1  0  0  0  0
 44 49  1  0  0  0  0
 45 71  1  0  0  0  0
 46 49  1  0  0  0  0
 46 71  1  0  0  0  0
 47 75  1  0  0  0  0
 48 70  1  0  0  0  0
 49 69  1  0  0  0  0
 51 63  1  0  0  0  0
 52 64  1  0  0  0  0
 53 65  1  0  0  0  0
 54 65  1  0  0  0  0
 55 65  1  0  0  0  0
 56 66  1  0  0  0  0
 57 66  1  0  0  0  0
 58 66  1  0  0  0  0
 59 77  1  0  0  0  0
 60 78  1  0  0  0  0
 61 64  1  0  0  0  0
 61 85  1  0  0  0  0
 62 66  1  0  0  0  0
 62 76  1  0  0  0  0
 63 77  1  0  0  0  0
 64 78  1  0  0  0  0
 67 69  1  0  0  0  0
M  CHG  2  77   1  78   1
M  ISO  4  37 100  61 101  74 100  85 101
M  END
> <Batch ID>
0016

> <Smiles>
CNC(C)C(=O)NC(C(=O)N1Cc2cc([101O:1][101CH2:1]C(C)NCc3cc(C(C)(C)C)nc([100NH:0][100C:0](=O)N4CCCC(n5nc(-c6ccc(Oc7ccc(F)cc7F)cc6)c(C(N)=O)c5N)C4)c3C)ccc2CC1C(=O)NC1CCCc2ccccc21)C(C)(C)C

> <Shape>
0.280

> <Color>
0.190

> <Negative vol penalty>
0.000

$$$$

  -OEChem-04052315583D

 84 92  0     1  0  0  0  0  0999 V2000
  -24.4868  -31.7053   20.5258 C   0  0  0  0  0  0  0  0  0  0  0  0
  -25.5349  -30.8509   20.8526 C   0  0  0  0  0  0  0  0  0  0  0  0
  -22.9872   -9.8223   20.0485 C   0  0  0  0  0  0  0  0  0  0  0  0
  -23.6175  -10.0543   22.3693 C   0  0  0  0  0  0  0  0  0  0  0  0
  -23.3206  -31.7001   21.2898 C   0  0  0  0  0  0  0  0  0  0  0  0
  -25.4178  -29.9914   21.9444 C   0  0  0  0  0  0  0  0  0  0  0  0
  -27.0290  -25.3036   20.9083 C   0  0  0  0  0  0  0  0  0  0  0  0
  -22.1977   -8.7192   20.3731 C   0  0  0  0  0  0  0  0  0  0  0  0
  -22.8279   -8.9512   22.6939 C   0  0  0  0  0  0  0  0  0  0  0  0
  -28.4069  -25.0916   20.8985 C   0  0  0  0  0  0  0  0  0  0  0  0
  -23.0540   -5.5832   22.5037 C   0  0  0  0  0  0  0  0  0  0  0  0
  -23.5986   -4.6258   23.3594 C   0  0  0  0  0  0  0  0  0  0  0  0
  -28.2729  -24.1569   23.1183 C   0  0  0  0  0  0  0  0  0  0  0  0
  -31.2392  -17.4720   20.3528 C   0  0  0  0  0  0  0  0  0  0  0  0
  -21.8100   -5.0173   24.9358 C   0  0  0  0  0  0  0  0  0  0  0  0
  -23.6972  -10.4899   21.0465 C   0  0  0  0  0  0  0  0  0  0  0  0
  -24.1176  -12.9798   20.6844 C   0  0  0  0  0  0  0  0  0  0  0  0
  -23.1852  -30.8333   22.3857 C   0  0  0  0  0  0  0  0  0  0  0  0
  -26.2629  -24.9533   22.0294 C   0  0  0  0  0  0  0  0  0  0  0  0
  -24.2491  -29.9756   22.7246 C   0  0  0  0  0  0  0  0  0  0  0  0
  -26.8850  -24.3632   23.1389 C   0  0  0  0  0  0  0  0  0  0  0  0
  -31.4623  -18.8415   20.2112 C   0  0  0  0  0  0  0  0  0  0  0  0
  -29.5239  -17.9210   21.9939 C   0  0  0  0  0  0  0  0  0  0  0  0
  -29.7470  -19.2906   21.8523 C   0  0  0  0  0  0  0  0  0  0  0  0
  -30.2700  -17.0117   21.2441 C   0  0  0  0  0  0  0  0  0  0  0  0
  -30.7162  -19.7509   20.9609 C   0  0  0  0  0  0  0  0  0  0  0  0
  -22.1180   -8.2837   21.6958 C   0  0  0  0  0  0  0  0  0  0  0  0
  -29.0295  -24.5208   22.0047 C   0  0  0  0  0  0  0  0  0  0  0  0
  -21.8874   -6.2578   22.8640 C   0  0  0  0  0  0  0  0  0  0  0  0
  -22.9766   -4.3428   24.5755 C   0  0  0  0  0  0  0  0  0  0  0  0
  -21.2654   -5.9748   24.0801 C   0  0  0  0  0  0  0  0  0  0  0  0
  -24.5134  -11.6291   20.7117 C   0  0  0  0  0  0  0  0  0  0  0  0
  -25.2494  -13.6617   20.3097 C   0  0  0  0  0  0  0  0  0  0  0  0
  -22.8410  -13.5657   20.9720 C   0  0  0  0  0  0  0  0  0  0  0  0
  -24.4492  -26.5498   24.0947 C   0  0  0  0  0  0  0  0  0  0  0  0
  -23.7495  -23.5749   25.1823 C   0  0  0  0  0  0  0  0  0  0  0  0
  -24.6762  -20.3030   25.4700 C   0  0  0  0  0  0  0  0  0  0  0  0
  -30.7251  -14.5956   20.6949 C   0  0  0  0  0  0  0  0  0  0  0  0
  -21.9241  -30.8971   23.2104 C   0  0  0  0  0  0  0  0  0  0  0  0
  -24.7737  -25.1640   22.0138 C   0  0  0  0  0  0  0  0  0  0  0  0
  -26.1047  -23.9506   24.3592 C   0  0  0  0  0  0  0  0  0  0  0  0
  -21.7328  -29.6902   24.1252 C   0  0  0  0  0  0  0  0  0  0  0  0
  -29.6760  -11.9710   18.5297 C   0  0  0  0  0  0  0  0  0  0  0  0
  -23.0273  -29.3719   24.8667 C   0  0  0  0  0  0  0  0  0  0  0  0
  -28.2068  -11.7592   18.9021 C   0  0  0  0  0  0  0  0  0  0  0  0
  -30.5287  -12.3046   19.7526 C   0  0  0  0  0  0  0  0  0  0  0  0
  -28.5690  -13.2141   20.9366 C   0  0  0  0  0  0  0  0  0  0  0  0
  -24.1501  -29.0111   23.8866 C   0  0  1  0  0  0  0  0  0  0  0  0
  -24.1666  -25.2419   23.4112 C   0  0  1  0  0  0  0  0  0  0  0  0
  -27.6590  -12.9395   19.7282 C   0  0  2  0  0  0  0  0  0  0  0  0
  -32.5074  -19.3042   19.2485 C   0  0  0  0  0  0  0  0  0  0  0  0
  -28.4834  -17.4302   22.9518 C   0  0  0  0  0  0  0  0  0  0  0  0
  -28.9446  -20.2640   22.6584 C   0  0  0  0  0  0  0  0  0  0  0  0
  -23.9170  -18.1191   26.4454 C   0  0  0  0  0  0  0  0  0  0  0  0
  -24.5685  -24.5339   27.9607 C   0  0  0  0  0  0  0  0  0  0  0  0
  -24.7056  -22.1372   28.6713 C   0  0  0  0  0  0  0  0  0  0  0  0
  -22.5275  -23.0895   27.9153 C   0  0  0  0  0  0  0  0  0  0  0  0
  -24.5731  -19.0165   22.8067 C   0  0  0  0  0  0  0  0  0  0  0  0
  -32.2172  -23.1882   20.9504 C   0  0  0  0  0  0  0  0  0  0  0  0
  -31.8919  -21.8536   21.6103 C   0  0  0  0  0  0  0  0  0  0  0  0
  -30.9863  -24.0605   20.7338 C   0  0  0  0  0  0  0  0  0  1  0  0
  -24.3440  -22.6464   26.2135 C   0  0  1  0  0  0  0  0  0  0  0  0
  -23.9149  -19.0144   25.2162 C   0  0  2  0  0  0  0  0  0  0  0  0
  -24.0517  -23.1112   27.6681 C   0  0  0  0  0  0  0  0  0  0  0  0
  -25.7964  -11.4609   20.3806 N   0  0  0  0  0  0  0  0  0  0  0  0
  -26.2166  -12.7148   20.1416 N   0  0  0  0  0  0  0  0  0  0  0  0
  -24.6522  -24.1829   24.2983 N   0  0  0  0  0  0  0  0  0  0  0  0
  -29.9513  -13.4348   20.4835 N   0  0  0  0  0  0  0  0  0  0  0  0
  -25.5018  -14.9729   20.1109 N   0  0  0  0  0  0  0  0  0  0  0  0
  -21.7861  -12.7204   21.3422 N   0  0  0  0  0  0  0  0  0  0  0  0
  -30.0598  -15.6164   21.3731 N   0  0  0  0  0  0  0  0  0  0  0  0
  -30.9400  -21.1115   20.8195 N   0  0  0  0  0  0  0  0  0  0  0  0
  -23.9863  -27.6555   23.4072 N   0  0  0  0  0  0  0  0  0  0  0  0
  -23.8417  -21.3130   25.9000 N   0  0  0  0  0  0  0  0  0  0  0  0
  -24.5309  -18.2629   24.0863 N   0  3  0  0  0  0  0  0  0  0  0  0
  -22.6374  -14.8005   20.8869 O   0  0  0  0  0  0  0  0  0  0  0  0
  -25.0420  -26.5553   25.1672 O   0  0  0  0  0  0  0  0  0  0  0  0
  -22.5285  -23.7487   25.1573 O   0  0  0  0  0  0  0  0  0  0  0  0
  -25.8903  -20.4026   25.3070 O   0  0  0  0  0  0  0  0  0  0  0  0
  -31.8829  -14.6883   20.2793 O   0  0  0  0  0  0  0  0  0  0  0  0
  -21.3475   -7.2075   22.0130 O   0  0  0  0  0  0  0  0  0  0  0  0
  -30.3744  -24.3134   21.9979 O   0  0  0  0  0  0  0  0  0  1  0  0
  -23.4989   -3.4222   25.3964 F   0  0  0  0  0  0  0  0  0  0  0  0
  -20.1439   -6.6187   24.4312 F   0  0  0  0  0  0  0  0  0  0  0  0
  1  2  1  0  0  0  0
  1  5  2  0  0  0  0
  2  6  2  0  0  0  0
  3  8  2  0  0  0  0
  3 16  1  0  0  0  0
  4  9  1  0  0  0  0
  4 16  2  0  0  0  0
  5 18  1  0  0  0  0
  6 20  1  0  0  0  0
  7 10  2  0  0  0  0
  7 19  1  0  0  0  0
  8 27  1  0  0  0  0
  9 27  2  0  0  0  0
 10 28  1  0  0  0  0
 11 12  2  0  0  0  0
 11 29  1  0  0  0  0
 12 30  1  0  0  0  0
 13 21  1  0  0  0  0
 13 28  2  0  0  0  0
 14 22  2  0  0  0  0
 14 25  1  0  0  0  0
 15 30  2  0  0  0  0
 15 31  1  0  0  0  0
 16 32  1  0  0  0  0
 17 32  1  0  0  0  0
 17 33  2  0  0  0  0
 17 34  1  0  0  0  0
 18 20  2  0  0  0  0
 18 39  1  0  0  0  0
 19 21  2  0  0  0  0
 19 40  1  0  0  0  0
 20 48  1  0  0  0  0
 21 41  1  0  0  0  0
 22 26  1  0  0  0  0
 22 51  1  0  0  0  0
 23 24  1  0  0  0  0
 23 25  2  0  0  0  0
 23 52  1  0  0  0  0
 24 26  2  0  0  0  0
 24 53  1  0  0  0  0
 25 71  1  0  0  0  0
 26 72  1  0  0  0  0
 27 81  1  0  0  0  0
 28 82  1  0  0  0  0
 29 31  2  0  0  0  0
 29 81  1  0  0  0  0
 30 83  1  0  0  0  0
 31 84  1  0  0  0  0
 32 65  2  0  0  0  0
 33 66  1  0  0  0  0
 33 69  1  0  0  0  0
 34 70  1  0  0  0  0
 34 76  2  0  0  0  0
 35 49  1  0  0  0  0
 35 73  1  0  0  0  0
 35 77  2  0  0  0  0
 36 62  1  0  0  0  0
 36 67  1  0  0  0  0
 36 78  2  0  0  0  0
 37 63  1  0  0  0  0
 37 74  1  0  0  0  0
 37 79  2  0  0  0  0
 38 68  1  0  0  0  0
 38 71  1  0  0  0  0
 38 80  2  0  0  0  0
 39 42  1  0  0  0  0
 40 49  1  0  0  0  0
 41 67  1  0  0  0  0
 42 44  1  0  0  0  0
 43 45  1  0  0  0  0
 43 46  1  0  0  0  0
 44 48  1  0  0  0  0
 45 50  1  0  0  0  0
 46 68  1  0  0  0  0
 47 50  1  0  0  0  0
 47 68  1  0  0  0  0
 48 73  1  0  0  0  0
 49 67  1  0  0  0  0
 50 66  1  0  0  0  0
 54 63  1  0  0  0  0
 55 64  1  0  0  0  0
 56 64  1  0  0  0  0
 57 64  1  0  0  0  0
 58 75  1  0  0  0  0
 59 60  1  0  0  0  0
 59 61  1  0  0  0  0
 60 72  1  0  0  0  0
 61 82  1  0  0  0  0
 62 64  1  0  0  0  0
 62 74  1  0  0  0  0
 63 75  1  0  0  0  0
 65 66  1  0  0  0  0
M  CHG  1  75   1
M  ISO  4  38 100  61 101  71 100  82 101
M  END
> <Batch ID>
0016

> <Smiles>
CNC(C)C(=O)NC(C(=O)N1Cc2cc([101O:1][101CH2:1]CCNc3c(C)cc([100NH:0][100C:0](=O)N4CCCC(n5nc(-c6ccc(Oc7ccc(F)cc7F)cc6)c(C(N)=O)c5N)C4)c(C)c3C)ccc2CC1C(=O)NC1CCCc2ccccc21)C(C)(C)C

> <Shape>
0.245

> <Color>
0.202

> <Negative vol penalty>
0.000

$$$$

  -OEChem-04052315583D

 88 96  0     1  0  0  0  0  0999 V2000
  -27.7295  -24.5369   17.0117 C   0  0  0  0  0  0  0  0  0  0  0  0
  -26.5473  -24.8313   17.6832 C   0  0  0  0  0  0  0  0  0  0  0  0
  -25.4249  -16.7736   23.2273 C   0  0  0  0  0  0  0  0  0  0  0  0
  -23.5373  -17.3467   21.8324 C   0  0  0  0  0  0  0  0  0  0  0  0
  -28.9495  -24.9736   17.5263 C   0  0  0  0  0  0  0  0  0  0  0  0
  -26.5845  -25.5618   18.8704 C   0  0  0  0  0  0  0  0  0  0  0  0
  -23.0497  -29.1844   19.0340 C   0  0  0  0  0  0  0  0  0  0  0  0
  -25.8063  -15.7952   22.3093 C   0  0  0  0  0  0  0  0  0  0  0  0
  -23.9188  -16.3683   20.9143 C   0  0  0  0  0  0  0  0  0  0  0  0
  -21.7453  -28.7885   19.3269 C   0  0  0  0  0  0  0  0  0  0  0  0
  -27.3955  -15.6612   19.3278 C   0  0  0  0  0  0  0  0  0  0  0  0
  -28.7447  -15.5876   18.9818 C   0  0  0  0  0  0  0  0  0  0  0  0
  -22.0498  -29.4974   21.6125 C   0  0  0  0  0  0  0  0  0  0  0  0
  -15.9411  -22.2871   23.4120 C   0  0  0  0  0  0  0  0  0  0  0  0
  -28.8331  -13.3193   19.8088 C   0  0  0  0  0  0  0  0  0  0  0  0
  -24.2904  -17.5494   22.9889 C   0  0  0  0  0  0  0  0  0  0  0  0
  -24.2923  -19.9104   23.9549 C   0  0  0  0  0  0  0  0  0  0  0  0
  -29.0009  -25.7181   18.7153 C   0  0  0  0  0  0  0  0  0  0  0  0
  -23.8689  -29.7306   20.0325 C   0  0  0  0  0  0  0  0  0  0  0  0
  -27.8064  -26.0077   19.4021 C   0  0  0  0  0  0  0  0  0  0  0  0
  -23.3633  -29.9018   21.3291 C   0  0  0  0  0  0  0  0  0  0  0  0
  -16.1789  -20.9388   23.1456 C   0  0  0  0  0  0  0  0  0  0  0  0
  -16.4083  -20.5116   25.5125 C   0  0  0  0  0  0  0  0  0  0  0  0
  -15.9369  -22.7478   24.7287 C   0  0  0  0  0  0  0  0  0  0  0  0
  -25.0532  -15.5926   21.1528 C   0  0  0  0  0  0  0  0  0  0  0  0
  -21.2461  -28.9423   20.6169 C   0  0  0  0  0  0  0  0  0  0  0  0
  -26.7650  -14.5638   19.9144 C   0  0  0  0  0  0  0  0  0  0  0  0
  -29.4636  -14.4167   19.2223 C   0  0  0  0  0  0  0  0  0  0  0  0
  -27.4839  -13.3929   20.1549 C   0  0  0  0  0  0  0  0  0  0  0  0
  -16.4125  -20.0510   24.1958 C   0  0  0  0  0  0  0  0  0  0  0  0
  -16.1705  -21.8600   25.7789 C   0  0  0  0  0  0  0  0  0  0  0  0
  -23.8955  -18.5598   23.9372 C   0  0  0  0  0  0  0  0  0  0  0  0
  -23.6478  -20.4433   25.0445 C   0  0  0  0  0  0  0  0  0  0  0  0
  -25.1653  -20.6198   23.0659 C   0  0  0  0  0  0  0  0  0  0  0  0
  -26.6192  -28.8898   21.3862 C   0  0  0  0  0  0  0  0  0  0  0  0
  -26.3348  -31.7739   22.8435 C   0  0  0  0  0  0  0  0  0  0  0  0
  -24.2954  -34.3003   23.8948 C   0  0  0  0  0  0  0  0  0  0  0  0
  -18.6525  -18.9215   27.9741 C   0  0  0  0  0  0  0  0  0  0  0  0
  -30.3472  -26.1278   19.2576 C   0  0  0  0  0  0  0  0  0  0  0  0
  -25.2647  -30.1774   19.6941 C   0  0  0  0  0  0  0  0  0  0  0  0
  -24.1954  -30.5016   22.4320 C   0  0  0  0  0  0  0  0  0  0  0  0
  -30.2684  -27.2179   20.3234 C   0  0  0  0  0  0  0  0  0  0  0  0
  -21.9261  -19.2291   29.3401 C   0  0  0  0  0  0  0  0  0  0  0  0
  -29.1838  -26.8890   21.3443 C   0  0  0  0  0  0  0  0  0  0  0  0
  -22.8378  -19.2143   28.1119 C   0  0  0  0  0  0  0  0  0  0  0  0
  -20.7310  -18.2944   29.1671 C   0  0  0  0  0  0  0  0  0  0  0  0
  -20.8519  -18.5055   26.7146 C   0  0  0  0  0  0  0  0  0  0  0  0
  -27.8036  -26.8189   20.6796 C   0  0  1  0  0  0  0  0  0  0  0  0
  -26.1816  -30.2465   20.9114 C   0  0  1  0  0  0  0  0  0  0  0  0
  -22.0415  -19.4752   26.8192 C   0  0  2  0  0  0  0  0  0  0  0  0
  -16.1724  -20.4907   21.7191 C   0  0  0  0  0  0  0  0  0  0  0  0
  -24.3480  -36.5071   25.0883 C   0  0  0  0  0  0  0  0  0  0  0  0
  -26.6843  -30.3233   25.5050 C   0  0  0  0  0  0  0  0  0  0  0  0
  -25.7943  -32.3622   26.6536 C   0  0  0  0  0  0  0  0  0  0  0  0
  -27.9069  -32.4983   25.3340 C   0  0  0  0  0  0  0  0  0  0  0  0
  -14.3244  -24.5848   25.1590 C   0  0  0  0  0  0  0  0  0  0  0  0
  -23.2125  -35.7306   21.5410 C   0  0  0  0  0  0  0  0  0  0  0  0
  -16.6579  -19.5567   26.6411 C   0  0  0  0  0  0  0  0  0  0  0  0
  -18.2800  -26.5819   23.6390 C   0  0  0  0  0  0  0  0  0  0  0  0
  -17.1072  -25.5966   23.6304 C   0  0  0  0  0  0  0  0  0  0  0  0
  -18.5778  -27.1003   22.2332 C   0  0  0  0  0  0  0  0  0  0  0  0
  -16.7735  -25.0660   25.0221 C   0  0  0  0  0  0  0  0  0  0  0  0
  -19.7157  -28.1126   22.2372 C   0  0  0  0  0  0  0  0  0  1  0  0
  -25.7005  -32.2683   24.1211 C   0  0  1  0  0  0  0  0  0  0  0  0
  -24.3961  -35.8069   23.7392 C   0  0  2  0  0  0  0  0  0  0  0  0
  -26.5062  -31.8499   25.3833 C   0  0  0  0  0  0  0  0  0  0  0  0
  -23.0636  -18.2536   24.9363 N   0  0  0  0  0  0  0  0  0  0  0  0
  -22.9324  -19.4193   25.5920 N   0  0  0  0  0  0  0  0  0  0  0  0
  -25.5559  -30.9172   22.0529 N   0  0  0  0  0  0  0  0  0  0  0  0
  -20.0178  -18.5953   27.9234 N   0  0  0  0  0  0  0  0  0  0  0  0
  -23.6291  -21.6832   25.5781 N   0  0  0  0  0  0  0  0  0  0  0  0
  -25.7432  -19.9204   21.9977 N   0  0  0  0  0  0  0  0  0  0  0  0
  -27.2932  -28.1505   20.4331 N   0  0  0  0  0  0  0  0  0  0  0  0
  -25.5395  -33.7099   23.9656 N   0  0  0  0  0  0  0  0  0  0  0  0
  -18.0546  -19.1990   26.7509 N   0  0  0  0  0  0  0  0  0  0  0  0
  -15.6948  -24.1094   24.9602 N   0  0  3  0  0  0  0  0  0  0  0  0
  -23.2722  -36.3177   22.9043 N   0  3  0  0  0  0  0  0  0  0  0  0
  -25.4380  -21.8340   23.2240 O   0  0  0  0  0  0  0  0  0  0  0  0
  -26.3655  -28.5403   22.5330 O   0  0  0  0  0  0  0  0  0  0  0  0
  -27.4766  -32.1402   22.5541 O   0  0  0  0  0  0  0  0  0  0  0  0
  -23.2207  -33.7068   23.9518 O   0  0  0  0  0  0  0  0  0  0  0  0
  -18.0151  -18.9675   29.0317 O   0  0  0  0  0  0  0  0  0  0  0  0
  -25.4253  -14.6381   20.2566 O   0  0  0  0  0  0  0  0  0  0  0  0
  -19.9736  -28.5562   20.9056 O   0  0  0  0  0  0  0  0  0  1  0  0
  -30.7588  -14.3457   18.8886 F   0  0  0  0  0  0  0  0  0  0  0  0
  -26.8834  -12.3349   20.7170 F   0  0  0  0  0  0  0  0  0  0  0  0
  -16.7050  -18.3768   23.8575 Cl  0  0  0  0  0  0  0  0  0  0  0  0
  -16.1665  -22.4347   27.4159 Cl  0  0  0  0  0  0  0  0  0  0  0  0
  1  2  1  0  0  0  0
  1  5  2  0  0  0  0
  2  6  2  0  0  0  0
  3  8  2  0  0  0  0
  3 16  1  0  0  0  0
  4  9  1  0  0  0  0
  4 16  2  0  0  0  0
  5 18  1  0  0  0  0
  6 20  1  0  0  0  0
  7 10  2  0  0  0  0
  7 19  1  0  0  0  0
  8 25  1  0  0  0  0
  9 25  2  0  0  0  0
 10 26  1  0  0  0  0
 11 12  2  0  0  0  0
 11 27  1  0  0  0  0
 12 28  1  0  0  0  0
 13 21  1  0  0  0  0
 13 26  2  0  0  0  0
 14 22  2  0  0  0  0
 14 24  1  0  0  0  0
 15 28  2  0  0  0  0
 15 29  1  0  0  0  0
 16 32  1  0  0  0  0
 17 32  1  0  0  0  0
 17 33  2  0  0  0  0
 17 34  1  0  0  0  0
 18 20  2  0  0  0  0
 18 39  1  0  0  0  0
 19 21  2  0  0  0  0
 19 40  1  0  0  0  0
 20 48  1  0  0  0  0
 21 41  1  0  0  0  0
 22 30  1  0  0  0  0
 22 51  1  0  0  0  0
 23 30  2  0  0  0  0
 23 31  1  0  0  0  0
 23 58  1  0  0  0  0
 24 31  2  0  0  0  0
 24 76  1  0  0  0  0
 25 83  1  0  0  0  0
 26 84  1  0  0  0  0
 27 29  2  0  0  0  0
 27 83  1  0  0  0  0
 28 85  1  0  0  0  0
 29 86  1  0  0  0  0
 30 87  1  0  0  0  0
 31 88  1  0  0  0  0
 32 67  2  0  0  0  0
 33 68  1  0  0  0  0
 33 71  1  0  0  0  0
 34 72  1  0  0  0  0
 34 78  2  0  0  0  0
 35 49  1  0  0  0  0
 35 73  1  0  0  0  0
 35 79  2  0  0  0  0
 36 64  1  0  0  0  0
 36 69  1  0  0  0  0
 36 80  2  0  0  0  0
 37 65  1  0  0  0  0
 37 74  1  0  0  0  0
 37 81  2  0  0  0  0
 38 70  1  0  0  0  0
 38 75  1  0  0  0  0
 38 82  2  0  0  0  0
 39 42  1  0  0  0  0
 40 49  1  0  0  0  0
 41 69  1  0  0  0  0
 42 44  1  0  0  0  0
 43 45  1  0  0  0  0
 43 46  1  0  0  0  0
 44 48  1  0  0  0  0
 45 50  1  0  0  0  0
 46 70  1  0  0  0  0
 47 50  1  0  0  0  0
 47 70  1  0  0  0  0
 48 73  1  0  0  0  0
 49 69  1  0  0  0  0
 50 68  1  0  0  0  0
 52 65  1  0  0  0  0
 53 66  1  0  0  0  0
 54 66  1  0  0  0  0
 55 66  1  0  0  0  0
 56 76  1  0  0  0  0
 57 77  1  0  0  0  0
 58 75  1  0  0  0  0
 59 60  1  0  0  0  0
 59 61  1  0  0  0  0
 60 62  1  0  0  0  0
 61 63  1  0  0  0  0
 62 76  1  0  0  0  0
 63 84  1  0  0  0  0
 64 66  1  0  0  0  0
 64 74  1  0  0  0  0
 65 77  1  0  0  0  0
 67 68  1  0  0  0  0
M  CHG  1  77   1
M  ISO  4  38 100  63 101  75 100  84 101
M  END
> <Batch ID>
0016

> <Smiles>
CNC(C)C(=O)NC(C(=O)N1Cc2cc([101O:1][101CH2:1]CCCCN(C)c3cc(C)c(Cl)c(C[100NH:0][100C:0](=O)N4CCCC(n5nc(-c6ccc(Oc7ccc(F)cc7F)cc6)c(C(N)=O)c5N)C4)c3Cl)ccc2CC1C(=O)NC1CCCc2ccccc21)C(C)(C)C

> <Shape>
0.241

> <Color>
0.069

> <Negative vol penalty>
0.000

$$$$

  -OEChem-04052315583D

 92100  0     1  0  0  0  0  0999 V2000
  -29.1762  -25.5269   16.2260 C   0  0  0  0  0  0  0  0  0  0  0  0
  -27.9957  -25.4727   16.9600 C   0  0  0  0  0  0  0  0  0  0  0  0
  -29.1803  -12.0411   20.8920 C   0  0  0  0  0  0  0  0  0  0  0  0
  -27.9955  -14.1400   20.7255 C   0  0  0  0  0  0  0  0  0  0  0  0
  -30.2812  -26.2083   16.7345 C   0  0  0  0  0  0  0  0  0  0  0  0
  -27.9198  -26.0990   18.2036 C   0  0  0  0  0  0  0  0  0  0  0  0
  -23.6317  -28.7266   18.7972 C   0  0  0  0  0  0  0  0  0  0  0  0
  -30.3636  -12.6795   20.5209 C   0  0  0  0  0  0  0  0  0  0  0  0
  -29.1788  -14.7786   20.3545 C   0  0  0  0  0  0  0  0  0  0  0  0
  -22.4785  -28.0036   19.0991 C   0  0  0  0  0  0  0  0  0  0  0  0
  -31.9603  -17.0304   19.7136 C   0  0  0  0  0  0  0  0  0  0  0  0
  -32.2567  -18.2515   20.3192 C   0  0  0  0  0  0  0  0  0  0  0  0
  -22.7259  -28.5918   21.4255 C   0  0  0  0  0  0  0  0  0  0  0  0
  -18.8385  -12.7716   17.2838 C   0  0  0  0  0  0  0  0  0  0  0  0
  -32.2544  -17.1784   22.4839 C   0  0  0  0  0  0  0  0  0  0  0  0
  -27.9962  -12.7713   20.9942 C   0  0  0  0  0  0  0  0  0  0  0  0
  -26.2756  -11.9350   22.6818 C   0  0  0  0  0  0  0  0  0  0  0  0
  -30.2158  -26.8514   17.9806 C   0  0  0  0  0  0  0  0  0  0  0  0
  -24.3480  -29.3797   19.8106 C   0  0  0  0  0  0  0  0  0  0  0  0
  -29.0255  -26.7885   18.7299 C   0  0  0  0  0  0  0  0  0  0  0  0
  -23.8865  -29.3246   21.1335 C   0  0  0  0  0  0  0  0  0  0  0  0
  -18.0817  -13.9671   17.2124 C   0  0  0  0  0  0  0  0  0  0  0  0
  -30.3629  -14.0483   20.2522 C   0  0  0  0  0  0  0  0  0  0  0  0
  -22.0271  -27.9337   20.4138 C   0  0  0  0  0  0  0  0  0  0  0  0
  -31.8109  -15.8833   20.4932 C   0  0  0  0  0  0  0  0  0  0  0  0
  -32.4037  -18.3255   21.7043 C   0  0  0  0  0  0  0  0  0  0  0  0
  -31.9580  -15.9574   21.8783 C   0  0  0  0  0  0  0  0  0  0  0  0
  -26.7734  -12.1122   21.3769 C   0  0  0  0  0  0  0  0  0  0  0  0
  -20.0237  -13.0723   17.9180 C   0  0  0  0  0  0  0  0  0  0  0  0
  -25.0944  -11.2556   22.5093 C   0  0  0  0  0  0  0  0  0  0  0  0
  -18.8276  -14.9621   17.8050 C   0  0  0  0  0  0  0  0  0  0  0  0
  -26.8312  -12.3477   23.9374 C   0  0  0  0  0  0  0  0  0  0  0  0
  -27.2884  -29.1365   20.9931 C   0  0  0  0  0  0  0  0  0  0  0  0
  -26.3976  -31.7463   22.7013 C   0  0  0  0  0  0  0  0  0  0  0  0
  -19.4190  -17.3981   18.0464 C   0  0  0  0  0  0  0  0  0  0  0  0
  -23.8701  -33.6123   24.0340 C   0  0  0  0  0  0  0  0  0  0  0  0
  -21.2362  -10.8646   17.9632 C   0  0  0  0  0  0  0  0  0  0  0  0
  -31.4513  -27.5355   18.5102 C   0  0  0  0  0  0  0  0  0  0  0  0
  -25.5751  -30.1777   19.4645 C   0  0  0  0  0  0  0  0  0  0  0  0
  -24.6079  -30.0249   22.2549 C   0  0  0  0  0  0  0  0  0  0  0  0
  -31.1700  -28.4903   19.6676 C   0  0  0  0  0  0  0  0  0  0  0  0
  -22.9477   -8.1706   19.5414 C   0  0  0  0  0  0  0  0  0  0  0  0
  -30.2528  -27.8310   20.6926 C   0  0  0  0  0  0  0  0  0  0  0  0
  -24.0740   -8.8601   20.3148 C   0  0  0  0  0  0  0  0  0  0  0  0
  -22.6778   -8.8547   18.2024 C   0  0  0  0  0  0  0  0  0  0  0  0
  -23.5616  -10.9903   19.0552 C   0  0  0  0  0  0  0  0  0  0  0  0
  -28.8963  -27.4763   20.0716 C   0  0  1  0  0  0  0  0  0  0  0  0
  -26.5126  -30.3771   20.6515 C   0  0  1  0  0  0  0  0  0  0  0  0
  -23.8260  -10.3762   20.4396 C   0  0  2  0  0  0  0  0  0  0  0  0
  -23.4545  -35.6693   25.4101 C   0  0  0  0  0  0  0  0  0  0  0  0
  -16.2159  -12.7495   16.0369 C   0  0  0  0  0  0  0  0  0  0  0  0
  -16.7386  -15.1358   15.4300 C   0  0  0  0  0  0  0  0  0  0  0  0
  -15.6041  -14.6029   17.5772 C   0  0  0  0  0  0  0  0  0  0  0  0
  -27.2281  -30.2294   25.2151 C   0  0  0  0  0  0  0  0  0  0  0  0
  -25.9370  -31.8974   26.5639 C   0  0  0  0  0  0  0  0  0  0  0  0
  -27.8808  -32.6435   25.1899 C   0  0  0  0  0  0  0  0  0  0  0  0
  -21.0707  -15.1204   18.9061 C   0  0  0  0  0  0  0  0  0  0  0  0
  -22.3501  -34.9075   21.8497 C   0  0  0  0  0  0  0  0  0  0  0  0
  -18.8767  -18.5057   18.9416 C   0  0  0  0  0  0  0  0  0  0  0  0
  -19.8008  -19.7175   19.0560 C   0  0  0  0  0  0  0  0  0  0  0  0
  -19.2195  -20.8103   19.9583 C   0  0  0  0  0  0  0  0  0  0  0  0
  -20.1508  -22.0220   20.0324 C   0  0  0  0  0  0  0  0  0  0  0  0
  -19.5866  -23.1006   20.9586 C   0  0  0  0  0  0  0  0  0  0  0  0
  -20.4996  -24.3274   21.0067 C   0  0  0  0  0  0  0  0  0  0  0  0
  -19.9526  -25.3890   21.9655 C   0  0  0  0  0  0  0  0  0  0  0  0
  -20.8275  -26.6360   22.0053 C   0  0  0  0  0  0  0  0  0  1  0  0
  -25.7326  -31.9736   24.0373 C   0  0  1  0  0  0  0  0  0  0  0  0
  -23.5969  -35.1053   24.0049 C   0  0  2  0  0  0  0  0  0  0  0  0
  -16.7401  -14.1083   16.6112 C   0  0  0  0  0  0  0  0  0  0  0  0
  -26.6819  -31.6711   25.2310 C   0  0  0  0  0  0  0  0  0  0  0  0
  -25.9739  -11.5876   20.4444 N   0  0  0  0  0  0  0  0  0  0  0  0
  -20.0062  -14.4067   18.2300 N   0  0  0  0  0  0  0  0  0  0  0  0
  -24.9619  -11.0739   21.1641 N   0  0  0  0  0  0  0  0  0  0  0  0
  -25.8062  -30.7872   21.8669 N   0  0  0  0  0  0  0  0  0  0  0  0
  -22.4477  -10.2876   18.3993 N   0  0  0  0  0  0  0  0  0  0  0  0
  -24.1667  -10.8017   23.3787 N   0  0  0  0  0  0  0  0  0  0  0  0
  -28.0522  -13.0357   23.9340 N   0  0  0  0  0  0  0  0  0  0  0  0
  -18.5256  -16.3320   17.9915 N   0  0  0  0  0  0  0  0  0  0  0  0
  -21.1165  -12.2274   18.2335 N   0  0  0  0  0  0  0  0  0  0  0  0
  -28.0682  -28.6576   19.9577 N   0  0  0  0  0  0  0  0  0  0  0  0
  -25.2216  -33.3398   24.0117 N   0  0  0  0  0  0  0  0  0  0  0  0
  -22.3400  -35.3875   23.2556 N   0  3  0  0  0  0  0  0  0  0  0  0
  -26.2698  -12.0988   25.0313 O   0  0  0  0  0  0  0  0  0  0  0  0
  -27.1882  -28.6506   22.1136 O   0  0  0  0  0  0  0  0  0  0  0  0
  -27.4006  -32.4008   22.4058 O   0  0  0  0  0  0  0  0  0  0  0  0
  -20.5111  -17.4821   17.4945 O   0  0  0  0  0  0  0  0  0  0  0  0
  -22.9742  -32.7720   24.0763 O   0  0  0  0  0  0  0  0  0  0  0  0
  -20.3575  -10.1932   17.4165 O   0  0  0  0  0  0  0  0  0  0  0  0
  -31.5175  -14.6717   19.8903 O   0  0  0  0  0  0  0  0  0  0  0  0
  -20.8936  -27.2228   20.7135 O   0  0  0  0  0  0  0  0  0  1  0  0
  -32.6899  -19.4979   22.2856 F   0  0  0  0  0  0  0  0  0  0  0  0
  -31.8168  -14.8586   22.6323 F   0  0  0  0  0  0  0  0  0  0  0  0
  1  2  1  0  0  0  0
  1  5  2  0  0  0  0
  2  6  2  0  0  0  0
  3  8  2  0  0  0  0
  3 16  1  0  0  0  0
  4  9  1  0  0  0  0
  4 16  2  0  0  0  0
  5 18  1  0  0  0  0
  6 20  1  0  0  0  0
  7 10  2  0  0  0  0
  7 19  1  0  0  0  0
  8 23  1  0  0  0  0
  9 23  2  0  0  0  0
 10 24  1  0  0  0  0
 11 12  2  0  0  0  0
 11 25  1  0  0  0  0
 12 26  1  0  0  0  0
 13 21  1  0  0  0  0
 13 24  2  0  0  0  0
 14 22  1  0  0  0  0
 14 29  2  0  0  0  0
 15 26  2  0  0  0  0
 15 27  1  0  0  0  0
 16 28  1  0  0  0  0
 17 28  1  0  0  0  0
 17 30  2  0  0  0  0
 17 32  1  0  0  0  0
 18 20  2  0  0  0  0
 18 38  1  0  0  0  0
 19 21  2  0  0  0  0
 19 39  1  0  0  0  0
 20 47  1  0  0  0  0
 21 40  1  0  0  0  0
 22 31  2  0  0  0  0
 22 69  1  0  0  0  0
 23 89  1  0  0  0  0
 24 90  1  0  0  0  0
 25 27  2  0  0  0  0
 25 89  1  0  0  0  0
 26 91  1  0  0  0  0
 27 92  1  0  0  0  0
 28 71  2  0  0  0  0
 29 72  1  0  0  0  0
 29 79  1  0  0  0  0
 30 73  1  0  0  0  0
 30 76  1  0  0  0  0
 31 72  1  0  0  0  0
 31 78  1  0  0  0  0
 32 77  1  0  0  0  0
 32 83  2  0  0  0  0
 33 48  1  0  0  0  0
 33 80  1  0  0  0  0
 33 84  2  0  0  0  0
 34 67  1  0  0  0  0
 34 74  1  0  0  0  0
 34 85  2  0  0  0  0
 35 59  1  0  0  0  0
 35 78  1  0  0  0  0
 35 86  2  0  0  0  0
 36 68  1  0  0  0  0
 36 81  1  0  0  0  0
 36 87  2  0  0  0  0
 37 75  1  0  0  0  0
 37 79  1  0  0  0  0
 37 88  2  0  0  0  0
 38 41  1  0  0  0  0
 39 48  1  0  0  0  0
 40 74  1  0  0  0  0
 41 43  1  0  0  0  0
 42 44  1  0  0  0  0
 42 45  1  0  0  0  0
 43 47  1  0  0  0  0
 44 49  1  0  0  0  0
 45 75  1  0  0  0  0
 46 49  1  0  0  0  0
 46 75  1  0  0  0  0
 47 80  1  0  0  0  0
 48 74  1  0  0  0  0
 49 73  1  0  0  0  0
 50 68  1  0  0  0  0
 51 69  1  0  0  0  0
 52 69  1  0  0  0  0
 53 69  1  0  0  0  0
 54 70  1  0  0  0  0
 55 70  1  0  0  0  0
 56 70  1  0  0  0  0
 57 72  1  0  0  0  0
 58 82  1  0  0  0  0
 59 60  1  0  0  0  0
 60 61  1  0  0  0  0
 61 62  1  0  0  0  0
 62 63  1  0  0  0  0
 63 64  1  0  0  0  0
 64 65  1  0  0  0  0
 65 66  1  0  0  0  0
 66 90  1  0  0  0  0
 67 70  1  0  0  0  0
 67 81  1  0  0  0  0
 68 82  1  0  0  0  0
 71 73  1  0  0  0  0
M  CHG  1  82   1
M  ISO  4  37 100  66 101  79 100  90 101
M  END
> <Batch ID>
0016

> <Smiles>
CNC(C)C(=O)NC(C(=O)N1Cc2cc([101O:1][101CH2:1]CCCCCCCC(=O)Nc3c(C(C)(C)C)cc([100NH:0][100C:0](=O)N4CCCC(n5nc(-c6ccc(Oc7ccc(F)cc7F)cc6)c(C(N)=O)c5N)C4)n3C)ccc2CC1C(=O)NC1CCCc2ccccc21)C(C)(C)C

> <Shape>
0.249

> <Color>
0.096

> <Negative vol penalty>
0.000

$$$$

  -OEChem-04052315583D

 96104  0     1  0  0  0  0  0999 V2000
  -23.2171  -35.5742   25.3703 C   0  0  0  0  0  0  0  0  0  0  0  0
  -23.7705  -34.9519   24.2559 C   0  0  0  0  0  0  0  0  0  0  0  0
  -23.7587   -9.8697   21.9888 C   0  0  0  0  0  0  0  0  0  0  0  0
  -24.4702  -11.2635   23.8294 C   0  0  0  0  0  0  0  0  0  0  0  0
  -23.6052  -35.1820   26.6508 C   0  0  0  0  0  0  0  0  0  0  0  0
  -24.7131  -33.9377   24.4213 C   0  0  0  0  0  0  0  0  0  0  0  0
  -23.8440  -29.9664   21.4017 C   0  0  0  0  0  0  0  0  0  0  0  0
  -23.2702   -8.9259   22.8922 C   0  0  0  0  0  0  0  0  0  0  0  0
  -23.9816  -10.3198   24.7329 C   0  0  0  0  0  0  0  0  0  0  0  0
  -24.2205  -30.0885   20.0649 C   0  0  0  0  0  0  0  0  0  0  0  0
  -24.5224   -6.4731   24.8519 C   0  0  0  0  0  0  0  0  0  0  0  0
  -24.8161   -5.1314   24.6086 C   0  0  0  0  0  0  0  0  0  0  0  0
  -26.2283  -28.8318   20.5219 C   0  0  0  0  0  0  0  0  0  0  0  0
  -22.4547   -4.6392   24.4720 C   0  0  0  0  0  0  0  0  0  0  0  0
  -24.3588  -11.0385   22.4574 C   0  0  0  0  0  0  0  0  0  0  0  0
  -24.1646  -13.1024   20.9706 C   0  0  0  0  0  0  0  0  0  0  0  0
  -24.5459  -34.1559   26.8321 C   0  0  0  0  0  0  0  0  0  0  0  0
  -24.6635  -29.2843   22.3125 C   0  0  0  0  0  0  0  0  0  0  0  0
  -25.1151  -33.5324   25.7053 C   0  0  0  0  0  0  0  0  0  0  0  0
  -25.8586  -28.7002   21.8691 C   0  0  0  0  0  0  0  0  0  0  0  0
  -23.3816   -9.1510   24.2643 C   0  0  0  0  0  0  0  0  0  0  0  0
  -25.4142  -29.5237   19.6254 C   0  0  0  0  0  0  0  0  0  0  0  0
  -23.1948   -6.8979   24.9053 C   0  0  0  0  0  0  0  0  0  0  0  0
  -23.7823   -4.2145   24.4186 C   0  0  0  0  0  0  0  0  0  0  0  0
  -22.1610   -5.9809   24.7154 C   0  0  0  0  0  0  0  0  0  0  0  0
  -30.9846  -18.6934   19.6921 C   0  0  0  0  0  0  0  0  0  0  0  0
  -24.8641  -12.0135   21.5246 C   0  0  0  0  0  0  0  0  0  0  0  0
  -30.7165  -20.0485   19.9633 C   0  0  0  0  0  0  0  0  0  0  0  0
  -25.0798  -13.7177   20.1520 C   0  0  0  0  0  0  0  0  0  0  0  0
  -29.7472  -18.0982   19.6602 C   0  0  0  0  0  0  0  0  0  0  0  0
  -22.8088  -13.5202   21.1776 C   0  0  0  0  0  0  0  0  0  0  0  0
  -26.2235  -30.0866   24.9632 C   0  0  0  0  0  0  0  0  0  0  0  0
  -26.8339  -26.9037   25.1017 C   0  0  0  0  0  0  0  0  0  0  0  0
  -27.1336  -23.9363   23.4430 C   0  0  0  0  0  0  0  0  0  0  0  0
  -30.2021  -15.6688   19.1730 C   0  0  0  0  0  0  0  0  0  0  0  0
  -24.9693  -33.7988   28.2349 C   0  0  0  0  0  0  0  0  0  0  0  0
  -24.2301  -29.1384   23.7454 C   0  0  0  0  0  0  0  0  0  0  0  0
  -26.7640  -27.9403   22.8026 C   0  0  0  0  0  0  0  0  0  0  0  0
  -25.6956  -32.4595   28.3295 C   0  0  0  0  0  0  0  0  0  0  0  0
  -29.6501  -12.1994   18.5935 C   0  0  0  0  0  0  0  0  0  0  0  0
  -26.7564  -32.3491   27.2389 C   0  0  0  0  0  0  0  0  0  0  0  0
  -28.2982  -11.9313   19.2588 C   0  0  0  0  0  0  0  0  0  0  0  0
  -30.4810  -13.2086   19.3840 C   0  0  0  0  0  0  0  0  0  0  0  0
  -28.4467  -14.2049   20.3524 C   0  0  0  0  0  0  0  0  0  0  0  0
  -26.1221  -32.4113   25.8442 C   0  0  1  0  0  0  0  0  0  0  0  0
  -25.3914  -28.8644   24.6960 C   0  0  1  0  0  0  0  0  0  0  0  0
  -27.5473  -13.2437   19.5581 C   0  0  2  0  0  0  0  0  0  0  0  0
  -26.7736  -18.8685   18.5994 C   0  0  0  0  0  0  0  0  0  0  0  0
  -27.6789  -21.5158   23.8188 C   0  0  0  0  0  0  0  0  0  0  0  0
  -28.0542  -33.8278   16.6887 C   0  0  0  0  0  0  0  0  0  0  0  0
  -28.7434  -32.7675   18.8738 C   0  0  0  0  0  0  0  0  0  0  0  0
  -25.8820  -32.3988   15.7347 C   0  0  0  0  0  0  0  0  0  0  0  0
  -29.7940  -27.6083   25.3283 C   0  0  0  0  0  0  0  0  0  0  0  0
  -30.3323  -25.2333   24.7467 C   0  0  0  0  0  0  0  0  0  0  0  0
  -29.0474  -25.7469   26.8223 C   0  0  0  0  0  0  0  0  0  0  0  0
  -24.4675  -23.0687   22.4954 C   0  0  0  0  0  0  0  0  0  0  0  0
  -30.0690  -26.8113   18.3034 C   0  0  0  0  0  0  0  0  0  0  0  0
  -30.3800  -25.3354   18.0487 C   0  0  0  0  0  0  0  0  0  0  0  0
  -29.6883  -27.5311   17.0085 C   0  0  0  0  0  0  0  0  0  0  0  0
  -30.7932  -24.6230   19.3386 C   0  0  0  0  0  0  0  0  0  0  0  0
  -29.4096  -29.0152   17.2578 C   0  0  0  0  0  0  0  0  0  0  0  0
  -31.0638  -23.1360   19.0887 C   0  0  0  0  0  0  0  0  0  0  0  0
  -29.0586  -29.7393   15.9549 C   0  0  0  0  0  0  0  0  0  0  0  0
  -27.4099  -18.9717   19.9749 C   0  0  0  0  0  0  0  0  0  0  0  0
  -31.4870  -22.3897   20.3516 C   0  0  0  0  0  0  0  0  0  0  0  0
  -28.7814  -31.2257   16.1432 C   0  0  0  0  0  0  0  0  0  0  0  0
  -25.3498  -30.8096   17.6258 C   0  0  0  0  0  0  0  0  0  1  0  0
  -27.9211  -25.9996   24.5730 C   0  0  1  0  0  0  0  0  0  0  0  0
  -26.5730  -22.5566   23.7376 C   0  0  2  0  0  0  0  0  0  0  0  0
  -27.7158  -32.7974   17.7540 C   0  0  0  0  0  0  0  0  0  0  0  0
  -26.3179  -31.1608   16.5017 C   0  0  2  0  0  0  0  0  0  0  0  0
  -29.2578  -26.1629   25.3502 C   0  0  0  0  0  0  0  0  0  0  0  0
  -26.1263  -11.9387   21.0941 N   0  0  0  0  0  0  0  0  0  0  0  0
  -29.4112  -20.2997   20.0942 N   0  0  0  0  0  0  0  0  0  0  0  0
  -26.2271  -12.9883   20.2608 N   0  0  0  0  0  0  0  0  0  0  0  0
  -28.8481  -19.0943   19.9044 N   0  0  0  0  0  0  0  0  0  0  0  0
  -26.2996  -27.8305   24.1954 N   0  0  0  0  0  0  0  0  0  0  0  0
  -29.7068  -14.4279   19.6263 N   0  0  0  0  0  0  0  0  0  0  0  0
  -25.0070  -14.8062   19.3568 N   0  0  0  0  0  0  0  0  0  0  0  0
  -22.0059  -12.7747   22.0516 N   0  0  0  0  0  0  0  0  0  0  0  0
  -31.7244  -20.9934   20.0747 N   0  0  0  0  0  0  0  0  0  0  0  0
  -29.3644  -16.7532   19.4317 N   0  0  0  0  0  0  0  0  0  0  0  0
  -25.5157  -31.1411   25.5076 N   0  0  0  0  0  0  0  0  0  0  0  0
  -27.3758  -24.6467   24.5997 N   0  0  0  0  0  0  0  0  0  0  0  0
  -25.6189  -22.1462   22.6689 N   0  3  0  0  0  0  0  0  0  0  0  0
  -27.6744  -31.4345   17.1056 N   0  3  1  0  0  0  0  0  0  0  0  0
  -22.3188  -14.5154   20.5920 O   0  0  0  0  0  0  0  0  0  0  0  0
  -27.4196  -30.0734   24.6966 O   0  0  0  0  0  0  0  0  0  0  0  0
  -26.4671  -26.7869   26.2737 O   0  0  0  0  0  0  0  0  0  0  0  0
  -27.3396  -24.3417   22.3012 O   0  0  0  0  0  0  0  0  0  0  0  0
  -31.2767  -15.7588   18.5737 O   0  0  0  0  0  0  0  0  0  0  0  0
  -22.9048   -8.2304   25.1462 O   0  0  0  0  0  0  0  0  0  0  0  0
  -25.7870  -29.6428   18.3124 O   0  0  0  0  0  0  0  0  0  1  0  0
  -24.0645   -2.9264   24.1834 F   0  0  0  0  0  0  0  0  0  0  0  0
  -20.8837   -6.3833   24.7644 F   0  0  0  0  0  0  0  0  0  0  0  0
  -32.5004  -17.9690   19.4563 Cl  0  0  0  0  0  0  0  0  0  0  0  0
  1  2  1  0  0  0  0
  1  5  2  0  0  0  0
  2  6  2  0  0  0  0
  3  8  2  0  0  0  0
  3 15  1  0  0  0  0
  4  9  1  0  0  0  0
  4 15  2  0  0  0  0
  5 17  1  0  0  0  0
  6 19  1  0  0  0  0
  7 10  2  0  0  0  0
  7 18  1  0  0  0  0
  8 21  1  0  0  0  0
  9 21  2  0  0  0  0
 10 22  1  0  0  0  0
 11 12  2  0  0  0  0
 11 23  1  0  0  0  0
 12 24  1  0  0  0  0
 13 20  1  0  0  0  0
 13 22  2  0  0  0  0
 14 24  2  0  0  0  0
 14 25  1  0  0  0  0
 15 27  1  0  0  0  0
 16 27  1  0  0  0  0
 16 29  2  0  0  0  0
 16 31  1  0  0  0  0
 17 19  2  0  0  0  0
 17 36  1  0  0  0  0
 18 20  2  0  0  0  0
 18 37  1  0  0  0  0
 19 45  1  0  0  0  0
 20 38  1  0  0  0  0
 21 92  1  0  0  0  0
 22 93  1  0  0  0  0
 23 25  2  0  0  0  0
 23 92  1  0  0  0  0
 24 94  1  0  0  0  0
 25 95  1  0  0  0  0
 26 28  1  0  0  0  0
 26 30  2  0  0  0  0
 26 96  1  0  0  0  0
 27 73  2  0  0  0  0
 28 74  2  0  0  0  0
 28 81  1  0  0  0  0
 29 75  1  0  0  0  0
 29 79  1  0  0  0  0
 30 76  1  0  0  0  0
 30 82  1  0  0  0  0
 31 80  1  0  0  0  0
 31 87  2  0  0  0  0
 32 46  1  0  0  0  0
 32 83  1  0  0  0  0
 32 88  2  0  0  0  0
 33 68  1  0  0  0  0
 33 77  1  0  0  0  0
 33 89  2  0  0  0  0
 34 69  1  0  0  0  0
 34 84  1  0  0  0  0
 34 90  2  0  0  0  0
 35 78  1  0  0  0  0
 35 82  1  0  0  0  0
 35 91  2  0  0  0  0
 36 39  1  0  0  0  0
 37 46  1  0  0  0  0
 38 77  1  0  0  0  0
 39 41  1  0  0  0  0
 40 42  1  0  0  0  0
 40 43  1  0  0  0  0
 41 45  1  0  0  0  0
 42 47  1  0  0  0  0
 43 78  1  0  0  0  0
 44 47  1  0  0  0  0
 44 78  1  0  0  0  0
 45 83  1  0  0  0  0
 46 77  1  0  0  0  0
 47 75  1  0  0  0  0
 48 64  1  0  0  0  0
 49 69  1  0  0  0  0
 50 70  1  0  0  0  0
 51 70  1  0  0  0  0
 52 71  1  0  0  0  0
 53 72  1  0  0  0  0
 54 72  1  0  0  0  0
 55 72  1  0  0  0  0
 56 85  1  0  0  0  0
 57 58  1  0  0  0  0
 57 59  1  0  0  0  0
 58 60  1  0  0  0  0
 59 61  1  0  0  0  0
 60 62  1  0  0  0  0
 61 63  1  0  0  0  0
 62 65  1  0  0  0  0
 63 66  1  0  0  0  0
 64 76  1  0  0  0  0
 65 81  1  0  0  0  0
 66 86  1  0  0  0  0
 67 71  1  0  0  0  0
 67 93  1  0  0  0  0
 68 72  1  0  0  0  0
 68 84  1  0  0  0  0
 69 85  1  0  0  0  0
 70 86  1  0  0  0  0
 71 86  1  0  0  0  0
 73 75  1  0  0  0  0
 74 76  1  0  0  0  0
M  CHG  2  85   1  86   1
M  ISO  4  35 100  67 101  82 100  93 101
M  END
> <Batch ID>
0016

> <Smiles>
CCn1nc(NCCCCCCCCCN(C(C)C)C(C)[101CH2:1][101O:1]c2ccc3c(c2)CN(C(=O)C(NC(=O)C(C)NC)C(C)(C)C)C(C(=O)NC2CCCc4ccccc42)C3)c(Cl)c1[100NH:0][100C:0](=O)N1CCCC(n2nc(-c3ccc(Oc4ccc(F)cc4F)cc3)c(C(N)=O)c2N)C1

> <Shape>
0.254

> <Color>
0.124

> <Negative vol penalty>
0.000

$$$$

  -OEChem-04052315583D

 88 95  0     1  0  0  0  0  0999 V2000
  -18.5072  -33.4532   23.8150 C   0  0  0  0  0  0  0  0  0  0  0  0
  -19.8085  -33.5549   23.3336 C   0  0  0  0  0  0  0  0  0  0  0  0
  -23.9844  -17.5507   20.3387 C   0  0  0  0  0  0  0  0  0  0  0  0
  -25.4992  -15.8926   19.4482 C   0  0  0  0  0  0  0  0  0  0  0  0
  -18.0460  -32.2396   24.3233 C   0  0  0  0  0  0  0  0  0  0  0  0
  -20.6497  -32.4431   23.3613 C   0  0  0  0  0  0  0  0  0  0  0  0
  -26.0003  -29.3984   19.6983 C   0  0  0  0  0  0  0  0  0  0  0  0
  -23.0839  -16.5429   20.6836 C   0  0  0  0  0  0  0  0  0  0  0  0
  -24.5987  -14.8847   19.7932 C   0  0  0  0  0  0  0  0  0  0  0  0
  -27.2879  -28.8986   19.8882 C   0  0  0  0  0  0  0  0  0  0  0  0
  -23.6899  -13.2062   22.5819 C   0  0  0  0  0  0  0  0  0  0  0  0
  -24.2014  -12.0671   23.2037 C   0  0  0  0  0  0  0  0  0  0  0  0
  -26.3574  -26.8327   20.7161 C   0  0  0  0  0  0  0  0  0  0  0  0
  -23.3718  -10.7043   21.3894 C   0  0  0  0  0  0  0  0  0  0  0  0
  -25.1920  -17.2256   19.7210 C   0  0  0  0  0  0  0  0  0  0  0  0
  -27.1607  -18.7877   20.1587 C   0  0  0  0  0  0  0  0  0  0  0  0
  -18.8789  -31.1099   24.3483 C   0  0  0  0  0  0  0  0  0  0  0  0
  -24.8798  -28.6218   20.0266 C   0  0  0  0  0  0  0  0  0  0  0  0
  -20.1997  -31.2136   23.8716 C   0  0  0  0  0  0  0  0  0  0  0  0
  -25.0567  -27.3240   20.5270 C   0  0  0  0  0  0  0  0  0  0  0  0
  -23.3910  -15.2099   20.4109 C   0  0  0  0  0  0  0  0  0  0  0  0
  -27.4667  -27.6167   20.3998 C   0  0  0  0  0  0  0  0  0  0  0  0
  -23.0193  -13.0943   21.3639 C   0  0  0  0  0  0  0  0  0  0  0  0
  -24.0424  -10.8162   22.6074 C   0  0  0  0  0  0  0  0  0  0  0  0
  -22.8603  -11.8433   20.7677 C   0  0  0  0  0  0  0  0  0  0  0  0
  -26.1223  -18.2663   19.3639 C   0  0  0  0  0  0  0  0  0  0  0  0
  -27.7482  -19.7467   19.3703 C   0  0  0  0  0  0  0  0  0  0  0  0
  -27.3767  -24.9288   14.8522 C   0  0  0  0  0  0  0  0  0  0  0  0
  -27.5586  -18.4366   21.4907 C   0  0  0  0  0  0  0  0  0  0  0  0
  -28.5412  -25.4918   14.4726 C   0  0  0  0  0  0  0  0  0  0  0  0
  -27.2082  -24.0959   16.0599 C   0  0  0  0  0  0  0  0  0  0  0  0
  -22.4711  -28.9150   22.0800 C   0  0  0  0  0  0  0  0  0  0  0  0
  -21.3876  -26.2456   20.5891 C   0  0  0  0  0  0  0  0  0  0  0  0
  -31.8383  -23.4612   16.8219 C   0  0  0  0  0  0  0  0  0  0  0  0
  -22.1046  -23.4583   18.7550 C   0  0  0  0  0  0  0  0  0  0  0  0
  -18.3511  -29.8320   24.9508 C   0  0  0  0  0  0  0  0  0  0  0  0
  -23.4973  -29.1655   19.7908 C   0  0  0  0  0  0  0  0  0  0  0  0
  -23.8865  -26.4424   20.8762 C   0  0  0  0  0  0  0  0  0  0  0  0
  -19.1853  -28.6028   24.5994 C   0  0  0  0  0  0  0  0  0  0  0  0
  -27.1889  -20.7942   14.4692 C   0  0  0  0  0  0  0  0  0  0  0  0
  -20.6706  -28.8937   24.7892 C   0  0  0  0  0  0  0  0  0  0  0  0
  -26.9455  -19.8892   15.6740 C   0  0  0  0  0  0  0  0  0  0  0  0
  -26.4667  -22.1338   14.6051 C   0  0  0  0  0  0  0  0  0  0  0  0
  -26.5418  -21.9517   17.0753 C   0  0  0  0  0  0  0  0  0  0  0  0
  -21.1344  -30.0235   23.8619 C   0  0  1  0  0  0  0  0  0  0  0  0
  -22.4326  -28.4805   20.6421 C   0  0  1  0  0  0  0  0  0  0  0  0
  -27.2973  -20.6168   16.9812 C   0  0  1  0  0  0  0  0  0  0  0  0
  -27.3912  -26.5017   12.4453 C   0  0  0  0  0  0  0  0  0  0  0  0
  -30.2317  -26.6547   15.9480 C   0  0  0  0  0  0  0  0  0  0  0  0
  -33.2512  -23.5613   14.7563 C   0  0  0  0  0  0  0  0  0  0  0  0
  -21.0167  -21.4479   17.7196 C   0  0  0  0  0  0  0  0  0  0  0  0
  -21.1747  -24.9463   23.3417 C   0  0  0  0  0  0  0  0  0  0  0  0
  -21.0154  -22.7224   22.2026 C   0  0  0  0  0  0  0  0  0  0  0  0
  -19.2641  -24.4537   21.8049 C   0  0  0  0  0  0  0  0  0  0  0  0
  -22.9406  -24.2637   16.0326 C   0  0  0  0  0  0  0  0  0  0  0  0
  -28.6901  -26.3439   13.2272 C   0  0  0  0  0  0  0  0  0  0  0  0
  -30.5203  -23.8946   19.8251 C   0  0  0  0  0  0  0  0  0  0  0  0
  -30.3072  -25.4001   19.9895 C   0  0  0  0  0  0  0  0  0  0  0  0
  -31.9157  -23.5524   19.3095 C   0  0  0  0  0  0  0  0  0  0  0  0
  -28.8953  -25.7166   20.4666 C   0  0  0  0  0  0  0  0  0  1  0  0
  -29.7705  -25.3089   15.3755 C   0  0  2  0  0  0  0  0  0  0  0  0
  -21.5619  -24.7604   20.7958 C   0  0  1  0  0  0  0  0  0  0  0  0
  -32.1509  -24.2611   15.5586 C   0  0  1  0  0  0  0  0  0  0  0  0
  -21.4659  -22.8846   17.5031 C   0  0  2  0  0  0  0  0  0  0  0  0
  -20.7763  -24.2378   22.0316 C   0  0  0  0  0  0  0  0  0  0  0  0
  -30.9142  -24.5353   14.6867 C   0  0  0  0  0  0  0  0  0  0  0  0
  -26.0516  -18.8461   18.1627 N   0  0  0  0  0  0  0  0  0  0  0  0
  -27.0529  -19.7418   18.1969 N   0  0  0  0  0  0  0  0  0  0  0  0
  -26.7734  -22.7829   15.8886 N   0  0  0  0  0  0  0  0  0  0  0  0
  -22.5548  -27.0213   20.6337 N   0  0  0  0  0  0  0  0  0  0  0  0
  -28.7865  -20.5853   19.5731 N   0  0  0  0  0  0  0  0  0  0  0  0
  -26.8470  -17.4297   22.1570 N   0  0  0  0  0  0  0  0  0  0  0  0
  -21.3118  -29.5297   22.5132 N   0  0  0  0  0  0  0  0  0  0  0  0
  -32.1376  -24.1221   18.0002 N   0  0  0  0  0  0  0  0  0  0  0  0
  -21.1859  -24.1262   19.5368 N   0  0  0  0  0  0  0  0  0  0  0  0
  -22.4339  -22.9086   16.3702 N   0  3  0  0  0  0  0  0  0  0  0  0
  -28.5064  -19.0104   22.0788 O   0  0  0  0  0  0  0  0  0  0  0  0
  -27.4586  -24.6159   17.1488 O   0  0  0  0  0  0  0  0  0  0  0  0
  -23.4775  -28.7067   22.7474 O   0  0  0  0  0  0  0  0  0  0  0  0
  -20.2585  -26.6999   20.3883 O   0  0  0  0  0  0  0  0  0  0  0  0
  -31.3566  -22.3310   16.7501 O   0  0  0  0  0  0  0  0  0  0  0  0
  -23.2982  -23.3241   19.0154 O   0  0  0  0  0  0  0  0  0  0  0  0
  -22.5127  -14.2261   20.7476 O   0  0  0  0  0  0  0  0  0  0  0  0
  -28.7315  -27.1232   20.5881 O   0  0  0  0  0  0  0  0  0  1  0  0
  -24.5350   -9.7227   23.2038 F   0  0  0  0  0  0  0  0  0  0  0  0
  -22.2180  -11.7297   19.5970 F   0  0  0  0  0  0  0  0  0  0  0  0
  -30.4275  -23.3523   14.2209 F   0  0  0  0  0  0  0  0  0  0  0  0
  -31.3304  -25.2315   13.5918 F   0  0  0  0  0  0  0  0  0  0  0  0
  1  2  1  0  0  0  0
  1  5  2  0  0  0  0
  2  6  2  0  0  0  0
  3  8  2  0  0  0  0
  3 15  1  0  0  0  0
  4  9  1  0  0  0  0
  4 15  2  0  0  0  0
  5 17  1  0  0  0  0
  6 19  1  0  0  0  0
  7 10  2  0  0  0  0
  7 18  1  0  0  0  0
  8 21  1  0  0  0  0
  9 21  2  0  0  0  0
 10 22  1  0  0  0  0
 11 12  2  0  0  0  0
 11 23  1  0  0  0  0
 12 24  1  0  0  0  0
 13 20  1  0  0  0  0
 13 22  2  0  0  0  0
 14 24  2  0  0  0  0
 14 25  1  0  0  0  0
 15 26  1  0  0  0  0
 16 26  1  0  0  0  0
 16 27  2  0  0  0  0
 16 29  1  0  0  0  0
 17 19  2  0  0  0  0
 17 36  1  0  0  0  0
 18 20  2  0  0  0  0
 18 37  1  0  0  0  0
 19 45  1  0  0  0  0
 20 38  1  0  0  0  0
 21 83  1  0  0  0  0
 22 84  1  0  0  0  0
 23 25  2  0  0  0  0
 23 83  1  0  0  0  0
 24 85  1  0  0  0  0
 25 86  1  0  0  0  0
 26 67  2  0  0  0  0
 27 68  1  0  0  0  0
 27 71  1  0  0  0  0
 28 30  2  0  0  0  0
 28 31  1  0  0  0  0
 29 72  1  0  0  0  0
 29 77  2  0  0  0  0
 30 56  1  0  0  0  0
 30 61  1  0  0  0  0
 31 69  1  0  0  0  0
 31 78  2  0  0  0  0
 32 46  1  0  0  0  0
 32 73  1  0  0  0  0
 32 79  2  0  0  0  0
 33 62  1  0  0  0  0
 33 70  1  0  0  0  0
 33 80  2  0  0  0  0
 34 63  1  0  0  0  0
 34 74  1  0  0  0  0
 34 81  2  0  0  0  0
 35 64  1  0  0  0  0
 35 75  1  0  0  0  0
 35 82  2  0  0  0  0
 36 39  1  0  0  0  0
 37 46  1  0  0  0  0
 38 70  1  0  0  0  0
 39 41  1  0  0  0  0
 40 42  1  0  0  0  0
 40 43  1  0  0  0  0
 41 45  1  0  0  0  0
 42 47  1  0  0  0  0
 43 69  1  0  0  0  0
 44 47  1  0  0  0  0
 44 69  1  0  0  0  0
 45 73  1  0  0  0  0
 46 70  1  0  0  0  0
 47 68  1  0  0  0  0
 48 56  1  0  0  0  0
 49 61  1  0  0  0  0
 50 63  1  0  0  0  0
 51 64  1  0  0  0  0
 52 65  1  0  0  0  0
 53 65  1  0  0  0  0
 54 65  1  0  0  0  0
 55 76  1  0  0  0  0
 57 58  1  0  0  0  0
 57 59  1  0  0  0  0
 58 60  1  0  0  0  0
 59 74  1  0  0  0  0
 60 84  1  0  0  0  0
 61 66  1  0  0  0  0
 62 65  1  0  0  0  0
 62 75  1  0  0  0  0
 63 66  1  0  0  0  0
 64 76  1  0  0  0  0
 66 87  1  0  0  0  0
 66 88  1  0  0  0  0
 67 68  1  0  0  0  0
M  CHG  1  76   1
M  ISO  4  28 100  31 100  60 101  84 101
M  END
> <Batch ID>
0016

> <Smiles>
CCC([100CH2:0][100C:0](=O)N1CCCC(n2nc(-c3ccc(Oc4ccc(F)cc4F)cc3)c(C(N)=O)c2N)C1)=C(C)C(F)(F)C(C)C(=O)NCCC[101CH2:1][101O:1]c1ccc2c(c1)CN(C(=O)C(NC(=O)C(C)NC)C(C)(C)C)C(C(=O)NC1CCCc3ccccc31)C2

> <Shape>
0.180

> <Color>
0.090

> <Negative vol penalty>
0.000

$$$$

  -OEChem-04052315583D

 85 93  0     1  0  0  0  0  0999 V2000
  -27.2946  -37.0741   22.9256 C   0  0  0  0  0  0  0  0  0  0  0  0
  -27.8275  -35.9299   22.3404 C   0  0  0  0  0  0  0  0  0  0  0  0
  -22.3877  -10.5507   22.0707 C   0  0  0  0  0  0  0  0  0  0  0  0
  -23.0651  -10.1992   19.7784 C   0  0  0  0  0  0  0  0  0  0  0  0
  -26.3208  -36.9598   23.9168 C   0  0  0  0  0  0  0  0  0  0  0  0
  -27.3877  -34.6707   22.7470 C   0  0  0  0  0  0  0  0  0  0  0  0
  -26.7599  -29.6836   19.2483 C   0  0  0  0  0  0  0  0  0  0  0  0
  -24.6216  -20.7307   17.8185 C   0  0  0  0  0  0  0  0  0  0  0  0
  -25.5644  -21.7565   17.8844 C   0  0  0  0  0  0  0  0  0  0  0  0
  -21.9974   -9.2146   22.1603 C   0  0  0  0  0  0  0  0  0  0  0  0
  -22.6748   -8.8630   19.8680 C   0  0  0  0  0  0  0  0  0  0  0  0
  -27.5763  -28.5719   19.0446 C   0  0  0  0  0  0  0  0  0  0  0  0
  -23.4847   -6.2084   22.5887 C   0  0  0  0  0  0  0  0  0  0  0  0
  -23.8621   -5.4978   23.7281 C   0  0  0  0  0  0  0  0  0  0  0  0
  -26.3134  -27.3494   20.6968 C   0  0  0  0  0  0  0  0  0  0  0  0
  -21.5372   -5.0937   24.2462 C   0  0  0  0  0  0  0  0  0  0  0  0
  -22.9215  -11.0430   20.8798 C   0  0  0  0  0  0  0  0  0  0  0  0
  -24.5924  -12.9604   21.0786 C   0  0  0  0  0  0  0  0  0  0  0  0
  -25.8618  -35.6987   24.3289 C   0  0  0  0  0  0  0  0  0  0  0  0
  -25.7193  -29.6400   20.1872 C   0  0  0  0  0  0  0  0  0  0  0  0
  -26.4078  -34.5394   23.7456 C   0  0  0  0  0  0  0  0  0  0  0  0
  -25.4837  -28.4610   20.9087 C   0  0  0  0  0  0  0  0  0  0  0  0
  -26.3813  -19.1436   17.3477 C   0  0  0  0  0  0  0  0  0  0  0  0
  -25.0300  -19.4242   17.5502 C   0  0  0  0  0  0  0  0  0  0  0  0
  -26.9157  -21.4759   17.6818 C   0  0  0  0  0  0  0  0  0  0  0  0
  -22.1409   -8.3707   21.0590 C   0  0  0  0  0  0  0  0  0  0  0  0
  -27.3549  -27.4055   19.7709 C   0  0  0  0  0  0  0  0  0  0  0  0
  -22.1335   -6.3618   22.2781 C   0  0  0  0  0  0  0  0  0  0  0  0
  -27.3241  -20.1694   17.4135 C   0  0  0  0  0  0  0  0  0  0  0  0
  -22.8884   -4.9405   24.5568 C   0  0  0  0  0  0  0  0  0  0  0  0
  -21.1598   -5.8044   23.1068 C   0  0  0  0  0  0  0  0  0  0  0  0
  -23.3244  -12.4233   20.7864 C   0  0  0  0  0  0  0  0  0  0  0  0
  -24.4607  -14.3052   20.8325 C   0  0  0  0  0  0  0  0  0  0  0  0
  -25.7830  -12.3024   21.5318 C   0  0  0  0  0  0  0  0  0  0  0  0
  -25.0408  -31.2231   22.8588 C   0  0  0  0  0  0  0  0  0  0  0  0
  -22.2769  -29.5328   22.6965 C   0  0  0  0  0  0  0  0  0  0  0  0
  -27.6109  -23.8743   18.0107 C   0  0  0  0  0  0  0  0  0  0  0  0
  -20.6355  -26.7661   21.5571 C   0  0  0  0  0  0  0  0  0  0  0  0
  -22.6792  -18.5265   17.6686 C   0  0  0  0  0  0  0  0  0  0  0  0
  -24.8418  -35.6241   25.4373 C   0  0  0  0  0  0  0  0  0  0  0  0
  -24.8308  -30.8390   20.3760 C   0  0  0  0  0  0  0  0  0  0  0  0
  -24.3670  -28.3561   21.9139 C   0  0  0  0  0  0  0  0  0  0  0  0
  -24.1595  -34.2629   25.5466 C   0  0  0  0  0  0  0  0  0  0  0  0
  -20.3372  -17.1023   19.9411 C   0  0  0  0  0  0  0  0  0  0  0  0
  -25.1916  -33.1417   25.4815 C   0  0  0  0  0  0  0  0  0  0  0  0
  -21.0099  -15.8023   20.3876 C   0  0  0  0  0  0  0  0  0  0  0  0
  -20.6107  -17.4059   18.4691 C   0  0  0  0  0  0  0  0  0  0  0  0
  -22.7016  -16.1047   18.5346 C   0  0  0  0  0  0  0  0  0  0  0  0
  -25.9384  -33.1564   24.1422 C   0  0  1  0  0  0  0  0  0  0  0  0
  -24.1239  -30.8519   21.7278 C   0  0  1  0  0  0  0  0  0  0  0  0
  -22.5084  -15.7904   20.0271 C   0  0  2  0  0  0  0  0  0  0  0  0
  -26.8277  -17.7447   17.0588 C   0  0  0  0  0  0  0  0  0  0  0  0
  -18.3931  -25.6413   21.6184 C   0  0  0  0  0  0  0  0  0  0  0  0
  -22.8238  -28.6037   25.5509 C   0  0  0  0  0  0  0  0  0  0  0  0
  -21.1241  -26.7965   25.2141 C   0  0  0  0  0  0  0  0  0  0  0  0
  -20.4382  -29.1914   25.0841 C   0  0  0  0  0  0  0  0  0  0  0  0
  -20.3365  -26.9439   18.6180 C   0  0  0  0  0  0  0  0  0  0  0  0
  -29.1293  -19.9726   15.8778 C   0  0  0  0  0  0  0  0  0  0  0  0
  -28.9120  -24.6686   17.9970 C   0  0  0  0  0  0  0  0  0  0  0  0
  -28.7102  -26.1509   18.2726 C   0  0  0  0  0  0  0  0  0  1  0  0
  -21.8118  -28.1921   23.2115 C   0  0  1  0  0  0  0  0  0  0  0  0
  -19.2952  -26.6047   20.8629 C   0  0  2  0  0  0  0  0  0  0  0  0
  -21.5718  -28.1982   24.7477 C   0  0  0  0  0  0  0  0  0  0  0  0
  -22.4513  -13.3512   20.3855 N   0  0  0  0  0  0  0  0  0  0  0  0
  -23.1718  -14.4849   20.4242 N   0  0  0  0  0  0  0  0  0  0  0  0
  -23.5296  -29.5573   22.0672 N   0  0  0  0  0  0  0  0  0  0  0  0
  -22.0506  -17.3817   18.2027 N   0  0  0  0  0  0  0  0  0  0  0  0
  -25.3227  -15.3397   20.9278 N   0  0  0  0  0  0  0  0  0  0  0  0
  -25.7445  -10.9161   21.7338 N   0  0  0  0  0  0  0  0  0  0  0  0
  -27.8587  -22.5287   17.7531 N   0  0  0  0  0  0  0  0  0  0  0  0
  -24.0559  -18.3970   17.4883 N   0  0  0  0  0  0  0  0  0  0  0  0
  -25.1165  -32.5818   23.0988 N   0  0  0  0  0  0  0  0  0  0  0  0
  -20.6357  -27.8381   22.4244 N   0  0  0  0  0  0  0  0  0  0  0  0
  -19.4874  -26.0824   19.4804 N   0  3  0  0  0  0  0  0  0  0  0  0
  -26.8446  -12.9279   21.7668 O   0  0  0  0  0  0  0  0  0  0  0  0
  -25.6344  -30.3420   23.4695 O   0  0  0  0  0  0  0  0  0  0  0  0
  -21.5521  -30.5205   22.8406 O   0  0  0  0  0  0  0  0  0  0  0  0
  -26.5253  -24.4035   18.2246 O   0  0  0  0  0  0  0  0  0  0  0  0
  -21.5860  -26.0141   21.3533 O   0  0  0  0  0  0  0  0  0  0  0  0
  -22.0475  -19.5559   17.4171 O   0  0  0  0  0  0  0  0  0  0  0  0
  -21.7604   -7.0668   21.1461 O   0  0  0  0  0  0  0  0  0  0  0  0
  -28.6459  -19.8930   17.2161 O   0  0  0  0  0  0  0  0  0  0  0  0
  -28.1506  -26.3192   19.5745 O   0  0  0  0  0  0  0  0  0  1  0  0
  -23.2510   -4.2568   25.6501 F   0  0  0  0  0  0  0  0  0  0  0  0
  -19.8601   -5.9473   22.8130 F   0  0  0  0  0  0  0  0  0  0  0  0
  1  2  1  0  0  0  0
  1  5  2  0  0  0  0
  2  6  2  0  0  0  0
  3 10  2  0  0  0  0
  3 17  1  0  0  0  0
  4 11  1  0  0  0  0
  4 17  2  0  0  0  0
  5 19  1  0  0  0  0
  6 21  1  0  0  0  0
  7 12  2  0  0  0  0
  7 20  1  0  0  0  0
  8  9  2  0  0  0  0
  8 24  1  0  0  0  0
  9 25  1  0  0  0  0
 10 26  1  0  0  0  0
 11 26  2  0  0  0  0
 12 27  1  0  0  0  0
 13 14  2  0  0  0  0
 13 28  1  0  0  0  0
 14 30  1  0  0  0  0
 15 22  1  0  0  0  0
 15 27  2  0  0  0  0
 16 30  2  0  0  0  0
 16 31  1  0  0  0  0
 17 32  1  0  0  0  0
 18 32  1  0  0  0  0
 18 33  2  0  0  0  0
 18 34  1  0  0  0  0
 19 21  2  0  0  0  0
 19 40  1  0  0  0  0
 20 22  2  0  0  0  0
 20 41  1  0  0  0  0
 21 49  1  0  0  0  0
 22 42  1  0  0  0  0
 23 24  2  0  0  0  0
 23 29  1  0  0  0  0
 23 52  1  0  0  0  0
 24 71  1  0  0  0  0
 25 29  2  0  0  0  0
 25 70  1  0  0  0  0
 26 81  1  0  0  0  0
 27 83  1  0  0  0  0
 28 31  2  0  0  0  0
 28 81  1  0  0  0  0
 29 82  1  0  0  0  0
 30 84  1  0  0  0  0
 31 85  1  0  0  0  0
 32 64  2  0  0  0  0
 33 65  1  0  0  0  0
 33 68  1  0  0  0  0
 34 69  1  0  0  0  0
 34 75  2  0  0  0  0
 35 50  1  0  0  0  0
 35 72  1  0  0  0  0
 35 76  2  0  0  0  0
 36 61  1  0  0  0  0
 36 66  1  0  0  0  0
 36 77  2  0  0  0  0
 37 59  1  0  0  0  0
 37 70  1  0  0  0  0
 37 78  2  0  0  0  0
 38 62  1  0  0  0  0
 38 73  1  0  0  0  0
 38 79  2  0  0  0  0
 39 67  1  0  0  0  0
 39 71  1  0  0  0  0
 39 80  2  0  0  0  0
 40 43  1  0  0  0  0
 41 50  1  0  0  0  0
 42 66  1  0  0  0  0
 43 45  1  0  0  0  0
 44 46  1  0  0  0  0
 44 47  1  0  0  0  0
 45 49  1  0  0  0  0
 46 51  1  0  0  0  0
 47 67  1  0  0  0  0
 48 51  1  0  0  0  0
 48 67  1  0  0  0  0
 49 72  1  0  0  0  0
 50 66  1  0  0  0  0
 51 65  1  0  0  0  0
 53 62  1  0  0  0  0
 54 63  1  0  0  0  0
 55 63  1  0  0  0  0
 56 63  1  0  0  0  0
 57 74  1  0  0  0  0
 58 82  1  0  0  0  0
 59 60  1  0  0  0  0
 60 83  1  0  0  0  0
 61 63  1  0  0  0  0
 61 73  1  0  0  0  0
 62 74  1  0  0  0  0
 64 65  1  0  0  0  0
M  CHG  1  74   1
M  ISO  4  39 100  60 101  71 100  83 101
M  END
> <Batch ID>
0016

> <Smiles>
CNC(C)C(=O)NC(C(=O)N1Cc2cc([101O:1][101CH2:1]CC(=O)Nc3ccc([100NH:0][100C:0](=O)N4CCCC(n5nc(-c6ccc(Oc7ccc(F)cc7F)cc6)c(C(N)=O)c5N)C4)c(C)c3OC)ccc2CC1C(=O)NC1CCCc2ccccc21)C(C)(C)C

> <Shape>
0.284

> <Color>
0.111

> <Negative vol penalty>
0.000

$$$$

  -OEChem-04052315583D

 86 94  0     1  0  0  0  0  0999 V2000
  -21.1529  -27.6633   14.5234 C   0  0  0  0  0  0  0  0  0  0  0  0
  -22.3539  -27.3978   15.1732 C   0  0  0  0  0  0  0  0  0  0  0  0
  -24.1463  -10.0993   22.1478 C   0  0  0  0  0  0  0  0  0  0  0  0
  -24.7608  -11.6334   23.9101 C   0  0  0  0  0  0  0  0  0  0  0  0
  -20.6234  -28.9530   14.5389 C   0  0  0  0  0  0  0  0  0  0  0  0
  -23.0269  -28.4222   15.8382 C   0  0  0  0  0  0  0  0  0  0  0  0
  -24.7033  -27.0037   20.4013 C   0  0  0  0  0  0  0  0  0  0  0  0
  -23.7829   -9.1488   23.1018 C   0  0  0  0  0  0  0  0  0  0  0  0
  -24.3973  -10.6830   24.8642 C   0  0  0  0  0  0  0  0  0  0  0  0
  -25.8606  -26.2273   20.4414 C   0  0  0  0  0  0  0  0  0  0  0  0
  -21.1595   -8.5523   25.1500 C   0  0  0  0  0  0  0  0  0  0  0  0
  -19.9541   -7.8755   24.9643 C   0  0  0  0  0  0  0  0  0  0  0  0
  -27.1517  -28.1907   20.9863 C   0  0  0  0  0  0  0  0  0  0  0  0
  -28.1280  -19.6670   19.5553 C   0  0  0  0  0  0  0  0  0  0  0  0
  -30.4917  -19.2807   19.2380 C   0  0  0  0  0  0  0  0  0  0  0  0
  -21.1450   -5.7747   24.8909 C   0  0  0  0  0  0  0  0  0  0  0  0
  -24.6353  -11.3415   22.5519 C   0  0  0  0  0  0  0  0  0  0  0  0
  -24.1884  -13.3115   20.9940 C   0  0  0  0  0  0  0  0  0  0  0  0
  -21.2853  -29.9916   15.2125 C   0  0  0  0  0  0  0  0  0  0  0  0
  -24.7632  -28.3837   20.6431 C   0  0  0  0  0  0  0  0  0  0  0  0
  -22.5065  -29.7274   15.8616 C   0  0  0  0  0  0  0  0  0  0  0  0
  -25.9934  -28.9820   20.9512 C   0  0  0  0  0  0  0  0  0  0  0  0
  -28.3724  -21.0308   19.7162 C   0  0  0  0  0  0  0  0  0  0  0  0
  -30.7361  -20.6445   19.3988 C   0  0  0  0  0  0  0  0  0  0  0  0
  -29.6765  -21.5195   19.6379 C   0  0  0  0  0  0  0  0  0  0  0  0
  -29.1876  -18.7919   19.3163 C   0  0  0  0  0  0  0  0  0  0  0  0
  -23.9084   -9.4407   24.4600 C   0  0  0  0  0  0  0  0  0  0  0  0
  -27.0855  -26.8212   20.7311 C   0  0  0  0  0  0  0  0  0  0  0  0
  -22.3577   -7.8403   25.2061 C   0  0  0  0  0  0  0  0  0  0  0  0
  -19.9468   -6.4867   24.8348 C   0  0  0  0  0  0  0  0  0  0  0  0
  -22.3504   -6.4515   25.0765 C   0  0  0  0  0  0  0  0  0  0  0  0
  -25.0115  -12.3235   21.5669 C   0  0  0  0  0  0  0  0  0  0  0  0
  -25.0123  -13.9826   20.1238 C   0  0  0  0  0  0  0  0  0  0  0  0
  -22.8030  -13.5973   21.2278 C   0  0  0  0  0  0  0  0  0  0  0  0
  -24.1003  -30.9890   18.9472 C   0  0  0  0  0  0  0  0  0  0  0  0
  -29.8067  -25.0185   18.6028 C   0  0  0  0  0  0  0  0  0  0  0  0
  -24.7182  -32.4980   21.7514 C   0  0  0  0  0  0  0  0  0  0  0  0
  -26.2802  -32.4484   24.7852 C   0  0  0  0  0  0  0  0  0  0  0  0
  -29.8770  -16.4034   18.9086 C   0  0  0  0  0  0  0  0  0  0  0  0
  -20.6981  -31.3799   15.1617 C   0  0  0  0  0  0  0  0  0  0  0  0
  -23.5018  -29.2027   20.6224 C   0  0  0  0  0  0  0  0  0  0  0  0
  -26.1084  -30.4560   21.2384 C   0  0  0  0  0  0  0  0  0  0  0  0
  -21.2832  -32.3273   16.2059 C   0  0  0  0  0  0  0  0  0  0  0  0
  -29.6700  -12.8748   18.4805 C   0  0  0  0  0  0  0  0  0  0  0  0
  -22.8047  -32.2216   16.2298 C   0  0  0  0  0  0  0  0  0  0  0  0
  -28.3719  -12.4981   19.1982 C   0  0  0  0  0  0  0  0  0  0  0  0
  -30.4139  -13.9953   19.2049 C   0  0  0  0  0  0  0  0  0  0  0  0
  -28.3152  -14.8183   20.1984 C   0  0  0  0  0  0  0  0  0  0  0  0
  -23.2534  -30.8067   16.6147 C   0  0  1  0  0  0  0  0  0  0  0  0
  -23.7569  -30.6868   20.3784 C   0  0  1  0  0  0  0  0  0  0  0  0
  -27.4982  -13.7383   19.4705 C   0  0  2  0  0  0  0  0  0  0  0  0
  -27.2205  -21.9467   19.9718 C   0  0  0  0  0  0  0  0  0  0  0  0
  -32.1417  -21.1422   19.3104 C   0  0  0  0  0  0  0  0  0  0  0  0
  -29.4918  -25.9200   17.4298 C   0  0  0  0  0  0  0  0  0  0  0  0
  -31.7612  -26.3076   19.5187 C   0  0  0  0  0  0  0  0  0  0  0  0
  -26.6310  -33.8408   26.8433 C   0  0  0  0  0  0  0  0  0  0  0  0
  -26.7130  -34.2365   20.2321 C   0  0  0  0  0  0  0  0  0  0  0  0
  -27.6901  -34.9179   22.4342 C   0  0  0  0  0  0  0  0  0  0  0  0
  -25.3159  -35.4676   21.9016 C   0  0  0  0  0  0  0  0  0  0  0  0
  -24.9957  -30.4210   26.5169 C   0  0  0  0  0  0  0  0  0  0  0  0
  -29.9397  -22.9893   19.8107 C   0  0  0  0  0  0  0  0  0  0  0  0
  -29.4401  -26.7095   20.4162 C   0  0  0  0  0  0  0  0  0  1  0  0
  -30.4113  -25.6749   19.8480 C   0  0  1  0  0  0  0  0  0  0  0  0
  -25.9504  -33.0730   22.4071 C   0  0  1  0  0  0  0  0  0  0  0  0
  -25.7788  -32.7690   26.1817 C   0  0  2  0  0  0  0  0  0  0  0  0
  -26.4158  -34.3963   21.7365 C   0  0  0  0  0  0  0  0  0  0  0  0
  -26.2623  -12.3600   21.0997 N   0  0  0  0  0  0  0  0  0  0  0  0
  -29.5918  -23.7454   18.6183 N   0  0  0  0  0  0  0  0  0  0  0  0
  -26.2312  -13.3790   20.2241 N   0  0  0  0  0  0  0  0  0  0  0  0
  -24.8477  -31.2154   21.2000 N   0  0  0  0  0  0  0  0  0  0  0  0
  -29.5250  -15.1383   19.4247 N   0  0  0  0  0  0  0  0  0  0  0  0
  -24.8057  -15.0241   19.2901 N   0  0  0  0  0  0  0  0  0  0  0  0
  -22.1057  -12.8106   22.1547 N   0  0  0  0  0  0  0  0  0  0  0  0
  -28.9394  -17.4066   19.1518 N   0  0  0  0  0  0  0  0  0  0  0  0
  -23.1278  -30.6076   18.0426 N   0  0  0  0  0  0  0  0  0  0  0  0
  -25.6359  -33.2006   23.8260 N   0  0  0  0  0  0  0  0  0  0  0  0
  -25.8112  -31.5487   27.0366 N   0  3  0  0  0  0  0  0  0  0  0  0
  -22.1970  -14.5122   20.6202 O   0  0  0  0  0  0  0  0  0  0  0  0
  -25.1679  -31.5297   18.6832 O   0  0  0  0  0  0  0  0  0  0  0  0
  -23.6771  -33.1594   21.7355 O   0  0  0  0  0  0  0  0  0  0  0  0
  -27.1585  -31.6167   24.5675 O   0  0  0  0  0  0  0  0  0  0  0  0
  -30.9196  -16.5776   18.2724 O   0  0  0  0  0  0  0  0  0  0  0  0
  -23.5536   -8.5136   25.3912 O   0  0  0  0  0  0  0  0  0  0  0  0
  -28.2167  -26.0658   20.7702 O   0  0  0  0  0  0  0  0  0  1  0  0
  -18.7890   -5.8367   24.6580 F   0  0  0  0  0  0  0  0  0  0  0  0
  -23.4982   -5.7619   25.1307 F   0  0  0  0  0  0  0  0  0  0  0  0
  1  2  1  0  0  0  0
  1  5  2  0  0  0  0
  2  6  2  0  0  0  0
  3  8  2  0  0  0  0
  3 17  1  0  0  0  0
  4  9  1  0  0  0  0
  4 17  2  0  0  0  0
  5 19  1  0  0  0  0
  6 21  1  0  0  0  0
  7 10  2  0  0  0  0
  7 20  1  0  0  0  0
  8 27  1  0  0  0  0
  9 27  2  0  0  0  0
 10 28  1  0  0  0  0
 11 12  2  0  0  0  0
 11 29  1  0  0  0  0
 12 30  1  0  0  0  0
 13 22  1  0  0  0  0
 13 28  2  0  0  0  0
 14 23  2  0  0  0  0
 14 26  1  0  0  0  0
 15 24  1  0  0  0  0
 15 26  2  0  0  0  0
 16 30  2  0  0  0  0
 16 31  1  0  0  0  0
 17 32  1  0  0  0  0
 18 32  1  0  0  0  0
 18 33  2  0  0  0  0
 18 34  1  0  0  0  0
 19 21  2  0  0  0  0
 19 40  1  0  0  0  0
 20 22  2  0  0  0  0
 20 41  1  0  0  0  0
 21 49  1  0  0  0  0
 22 42  1  0  0  0  0
 23 25  1  0  0  0  0
 23 52  1  0  0  0  0
 24 25  2  0  0  0  0
 24 53  1  0  0  0  0
 25 61  1  0  0  0  0
 26 74  1  0  0  0  0
 27 83  1  0  0  0  0
 28 84  1  0  0  0  0
 29 31  2  0  0  0  0
 29 83  1  0  0  0  0
 30 85  1  0  0  0  0
 31 86  1  0  0  0  0
 32 67  2  0  0  0  0
 33 69  1  0  0  0  0
 33 72  1  0  0  0  0
 34 73  1  0  0  0  0
 34 78  2  0  0  0  0
 35 50  1  0  0  0  0
 35 75  1  0  0  0  0
 35 79  2  0  0  0  0
 36 54  1  0  0  0  0
 36 63  1  0  0  0  0
 36 68  2  0  0  0  0
 37 64  1  0  0  0  0
 37 70  1  0  0  0  0
 37 80  2  0  0  0  0
 38 65  1  0  0  0  0
 38 76  1  0  0  0  0
 38 81  2  0  0  0  0
 39 71  1  0  0  0  0
 39 74  1  0  0  0  0
 39 82  2  0  0  0  0
 40 43  1  0  0  0  0
 41 50  1  0  0  0  0
 42 70  1  0  0  0  0
 43 45  1  0  0  0  0
 44 46  1  0  0  0  0
 44 47  1  0  0  0  0
 45 49  1  0  0  0  0
 46 51  1  0  0  0  0
 47 71  1  0  0  0  0
 48 51  1  0  0  0  0
 48 71  1  0  0  0  0
 49 75  1  0  0  0  0
 50 70  1  0  0  0  0
 51 69  1  0  0  0  0
 55 63  1  0  0  0  0
 56 65  1  0  0  0  0
 57 66  1  0  0  0  0
 58 66  1  0  0  0  0
 59 66  1  0  0  0  0
 60 77  1  0  0  0  0
 61 68  1  0  0  0  0
 62 63  1  0  0  0  0
 62 84  1  0  0  0  0
 64 66  1  0  0  0  0
 64 76  1  0  0  0  0
 65 77  1  0  0  0  0
 67 69  1  0  0  0  0
M  CHG  1  77   1
M  ISO  4  39 100  62 101  74 100  84 101
M  END
> <Batch ID>
0016

> <Smiles>
CNC(C)C(=O)NC(C(=O)N1Cc2cc([101O:1][101CH2:1]C(C)=C(C)NCc3c(C)cc([100NH:0][100C:0](=O)N4CCCC(n5nc(-c6ccc(Oc7ccc(F)cc7F)cc6)c(C(N)=O)c5N)C4)cc3C)ccc2CC1C(=O)NC1CCCc2ccccc21)C(C)(C)C

> <Shape>
0.317

> <Color>
0.131

> <Negative vol penalty>
0.000

$$$$

  -OEChem-04052315583D

102111  0     1  0  0  0  0  0999 V2000
  -28.9266  -25.8673   16.2422 C   0  0  0  0  0  0  0  0  0  0  0  0
  -27.5694  -26.1510   16.3562 C   0  0  0  0  0  0  0  0  0  0  0  0
  -26.4666  -13.1171   20.1921 C   0  0  0  0  0  0  0  0  0  0  0  0
  -24.1826  -13.5744   20.8333 C   0  0  0  0  0  0  0  0  0  0  0  0
  -29.7569  -25.9790   17.3567 C   0  0  0  0  0  0  0  0  0  0  0  0
  -27.0416  -26.5457   17.5851 C   0  0  0  0  0  0  0  0  0  0  0  0
  -22.4876  -30.5307   18.5266 C   0  0  0  0  0  0  0  0  0  0  0  0
  -26.3409  -11.8141   20.6736 C   0  0  0  0  0  0  0  0  0  0  0  0
  -24.0569  -12.2713   21.3148 C   0  0  0  0  0  0  0  0  0  0  0  0
  -21.1270  -30.3581   18.7772 C   0  0  0  0  0  0  0  0  0  0  0  0
  -24.9572  -10.5373   24.0740 C   0  0  0  0  0  0  0  0  0  0  0  0
  -24.3483  -10.3615   25.3165 C   0  0  0  0  0  0  0  0  0  0  0  0
  -22.5379  -24.1119   22.0604 C   0  0  0  0  0  0  0  0  0  0  0  0
  -22.9727  -22.2244   20.6163 C   0  0  0  0  0  0  0  0  0  0  0  0
  -21.5444  -30.5540   21.1450 C   0  0  0  0  0  0  0  0  0  0  0  0
  -22.3486  -24.3554   19.6641 C   0  0  0  0  0  0  0  0  0  0  0  0
  -22.6386   -9.0005   24.2860 C   0  0  0  0  0  0  0  0  0  0  0  0
  -25.3874  -13.9973   20.2720 C   0  0  0  0  0  0  0  0  0  0  0  0
  -25.2418  -15.7990   18.4718 C   0  0  0  0  0  0  0  0  0  0  0  0
  -29.2408  -26.3846   18.5975 C   0  0  0  0  0  0  0  0  0  0  0  0
  -23.3898  -30.7056   19.5858 C   0  0  0  0  0  0  0  0  0  0  0  0
  -27.8656  -26.6617   18.7174 C   0  0  0  0  0  0  0  0  0  0  0  0
  -22.8908  -22.7724   21.8964 C   0  0  0  0  0  0  0  0  0  0  0  0
  -22.9156  -30.7311   20.9051 C   0  0  0  0  0  0  0  0  0  0  0  0
  -22.2667  -24.9034   20.9442 C   0  0  0  0  0  0  0  0  0  0  0  0
  -22.7016  -23.0159   19.5001 C   0  0  0  0  0  0  0  0  0  0  0  0
  -25.1361  -11.3912   21.2349 C   0  0  0  0  0  0  0  0  0  0  0  0
  -20.6556  -30.3669   20.0867 C   0  0  0  0  0  0  0  0  0  0  0  0
  -24.4068   -9.9448   22.9374 C   0  0  0  0  0  0  0  0  0  0  0  0
  -23.1890   -9.5930   25.4225 C   0  0  0  0  0  0  0  0  0  0  0  0
  -23.2475   -9.1764   23.0434 C   0  0  0  0  0  0  0  0  0  0  0  0
  -25.5168  -15.3437   19.7752 C   0  0  0  0  0  0  0  0  0  0  0  0
  -25.5212  -17.1432   18.5116 C   0  0  0  0  0  0  0  0  0  0  0  0
  -24.7755  -15.0719   17.3274 C   0  0  0  0  0  0  0  0  0  0  0  0
  -20.6724  -21.7385   23.4250 C   0  0  0  0  0  0  0  0  0  0  0  0
  -25.8976  -29.0918   20.6859 C   0  0  0  0  0  0  0  0  0  0  0  0
  -26.1887  -31.6520   22.6564 C   0  0  0  0  0  0  0  0  0  0  0  0
  -16.9813  -28.8497   21.9271 C   0  0  0  0  0  0  0  0  0  0  0  0
  -24.6931  -34.2969   24.2101 C   0  0  0  0  0  0  0  0  0  0  0  0
  -25.5407  -21.2090   22.6486 C   0  0  0  0  0  0  0  0  0  0  0  0
  -30.1687  -26.4453   19.7849 C   0  0  0  0  0  0  0  0  0  0  0  0
  -24.8508  -30.9171   19.2973 C   0  0  0  0  0  0  0  0  0  0  0  0
  -23.8401  -30.9356   22.0764 C   0  0  0  0  0  0  0  0  0  0  0  0
  -29.5996  -27.2315   20.9632 C   0  0  0  0  0  0  0  0  0  0  0  0
  -28.2615  -20.3533   20.7548 C   0  0  0  0  0  0  0  0  0  0  0  0
  -28.1570  -26.8166   21.2347 C   0  0  0  0  0  0  0  0  0  0  0  0
  -27.8583  -19.0102   20.1465 C   0  0  0  0  0  0  0  0  0  0  0  0
  -22.1289  -19.7351   23.0740 C   0  0  0  0  0  0  0  0  0  0  0  0
  -27.8492  -20.4337   22.2204 C   0  0  0  0  0  0  0  0  0  0  0  0
  -25.9735  -18.8659   21.8481 C   0  0  0  0  0  0  0  0  0  0  0  0
  -23.1862  -21.9101   23.1125 C   0  0  1  0  0  0  0  0  0  0  0  0
  -27.2601  -27.1166   20.0276 C   0  0  1  0  0  0  0  0  0  0  0  0
  -21.9857  -21.1305   23.6816 C   0  0  1  0  0  0  0  0  0  0  0  0
  -25.7495  -30.5729   20.4810 C   0  0  1  0  0  0  0  0  0  0  0  0
  -26.3590  -18.7390   20.3603 C   0  0  2  0  0  0  0  0  0  0  0  0
  -23.6436  -19.5192   23.0193 C   0  0  2  0  0  0  0  0  0  0  0  0
  -24.1745  -18.9000   24.3138 C   0  0  0  0  0  0  0  0  0  0  0  0
  -25.1794  -36.1870   25.7877 C   0  0  0  0  0  0  0  0  0  0  0  0
  -26.2080  -29.6921   24.9948 C   0  0  0  0  0  0  0  0  0  0  0  0
  -25.7379  -31.6187   26.5230 C   0  0  0  0  0  0  0  0  0  0  0  0
  -27.8481  -31.5695   25.1937 C   0  0  0  0  0  0  0  0  0  0  0  0
  -23.1502  -21.0711   18.0248 C   0  0  0  0  0  0  0  0  0  0  0  0
  -22.4910  -23.2722   17.0404 C   0  0  0  0  0  0  0  0  0  0  0  0
  -23.9481  -36.3279   22.1904 C   0  0  0  0  0  0  0  0  0  0  0  0
  -16.7483  -27.5226   22.6186 C   0  0  0  0  0  0  0  0  0  0  0  0
  -18.0526  -26.7401   22.7469 C   0  0  0  0  0  0  0  0  0  0  0  0
  -17.8364  -25.4161   23.4810 C   0  0  0  0  0  0  0  0  0  0  0  0
  -19.1371  -24.6139   23.5745 C   0  0  0  0  0  0  0  0  0  0  0  0
  -17.0330  -29.8966   19.6682 C   0  0  0  0  0  0  0  0  0  0  0  0
  -18.9529  -23.2975   24.3159 C   0  0  0  0  0  0  0  0  0  0  0  0
  -18.4742  -30.0170   19.2062 C   0  0  0  0  0  0  0  0  0  1  0  0
  -25.6541  -32.0178   24.0200 C   0  0  1  0  0  0  0  0  0  0  0  0
  -25.0989  -35.7546   24.3319 C   0  0  2  0  0  0  0  0  0  0  0  0
  -21.8893  -26.3355   21.1197 C   0  0  0  0  0  0  0  0  0  0  0  0
  -26.3446  -31.2187   25.1611 C   0  0  0  0  0  0  0  0  0  0  0  0
  -25.9386  -16.3194   20.5840 N   0  0  0  0  0  0  0  0  0  0  0  0
  -25.9309  -17.4012   19.7867 N   0  0  0  0  0  0  0  0  0  0  0  0
  -25.2607  -31.1317   21.7432 N   0  0  0  0  0  0  0  0  0  0  0  0
  -26.4240  -20.1548   22.3876 N   0  0  0  0  0  0  0  0  0  0  0  0
  -24.1929  -20.8744   22.8160 N   0  0  0  0  0  0  0  0  0  0  0  0
  -25.4540  -18.1178   17.5799 N   0  0  0  0  0  0  0  0  0  0  0  0
  -24.5384  -13.6970   17.4605 N   0  0  0  0  0  0  0  0  0  0  0  0
  -20.0669  -21.3926   22.2946 N   0  0  0  0  0  0  0  0  0  0  0  0
  -26.9390  -28.5268   19.9746 N   0  0  0  0  0  0  0  0  0  0  0  0
  -16.8446  -28.7684   20.5515 N   0  0  0  0  0  0  0  0  0  0  0  0
  -25.7907  -33.4656   24.1371 N   0  0  0  0  0  0  0  0  0  0  0  0
  -22.7843  -22.4618   18.2058 N   0  0  0  0  0  0  0  0  0  0  0  0
  -20.2282  -22.5783   24.3602 N   0  3  0  0  0  0  0  0  0  0  0  0
  -24.1111  -36.6272   23.6364 N   0  3  0  0  0  0  0  0  0  0  0  0
  -24.5907  -15.6219   16.2153 O   0  0  0  0  0  0  0  0  0  0  0  0
  -25.1253  -28.5052   21.4350 O   0  0  0  0  0  0  0  0  0  0  0  0
  -27.3841  -31.8282   22.4082 O   0  0  0  0  0  0  0  0  0  0  0  0
  -17.2724  -29.8623   22.5598 O   0  0  0  0  0  0  0  0  0  0  0  0
  -23.5197  -33.9320   24.1863 O   0  0  0  0  0  0  0  0  0  0  0  0
  -25.9353  -22.3775   22.7424 O   0  0  0  0  0  0  0  0  0  0  0  0
  -25.0130  -10.1197   21.7047 O   0  0  0  0  0  0  0  0  0  0  0  0
  -19.3188  -30.1968   20.3358 O   0  0  0  0  0  0  0  0  0  1  0  0
  -22.6052   -9.4230   26.6160 F   0  0  0  0  0  0  0  0  0  0  0  0
  -22.7148   -8.6037   21.9553 F   0  0  0  0  0  0  0  0  0  0  0  0
  -21.8489  -26.7351   22.4253 F   0  0  0  0  0  0  0  0  0  0  0  0
  -22.7460  -27.2056   20.5076 F   0  0  0  0  0  0  0  0  0  0  0  0
  -20.6546  -26.6192   20.6118 F   0  0  0  0  0  0  0  0  0  0  0  0
  1  2  1  0  0  0  0
  1  5  2  0  0  0  0
  2  6  2  0  0  0  0
  3  8  2  0  0  0  0
  3 18  1  0  0  0  0
  4  9  1  0  0  0  0
  4 18  2  0  0  0  0
  5 20  1  0  0  0  0
  6 22  1  0  0  0  0
  7 10  2  0  0  0  0
  7 21  1  0  0  0  0
  8 27  1  0  0  0  0
  9 27  2  0  0  0  0
 10 28  1  0  0  0  0
 11 12  2  0  0  0  0
 11 29  1  0  0  0  0
 12 30  1  0  0  0  0
 13 23  2  0  0  0  0
 13 25  1  0  0  0  0
 14 23  1  0  0  0  0
 14 26  2  0  0  0  0
 15 24  1  0  0  0  0
 15 28  2  0  0  0  0
 16 25  2  0  0  0  0
 16 26  1  0  0  0  0
 17 30  2  0  0  0  0
 17 31  1  0  0  0  0
 18 32  1  0  0  0  0
 19 32  1  0  0  0  0
 19 33  2  0  0  0  0
 19 34  1  0  0  0  0
 20 22  2  0  0  0  0
 20 41  1  0  0  0  0
 21 24  2  0  0  0  0
 21 42  1  0  0  0  0
 22 52  1  0  0  0  0
 23 51  1  0  0  0  0
 24 43  1  0  0  0  0
 25 74  1  0  0  0  0
 26 87  1  0  0  0  0
 27 96  1  0  0  0  0
 28 97  1  0  0  0  0
 29 31  2  0  0  0  0
 29 96  1  0  0  0  0
 30 98  1  0  0  0  0
 31 99  1  0  0  0  0
 32 76  2  0  0  0  0
 33 77  1  0  0  0  0
 33 81  1  0  0  0  0
 34 82  1  0  0  0  0
 34 90  2  0  0  0  0
 35 53  1  0  0  0  0
 35 83  1  0  0  0  0
 35 88  2  0  0  0  0
 36 54  1  0  0  0  0
 36 84  1  0  0  0  0
 36 91  2  0  0  0  0
 37 72  1  0  0  0  0
 37 78  1  0  0  0  0
 37 92  2  0  0  0  0
 38 65  1  0  0  0  0
 38 85  1  0  0  0  0
 38 93  2  0  0  0  0
 39 73  1  0  0  0  0
 39 86  1  0  0  0  0
 39 94  2  0  0  0  0
 40 79  1  0  0  0  0
 40 80  1  0  0  0  0
 40 95  2  0  0  0  0
 41 44  1  0  0  0  0
 42 54  1  0  0  0  0
 43 78  1  0  0  0  0
 44 46  1  0  0  0  0
 45 47  1  0  0  0  0
 45 49  1  0  0  0  0
 46 52  1  0  0  0  0
 47 55  1  0  0  0  0
 48 53  1  0  0  0  0
 48 56  1  0  0  0  0
 49 79  1  0  0  0  0
 50 55  1  0  0  0  0
 50 79  1  0  0  0  0
 51 53  1  0  0  0  0
 51 80  1  0  0  0  0
 52 84  1  0  0  0  0
 54 78  1  0  0  0  0
 55 77  1  0  0  0  0
 56 57  1  0  0  0  0
 56 80  1  0  0  0  0
 58 73  1  0  0  0  0
 59 75  1  0  0  0  0
 60 75  1  0  0  0  0
 61 75  1  0  0  0  0
 62 87  1  0  0  0  0
 63 87  1  0  0  0  0
 64 89  1  0  0  0  0
 65 66  1  0  0  0  0
 66 67  1  0  0  0  0
 67 68  1  0  0  0  0
 68 70  1  0  0  0  0
 69 71  1  0  0  0  0
 69 85  1  0  0  0  0
 70 88  1  0  0  0  0
 71 97  1  0  0  0  0
 72 75  1  0  0  0  0
 72 86  1  0  0  0  0
 73 89  1  0  0  0  0
 74100  1  0  0  0  0
 74101  1  0  0  0  0
 74102  1  0  0  0  0
 76 77  1  0  0  0  0
M  CHG  2  88   1  89   1
M  ISO  4  40 100  71 101  80 100  97 101
M  END
> <Batch ID>
0016

> <Smiles>
CNC(C)C(=O)NC(C(=O)N1Cc2cc([101O:1][101CH2:1]CNC(=O)CCCCCNC(N)=C3CC(C)[100N:0]([100C:0](=O)N4CCCC(n5nc(-c6ccc(Oc7ccc(F)cc7F)cc6)c(C(N)=O)c5N)C4)C3c3cc(N(C)C)cc(C(F)(F)F)c3)ccc2CC1C(=O)NC1CCCc2ccccc21)C(C)(C)C

> <Shape>
0.271

> <Color>
0.059

> <Negative vol penalty>
0.000

$$$$

  -OEChem-04052315583D

 87 95  0     1  0  0  0  0  0999 V2000
  -37.5330  -12.4231   22.8662 C   0  0  0  0  0  0  0  0  0  0  0  0
  -36.9183  -13.6707   22.8320 C   0  0  0  0  0  0  0  0  0  0  0  0
  -16.6147  -26.8385   24.0335 C   0  0  0  0  0  0  0  0  0  0  0  0
  -18.3584  -26.1555   25.5599 C   0  0  0  0  0  0  0  0  0  0  0  0
  -37.0490  -11.3868   22.0690 C   0  0  0  0  0  0  0  0  0  0  0  0
  -35.8198  -13.8829   21.9998 C   0  0  0  0  0  0  0  0  0  0  0  0
  -30.9930  -17.4818   23.1203 C   0  0  0  0  0  0  0  0  0  0  0  0
  -15.6525  -26.3237   24.9022 C   0  0  0  0  0  0  0  0  0  0  0  0
  -17.3962  -25.6408   26.4287 C   0  0  0  0  0  0  0  0  0  0  0  0
  -30.6764  -18.7786   22.7179 C   0  0  0  0  0  0  0  0  0  0  0  0
  -14.1296  -27.2629   27.7713 C   0  0  0  0  0  0  0  0  0  0  0  0
  -13.0033  -28.0447   28.0279 C   0  0  0  0  0  0  0  0  0  0  0  0
  -29.3608  -17.8876   20.9028 C   0  0  0  0  0  0  0  0  0  0  0  0
  -29.1587  -27.9847   21.0630 C   0  0  0  0  0  0  0  0  0  0  0  0
  -11.5887  -26.2965   27.1447 C   0  0  0  0  0  0  0  0  0  0  0  0
  -17.9677  -26.7544   24.3623 C   0  0  0  0  0  0  0  0  0  0  0  0
  -19.4850  -28.5924   23.4529 C   0  0  0  0  0  0  0  0  0  0  0  0
  -35.9380  -11.5836   21.2337 C   0  0  0  0  0  0  0  0  0  0  0  0
  -30.5040  -16.3765   22.4093 C   0  0  0  0  0  0  0  0  0  0  0  0
  -35.3213  -12.8486   21.1896 C   0  0  0  0  0  0  0  0  0  0  0  0
  -29.6707  -16.5778   21.2997 C   0  0  0  0  0  0  0  0  0  0  0  0
  -28.7065  -26.6837   20.8432 C   0  0  0  0  0  0  0  0  0  0  0  0
  -26.4497  -27.5099   20.5960 C   0  0  0  0  0  0  0  0  0  0  0  0
  -16.0433  -25.7249   26.0999 C   0  0  0  0  0  0  0  0  0  0  0  0
  -29.8625  -18.9817   21.6073 C   0  0  0  0  0  0  0  0  0  0  0  0
  -13.9855  -25.9980   27.2014 C   0  0  0  0  0  0  0  0  0  0  0  0
  -11.7328  -27.5615   27.7146 C   0  0  0  0  0  0  0  0  0  0  0  0
  -28.2564  -29.0484   21.0494 C   0  0  0  0  0  0  0  0  0  0  0  0
  -12.7150  -25.5148   26.8881 C   0  0  0  0  0  0  0  0  0  0  0  0
  -27.3520  -26.4463   20.6096 C   0  0  0  0  0  0  0  0  0  0  0  0
  -26.9019  -28.8110   20.8158 C   0  0  0  0  0  0  0  0  0  0  0  0
  -18.9622  -27.2854   23.4650 C   0  0  0  0  0  0  0  0  0  0  0  0
  -20.3899  -28.5907   22.4197 C   0  0  0  0  0  0  0  0  0  0  0  0
  -19.1799  -29.7083   24.2999 C   0  0  0  0  0  0  0  0  0  0  0  0
  -31.8313  -13.9912   20.7806 C   0  0  0  0  0  0  0  0  0  0  0  0
  -31.3045  -24.5105   19.4864 C   0  0  0  0  0  0  0  0  0  0  0  0
  -28.7726  -12.9251   20.6071 C   0  0  0  0  0  0  0  0  0  0  0  0
  -25.4402  -13.6562   20.6951 C   0  0  0  0  0  0  0  0  0  0  0  0
  -24.5471  -26.2006   19.5898 C   0  0  0  0  0  0  0  0  0  0  0  0
  -35.4800  -10.4468   20.3548 C   0  0  0  0  0  0  0  0  0  0  0  0
  -30.8330  -14.9837   22.8721 C   0  0  0  0  0  0  0  0  0  0  0  0
  -29.1035  -15.4246   20.5143 C   0  0  0  0  0  0  0  0  0  0  0  0
  -34.0799  -10.6468   19.7804 C   0  0  0  0  0  0  0  0  0  0  0  0
  -21.2354  -25.1685   18.7871 C   0  0  0  0  0  0  0  0  0  0  0  0
  -33.9297  -12.0573   19.2191 C   0  0  0  0  0  0  0  0  0  0  0  0
  -20.3917  -25.7348   19.9316 C   0  0  0  0  0  0  0  0  0  0  0  0
  -22.6014  -24.6877   19.2735 C   0  0  0  0  0  0  0  0  0  0  0  0
  -22.5280  -26.2431   21.1826 C   0  0  0  0  0  0  0  0  0  0  0  0
  -34.1121  -13.1108   20.3183 C   0  0  1  0  0  0  0  0  0  0  0  0
  -30.6995  -13.9399   21.7676 C   0  0  1  0  0  0  0  0  0  0  0  0
  -21.1681  -26.7999   20.7304 C   0  0  2  0  0  0  0  0  0  0  0  0
  -32.1783  -24.3092   18.2710 C   0  0  0  0  0  0  0  0  0  0  0  0
  -23.1817  -12.5826   20.4853 C   0  0  0  0  0  0  0  0  0  0  0  0
  -29.1318  -12.7663   17.5813 C   0  0  0  0  0  0  0  0  0  0  0  0
  -26.6418  -12.6227   17.3632 C   0  0  0  0  0  0  0  0  0  0  0  0
  -27.8896  -10.8426   18.5868 C   0  0  0  0  0  0  0  0  0  0  0  0
  -24.6813  -14.4452   23.4447 C   0  0  0  0  0  0  0  0  0  0  0  0
  -29.6822  -25.5404   20.8588 C   0  0  0  0  0  0  0  0  0  0  0  0
  -31.3969  -23.4798   20.5977 C   0  0  0  0  0  0  0  0  0  0  0  0
  -30.3921  -22.3472   20.4131 C   0  0  0  0  0  0  0  0  0  0  0  0
  -30.5159  -21.2648   21.4784 C   0  0  0  0  0  0  0  0  0  1  0  0
  -27.6245  -13.1225   19.6469 C   0  0  1  0  0  0  0  0  0  0  0  0
  -24.2863  -13.0092   21.4396 C   0  0  2  0  0  0  0  0  0  0  0  0
  -27.8340  -12.3605   18.3080 C   0  0  0  0  0  0  0  0  0  0  0  0
  -19.4908  -26.5098   22.5148 N   0  0  0  0  0  0  0  0  0  0  0  0
  -30.4575  -25.4733   19.6299 N   0  0  0  0  0  0  0  0  0  0  0  0
  -20.3552  -27.3319   21.8959 N   0  0  0  0  0  0  0  0  0  0  0  0
  -29.4590  -14.0819   21.0026 N   0  0  0  0  0  0  0  0  0  0  0  0
  -23.2804  -25.7504   20.0181 N   0  0  0  0  0  0  0  0  0  0  0  0
  -21.2039  -29.5432   21.9171 N   0  0  0  0  0  0  0  0  0  0  0  0
  -18.2258  -29.5375   25.3122 N   0  0  0  0  0  0  0  0  0  0  0  0
  -25.0802  -27.2367   20.3560 N   0  0  0  0  0  0  0  0  0  0  0  0
  -32.9163  -13.2090   21.1276 N   0  0  0  0  0  0  0  0  0  0  0  0
  -26.4170  -12.7388   20.3702 N   0  0  0  0  0  0  0  0  0  0  0  0
  -23.7098  -13.9618   22.4301 N   0  3  0  0  0  0  0  0  0  0  0  0
  -19.7250  -30.8285   24.1527 O   0  0  0  0  0  0  0  0  0  0  0  0
  -31.7273  -14.6878   19.7778 O   0  0  0  0  0  0  0  0  0  0  0  0
  -29.0456  -11.7873   20.9976 O   0  0  0  0  0  0  0  0  0  0  0  0
  -25.4703  -14.8549   20.4252 O   0  0  0  0  0  0  0  0  0  0  0  0
  -25.1049  -25.7222   18.5988 O   0  0  0  0  0  0  0  0  0  0  0  0
  -15.1046  -25.2227   26.9480 O   0  0  0  0  0  0  0  0  0  0  0  0
  -29.5525  -20.2464   21.2120 O   0  0  0  0  0  0  0  0  0  1  0  0
  -10.6512  -28.3117   27.9625 F   0  0  0  0  0  0  0  0  0  0  0  0
  -28.7087  -30.2926   21.2627 F   0  0  0  0  0  0  0  0  0  0  0  0
  -12.5702  -24.2998   26.3416 F   0  0  0  0  0  0  0  0  0  0  0  0
  -26.9205  -25.1934   20.3985 F   0  0  0  0  0  0  0  0  0  0  0  0
  -25.8135  -30.1537   20.8063 Cl  0  0  0  0  0  0  0  0  0  0  0  0
  1  2  1  0  0  0  0
  1  5  2  0  0  0  0
  2  6  2  0  0  0  0
  3  8  2  0  0  0  0
  3 16  1  0  0  0  0
  4  9  1  0  0  0  0
  4 16  2  0  0  0  0
  5 18  1  0  0  0  0
  6 20  1  0  0  0  0
  7 10  2  0  0  0  0
  7 19  1  0  0  0  0
  8 24  1  0  0  0  0
  9 24  2  0  0  0  0
 10 25  1  0  0  0  0
 11 12  2  0  0  0  0
 11 26  1  0  0  0  0
 12 27  1  0  0  0  0
 13 21  1  0  0  0  0
 13 25  2  0  0  0  0
 14 22  1  0  0  0  0
 14 28  2  0  0  0  0
 15 27  2  0  0  0  0
 15 29  1  0  0  0  0
 16 32  1  0  0  0  0
 17 32  1  0  0  0  0
 17 33  2  0  0  0  0
 17 34  1  0  0  0  0
 18 20  2  0  0  0  0
 18 40  1  0  0  0  0
 19 21  2  0  0  0  0
 19 41  1  0  0  0  0
 20 49  1  0  0  0  0
 21 42  1  0  0  0  0
 22 30  2  0  0  0  0
 22 58  1  0  0  0  0
 23 30  1  0  0  0  0
 23 31  2  0  0  0  0
 23 72  1  0  0  0  0
 24 81  1  0  0  0  0
 25 82  1  0  0  0  0
 26 29  2  0  0  0  0
 26 81  1  0  0  0  0
 27 83  1  0  0  0  0
 28 31  1  0  0  0  0
 28 84  1  0  0  0  0
 29 85  1  0  0  0  0
 30 86  1  0  0  0  0
 31 87  1  0  0  0  0
 32 65  2  0  0  0  0
 33 67  1  0  0  0  0
 33 70  1  0  0  0  0
 34 71  1  0  0  0  0
 34 76  2  0  0  0  0
 35 50  1  0  0  0  0
 35 73  1  0  0  0  0
 35 77  2  0  0  0  0
 36 52  1  0  0  0  0
 36 59  1  0  0  0  0
 36 66  2  0  0  0  0
 37 62  1  0  0  0  0
 37 68  1  0  0  0  0
 37 78  2  0  0  0  0
 38 63  1  0  0  0  0
 38 74  1  0  0  0  0
 38 79  2  0  0  0  0
 39 69  1  0  0  0  0
 39 72  1  0  0  0  0
 39 80  2  0  0  0  0
 40 43  1  0  0  0  0
 41 50  1  0  0  0  0
 42 68  1  0  0  0  0
 43 45  1  0  0  0  0
 44 46  1  0  0  0  0
 44 47  1  0  0  0  0
 45 49  1  0  0  0  0
 46 51  1  0  0  0  0
 47 69  1  0  0  0  0
 48 51  1  0  0  0  0
 48 69  1  0  0  0  0
 49 73  1  0  0  0  0
 50 68  1  0  0  0  0
 51 67  1  0  0  0  0
 53 63  1  0  0  0  0
 54 64  1  0  0  0  0
 55 64  1  0  0  0  0
 56 64  1  0  0  0  0
 57 75  1  0  0  0  0
 58 66  1  0  0  0  0
 59 60  1  0  0  0  0
 60 61  1  0  0  0  0
 61 82  1  0  0  0  0
 62 64  1  0  0  0  0
 62 74  1  0  0  0  0
 63 75  1  0  0  0  0
 65 67  1  0  0  0  0
M  CHG  1  75   1
M  ISO  4  39 100  61 101  72 100  82 101
M  END
> <Batch ID>
0016

> <Smiles>
C=C(CC[101CH2:1][101O:1]c1ccc2c(c1)CN(C(=O)C(NC(=O)C(C)NC)C(C)(C)C)C(C(=O)NC1CCCc3ccccc31)C2)NCc1cc(F)c(Cl)c([100NH:0][100C:0](=O)N2CCCC(n3nc(-c4ccc(Oc5ccc(F)cc5F)cc4)c(C(N)=O)c3N)C2)c1F

> <Shape>
0.257

> <Color>
0.089

> <Negative vol penalty>
0.000

$$$$

  -OEChem-04052315583D

 97106  0     1  0  0  0  0  0999 V2000
  -35.0196  -35.1693   31.0148 C   0  0  0  0  0  0  0  0  0  0  0  0
  -34.3689  -33.9739   30.7268 C   0  0  0  0  0  0  0  0  0  0  0  0
  -23.4012   -9.8548   19.8345 C   0  0  0  0  0  0  0  0  0  0  0  0
  -24.0242   -9.8640   22.1688 C   0  0  0  0  0  0  0  0  0  0  0  0
  -34.3195  -36.3738   30.9594 C   0  0  0  0  0  0  0  0  0  0  0  0
  -33.0172  -33.9822   30.3842 C   0  0  0  0  0  0  0  0  0  0  0  0
  -32.0020  -31.0122   26.4101 C   0  0  0  0  0  0  0  0  0  0  0  0
  -22.7890   -8.6129   20.0028 C   0  0  0  0  0  0  0  0  0  0  0  0
  -23.4120   -8.6221   22.3371 C   0  0  0  0  0  0  0  0  0  0  0  0
  -31.9271  -29.6397   26.6436 C   0  0  0  0  0  0  0  0  0  0  0  0
  -20.2749   -7.4246   22.7179 C   0  0  0  0  0  0  0  0  0  0  0  0
  -19.4635   -7.2504   23.8390 C   0  0  0  0  0  0  0  0  0  0  0  0
  -31.6119  -15.4386   23.2030 C   0  0  0  0  0  0  0  0  0  0  0  0
  -29.5194  -29.7838   26.6815 C   0  0  0  0  0  0  0  0  0  0  0  0
  -31.8849  -14.2319   25.7627 C   0  0  0  0  0  0  0  0  0  0  0  0
  -20.8861   -5.4471   24.5883 C   0  0  0  0  0  0  0  0  0  0  0  0
  -24.0189  -10.4804   20.9175 C   0  0  0  0  0  0  0  0  0  0  0  0
  -32.1172  -16.1469   24.2768 C   0  0  0  0  0  0  0  0  0  0  0  0
  -24.0598  -13.0310   20.8974 C   0  0  0  0  0  0  0  0  0  0  0  0
  -32.9609  -36.3977   30.6066 C   0  0  0  0  0  0  0  0  0  0  0  0
  -30.8345  -31.7838   26.3213 C   0  0  0  0  0  0  0  0  0  0  0  0
  -32.2979  -35.1879   30.3253 C   0  0  0  0  0  0  0  0  0  0  0  0
  -29.5821  -31.1654   26.4443 C   0  0  0  0  0  0  0  0  0  0  0  0
  -32.2474  -15.5443   25.5315 C   0  0  0  0  0  0  0  0  0  0  0  0
  -31.2382  -14.1072   23.4151 C   0  0  0  0  0  0  0  0  0  0  0  0
  -22.7943   -7.9965   21.2541 C   0  0  0  0  0  0  0  0  0  0  0  0
  -30.6857  -29.0258   26.7822 C   0  0  0  0  0  0  0  0  0  0  0  0
  -21.3918   -6.6100   22.5319 C   0  0  0  0  0  0  0  0  0  0  0  0
  -19.7691   -6.2616   24.7742 C   0  0  0  0  0  0  0  0  0  0  0  0
  -21.6974   -5.6213   23.4671 C   0  0  0  0  0  0  0  0  0  0  0  0
  -31.3735  -13.5098   24.6826 C   0  0  0  0  0  0  0  0  0  0  0  0
  -24.6520  -11.7631   20.7441 C   0  0  0  0  0  0  0  0  0  0  0  0
  -25.0723  -13.9181   20.6245 C   0  0  0  0  0  0  0  0  0  0  0  0
  -32.6001  -17.5138   24.4410 C   0  0  0  0  0  0  0  0  0  0  0  0
  -33.0265  -17.6919   25.8696 C   0  0  0  0  0  0  0  0  0  0  0  0
  -22.7148  -13.3761   21.2545 C   0  0  0  0  0  0  0  0  0  0  0  0
  -32.6773  -18.4881   23.5241 C   0  0  0  0  0  0  0  0  0  0  0  0
  -29.6206  -34.2135   27.9726 C   0  0  0  0  0  0  0  0  0  0  0  0
  -27.3854  -34.1864   25.6219 C   0  0  0  0  0  0  0  0  0  0  0  0
  -25.7581  -32.4280   23.1915 C   0  0  0  0  0  0  0  0  0  0  0  0
  -31.0263  -13.5484   20.9678 C   0  0  0  0  0  0  0  0  0  0  0  0
  -32.2343  -37.7193   30.6061 C   0  0  0  0  0  0  0  0  0  0  0  0
  -30.9317  -33.2587   26.0424 C   0  0  0  0  0  0  0  0  0  0  0  0
  -28.2984  -31.9457   26.3369 C   0  0  0  0  0  0  0  0  0  0  0  0
  -30.8976  -37.6792   29.8699 C   0  0  0  0  0  0  0  0  0  0  0  0
  -29.1046  -14.3292   18.0739 C   0  0  0  0  0  0  0  0  0  0  0  0
  -30.0955  -36.4504   30.2862 C   0  0  0  0  0  0  0  0  0  0  0  0
  -27.6896  -13.8807   18.4465 C   0  0  0  0  0  0  0  0  0  0  0  0
  -30.1658  -13.3885   18.6421 C   0  0  0  0  0  0  0  0  0  0  0  0
  -28.6538  -12.6950   20.4593 C   0  0  0  0  0  0  0  0  0  0  0  0
  -30.8386  -35.1584   29.9257 C   0  0  1  0  0  0  0  0  0  0  0  0
  -29.6930  -34.0329   26.4827 C   0  0  1  0  0  0  0  0  0  0  0  0
  -27.5535  -13.6477   19.9640 C   0  0  2  0  0  0  0  0  0  0  0  0
  -28.6799  -17.9119   20.7888 C   0  0  0  0  0  0  0  0  0  0  0  0
  -35.3331  -19.2741   20.3068 C   0  0  0  0  0  0  0  0  0  0  0  0
  -23.9556  -32.6640   21.4616 C   0  0  0  0  0  0  0  0  0  0  0  0
  -25.2663  -34.0204   27.8109 C   0  0  0  0  0  0  0  0  0  0  0  0
  -23.6183  -33.3106   26.0648 C   0  0  0  0  0  0  0  0  0  0  0  0
  -24.6959  -35.5557   25.9209 C   0  0  0  0  0  0  0  0  0  0  0  0
  -27.6382  -31.8353   20.9840 C   0  0  0  0  0  0  0  0  0  0  0  0
  -33.1982  -19.8680   23.8189 C   0  0  0  0  0  0  0  0  0  0  0  0
  -30.1660  -17.6427   20.9613 C   0  0  0  0  0  0  0  0  0  0  0  0
  -34.4698  -18.5068   21.2950 C   0  0  0  0  0  0  0  0  0  0  0  0
  -32.1319  -20.8367   24.3477 C   0  0  0  0  0  0  0  0  0  0  0  0
  -32.6808  -22.2412   24.6195 C   0  0  0  0  0  0  0  0  0  0  0  0
  -31.6371  -23.1961   25.2076 C   0  0  0  0  0  0  0  0  0  0  0  0
  -32.2014  -24.5775   25.5486 C   0  0  0  0  0  0  0  0  0  0  0  0
  -31.1213  -25.4827   26.1506 C   0  0  0  0  0  0  0  0  0  0  0  0
  -30.7391  -18.4427   22.1201 C   0  0  0  0  0  0  0  0  0  0  0  0
  -33.0125  -18.9282   21.1952 C   0  0  0  0  0  0  0  0  0  0  0  0
  -31.6510  -26.8739   26.4763 C   0  0  0  0  0  0  0  0  0  1  0  0
  -26.0624  -33.4902   25.4127 C   0  0  1  0  0  0  0  0  0  0  0  0
  -25.4467  -32.7621   21.7438 C   0  0  2  0  0  0  0  0  0  0  0  0
  -24.9348  -34.0796   26.3063 C   0  0  0  0  0  0  0  0  0  0  0  0
  -25.9407  -11.8340   20.4004 N   0  0  0  0  0  0  0  0  0  0  0  0
  -26.1666  -13.1572   20.3353 N   0  0  0  0  0  0  0  0  0  0  0  0
  -32.7782  -16.4480   26.4587 N   0  0  0  0  0  0  0  0  0  0  0  0
  -28.4459  -33.3860   26.0699 N   0  0  0  0  0  0  0  0  0  0  0  0
  -29.9767  -13.2187   20.0844 N   0  0  0  0  0  0  0  0  0  0  0  0
  -25.1243  -15.2669   20.6060 N   0  0  0  0  0  0  0  0  0  0  0  0
  -21.8026  -12.3411   21.5014 N   0  0  0  0  0  0  0  0  0  0  0  0
  -30.7196  -13.3768   22.3172 N   0  0  0  0  0  0  0  0  0  0  0  0
  -30.7061  -34.8767   28.5123 N   0  0  0  0  0  0  0  0  0  0  0  0
  -25.7874  -33.5577   23.9815 N   0  0  0  0  0  0  0  0  0  0  0  0
  -26.1605  -31.8252   20.8309 N   0  3  0  0  0  0  0  0  0  0  0  0
  -32.2126  -18.1776   22.2191 N   0  3  0  0  0  0  0  0  0  0  0  0
  -33.4821  -18.7015   26.3742 O   0  0  0  0  0  0  0  0  0  0  0  0
  -22.3289  -14.5669   21.3359 O   0  0  0  0  0  0  0  0  0  0  0  0
  -28.6509  -33.7844   28.5868 O   0  0  0  0  0  0  0  0  0  0  0  0
  -27.4766  -35.3944   25.3894 O   0  0  0  0  0  0  0  0  0  0  0  0
  -25.9520  -31.2793   23.5832 O   0  0  0  0  0  0  0  0  0  0  0  0
  -32.1076  -13.9791   20.5588 O   0  0  0  0  0  0  0  0  0  0  0  0
  -22.1968   -6.7847   21.4188 O   0  0  0  0  0  0  0  0  0  0  0  0
  -30.6091  -27.6762   27.0126 O   0  0  0  0  0  0  0  0  0  1  0  0
  -18.9907   -6.0955   25.8516 F   0  0  0  0  0  0  0  0  0  0  0  0
  -22.7698   -4.8364   23.2945 F   0  0  0  0  0  0  0  0  0  0  0  0
  -30.9126  -11.8640   24.9487 Cl  0  0  0  0  0  0  0  0  0  0  0  0
  1  2  1  0  0  0  0
  1  5  2  0  0  0  0
  2  6  2  0  0  0  0
  3  8  2  0  0  0  0
  3 17  1  0  0  0  0
  4  9  1  0  0  0  0
  4 17  2  0  0  0  0
  5 20  1  0  0  0  0
  6 22  1  0  0  0  0
  7 10  2  0  0  0  0
  7 21  1  0  0  0  0
  8 26  1  0  0  0  0
  9 26  2  0  0  0  0
 10 27  1  0  0  0  0
 11 12  2  0  0  0  0
 11 28  1  0  0  0  0
 12 29  1  0  0  0  0
 13 18  1  0  0  0  0
 13 25  2  0  0  0  0
 14 23  1  0  0  0  0
 14 27  2  0  0  0  0
 15 24  1  0  0  0  0
 15 31  2  0  0  0  0
 16 29  2  0  0  0  0
 16 30  1  0  0  0  0
 17 32  1  0  0  0  0
 18 24  2  0  0  0  0
 18 34  1  0  0  0  0
 19 32  1  0  0  0  0
 19 33  2  0  0  0  0
 19 36  1  0  0  0  0
 20 22  2  0  0  0  0
 20 42  1  0  0  0  0
 21 23  2  0  0  0  0
 21 43  1  0  0  0  0
 22 51  1  0  0  0  0
 23 44  1  0  0  0  0
 24 77  1  0  0  0  0
 25 31  1  0  0  0  0
 25 82  1  0  0  0  0
 26 93  1  0  0  0  0
 27 94  1  0  0  0  0
 28 30  2  0  0  0  0
 28 93  1  0  0  0  0
 29 95  1  0  0  0  0
 30 96  1  0  0  0  0
 31 97  1  0  0  0  0
 32 75  2  0  0  0  0
 33 76  1  0  0  0  0
 33 80  1  0  0  0  0
 34 35  1  0  0  0  0
 34 37  2  0  0  0  0
 35 77  1  0  0  0  0
 35 87  2  0  0  0  0
 36 81  1  0  0  0  0
 36 88  2  0  0  0  0
 37 61  1  0  0  0  0
 37 86  1  0  0  0  0
 38 52  1  0  0  0  0
 38 83  1  0  0  0  0
 38 89  2  0  0  0  0
 39 72  1  0  0  0  0
 39 78  1  0  0  0  0
 39 90  2  0  0  0  0
 40 73  1  0  0  0  0
 40 84  1  0  0  0  0
 40 91  2  0  0  0  0
 41 79  1  0  0  0  0
 41 82  1  0  0  0  0
 41 92  2  0  0  0  0
 42 45  1  0  0  0  0
 43 52  1  0  0  0  0
 44 78  1  0  0  0  0
 45 47  1  0  0  0  0
 46 48  1  0  0  0  0
 46 49  1  0  0  0  0
 47 51  1  0  0  0  0
 48 53  1  0  0  0  0
 49 79  1  0  0  0  0
 50 53  1  0  0  0  0
 50 79  1  0  0  0  0
 51 83  1  0  0  0  0
 52 78  1  0  0  0  0
 53 76  1  0  0  0  0
 54 62  1  0  0  0  0
 55 63  1  0  0  0  0
 56 73  1  0  0  0  0
 57 74  1  0  0  0  0
 58 74  1  0  0  0  0
 59 74  1  0  0  0  0
 60 85  1  0  0  0  0
 61 64  1  0  0  0  0
 62 69  1  0  0  0  0
 63 70  1  0  0  0  0
 64 65  1  0  0  0  0
 65 66  1  0  0  0  0
 66 67  1  0  0  0  0
 67 68  1  0  0  0  0
 68 71  1  0  0  0  0
 69 86  1  0  0  0  0
 70 86  1  0  0  0  0
 71 94  1  0  0  0  0
 72 74  1  0  0  0  0
 72 84  1  0  0  0  0
 73 85  1  0  0  0  0
 75 76  1  0  0  0  0
M  CHG  2  85   1  86   1
M  ISO  4  41 100  71 101  82 100  94 101
M  END
> <Batch ID>
0016

> <Smiles>
CCCN(CCC)C(CCCCCC[101CH2:1][101O:1]c1ccc2c(c1)CN(C(=O)C(NC(=O)C(C)NC)C(C)(C)C)C(C(=O)NC1CCCc3ccccc31)C2)=C1C(=O)Nc2cc(Cl)c([100NH:0][100C:0](=O)N3CCCC(n4nc(-c5ccc(Oc6ccc(F)cc6F)cc5)c(C(N)=O)c4N)C3)cc21

> <Shape>
0.222

> <Color>
0.153

> <Negative vol penalty>
0.000

$$$$

  -OEChem-04052315583D

 80 88  0     1  0  0  0  0  0999 V2000
  -27.9402  -35.2459   24.7350 C   0  0  0  0  0  0  0  0  0  0  0  0
  -28.7270  -34.1982   24.2675 C   0  0  0  0  0  0  0  0  0  0  0  0
  -24.2967   -9.5470   21.4829 C   0  0  0  0  0  0  0  0  0  0  0  0
  -24.7849  -10.6736   23.5636 C   0  0  0  0  0  0  0  0  0  0  0  0
  -26.5886  -35.0347   25.0046 C   0  0  0  0  0  0  0  0  0  0  0  0
  -28.1629  -32.9382   24.0703 C   0  0  0  0  0  0  0  0  0  0  0  0
  -28.6843  -27.1901   19.8273 C   0  0  0  0  0  0  0  0  0  0  0  0
  -23.9220   -8.4043   22.1895 C   0  0  0  0  0  0  0  0  0  0  0  0
  -24.4102   -9.5309   24.2703 C   0  0  0  0  0  0  0  0  0  0  0  0
  -28.8348  -25.8061   19.9023 C   0  0  0  0  0  0  0  0  0  0  0  0
  -21.2316   -7.3208   23.9277 C   0  0  0  0  0  0  0  0  0  0  0  0
  -20.0574   -6.6752   23.5406 C   0  0  0  0  0  0  0  0  0  0  0  0
  -26.4710  -25.5782   20.3262 C   0  0  0  0  0  0  0  0  0  0  0  0
  -29.2226  -20.8560   18.9697 C   0  0  0  0  0  0  0  0  0  0  0  0
  -28.9941  -21.0078   21.3700 C   0  0  0  0  0  0  0  0  0  0  0  0
  -21.3159   -4.6664   23.0735 C   0  0  0  0  0  0  0  0  0  0  0  0
  -24.7282  -10.6816   22.1699 C   0  0  0  0  0  0  0  0  0  0  0  0
  -24.2880  -12.9335   21.0549 C   0  0  0  0  0  0  0  0  0  0  0  0
  -26.0055  -33.7740   24.8014 C   0  0  0  0  0  0  0  0  0  0  0  0
  -27.4258  -27.7803   20.0123 C   0  0  0  0  0  0  0  0  0  0  0  0
  -26.8026  -32.7096   24.3387 C   0  0  0  0  0  0  0  0  0  0  0  0
  -26.3068  -26.9697   20.2505 C   0  0  0  0  0  0  0  0  0  0  0  0
  -29.1331  -21.6276   20.1282 C   0  0  0  0  0  0  0  0  0  0  0  0
  -29.1731  -19.4645   19.0529 C   0  0  0  0  0  0  0  0  0  0  0  0
  -28.9446  -19.6162   21.4533 C   0  0  0  0  0  0  0  0  0  0  0  0
  -29.0341  -18.8446   20.2947 C   0  0  0  0  0  0  0  0  0  0  0  0
  -23.9787   -8.3962   23.5832 C   0  0  0  0  0  0  0  0  0  0  0  0
  -27.7285  -25.0001   20.1547 C   0  0  0  0  0  0  0  0  0  0  0  0
  -22.4480   -6.6393   23.8877 C   0  0  0  0  0  0  0  0  0  0  0  0
  -20.0995   -5.3480   23.1135 C   0  0  0  0  0  0  0  0  0  0  0  0
  -22.4901   -5.3121   23.4606 C   0  0  0  0  0  0  0  0  0  0  0  0
  -25.1160  -11.8622   21.4404 C   0  0  0  0  0  0  0  0  0  0  0  0
  -25.1277  -13.7951   20.3922 C   0  0  0  0  0  0  0  0  0  0  0  0
  -22.8854  -13.1320   21.2760 C   0  0  0  0  0  0  0  0  0  0  0  0
  -26.1940  -29.8252   22.1110 C   0  0  0  0  0  0  0  0  0  0  0  0
  -23.6174  -29.6872   20.1451 C   0  0  0  0  0  0  0  0  0  0  0  0
  -21.8531  -27.9464   17.7991 C   0  0  0  0  0  0  0  0  0  0  0  0
  -29.9623  -16.5250   19.9719 C   0  0  0  0  0  0  0  0  0  0  0  0
  -24.5512  -33.5819   25.1518 C   0  0  0  0  0  0  0  0  0  0  0  0
  -27.2756  -29.2728   19.9017 C   0  0  0  0  0  0  0  0  0  0  0  0
  -24.9304  -27.5526   20.4362 C   0  0  0  0  0  0  0  0  0  0  0  0
  -23.9447  -32.3121   24.5600 C   0  0  0  0  0  0  0  0  0  0  0  0
  -29.8853  -13.1705   18.7809 C   0  0  0  0  0  0  0  0  0  0  0  0
  -24.8722  -31.1223   24.7854 C   0  0  0  0  0  0  0  0  0  0  0  0
  -28.5696  -12.6192   19.3350 C   0  0  0  0  0  0  0  0  0  0  0  0
  -30.5613  -14.1221   19.7665 C   0  0  0  0  0  0  0  0  0  0  0  0
  -28.3962  -14.6645   20.8093 C   0  0  0  0  0  0  0  0  0  0  0  0
  -26.2216  -31.3349   24.0886 C   0  0  1  0  0  0  0  0  0  0  0  0
  -26.0368  -29.8033   20.6168 C   0  0  1  0  0  0  0  0  0  0  0  0
  -27.6462  -13.7516   19.8255 C   0  0  2  0  0  0  0  0  0  0  0  0
  -29.2710  -18.6648   17.7940 C   0  0  0  0  0  0  0  0  0  0  0  0
  -28.7956  -18.9810   22.7981 C   0  0  0  0  0  0  0  0  0  0  0  0
  -19.7687  -28.0725   16.4074 C   0  0  0  0  0  0  0  0  0  0  0  0
  -21.9409  -28.9892   22.5971 C   0  0  0  0  0  0  0  0  0  0  0  0
  -20.1316  -28.2101   21.0519 C   0  0  0  0  0  0  0  0  0  0  0  0
  -20.8582  -30.5962   21.0161 C   0  0  0  0  0  0  0  0  0  0  0  0
  -23.3948  -27.8636   15.2742 C   0  0  0  0  0  0  0  0  0  0  0  0
  -29.1861  -23.1244   20.0386 C   0  0  0  0  0  0  0  0  0  1  0  0
  -22.3836  -28.8216   20.0590 C   0  0  1  0  0  0  0  0  0  0  0  0
  -21.2593  -28.3683   16.4673 C   0  0  2  0  0  0  0  0  0  0  0  0
  -21.3547  -29.1431   21.1795 C   0  0  0  0  0  0  0  0  0  0  0  0
  -26.3842  -12.0259   21.0547 N   0  0  0  0  0  0  0  0  0  0  0  0
  -26.3594  -13.2101   20.4198 N   0  0  0  0  0  0  0  0  0  0  0  0
  -24.8360  -29.0176   20.3253 N   0  0  0  0  0  0  0  0  0  0  0  0
  -29.6281  -15.1707   20.1840 N   0  0  0  0  0  0  0  0  0  0  0  0
  -24.9251  -14.9884   19.7944 N   0  0  0  0  0  0  0  0  0  0  0  0
  -22.1733  -12.1479   21.9751 N   0  0  0  0  0  0  0  0  0  0  0  0
  -28.9839  -17.4311   20.3796 N   0  0  0  0  0  0  0  0  0  0  0  0
  -26.1014  -31.0865   22.6679 N   0  0  0  0  0  0  0  0  0  0  0  0
  -21.8638  -28.9853   18.7057 N   0  0  0  0  0  0  0  0  0  0  0  0
  -21.9275  -27.6439   15.3494 N   0  3  0  0  0  0  0  0  0  0  0  0
  -22.2781  -14.1441   20.8515 O   0  0  0  0  0  0  0  0  0  0  0  0
  -26.3836  -28.7755   22.7140 O   0  0  0  0  0  0  0  0  0  0  0  0
  -23.5050  -30.9118   20.0487 O   0  0  0  0  0  0  0  0  0  0  0  0
  -22.2629  -26.8079   18.0150 O   0  0  0  0  0  0  0  0  0  0  0  0
  -31.0257  -16.8555   19.4409 O   0  0  0  0  0  0  0  0  0  0  0  0
  -23.6129   -7.2814   24.2731 O   0  0  0  0  0  0  0  0  0  0  0  0
  -27.8727  -23.6489   20.2291 O   0  0  0  0  0  0  0  0  0  1  0  0
  -18.9716   -4.7277   22.7432 F   0  0  0  0  0  0  0  0  0  0  0  0
  -23.6556   -4.6518   23.4212 F   0  0  0  0  0  0  0  0  0  0  0  0
  1  2  1  0  0  0  0
  1  5  2  0  0  0  0
  2  6  2  0  0  0  0
  3  8  2  0  0  0  0
  3 17  1  0  0  0  0
  4  9  1  0  0  0  0
  4 17  2  0  0  0  0
  5 19  1  0  0  0  0
  6 21  1  0  0  0  0
  7 10  2  0  0  0  0
  7 20  1  0  0  0  0
  8 27  1  0  0  0  0
  9 27  2  0  0  0  0
 10 28  1  0  0  0  0
 11 12  2  0  0  0  0
 11 29  1  0  0  0  0
 12 30  1  0  0  0  0
 13 22  1  0  0  0  0
 13 28  2  0  0  0  0
 14 23  1  0  0  0  0
 14 24  2  0  0  0  0
 15 23  2  0  0  0  0
 15 25  1  0  0  0  0
 16 30  2  0  0  0  0
 16 31  1  0  0  0  0
 17 32  1  0  0  0  0
 18 32  1  0  0  0  0
 18 33  2  0  0  0  0
 18 34  1  0  0  0  0
 19 21  2  0  0  0  0
 19 39  1  0  0  0  0
 20 22  2  0  0  0  0
 20 40  1  0  0  0  0
 21 48  1  0  0  0  0
 22 41  1  0  0  0  0
 23 58  1  0  0  0  0
 24 26  1  0  0  0  0
 24 51  1  0  0  0  0
 25 26  2  0  0  0  0
 25 52  1  0  0  0  0
 26 68  1  0  0  0  0
 27 77  1  0  0  0  0
 28 78  1  0  0  0  0
 29 31  2  0  0  0  0
 29 77  1  0  0  0  0
 30 79  1  0  0  0  0
 31 80  1  0  0  0  0
 32 62  2  0  0  0  0
 33 63  1  0  0  0  0
 33 66  1  0  0  0  0
 34 67  1  0  0  0  0
 34 72  2  0  0  0  0
 35 49  1  0  0  0  0
 35 69  1  0  0  0  0
 35 73  2  0  0  0  0
 36 59  1  0  0  0  0
 36 64  1  0  0  0  0
 36 74  2  0  0  0  0
 37 60  1  0  0  0  0
 37 70  1  0  0  0  0
 37 75  2  0  0  0  0
 38 65  1  0  0  0  0
 38 68  1  0  0  0  0
 38 76  2  0  0  0  0
 39 42  1  0  0  0  0
 40 49  1  0  0  0  0
 41 64  1  0  0  0  0
 42 44  1  0  0  0  0
 43 45  1  0  0  0  0
 43 46  1  0  0  0  0
 44 48  1  0  0  0  0
 45 50  1  0  0  0  0
 46 65  1  0  0  0  0
 47 50  1  0  0  0  0
 47 65  1  0  0  0  0
 48 69  1  0  0  0  0
 49 64  1  0  0  0  0
 50 63  1  0  0  0  0
 53 60  1  0  0  0  0
 54 61  1  0  0  0  0
 55 61  1  0  0  0  0
 56 61  1  0  0  0  0
 57 71  1  0  0  0  0
 58 78  1  0  0  0  0
 59 61  1  0  0  0  0
 59 70  1  0  0  0  0
 60 71  1  0  0  0  0
 62 63  1  0  0  0  0
M  CHG  1  71   1
M  ISO  4  38 100  58 101  68 100  78 101
M  END
> <Batch ID>
0016

> <Smiles>
CNC(C)C(=O)NC(C(=O)N1Cc2cc([101O:1][101CH2:1]c3cc(C)c([100NH:0][100C:0](=O)N4CCCC(n5nc(-c6ccc(Oc7ccc(F)cc7F)cc6)c(C(N)=O)c5N)C4)c(C)c3)ccc2CC1C(=O)NC1CCCc2ccccc21)C(C)(C)C

> <Shape>
0.358

> <Color>
0.123

> <Negative vol penalty>
0.000

$$$$

  -OEChem-04052315583D

 85 93  0     1  0  0  0  0  0999 V2000
  -26.3542  -33.1456   19.3400 C   0  0  0  0  0  0  0  0  0  0  0  0
  -27.4226  -32.4705   19.9217 C   0  0  0  0  0  0  0  0  0  0  0  0
  -23.0396   -9.8904   19.9639 C   0  0  0  0  0  0  0  0  0  0  0  0
  -23.8012   -9.9017   22.2567 C   0  0  0  0  0  0  0  0  0  0  0  0
  -25.0546  -32.6708   19.5115 C   0  0  0  0  0  0  0  0  0  0  0  0
  -27.1917  -31.3208   20.6763 C   0  0  0  0  0  0  0  0  0  0  0  0
  -30.8042  -26.3916   21.0748 C   0  0  0  0  0  0  0  0  0  0  0  0
  -22.2715   -8.7557   20.2246 C   0  0  0  0  0  0  0  0  0  0  0  0
  -23.0330   -8.7670   22.5174 C   0  0  0  0  0  0  0  0  0  0  0  0
  -31.7445  -25.9921   22.0234 C   0  0  0  0  0  0  0  0  0  0  0  0
  -20.9910   -6.0850   23.8797 C   0  0  0  0  0  0  0  0  0  0  0  0
  -20.2349   -6.0681   25.0516 C   0  0  0  0  0  0  0  0  0  0  0  0
  -30.0710  -24.6276   23.0988 C   0  0  0  0  0  0  0  0  0  0  0  0
  -32.1731  -16.4323   22.4800 C   0  0  0  0  0  0  0  0  0  0  0  0
  -19.0314   -8.0250   24.3034 C   0  0  0  0  0  0  0  0  0  0  0  0
  -23.8046  -10.4634   20.9799 C   0  0  0  0  0  0  0  0  0  0  0  0
  -24.2002  -12.9794   20.8371 C   0  0  0  0  0  0  0  0  0  0  0  0
  -24.8086  -31.5093   20.2605 C   0  0  0  0  0  0  0  0  0  0  0  0
  -29.4851  -25.9198   21.1376 C   0  0  0  0  0  0  0  0  0  0  0  0
  -25.8874  -30.8309   20.8591 C   0  0  0  0  0  0  0  0  0  0  0  0
  -29.1165  -25.0206   22.1483 C   0  0  0  0  0  0  0  0  0  0  0  0
  -32.8151  -17.2958   23.3676 C   0  0  0  0  0  0  0  0  0  0  0  0
  -32.0689  -18.1985   24.1251 C   0  0  0  0  0  0  0  0  0  0  0  0
  -30.6807  -18.2378   23.9951 C   0  0  0  0  0  0  0  0  0  0  0  0
  -30.7848  -16.4716   22.3499 C   0  0  0  0  0  0  0  0  0  0  0  0
  -22.2681   -8.1940   21.5014 C   0  0  0  0  0  0  0  0  0  0  0  0
  -31.3773  -25.1122   23.0373 C   0  0  0  0  0  0  0  0  0  0  0  0
  -20.7675   -7.0720   22.9196 C   0  0  0  0  0  0  0  0  0  0  0  0
  -19.2551   -7.0381   25.2635 C   0  0  0  0  0  0  0  0  0  0  0  0
  -19.7877   -8.0419   23.1314 C   0  0  0  0  0  0  0  0  0  0  0  0
  -30.0386  -17.3743   23.1075 C   0  0  0  0  0  0  0  0  0  0  0  0
  -24.5987  -11.6352   20.7111 C   0  0  0  0  0  0  0  0  0  0  0  0
  -25.3079  -13.7021   20.4665 C   0  0  0  0  0  0  0  0  0  0  0  0
  -22.9414  -13.5260   21.2520 C   0  0  0  0  0  0  0  0  0  0  0  0
  -26.6346  -27.2732   21.5205 C   0  0  0  0  0  0  0  0  0  0  0  0
  -25.5629  -24.2646   20.9530 C   0  0  0  0  0  0  0  0  0  0  0  0
  -26.1894  -20.9100   20.9936 C   0  0  0  0  0  0  0  0  0  0  0  0
  -30.7953  -14.6321   20.6288 C   0  0  0  0  0  0  0  0  0  0  0  0
  -23.3820  -31.0611   20.4575 C   0  0  0  0  0  0  0  0  0  0  0  0
  -28.4895  -26.3394   20.0911 C   0  0  0  0  0  0  0  0  0  0  0  0
  -27.7185  -24.4692   22.2480 C   0  0  0  0  0  0  0  0  0  0  0  0
  -23.2586  -29.6248   20.9594 C   0  0  0  0  0  0  0  0  0  0  0  0
  -29.6278  -12.2215   18.2829 C   0  0  0  0  0  0  0  0  0  0  0  0
  -24.2256  -29.3775   22.1129 C   0  0  0  0  0  0  0  0  0  0  0  0
  -28.1825  -11.9647   18.7158 C   0  0  0  0  0  0  0  0  0  0  0  0
  -30.5485  -12.4415   19.4819 C   0  0  0  0  0  0  0  0  0  0  0  0
  -28.6585  -13.2189   20.8577 C   0  0  0  0  0  0  0  0  0  0  0  0
  -25.6797  -29.5663   21.6640 C   0  0  1  0  0  0  0  0  0  0  0  0
  -27.0423  -26.1986   20.5526 C   0  0  1  0  0  0  0  0  0  0  0  0
  -27.6813  -13.0559   19.6820 C   0  0  2  0  0  0  0  0  0  0  0  0
  -34.3030  -17.2340   23.4873 C   0  0  0  0  0  0  0  0  0  0  0  0
  -29.8980  -19.2157   24.8162 C   0  0  0  0  0  0  0  0  0  0  0  0
  -25.1075  -18.6981   20.5097 C   0  0  0  0  0  0  0  0  0  0  0  0
  -23.9816  -24.4716   23.5543 C   0  0  0  0  0  0  0  0  0  0  0  0
  -23.7083  -21.9834   23.5048 C   0  0  0  0  0  0  0  0  0  0  0  0
  -22.7526  -23.3781   21.6706 C   0  0  0  0  0  0  0  0  0  0  0  0
  -28.1848  -20.2595   18.9070 C   0  0  0  0  0  0  0  0  0  0  0  0
  -32.7641  -19.1272   25.0766 C   0  0  0  0  0  0  0  0  0  0  0  0
  -33.4998  -22.8816   24.9204 C   0  0  0  0  0  0  0  0  0  0  0  0
  -33.4592  -21.4847   25.5214 C   0  0  0  0  0  0  0  0  0  0  0  0
  -32.1290  -23.4220   24.5319 C   0  0  0  0  0  0  0  0  0  1  0  0
  -25.2569  -23.0594   21.8092 C   0  0  1  0  0  0  0  0  0  0  0  0
  -25.9577  -19.8294   19.9530 C   0  0  2  0  0  0  0  0  0  0  0  0
  -23.9508  -23.2349   22.6342 C   0  0  0  0  0  0  0  0  0  0  0  0
  -25.8610  -11.5085   20.2930 N   0  0  0  0  0  0  0  0  0  0  0  0
  -26.2651  -12.7826   20.1529 N   0  0  0  0  0  0  0  0  0  0  0  0
  -26.7795  -24.9143   21.2050 N   0  0  0  0  0  0  0  0  0  0  0  0
  -30.0123  -13.4918   20.3503 N   0  0  0  0  0  0  0  0  0  0  0  0
  -25.5466  -15.0281   20.3814 N   0  0  0  0  0  0  0  0  0  0  0  0
  -21.9105  -12.6418   21.5980 N   0  0  0  0  0  0  0  0  0  0  0  0
  -30.1685  -15.5781   21.4392 N   0  0  0  0  0  0  0  0  0  0  0  0
  -26.1326  -28.4113   20.9188 N   0  0  0  0  0  0  0  0  0  0  0  0
  -25.2453  -21.9115   20.9089 N   0  0  0  0  0  0  0  0  0  0  0  0
  -27.2581  -19.2604   19.4988 N   0  3  0  0  0  0  0  0  0  0  0  0
  -32.8347  -20.5284   24.5775 N   0  3  0  0  0  0  0  0  0  0  0  0
  -22.7315  -14.7619   21.2985 O   0  0  0  0  0  0  0  0  0  0  0  0
  -26.7643  -27.0831   22.7241 O   0  0  0  0  0  0  0  0  0  0  0  0
  -24.7556  -24.6123   20.0876 O   0  0  0  0  0  0  0  0  0  0  0  0
  -27.1130  -20.8680   21.8033 O   0  0  0  0  0  0  0  0  0  0  0  0
  -31.9274  -14.7724   20.1590 O   0  0  0  0  0  0  0  0  0  0  0  0
  -21.5185   -7.0869   21.7562 O   0  0  0  0  0  0  0  0  0  0  0  0
  -32.2931  -24.7212   23.9648 O   0  0  0  0  0  0  0  0  0  1  0  0
  -18.5279   -7.0208   26.3883 F   0  0  0  0  0  0  0  0  0  0  0  0
  -19.5675   -8.9918   22.2122 F   0  0  0  0  0  0  0  0  0  0  0  0
  -28.3122  -17.4236   22.9480 Cl  0  0  0  0  0  0  0  0  0  0  0  0
  1  2  1  0  0  0  0
  1  5  2  0  0  0  0
  2  6  2  0  0  0  0
  3  8  2  0  0  0  0
  3 16  1  0  0  0  0
  4  9  1  0  0  0  0
  4 16  2  0  0  0  0
  5 18  1  0  0  0  0
  6 20  1  0  0  0  0
  7 10  2  0  0  0  0
  7 19  1  0  0  0  0
  8 26  1  0  0  0  0
  9 26  2  0  0  0  0
 10 27  1  0  0  0  0
 11 12  2  0  0  0  0
 11 28  1  0  0  0  0
 12 29  1  0  0  0  0
 13 21  1  0  0  0  0
 13 27  2  0  0  0  0
 14 22  2  0  0  0  0
 14 25  1  0  0  0  0
 15 29  2  0  0  0  0
 15 30  1  0  0  0  0
 16 32  1  0  0  0  0
 17 32  1  0  0  0  0
 17 33  2  0  0  0  0
 17 34  1  0  0  0  0
 18 20  2  0  0  0  0
 18 39  1  0  0  0  0
 19 21  2  0  0  0  0
 19 40  1  0  0  0  0
 20 48  1  0  0  0  0
 21 41  1  0  0  0  0
 22 23  1  0  0  0  0
 22 51  1  0  0  0  0
 23 24  2  0  0  0  0
 23 58  1  0  0  0  0
 24 31  1  0  0  0  0
 24 52  1  0  0  0  0
 25 31  2  0  0  0  0
 25 71  1  0  0  0  0
 26 81  1  0  0  0  0
 27 82  1  0  0  0  0
 28 30  2  0  0  0  0
 28 81  1  0  0  0  0
 29 83  1  0  0  0  0
 30 84  1  0  0  0  0
 31 85  1  0  0  0  0
 32 65  2  0  0  0  0
 33 66  1  0  0  0  0
 33 69  1  0  0  0  0
 34 70  1  0  0  0  0
 34 76  2  0  0  0  0
 35 49  1  0  0  0  0
 35 72  1  0  0  0  0
 35 77  2  0  0  0  0
 36 62  1  0  0  0  0
 36 67  1  0  0  0  0
 36 78  2  0  0  0  0
 37 63  1  0  0  0  0
 37 73  1  0  0  0  0
 37 79  2  0  0  0  0
 38 68  1  0  0  0  0
 38 71  1  0  0  0  0
 38 80  2  0  0  0  0
 39 42  1  0  0  0  0
 40 49  1  0  0  0  0
 41 67  1  0  0  0  0
 42 44  1  0  0  0  0
 43 45  1  0  0  0  0
 43 46  1  0  0  0  0
 44 48  1  0  0  0  0
 45 50  1  0  0  0  0
 46 68  1  0  0  0  0
 47 50  1  0  0  0  0
 47 68  1  0  0  0  0
 48 72  1  0  0  0  0
 49 67  1  0  0  0  0
 50 66  1  0  0  0  0
 53 63  1  0  0  0  0
 54 64  1  0  0  0  0
 55 64  1  0  0  0  0
 56 64  1  0  0  0  0
 57 74  1  0  0  0  0
 58 75  1  0  0  0  0
 59 60  1  0  0  0  0
 59 61  1  0  0  0  0
 60 75  1  0  0  0  0
 61 82  1  0  0  0  0
 62 64  1  0  0  0  0
 62 73  1  0  0  0  0
 63 74  1  0  0  0  0
 65 66  1  0  0  0  0
M  CHG  2  74   1  75   1
M  ISO  4  38 100  61 101  71 100  82 101
M  END
> <Batch ID>
0016

> <Smiles>
CNC(C)C(=O)NC(C(=O)N1Cc2cc([101O:1][101CH2:1]CCNCc3c(C)cc([100NH:0][100C:0](=O)N4CCCC(n5nc(-c6ccc(Oc7ccc(F)cc7F)cc6)c(C(N)=O)c5N)C4)c(Cl)c3C)ccc2CC1C(=O)NC1CCCc2ccccc21)C(C)(C)C

> <Shape>
0.253

> <Color>
0.213

> <Negative vol penalty>
0.000

$$$$

  -OEChem-04052315583D

 85 93  0     1  0  0  0  0  0999 V2000
  -32.4797  -27.7549   23.6909 C   0  0  0  0  0  0  0  0  0  0  0  0
  -31.9201  -26.8692   22.7756 C   0  0  0  0  0  0  0  0  0  0  0  0
  -24.5226   -9.7040   21.3317 C   0  0  0  0  0  0  0  0  0  0  0  0
  -24.8809  -10.6976   23.5045 C   0  0  0  0  0  0  0  0  0  0  0  0
  -31.7334  -28.1881   24.7860 C   0  0  0  0  0  0  0  0  0  0  0  0
  -30.6139  -26.4153   22.9556 C   0  0  0  0  0  0  0  0  0  0  0  0
  -26.5213  -25.1476   18.5796 C   0  0  0  0  0  0  0  0  0  0  0  0
  -24.2398   -8.4800   21.9379 C   0  0  0  0  0  0  0  0  0  0  0  0
  -24.5980   -9.4737   24.1109 C   0  0  0  0  0  0  0  0  0  0  0  0
  -26.1223  -23.9504   17.9869 C   0  0  0  0  0  0  0  0  0  0  0  0
  -23.0706   -5.1842   22.9305 C   0  0  0  0  0  0  0  0  0  0  0  0
  -21.9653   -4.4708   22.4668 C   0  0  0  0  0  0  0  0  0  0  0  0
  -24.2587  -23.8228   19.5133 C   0  0  0  0  0  0  0  0  0  0  0  0
  -20.5243   -6.3164   23.0624 C   0  0  0  0  0  0  0  0  0  0  0  0
  -24.8433  -10.8127   22.1150 C   0  0  0  0  0  0  0  0  0  0  0  0
  -27.6146  -20.3450   21.4711 C   0  0  0  0  0  0  0  0  0  0  0  0
  -24.2229  -13.1005   21.1721 C   0  0  0  0  0  0  0  0  0  0  0  0
  -30.4141  -27.7467   24.9742 C   0  0  0  0  0  0  0  0  0  0  0  0
  -25.7970  -25.6866   19.6526 C   0  0  0  0  0  0  0  0  0  0  0  0
  -29.8497  -26.8419   24.0550 C   0  0  0  0  0  0  0  0  0  0  0  0
  -24.6491  -25.0282   20.1163 C   0  0  0  0  0  0  0  0  0  0  0  0
  -28.5883  -19.3177   21.5313 C   0  0  0  0  0  0  0  0  0  0  0  0
  -24.2774   -8.3649   23.3275 C   0  0  0  0  0  0  0  0  0  0  0  0
  -24.9925  -23.2863   18.4556 C   0  0  0  0  0  0  0  0  0  0  0  0
  -22.9028   -6.4636   23.4603 C   0  0  0  0  0  0  0  0  0  0  0  0
  -20.6922   -5.0369   22.5327 C   0  0  0  0  0  0  0  0  0  0  0  0
  -21.6297   -7.0297   23.5262 C   0  0  0  0  0  0  0  0  0  0  0  0
  -25.1361  -12.0772   21.4892 C   0  0  0  0  0  0  0  0  0  0  0  0
  -28.1094  -21.4224   22.1723 C   0  0  0  0  0  0  0  0  0  0  0  0
  -29.6486  -19.7986   22.2675 C   0  0  0  0  0  0  0  0  0  0  0  0
  -24.9929  -14.0819   20.5973 C   0  0  0  0  0  0  0  0  0  0  0  0
  -26.2938  -20.3151   20.7916 C   0  0  0  0  0  0  0  0  0  0  0  0
  -22.8053  -13.1587   21.3787 C   0  0  0  0  0  0  0  0  0  0  0  0
  -26.4507  -26.3516   22.6914 C   0  0  0  0  0  0  0  0  0  0  0  0
  -23.4806  -27.6548   22.6390 C   0  0  0  0  0  0  0  0  0  0  0  0
  -20.3842  -27.7519   21.2073 C   0  0  0  0  0  0  0  0  0  0  0  0
  -29.5746  -17.2441   20.4950 C   0  0  0  0  0  0  0  0  0  0  0  0
  -29.6629  -28.2057   26.1988 C   0  0  0  0  0  0  0  0  0  0  0  0
  -26.2252  -26.9927   20.2636 C   0  0  0  0  0  0  0  0  0  0  0  0
  -23.8253  -25.5756   21.2521 C   0  0  0  0  0  0  0  0  0  0  0  0
  -28.1571  -27.9696   26.1137 C   0  0  0  0  0  0  0  0  0  0  0  0
  -29.8092  -14.0021   19.0420 C   0  0  0  0  0  0  0  0  0  0  0  0
  -27.8655  -26.5584   25.6133 C   0  0  0  0  0  0  0  0  0  0  0  0
  -28.5392  -13.2965   19.5231 C   0  0  0  0  0  0  0  0  0  0  0  0
  -30.3850  -14.9262   20.1135 C   0  0  0  0  0  0  0  0  0  0  0  0
  -28.1662  -15.1940   21.1501 C   0  0  0  0  0  0  0  0  0  0  0  0
  -28.4275  -26.3462   24.2024 C   0  0  1  0  0  0  0  0  0  0  0  0
  -25.7078  -27.1851   21.6858 C   0  0  1  0  0  0  0  0  0  0  0  0
  -27.5132  -14.3018   20.0819 C   0  0  2  0  0  0  0  0  0  0  0  0
  -27.5143  -22.7523   22.4282 C   0  0  0  0  0  0  0  0  0  0  0  0
  -30.9256  -19.1517   22.6386 C   0  0  0  0  0  0  0  0  0  0  0  0
  -18.1570  -28.8910   21.4058 C   0  0  0  0  0  0  0  0  0  0  0  0
  -22.8154  -25.9262   25.0637 C   0  0  0  0  0  0  0  0  0  0  0  0
  -20.3905  -26.3729   24.6295 C   0  0  0  0  0  0  0  0  0  0  0  0
  -21.9272  -28.2615   25.1722 C   0  0  0  0  0  0  0  0  0  0  0  0
  -30.2032  -21.9374   23.4426 C   0  0  0  0  0  0  0  0  0  0  0  0
  -20.5970  -28.8969   18.4865 C   0  0  0  0  0  0  0  0  0  0  0  0
  -25.2028  -19.8363   17.4393 C   0  0  0  0  0  0  0  0  0  0  0  0
  -25.0022  -19.3958   18.8831 C   0  0  0  0  0  0  0  0  0  0  0  0
  -25.6239  -21.2957   17.3177 C   0  0  0  0  0  0  0  0  0  1  0  0
  -22.0851  -27.1463   22.9087 C   0  0  1  0  0  0  0  0  0  0  0  0
  -19.5253  -28.9142   20.7426 C   0  0  2  0  0  0  0  0  0  0  0  0
  -21.8210  -26.9151   24.4234 C   0  0  0  0  0  0  0  0  0  0  0  0
  -26.3904  -12.3803   21.1443 N   0  0  0  0  0  0  0  0  0  0  0  0
  -29.3462  -21.0788   22.6522 N   0  0  0  0  0  0  0  0  0  0  0  0
  -26.2707  -13.6052   20.6044 N   0  0  0  0  0  0  0  0  0  0  0  0
  -24.2882  -26.8523   21.8207 N   0  0  0  0  0  0  0  0  0  0  0  0
  -29.3576  -15.8534   20.5927 N   0  0  0  0  0  0  0  0  0  0  0  0
  -24.6947  -15.2974   20.0914 N   0  0  0  0  0  0  0  0  0  0  0  0
  -22.1726  -12.0637   21.9829 N   0  0  0  0  0  0  0  0  0  0  0  0
  -28.5147  -18.0266   20.9522 N   0  0  0  0  0  0  0  0  0  0  0  0
  -26.2043  -19.5101   19.6616 N   0  0  0  0  0  0  0  0  0  0  0  0
  -27.5692  -26.9692   23.2176 N   0  0  0  0  0  0  0  0  0  0  0  0
  -21.1752  -28.0991   22.2821 N   0  0  0  0  0  0  0  0  0  0  0  0
  -19.3329  -28.8581   19.2659 N   0  3  0  0  0  0  0  0  0  0  0  0
  -25.3752  -20.9993   21.2352 O   0  0  0  0  0  0  0  0  0  0  0  0
  -22.1175  -14.1455   21.0227 O   0  0  0  0  0  0  0  0  0  0  0  0
  -26.0386  -25.2317   22.9704 O   0  0  0  0  0  0  0  0  0  0  0  0
  -23.8386  -28.7283   23.1302 O   0  0  0  0  0  0  0  0  0  0  0  0
  -20.3536  -26.6456   20.6728 O   0  0  0  0  0  0  0  0  0  0  0  0
  -30.6123  -17.7068   20.0142 O   0  0  0  0  0  0  0  0  0  0  0  0
  -24.0012   -7.1708   23.9195 O   0  0  0  0  0  0  0  0  0  0  0  0
  -24.6012  -22.1173   17.8793 O   0  0  0  0  0  0  0  0  0  1  0  0
  -19.6310   -4.3524   22.0859 F   0  0  0  0  0  0  0  0  0  0  0  0
  -21.4624   -8.2589   24.0330 F   0  0  0  0  0  0  0  0  0  0  0  0
  1  2  1  0  0  0  0
  1  5  2  0  0  0  0
  2  6  2  0  0  0  0
  3  8  2  0  0  0  0
  3 15  1  0  0  0  0
  4  9  1  0  0  0  0
  4 15  2  0  0  0  0
  5 18  1  0  0  0  0
  6 20  1  0  0  0  0
  7 10  2  0  0  0  0
  7 19  1  0  0  0  0
  8 23  1  0  0  0  0
  9 23  2  0  0  0  0
 10 24  1  0  0  0  0
 11 12  2  0  0  0  0
 11 25  1  0  0  0  0
 12 26  1  0  0  0  0
 13 21  1  0  0  0  0
 13 24  2  0  0  0  0
 14 26  2  0  0  0  0
 14 27  1  0  0  0  0
 15 28  1  0  0  0  0
 16 22  1  0  0  0  0
 16 29  2  0  0  0  0
 16 32  1  0  0  0  0
 17 28  1  0  0  0  0
 17 31  2  0  0  0  0
 17 33  1  0  0  0  0
 18 20  2  0  0  0  0
 18 38  1  0  0  0  0
 19 21  2  0  0  0  0
 19 39  1  0  0  0  0
 20 47  1  0  0  0  0
 21 40  1  0  0  0  0
 22 30  2  0  0  0  0
 22 71  1  0  0  0  0
 23 82  1  0  0  0  0
 24 83  1  0  0  0  0
 25 27  2  0  0  0  0
 25 82  1  0  0  0  0
 26 84  1  0  0  0  0
 27 85  1  0  0  0  0
 28 64  2  0  0  0  0
 29 50  1  0  0  0  0
 29 65  1  0  0  0  0
 30 51  1  0  0  0  0
 30 65  1  0  0  0  0
 31 66  1  0  0  0  0
 31 69  1  0  0  0  0
 32 72  1  0  0  0  0
 32 76  2  0  0  0  0
 33 70  1  0  0  0  0
 33 77  2  0  0  0  0
 34 48  1  0  0  0  0
 34 73  1  0  0  0  0
 34 78  2  0  0  0  0
 35 61  1  0  0  0  0
 35 67  1  0  0  0  0
 35 79  2  0  0  0  0
 36 62  1  0  0  0  0
 36 74  1  0  0  0  0
 36 80  2  0  0  0  0
 37 68  1  0  0  0  0
 37 71  1  0  0  0  0
 37 81  2  0  0  0  0
 38 41  1  0  0  0  0
 39 48  1  0  0  0  0
 40 67  1  0  0  0  0
 41 43  1  0  0  0  0
 42 44  1  0  0  0  0
 42 45  1  0  0  0  0
 43 47  1  0  0  0  0
 44 49  1  0  0  0  0
 45 68  1  0  0  0  0
 46 49  1  0  0  0  0
 46 68  1  0  0  0  0
 47 73  1  0  0  0  0
 48 67  1  0  0  0  0
 49 66  1  0  0  0  0
 52 62  1  0  0  0  0
 53 63  1  0  0  0  0
 54 63  1  0  0  0  0
 55 63  1  0  0  0  0
 56 65  1  0  0  0  0
 57 75  1  0  0  0  0
 58 59  1  0  0  0  0
 58 60  1  0  0  0  0
 59 72  1  0  0  0  0
 60 83  1  0  0  0  0
 61 63  1  0  0  0  0
 61 74  1  0  0  0  0
 62 75  1  0  0  0  0
 64 66  1  0  0  0  0
M  CHG  1  75   1
M  ISO  4  37 100  60 101  71 100  83 101
M  END
> <Batch ID>
0016

> <Smiles>
CNC(C)C(=O)NC(C(=O)N1Cc2cc([101O:1][101CH2:1]CCNC(=O)c3c([100NH:0][100C:0](=O)N4CCCC(n5nc(-c6ccc(Oc7ccc(F)cc7F)cc6)c(C(N)=O)c5N)C4)c(C)n(C)c3C)ccc2CC1C(=O)NC1CCCc2ccccc21)C(C)(C)C

> <Shape>
0.204

> <Color>
0.118

> <Negative vol penalty>
0.000

$$$$

  -OEChem-04052315583D

 85 93  0     1  0  0  0  0  0999 V2000
  -34.6507  -32.2684   18.1297 C   0  0  0  0  0  0  0  0  0  0  0  0
  -34.4427  -31.4171   19.2102 C   0  0  0  0  0  0  0  0  0  0  0  0
  -23.0635   -9.8736   19.9263 C   0  0  0  0  0  0  0  0  0  0  0  0
  -23.8376   -9.8506   22.2148 C   0  0  0  0  0  0  0  0  0  0  0  0
  -33.6028  -32.5509   17.2544 C   0  0  0  0  0  0  0  0  0  0  0  0
  -33.1862  -30.8486   19.4166 C   0  0  0  0  0  0  0  0  0  0  0  0
  -31.9901  -25.2784   21.6636 C   0  0  0  0  0  0  0  0  0  0  0  0
  -31.1650  -17.6444   20.6152 C   0  0  0  0  0  0  0  0  0  0  0  0
  -22.3192   -8.7186   20.1664 C   0  0  0  0  0  0  0  0  0  0  0  0
  -23.0932   -8.6956   22.4550 C   0  0  0  0  0  0  0  0  0  0  0  0
  -31.6367  -24.8371   22.9380 C   0  0  0  0  0  0  0  0  0  0  0  0
  -19.8675   -7.8958   23.0675 C   0  0  0  0  0  0  0  0  0  0  0  0
  -19.1177   -7.8425   24.2425 C   0  0  0  0  0  0  0  0  0  0  0  0
  -31.3611  -19.0253   20.6069 C   0  0  0  0  0  0  0  0  0  0  0  0
  -29.3104  -24.8808   22.3014 C   0  0  0  0  0  0  0  0  0  0  0  0
  -20.3603   -5.8939   24.9470 C   0  0  0  0  0  0  0  0  0  0  0  0
  -23.8228  -10.4395   20.9505 C   0  0  0  0  0  0  0  0  0  0  0  0
  -24.1683  -12.9654   20.8599 C   0  0  0  0  0  0  0  0  0  0  0  0
  -32.3355  -31.9779   17.4447 C   0  0  0  0  0  0  0  0  0  0  0  0
  -31.0039  -25.5351   20.7003 C   0  0  0  0  0  0  0  0  0  0  0  0
  -32.1201  -31.1247   18.5438 C   0  0  0  0  0  0  0  0  0  0  0  0
  -29.6540  -25.3228   21.0147 C   0  0  0  0  0  0  0  0  0  0  0  0
  -29.7491  -19.2649   22.3905 C   0  0  0  0  0  0  0  0  0  0  0  0
  -30.2609  -17.0737   21.5110 C   0  0  0  0  0  0  0  0  0  0  0  0
  -22.3340   -8.1297   21.4308 C   0  0  0  0  0  0  0  0  0  0  0  0
  -30.2965  -24.6410   23.2580 C   0  0  0  0  0  0  0  0  0  0  0  0
  -20.8636   -6.9481   22.8322 C   0  0  0  0  0  0  0  0  0  0  0  0
  -19.3641   -6.8416   25.1823 C   0  0  0  0  0  0  0  0  0  0  0  0
  -21.1100   -5.9472   23.7719 C   0  0  0  0  0  0  0  0  0  0  0  0
  -30.6532  -19.8356   21.4946 C   0  0  0  0  0  0  0  0  0  0  0  0
  -29.5530  -17.8839   22.3987 C   0  0  0  0  0  0  0  0  0  0  0  0
  -24.5924  -11.6322   20.7029 C   0  0  0  0  0  0  0  0  0  0  0  0
  -25.2595  -13.7175   20.4992 C   0  0  0  0  0  0  0  0  0  0  0  0
  -22.9013  -13.4781   21.2931 C   0  0  0  0  0  0  0  0  0  0  0  0
  -30.0601  -28.1055   19.0861 C   0  0  0  0  0  0  0  0  0  0  0  0
  -28.1669  -25.9657   17.5501 C   0  0  0  0  0  0  0  0  0  0  0  0
  -26.5593  -22.9558   17.6062 C   0  0  0  0  0  0  0  0  0  0  0  0
  -30.7285  -14.7517   20.6530 C   0  0  0  0  0  0  0  0  0  0  0  0
  -31.2211  -32.3502   16.4991 C   0  0  0  0  0  0  0  0  0  0  0  0
  -31.4033  -25.9851   19.3218 C   0  0  0  0  0  0  0  0  0  0  0  0
  -28.5582  -25.5644   20.0100 C   0  0  0  0  0  0  0  0  0  0  0  0
  -30.0197  -31.4113   16.5737 C   0  0  0  0  0  0  0  0  0  0  0  0
  -29.5952  -12.3696   18.2617 C   0  0  0  0  0  0  0  0  0  0  0  0
  -29.6346  -31.1516   18.0267 C   0  0  0  0  0  0  0  0  0  0  0  0
  -28.1577  -12.0750   18.6966 C   0  0  0  0  0  0  0  0  0  0  0  0
  -30.5181  -12.5818   19.4604 C   0  0  0  0  0  0  0  0  0  0  0  0
  -28.6211  -13.2921   20.8625 C   0  0  0  0  0  0  0  0  0  0  0  0
  -30.7780  -30.4690   18.7869 C   0  0  1  0  0  0  0  0  0  0  0  0
  -30.2824  -26.7080   18.5811 C   0  0  1  0  0  0  0  0  0  0  0  0
  -27.6406  -13.1352   19.6886 C   0  0  2  0  0  0  0  0  0  0  0  0
  -25.0592  -21.4976   16.2203 C   0  0  0  0  0  0  0  0  0  0  0  0
  -28.3210  -20.6967   26.3855 C   0  0  0  0  0  0  0  0  0  0  0  0
  -25.7983  -27.7680   18.2219 C   0  0  0  0  0  0  0  0  0  0  0  0
  -24.2777  -25.8545   17.6792 C   0  0  0  0  0  0  0  0  0  0  0  0
  -25.7575  -26.8092   15.9125 C   0  0  0  0  0  0  0  0  0  0  0  0
  -28.5582  -20.7746   17.5284 C   0  0  0  0  0  0  0  0  0  0  0  0
  -28.9916  -20.1415   23.3438 C   0  0  0  0  0  0  0  0  0  0  0  0
  -30.1206  -22.4493   26.1208 C   0  0  0  0  0  0  0  0  0  0  0  0
  -30.8855  -23.3811   25.1872 C   0  0  0  0  0  0  0  0  0  1  0  0
  -26.7750  -25.4221   17.7652 C   0  0  1  0  0  0  0  0  0  0  0  0
  -26.4964  -21.8284   16.5916 C   0  0  2  0  0  0  0  0  0  0  0  0
  -29.1123  -21.5499   25.4031 C   0  0  1  0  0  0  0  0  0  0  0  0
  -25.6724  -26.4606   17.4145 C   0  0  0  0  0  0  0  0  0  0  0  0
  -25.8544  -11.5395   20.2756 N   0  0  0  0  0  0  0  0  0  0  0  0
  -26.2328  -12.8240   20.1609 N   0  0  0  0  0  0  0  0  0  0  0  0
  -28.9989  -26.0097   18.6777 N   0  0  0  0  0  0  0  0  0  0  0  0
  -29.9664  -13.6025   20.3541 N   0  0  0  0  0  0  0  0  0  0  0  0
  -25.4718  -15.0495   20.4415 N   0  0  0  0  0  0  0  0  0  0  0  0
  -21.8899  -12.5664   21.6253 N   0  0  0  0  0  0  0  0  0  0  0  0
  -30.0878  -15.6675   21.4869 N   0  0  0  0  0  0  0  0  0  0  0  0
  -30.8349  -29.0611   18.4567 N   0  0  0  0  0  0  0  0  0  0  0  0
  -26.6967  -24.1847   16.9963 N   0  0  0  0  0  0  0  0  0  0  0  0
  -27.1342  -20.5993   17.1427 N   0  3  0  0  0  0  0  0  0  0  0  0
  -29.8260  -20.6336   24.4706 N   0  3  0  0  0  0  0  0  0  0  0  0
  -22.6676  -14.7083   21.3673 O   0  0  0  0  0  0  0  0  0  0  0  0
  -29.2448  -28.3026   19.9795 O   0  0  0  0  0  0  0  0  0  0  0  0
  -28.5058  -26.3308   16.4217 O   0  0  0  0  0  0  0  0  0  0  0  0
  -26.4896  -22.7656   18.8184 O   0  0  0  0  0  0  0  0  0  0  0  0
  -31.8550  -14.9244   20.1805 O   0  0  0  0  0  0  0  0  0  0  0  0
  -21.6076   -7.0028   21.6655 O   0  0  0  0  0  0  0  0  0  0  0  0
  -29.9488  -24.2109   24.5014 O   0  0  0  0  0  0  0  0  0  1  0  0
  -18.6451   -6.7914   26.3113 F   0  0  0  0  0  0  0  0  0  0  0  0
  -22.0664   -5.0347   23.5520 F   0  0  0  0  0  0  0  0  0  0  0  0
  -30.9260  -21.5403   21.4479 Cl  0  0  0  0  0  0  0  0  0  0  0  0
  -28.4308  -17.1727   23.5144 Cl  0  0  0  0  0  0  0  0  0  0  0  0
  1  2  1  0  0  0  0
  1  5  2  0  0  0  0
  2  6  2  0  0  0  0
  3  9  2  0  0  0  0
  3 17  1  0  0  0  0
  4 10  1  0  0  0  0
  4 17  2  0  0  0  0
  5 19  1  0  0  0  0
  6 21  1  0  0  0  0
  7 11  2  0  0  0  0
  7 20  1  0  0  0  0
  8 14  1  0  0  0  0
  8 24  2  0  0  0  0
  9 25  1  0  0  0  0
 10 25  2  0  0  0  0
 11 26  1  0  0  0  0
 12 13  2  0  0  0  0
 12 27  1  0  0  0  0
 13 28  1  0  0  0  0
 14 30  2  0  0  0  0
 15 22  1  0  0  0  0
 15 26  2  0  0  0  0
 16 28  2  0  0  0  0
 16 29  1  0  0  0  0
 17 32  1  0  0  0  0
 18 32  1  0  0  0  0
 18 33  2  0  0  0  0
 18 34  1  0  0  0  0
 19 21  2  0  0  0  0
 19 39  1  0  0  0  0
 20 22  2  0  0  0  0
 20 40  1  0  0  0  0
 21 48  1  0  0  0  0
 22 41  1  0  0  0  0
 23 30  1  0  0  0  0
 23 31  2  0  0  0  0
 23 57  1  0  0  0  0
 24 31  1  0  0  0  0
 24 70  1  0  0  0  0
 25 80  1  0  0  0  0
 26 81  1  0  0  0  0
 27 29  2  0  0  0  0
 27 80  1  0  0  0  0
 28 82  1  0  0  0  0
 29 83  1  0  0  0  0
 30 84  1  0  0  0  0
 31 85  1  0  0  0  0
 32 64  2  0  0  0  0
 33 65  1  0  0  0  0
 33 68  1  0  0  0  0
 34 69  1  0  0  0  0
 34 75  2  0  0  0  0
 35 49  1  0  0  0  0
 35 71  1  0  0  0  0
 35 76  2  0  0  0  0
 36 60  1  0  0  0  0
 36 66  1  0  0  0  0
 36 77  2  0  0  0  0
 37 61  1  0  0  0  0
 37 72  1  0  0  0  0
 37 78  2  0  0  0  0
 38 67  1  0  0  0  0
 38 70  1  0  0  0  0
 38 79  2  0  0  0  0
 39 42  1  0  0  0  0
 40 49  1  0  0  0  0
 41 66  1  0  0  0  0
 42 44  1  0  0  0  0
 43 45  1  0  0  0  0
 43 46  1  0  0  0  0
 44 48  1  0  0  0  0
 45 50  1  0  0  0  0
 46 67  1  0  0  0  0
 47 50  1  0  0  0  0
 47 67  1  0  0  0  0
 48 71  1  0  0  0  0
 49 66  1  0  0  0  0
 50 65  1  0  0  0  0
 51 61  1  0  0  0  0
 52 62  1  0  0  0  0
 53 63  1  0  0  0  0
 54 63  1  0  0  0  0
 55 63  1  0  0  0  0
 56 73  1  0  0  0  0
 57 74  1  0  0  0  0
 58 59  1  0  0  0  0
 58 62  1  0  0  0  0
 59 81  1  0  0  0  0
 60 63  1  0  0  0  0
 60 72  1  0  0  0  0
 61 73  1  0  0  0  0
 62 74  1  0  0  0  0
 64 65  1  0  0  0  0
M  CHG  2  73   1  74   1
M  ISO  4  38 100  59 101  70 100  81 101
M  END
> <Batch ID>
0016

> <Smiles>
CNC(C)C(=O)NC(C(=O)N1Cc2cc([101O:1][101CH2:1]CC(C)NCc3c(Cl)ccc([100NH:0][100C:0](=O)N4CCCC(n5nc(-c6ccc(Oc7ccc(F)cc7F)cc6)c(C(N)=O)c5N)C4)c3Cl)ccc2CC1C(=O)NC1CCCc2ccccc21)C(C)(C)C

> <Shape>
0.231

> <Color>
0.192

> <Negative vol penalty>
0.000

$$$$

  -OEChem-04052315583D

 95103  0     1  0  0  0  0  0999 V2000
  -26.3906  -22.0328   16.9733 C   0  0  0  0  0  0  0  0  0  0  0  0
  -25.5547  -22.9652   17.5794 C   0  0  0  0  0  0  0  0  0  0  0  0
  -23.1794   -9.9180   19.9178 C   0  0  0  0  0  0  0  0  0  0  0  0
  -24.4021   -9.6340   21.9821 C   0  0  0  0  0  0  0  0  0  0  0  0
  -27.7206  -21.9240   17.3775 C   0  0  0  0  0  0  0  0  0  0  0  0
  -26.0480  -23.7886   18.5909 C   0  0  0  0  0  0  0  0  0  0  0  0
  -24.4640  -29.5977   19.7098 C   0  0  0  0  0  0  0  0  0  0  0  0
  -22.7507   -8.5926   19.9893 C   0  0  0  0  0  0  0  0  0  0  0  0
  -23.9733   -8.3086   22.0537 C   0  0  0  0  0  0  0  0  0  0  0  0
  -23.5792  -30.1693   20.6230 C   0  0  0  0  0  0  0  0  0  0  0  0
  -22.9073   -4.9553   22.9687 C   0  0  0  0  0  0  0  0  0  0  0  0
  -22.4472   -4.4873   24.1995 C   0  0  0  0  0  0  0  0  0  0  0  0
  -30.0165  -20.4013   23.5475 C   0  0  0  0  0  0  0  0  0  0  0  0
  -25.4119  -30.5679   22.1401 C   0  0  0  0  0  0  0  0  0  0  0  0
  -20.7155   -6.1721   24.1926 C   0  0  0  0  0  0  0  0  0  0  0  0
  -24.0052  -10.4387   20.9141 C   0  0  0  0  0  0  0  0  0  0  0  0
  -28.9724  -19.6360   24.0550 C   0  0  0  0  0  0  0  0  0  0  0  0
  -23.8064  -12.9395   21.3769 C   0  0  0  0  0  0  0  0  0  0  0  0
  -28.2330  -22.7531   18.3878 C   0  0  0  0  0  0  0  0  0  0  0  0
  -25.8301  -29.4967   20.0099 C   0  0  0  0  0  0  0  0  0  0  0  0
  -27.3857  -23.6899   19.0099 C   0  0  0  0  0  0  0  0  0  0  0  0
  -26.3124  -29.9968   21.2279 C   0  0  0  0  0  0  0  0  0  0  0  0
  -23.1476   -7.7879   21.0573 C   0  0  0  0  0  0  0  0  0  0  0  0
  -24.0526  -30.6519   21.8396 C   0  0  0  0  0  0  0  0  0  0  0  0
  -22.2717   -6.0317   22.3499 C   0  0  0  0  0  0  0  0  0  0  0  0
  -21.3513   -5.0957   24.8115 C   0  0  0  0  0  0  0  0  0  0  0  0
  -21.1757   -6.6401   22.9618 C   0  0  0  0  0  0  0  0  0  0  0  0
  -28.6377  -18.4334   23.4425 C   0  0  0  0  0  0  0  0  0  0  0  0
  -24.4489  -11.8075   20.8405 C   0  0  0  0  0  0  0  0  0  0  0  0
  -30.6892  -19.9236   22.4343 C   0  0  0  0  0  0  0  0  0  0  0  0
  -29.3720  -18.0440   22.3339 C   0  0  0  0  0  0  0  0  0  0  0  0
  -24.6233  -13.9905   21.0387 C   0  0  0  0  0  0  0  0  0  0  0  0
  -28.2625  -20.1467   25.2352 C   0  0  0  0  0  0  0  0  0  0  0  0
  -22.5808  -13.0325   22.1151 C   0  0  0  0  0  0  0  0  0  0  0  0
  -27.1831  -20.9524   25.2123 C   0  0  0  0  0  0  0  0  0  0  0  0
  -26.6363  -21.3420   26.5593 C   0  0  0  0  0  0  0  0  0  0  0  0
  -27.8761  -27.0907   20.3688 C   0  0  0  0  0  0  0  0  0  0  0  0
  -30.0504  -29.4869   20.5987 C   0  0  0  0  0  0  0  0  0  0  0  0
  -30.6887  -32.7603   21.3227 C   0  0  0  0  0  0  0  0  0  0  0  0
  -29.6797  -16.2741   20.5678 C   0  0  0  0  0  0  0  0  0  0  0  0
  -29.6647  -22.5662   18.8237 C   0  0  0  0  0  0  0  0  0  0  0  0
  -26.7756  -28.9016   19.0029 C   0  0  0  0  0  0  0  0  0  0  0  0
  -27.7730  -29.9307   21.5896 C   0  0  0  0  0  0  0  0  0  0  0  0
  -30.2091  -23.7333   19.6433 C   0  0  0  0  0  0  0  0  0  0  0  0
  -28.5779  -14.2068   17.8865 C   0  0  0  0  0  0  0  0  0  0  0  0
  -29.2080  -24.1435   20.7185 C   0  0  0  0  0  0  0  0  0  0  0  0
  -27.3526  -13.4914   18.4601 C   0  0  0  0  0  0  0  0  0  0  0  0
  -29.6682  -14.3970   18.9395 C   0  0  0  0  0  0  0  0  0  0  0  0
  -28.0017  -14.3335   20.7528 C   0  0  0  0  0  0  0  0  0  0  0  0
  -27.8905  -24.6179   20.0934 C   0  0  1  0  0  0  0  0  0  0  0  0
  -28.0672  -28.3844   19.6288 C   0  0  1  0  0  0  0  0  0  0  0  0
  -26.8505  -14.1769   19.7460 C   0  0  2  0  0  0  0  0  0  0  0  0
  -31.8152  -20.7185   21.8623 C   0  0  0  0  0  0  0  0  0  0  0  0
  -26.4732  -21.4194   23.9737 C   0  0  0  0  0  0  0  0  0  0  0  0
  -32.5679  -34.4180   21.4569 C   0  0  0  0  0  0  0  0  0  0  0  0
  -30.9544  -28.2450   23.2351 C   0  0  0  0  0  0  0  0  0  0  0  0
  -32.1168  -30.3970   23.7699 C   0  0  0  0  0  0  0  0  0  0  0  0
  -32.8130  -29.0670   21.7776 C   0  0  0  0  0  0  0  0  0  0  0  0
  -29.4748  -34.4799   19.2421 C   0  0  0  0  0  0  0  0  0  0  0  0
  -22.9094  -26.3791   25.9372 C   0  0  0  0  0  0  0  0  0  0  0  0
  -22.8406  -27.8900   26.1706 C   0  0  0  0  0  0  0  0  0  0  0  0
  -23.6707  -25.6765   27.0627 C   0  0  0  0  0  0  0  0  0  0  0  0
  -22.1069  -28.5941   25.0275 C   0  0  0  0  0  0  0  0  0  0  0  0
  -23.7687  -24.1702   26.8127 C   0  0  0  0  0  0  0  0  0  0  0  0
  -22.0154  -30.1125   25.2063 C   0  0  0  0  0  0  0  0  0  0  0  0
  -24.4967  -23.4635   27.9600 C   0  0  0  0  0  0  0  0  0  0  0  0
  -21.2429  -30.8639   24.1212 C   0  0  0  0  0  0  0  0  0  0  0  0
  -24.5588  -21.9513   27.7690 C   0  0  0  0  0  0  0  0  0  0  0  0
  -21.8487  -30.7267   22.7302 C   0  0  0  0  0  0  0  0  0  1  0  0
  -30.6143  -30.3141   21.7286 C   0  0  1  0  0  0  0  0  0  0  0  0
  -31.4796  -33.8209   20.5784 C   0  0  2  0  0  0  0  0  0  0  0  0
  -31.5968  -29.5054   22.6221 C   0  0  0  0  0  0  0  0  0  0  0  0
  -25.5862  -12.1110   20.2092 N   0  0  0  0  0  0  0  0  0  0  0  0
  -30.3928  -18.7605   21.8123 N   0  0  0  0  0  0  0  0  0  0  0  0
  -25.6647  -13.4455   20.3468 N   0  0  0  0  0  0  0  0  0  0  0  0
  -28.6569  -29.3342   20.5745 N   0  0  0  0  0  0  0  0  0  0  0  0
  -29.1204  -15.0560   20.1271 N   0  0  0  0  0  0  0  0  0  0  0  0
  -24.5453  -15.3185   21.2685 N   0  0  0  0  0  0  0  0  0  0  0  0
  -21.8665  -11.8550   22.3753 N   0  0  0  0  0  0  0  0  0  0  0  0
  -29.0554  -16.8236   21.6872 N   0  0  0  0  0  0  0  0  0  0  0  0
  -25.2668  -21.5742   26.5766 N   0  0  0  0  0  0  0  0  0  0  0  0
  -28.0296  -25.9648   19.5826 N   0  0  0  0  0  0  0  0  0  0  0  0
  -31.2033  -31.4984   21.1131 N   0  0  0  0  0  0  0  0  0  0  0  0
  -30.5788  -34.9214   20.1328 N   0  3  0  0  0  0  0  0  0  0  0  0
  -22.1240  -14.1293   22.5175 O   0  0  0  0  0  0  0  0  0  0  0  0
  -27.3620  -21.4357   27.5475 O   0  0  0  0  0  0  0  0  0  0  0  0
  -27.6105  -27.1125   21.5649 O   0  0  0  0  0  0  0  0  0  0  0  0
  -30.8174  -29.0004   19.7641 O   0  0  0  0  0  0  0  0  0  0  0  0
  -29.7142  -33.0253   22.0232 O   0  0  0  0  0  0  0  0  0  0  0  0
  -30.6241  -16.8054   19.9782 O   0  0  0  0  0  0  0  0  0  0  0  0
  -22.7292   -6.4946   21.1276 O   0  0  0  0  0  0  0  0  0  0  0  0
  -23.1851  -31.2137   22.7392 O   0  0  0  0  0  0  0  0  0  1  0  0
  -20.9085   -4.6452   25.9926 F   0  0  0  0  0  0  0  0  0  0  0  0
  -20.5602   -7.6738   22.3716 F   0  0  0  0  0  0  0  0  0  0  0  0
  -27.3429  -17.4549   24.0481 Cl  0  0  0  0  0  0  0  0  0  0  0  0
  1  2  1  0  0  0  0
  1  5  2  0  0  0  0
  2  6  2  0  0  0  0
  3  8  2  0  0  0  0
  3 16  1  0  0  0  0
  4  9  1  0  0  0  0
  4 16  2  0  0  0  0
  5 19  1  0  0  0  0
  6 21  1  0  0  0  0
  7 10  2  0  0  0  0
  7 20  1  0  0  0  0
  8 23  1  0  0  0  0
  9 23  2  0  0  0  0
 10 24  1  0  0  0  0
 11 12  2  0  0  0  0
 11 25  1  0  0  0  0
 12 26  1  0  0  0  0
 13 17  1  0  0  0  0
 13 30  2  0  0  0  0
 14 22  1  0  0  0  0
 14 24  2  0  0  0  0
 15 26  2  0  0  0  0
 15 27  1  0  0  0  0
 16 29  1  0  0  0  0
 17 28  2  0  0  0  0
 17 33  1  0  0  0  0
 18 29  1  0  0  0  0
 18 32  2  0  0  0  0
 18 34  1  0  0  0  0
 19 21  2  0  0  0  0
 19 41  1  0  0  0  0
 20 22  2  0  0  0  0
 20 42  1  0  0  0  0
 21 50  1  0  0  0  0
 22 43  1  0  0  0  0
 23 91  1  0  0  0  0
 24 92  1  0  0  0  0
 25 27  2  0  0  0  0
 25 91  1  0  0  0  0
 26 93  1  0  0  0  0
 27 94  1  0  0  0  0
 28 31  1  0  0  0  0
 28 95  1  0  0  0  0
 29 73  2  0  0  0  0
 30 53  1  0  0  0  0
 30 74  1  0  0  0  0
 31 74  2  0  0  0  0
 31 80  1  0  0  0  0
 32 75  1  0  0  0  0
 32 78  1  0  0  0  0
 33 35  2  0  0  0  0
 34 79  1  0  0  0  0
 34 85  2  0  0  0  0
 35 36  1  0  0  0  0
 35 54  1  0  0  0  0
 36 81  1  0  0  0  0
 36 86  2  0  0  0  0
 37 51  1  0  0  0  0
 37 82  1  0  0  0  0
 37 87  2  0  0  0  0
 38 70  1  0  0  0  0
 38 76  1  0  0  0  0
 38 88  2  0  0  0  0
 39 71  1  0  0  0  0
 39 83  1  0  0  0  0
 39 89  2  0  0  0  0
 40 77  1  0  0  0  0
 40 80  1  0  0  0  0
 40 90  2  0  0  0  0
 41 44  1  0  0  0  0
 42 51  1  0  0  0  0
 43 76  1  0  0  0  0
 44 46  1  0  0  0  0
 45 47  1  0  0  0  0
 45 48  1  0  0  0  0
 46 50  1  0  0  0  0
 47 52  1  0  0  0  0
 48 77  1  0  0  0  0
 49 52  1  0  0  0  0
 49 77  1  0  0  0  0
 50 82  1  0  0  0  0
 51 76  1  0  0  0  0
 52 75  1  0  0  0  0
 55 71  1  0  0  0  0
 56 72  1  0  0  0  0
 57 72  1  0  0  0  0
 58 72  1  0  0  0  0
 59 84  1  0  0  0  0
 60 61  1  0  0  0  0
 60 62  1  0  0  0  0
 61 63  1  0  0  0  0
 62 64  1  0  0  0  0
 63 65  1  0  0  0  0
 64 66  1  0  0  0  0
 65 67  1  0  0  0  0
 66 68  1  0  0  0  0
 67 69  1  0  0  0  0
 68 81  1  0  0  0  0
 69 92  1  0  0  0  0
 70 72  1  0  0  0  0
 70 83  1  0  0  0  0
 71 84  1  0  0  0  0
 73 75  1  0  0  0  0
M  CHG  1  84   1
M  ISO  4  40 100  69 101  80 100  92 101
M  END
> <Batch ID>
0016

> <Smiles>
CNC(C)C(=O)NC(C(=O)N1Cc2cc([101O:1][101CH2:1]CCCCCCCCCNC(=O)C(C)=Cc3cc(C)nc([100NH:0][100C:0](=O)N4CCCC(n5nc(-c6ccc(Oc7ccc(F)cc7F)cc6)c(C(N)=O)c5N)C4)c3Cl)ccc2CC1C(=O)NC1CCCc2ccccc21)C(C)(C)C

> <Shape>
0.259

> <Color>
0.112

> <Negative vol penalty>
0.000

$$$$

  -OEChem-04052315583D

 90 98  0     1  0  0  0  0  0999 V2000
  -17.1174  -31.6382   23.3904 C   0  0  0  0  0  0  0  0  0  0  0  0
  -18.3779  -32.1909   23.5928 C   0  0  0  0  0  0  0  0  0  0  0  0
  -28.0787  -14.5708   21.2120 C   0  0  0  0  0  0  0  0  0  0  0  0
  -25.8468  -15.1842   20.5196 C   0  0  0  0  0  0  0  0  0  0  0  0
  -16.9778  -30.2588   23.2432 C   0  0  0  0  0  0  0  0  0  0  0  0
  -19.4995  -31.3643   23.6493 C   0  0  0  0  0  0  0  0  0  0  0  0
  -24.9772  -32.2269   19.0512 C   0  0  0  0  0  0  0  0  0  0  0  0
  -27.7800  -13.2274   20.9849 C   0  0  0  0  0  0  0  0  0  0  0  0
  -25.5481  -13.8407   20.2924 C   0  0  0  0  0  0  0  0  0  0  0  0
  -26.1567  -32.4629   18.3446 C   0  0  0  0  0  0  0  0  0  0  0  0
  -24.7162  -11.1281   22.1310 C   0  0  0  0  0  0  0  0  0  0  0  0
  -23.4942  -10.6474   22.6011 C   0  0  0  0  0  0  0  0  0  0  0  0
  -27.1740  -30.5259   19.3747 C   0  0  0  0  0  0  0  0  0  0  0  0
  -22.8576  -10.0597   20.3458 C   0  0  0  0  0  0  0  0  0  0  0  0
  -27.1120  -15.5492   20.9794 C   0  0  0  0  0  0  0  0  0  0  0  0
  -27.9578  -17.8562   20.2938 C   0  0  0  0  0  0  0  0  0  0  0  0
  -18.0994  -29.4158   23.2883 C   0  0  0  0  0  0  0  0  0  0  0  0
  -24.8864  -31.1293   19.9117 C   0  0  0  0  0  0  0  0  0  0  0  0
  -19.3746  -29.9722   23.5040 C   0  0  0  0  0  0  0  0  0  0  0  0
  -25.9909  -30.2773   20.0757 C   0  0  0  0  0  0  0  0  0  0  0  0
  -26.5147  -12.8623   20.5250 C   0  0  0  0  0  0  0  0  0  0  0  0
  -27.2524  -31.6146   18.5061 C   0  0  0  0  0  0  0  0  0  0  0  0
  -25.0090  -11.0746   20.7682 C   0  0  0  0  0  0  0  0  0  0  0  0
  -22.5649  -10.1132   21.7086 C   0  0  0  0  0  0  0  0  0  0  0  0
  -24.0797  -10.5404   19.8756 C   0  0  0  0  0  0  0  0  0  0  0  0
  -27.4198  -16.9371   21.2144 C   0  0  0  0  0  0  0  0  0  0  0  0
  -28.0602  -19.0297   21.0002 C   0  0  0  0  0  0  0  0  0  0  0  0
  -28.3315  -17.6663   18.9227 C   0  0  0  0  0  0  0  0  0  0  0  0
  -22.7705  -29.1544   22.2990 C   0  0  0  0  0  0  0  0  0  0  0  0
  -31.2604  -23.7358   24.0007 C   0  0  0  0  0  0  0  0  0  0  0  0
  -24.3481  -27.1283   20.6207 C   0  0  0  0  0  0  0  0  0  0  0  0
  -32.7281  -29.7597   19.3260 C   0  0  0  0  0  0  0  0  0  0  0  0
  -27.3510  -25.7975   19.6993 C   0  0  0  0  0  0  0  0  0  0  0  0
  -29.4017  -21.8239   25.5981 C   0  0  0  0  0  0  0  0  0  0  0  0
  -17.8932  -27.9263   23.1714 C   0  0  0  0  0  0  0  0  0  0  0  0
  -23.6567  -30.8719   20.7396 C   0  0  0  0  0  0  0  0  0  0  0  0
  -25.8593  -29.1288   21.0384 C   0  0  0  0  0  0  0  0  0  0  0  0
  -19.1759  -27.1557   22.8695 C   0  0  0  0  0  0  0  0  0  0  0  0
  -32.9320  -21.1586   25.9134 C   0  0  0  0  0  0  0  0  0  0  0  0
  -26.2218  -20.3448   25.5102 C   0  0  0  0  0  0  0  0  0  0  0  0
  -20.3079  -27.6269   23.7769 C   0  0  0  0  0  0  0  0  0  0  0  0
  -33.0169  -22.5694   25.3446 C   0  0  0  0  0  0  0  0  0  0  0  0
  -26.2889  -19.3848   24.3246 C   0  0  0  0  0  0  0  0  0  0  0  0
  -27.5367  -20.3501   26.2792 C   0  0  0  0  0  0  0  0  0  0  0  0
  -31.6347  -20.6273   25.3267 C   0  0  0  0  0  0  0  0  0  0  0  0
  -28.8060  -19.7621   24.2351 C   0  0  0  0  0  0  0  0  0  0  0  0
  -20.6182  -29.1109   23.5465 C   0  0  1  0  0  0  0  0  0  0  0  0
  -23.3664  -29.3736   20.9394 C   0  0  1  0  0  0  0  0  0  0  0  0
  -31.5615  -23.0243   25.2817 C   0  0  2  0  0  0  0  0  0  0  0  0
  -27.4936  -19.7095   23.4263 C   0  0  1  0  0  0  0  0  0  0  0  0
  -28.3794  -23.6941   18.7963 C   0  0  0  0  0  0  0  0  0  0  0  0
  -24.0844  -25.8253   23.3660 C   0  0  0  0  0  0  0  0  0  0  0  0
  -25.8924  -24.2257   22.7019 C   0  0  0  0  0  0  0  0  0  0  0  0
  -23.7433  -24.2715   21.4363 C   0  0  0  0  0  0  0  0  0  0  0  0
  -32.6253  -30.3161   16.8498 C   0  0  0  0  0  0  0  0  0  0  0  0
  -28.3362  -27.1816   17.2760 C   0  0  0  0  0  0  0  0  0  0  0  0
  -33.1363  -28.3427   18.9383 C   0  0  0  0  0  0  0  0  0  0  0  0
  -33.3669  -27.4142   20.1332 C   0  0  0  0  0  0  0  0  0  0  0  0
  -32.0937  -27.1935   20.9572 C   0  0  0  0  0  0  0  0  0  0  0  0
  -32.3635  -26.2808   22.1576 C   0  0  0  0  0  0  0  0  0  0  0  0
  -30.7449  -32.3568   17.9346 C   0  0  0  0  0  0  0  0  0  0  0  0
  -31.1032  -25.9919   22.9672 C   0  0  0  0  0  0  0  0  0  0  0  0
  -32.0942  -32.0165   18.5528 C   0  0  0  0  0  0  0  0  0  0  0  0
  -29.6237  -31.4460   18.4200 C   0  0  0  0  0  0  0  0  0  1  0  0
  -25.3837  -26.1758   21.1626 C   0  0  1  0  0  0  0  0  0  0  0  0
  -27.7805  -25.0485   18.4507 C   0  0  2  0  0  0  0  0  0  0  0  0
  -24.7805  -25.1527   22.1660 C   0  0  0  0  0  0  0  0  0  0  0  0
  -27.1962  -17.4799   22.4142 N   0  0  0  0  0  0  0  0  0  0  0  0
  -27.5957  -18.7528   22.2523 N   0  0  0  0  0  0  0  0  0  0  0  0
  -24.5433  -28.4901   20.8814 N   0  0  0  0  0  0  0  0  0  0  0  0
  -28.6707  -20.6450   25.4020 N   0  0  0  0  0  0  0  0  0  0  0  0
  -30.7620  -21.8003   25.2774 N   0  0  0  0  0  0  0  0  0  0  0  0
  -28.5014  -20.2610   20.6663 N   0  0  0  0  0  0  0  0  0  0  0  0
  -28.1602  -16.3972   18.3532 N   0  0  0  0  0  0  0  0  0  0  0  0
  -21.3952  -29.2830   22.3378 N   0  0  0  0  0  0  0  0  0  0  0  0
  -31.3516  -25.1120   24.0866 N   0  0  0  0  0  0  0  0  0  0  0  0
  -26.0256  -25.5675   20.0023 N   0  0  0  0  0  0  0  0  0  0  0  0
  -32.5055  -30.6475   18.2676 N   0  0  0  0  0  0  0  0  0  0  0  0
  -28.7994  -25.8351   17.6996 N   0  3  0  0  0  0  0  0  0  0  0  0
  -28.8186  -18.5903   18.2281 O   0  0  0  0  0  0  0  0  0  0  0  0
  -23.5034  -28.8867   23.2439 O   0  0  0  0  0  0  0  0  0  0  0  0
  -30.9674  -23.0867   23.0035 O   0  0  0  0  0  0  0  0  0  0  0  0
  -23.3881  -26.6794   19.9881 O   0  0  0  0  0  0  0  0  0  0  0  0
  -32.6163  -30.0790   20.5124 O   0  0  0  0  0  0  0  0  0  0  0  0
  -28.1157  -26.5119   20.3436 O   0  0  0  0  0  0  0  0  0  0  0  0
  -28.8701  -22.8429   26.0582 O   0  0  0  0  0  0  0  0  0  0  0  0
  -26.2230  -11.5515   20.3030 O   0  0  0  0  0  0  0  0  0  0  0  0
  -28.4074  -31.8498   17.8048 O   0  0  0  0  0  0  0  0  0  1  0  0
  -21.3920   -9.6502   22.1605 F   0  0  0  0  0  0  0  0  0  0  0  0
  -24.3558  -10.4853   18.5654 F   0  0  0  0  0  0  0  0  0  0  0  0
  1  2  1  0  0  0  0
  1  5  2  0  0  0  0
  2  6  2  0  0  0  0
  3  8  2  0  0  0  0
  3 15  1  0  0  0  0
  4  9  1  0  0  0  0
  4 15  2  0  0  0  0
  5 17  1  0  0  0  0
  6 19  1  0  0  0  0
  7 10  2  0  0  0  0
  7 18  1  0  0  0  0
  8 21  1  0  0  0  0
  9 21  2  0  0  0  0
 10 22  1  0  0  0  0
 11 12  2  0  0  0  0
 11 23  1  0  0  0  0
 12 24  1  0  0  0  0
 13 20  1  0  0  0  0
 13 22  2  0  0  0  0
 14 24  2  0  0  0  0
 14 25  1  0  0  0  0
 15 26  1  0  0  0  0
 16 26  1  0  0  0  0
 16 27  2  0  0  0  0
 16 28  1  0  0  0  0
 17 19  2  0  0  0  0
 17 35  1  0  0  0  0
 18 20  2  0  0  0  0
 18 36  1  0  0  0  0
 19 47  1  0  0  0  0
 20 37  1  0  0  0  0
 21 87  1  0  0  0  0
 22 88  1  0  0  0  0
 23 25  2  0  0  0  0
 23 87  1  0  0  0  0
 24 89  1  0  0  0  0
 25 90  1  0  0  0  0
 26 68  2  0  0  0  0
 27 69  1  0  0  0  0
 27 73  1  0  0  0  0
 28 74  1  0  0  0  0
 28 80  2  0  0  0  0
 29 48  1  0  0  0  0
 29 75  1  0  0  0  0
 29 81  2  0  0  0  0
 30 49  1  0  0  0  0
 30 76  1  0  0  0  0
 30 82  2  0  0  0  0
 31 65  1  0  0  0  0
 31 70  1  0  0  0  0
 31 83  2  0  0  0  0
 32 57  1  0  0  0  0
 32 78  1  0  0  0  0
 32 84  2  0  0  0  0
 33 66  1  0  0  0  0
 33 77  1  0  0  0  0
 33 85  2  0  0  0  0
 34 71  1  0  0  0  0
 34 72  1  0  0  0  0
 34 86  2  0  0  0  0
 35 38  1  0  0  0  0
 36 48  1  0  0  0  0
 37 70  1  0  0  0  0
 38 41  1  0  0  0  0
 39 42  1  0  0  0  0
 39 45  1  0  0  0  0
 40 43  1  0  0  0  0
 40 44  1  0  0  0  0
 41 47  1  0  0  0  0
 42 49  1  0  0  0  0
 43 50  1  0  0  0  0
 44 71  1  0  0  0  0
 45 72  1  0  0  0  0
 46 50  1  0  0  0  0
 46 71  1  0  0  0  0
 47 75  1  0  0  0  0
 48 70  1  0  0  0  0
 49 72  1  0  0  0  0
 50 69  1  0  0  0  0
 51 66  1  0  0  0  0
 52 67  1  0  0  0  0
 53 67  1  0  0  0  0
 54 67  1  0  0  0  0
 55 78  1  0  0  0  0
 56 79  1  0  0  0  0
 57 58  1  0  0  0  0
 58 59  1  0  0  0  0
 59 60  1  0  0  0  0
 60 62  1  0  0  0  0
 61 63  1  0  0  0  0
 61 64  1  0  0  0  0
 62 76  1  0  0  0  0
 63 78  1  0  0  0  0
 64 88  1  0  0  0  0
 65 67  1  0  0  0  0
 65 77  1  0  0  0  0
 66 79  1  0  0  0  0
 68 69  1  0  0  0  0
M  CHG  1  79   1
M  ISO  4  34 100  64 101  72 100  88 101
M  END
> <Batch ID>
0016

> <Smiles>
CNC(C)C(=O)NC(C(=O)N1Cc2cc([101O:1][101CH2:1]CCN(C)C(=O)CCCCCNC(=O)C3CCC[100N:0]3[100C:0](=O)N3CCCC(n4nc(-c5ccc(Oc6ccc(F)cc6F)cc5)c(C(N)=O)c4N)C3)ccc2CC1C(=O)NC1CCCc2ccccc21)C(C)(C)C

> <Shape>
0.215

> <Color>
0.101

> <Negative vol penalty>
0.000

$$$$

  -OEChem-04052315583D

 84 92  0     1  0  0  0  0  0999 V2000
  -37.5517  -27.4189   18.7137 C   0  0  0  0  0  0  0  0  0  0  0  0
  -36.9086  -26.6905   19.7093 C   0  0  0  0  0  0  0  0  0  0  0  0
  -23.5211   -9.7446   21.2973 C   0  0  0  0  0  0  0  0  0  0  0  0
  -24.1529  -10.6464   23.4478 C   0  0  0  0  0  0  0  0  0  0  0  0
  -36.8062  -28.0273   17.7047 C   0  0  0  0  0  0  0  0  0  0  0  0
  -35.5193  -26.5708   19.6970 C   0  0  0  0  0  0  0  0  0  0  0  0
  -33.9690  -21.8374   20.6115 C   0  0  0  0  0  0  0  0  0  0  0  0
  -22.9215   -8.6557   21.9300 C   0  0  0  0  0  0  0  0  0  0  0  0
  -23.5532   -9.5575   24.0805 C   0  0  0  0  0  0  0  0  0  0  0  0
  -33.9872  -21.4064   21.9372 C   0  0  0  0  0  0  0  0  0  0  0  0
  -21.5382   -5.4558   22.9647 C   0  0  0  0  0  0  0  0  0  0  0  0
  -21.7838   -4.1853   22.4440 C   0  0  0  0  0  0  0  0  0  0  0  0
  -31.6160  -21.8199   22.0979 C   0  0  0  0  0  0  0  0  0  0  0  0
  -32.2079  -17.3485   22.9875 C   0  0  0  0  0  0  0  0  0  0  0  0
  -24.1490   -4.4811   22.8381 C   0  0  0  0  0  0  0  0  0  0  0  0
  -24.1369  -10.7399   22.0561 C   0  0  0  0  0  0  0  0  0  0  0  0
  -24.1532  -13.0911   21.0664 C   0  0  0  0  0  0  0  0  0  0  0  0
  -35.4079  -27.9069   17.6747 C   0  0  0  0  0  0  0  0  0  0  0  0
  -32.7742  -22.2740   20.0213 C   0  0  0  0  0  0  0  0  0  0  0  0
  -34.7543  -27.1792   18.6874 C   0  0  0  0  0  0  0  0  0  0  0  0
  -31.5848  -22.2536   20.7637 C   0  0  0  0  0  0  0  0  0  0  0  0
  -31.7011  -16.2665   22.2677 C   0  0  0  0  0  0  0  0  0  0  0  0
  -31.9731  -16.0939   25.0388 C   0  0  0  0  0  0  0  0  0  0  0  0
  -31.4663  -15.0119   24.3191 C   0  0  0  0  0  0  0  0  0  0  0  0
  -32.3439  -17.2622   24.3731 C   0  0  0  0  0  0  0  0  0  0  0  0
  -31.3303  -15.0982   22.9335 C   0  0  0  0  0  0  0  0  0  0  0  0
  -22.9376   -8.5621   23.3216 C   0  0  0  0  0  0  0  0  0  0  0  0
  -32.8111  -21.4003   22.6815 C   0  0  0  0  0  0  0  0  0  0  0  0
  -22.5980   -6.2390   23.4220 C   0  0  0  0  0  0  0  0  0  0  0  0
  -23.0892   -3.6980   22.3808 C   0  0  0  0  0  0  0  0  0  0  0  0
  -23.9034   -5.7517   23.3588 C   0  0  0  0  0  0  0  0  0  0  0  0
  -24.7569  -11.8647   21.4031 C   0  0  0  0  0  0  0  0  0  0  0  0
  -25.1560  -13.8150   20.4692 C   0  0  0  0  0  0  0  0  0  0  0  0
  -22.8062  -13.5361   21.2750 C   0  0  0  0  0  0  0  0  0  0  0  0
  -31.7607  -25.0148   18.7706 C   0  0  0  0  0  0  0  0  0  0  0  0
  -29.1665  -23.2398   17.9695 C   0  0  0  0  0  0  0  0  0  0  0  0
  -27.2246  -20.5030   18.5907 C   0  0  0  0  0  0  0  0  0  0  0  0
  -31.1146  -13.6483   20.8847 C   0  0  0  0  0  0  0  0  0  0  0  0
  -34.6409  -28.6217   16.5905 C   0  0  0  0  0  0  0  0  0  0  0  0
  -32.7663  -22.7106   18.5820 C   0  0  0  0  0  0  0  0  0  0  0  0
  -30.2721  -22.6931   20.1705 C   0  0  0  0  0  0  0  0  0  0  0  0
  -33.2024  -28.1336   16.4390 C   0  0  0  0  0  0  0  0  0  0  0  0
  -29.1745  -13.2543   17.9253 C   0  0  0  0  0  0  0  0  0  0  0  0
  -32.5293  -28.0242   17.8034 C   0  0  0  0  0  0  0  0  0  0  0  0
  -27.7653  -12.9709   18.4507 C   0  0  0  0  0  0  0  0  0  0  0  0
  -30.2468  -12.6087   18.8012 C   0  0  0  0  0  0  0  0  0  0  0  0
  -28.7485  -12.6479   20.7563 C   0  0  0  0  0  0  0  0  0  0  0  0
  -33.2510  -27.0059   18.6944 C   0  0  1  0  0  0  0  0  0  0  0  0
  -31.5898  -23.6196   18.2398 C   0  0  1  0  0  0  0  0  0  0  0  0
  -27.6372  -13.3321   19.9436 C   0  0  2  0  0  0  0  0  0  0  0  0
  -31.5653  -16.3900   20.7845 C   0  0  0  0  0  0  0  0  0  0  0  0
  -32.1193  -16.0002   26.5256 C   0  0  0  0  0  0  0  0  0  0  0  0
  -31.0665  -13.7605   25.0372 C   0  0  0  0  0  0  0  0  0  0  0  0
  -25.1503  -19.3374   17.7932 C   0  0  0  0  0  0  0  0  0  0  0  0
  -27.4515  -25.3485   19.3559 C   0  0  0  0  0  0  0  0  0  0  0  0
  -25.5632  -23.7045   19.3678 C   0  0  0  0  0  0  0  0  0  0  0  0
  -26.5140  -24.4935   17.2008 C   0  0  0  0  0  0  0  0  0  0  0  0
  -34.2964  -18.4796   25.3037 C   0  0  0  0  0  0  0  0  0  0  0  0
  -28.7303  -18.0528   17.8918 C   0  0  0  0  0  0  0  0  0  0  0  0
  -31.9890  -19.3991   25.5847 C   0  0  0  0  0  0  0  0  0  0  0  0
  -31.6343  -20.3768   24.4769 C   0  0  0  0  0  0  0  0  0  1  0  0
  -27.8550  -22.9020   18.6364 C   0  0  1  0  0  0  0  0  0  0  0  0
  -26.6627  -19.4363   17.6683 C   0  0  2  0  0  0  0  0  0  0  0  0
  -26.8709  -24.1056   18.6523 C   0  0  0  0  0  0  0  0  0  0  0  0
  -26.0436  -11.8091   21.0490 N   0  0  0  0  0  0  0  0  0  0  0  0
  -26.2565  -13.0095   20.4836 N   0  0  0  0  0  0  0  0  0  0  0  0
  -30.3171  -23.1173   18.7614 N   0  0  0  0  0  0  0  0  0  0  0  0
  -30.0649  -12.9993   20.2009 N   0  0  0  0  0  0  0  0  0  0  0  0
  -25.1950  -15.0556   19.9384 N   0  0  0  0  0  0  0  0  0  0  0  0
  -21.9050  -12.6662   21.9037 N   0  0  0  0  0  0  0  0  0  0  0  0
  -30.8146  -14.0010   22.2001 N   0  0  0  0  0  0  0  0  0  0  0  0
  -32.8948  -25.6567   18.3108 N   0  0  0  0  0  0  0  0  0  0  0  0
  -27.3420  -21.7197   17.9526 N   0  0  0  0  0  0  0  0  0  0  0  0
  -32.8557  -18.3597   25.0781 N   0  0  3  0  0  0  0  0  0  0  0  0
  -27.2493  -18.1063   17.9966 N   0  3  0  0  0  0  0  0  0  0  0  0
  -22.4093  -14.6653   20.8998 O   0  0  0  0  0  0  0  0  0  0  0  0
  -30.9248  -25.4755   19.5391 O   0  0  0  0  0  0  0  0  0  0  0  0
  -29.1707  -23.5924   16.7874 O   0  0  0  0  0  0  0  0  0  0  0  0
  -27.5255  -20.2802   19.7613 O   0  0  0  0  0  0  0  0  0  0  0  0
  -32.1902  -13.8989   20.3348 O   0  0  0  0  0  0  0  0  0  0  0  0
  -22.3524   -7.4998   23.9394 O   0  0  0  0  0  0  0  0  0  0  0  0
  -32.8262  -20.9807   23.9760 O   0  0  0  0  0  0  0  0  0  1  0  0
  -23.3248   -2.4773   21.8822 F   0  0  0  0  0  0  0  0  0  0  0  0
  -24.9255   -6.4990   23.7977 F   0  0  0  0  0  0  0  0  0  0  0  0
  1  2  1  0  0  0  0
  1  5  2  0  0  0  0
  2  6  2  0  0  0  0
  3  8  2  0  0  0  0
  3 16  1  0  0  0  0
  4  9  1  0  0  0  0
  4 16  2  0  0  0  0
  5 18  1  0  0  0  0
  6 20  1  0  0  0  0
  7 10  2  0  0  0  0
  7 19  1  0  0  0  0
  8 27  1  0  0  0  0
  9 27  2  0  0  0  0
 10 28  1  0  0  0  0
 11 12  2  0  0  0  0
 11 29  1  0  0  0  0
 12 30  1  0  0  0  0
 13 21  1  0  0  0  0
 13 28  2  0  0  0  0
 14 22  2  0  0  0  0
 14 25  1  0  0  0  0
 15 30  2  0  0  0  0
 15 31  1  0  0  0  0
 16 32  1  0  0  0  0
 17 32  1  0  0  0  0
 17 33  2  0  0  0  0
 17 34  1  0  0  0  0
 18 20  2  0  0  0  0
 18 39  1  0  0  0  0
 19 21  2  0  0  0  0
 19 40  1  0  0  0  0
 20 48  1  0  0  0  0
 21 41  1  0  0  0  0
 22 26  1  0  0  0  0
 22 51  1  0  0  0  0
 23 24  1  0  0  0  0
 23 25  2  0  0  0  0
 23 52  1  0  0  0  0
 24 26  2  0  0  0  0
 24 53  1  0  0  0  0
 25 74  1  0  0  0  0
 26 71  1  0  0  0  0
 27 81  1  0  0  0  0
 28 82  1  0  0  0  0
 29 31  2  0  0  0  0
 29 81  1  0  0  0  0
 30 83  1  0  0  0  0
 31 84  1  0  0  0  0
 32 65  2  0  0  0  0
 33 66  1  0  0  0  0
 33 69  1  0  0  0  0
 34 70  1  0  0  0  0
 34 76  2  0  0  0  0
 35 49  1  0  0  0  0
 35 72  1  0  0  0  0
 35 77  2  0  0  0  0
 36 62  1  0  0  0  0
 36 67  1  0  0  0  0
 36 78  2  0  0  0  0
 37 63  1  0  0  0  0
 37 73  1  0  0  0  0
 37 79  2  0  0  0  0
 38 68  1  0  0  0  0
 38 71  1  0  0  0  0
 38 80  2  0  0  0  0
 39 42  1  0  0  0  0
 40 49  1  0  0  0  0
 41 67  1  0  0  0  0
 42 44  1  0  0  0  0
 43 45  1  0  0  0  0
 43 46  1  0  0  0  0
 44 48  1  0  0  0  0
 45 50  1  0  0  0  0
 46 68  1  0  0  0  0
 47 50  1  0  0  0  0
 47 68  1  0  0  0  0
 48 72  1  0  0  0  0
 49 67  1  0  0  0  0
 50 66  1  0  0  0  0
 54 63  1  0  0  0  0
 55 64  1  0  0  0  0
 56 64  1  0  0  0  0
 57 64  1  0  0  0  0
 58 74  1  0  0  0  0
 59 75  1  0  0  0  0
 60 61  1  0  0  0  0
 60 74  1  0  0  0  0
 61 82  1  0  0  0  0
 62 64  1  0  0  0  0
 62 73  1  0  0  0  0
 63 75  1  0  0  0  0
 65 66  1  0  0  0  0
M  CHG  1  75   1
M  ISO  4  38 100  61 101  71 100  82 101
M  END
> <Batch ID>
0016

> <Smiles>
CNC(C)C(=O)NC(C(=O)N1Cc2cc([101O:1][101CH2:1]CN(C)c3cc(C)c([100NH:0][100C:0](=O)N4CCCC(n5nc(-c6ccc(Oc7ccc(F)cc7F)cc6)c(C(N)=O)c5N)C4)c(C)c3C)ccc2CC1C(=O)NC1CCCc2ccccc21)C(C)(C)C

> <Shape>
0.211

> <Color>
0.164

> <Negative vol penalty>
0.000

$$$$

  -OEChem-04052315583D

 86 94  0     1  0  0  0  0  0999 V2000
  -31.0428   -5.5110   35.7276 C   0  0  0  0  0  0  0  0  0  0  0  0
  -30.9018   -6.8699   35.4647 C   0  0  0  0  0  0  0  0  0  0  0  0
  -23.2881   -9.8004   19.9131 C   0  0  0  0  0  0  0  0  0  0  0  0
  -23.7418   -9.9400   22.2821 C   0  0  0  0  0  0  0  0  0  0  0  0
  -30.8305   -4.5799   34.7118 C   0  0  0  0  0  0  0  0  0  0  0  0
  -30.5497   -7.2985   34.1854 C   0  0  0  0  0  0  0  0  0  0  0  0
  -27.0540  -12.1176   32.7494 C   0  0  0  0  0  0  0  0  0  0  0  0
  -22.5625   -8.6275   20.1212 C   0  0  0  0  0  0  0  0  0  0  0  0
  -23.0161   -8.7670   22.4901 C   0  0  0  0  0  0  0  0  0  0  0  0
  -27.3654  -13.4165   32.3500 C   0  0  0  0  0  0  0  0  0  0  0  0
  -19.7697   -7.8546   22.7110 C   0  0  0  0  0  0  0  0  0  0  0  0
  -18.8686   -7.8320   23.7755 C   0  0  0  0  0  0  0  0  0  0  0  0
  -27.0975  -12.7649   30.0429 C   0  0  0  0  0  0  0  0  0  0  0  0
  -32.8049  -13.5206   23.6775 C   0  0  0  0  0  0  0  0  0  0  0  0
  -20.0763   -5.9847   24.7585 C   0  0  0  0  0  0  0  0  0  0  0  0
  -23.8778  -10.4566   20.9936 C   0  0  0  0  0  0  0  0  0  0  0  0
  -24.1359  -12.9868   20.7960 C   0  0  0  0  0  0  0  0  0  0  0  0
  -30.4661   -4.9968   33.4218 C   0  0  0  0  0  0  0  0  0  0  0  0
  -26.7721  -11.1282   31.7965 C   0  0  0  0  0  0  0  0  0  0  0  0
  -30.3337   -6.3721   33.1510 C   0  0  0  0  0  0  0  0  0  0  0  0
  -26.7802  -11.4548   30.4329 C   0  0  0  0  0  0  0  0  0  0  0  0
  -33.6056  -13.7875   24.7879 C   0  0  0  0  0  0  0  0  0  0  0  0
  -31.7254  -13.3657   26.2452 C   0  0  0  0  0  0  0  0  0  0  0  0
  -31.4643  -13.1763   23.8509 C   0  0  0  0  0  0  0  0  0  0  0  0
  -22.4264   -8.1108   21.4096 C   0  0  0  0  0  0  0  0  0  0  0  0
  -27.3901  -13.7397   30.9965 C   0  0  0  0  0  0  0  0  0  0  0  0
  -20.8240   -6.9422   22.6702 C   0  0  0  0  0  0  0  0  0  0  0  0
  -19.0220   -6.8971   24.7993 C   0  0  0  0  0  0  0  0  0  0  0  0
  -20.9774   -6.0073   23.6940 C   0  0  0  0  0  0  0  0  0  0  0  0
  -33.0659  -13.7100   26.0718 C   0  0  0  0  0  0  0  0  0  0  0  0
  -30.9246  -13.0988   25.1348 C   0  0  0  0  0  0  0  0  0  0  0  0
  -24.6280  -11.6680   20.7792 C   0  0  0  0  0  0  0  0  0  0  0  0
  -25.2368  -13.7673   20.5400 C   0  0  0  0  0  0  0  0  0  0  0  0
  -22.8030  -13.4638   21.0227 C   0  0  0  0  0  0  0  0  0  0  0  0
  -28.0997   -8.3582   30.9790 C   0  0  0  0  0  0  0  0  0  0  0  0
  -25.4988   -8.1252   29.0545 C   0  0  0  0  0  0  0  0  0  0  0  0
  -23.0066   -9.7128   27.3470 C   0  0  0  0  0  0  0  0  0  0  0  0
  -31.0985  -12.9550   21.3682 C   0  0  0  0  0  0  0  0  0  0  0  0
  -30.2935   -3.9558   32.3442 C   0  0  0  0  0  0  0  0  0  0  0  0
  -26.4118   -9.7384   32.2447 C   0  0  0  0  0  0  0  0  0  0  0  0
  -26.4652  -10.4342   29.3711 C   0  0  0  0  0  0  0  0  0  0  0  0
  -29.5570   -4.4722   31.1109 C   0  0  0  0  0  0  0  0  0  0  0  0
  -29.4610  -13.6603   18.2863 C   0  0  0  0  0  0  0  0  0  0  0  0
  -30.1177   -5.8242   30.6814 C   0  0  0  0  0  0  0  0  0  0  0  0
  -27.9901  -13.3553   18.5792 C   0  0  0  0  0  0  0  0  0  0  0  0
  -30.3954  -12.6851   19.0001 C   0  0  0  0  0  0  0  0  0  0  0  0
  -28.7045  -12.2555   20.7395 C   0  0  0  0  0  0  0  0  0  0  0  0
  -29.9287   -6.8748   31.7823 C   0  0  1  0  0  0  0  0  0  0  0  0
  -26.6449   -8.6838   31.1673 C   0  0  1  0  0  0  0  0  0  0  0  0
  -27.7270  -13.2513   20.0943 C   0  0  2  0  0  0  0  0  0  0  0  0
  -35.0365  -14.1525   24.5535 C   0  0  0  0  0  0  0  0  0  0  0  0
  -20.9263   -9.9682   25.9670 C   0  0  0  0  0  0  0  0  0  0  0  0
  -30.6617  -14.8475   30.3290 C   0  0  0  0  0  0  0  0  0  0  0  0
  -28.5276  -16.6428   29.0498 C   0  0  0  0  0  0  0  0  0  0  0  0
  -27.4167   -7.6421   26.7311 C   0  0  0  0  0  0  0  0  0  0  0  0
  -25.5313   -8.1430   25.1618 C   0  0  0  0  0  0  0  0  0  0  0  0
  -25.3750   -6.1980   26.7159 C   0  0  0  0  0  0  0  0  0  0  0  0
  -21.2738   -9.6967   29.7461 C   0  0  0  0  0  0  0  0  0  0  0  0
  -31.1457  -13.2826   27.6265 C   0  0  0  0  0  0  0  0  0  0  0  0
  -25.1744   -8.5426   27.6404 C   0  0  1  0  0  0  0  0  0  0  0  0
  -21.5130   -9.4525   27.2719 C   0  0  2  0  0  0  0  0  0  0  0  0
  -29.6416  -14.3510   29.3103 C   0  0  1  0  0  0  0  0  0  0  0  0
  -28.3352  -15.1580   29.3379 C   0  0  1  0  0  0  0  0  0  1  0  0
  -25.8822   -7.6504   26.5820 C   0  0  0  0  0  0  0  0  0  0  0  0
  -25.9393  -11.6100   20.5321 N   0  0  0  0  0  0  0  0  0  0  0  0
  -26.2806  -12.9022   20.3910 N   0  0  0  0  0  0  0  0  0  0  0  0
  -26.1250   -9.0875   29.8593 N   0  0  0  0  0  0  0  0  0  0  0  0
  -30.0903  -12.6423   20.4319 N   0  0  0  0  0  0  0  0  0  0  0  0
  -25.4040  -15.1024   20.4301 N   0  0  0  0  0  0  0  0  0  0  0  0
  -21.7911  -12.5263   21.2709 N   0  0  0  0  0  0  0  0  0  0  0  0
  -30.6829  -12.9125   22.6987 N   0  0  0  0  0  0  0  0  0  0  0  0
  -28.5608   -7.3473   31.8005 N   0  0  0  0  0  0  0  0  0  0  0  0
  -23.7189   -8.5480   27.5402 N   0  0  0  0  0  0  0  0  0  0  0  0
  -20.8123  -10.1268   28.4012 N   0  3  0  0  0  0  0  0  0  0  0  0
  -30.2713  -14.4355   27.9610 N   0  3  0  0  0  0  0  0  0  0  0  0
  -22.5146  -14.6841   20.9893 O   0  0  0  0  0  0  0  0  0  0  0  0
  -28.7548   -8.9772   30.1487 O   0  0  0  0  0  0  0  0  0  0  0  0
  -25.2010   -6.9897   29.4333 O   0  0  0  0  0  0  0  0  0  0  0  0
  -23.4932  -10.8364   27.2408 O   0  0  0  0  0  0  0  0  0  0  0  0
  -32.2388  -13.2659   21.0146 O   0  0  0  0  0  0  0  0  0  0  0  0
  -21.7182   -6.9664   21.6130 O   0  0  0  0  0  0  0  0  0  0  0  0
  -27.6944  -15.0066   30.6039 O   0  0  0  0  0  0  0  0  0  1  0  0
  -18.1575   -6.8765   25.8222 F   0  0  0  0  0  0  0  0  0  0  0  0
  -21.9890   -5.1291   23.6609 F   0  0  0  0  0  0  0  0  0  0  0  0
  -34.0672  -14.0429   27.4465 Cl  0  0  0  0  0  0  0  0  0  0  0  0
  -29.2571  -12.6705   25.3493 Cl  0  0  0  0  0  0  0  0  0  0  0  0
  1  2  1  0  0  0  0
  1  5  2  0  0  0  0
  2  6  2  0  0  0  0
  3  8  2  0  0  0  0
  3 16  1  0  0  0  0
  4  9  1  0  0  0  0
  4 16  2  0  0  0  0
  5 18  1  0  0  0  0
  6 20  1  0  0  0  0
  7 10  2  0  0  0  0
  7 19  1  0  0  0  0
  8 25  1  0  0  0  0
  9 25  2  0  0  0  0
 10 26  1  0  0  0  0
 11 12  2  0  0  0  0
 11 27  1  0  0  0  0
 12 28  1  0  0  0  0
 13 21  1  0  0  0  0
 13 26  2  0  0  0  0
 14 22  1  0  0  0  0
 14 24  2  0  0  0  0
 15 28  2  0  0  0  0
 15 29  1  0  0  0  0
 16 32  1  0  0  0  0
 17 32  1  0  0  0  0
 17 33  2  0  0  0  0
 17 34  1  0  0  0  0
 18 20  2  0  0  0  0
 18 39  1  0  0  0  0
 19 21  2  0  0  0  0
 19 40  1  0  0  0  0
 20 48  1  0  0  0  0
 21 41  1  0  0  0  0
 22 30  2  0  0  0  0
 22 51  1  0  0  0  0
 23 30  1  0  0  0  0
 23 31  2  0  0  0  0
 23 59  1  0  0  0  0
 24 31  1  0  0  0  0
 24 71  1  0  0  0  0
 25 81  1  0  0  0  0
 26 82  1  0  0  0  0
 27 29  2  0  0  0  0
 27 81  1  0  0  0  0
 28 83  1  0  0  0  0
 29 84  1  0  0  0  0
 30 85  1  0  0  0  0
 31 86  1  0  0  0  0
 32 65  2  0  0  0  0
 33 66  1  0  0  0  0
 33 69  1  0  0  0  0
 34 70  1  0  0  0  0
 34 76  2  0  0  0  0
 35 49  1  0  0  0  0
 35 72  1  0  0  0  0
 35 77  2  0  0  0  0
 36 60  1  0  0  0  0
 36 67  1  0  0  0  0
 36 78  2  0  0  0  0
 37 61  1  0  0  0  0
 37 73  1  0  0  0  0
 37 79  2  0  0  0  0
 38 68  1  0  0  0  0
 38 71  1  0  0  0  0
 38 80  2  0  0  0  0
 39 42  1  0  0  0  0
 40 49  1  0  0  0  0
 41 67  1  0  0  0  0
 42 44  1  0  0  0  0
 43 45  1  0  0  0  0
 43 46  1  0  0  0  0
 44 48  1  0  0  0  0
 45 50  1  0  0  0  0
 46 68  1  0  0  0  0
 47 50  1  0  0  0  0
 47 68  1  0  0  0  0
 48 72  1  0  0  0  0
 49 67  1  0  0  0  0
 50 66  1  0  0  0  0
 52 61  1  0  0  0  0
 53 62  1  0  0  0  0
 54 63  1  0  0  0  0
 55 64  1  0  0  0  0
 56 64  1  0  0  0  0
 57 64  1  0  0  0  0
 58 74  1  0  0  0  0
 59 75  1  0  0  0  0
 60 64  1  0  0  0  0
 60 73  1  0  0  0  0
 61 74  1  0  0  0  0
 62 63  1  0  0  0  0
 62 75  1  0  0  0  0
 63 82  1  0  0  0  0
 65 66  1  0  0  0  0
M  CHG  2  74   1  75   1
M  ISO  4  38 100  63 101  71 100  82 101
M  END
> <Batch ID>
0016

> <Smiles>
CNC(C)C(=O)NC(C(=O)N1Cc2cc([101O:1][101CH:1](C)C(C)NCc3c(Cl)c(C)cc([100NH:0][100C:0](=O)N4CCCC(n5nc(-c6ccc(Oc7ccc(F)cc7F)cc6)c(C(N)=O)c5N)C4)c3Cl)ccc2CC1C(=O)NC1CCCc2ccccc21)C(C)(C)C

> <Shape>
0.133

> <Color>
0.174

> <Negative vol penalty>
0.000

$$$$

  -OEChem-04052315583D

 82 90  0     1  0  0  0  0  0999 V2000
  -27.9314  -35.2450   24.7322 C   0  0  0  0  0  0  0  0  0  0  0  0
  -28.7191  -34.1978   24.2652 C   0  0  0  0  0  0  0  0  0  0  0  0
  -24.2981   -9.5463   21.4825 C   0  0  0  0  0  0  0  0  0  0  0  0
  -24.7879  -10.6722   23.5633 C   0  0  0  0  0  0  0  0  0  0  0  0
  -26.5799  -35.0329   25.0014 C   0  0  0  0  0  0  0  0  0  0  0  0
  -28.1561  -32.9374   24.0680 C   0  0  0  0  0  0  0  0  0  0  0  0
  -28.6832  -27.1887   19.8264 C   0  0  0  0  0  0  0  0  0  0  0  0
  -23.9237   -8.4034   22.1890 C   0  0  0  0  0  0  0  0  0  0  0  0
  -24.4134   -9.5293   24.2698 C   0  0  0  0  0  0  0  0  0  0  0  0
  -28.8346  -25.8049   19.9018 C   0  0  0  0  0  0  0  0  0  0  0  0
  -22.4956   -5.3112   23.4595 C   0  0  0  0  0  0  0  0  0  0  0  0
  -21.3230   -4.6636   23.0707 C   0  0  0  0  0  0  0  0  0  0  0  0
  -26.4709  -25.5753   20.3250 C   0  0  0  0  0  0  0  0  0  0  0  0
  -20.0603   -6.6697   23.5377 C   0  0  0  0  0  0  0  0  0  0  0  0
  -24.7303  -10.6807   22.1696 C   0  0  0  0  0  0  0  0  0  0  0  0
  -24.2897  -12.9329   21.0557 C   0  0  0  0  0  0  0  0  0  0  0  0
  -25.9978  -33.7717   24.7983 C   0  0  0  0  0  0  0  0  0  0  0  0
  -27.4242  -27.7781   20.0109 C   0  0  0  0  0  0  0  0  0  0  0  0
  -26.7959  -32.7079   24.3360 C   0  0  0  0  0  0  0  0  0  0  0  0
  -26.3056  -26.9667   20.2489 C   0  0  0  0  0  0  0  0  0  0  0  0
  -28.9973  -21.0066   21.3704 C   0  0  0  0  0  0  0  0  0  0  0  0
  -29.2248  -20.8553   18.9700 C   0  0  0  0  0  0  0  0  0  0  0  0
  -29.1360  -21.6267   20.1287 C   0  0  0  0  0  0  0  0  0  0  0  0
  -28.9475  -19.6150   21.4534 C   0  0  0  0  0  0  0  0  0  0  0  0
  -29.1748  -19.4638   19.0529 C   0  0  0  0  0  0  0  0  0  0  0  0
  -29.0362  -18.8436   20.2946 C   0  0  0  0  0  0  0  0  0  0  0  0
  -23.9813   -8.3949   23.5826 C   0  0  0  0  0  0  0  0  0  0  0  0
  -27.7289  -24.9981   20.1540 C   0  0  0  0  0  0  0  0  0  0  0  0
  -22.4506   -6.6381   23.8875 C   0  0  0  0  0  0  0  0  0  0  0  0
  -20.1054   -5.3428   23.1098 C   0  0  0  0  0  0  0  0  0  0  0  0
  -21.2329   -7.3173   23.9266 C   0  0  0  0  0  0  0  0  0  0  0  0
  -25.1178  -11.8614   21.4404 C   0  0  0  0  0  0  0  0  0  0  0  0
  -25.1291  -13.7947   20.3928 C   0  0  0  0  0  0  0  0  0  0  0  0
  -22.8873  -13.1316   21.2778 C   0  0  0  0  0  0  0  0  0  0  0  0
  -26.1901  -29.8225   22.1088 C   0  0  0  0  0  0  0  0  0  0  0  0
  -23.6143  -29.6821   20.1421 C   0  0  0  0  0  0  0  0  0  0  0  0
  -21.8521  -27.9394   17.7959 C   0  0  0  0  0  0  0  0  0  0  0  0
  -29.9639  -16.5240   19.9704 C   0  0  0  0  0  0  0  0  0  0  0  0
  -24.5435  -33.5786   25.1482 C   0  0  0  0  0  0  0  0  0  0  0  0
  -27.2728  -29.2704   19.9000 C   0  0  0  0  0  0  0  0  0  0  0  0
  -24.9288  -27.5485   20.4341 C   0  0  0  0  0  0  0  0  0  0  0  0
  -23.9382  -32.3082   24.5566 C   0  0  0  0  0  0  0  0  0  0  0  0
  -29.8856  -13.1699   18.7783 C   0  0  0  0  0  0  0  0  0  0  0  0
  -24.8665  -31.1191   24.7825 C   0  0  0  0  0  0  0  0  0  0  0  0
  -28.5701  -12.6187   19.3329 C   0  0  0  0  0  0  0  0  0  0  0  0
  -30.5623  -14.1211   19.7637 C   0  0  0  0  0  0  0  0  0  0  0  0
  -28.3980  -14.6635   20.8081 C   0  0  0  0  0  0  0  0  0  0  0  0
  -26.2159  -31.3326   24.0861 C   0  0  1  0  0  0  0  0  0  0  0  0
  -26.0334  -29.8001   20.6146 C   0  0  1  0  0  0  0  0  0  0  0  0
  -27.6472  -13.7510   19.8245 C   0  0  2  0  0  0  0  0  0  0  0  0
  -28.9012  -21.8347   22.6129 C   0  0  0  0  0  0  0  0  0  0  0  0
  -29.3720  -21.5211   17.6377 C   0  0  0  0  0  0  0  0  0  0  0  0
  -28.7987  -18.9539   22.7886 C   0  0  0  0  0  0  0  0  0  0  0  0
  -29.2704  -18.6397   17.8066 C   0  0  0  0  0  0  0  0  0  0  0  0
  -19.7680  -28.0637   16.4035 C   0  0  0  0  0  0  0  0  0  0  0  0
  -21.9375  -28.9834   22.5937 C   0  0  0  0  0  0  0  0  0  0  0  0
  -20.1293  -28.2026   21.0481 C   0  0  0  0  0  0  0  0  0  0  0  0
  -20.8541  -30.5892   21.0120 C   0  0  0  0  0  0  0  0  0  0  0  0
  -23.3946  -27.8573   15.2715 C   0  0  0  0  0  0  0  0  0  0  0  0
  -29.1879  -23.1235   20.0388 C   0  0  0  0  0  0  0  0  0  1  0  0
  -22.3811  -28.8156   20.0558 C   0  0  1  0  0  0  0  0  0  0  0  0
  -21.2583  -28.3606   16.4638 C   0  0  2  0  0  0  0  0  0  0  0  0
  -21.3516  -29.1366   21.1759 C   0  0  0  0  0  0  0  0  0  0  0  0
  -26.3858  -12.0251   21.0539 N   0  0  0  0  0  0  0  0  0  0  0  0
  -26.3608  -13.2096   20.4194 N   0  0  0  0  0  0  0  0  0  0  0  0
  -24.8333  -29.0134   20.3228 N   0  0  0  0  0  0  0  0  0  0  0  0
  -29.6295  -15.1697   20.1822 N   0  0  0  0  0  0  0  0  0  0  0  0
  -24.9263  -14.9883   19.7956 N   0  0  0  0  0  0  0  0  0  0  0  0
  -22.1755  -12.1473   21.9770 N   0  0  0  0  0  0  0  0  0  0  0  0
  -28.9858  -17.4301   20.3790 N   0  0  0  0  0  0  0  0  0  0  0  0
  -26.0964  -31.0838   22.6654 N   0  0  0  0  0  0  0  0  0  0  0  0
  -21.8617  -28.9785   18.7023 N   0  0  0  0  0  0  0  0  0  0  0  0
  -21.9274  -27.6365   15.3463 N   0  3  0  0  0  0  0  0  0  0  0  0
  -22.2798  -14.1440   20.8540 O   0  0  0  0  0  0  0  0  0  0  0  0
  -26.3803  -28.7730   22.7121 O   0  0  0  0  0  0  0  0  0  0  0  0
  -23.5009  -30.9066   20.0454 O   0  0  0  0  0  0  0  0  0  0  0  0
  -22.2626  -26.8013   18.0122 O   0  0  0  0  0  0  0  0  0  0  0  0
  -31.0270  -16.8545   19.4388 O   0  0  0  0  0  0  0  0  0  0  0  0
  -23.6158   -7.2799   24.2724 O   0  0  0  0  0  0  0  0  0  0  0  0
  -27.8741  -23.6471   20.2288 O   0  0  0  0  0  0  0  0  0  1  0  0
  -18.9796   -4.7213   22.7350 F   0  0  0  0  0  0  0  0  0  0  0  0
  -21.1835   -8.5925   24.3357 F   0  0  0  0  0  0  0  0  0  0  0  0
  1  2  1  0  0  0  0
  1  5  2  0  0  0  0
  2  6  2  0  0  0  0
  3  8  2  0  0  0  0
  3 15  1  0  0  0  0
  4  9  1  0  0  0  0
  4 15  2  0  0  0  0
  5 17  1  0  0  0  0
  6 19  1  0  0  0  0
  7 10  2  0  0  0  0
  7 18  1  0  0  0  0
  8 27  1  0  0  0  0
  9 27  2  0  0  0  0
 10 28  1  0  0  0  0
 11 12  2  0  0  0  0
 11 29  1  0  0  0  0
 12 30  1  0  0  0  0
 13 20  1  0  0  0  0
 13 28  2  0  0  0  0
 14 30  2  0  0  0  0
 14 31  1  0  0  0  0
 15 32  1  0  0  0  0
 16 32  1  0  0  0  0
 16 33  2  0  0  0  0
 16 34  1  0  0  0  0
 17 19  2  0  0  0  0
 17 39  1  0  0  0  0
 18 20  2  0  0  0  0
 18 40  1  0  0  0  0
 19 48  1  0  0  0  0
 20 41  1  0  0  0  0
 21 23  1  0  0  0  0
 21 24  2  0  0  0  0
 21 51  1  0  0  0  0
 22 23  2  0  0  0  0
 22 25  1  0  0  0  0
 22 52  1  0  0  0  0
 23 60  1  0  0  0  0
 24 26  1  0  0  0  0
 24 53  1  0  0  0  0
 25 26  2  0  0  0  0
 25 54  1  0  0  0  0
 26 70  1  0  0  0  0
 27 79  1  0  0  0  0
 28 80  1  0  0  0  0
 29 31  2  0  0  0  0
 29 79  1  0  0  0  0
 30 81  1  0  0  0  0
 31 82  1  0  0  0  0
 32 64  2  0  0  0  0
 33 65  1  0  0  0  0
 33 68  1  0  0  0  0
 34 69  1  0  0  0  0
 34 74  2  0  0  0  0
 35 49  1  0  0  0  0
 35 71  1  0  0  0  0
 35 75  2  0  0  0  0
 36 61  1  0  0  0  0
 36 66  1  0  0  0  0
 36 76  2  0  0  0  0
 37 62  1  0  0  0  0
 37 72  1  0  0  0  0
 37 77  2  0  0  0  0
 38 67  1  0  0  0  0
 38 70  1  0  0  0  0
 38 78  2  0  0  0  0
 39 42  1  0  0  0  0
 40 49  1  0  0  0  0
 41 66  1  0  0  0  0
 42 44  1  0  0  0  0
 43 45  1  0  0  0  0
 43 46  1  0  0  0  0
 44 48  1  0  0  0  0
 45 50  1  0  0  0  0
 46 67  1  0  0  0  0
 47 50  1  0  0  0  0
 47 67  1  0  0  0  0
 48 71  1  0  0  0  0
 49 66  1  0  0  0  0
 50 65  1  0  0  0  0
 55 62  1  0  0  0  0
 56 63  1  0  0  0  0
 57 63  1  0  0  0  0
 58 63  1  0  0  0  0
 59 73  1  0  0  0  0
 60 80  1  0  0  0  0
 61 63  1  0  0  0  0
 61 72  1  0  0  0  0
 62 73  1  0  0  0  0
 64 65  1  0  0  0  0
M  CHG  1  73   1
M  ISO  4  38 100  60 101  70 100  80 101
M  END
> <Batch ID>
0016

> <Smiles>
CNC(C)C(=O)NC(C(=O)N1Cc2cc([101O:1][101CH2:1]c3c(C)c(C)c([100NH:0][100C:0](=O)N4CCCC(n5nc(-c6ccc(Oc7ccc(F)cc7F)cc6)c(C(N)=O)c5N)C4)c(C)c3C)ccc2CC1C(=O)NC1CCCc2ccccc21)C(C)(C)C

> <Shape>
0.361

> <Color>
0.123

> <Negative vol penalty>
0.000

$$$$

  -OEChem-04052315583D

 85 93  0     1  0  0  0  0  0999 V2000
  -23.2004  -18.4055   22.5191 C   0  0  0  0  0  0  0  0  0  0  0  0
  -24.4791  -18.8557   22.8316 C   0  0  0  0  0  0  0  0  0  0  0  0
  -23.0149   -9.8691   19.9889 C   0  0  0  0  0  0  0  0  0  0  0  0
  -23.7076   -9.9695   22.3013 C   0  0  0  0  0  0  0  0  0  0  0  0
  -22.2727  -19.2808   21.9559 C   0  0  0  0  0  0  0  0  0  0  0  0
  -24.8312  -20.1812   22.5800 C   0  0  0  0  0  0  0  0  0  0  0  0
  -27.3315  -22.2939   26.4439 C   0  0  0  0  0  0  0  0  0  0  0  0
  -22.2506   -8.7359   20.2670 C   0  0  0  0  0  0  0  0  0  0  0  0
  -22.9432   -8.8364   22.5794 C   0  0  0  0  0  0  0  0  0  0  0  0
  -28.6803  -21.9696   26.5830 C   0  0  0  0  0  0  0  0  0  0  0  0
  -23.2114   -5.4901   22.1773 C   0  0  0  0  0  0  0  0  0  0  0  0
  -23.7936   -4.4912   22.9575 C   0  0  0  0  0  0  0  0  0  0  0  0
  -29.2840  -24.0564   25.5342 C   0  0  0  0  0  0  0  0  0  0  0  0
  -31.9143  -17.0801   22.1143 C   0  0  0  0  0  0  0  0  0  0  0  0
  -22.0452   -4.7578   24.6035 C   0  0  0  0  0  0  0  0  0  0  0  0
  -23.7435  -10.4859   21.0060 C   0  0  0  0  0  0  0  0  0  0  0  0
  -24.1182  -12.9995   20.7854 C   0  0  0  0  0  0  0  0  0  0  0  0
  -22.6105  -20.6203   21.7063 C   0  0  0  0  0  0  0  0  0  0  0  0
  -26.9480  -23.4991   25.8381 C   0  0  0  0  0  0  0  0  0  0  0  0
  -23.9076  -21.0750   22.0117 C   0  0  0  0  0  0  0  0  0  0  0  0
  -27.9297  -24.3948   25.3910 C   0  0  0  0  0  0  0  0  0  0  0  0
  -29.6926  -18.0281   22.0700 C   0  0  0  0  0  0  0  0  0  0  0  0
  -31.5780  -19.3982   22.7065 C   0  0  0  0  0  0  0  0  0  0  0  0
  -30.5453  -16.9394   21.8874 C   0  0  0  0  0  0  0  0  0  0  0  0
  -22.2148   -8.2196   21.5623 C   0  0  0  0  0  0  0  0  0  0  0  0
  -29.6567  -22.8495   26.1255 C   0  0  0  0  0  0  0  0  0  0  0  0
  -22.0461   -6.1230   22.6102 C   0  0  0  0  0  0  0  0  0  0  0  0
  -23.2105   -4.1250   24.1706 C   0  0  0  0  0  0  0  0  0  0  0  0
  -21.4630   -5.7568   23.8233 C   0  0  0  0  0  0  0  0  0  0  0  0
  -30.2089  -19.2575   22.4796 C   0  0  0  0  0  0  0  0  0  0  0  0
  -32.4307  -18.3095   22.5239 C   0  0  0  0  0  0  0  0  0  0  0  0
  -24.5337  -11.6561   20.7192 C   0  0  0  0  0  0  0  0  0  0  0  0
  -25.2292  -13.7208   20.4222 C   0  0  0  0  0  0  0  0  0  0  0  0
  -22.8422  -13.5466   21.1434 C   0  0  0  0  0  0  0  0  0  0  0  0
  -25.2831  -24.2753   23.2440 C   0  0  0  0  0  0  0  0  0  0  0  0
  -25.6336  -27.2873   24.3962 C   0  0  0  0  0  0  0  0  0  0  0  0
  -27.4148  -29.4585   26.3352 C   0  0  0  0  0  0  0  0  0  0  0  0
  -30.6999  -14.7161   20.7130 C   0  0  0  0  0  0  0  0  0  0  0  0
  -21.5891  -21.5169   21.0525 C   0  0  0  0  0  0  0  0  0  0  0  0
  -25.4893  -23.8463   25.7198 C   0  0  0  0  0  0  0  0  0  0  0  0
  -27.5708  -25.7105   24.7518 C   0  0  0  0  0  0  0  0  0  0  0  0
  -21.9225  -23.0024   21.1638 C   0  0  0  0  0  0  0  0  0  0  0  0
  -29.6269  -12.2117   18.4209 C   0  0  0  0  0  0  0  0  0  0  0  0
  -23.3854  -23.2492   20.8093 C   0  0  0  0  0  0  0  0  0  0  0  0
  -28.1720  -11.9544   18.8200 C   0  0  0  0  0  0  0  0  0  0  0  0
  -30.5091  -12.4838   19.6380 C   0  0  0  0  0  0  0  0  0  0  0  0
  -28.5713  -13.2885   20.9289 C   0  0  0  0  0  0  0  0  0  0  0  0
  -24.3194  -22.5121   21.7767 C   0  0  1  0  0  0  0  0  0  0  0  0
  -25.2053  -24.8676   24.6227 C   0  0  1  0  0  0  0  0  0  0  0  0
  -27.6313  -13.0735   19.7315 C   0  0  2  0  0  0  0  0  0  0  0  0
  -28.2222  -17.9021   21.8339 C   0  0  0  0  0  0  0  0  0  0  0  0
  -27.4800  -31.8633   27.0496 C   0  0  0  0  0  0  0  0  0  0  0  0
  -33.8311  -21.8342   26.2995 C   0  0  0  0  0  0  0  0  0  0  0  0
  -26.7667  -28.0634   21.6716 C   0  0  0  0  0  0  0  0  0  0  0  0
  -27.6719  -30.1491   22.7198 C   0  0  0  0  0  0  0  0  0  0  0  0
  -25.2105  -29.7462   22.6720 C   0  0  0  0  0  0  0  0  0  0  0  0
  -27.0650  -28.7420   29.1853 C   0  0  0  0  0  0  0  0  0  0  0  0
  -32.0966  -20.7355   23.1464 C   0  0  0  0  0  0  0  0  0  0  0  0
  -31.8683  -23.0516   25.2747 C   0  0  0  0  0  0  0  0  0  1  0  0
  -26.6596  -28.3823   24.2314 C   0  0  1  0  0  0  0  0  0  0  0  0
  -26.9762  -30.4673   27.3814 C   0  0  2  0  0  0  0  0  0  0  0  0
  -33.0194  -22.0804   25.0381 C   0  0  2  0  0  0  0  0  0  0  0  0
  -26.5842  -29.0597   22.8339 C   0  0  0  0  0  0  0  0  0  0  0  0
  -25.8090  -11.5287   20.3432 N   0  0  0  0  0  0  0  0  0  0  0  0
  -26.2045  -12.8013   20.1699 N   0  0  0  0  0  0  0  0  0  0  0  0
  -26.1310  -26.0018   24.6530 N   0  0  0  0  0  0  0  0  0  0  0  0
  -29.9369  -13.5582   20.4523 N   0  0  0  0  0  0  0  0  0  0  0  0
  -25.4573  -15.0455   20.2971 N   0  0  0  0  0  0  0  0  0  0  0  0
  -21.8103  -12.6638   21.4901 N   0  0  0  0  0  0  0  0  0  0  0  0
  -30.0398  -15.6831   21.4704 N   0  0  0  0  0  0  0  0  0  0  0  0
  -24.4106  -23.2248   23.0329 N   0  0  0  0  0  0  0  0  0  0  0  0
  -26.4632  -29.2975   25.3504 N   0  0  0  0  0  0  0  0  0  0  0  0
  -27.5016  -30.0844   28.7224 N   0  3  0  0  0  0  0  0  0  0  0  0
  -32.4531  -20.7761   24.5874 N   0  3  0  0  0  0  0  0  0  0  0  0
  -22.6188  -14.7809   21.1397 O   0  0  0  0  0  0  0  0  0  0  0  0
  -26.0751  -24.7381   22.4314 O   0  0  0  0  0  0  0  0  0  0  0  0
  -24.4347  -27.5637   24.3076 O   0  0  0  0  0  0  0  0  0  0  0  0
  -28.4952  -28.8748   26.3845 O   0  0  0  0  0  0  0  0  0  0  0  0
  -31.8440  -14.8522   20.2721 O   0  0  0  0  0  0  0  0  0  0  0  0
  -21.4688   -7.1140   21.8341 O   0  0  0  0  0  0  0  0  0  0  0  0
  -30.9740  -22.5351   26.2594 O   0  0  0  0  0  0  0  0  0  1  0  0
  -23.7689   -3.1647   24.9190 F   0  0  0  0  0  0  0  0  0  0  0  0
  -20.3429   -6.3604   24.2439 F   0  0  0  0  0  0  0  0  0  0  0  0
  -29.3880  -20.3039   22.6555 F   0  0  0  0  0  0  0  0  0  0  0  0
  -34.1301  -18.4464   22.7950 Cl  0  0  0  0  0  0  0  0  0  0  0  0
  1  2  1  0  0  0  0
  1  5  2  0  0  0  0
  2  6  2  0  0  0  0
  3  8  2  0  0  0  0
  3 16  1  0  0  0  0
  4  9  1  0  0  0  0
  4 16  2  0  0  0  0
  5 18  1  0  0  0  0
  6 20  1  0  0  0  0
  7 10  2  0  0  0  0
  7 19  1  0  0  0  0
  8 25  1  0  0  0  0
  9 25  2  0  0  0  0
 10 26  1  0  0  0  0
 11 12  2  0  0  0  0
 11 27  1  0  0  0  0
 12 28  1  0  0  0  0
 13 21  1  0  0  0  0
 13 26  2  0  0  0  0
 14 24  1  0  0  0  0
 14 31  2  0  0  0  0
 15 28  2  0  0  0  0
 15 29  1  0  0  0  0
 16 32  1  0  0  0  0
 17 32  1  0  0  0  0
 17 33  2  0  0  0  0
 17 34  1  0  0  0  0
 18 20  2  0  0  0  0
 18 39  1  0  0  0  0
 19 21  2  0  0  0  0
 19 40  1  0  0  0  0
 20 48  1  0  0  0  0
 21 41  1  0  0  0  0
 22 24  2  0  0  0  0
 22 30  1  0  0  0  0
 22 51  1  0  0  0  0
 23 30  2  0  0  0  0
 23 31  1  0  0  0  0
 23 58  1  0  0  0  0
 24 70  1  0  0  0  0
 25 80  1  0  0  0  0
 26 81  1  0  0  0  0
 27 29  2  0  0  0  0
 27 80  1  0  0  0  0
 28 82  1  0  0  0  0
 29 83  1  0  0  0  0
 30 84  1  0  0  0  0
 31 85  1  0  0  0  0
 32 64  2  0  0  0  0
 33 65  1  0  0  0  0
 33 68  1  0  0  0  0
 34 69  1  0  0  0  0
 34 75  2  0  0  0  0
 35 49  1  0  0  0  0
 35 71  1  0  0  0  0
 35 76  2  0  0  0  0
 36 60  1  0  0  0  0
 36 66  1  0  0  0  0
 36 77  2  0  0  0  0
 37 61  1  0  0  0  0
 37 72  1  0  0  0  0
 37 78  2  0  0  0  0
 38 67  1  0  0  0  0
 38 70  1  0  0  0  0
 38 79  2  0  0  0  0
 39 42  1  0  0  0  0
 40 49  1  0  0  0  0
 41 66  1  0  0  0  0
 42 44  1  0  0  0  0
 43 45  1  0  0  0  0
 43 46  1  0  0  0  0
 44 48  1  0  0  0  0
 45 50  1  0  0  0  0
 46 67  1  0  0  0  0
 47 50  1  0  0  0  0
 47 67  1  0  0  0  0
 48 71  1  0  0  0  0
 49 66  1  0  0  0  0
 50 65  1  0  0  0  0
 52 61  1  0  0  0  0
 53 62  1  0  0  0  0
 54 63  1  0  0  0  0
 55 63  1  0  0  0  0
 56 63  1  0  0  0  0
 57 73  1  0  0  0  0
 58 74  1  0  0  0  0
 59 62  1  0  0  0  0
 59 81  1  0  0  0  0
 60 63  1  0  0  0  0
 60 72  1  0  0  0  0
 61 73  1  0  0  0  0
 62 74  1  0  0  0  0
 64 65  1  0  0  0  0
M  CHG  2  73   1  74   1
M  ISO  4  38 100  59 101  70 100  81 101
M  END
> <Batch ID>
0016

> <Smiles>
CNC(C)C(=O)NC(C(=O)N1Cc2cc([101O:1][101CH2:1]C(C)NCc3c(Cl)cc([100NH:0][100C:0](=O)N4CCCC(n5nc(-c6ccc(Oc7ccc(F)cc7F)cc6)c(C(N)=O)c5N)C4)c(C)c3F)ccc2CC1C(=O)NC1CCCc2ccccc21)C(C)(C)C

> <Shape>
0.216

> <Color>
0.198

> <Negative vol penalty>
0.000

$$$$

  -OEChem-04052315583D

 91 99  0     1  0  0  0  0  0999 V2000
  -18.1367  -24.8821   17.8664 C   0  0  0  0  0  0  0  0  0  0  0  0
  -18.5894  -23.6485   17.4097 C   0  0  0  0  0  0  0  0  0  0  0  0
  -24.4140  -30.5834   21.8765 C   0  0  0  0  0  0  0  0  0  0  0  0
  -26.8124  -30.8596   21.9679 C   0  0  0  0  0  0  0  0  0  0  0  0
  -18.7288  -25.4709   18.9829 C   0  0  0  0  0  0  0  0  0  0  0  0
  -19.6353  -23.0033   18.0687 C   0  0  0  0  0  0  0  0  0  0  0  0
  -21.9999  -16.4425   19.7061 C   0  0  0  0  0  0  0  0  0  0  0  0
  -24.2533  -31.7131   22.6787 C   0  0  0  0  0  0  0  0  0  0  0  0
  -26.6517  -31.9894   22.7700 C   0  0  0  0  0  0  0  0  0  0  0  0
  -23.1470  -15.6561   19.6103 C   0  0  0  0  0  0  0  0  0  0  0  0
  -25.8438  -35.2441   22.3526 C   0  0  0  0  0  0  0  0  0  0  0  0
  -26.6055  -36.3708   22.0428 C   0  0  0  0  0  0  0  0  0  0  0  0
  -24.0410  -16.7311   21.5761 C   0  0  0  0  0  0  0  0  0  0  0  0
  -28.1623  -17.0937   20.3534 C   0  0  0  0  0  0  0  0  0  0  0  0
  -27.6240  -36.2843   24.2319 C   0  0  0  0  0  0  0  0  0  0  0  0
  -25.6935  -30.1566   21.5211 C   0  0  0  0  0  0  0  0  0  0  0  0
  -25.9189  -28.9458   19.2871 C   0  0  0  0  0  0  0  0  0  0  0  0
  -19.7760  -24.8281   19.6618 C   0  0  0  0  0  0  0  0  0  0  0  0
  -21.8691  -17.3885   20.7330 C   0  0  0  0  0  0  0  0  0  0  0  0
  -20.2429  -23.5847   19.1946 C   0  0  0  0  0  0  0  0  0  0  0  0
  -22.8900  -17.5266   21.6842 C   0  0  0  0  0  0  0  0  0  0  0  0
  -29.3031  -16.5691   20.9607 C   0  0  0  0  0  0  0  0  0  0  0  0
  -29.3510  -19.1462   19.8935 C   0  0  0  0  0  0  0  0  0  0  0  0
  -25.3721  -32.4161   23.1255 C   0  0  0  0  0  0  0  0  0  0  0  0
  -24.1691  -15.8023   20.5437 C   0  0  0  0  0  0  0  0  0  0  0  0
  -25.9721  -34.6376   23.6022 C   0  0  0  0  0  0  0  0  0  0  0  0
  -27.4956  -36.8909   22.9824 C   0  0  0  0  0  0  0  0  0  0  0  0
  -26.8622  -35.1577   24.5418 C   0  0  0  0  0  0  0  0  0  0  0  0
  -28.1862  -18.3823   19.8197 C   0  0  0  0  0  0  0  0  0  0  0  0
  -30.4679  -17.3331   21.0346 C   0  0  0  0  0  0  0  0  0  0  0  0
  -30.4918  -18.6217   20.5009 C   0  0  0  0  0  0  0  0  0  0  0  0
  -25.8602  -28.9894   20.6930 C   0  0  0  0  0  0  0  0  0  0  0  0
  -26.0843  -27.6148   18.9914 C   0  0  0  0  0  0  0  0  0  0  0  0
  -25.8318  -30.0132   18.3337 C   0  0  0  0  0  0  0  0  0  0  0  0
  -21.5541  -20.5495   20.8442 C   0  0  0  0  0  0  0  0  0  0  0  0
  -21.1472  -20.0070   24.0163 C   0  0  0  0  0  0  0  0  0  0  0  0
  -21.6906  -17.9705   26.7004 C   0  0  0  0  0  0  0  0  0  0  0  0
  -27.7705  -13.3668   20.4294 C   0  0  0  0  0  0  0  0  0  0  0  0
  -28.5958  -22.8286   19.8464 C   0  0  0  0  0  0  0  0  0  0  0  0
  -20.4163  -25.5257   20.8357 C   0  0  0  0  0  0  0  0  0  0  0  0
  -20.6138  -18.2103   20.8381 C   0  0  0  0  0  0  0  0  0  0  0  0
  -22.7897  -18.5134   22.8176 C   0  0  0  0  0  0  0  0  0  0  0  0
  -21.2692  -24.6023   21.7018 C   0  0  0  0  0  0  0  0  0  0  0  0
  -25.7208  -23.5162   21.9343 C   0  0  0  0  0  0  0  0  0  0  0  0
  -22.1785  -23.7420   20.8300 C   0  0  0  0  0  0  0  0  0  0  0  0
  -25.5077  -25.0089   21.6763 C   0  0  0  0  0  0  0  0  0  0  0  0
  -27.2061  -23.1693   21.9784 C   0  0  0  0  0  0  0  0  0  0  0  0
  -27.7582  -25.0662   20.5050 C   0  0  0  0  0  0  0  0  0  0  0  0
  -21.3586  -22.8422   19.8975 C   0  0  1  0  0  0  0  0  0  0  0  0
  -20.8100  -19.5029   21.6243 C   0  0  1  0  0  0  0  0  0  0  0  0
  -26.2765  -25.4770   20.4266 C   0  0  2  0  0  0  0  0  0  0  0  0
  -27.8507  -11.5227   22.9822 C   0  0  0  0  0  0  0  0  0  0  0  0
  -21.2715  -17.8118   29.1695 C   0  0  0  0  0  0  0  0  0  0  0  0
  -25.5979  -12.3195   21.1520 C   0  0  0  0  0  0  0  0  0  0  0  0
  -23.3658  -22.0400   24.5212 C   0  0  0  0  0  0  0  0  0  0  0  0
  -23.5533  -21.1517   26.8545 C   0  0  0  0  0  0  0  0  0  0  0  0
  -21.4245  -22.2033   26.0894 C   0  0  0  0  0  0  0  0  0  0  0  0
  -29.8646  -14.1428   19.4041 C   0  0  0  0  0  0  0  0  0  0  0  0
  -20.1027  -15.4925   26.3891 C   0  0  0  0  0  0  0  0  0  0  0  0
  -29.2262  -15.1780   21.5201 C   0  0  0  0  0  0  0  0  0  0  0  0
  -29.3664  -20.5301   19.3172 C   0  0  0  0  0  0  0  0  0  0  0  0
  -27.2477  -12.9232   22.9382 C   0  0  0  0  0  0  0  0  0  0  0  0
  -25.9626  -14.7209   21.6706 C   0  0  0  0  0  0  0  0  0  1  0  0
  -22.0643  -19.9200   25.2124 C   0  0  1  0  0  0  0  0  0  0  0  0
  -20.7566  -17.4595   27.7826 C   0  0  2  0  0  0  0  0  0  0  0  0
  -26.6884  -13.3589   21.5561 C   0  0  1  0  0  0  0  0  0  0  0  0
  -22.6050  -21.3114   25.6470 C   0  0  0  0  0  0  0  0  0  0  0  0
  -25.9785  -27.7819   21.2516 N   0  0  0  0  0  0  0  0  0  0  0  0
  -26.1131  -26.9672   20.1913 N   0  0  0  0  0  0  0  0  0  0  0  0
  -21.5454  -19.2984   22.8739 N   0  0  0  0  0  0  0  0  0  0  0  0
  -27.8757  -23.6252   20.7520 N   0  0  0  0  0  0  0  0  0  0  0  0
  -26.2064  -26.9469   17.8246 N   0  0  0  0  0  0  0  0  0  0  0  0
  -25.6624  -31.3209   18.8085 N   0  0  0  0  0  0  0  0  0  0  0  0
  -20.8321  -21.7070   20.6247 N   0  0  0  0  0  0  0  0  0  0  0  0
  -21.3162  -19.2188   26.2502 N   0  0  0  0  0  0  0  0  0  0  0  0
  -28.6655  -21.4760   20.1568 N   0  0  0  0  0  0  0  0  0  0  0  0
  -28.8927  -14.1957   20.4955 N   0  0  0  0  0  0  0  0  0  0  0  0
  -20.6220  -15.9780   27.6935 N   0  3  0  0  0  0  0  0  0  0  0  0
  -25.8857  -29.8112   17.0969 O   0  0  0  0  0  0  0  0  0  0  0  0
  -22.6992  -20.3241   20.4705 O   0  0  0  0  0  0  0  0  0  0  0  0
  -20.1120  -20.6731   24.0953 O   0  0  0  0  0  0  0  0  0  0  0  0
  -22.6580  -17.3282   26.2976 O   0  0  0  0  0  0  0  0  0  0  0  0
  -27.6075  -12.6048   19.4634 O   0  0  0  0  0  0  0  0  0  0  0  0
  -29.1329  -23.2879   18.8327 O   0  0  0  0  0  0  0  0  0  0  0  0
  -25.2157  -33.5187   23.9081 O   0  0  0  0  0  0  0  0  0  0  0  0
  -25.2902  -15.0364   20.4521 O   0  0  0  0  0  0  0  0  0  1  0  0
  -28.2281  -37.9719   22.6841 F   0  0  0  0  0  0  0  0  0  0  0  0
  -26.9907  -34.5786   25.7435 F   0  0  0  0  0  0  0  0  0  0  0  0
  -26.7515  -18.9909   19.0756 Cl  0  0  0  0  0  0  0  0  0  0  0  0
  -31.8695  -16.6501   21.7985 Cl  0  0  0  0  0  0  0  0  0  0  0  0
  -31.9294  -19.5936   20.5803 Cl  0  0  0  0  0  0  0  0  0  0  0  0
  1  2  1  0  0  0  0
  1  5  2  0  0  0  0
  2  6  2  0  0  0  0
  3  8  2  0  0  0  0
  3 16  1  0  0  0  0
  4  9  1  0  0  0  0
  4 16  2  0  0  0  0
  5 18  1  0  0  0  0
  6 20  1  0  0  0  0
  7 10  2  0  0  0  0
  7 19  1  0  0  0  0
  8 24  1  0  0  0  0
  9 24  2  0  0  0  0
 10 25  1  0  0  0  0
 11 12  2  0  0  0  0
 11 26  1  0  0  0  0
 12 27  1  0  0  0  0
 13 21  1  0  0  0  0
 13 25  2  0  0  0  0
 14 22  1  0  0  0  0
 14 29  2  0  0  0  0
 15 27  2  0  0  0  0
 15 28  1  0  0  0  0
 16 32  1  0  0  0  0
 17 32  1  0  0  0  0
 17 33  2  0  0  0  0
 17 34  1  0  0  0  0
 18 20  2  0  0  0  0
 18 40  1  0  0  0  0
 19 21  2  0  0  0  0
 19 41  1  0  0  0  0
 20 49  1  0  0  0  0
 21 42  1  0  0  0  0
 22 30  2  0  0  0  0
 22 60  1  0  0  0  0
 23 29  1  0  0  0  0
 23 31  2  0  0  0  0
 23 61  1  0  0  0  0
 24 85  1  0  0  0  0
 25 86  1  0  0  0  0
 26 28  2  0  0  0  0
 26 85  1  0  0  0  0
 27 87  1  0  0  0  0
 28 88  1  0  0  0  0
 29 89  1  0  0  0  0
 30 31  1  0  0  0  0
 30 90  1  0  0  0  0
 31 91  1  0  0  0  0
 32 68  2  0  0  0  0
 33 69  1  0  0  0  0
 33 72  1  0  0  0  0
 34 73  1  0  0  0  0
 34 79  2  0  0  0  0
 35 50  1  0  0  0  0
 35 74  1  0  0  0  0
 35 80  2  0  0  0  0
 36 64  1  0  0  0  0
 36 70  1  0  0  0  0
 36 81  2  0  0  0  0
 37 65  1  0  0  0  0
 37 75  1  0  0  0  0
 37 82  2  0  0  0  0
 38 66  1  0  0  0  0
 38 77  1  0  0  0  0
 38 83  2  0  0  0  0
 39 71  1  0  0  0  0
 39 76  1  0  0  0  0
 39 84  2  0  0  0  0
 40 43  1  0  0  0  0
 41 50  1  0  0  0  0
 42 70  1  0  0  0  0
 43 45  1  0  0  0  0
 44 46  1  0  0  0  0
 44 47  1  0  0  0  0
 45 49  1  0  0  0  0
 46 51  1  0  0  0  0
 47 71  1  0  0  0  0
 48 51  1  0  0  0  0
 48 71  1  0  0  0  0
 49 74  1  0  0  0  0
 50 70  1  0  0  0  0
 51 69  1  0  0  0  0
 52 62  1  0  0  0  0
 53 65  1  0  0  0  0
 54 66  1  0  0  0  0
 55 67  1  0  0  0  0
 56 67  1  0  0  0  0
 57 67  1  0  0  0  0
 58 77  1  0  0  0  0
 59 78  1  0  0  0  0
 60 77  1  0  0  0  0
 61 76  1  0  0  0  0
 62 66  1  0  0  0  0
 63 66  1  0  0  0  0
 63 86  1  0  0  0  0
 64 67  1  0  0  0  0
 64 75  1  0  0  0  0
 65 78  1  0  0  0  0
 68 69  1  0  0  0  0
M  CHG  1  78   1
M  ISO  4  39 100  63 101  76 100  86 101
M  END
> <Batch ID>
0016

> <Smiles>
CCC(C)(C(=O)N(C)Cc1cc(Cl)c(C[100NH:0][100C:0](=O)N2CCCC(n3nc(-c4ccc(Oc5ccc(F)cc5F)cc4)c(C(N)=O)c3N)C2)c(Cl)c1Cl)[101CH2:1][101O:1]c1ccc2c(c1)CN(C(=O)C(NC(=O)C(C)NC)C(C)(C)C)C(C(=O)NC1CCCc3ccccc31)C2

> <Shape>
0.221

> <Color>
0.053

> <Negative vol penalty>
0.000

$$$$

  -OEChem-04052315583D

 79 87  0     1  0  0  0  0  0999 V2000
  -27.8788  -32.6895   27.4312 C   0  0  0  0  0  0  0  0  0  0  0  0
  -28.0760  -31.5436   26.6674 C   0  0  0  0  0  0  0  0  0  0  0  0
  -28.4295  -11.1355   22.1135 C   0  0  0  0  0  0  0  0  0  0  0  0
  -27.2704  -11.9610   20.1610 C   0  0  0  0  0  0  0  0  0  0  0  0
  -26.5995  -33.2286   27.5597 C   0  0  0  0  0  0  0  0  0  0  0  0
  -26.9937  -30.9355   26.0325 C   0  0  0  0  0  0  0  0  0  0  0  0
  -27.0334  -28.0792   20.6153 C   0  0  0  0  0  0  0  0  0  0  0  0
  -26.4991  -21.0352   17.6067 C   0  0  0  0  0  0  0  0  0  0  0  0
  -27.4991  -10.1028   22.2293 C   0  0  0  0  0  0  0  0  0  0  0  0
  -26.3400  -10.9282   20.2767 C   0  0  0  0  0  0  0  0  0  0  0  0
  -27.1103  -26.7317   20.2659 C   0  0  0  0  0  0  0  0  0  0  0  0
  -23.4525   -8.7210   20.2687 C   0  0  0  0  0  0  0  0  0  0  0  0
  -22.1034   -9.0445   20.1240 C   0  0  0  0  0  0  0  0  0  0  0  0
  -26.6026  -22.3756   17.9615 C   0  0  0  0  0  0  0  0  0  0  0  0
  -24.7061  -26.6466   20.0884 C   0  0  0  0  0  0  0  0  0  0  0  0
  -22.2633  -10.5524   22.0049 C   0  0  0  0  0  0  0  0  0  0  0  0
  -28.3151  -12.0647   21.0794 C   0  0  0  0  0  0  0  0  0  0  0  0
  -30.4823  -13.1124   20.2348 C   0  0  0  0  0  0  0  0  0  0  0  0
  -25.5024  -32.6323   26.9181 C   0  0  0  0  0  0  0  0  0  0  0  0
  -25.7894  -28.7188   20.7146 C   0  0  0  0  0  0  0  0  0  0  0  0
  -25.6982  -31.4664   26.1536 C   0  0  0  0  0  0  0  0  0  0  0  0
  -24.6162  -28.0030   20.4367 C   0  0  0  0  0  0  0  0  0  0  0  0
  -26.9808  -20.0549   18.4671 C   0  0  0  0  0  0  0  0  0  0  0  0
  -26.4543   -9.9991   21.3109 C   0  0  0  0  0  0  0  0  0  0  0  0
  -25.9465  -26.0144   20.0052 C   0  0  0  0  0  0  0  0  0  0  0  0
  -24.2070   -9.3131   21.2815 C   0  0  0  0  0  0  0  0  0  0  0  0
  -21.5088   -9.9602   20.9921 C   0  0  0  0  0  0  0  0  0  0  0  0
  -23.6124  -10.2288   22.1496 C   0  0  0  0  0  0  0  0  0  0  0  0
  -29.2756  -13.1320   20.9596 C   0  0  0  0  0  0  0  0  0  0  0  0
  -27.1915  -22.6809   19.1780 C   0  0  0  0  0  0  0  0  0  0  0  0
  -27.5530  -20.4641   19.6609 C   0  0  0  0  0  0  0  0  0  0  0  0
  -31.0251  -14.3576   20.4379 C   0  0  0  0  0  0  0  0  0  0  0  0
  -31.0607  -12.0625   19.4481 C   0  0  0  0  0  0  0  0  0  0  0  0
  -24.1788  -30.1404   23.0574 C   0  0  0  0  0  0  0  0  0  0  0  0
  -22.1292  -30.9000   20.6607 C   0  0  0  0  0  0  0  0  0  0  0  0
  -20.8977  -30.1727   17.5621 C   0  0  0  0  0  0  0  0  0  0  0  0
  -28.6537  -19.6744   21.7848 C   0  0  0  0  0  0  0  0  0  0  0  0
  -24.1308  -33.2243   27.1250 C   0  0  0  0  0  0  0  0  0  0  0  0
  -25.7250  -30.1798   21.0665 C   0  0  0  0  0  0  0  0  0  0  0  0
  -23.2573  -28.6484   20.5097 C   0  0  0  0  0  0  0  0  0  0  0  0
  -23.0971  -32.7342   26.1142 C   0  0  0  0  0  0  0  0  0  0  0  0
  -31.1348  -17.9182   23.6387 C   0  0  0  0  0  0  0  0  0  0  0  0
  -23.1789  -31.2189   25.9590 C   0  0  0  0  0  0  0  0  0  0  0  0
  -31.0536  -16.4911   23.0918 C   0  0  0  0  0  0  0  0  0  0  0  0
  -29.7573  -18.5736   23.7201 C   0  0  0  0  0  0  0  0  0  0  0  0
  -28.9004  -17.1181   21.9266 C   0  0  0  0  0  0  0  0  0  0  0  0
  -24.5533  -30.7921   25.4293 C   0  0  1  0  0  0  0  0  0  0  0  0
  -24.3741  -30.5974   21.6394 C   0  0  1  0  0  0  0  0  0  0  0  0
  -30.2706  -16.4397   21.7652 C   0  0  2  0  0  0  0  0  0  0  0  0
  -26.8680  -18.6187   18.0831 C   0  0  0  0  0  0  0  0  0  0  0  0
  -19.2021  -30.9507   15.8837 C   0  0  0  0  0  0  0  0  0  0  0  0
  -19.9016  -29.6700   22.3445 C   0  0  0  0  0  0  0  0  0  0  0  0
  -18.4754  -29.6096   20.2877 C   0  0  0  0  0  0  0  0  0  0  0  0
  -19.2788  -31.7951   21.1825 C   0  0  0  0  0  0  0  0  0  0  0  0
  -22.9821  -30.7023   15.5290 C   0  0  0  0  0  0  0  0  0  0  0  0
  -27.3197  -24.1170   19.5931 C   0  0  0  0  0  0  0  0  0  1  0  0
  -20.9181  -30.2448   20.0418 C   0  0  1  0  0  0  0  0  0  0  0  0
  -20.6474  -31.0473   16.3469 C   0  0  2  0  0  0  0  0  0  0  0  0
  -19.6688  -30.3169   20.9646 C   0  0  0  0  0  0  0  0  0  0  0  0
  -29.0640  -14.2972   21.5772 N   0  0  0  0  0  0  0  0  0  0  0  0
  -27.6710  -21.7564   20.0399 N   0  0  0  0  0  0  0  0  0  0  0  0
  -30.1450  -15.0214   21.2411 N   0  0  0  0  0  0  0  0  0  0  0  0
  -23.2461  -30.0773   20.8640 N   0  0  0  0  0  0  0  0  0  0  0  0
  -29.0762  -18.4908   22.4262 N   0  0  0  0  0  0  0  0  0  0  0  0
  -32.1646  -14.9386   20.0062 N   0  0  0  0  0  0  0  0  0  0  0  0
  -30.3705  -10.8471   19.3449 N   0  0  0  0  0  0  0  0  0  0  0  0
  -28.0474  -19.4735   20.5452 N   0  0  0  0  0  0  0  0  0  0  0  0
  -24.6430  -31.0326   24.0051 N   0  0  0  0  0  0  0  0  0  0  0  0
  -20.7352  -30.8738   18.7382 N   0  0  0  0  0  0  0  0  0  0  0  0
  -21.5306  -30.6334   15.2201 N   0  3  0  0  0  0  0  0  0  0  0  0
  -32.1651  -12.1926   18.8677 O   0  0  0  0  0  0  0  0  0  0  0  0
  -23.6450  -29.0591   23.2756 O   0  0  0  0  0  0  0  0  0  0  0  0
  -22.0881  -32.0993   20.9465 O   0  0  0  0  0  0  0  0  0  0  0  0
  -21.2029  -28.9852   17.4767 O   0  0  0  0  0  0  0  0  0  0  0  0
  -28.8421  -20.7863   22.2849 O   0  0  0  0  0  0  0  0  0  0  0  0
  -25.5464   -8.9914   21.4234 O   0  0  0  0  0  0  0  0  0  0  0  0
  -26.0187  -24.6989   19.6647 O   0  0  0  0  0  0  0  0  0  1  0  0
  -20.2137  -10.2719   20.8520 F   0  0  0  0  0  0  0  0  0  0  0  0
  -24.3324  -10.8018   23.1238 F   0  0  0  0  0  0  0  0  0  0  0  0
  1  2  1  0  0  0  0
  1  5  2  0  0  0  0
  2  6  2  0  0  0  0
  3  9  2  0  0  0  0
  3 17  1  0  0  0  0
  4 10  1  0  0  0  0
  4 17  2  0  0  0  0
  5 19  1  0  0  0  0
  6 21  1  0  0  0  0
  7 11  2  0  0  0  0
  7 20  1  0  0  0  0
  8 14  2  0  0  0  0
  8 23  1  0  0  0  0
  9 24  1  0  0  0  0
 10 24  2  0  0  0  0
 11 25  1  0  0  0  0
 12 13  2  0  0  0  0
 12 26  1  0  0  0  0
 13 27  1  0  0  0  0
 14 30  1  0  0  0  0
 15 22  1  0  0  0  0
 15 25  2  0  0  0  0
 16 27  2  0  0  0  0
 16 28  1  0  0  0  0
 17 29  1  0  0  0  0
 18 29  1  0  0  0  0
 18 32  2  0  0  0  0
 18 33  1  0  0  0  0
 19 21  2  0  0  0  0
 19 38  1  0  0  0  0
 20 22  2  0  0  0  0
 20 39  1  0  0  0  0
 21 47  1  0  0  0  0
 22 40  1  0  0  0  0
 23 31  2  0  0  0  0
 23 50  1  0  0  0  0
 24 76  1  0  0  0  0
 25 77  1  0  0  0  0
 26 28  2  0  0  0  0
 26 76  1  0  0  0  0
 27 78  1  0  0  0  0
 28 79  1  0  0  0  0
 29 60  2  0  0  0  0
 30 56  1  0  0  0  0
 30 61  2  0  0  0  0
 31 61  1  0  0  0  0
 31 67  1  0  0  0  0
 32 62  1  0  0  0  0
 32 65  1  0  0  0  0
 33 66  1  0  0  0  0
 33 71  2  0  0  0  0
 34 48  1  0  0  0  0
 34 68  1  0  0  0  0
 34 72  2  0  0  0  0
 35 57  1  0  0  0  0
 35 63  1  0  0  0  0
 35 73  2  0  0  0  0
 36 58  1  0  0  0  0
 36 69  1  0  0  0  0
 36 74  2  0  0  0  0
 37 64  1  0  0  0  0
 37 67  1  0  0  0  0
 37 75  2  0  0  0  0
 38 41  1  0  0  0  0
 39 48  1  0  0  0  0
 40 63  1  0  0  0  0
 41 43  1  0  0  0  0
 42 44  1  0  0  0  0
 42 45  1  0  0  0  0
 43 47  1  0  0  0  0
 44 49  1  0  0  0  0
 45 64  1  0  0  0  0
 46 49  1  0  0  0  0
 46 64  1  0  0  0  0
 47 68  1  0  0  0  0
 48 63  1  0  0  0  0
 49 62  1  0  0  0  0
 51 58  1  0  0  0  0
 52 59  1  0  0  0  0
 53 59  1  0  0  0  0
 54 59  1  0  0  0  0
 55 70  1  0  0  0  0
 56 77  1  0  0  0  0
 57 59  1  0  0  0  0
 57 69  1  0  0  0  0
 58 70  1  0  0  0  0
 60 62  1  0  0  0  0
M  CHG  1  70   1
M  ISO  4  37 100  56 101  67 100  77 101
M  END
> <Batch ID>
0016

> <Smiles>
CNC(C)C(=O)NC(C(=O)N1Cc2cc([101O:1][101CH2:1]c3ccc(C)c([100NH:0][100C:0](=O)N4CCCC(n5nc(-c6ccc(Oc7ccc(F)cc7F)cc6)c(C(N)=O)c5N)C4)n3)ccc2CC1C(=O)NC1CCCc2ccccc21)C(C)(C)C

> <Shape>
0.265

> <Color>
0.068

> <Negative vol penalty>
0.000

$$$$

  -OEChem-04052315583D

 91 99  0     1  0  0  0  0  0999 V2000
  -18.6095  -33.9940   22.5783 C   0  0  0  0  0  0  0  0  0  0  0  0
  -19.8931  -33.9820   22.0422 C   0  0  0  0  0  0  0  0  0  0  0  0
  -22.5637   -9.8050   19.9972 C   0  0  0  0  0  0  0  0  0  0  0  0
  -24.4351   -9.4323   21.4791 C   0  0  0  0  0  0  0  0  0  0  0  0
  -18.1921  -32.9543   23.4082 C   0  0  0  0  0  0  0  0  0  0  0  0
  -20.7607  -32.9307   22.3366 C   0  0  0  0  0  0  0  0  0  0  0  0
  -26.0699  -29.0947   19.4360 C   0  0  0  0  0  0  0  0  0  0  0  0
  -22.1206   -8.5029   20.2294 C   0  0  0  0  0  0  0  0  0  0  0  0
  -23.9919   -8.1303   21.7114 C   0  0  0  0  0  0  0  0  0  0  0  0
  -27.3739  -28.6829   19.7075 C   0  0  0  0  0  0  0  0  0  0  0  0
  -23.1544   -4.8261   22.9760 C   0  0  0  0  0  0  0  0  0  0  0  0
  -23.1479   -4.3677   24.2933 C   0  0  0  0  0  0  0  0  0  0  0  0
  -26.5171  -26.9008   21.0893 C   0  0  0  0  0  0  0  0  0  0  0  0
  -31.2368  -17.3644   19.5816 C   0  0  0  0  0  0  0  0  0  0  0  0
  -21.6237   -6.1404   24.9027 C   0  0  0  0  0  0  0  0  0  0  0  0
  -23.7211  -10.2697   20.6220 C   0  0  0  0  0  0  0  0  0  0  0  0
  -23.8366  -12.7715   21.1066 C   0  0  0  0  0  0  0  0  0  0  0  0
  -19.0517  -31.8848   23.7052 C   0  0  0  0  0  0  0  0  0  0  0  0
  -24.9781  -28.4181   19.9989 C   0  0  0  0  0  0  0  0  0  0  0  0
  -20.3549  -31.8764   23.1723 C   0  0  0  0  0  0  0  0  0  0  0  0
  -25.2002  -27.3044   20.8214 C   0  0  0  0  0  0  0  0  0  0  0  0
  -31.9332  -18.6244   21.5219 C   0  0  0  0  0  0  0  0  0  0  0  0
  -30.6926  -18.3943   22.1166 C   0  0  0  0  0  0  0  0  0  0  0  0
  -29.9963  -17.1342   20.1763 C   0  0  0  0  0  0  0  0  0  0  0  0
  -22.8346   -7.6656   21.0865 C   0  0  0  0  0  0  0  0  0  0  0  0
  -27.5978  -27.5876   20.5366 C   0  0  0  0  0  0  0  0  0  0  0  0
  -22.3955   -5.9417   22.6219 C   0  0  0  0  0  0  0  0  0  0  0  0
  -22.3826   -5.0249   25.2567 C   0  0  0  0  0  0  0  0  0  0  0  0
  -32.2053  -18.1095   20.2545 C   0  0  0  0  0  0  0  0  0  0  0  0
  -21.6301   -6.5988   23.5853 C   0  0  0  0  0  0  0  0  0  0  0  0
  -29.7242  -17.6491   21.4438 C   0  0  0  0  0  0  0  0  0  0  0  0
  -24.1797  -11.6143   20.3821 C   0  0  0  0  0  0  0  0  0  0  0  0
  -24.5296  -13.7826   20.4871 C   0  0  0  0  0  0  0  0  0  0  0  0
  -22.9690  -12.9193   22.2385 C   0  0  0  0  0  0  0  0  0  0  0  0
  -22.6253  -29.2154   21.9819 C   0  0  0  0  0  0  0  0  0  0  0  0
  -21.5609  -26.2286   21.2974 C   0  0  0  0  0  0  0  0  0  0  0  0
  -33.1106  -21.6729   21.1683 C   0  0  0  0  0  0  0  0  0  0  0  0
  -31.4440  -25.8959   20.1746 C   0  0  0  0  0  0  0  0  0  0  0  0
  -22.2881  -23.0627   20.2510 C   0  0  0  0  0  0  0  0  0  0  0  0
  -29.1841  -15.8053   18.1963 C   0  0  0  0  0  0  0  0  0  0  0  0
  -18.5720  -30.8075   24.6453 C   0  0  0  0  0  0  0  0  0  0  0  0
  -23.5769  -28.8584   19.6747 C   0  0  0  0  0  0  0  0  0  0  0  0
  -24.0619  -26.5316   21.4341 C   0  0  0  0  0  0  0  0  0  0  0  0
  -19.4240  -29.5414   24.6062 C   0  0  0  0  0  0  0  0  0  0  0  0
  -27.0768  -13.8312   16.1131 C   0  0  0  0  0  0  0  0  0  0  0  0
  -20.9071  -29.8942   24.6594 C   0  0  0  0  0  0  0  0  0  0  0  0
  -26.1070  -13.1737   17.0977 C   0  0  0  0  0  0  0  0  0  0  0  0
  -28.4832  -13.9514   16.6973 C   0  0  0  0  0  0  0  0  0  0  0  0
  -27.5873  -13.9526   18.9921 C   0  0  0  0  0  0  0  0  0  0  0  0
  -21.3166  -30.7410   23.4484 C   0  0  1  0  0  0  0  0  0  0  0  0
  -22.5543  -28.4111   20.7148 C   0  0  1  0  0  0  0  0  0  0  0  0
  -26.1426  -13.8686   18.4729 C   0  0  2  0  0  0  0  0  0  0  0  0
  -30.4221  -18.9566   23.4779 C   0  0  0  0  0  0  0  0  0  0  0  0
  -21.2173  -20.8327   19.8291 C   0  0  0  0  0  0  0  0  0  0  0  0
  -21.4603  -25.7111   24.3027 C   0  0  0  0  0  0  0  0  0  0  0  0
  -21.3194  -23.2613   23.8057 C   0  0  0  0  0  0  0  0  0  0  0  0
  -19.5170  -24.7970   23.0211 C   0  0  0  0  0  0  0  0  0  0  0  0
  -23.0237  -23.1216   17.3849 C   0  0  0  0  0  0  0  0  0  0  0  0
  -32.9923  -19.4231   22.2252 C   0  0  0  0  0  0  0  0  0  0  0  0
  -32.6722  -23.1070   21.4048 C   0  0  0  0  0  0  0  0  0  0  0  0
  -31.2642  -27.3380   20.6225 C   0  0  0  0  0  0  0  0  0  0  0  0
  -33.1047  -24.0412   20.2830 C   0  0  0  0  0  0  0  0  0  0  0  0
  -29.9274  -27.9285   20.2011 C   0  0  0  0  0  0  0  0  0  1  0  0
  -21.7759  -24.8557   21.8872 C   0  0  1  0  0  0  0  0  0  0  0  0
  -21.6262  -22.1653   19.2210 C   0  0  2  0  0  0  0  0  0  0  0  0
  -21.0399  -24.6718   23.2444 C   0  0  0  0  0  0  0  0  0  0  0  0
  -25.0249  -11.8658   19.3788 N   0  0  0  0  0  0  0  0  0  0  0  0
  -25.2186  -13.1927   19.4685 N   0  0  0  0  0  0  0  0  0  0  0  0
  -22.7103  -27.0049   21.0923 N   0  0  0  0  0  0  0  0  0  0  0  0
  -28.4393  -14.6235   17.9977 N   0  0  0  0  0  0  0  0  0  0  0  0
  -24.6107  -15.1100   20.7196 N   0  0  0  0  0  0  0  0  0  0  0  0
  -22.3365  -11.7775   22.7490 N   0  0  0  0  0  0  0  0  0  0  0  0
  -29.0385  -16.3728   19.4617 N   0  0  0  0  0  0  0  0  0  0  0  0
  -21.4653  -29.9066   22.2753 N   0  0  0  0  0  0  0  0  0  0  0  0
  -32.7069  -20.8393   22.2009 N   0  0  0  0  0  0  0  0  0  0  0  0
  -32.6720  -25.3889   20.5748 N   0  0  0  0  0  0  0  0  0  0  0  0
  -21.3776  -23.9021   20.8574 N   0  0  0  0  0  0  0  0  0  0  0  0
  -22.5592  -21.8992   18.0898 N   0  3  0  0  0  0  0  0  0  0  0  0
  -22.7481  -14.0333   22.7710 O   0  0  0  0  0  0  0  0  0  0  0  0
  -23.6557  -29.2081   22.6452 O   0  0  0  0  0  0  0  0  0  0  0  0
  -20.4160  -26.5959   21.0220 O   0  0  0  0  0  0  0  0  0  0  0  0
  -33.7422  -21.3179   20.1769 O   0  0  0  0  0  0  0  0  0  0  0  0
  -30.5948  -25.2771   19.5390 O   0  0  0  0  0  0  0  0  0  0  0  0
  -23.4917  -23.0205   20.4959 O   0  0  0  0  0  0  0  0  0  0  0  0
  -29.8771  -16.2939   17.3001 O   0  0  0  0  0  0  0  0  0  0  0  0
  -22.4023   -6.3951   21.3135 O   0  0  0  0  0  0  0  0  0  0  0  0
  -28.8697  -27.1840   20.8037 O   0  0  0  0  0  0  0  0  0  1  0  0
  -22.3753   -4.5836   26.5213 F   0  0  0  0  0  0  0  0  0  0  0  0
  -33.3943  -18.3248   19.6740 F   0  0  0  0  0  0  0  0  0  0  0  0
  -20.8981   -7.6704   23.2510 F   0  0  0  0  0  0  0  0  0  0  0  0
  -28.1824  -17.3643   22.1852 Cl  0  0  0  0  0  0  0  0  0  0  0  0
  1  2  1  0  0  0  0
  1  5  2  0  0  0  0
  2  6  2  0  0  0  0
  3  8  2  0  0  0  0
  3 16  1  0  0  0  0
  4  9  1  0  0  0  0
  4 16  2  0  0  0  0
  5 18  1  0  0  0  0
  6 20  1  0  0  0  0
  7 10  2  0  0  0  0
  7 19  1  0  0  0  0
  8 25  1  0  0  0  0
  9 25  2  0  0  0  0
 10 26  1  0  0  0  0
 11 12  2  0  0  0  0
 11 27  1  0  0  0  0
 12 28  1  0  0  0  0
 13 21  1  0  0  0  0
 13 26  2  0  0  0  0
 14 24  1  0  0  0  0
 14 29  2  0  0  0  0
 15 28  2  0  0  0  0
 15 30  1  0  0  0  0
 16 32  1  0  0  0  0
 17 32  1  0  0  0  0
 17 33  2  0  0  0  0
 17 34  1  0  0  0  0
 18 20  2  0  0  0  0
 18 41  1  0  0  0  0
 19 21  2  0  0  0  0
 19 42  1  0  0  0  0
 20 50  1  0  0  0  0
 21 43  1  0  0  0  0
 22 23  2  0  0  0  0
 22 29  1  0  0  0  0
 22 59  1  0  0  0  0
 23 31  1  0  0  0  0
 23 53  1  0  0  0  0
 24 31  2  0  0  0  0
 24 73  1  0  0  0  0
 25 86  1  0  0  0  0
 26 87  1  0  0  0  0
 27 30  2  0  0  0  0
 27 86  1  0  0  0  0
 28 88  1  0  0  0  0
 29 89  1  0  0  0  0
 30 90  1  0  0  0  0
 31 91  1  0  0  0  0
 32 67  2  0  0  0  0
 33 68  1  0  0  0  0
 33 71  1  0  0  0  0
 34 72  1  0  0  0  0
 34 79  2  0  0  0  0
 35 51  1  0  0  0  0
 35 74  1  0  0  0  0
 35 80  2  0  0  0  0
 36 64  1  0  0  0  0
 36 69  1  0  0  0  0
 36 81  2  0  0  0  0
 37 60  1  0  0  0  0
 37 75  1  0  0  0  0
 37 82  2  0  0  0  0
 38 61  1  0  0  0  0
 38 76  1  0  0  0  0
 38 83  2  0  0  0  0
 39 65  1  0  0  0  0
 39 77  1  0  0  0  0
 39 84  2  0  0  0  0
 40 70  1  0  0  0  0
 40 73  1  0  0  0  0
 40 85  2  0  0  0  0
 41 44  1  0  0  0  0
 42 51  1  0  0  0  0
 43 69  1  0  0  0  0
 44 46  1  0  0  0  0
 45 47  1  0  0  0  0
 45 48  1  0  0  0  0
 46 50  1  0  0  0  0
 47 52  1  0  0  0  0
 48 70  1  0  0  0  0
 49 52  1  0  0  0  0
 49 70  1  0  0  0  0
 50 74  1  0  0  0  0
 51 69  1  0  0  0  0
 52 68  1  0  0  0  0
 54 65  1  0  0  0  0
 55 66  1  0  0  0  0
 56 66  1  0  0  0  0
 57 66  1  0  0  0  0
 58 78  1  0  0  0  0
 59 75  1  0  0  0  0
 60 62  1  0  0  0  0
 61 63  1  0  0  0  0
 62 76  1  0  0  0  0
 63 87  1  0  0  0  0
 64 66  1  0  0  0  0
 64 77  1  0  0  0  0
 65 78  1  0  0  0  0
 67 68  1  0  0  0  0
M  CHG  1  78   1
M  ISO  4  40 100  63 101  73 100  87 101
M  END
> <Batch ID>
0016

> <Smiles>
CNC(C)C(=O)NC(C(=O)N1Cc2cc([101O:1][101CH2:1]CC(=O)NCCC(=O)NCc3c(F)cc([100NH:0][100C:0](=O)N4CCCC(n5nc(-c6ccc(Oc7ccc(F)cc7F)cc6)c(C(N)=O)c5N)C4)c(Cl)c3C)ccc2CC1C(=O)NC1CCCc2ccccc21)C(C)(C)C

> <Shape>
0.259

> <Color>
0.135

> <Negative vol penalty>
0.000

$$$$

  -OEChem-04052315583D

 87 95  0     1  0  0  0  0  0999 V2000
  -22.4095  -29.5213   27.1513 C   0  0  0  0  0  0  0  0  0  0  0  0
  -23.1976  -28.7824   26.2747 C   0  0  0  0  0  0  0  0  0  0  0  0
  -24.2684   -8.7995   20.6266 C   0  0  0  0  0  0  0  0  0  0  0  0
  -23.0252  -10.7827   21.2252 C   0  0  0  0  0  0  0  0  0  0  0  0
  -21.1530  -29.9707   26.7473 C   0  0  0  0  0  0  0  0  0  0  0  0
  -22.7292  -28.4915   24.9940 C   0  0  0  0  0  0  0  0  0  0  0  0
  -26.2458  -29.2278   21.4253 C   0  0  0  0  0  0  0  0  0  0  0  0
  -27.1844  -19.3660   23.0715 C   0  0  0  0  0  0  0  0  0  0  0  0
  -27.6606  -20.3647   22.2222 C   0  0  0  0  0  0  0  0  0  0  0  0
  -23.4510   -8.0356   21.4595 C   0  0  0  0  0  0  0  0  0  0  0  0
  -22.2077  -10.0188   22.0581 C   0  0  0  0  0  0  0  0  0  0  0  0
  -27.2241  -28.2447   21.2829 C   0  0  0  0  0  0  0  0  0  0  0  0
  -20.3572   -6.6758   21.3475 C   0  0  0  0  0  0  0  0  0  0  0  0
  -19.8784   -5.4634   20.8512 C   0  0  0  0  0  0  0  0  0  0  0  0
  -26.0285  -27.3369   19.3946 C   0  0  0  0  0  0  0  0  0  0  0  0
  -20.9821   -4.2903   22.6520 C   0  0  0  0  0  0  0  0  0  0  0  0
  -24.0556  -10.1731   20.5094 C   0  0  0  0  0  0  0  0  0  0  0  0
  -24.6964  -11.2469   18.2859 C   0  0  0  0  0  0  0  0  0  0  0  0
  -20.6729  -29.6933   25.4576 C   0  0  0  0  0  0  0  0  0  0  0  0
  -25.1440  -29.2663   20.5587 C   0  0  0  0  0  0  0  0  0  0  0  0
  -21.4645  -28.9364   24.5728 C   0  0  0  0  0  0  0  0  0  0  0  0
  -25.0390  -28.3230   19.5265 C   0  0  0  0  0  0  0  0  0  0  0  0
  -27.3617  -18.0233   22.7375 C   0  0  0  0  0  0  0  0  0  0  0  0
  -28.3140  -20.0209   21.0388 C   0  0  0  0  0  0  0  0  0  0  0  0
  -28.0151  -17.6795   21.5541 C   0  0  0  0  0  0  0  0  0  0  0  0
  -22.4206   -8.6452   22.1753 C   0  0  0  0  0  0  0  0  0  0  0  0
  -27.1141  -27.2973   20.2693 C   0  0  0  0  0  0  0  0  0  0  0  0
  -21.1486   -6.6955   22.4960 C   0  0  0  0  0  0  0  0  0  0  0  0
  -20.1908   -4.2707   21.5034 C   0  0  0  0  0  0  0  0  0  0  0  0
  -21.4610   -5.5028   23.1483 C   0  0  0  0  0  0  0  0  0  0  0  0
  -28.4913  -18.6782   20.7048 C   0  0  0  0  0  0  0  0  0  0  0  0
  -24.9001  -10.9628   19.6496 C   0  0  0  0  0  0  0  0  0  0  0  0
  -25.7703  -12.0274   17.9337 C   0  0  0  0  0  0  0  0  0  0  0  0
  -23.6316  -10.8416   17.4155 C   0  0  0  0  0  0  0  0  0  0  0  0
  -21.9977  -28.9907   20.9169 C   0  0  0  0  0  0  0  0  0  0  0  0
  -21.9636  -29.7628   17.7665 C   0  0  0  0  0  0  0  0  0  0  0  0
  -30.1210  -24.2133   20.0147 C   0  0  0  0  0  0  0  0  0  0  0  0
  -23.6225  -29.8436   14.7853 C   0  0  0  0  0  0  0  0  0  0  0  0
  -29.3885  -15.6323   21.0350 C   0  0  0  0  0  0  0  0  0  0  0  0
  -19.2886  -30.1598   25.0824 C   0  0  0  0  0  0  0  0  0  0  0  0
  -24.1112  -30.3493   20.7089 C   0  0  0  0  0  0  0  0  0  0  0  0
  -23.8861  -28.3332   18.5573 C   0  0  0  0  0  0  0  0  0  0  0  0
  -19.0218  -30.1289   23.5797 C   0  0  0  0  0  0  0  0  0  0  0  0
  -30.3537  -12.8241   19.0705 C   0  0  0  0  0  0  0  0  0  0  0  0
  -19.4906  -28.8063   22.9815 C   0  0  0  0  0  0  0  0  0  0  0  0
  -29.0451  -12.0572   18.8668 C   0  0  0  0  0  0  0  0  0  0  0  0
  -30.4327  -13.4517   20.4610 C   0  0  0  0  0  0  0  0  0  0  0  0
  -27.9757  -13.5221   20.6267 C   0  0  0  0  0  0  0  0  0  0  0  0
  -21.0015  -28.6216   23.1669 C   0  0  1  0  0  0  0  0  0  0  0  0
  -22.7660  -29.9822   20.0898 C   0  0  1  0  0  0  0  0  0  0  0  0
  -27.8218  -12.9267   19.2177 C   0  0  2  0  0  0  0  0  0  0  0  0
  -26.8407  -16.9779   23.6701 C   0  0  0  0  0  0  0  0  0  0  0  0
  -23.3219  -30.4954   12.3806 C   0  0  0  0  0  0  0  0  0  0  0  0
  -20.2918  -27.2537   17.2980 C   0  0  0  0  0  0  0  0  0  0  0  0
  -20.8266  -27.4371   14.8591 C   0  0  0  0  0  0  0  0  0  0  0  0
  -19.5541  -29.2571   15.9954 C   0  0  0  0  0  0  0  0  0  0  0  0
  -31.4618  -22.5075   18.7643 C   0  0  0  0  0  0  0  0  0  0  0  0
  -25.8063  -31.8358   14.9315 C   0  0  0  0  0  0  0  0  0  0  0  0
  -28.8093  -21.1361   20.1511 C   0  0  0  0  0  0  0  0  0  0  0  0
  -29.1524  -24.4528   21.1682 C   0  0  0  0  0  0  0  0  0  0  0  0
  -30.0818  -21.7956   20.6773 C   0  0  0  0  0  0  0  0  0  0  0  0
  -28.7426  -25.9131   21.3123 C   0  0  0  0  0  0  0  0  0  1  0  0
  -22.0215  -28.9844   16.4744 C   0  0  1  0  0  0  0  0  0  0  0  0
  -23.7903  -30.9462   13.7554 C   0  0  2  0  0  0  0  0  0  0  0  0
  -20.6943  -28.2315   16.1760 C   0  0  0  0  0  0  0  0  0  0  0  0
  -26.0158  -11.5175   20.1308 N   0  0  0  0  0  0  0  0  0  0  0  0
  -26.5228  -12.1580   19.0637 N   0  0  0  0  0  0  0  0  0  0  0  0
  -22.8987  -29.4081   18.7492 N   0  0  0  0  0  0  0  0  0  0  0  0
  -29.2426  -14.2643   20.7218 N   0  0  0  0  0  0  0  0  0  0  0  0
  -26.1349  -12.6078   16.7707 N   0  0  0  0  0  0  0  0  0  0  0  0
  -22.6080  -10.0407   17.9400 N   0  0  0  0  0  0  0  0  0  0  0  0
  -28.1859  -16.3105   21.2307 N   0  0  0  0  0  0  0  0  0  0  0  0
  -21.7301  -29.4186   22.2033 N   0  0  0  0  0  0  0  0  0  0  0  0
  -22.4133  -29.9371   15.4412 N   0  0  0  0  0  0  0  0  0  0  0  0
  -30.5389  -22.8912   19.8255 N   0  0  0  0  0  0  0  0  0  0  0  0
  -25.2218  -31.3484   13.6557 N   0  3  0  0  0  0  0  0  0  0  0  0
  -23.5977  -11.1660   16.2042 O   0  0  0  0  0  0  0  0  0  0  0  0
  -21.6705  -27.9175   20.4241 O   0  0  0  0  0  0  0  0  0  0  0  0
  -21.1243  -30.6575   17.8965 O   0  0  0  0  0  0  0  0  0  0  0  0
  -30.4962  -25.1508   19.3058 O   0  0  0  0  0  0  0  0  0  0  0  0
  -24.4770  -28.9831   14.9850 O   0  0  0  0  0  0  0  0  0  0  0  0
  -30.4975  -16.1693   21.0963 O   0  0  0  0  0  0  0  0  0  0  0  0
  -21.6225   -7.9001   22.9879 O   0  0  0  0  0  0  0  0  0  0  0  0
  -28.0672  -26.3363   20.1286 O   0  0  0  0  0  0  0  0  0  1  0  0
  -19.7296   -3.1066   21.0276 F   0  0  0  0  0  0  0  0  0  0  0  0
  -22.2198   -5.5155   24.2527 F   0  0  0  0  0  0  0  0  0  0  0  0
  -29.3028  -18.2612   19.2299 Cl  0  0  0  0  0  0  0  0  0  0  0  0
  1  2  1  0  0  0  0
  1  5  2  0  0  0  0
  2  6  2  0  0  0  0
  3 10  2  0  0  0  0
  3 17  1  0  0  0  0
  4 11  1  0  0  0  0
  4 17  2  0  0  0  0
  5 19  1  0  0  0  0
  6 21  1  0  0  0  0
  7 12  2  0  0  0  0
  7 20  1  0  0  0  0
  8  9  2  0  0  0  0
  8 23  1  0  0  0  0
  9 24  1  0  0  0  0
 10 26  1  0  0  0  0
 11 26  2  0  0  0  0
 12 27  1  0  0  0  0
 13 14  2  0  0  0  0
 13 28  1  0  0  0  0
 14 29  1  0  0  0  0
 15 22  1  0  0  0  0
 15 27  2  0  0  0  0
 16 29  2  0  0  0  0
 16 30  1  0  0  0  0
 17 32  1  0  0  0  0
 18 32  1  0  0  0  0
 18 33  2  0  0  0  0
 18 34  1  0  0  0  0
 19 21  2  0  0  0  0
 19 40  1  0  0  0  0
 20 22  2  0  0  0  0
 20 41  1  0  0  0  0
 21 49  1  0  0  0  0
 22 42  1  0  0  0  0
 23 25  2  0  0  0  0
 23 52  1  0  0  0  0
 24 31  2  0  0  0  0
 24 59  1  0  0  0  0
 25 31  1  0  0  0  0
 25 72  1  0  0  0  0
 26 83  1  0  0  0  0
 27 84  1  0  0  0  0
 28 30  2  0  0  0  0
 28 83  1  0  0  0  0
 29 85  1  0  0  0  0
 30 86  1  0  0  0  0
 31 87  1  0  0  0  0
 32 66  2  0  0  0  0
 33 67  1  0  0  0  0
 33 70  1  0  0  0  0
 34 71  1  0  0  0  0
 34 77  2  0  0  0  0
 35 50  1  0  0  0  0
 35 73  1  0  0  0  0
 35 78  2  0  0  0  0
 36 63  1  0  0  0  0
 36 68  1  0  0  0  0
 36 79  2  0  0  0  0
 37 60  1  0  0  0  0
 37 75  1  0  0  0  0
 37 80  2  0  0  0  0
 38 64  1  0  0  0  0
 38 74  1  0  0  0  0
 38 81  2  0  0  0  0
 39 69  1  0  0  0  0
 39 72  1  0  0  0  0
 39 82  2  0  0  0  0
 40 43  1  0  0  0  0
 41 50  1  0  0  0  0
 42 68  1  0  0  0  0
 43 45  1  0  0  0  0
 44 46  1  0  0  0  0
 44 47  1  0  0  0  0
 45 49  1  0  0  0  0
 46 51  1  0  0  0  0
 47 69  1  0  0  0  0
 48 51  1  0  0  0  0
 48 69  1  0  0  0  0
 49 73  1  0  0  0  0
 50 68  1  0  0  0  0
 51 67  1  0  0  0  0
 53 64  1  0  0  0  0
 54 65  1  0  0  0  0
 55 65  1  0  0  0  0
 56 65  1  0  0  0  0
 57 75  1  0  0  0  0
 58 76  1  0  0  0  0
 59 61  1  0  0  0  0
 60 62  1  0  0  0  0
 61 75  1  0  0  0  0
 62 84  1  0  0  0  0
 63 65  1  0  0  0  0
 63 74  1  0  0  0  0
 64 76  1  0  0  0  0
 66 67  1  0  0  0  0
M  CHG  1  76   1
M  ISO  4  39 100  62 101  72 100  84 101
M  END
> <Batch ID>
0016

> <Smiles>
CNC(C)C(=O)NC(C(=O)N1Cc2cc([101O:1][101CH2:1]CC(=O)N(C)CCc3ccc(C)c([100NH:0][100C:0](=O)N4CCCC(n5nc(-c6ccc(Oc7ccc(F)cc7F)cc6)c(C(N)=O)c5N)C4)c3Cl)ccc2CC1C(=O)NC1CCCc2ccccc21)C(C)(C)C

> <Shape>
0.282

> <Color>
0.125

> <Negative vol penalty>
0.000

$$$$

  -OEChem-04052315583D

 93101  0     1  0  0  0  0  0999 V2000
  -20.6783  -24.6115   12.7019 C   0  0  0  0  0  0  0  0  0  0  0  0
  -20.8418  -24.6139   14.0834 C   0  0  0  0  0  0  0  0  0  0  0  0
  -29.5185  -17.4263   19.4231 C   0  0  0  0  0  0  0  0  0  0  0  0
  -27.9157  -17.8749   21.1743 C   0  0  0  0  0  0  0  0  0  0  0  0
  -19.8871  -23.6362   12.0963 C   0  0  0  0  0  0  0  0  0  0  0  0
  -20.2131  -23.6415   14.8604 C   0  0  0  0  0  0  0  0  0  0  0  0
  -23.2842  -21.6800   18.3769 C   0  0  0  0  0  0  0  0  0  0  0  0
  -29.6681  -16.1219   19.8940 C   0  0  0  0  0  0  0  0  0  0  0  0
  -28.0652  -16.5705   21.6453 C   0  0  0  0  0  0  0  0  0  0  0  0
  -23.5077  -22.4413   19.5233 C   0  0  0  0  0  0  0  0  0  0  0  0
  -30.2019  -12.5642   20.4162 C   0  0  0  0  0  0  0  0  0  0  0  0
  -30.2057  -11.5323   19.4777 C   0  0  0  0  0  0  0  0  0  0  0  0
  -21.8935  -21.1047   20.7181 C   0  0  0  0  0  0  0  0  0  0  0  0
  -27.9831  -12.1653   18.7729 C   0  0  0  0  0  0  0  0  0  0  0  0
  -28.6424  -18.3028   20.0633 C   0  0  0  0  0  0  0  0  0  0  0  0
  -27.5659  -20.1075   18.6170 C   0  0  0  0  0  0  0  0  0  0  0  0
  -19.2563  -22.6456   12.8654 C   0  0  0  0  0  0  0  0  0  0  0  0
  -22.3542  -20.6306   18.3894 C   0  0  0  0  0  0  0  0  0  0  0  0
  -19.4116  -22.6528   14.2647 C   0  0  0  0  0  0  0  0  0  0  0  0
  -21.6620  -20.3300   19.5712 C   0  0  0  0  0  0  0  0  0  0  0  0
  -25.3352  -28.8314   18.6659 C   0  0  0  0  0  0  0  0  0  0  0  0
  -26.1600  -27.7297   18.8934 C   0  0  0  0  0  0  0  0  0  0  0  0
  -25.0603  -29.7228   19.7030 C   0  0  0  0  0  0  0  0  0  0  0  0
  -26.4349  -28.4109   21.1951 C   0  0  0  0  0  0  0  0  0  0  0  0
  -26.7098  -27.5195   20.1580 C   0  0  0  0  0  0  0  0  0  0  0  0
  -25.6101  -29.5125   20.9676 C   0  0  0  0  0  0  0  0  0  0  0  0
  -28.9414  -15.6940   21.0051 C   0  0  0  0  0  0  0  0  0  0  0  0
  -22.8102  -22.1556   20.6934 C   0  0  0  0  0  0  0  0  0  0  0  0
  -29.0888  -13.3966   20.5331 C   0  0  0  0  0  0  0  0  0  0  0  0
  -29.0963  -11.3329   18.6560 C   0  0  0  0  0  0  0  0  0  0  0  0
  -27.9794  -13.1972   19.7114 C   0  0  0  0  0  0  0  0  0  0  0  0
  -28.4879  -19.6506   19.5776 C   0  0  0  0  0  0  0  0  0  0  0  0
  -27.8219  -21.4525   18.5079 C   0  0  0  0  0  0  0  0  0  0  0  0
  -26.5672  -19.3812   17.8884 C   0  0  0  0  0  0  0  0  0  0  0  0
  -19.6517  -20.0096   16.8355 C   0  0  0  0  0  0  0  0  0  0  0  0
  -24.0905  -24.6179   23.0749 C   0  0  0  0  0  0  0  0  0  0  0  0
  -19.8734  -17.1660   18.3804 C   0  0  0  0  0  0  0  0  0  0  0  0
  -24.2161  -30.2515   22.8987 C   0  0  0  0  0  0  0  0  0  0  0  0
  -21.0886  -15.3976   21.0343 C   0  0  0  0  0  0  0  0  0  0  0  0
  -28.8772  -26.4122   20.8081 C   0  0  0  0  0  0  0  0  0  0  0  0
  -18.3725  -21.6403   12.1705 C   0  0  0  0  0  0  0  0  0  0  0  0
  -22.1442  -19.8018   17.1519 C   0  0  0  0  0  0  0  0  0  0  0  0
  -20.6677  -19.2010   19.6426 C   0  0  0  0  0  0  0  0  0  0  0  0
  -18.0442  -20.4216   13.0292 C   0  0  0  0  0  0  0  0  0  0  0  0
  -31.6488  -24.2338   20.3082 C   0  0  0  0  0  0  0  0  0  0  0  0
  -17.6286  -20.8533   14.4319 C   0  0  0  0  0  0  0  0  0  0  0  0
  -30.9977  -22.8848   19.9945 C   0  0  0  0  0  0  0  0  0  0  0  0
  -30.8580  -25.0153   21.3559 C   0  0  0  0  0  0  0  0  0  0  0  0
  -28.7809  -23.8429   20.7394 C   0  0  0  0  0  0  0  0  0  0  0  0
  -18.7661  -21.5999   15.1391 C   0  0  1  0  0  0  0  0  0  0  0  0
  -20.7977  -19.0849   17.1342 C   0  0  1  0  0  0  0  0  0  0  0  0
  -29.5061  -23.0474   19.6417 C   0  0  2  0  0  0  0  0  0  0  0  0
  -24.7456  -29.0571   17.3092 C   0  0  0  0  0  0  0  0  0  0  0  0
  -26.4518  -26.7753   17.7774 C   0  0  0  0  0  0  0  0  0  0  0  0
  -24.1751  -30.9045   19.4539 C   0  0  0  0  0  0  0  0  0  0  0  0
  -27.0255  -28.1852   22.5533 C   0  0  0  0  0  0  0  0  0  0  0  0
  -25.0904  -24.0284   24.0408 C   0  0  0  0  0  0  0  0  0  0  0  0
  -21.0697  -13.1012   22.0460 C   0  0  0  0  0  0  0  0  0  0  0  0
  -17.0373  -17.6414   19.4006 C   0  0  0  0  0  0  0  0  0  0  0  0
  -17.4283  -15.8561   21.1118 C   0  0  0  0  0  0  0  0  0  0  0  0
  -17.5078  -15.2923   18.6831 C   0  0  0  0  0  0  0  0  0  0  0  0
  -26.3025  -31.5187   22.2552 C   0  0  0  0  0  0  0  0  0  0  0  0
  -24.0248  -15.1329   20.7748 C   0  0  0  0  0  0  0  0  0  0  0  0
  -23.9809  -23.9535   21.7193 C   0  0  0  0  0  0  0  0  0  1  0  0
  -23.2758  -29.1053   22.5240 C   0  0  0  0  0  0  0  0  0  0  0  0
  -22.5724  -28.4577   23.7211 C   0  0  0  0  0  0  0  0  0  0  0  0
  -21.6416  -27.3123   23.3026 C   0  0  0  0  0  0  0  0  0  0  0  0
  -22.3880  -26.1897   22.5897 C   0  0  0  0  0  0  0  0  0  0  0  0
  -19.3930  -16.6299   19.7074 C   0  0  1  0  0  0  0  0  0  0  0  0
  -21.7961  -14.0568   21.1122 C   0  0  2  0  0  0  0  0  0  0  0  0
  -17.8589  -16.3775   19.7242 C   0  0  0  0  0  0  0  0  0  0  0  0
  -29.2713  -20.6260   20.0454 N   0  0  0  0  0  0  0  0  0  0  0  0
  -23.3817  -25.6153   23.4810 N   0  0  0  0  0  0  0  0  0  0  0  0
  -28.8422  -21.7094   19.3758 N   0  0  0  0  0  0  0  0  0  0  0  0
  -20.4927  -18.4236   18.4047 N   0  0  0  0  0  0  0  0  0  0  0  0
  -29.4551  -25.1331   20.9523 N   0  0  0  0  0  0  0  0  0  0  0  0
  -27.2716  -22.4288   17.7552 N   0  0  0  0  0  0  0  0  0  0  0  0
  -26.4384  -18.0053   18.1219 N   0  0  0  0  0  0  0  0  0  0  0  0
  -27.5473  -26.4001   20.3887 N   0  0  0  0  0  0  0  0  0  0  0  0
  -19.7592  -20.6655   15.6240 N   0  0  0  0  0  0  0  0  0  0  0  0
  -20.1967  -15.4442   19.9838 N   0  0  0  0  0  0  0  0  0  0  0  0
  -25.3257  -30.4393   22.0435 N   0  0  0  0  0  0  0  0  0  0  0  0
  -23.1888  -14.2344   21.6120 N   0  3  0  0  0  0  0  0  0  0  0  0
  -25.8225  -19.9328   17.0430 O   0  0  0  0  0  0  0  0  0  0  0  0
  -18.7370  -20.1188   17.6435 O   0  0  0  0  0  0  0  0  0  0  0  0
  -19.7117  -16.4905   17.3610 O   0  0  0  0  0  0  0  0  0  0  0  0
  -23.9573  -30.9500   23.8815 O   0  0  0  0  0  0  0  0  0  0  0  0
  -21.3027  -16.3110   21.8284 O   0  0  0  0  0  0  0  0  0  0  0  0
  -29.5231  -27.4431   21.0135 O   0  0  0  0  0  0  0  0  0  0  0  0
  -29.0869  -14.4212   21.4648 O   0  0  0  0  0  0  0  0  0  0  0  0
  -23.0259  -22.8975   21.8136 O   0  0  0  0  0  0  0  0  0  1  0  0
  -29.1006  -10.3429   17.7538 F   0  0  0  0  0  0  0  0  0  0  0  0
  -26.9076  -13.9944   19.8183 F   0  0  0  0  0  0  0  0  0  0  0  0
  1  2  1  0  0  0  0
  1  5  2  0  0  0  0
  2  6  2  0  0  0  0
  3  8  2  0  0  0  0
  3 15  1  0  0  0  0
  4  9  1  0  0  0  0
  4 15  2  0  0  0  0
  5 17  1  0  0  0  0
  6 19  1  0  0  0  0
  7 10  2  0  0  0  0
  7 18  1  0  0  0  0
  8 27  1  0  0  0  0
  9 27  2  0  0  0  0
 10 28  1  0  0  0  0
 11 12  2  0  0  0  0
 11 29  1  0  0  0  0
 12 30  1  0  0  0  0
 13 20  1  0  0  0  0
 13 28  2  0  0  0  0
 14 30  2  0  0  0  0
 14 31  1  0  0  0  0
 15 32  1  0  0  0  0
 16 32  1  0  0  0  0
 16 33  2  0  0  0  0
 16 34  1  0  0  0  0
 17 19  2  0  0  0  0
 17 41  1  0  0  0  0
 18 20  2  0  0  0  0
 18 42  1  0  0  0  0
 19 50  1  0  0  0  0
 20 43  1  0  0  0  0
 21 22  1  0  0  0  0
 21 23  2  0  0  0  0
 21 53  1  0  0  0  0
 22 25  2  0  0  0  0
 22 54  1  0  0  0  0
 23 26  1  0  0  0  0
 23 55  1  0  0  0  0
 24 25  1  0  0  0  0
 24 26  2  0  0  0  0
 24 56  1  0  0  0  0
 25 79  1  0  0  0  0
 26 82  1  0  0  0  0
 27 90  1  0  0  0  0
 28 91  1  0  0  0  0
 29 31  2  0  0  0  0
 29 90  1  0  0  0  0
 30 92  1  0  0  0  0
 31 93  1  0  0  0  0
 32 72  2  0  0  0  0
 33 74  1  0  0  0  0
 33 77  1  0  0  0  0
 34 78  1  0  0  0  0
 34 84  2  0  0  0  0
 35 51  1  0  0  0  0
 35 80  1  0  0  0  0
 35 85  2  0  0  0  0
 36 57  1  0  0  0  0
 36 64  1  0  0  0  0
 36 73  2  0  0  0  0
 37 69  1  0  0  0  0
 37 75  1  0  0  0  0
 37 86  2  0  0  0  0
 38 65  1  0  0  0  0
 38 82  1  0  0  0  0
 38 87  2  0  0  0  0
 39 70  1  0  0  0  0
 39 81  1  0  0  0  0
 39 88  2  0  0  0  0
 40 76  1  0  0  0  0
 40 79  1  0  0  0  0
 40 89  2  0  0  0  0
 41 44  1  0  0  0  0
 42 51  1  0  0  0  0
 43 75  1  0  0  0  0
 44 46  1  0  0  0  0
 45 47  1  0  0  0  0
 45 48  1  0  0  0  0
 46 50  1  0  0  0  0
 47 52  1  0  0  0  0
 48 76  1  0  0  0  0
 49 52  1  0  0  0  0
 49 76  1  0  0  0  0
 50 80  1  0  0  0  0
 51 75  1  0  0  0  0
 52 74  1  0  0  0  0
 58 70  1  0  0  0  0
 59 71  1  0  0  0  0
 60 71  1  0  0  0  0
 61 71  1  0  0  0  0
 62 82  1  0  0  0  0
 63 83  1  0  0  0  0
 64 91  1  0  0  0  0
 65 66  1  0  0  0  0
 66 67  1  0  0  0  0
 67 68  1  0  0  0  0
 68 73  1  0  0  0  0
 69 71  1  0  0  0  0
 69 81  1  0  0  0  0
 70 83  1  0  0  0  0
 72 74  1  0  0  0  0
M  CHG  1  83   1
M  ISO  4  40 100  64 101  79 100  91 101
M  END
> <Batch ID>
0016

> <Smiles>
C=C(NCCCCC(=O)N(C)c1c(C)c(C)c(C)c([100NH:0][100C:0](=O)N2CCCC(n3nc(-c4ccc(Oc5ccc(F)cc5F)cc4)c(C(N)=O)c3N)C2)c1C)[101CH2:1][101O:1]c1ccc2c(c1)CN(C(=O)C(NC(=O)C(C)NC)C(C)(C)C)C(C(=O)NC1CCCc3ccccc31)C2

> <Shape>
0.217

> <Color>
0.055

> <Negative vol penalty>
0.000

$$$$

  -OEChem-04052315583D

 93101  0     1  0  0  0  0  0999 V2000
  -27.6632  -37.5717   24.0576 C   0  0  0  0  0  0  0  0  0  0  0  0
  -28.1683  -36.6773   23.1195 C   0  0  0  0  0  0  0  0  0  0  0  0
  -21.9239  -13.9512   20.7508 C   0  0  0  0  0  0  0  0  0  0  0  0
  -23.4077  -15.6754   19.9368 C   0  0  0  0  0  0  0  0  0  0  0  0
  -26.8713  -37.1067   25.1067 C   0  0  0  0  0  0  0  0  0  0  0  0
  -27.8827  -35.3169   23.2304 C   0  0  0  0  0  0  0  0  0  0  0  0
  -26.7622  -29.5009   19.2013 C   0  0  0  0  0  0  0  0  0  0  0  0
  -20.8371  -14.8105   20.5898 C   0  0  0  0  0  0  0  0  0  0  0  0
  -22.3208  -16.5347   19.7757 C   0  0  0  0  0  0  0  0  0  0  0  0
  -27.2071  -28.1872   19.0588 C   0  0  0  0  0  0  0  0  0  0  0  0
  -20.3856  -18.4978   21.7333 C   0  0  0  0  0  0  0  0  0  0  0  0
  -20.5258  -19.8110   22.1818 C   0  0  0  0  0  0  0  0  0  0  0  0
  -25.7627  -27.5083   20.8676 C   0  0  0  0  0  0  0  0  0  0  0  0
  -20.1241  -20.6194   19.9408 C   0  0  0  0  0  0  0  0  0  0  0  0
  -23.2093  -14.3836   20.4243 C   0  0  0  0  0  0  0  0  0  0  0  0
  -24.8549  -12.5988   19.6409 C   0  0  0  0  0  0  0  0  0  0  0  0
  -26.5678  -35.7412   25.2251 C   0  0  0  0  0  0  0  0  0  0  0  0
  -25.8208  -29.8306   20.1868 C   0  0  0  0  0  0  0  0  0  0  0  0
  -27.0870  -34.8330   24.2828 C   0  0  0  0  0  0  0  0  0  0  0  0
  -25.3056  -28.8264   21.0189 C   0  0  0  0  0  0  0  0  0  0  0  0
  -21.0355  -16.1022   20.1022 C   0  0  0  0  0  0  0  0  0  0  0  0
  -26.7095  -27.1912   19.8940 C   0  0  0  0  0  0  0  0  0  0  0  0
  -20.1148  -18.2452   20.3884 C   0  0  0  0  0  0  0  0  0  0  0  0
  -20.3950  -20.8719   21.2856 C   0  0  0  0  0  0  0  0  0  0  0  0
  -19.9840  -19.3060   19.4922 C   0  0  0  0  0  0  0  0  0  0  0  0
  -24.3325  -13.4967   20.5910 C   0  0  0  0  0  0  0  0  0  0  0  0
  -25.9091  -11.9954   20.2820 C   0  0  0  0  0  0  0  0  0  0  0  0
  -24.4257  -12.3339   18.2988 C   0  0  0  0  0  0  0  0  0  0  0  0
  -30.6471  -14.5160   20.3780 C   0  0  0  0  0  0  0  0  0  0  0  0
  -25.8141  -31.7274   22.7374 C   0  0  0  0  0  0  0  0  0  0  0  0
  -22.6758  -30.9144   22.8500 C   0  0  0  0  0  0  0  0  0  0  0  0
  -20.2315  -28.6771   22.0336 C   0  0  0  0  0  0  0  0  0  0  0  0
  -29.1317  -14.0680   25.0440 C   0  0  0  0  0  0  0  0  0  0  0  0
  -25.7467  -35.2795   26.4029 C   0  0  0  0  0  0  0  0  0  0  0  0
  -25.3311  -31.2474   20.3100 C   0  0  0  0  0  0  0  0  0  0  0  0
  -24.2783  -29.1246   22.0792 C   0  0  0  0  0  0  0  0  0  0  0  0
  -25.1810  -33.8714   26.2366 C   0  0  0  0  0  0  0  0  0  0  0  0
  -27.4729  -10.7811   24.6380 C   0  0  0  0  0  0  0  0  0  0  0  0
  -26.2600  -32.9189   25.7313 C   0  0  0  0  0  0  0  0  0  0  0  0
  -26.4666  -11.0558   23.5209 C   0  0  0  0  0  0  0  0  0  0  0  0
  -31.1147  -16.7633   23.4762 C   0  0  0  0  0  0  0  0  0  0  0  0
  -27.7817  -12.0381   25.4465 C   0  0  0  0  0  0  0  0  0  0  0  0
  -30.9532  -15.6440   24.4994 C   0  0  0  0  0  0  0  0  0  0  0  0
  -30.1626  -14.1073   22.7413 C   0  0  0  0  0  0  0  0  0  0  0  0
  -27.2245  -13.4633   23.5037 C   0  0  0  0  0  0  0  0  0  0  0  0
  -26.7789  -33.3531   24.3552 C   0  0  1  0  0  0  0  0  0  0  0  0
  -30.3017  -15.1923   21.6716 C   0  0  1  0  0  0  0  0  0  0  0  0
  -24.7532  -31.5624   21.6863 C   0  0  1  0  0  0  0  0  0  0  0  0
  -31.3776  -16.2239   22.0606 C   0  0  1  0  0  0  0  0  0  0  0  0
  -26.9341  -12.2275   22.6400 C   0  0  2  0  0  0  0  0  0  0  0  0
  -17.7698  -28.2662   22.2954 C   0  0  0  0  0  0  0  0  0  0  0  0
  -30.3415  -18.4057   21.3752 C   0  0  0  0  0  0  0  0  0  0  0  0
  -32.8101  -18.0446   21.0934 C   0  0  0  0  0  0  0  0  0  0  0  0
  -23.1275  -30.0697   25.7470 C   0  0  0  0  0  0  0  0  0  0  0  0
  -20.9597  -28.8210   25.6478 C   0  0  0  0  0  0  0  0  0  0  0  0
  -20.9865  -31.2963   25.3397 C   0  0  0  0  0  0  0  0  0  0  0  0
  -29.7711  -13.4112   18.3145 C   0  0  0  0  0  0  0  0  0  0  0  0
  -19.7940  -28.7268   19.1069 C   0  0  0  0  0  0  0  0  0  0  0  0
  -28.6212  -19.3185   19.9299 C   0  0  0  0  0  0  0  0  0  0  0  0
  -28.0308  -20.6252   19.3950 C   0  0  0  0  0  0  0  0  0  0  0  0
  -27.8175  -18.1081   19.4513 C   0  0  0  0  0  0  0  0  0  0  0  0
  -28.8170  -21.8362   19.9012 C   0  0  0  0  0  0  0  0  0  0  0  0
  -28.3875  -16.8040   20.0132 C   0  0  0  0  0  0  0  0  0  0  0  0
  -28.2635  -23.1740   19.4014 C   0  0  0  0  0  0  0  0  0  0  0  0
  -27.6056  -15.5907   19.5013 C   0  0  0  0  0  0  0  0  0  0  0  0
  -29.0436  -24.4176   19.8300 C   0  0  0  0  0  0  0  0  0  0  0  0
  -28.1864  -14.2700   19.9967 C   0  0  0  0  0  0  0  0  0  0  0  0
  -28.4735  -25.7190   19.2804 C   0  0  0  0  0  0  0  0  0  1  0  0
  -21.8806  -29.8087   23.5013 C   0  0  1  0  0  0  0  0  0  0  0  0
  -18.8569  -28.8670   21.4180 C   0  0  2  0  0  0  0  0  0  0  0  0
  -31.4340  -17.3869   21.0659 C   0  0  0  0  0  0  0  0  0  0  0  0
  -21.7594  -29.9933   25.0403 C   0  0  0  0  0  0  0  0  0  0  0  0
  -24.9997  -13.4693   21.7477 N   0  0  0  0  0  0  0  0  0  0  0  0
  -25.9522  -12.5469   21.5287 N   0  0  0  0  0  0  0  0  0  0  0  0
  -23.8357  -30.5262   22.1646 N   0  0  0  0  0  0  0  0  0  0  0  0
  -28.1744  -13.1502   24.5809 N   0  0  0  0  0  0  0  0  0  0  0  0
  -29.9418  -14.6802   24.0733 N   0  0  0  0  0  0  0  0  0  0  0  0
  -26.7942  -11.0522   19.8954 N   0  0  0  0  0  0  0  0  0  0  0  0
  -23.3256  -13.0426   17.7970 N   0  0  0  0  0  0  0  0  0  0  0  0
  -25.8388  -32.9802   23.3200 N   0  0  0  0  0  0  0  0  0  0  0  0
  -20.6008  -29.7603   22.8026 N   0  0  0  0  0  0  0  0  0  0  0  0
  -29.5777  -14.0825   19.5934 N   0  0  0  0  0  0  0  0  0  0  0  0
  -18.7943  -28.2150   20.0793 N   0  3  0  0  0  0  0  0  0  0  0  0
  -24.9904  -11.4817   17.5718 O   0  0  0  0  0  0  0  0  0  0  0  0
  -31.8337  -14.3754   20.0704 O   0  0  0  0  0  0  0  0  0  0  0  0
  -26.5544  -30.7873   23.0015 O   0  0  0  0  0  0  0  0  0  0  0  0
  -22.2786  -32.0787   22.9399 O   0  0  0  0  0  0  0  0  0  0  0  0
  -20.9083  -27.6671   21.8534 O   0  0  0  0  0  0  0  0  0  0  0  0
  -29.2546  -14.3253   26.2479 O   0  0  0  0  0  0  0  0  0  0  0  0
  -19.9751  -16.9409   19.9448 O   0  0  0  0  0  0  0  0  0  0  0  0
  -27.1455  -25.8996   19.7565 O   0  0  0  0  0  0  0  0  0  1  0  0
  -20.5280  -22.1330   21.7168 F   0  0  0  0  0  0  0  0  0  0  0  0
  -19.7226  -19.0697   18.1993 F   0  0  0  0  0  0  0  0  0  0  0  0
  1  2  1  0  0  0  0
  1  5  2  0  0  0  0
  2  6  2  0  0  0  0
  3  8  2  0  0  0  0
  3 15  1  0  0  0  0
  4  9  1  0  0  0  0
  4 15  2  0  0  0  0
  5 17  1  0  0  0  0
  6 19  1  0  0  0  0
  7 10  2  0  0  0  0
  7 18  1  0  0  0  0
  8 21  1  0  0  0  0
  9 21  2  0  0  0  0
 10 22  1  0  0  0  0
 11 12  2  0  0  0  0
 11 23  1  0  0  0  0
 12 24  1  0  0  0  0
 13 20  1  0  0  0  0
 13 22  2  0  0  0  0
 14 24  2  0  0  0  0
 14 25  1  0  0  0  0
 15 26  1  0  0  0  0
 16 26  1  0  0  0  0
 16 27  2  0  0  0  0
 16 28  1  0  0  0  0
 17 19  2  0  0  0  0
 17 34  1  0  0  0  0
 18 20  2  0  0  0  0
 18 35  1  0  0  0  0
 19 46  1  0  0  0  0
 20 36  1  0  0  0  0
 21 90  1  0  0  0  0
 22 91  1  0  0  0  0
 23 25  2  0  0  0  0
 23 90  1  0  0  0  0
 24 92  1  0  0  0  0
 25 93  1  0  0  0  0
 26 73  2  0  0  0  0
 27 74  1  0  0  0  0
 27 78  1  0  0  0  0
 28 79  1  0  0  0  0
 28 84  2  0  0  0  0
 29 47  1  0  0  0  0
 29 82  1  0  0  0  0
 29 85  2  0  0  0  0
 30 48  1  0  0  0  0
 30 80  1  0  0  0  0
 30 86  2  0  0  0  0
 31 69  1  0  0  0  0
 31 75  1  0  0  0  0
 31 87  2  0  0  0  0
 32 70  1  0  0  0  0
 32 81  1  0  0  0  0
 32 88  2  0  0  0  0
 33 76  1  0  0  0  0
 33 77  1  0  0  0  0
 33 89  2  0  0  0  0
 34 37  1  0  0  0  0
 35 48  1  0  0  0  0
 36 75  1  0  0  0  0
 37 39  1  0  0  0  0
 38 40  1  0  0  0  0
 38 42  1  0  0  0  0
 39 46  1  0  0  0  0
 40 50  1  0  0  0  0
 41 43  1  0  0  0  0
 41 49  1  0  0  0  0
 42 76  1  0  0  0  0
 43 77  1  0  0  0  0
 44 47  1  0  0  0  0
 44 77  1  0  0  0  0
 45 50  1  0  0  0  0
 45 76  1  0  0  0  0
 46 80  1  0  0  0  0
 47 49  1  0  0  0  0
 48 75  1  0  0  0  0
 49 71  1  0  0  0  0
 50 74  1  0  0  0  0
 51 70  1  0  0  0  0
 52 71  1  0  0  0  0
 53 71  1  0  0  0  0
 54 72  1  0  0  0  0
 55 72  1  0  0  0  0
 56 72  1  0  0  0  0
 57 82  1  0  0  0  0
 58 83  1  0  0  0  0
 59 60  1  0  0  0  0
 59 61  1  0  0  0  0
 60 62  1  0  0  0  0
 61 63  1  0  0  0  0
 62 64  1  0  0  0  0
 63 65  1  0  0  0  0
 64 66  1  0  0  0  0
 65 67  1  0  0  0  0
 66 68  1  0  0  0  0
 67 82  1  0  0  0  0
 68 91  1  0  0  0  0
 69 72  1  0  0  0  0
 69 81  1  0  0  0  0
 70 83  1  0  0  0  0
 73 74  1  0  0  0  0
M  CHG  1  83   1
M  ISO  4  33 100  68 101  77 100  91 101
M  END
> <Batch ID>
0016

> <Smiles>
CNC(C)C(=O)NC(C(=O)N1Cc2cc([101O:1][101CH2:1]CCCCCCCCCN(C)C(=O)C3C[100N:0]([100C:0](=O)N4CCCC(n5nc(-c6ccc(Oc7ccc(F)cc7F)cc6)c(C(N)=O)c5N)C4)CCC3C(C)C)ccc2CC1C(=O)NC1CCCc2ccccc21)C(C)(C)C

> <Shape>
0.289

> <Color>
0.092

> <Negative vol penalty>
0.000

$$$$

  -OEChem-04052315583D

 95103  0     1  0  0  0  0  0999 V2000
  -25.0921  -37.3884   21.0078 C   0  0  0  0  0  0  0  0  0  0  0  0
  -26.0924  -36.5127   20.5980 C   0  0  0  0  0  0  0  0  0  0  0  0
  -24.5059   -9.5292   21.5280 C   0  0  0  0  0  0  0  0  0  0  0  0
  -24.8030  -10.6774   23.6328 C   0  0  0  0  0  0  0  0  0  0  0  0
  -24.3614  -37.1183   22.1641 C   0  0  0  0  0  0  0  0  0  0  0  0
  -26.3632  -35.3667   21.3449 C   0  0  0  0  0  0  0  0  0  0  0  0
  -28.1202  -29.9054   19.2017 C   0  0  0  0  0  0  0  0  0  0  0  0
  -24.1861   -8.3568   22.2126 C   0  0  0  0  0  0  0  0  0  0  0  0
  -24.4832   -9.5050   24.3175 C   0  0  0  0  0  0  0  0  0  0  0  0
  -29.3701  -29.2967   19.0972 C   0  0  0  0  0  0  0  0  0  0  0  0
  -21.5052   -7.0591   23.8132 C   0  0  0  0  0  0  0  0  0  0  0  0
  -20.4047   -6.3274   23.3670 C   0  0  0  0  0  0  0  0  0  0  0  0
  -28.9791  -28.1494   21.1828 C   0  0  0  0  0  0  0  0  0  0  0  0
  -27.6320  -20.3438   18.2043 C   0  0  0  0  0  0  0  0  0  0  0  0
  -27.9155  -21.3876   20.3646 C   0  0  0  0  0  0  0  0  0  0  0  0
  -21.8358   -4.4243   22.9581 C   0  0  0  0  0  0  0  0  0  0  0  0
  -24.8143  -10.6895   22.2381 C   0  0  0  0  0  0  0  0  0  0  0  0
  -24.2571  -12.9075   21.1078 C   0  0  0  0  0  0  0  0  0  0  0  0
  -24.6168  -35.9635   22.9202 C   0  0  0  0  0  0  0  0  0  0  0  0
  -27.2935  -29.6486   20.3050 C   0  0  0  0  0  0  0  0  0  0  0  0
  -25.6361  -35.0816   22.5131 C   0  0  0  0  0  0  0  0  0  0  0  0
  -27.7181  -28.7541   21.2977 C   0  0  0  0  0  0  0  0  0  0  0  0
  -27.6056  -21.4835   19.0079 C   0  0  0  0  0  0  0  0  0  0  0  0
  -27.9681  -19.1081   18.7572 C   0  0  0  0  0  0  0  0  0  0  0  0
  -28.2516  -20.1519   20.9176 C   0  0  0  0  0  0  0  0  0  0  0  0
  -28.2779  -19.0121   20.1139 C   0  0  0  0  0  0  0  0  0  0  0  0
  -24.1748   -8.3446   23.6074 C   0  0  0  0  0  0  0  0  0  0  0  0
  -29.8010  -28.4208   20.0893 C   0  0  0  0  0  0  0  0  0  0  0  0
  -22.7711   -6.4734   23.8318 C   0  0  0  0  0  0  0  0  0  0  0  0
  -20.5700   -5.0100   22.9395 C   0  0  0  0  0  0  0  0  0  0  0  0
  -22.9363   -5.1560   23.4043 C   0  0  0  0  0  0  0  0  0  0  0  0
  -25.1453  -11.9008   21.5314 C   0  0  0  0  0  0  0  0  0  0  0  0
  -25.0593  -13.8352   20.4894 C   0  0  0  0  0  0  0  0  0  0  0  0
  -22.8342  -12.9962   21.2597 C   0  0  0  0  0  0  0  0  0  0  0  0
  -26.0621  -31.4135   22.6443 C   0  0  0  0  0  0  0  0  0  0  0  0
  -24.5078  -28.6616   23.3747 C   0  0  0  0  0  0  0  0  0  0  0  0
  -24.4082  -25.2551   23.1950 C   0  0  0  0  0  0  0  0  0  0  0  0
  -29.6838  -16.9314   20.3149 C   0  0  0  0  0  0  0  0  0  0  0  0
  -23.8327  -35.7382   24.1887 C   0  0  0  0  0  0  0  0  0  0  0  0
  -25.9368  -30.2926   20.3896 C   0  0  0  0  0  0  0  0  0  0  0  0
  -26.8598  -28.4291   22.4920 C   0  0  0  0  0  0  0  0  0  0  0  0
  -23.9286  -34.3097   24.7185 C   0  0  0  0  0  0  0  0  0  0  0  0
  -29.9244  -13.5882   19.1140 C   0  0  0  0  0  0  0  0  0  0  0  0
  -25.3775  -33.8328   24.7084 C   0  0  0  0  0  0  0  0  0  0  0  0
  -28.6294  -12.9340   19.6010 C   0  0  0  0  0  0  0  0  0  0  0  0
  -30.4757  -14.5830   20.1339 C   0  0  0  0  0  0  0  0  0  0  0  0
  -28.2266  -14.9509   21.0696 C   0  0  0  0  0  0  0  0  0  0  0  0
  -25.9427  -33.8153   23.2830 C   0  0  1  0  0  0  0  0  0  0  0  0
  -25.3929  -30.3553   21.8135 C   0  0  1  0  0  0  0  0  0  0  0  0
  -27.5985  -13.9890   20.0479 C   0  0  2  0  0  0  0  0  0  0  0  0
  -27.9872  -17.9048   17.8708 C   0  0  0  0  0  0  0  0  0  0  0  0
  -23.0345  -23.2836   23.9186 C   0  0  0  0  0  0  0  0  0  0  0  0
  -24.2820  -17.9703   21.9043 C   0  0  0  0  0  0  0  0  0  0  0  0
  -25.0292  -17.7889   24.3090 C   0  0  0  0  0  0  0  0  0  0  0  0
  -32.6787  -23.9089   19.3131 C   0  0  0  0  0  0  0  0  0  0  0  0
  -30.0373  -19.5473   22.5933 C   0  0  0  0  0  0  0  0  0  0  0  0
  -28.5539  -21.4549   23.1320 C   0  0  0  0  0  0  0  0  0  0  0  0
  -25.6006  -28.9438   26.2095 C   0  0  0  0  0  0  0  0  0  0  0  0
  -25.0152  -26.5410   26.5996 C   0  0  0  0  0  0  0  0  0  0  0  0
  -23.2189  -28.1920   26.0796 C   0  0  0  0  0  0  0  0  0  0  0  0
  -23.9003  -24.4348   20.3971 C   0  0  0  0  0  0  0  0  0  0  0  0
  -25.5065  -20.3695   23.3854 C   0  0  0  0  0  0  0  0  0  0  0  0
  -27.2420  -22.8193   18.4102 C   0  0  0  0  0  0  0  0  0  0  0  0
  -28.4439  -23.6068   17.8721 C   0  0  0  0  0  0  0  0  0  0  0  0
  -32.4202  -26.3500   18.7177 C   0  0  0  0  0  0  0  0  0  0  0  0
  -29.5435  -23.8989   18.8886 C   0  0  0  0  0  0  0  0  0  0  0  0
  -27.6405  -19.1043   23.1717 C   0  0  0  0  0  0  0  0  0  0  0  0
  -31.5176  -27.5781   18.6754 C   0  0  0  0  0  0  0  0  0  1  0  0
  -24.8034  -27.4663   24.2480 C   0  0  1  0  0  0  0  0  0  0  0  0
  -23.2920  -24.2986   22.8158 C   0  0  2  0  0  0  0  0  0  0  0  0
  -25.4639  -17.9357   22.8597 C   0  0  0  0  0  0  0  0  0  0  0  0
  -31.7169  -25.0856   19.2152 C   0  0  1  0  0  0  0  0  0  0  0  0
  -28.5792  -20.0809   22.3742 C   0  0  0  0  0  0  0  0  0  0  0  0
  -24.6767  -27.7932   25.7628 C   0  0  0  0  0  0  0  0  0  0  0  0
  -26.4145  -12.1640   21.2092 N   0  0  0  0  0  0  0  0  0  0  0  0
  -26.3297  -13.3466   20.5765 N   0  0  0  0  0  0  0  0  0  0  0  0
  -25.5443  -29.0888   22.5327 N   0  0  0  0  0  0  0  0  0  0  0  0
  -29.4450  -15.5542   20.5072 N   0  0  0  0  0  0  0  0  0  0  0  0
  -24.7949  -15.0130   19.8851 N   0  0  0  0  0  0  0  0  0  0  0  0
  -22.1667  -11.9560   21.9205 N   0  0  0  0  0  0  0  0  0  0  0  0
  -28.6195  -17.7570   20.6758 N   0  0  0  0  0  0  0  0  0  0  0  0
  -25.4620  -32.6557   22.5629 N   0  0  0  0  0  0  0  0  0  0  0  0
  -23.9203  -26.3986   23.7913 N   0  0  0  0  0  0  0  0  0  0  0  0
  -23.6436  -23.5601   21.5701 N   0  3  0  0  0  0  0  0  0  0  0  0
  -30.6261  -24.7097   18.2732 N   0  3  0  0  0  0  0  0  0  0  0  0
  -26.2306  -19.2268   22.7187 N   0  3  1  0  0  0  0  0  0  0  0  0
  -22.1722  -13.9612   20.8080 O   0  0  0  0  0  0  0  0  0  0  0  0
  -27.0487  -31.1242   23.3109 O   0  0  0  0  0  0  0  0  0  0  0  0
  -23.3957  -29.1923   23.4322 O   0  0  0  0  0  0  0  0  0  0  0  0
  -25.5945  -25.0105   22.9867 O   0  0  0  0  0  0  0  0  0  0  0  0
  -30.7434  -17.3459   19.8379 O   0  0  0  0  0  0  0  0  0  0  0  0
  -23.8626   -7.2008   24.2758 O   0  0  0  0  0  0  0  0  0  0  0  0
  -31.0208  -27.8258   19.9900 O   0  0  0  0  0  0  0  0  0  1  0  0
  -19.5128   -4.3070   22.5124 F   0  0  0  0  0  0  0  0  0  0  0  0
  -24.1498   -4.5875   23.4210 F   0  0  0  0  0  0  0  0  0  0  0  0
  1  2  1  0  0  0  0
  1  5  2  0  0  0  0
  2  6  2  0  0  0  0
  3  8  2  0  0  0  0
  3 17  1  0  0  0  0
  4  9  1  0  0  0  0
  4 17  2  0  0  0  0
  5 19  1  0  0  0  0
  6 21  1  0  0  0  0
  7 10  2  0  0  0  0
  7 20  1  0  0  0  0
  8 27  1  0  0  0  0
  9 27  2  0  0  0  0
 10 28  1  0  0  0  0
 11 12  2  0  0  0  0
 11 29  1  0  0  0  0
 12 30  1  0  0  0  0
 13 22  1  0  0  0  0
 13 28  2  0  0  0  0
 14 23  1  0  0  0  0
 14 24  2  0  0  0  0
 15 23  2  0  0  0  0
 15 25  1  0  0  0  0
 16 30  2  0  0  0  0
 16 31  1  0  0  0  0
 17 32  1  0  0  0  0
 18 32  1  0  0  0  0
 18 33  2  0  0  0  0
 18 34  1  0  0  0  0
 19 21  2  0  0  0  0
 19 39  1  0  0  0  0
 20 22  2  0  0  0  0
 20 40  1  0  0  0  0
 21 48  1  0  0  0  0
 22 41  1  0  0  0  0
 23 63  1  0  0  0  0
 24 26  1  0  0  0  0
 24 51  1  0  0  0  0
 25 26  2  0  0  0  0
 25 73  1  0  0  0  0
 26 81  1  0  0  0  0
 27 92  1  0  0  0  0
 28 93  1  0  0  0  0
 29 31  2  0  0  0  0
 29 92  1  0  0  0  0
 30 94  1  0  0  0  0
 31 95  1  0  0  0  0
 32 75  2  0  0  0  0
 33 76  1  0  0  0  0
 33 79  1  0  0  0  0
 34 80  1  0  0  0  0
 34 87  2  0  0  0  0
 35 49  1  0  0  0  0
 35 82  1  0  0  0  0
 35 88  2  0  0  0  0
 36 69  1  0  0  0  0
 36 77  1  0  0  0  0
 36 89  2  0  0  0  0
 37 70  1  0  0  0  0
 37 83  1  0  0  0  0
 37 90  2  0  0  0  0
 38 78  1  0  0  0  0
 38 81  1  0  0  0  0
 38 91  2  0  0  0  0
 39 42  1  0  0  0  0
 40 49  1  0  0  0  0
 41 77  1  0  0  0  0
 42 44  1  0  0  0  0
 43 45  1  0  0  0  0
 43 46  1  0  0  0  0
 44 48  1  0  0  0  0
 45 50  1  0  0  0  0
 46 78  1  0  0  0  0
 47 50  1  0  0  0  0
 47 78  1  0  0  0  0
 48 82  1  0  0  0  0
 49 77  1  0  0  0  0
 50 76  1  0  0  0  0
 52 70  1  0  0  0  0
 53 71  1  0  0  0  0
 54 71  1  0  0  0  0
 55 72  1  0  0  0  0
 56 73  1  0  0  0  0
 57 73  1  0  0  0  0
 58 74  1  0  0  0  0
 59 74  1  0  0  0  0
 60 74  1  0  0  0  0
 61 84  1  0  0  0  0
 62 86  1  0  0  0  0
 63 64  1  0  0  0  0
 64 66  1  0  0  0  0
 65 68  1  0  0  0  0
 65 72  1  0  0  0  0
 66 85  1  0  0  0  0
 67 73  1  0  0  0  0
 67 86  1  0  0  0  0
 68 93  1  0  0  0  0
 69 74  1  0  0  0  0
 69 83  1  0  0  0  0
 70 84  1  0  0  0  0
 71 86  1  0  0  0  0
 72 85  1  0  0  0  0
 75 76  1  0  0  0  0
M  CHG  3  84   1  85   1  86   1
M  ISO  4  38 100  68 101  81 100  93 101
M  END
> <Batch ID>
0016

> <Smiles>
CNC(C)C(=O)NC(C(=O)N1Cc2cc([101O:1][101CH2:1]CC(C)NCCCc3cc(C)c([100NH:0][100C:0](=O)N4CCCC(n5nc(-c6ccc(Oc7ccc(F)cc7F)cc6)c(C(N)=O)c5N)C4)c(C(C)(C)CN(C)C(C)C)c3)ccc2CC1C(=O)NC1CCCc2ccccc21)C(C)(C)C

> <Shape>
0.311

> <Color>
0.109

> <Negative vol penalty>
0.000

$$$$

  -OEChem-04052315583D

 87 95  0     1  0  0  0  0  0999 V2000
  -33.8734  -23.1402   26.8221 C   0  0  0  0  0  0  0  0  0  0  0  0
  -33.4489  -22.7976   25.5423 C   0  0  0  0  0  0  0  0  0  0  0  0
  -23.0754   -9.8653   19.9413 C   0  0  0  0  0  0  0  0  0  0  0  0
  -23.8324   -9.8749   22.2357 C   0  0  0  0  0  0  0  0  0  0  0  0
  -33.5098  -24.3696   27.3701 C   0  0  0  0  0  0  0  0  0  0  0  0
  -32.6596  -23.6838   24.8102 C   0  0  0  0  0  0  0  0  0  0  0  0
  -34.1843  -24.1257   20.0013 C   0  0  0  0  0  0  0  0  0  0  0  0
  -30.5852  -19.8704   21.4979 C   0  0  0  0  0  0  0  0  0  0  0  0
  -30.8517  -19.1286   22.6487 C   0  0  0  0  0  0  0  0  0  0  0  0
  -22.3317   -8.7122   20.1916 C   0  0  0  0  0  0  0  0  0  0  0  0
  -23.0886   -8.7218   22.4859 C   0  0  0  0  0  0  0  0  0  0  0  0
  -33.8327  -23.0999   19.1251 C   0  0  0  0  0  0  0  0  0  0  0  0
  -19.9473   -5.9711   20.3198 C   0  0  0  0  0  0  0  0  0  0  0  0
  -18.6422   -5.9221   19.8299 C   0  0  0  0  0  0  0  0  0  0  0  0
  -32.0169  -24.4479   18.2853 C   0  0  0  0  0  0  0  0  0  0  0  0
  -18.0747   -7.8662   21.1474 C   0  0  0  0  0  0  0  0  0  0  0  0
  -23.8259  -10.4467   20.9634 C   0  0  0  0  0  0  0  0  0  0  0  0
  -24.1670  -12.9718   20.8412 C   0  0  0  0  0  0  0  0  0  0  0  0
  -32.7237  -25.2754   26.6405 C   0  0  0  0  0  0  0  0  0  0  0  0
  -33.4470  -25.3180   20.0339 C   0  0  0  0  0  0  0  0  0  0  0  0
  -32.2841  -24.9259   25.3494 C   0  0  0  0  0  0  0  0  0  0  0  0
  -32.3628  -25.4883   19.1611 C   0  0  0  0  0  0  0  0  0  0  0  0
  -30.1491  -19.2277   20.3392 C   0  0  0  0  0  0  0  0  0  0  0  0
  -30.6823  -17.7441   22.6407 C   0  0  0  0  0  0  0  0  0  0  0  0
  -29.9797  -17.8432   20.3313 C   0  0  0  0  0  0  0  0  0  0  0  0
  -30.2463  -17.1013   21.4820 C   0  0  0  0  0  0  0  0  0  0  0  0
  -22.3382   -8.1404   21.4638 C   0  0  0  0  0  0  0  0  0  0  0  0
  -32.7471  -23.2597   18.2689 C   0  0  0  0  0  0  0  0  0  0  0  0
  -20.3161   -6.9676   21.2236 C   0  0  0  0  0  0  0  0  0  0  0  0
  -17.7060   -6.8697   20.2436 C   0  0  0  0  0  0  0  0  0  0  0  0
  -19.3798   -7.9151   21.6373 C   0  0  0  0  0  0  0  0  0  0  0  0
  -24.5949  -11.6376   20.7054 C   0  0  0  0  0  0  0  0  0  0  0  0
  -25.2593  -13.7213   20.4785 C   0  0  0  0  0  0  0  0  0  0  0  0
  -22.8958  -13.4876   21.2580 C   0  0  0  0  0  0  0  0  0  0  0  0
  -31.7110  -26.8227   22.2307 C   0  0  0  0  0  0  0  0  0  0  0  0
  -31.5668  -29.1414   19.9668 C   0  0  0  0  0  0  0  0  0  0  0  0
  -31.7503  -29.9814   16.6642 C   0  0  0  0  0  0  0  0  0  0  0  0
  -30.7249  -14.7690   20.6590 C   0  0  0  0  0  0  0  0  0  0  0  0
  -32.3166  -26.5727   27.2931 C   0  0  0  0  0  0  0  0  0  0  0  0
  -33.8555  -26.4255   20.9661 C   0  0  0  0  0  0  0  0  0  0  0  0
  -31.5513  -26.7569   19.1426 C   0  0  0  0  0  0  0  0  0  0  0  0
  -31.7906  -27.6120   26.3065 C   0  0  0  0  0  0  0  0  0  0  0  0
  -29.6144  -12.3523   18.2919 C   0  0  0  0  0  0  0  0  0  0  0  0
  -30.7891  -26.9779   25.3465 C   0  0  0  0  0  0  0  0  0  0  0  0
  -28.1743  -12.0607   18.7199 C   0  0  0  0  0  0  0  0  0  0  0  0
  -30.5279  -12.5827   19.4944 C   0  0  0  0  0  0  0  0  0  0  0  0
  -28.6189  -13.3079   20.8725 C   0  0  0  0  0  0  0  0  0  0  0  0
  -31.4474  -25.8708   24.5144 C   0  0  1  0  0  0  0  0  0  0  0  0
  -32.7195  -27.3956   21.2756 C   0  0  1  0  0  0  0  0  0  0  0  0
  -27.6477  -13.1331   19.6937 C   0  0  2  0  0  0  0  0  0  0  0  0
  -29.5129  -17.1601   19.0839 C   0  0  0  0  0  0  0  0  0  0  0  0
  -31.5526  -31.9479   15.1178 C   0  0  0  0  0  0  0  0  0  0  0  0
  -31.4457  -20.0679   15.6988 C   0  0  0  0  0  0  0  0  0  0  0  0
  -31.4457  -17.9249   25.0345 C   0  0  0  0  0  0  0  0  0  0  0  0
  -32.1048  -15.9273   23.6520 C   0  0  0  0  0  0  0  0  0  0  0  0
  -29.7726  -16.1718   24.4782 C   0  0  0  0  0  0  0  0  0  0  0  0
  -28.5304  -29.0603   20.2557 C   0  0  0  0  0  0  0  0  0  0  0  0
  -28.3606  -30.2988   18.0865 C   0  0  0  0  0  0  0  0  0  0  0  0
  -29.4967  -31.3567   20.0391 C   0  0  0  0  0  0  0  0  0  0  0  0
  -34.5405  -29.6724   15.7270 C   0  0  0  0  0  0  0  0  0  0  0  0
  -29.8701  -20.0499   19.1156 C   0  0  0  0  0  0  0  0  0  0  0  0
  -31.0217  -22.1509   17.0649 C   0  0  0  0  0  0  0  0  0  1  0  0
  -30.6385  -29.4592   18.8195 C   0  0  1  0  0  0  0  0  0  0  0  0
  -32.4970  -31.0917   15.9472 C   0  0  2  0  0  0  0  0  0  0  0  0
  -30.6447  -20.6926   16.8297 C   0  0  2  0  0  0  0  0  0  0  0  0
  -30.9765  -16.9768   23.8892 C   0  0  0  0  0  0  0  0  0  0  0  0
  -29.2704  -30.0190   19.3017 C   0  0  0  0  0  0  0  0  0  0  0  0
  -25.8603  -11.5417   20.2888 N   0  0  0  0  0  0  0  0  0  0  0  0
  -26.2369  -12.8253   20.1596 N   0  0  0  0  0  0  0  0  0  0  0  0
  -31.9863  -27.8081   20.0771 N   0  0  0  0  0  0  0  0  0  0  0  0
  -29.9674  -13.6142   20.3700 N   0  0  0  0  0  0  0  0  0  0  0  0
  -25.4694  -15.0528   20.4044 N   0  0  0  0  0  0  0  0  0  0  0  0
  -21.8838  -12.5785   21.5949 N   0  0  0  0  0  0  0  0  0  0  0  0
  -30.0762  -15.6947   21.4757 N   0  0  0  0  0  0  0  0  0  0  0  0
  -32.2418  -26.4439   23.4490 N   0  0  0  0  0  0  0  0  0  0  0  0
  -31.3739  -30.3576   17.9362 N   0  0  0  0  0  0  0  0  0  0  0  0
  -33.5311  -30.5186   15.0399 N   0  3  0  0  0  0  0  0  0  0  0  0
  -30.9243  -19.9243   18.0773 N   0  3  0  0  0  0  0  0  0  0  0  0
  -22.6591  -14.7182   21.3137 O   0  0  0  0  0  0  0  0  0  0  0  0
  -30.5378  -26.7325   21.8883 O   0  0  0  0  0  0  0  0  0  0  0  0
  -31.9128  -30.0444   20.7327 O   0  0  0  0  0  0  0  0  0  0  0  0
  -31.5204  -28.8908   16.1462 O   0  0  0  0  0  0  0  0  0  0  0  0
  -31.8546  -14.9376   20.1927 O   0  0  0  0  0  0  0  0  0  0  0  0
  -21.6123   -7.0153   21.7084 O   0  0  0  0  0  0  0  0  0  0  0  0
  -32.4013  -22.2598   17.4130 O   0  0  0  0  0  0  0  0  0  1  0  0
  -16.4532   -6.8235   19.7719 F   0  0  0  0  0  0  0  0  0  0  0  0
  -19.7285   -8.8755   22.5044 F   0  0  0  0  0  0  0  0  0  0  0  0
  1  2  1  0  0  0  0
  1  5  2  0  0  0  0
  2  6  2  0  0  0  0
  3 10  2  0  0  0  0
  3 17  1  0  0  0  0
  4 11  1  0  0  0  0
  4 17  2  0  0  0  0
  5 19  1  0  0  0  0
  6 21  1  0  0  0  0
  7 12  2  0  0  0  0
  7 20  1  0  0  0  0
  8  9  2  0  0  0  0
  8 23  1  0  0  0  0
  9 24  1  0  0  0  0
 10 27  1  0  0  0  0
 11 27  2  0  0  0  0
 12 28  1  0  0  0  0
 13 14  2  0  0  0  0
 13 29  1  0  0  0  0
 14 30  1  0  0  0  0
 15 22  1  0  0  0  0
 15 28  2  0  0  0  0
 16 30  2  0  0  0  0
 16 31  1  0  0  0  0
 17 32  1  0  0  0  0
 18 32  1  0  0  0  0
 18 33  2  0  0  0  0
 18 34  1  0  0  0  0
 19 21  2  0  0  0  0
 19 39  1  0  0  0  0
 20 22  2  0  0  0  0
 20 40  1  0  0  0  0
 21 48  1  0  0  0  0
 22 41  1  0  0  0  0
 23 25  2  0  0  0  0
 23 61  1  0  0  0  0
 24 26  2  0  0  0  0
 24 66  1  0  0  0  0
 25 26  1  0  0  0  0
 25 51  1  0  0  0  0
 26 74  1  0  0  0  0
 27 84  1  0  0  0  0
 28 85  1  0  0  0  0
 29 31  2  0  0  0  0
 29 84  1  0  0  0  0
 30 86  1  0  0  0  0
 31 87  1  0  0  0  0
 32 68  2  0  0  0  0
 33 69  1  0  0  0  0
 33 72  1  0  0  0  0
 34 73  1  0  0  0  0
 34 79  2  0  0  0  0
 35 49  1  0  0  0  0
 35 75  1  0  0  0  0
 35 80  2  0  0  0  0
 36 63  1  0  0  0  0
 36 70  1  0  0  0  0
 36 81  2  0  0  0  0
 37 64  1  0  0  0  0
 37 76  1  0  0  0  0
 37 82  2  0  0  0  0
 38 71  1  0  0  0  0
 38 74  1  0  0  0  0
 38 83  2  0  0  0  0
 39 42  1  0  0  0  0
 40 49  1  0  0  0  0
 41 70  1  0  0  0  0
 42 44  1  0  0  0  0
 43 45  1  0  0  0  0
 43 46  1  0  0  0  0
 44 48  1  0  0  0  0
 45 50  1  0  0  0  0
 46 71  1  0  0  0  0
 47 50  1  0  0  0  0
 47 71  1  0  0  0  0
 48 75  1  0  0  0  0
 49 70  1  0  0  0  0
 50 69  1  0  0  0  0
 52 64  1  0  0  0  0
 53 65  1  0  0  0  0
 54 66  1  0  0  0  0
 55 66  1  0  0  0  0
 56 66  1  0  0  0  0
 57 67  1  0  0  0  0
 58 67  1  0  0  0  0
 59 67  1  0  0  0  0
 60 77  1  0  0  0  0
 61 78  1  0  0  0  0
 62 65  1  0  0  0  0
 62 85  1  0  0  0  0
 63 67  1  0  0  0  0
 63 76  1  0  0  0  0
 64 77  1  0  0  0  0
 65 78  1  0  0  0  0
 68 69  1  0  0  0  0
M  CHG  2  77   1  78   1
M  ISO  4  38 100  62 101  74 100  85 101
M  END
> <Batch ID>
0016

> <Smiles>
CNC(C)C(=O)NC(C(=O)N1Cc2cc([101O:1][101CH2:1]C(C)NCc3ccc(C(C)(C)C)c([100NH:0][100C:0](=O)N4CCCC(n5nc(-c6ccc(Oc7ccc(F)cc7F)cc6)c(C(N)=O)c5N)C4)c3C)ccc2CC1C(=O)NC1CCCc2ccccc21)C(C)(C)C

> <Shape>
0.203

> <Color>
0.187

> <Negative vol penalty>
0.000

$$$$
