
  -OEChem-04052316013D

 86 94  0     1  0  0  0  0  0999 V2000
  -17.3801  -26.2363   21.5479 C   0  0  0  0  0  0  0  0  0  0  0  0
  -18.6893  -25.8138   21.3402 C   0  0  0  0  0  0  0  0  0  0  0  0
  -24.9234  -12.9561   19.3164 C   0  0  0  0  0  0  0  0  0  0  0  0
  -26.5937  -13.3094   21.0259 C   0  0  0  0  0  0  0  0  0  0  0  0
  -17.1336  -27.4922   22.1008 C   0  0  0  0  0  0  0  0  0  0  0  0
  -19.7527  -26.6475   21.6844 C   0  0  0  0  0  0  0  0  0  0  0  0
  -23.4375  -24.1852   24.1347 C   0  0  0  0  0  0  0  0  0  0  0  0
  -24.7746  -11.6339   19.7350 C   0  0  0  0  0  0  0  0  0  0  0  0
  -26.4449  -11.9872   21.4446 C   0  0  0  0  0  0  0  0  0  0  0  0
  -24.3043  -23.4087   23.3668 C   0  0  0  0  0  0  0  0  0  0  0  0
  -23.2163   -9.9728   22.2341 C   0  0  0  0  0  0  0  0  0  0  0  0
  -21.9193   -9.4784   22.3715 C   0  0  0  0  0  0  0  0  0  0  0  0
  -25.9435  -25.1769   23.4400 C   0  0  0  0  0  0  0  0  0  0  0  0
  -29.7432  -20.7285   20.8947 C   0  0  0  0  0  0  0  0  0  0  0  0
  -22.3946   -7.7742   20.7262 C   0  0  0  0  0  0  0  0  0  0  0  0
  -25.8330  -13.7938   19.9618 C   0  0  0  0  0  0  0  0  0  0  0  0
  -25.2769  -16.2833   19.9918 C   0  0  0  0  0  0  0  0  0  0  0  0
  -18.1947  -28.3379   22.4609 C   0  0  0  0  0  0  0  0  0  0  0  0
  -23.8137  -25.4698   24.5525 C   0  0  0  0  0  0  0  0  0  0  0  0
  -19.5201  -27.9165   22.2415 C   0  0  0  0  0  0  0  0  0  0  0  0
  -25.0808  -25.9667   24.2152 C   0  0  0  0  0  0  0  0  0  0  0  0
  -29.0231  -21.6286   21.6800 C   0  0  0  0  0  0  0  0  0  0  0  0
  -28.4429  -22.7546   21.0960 C   0  0  0  0  0  0  0  0  0  0  0  0
  -28.5828  -22.9805   19.7266 C   0  0  0  0  0  0  0  0  0  0  0  0
  -29.8832  -20.9543   19.5254 C   0  0  0  0  0  0  0  0  0  0  0  0
  -25.5353  -11.1494   20.7991 C   0  0  0  0  0  0  0  0  0  0  0  0
  -25.5563  -23.9056   23.0169 C   0  0  0  0  0  0  0  0  0  0  0  0
  -24.1025   -9.3679   21.3427 C   0  0  0  0  0  0  0  0  0  0  0  0
  -21.5084   -8.3791   21.6176 C   0  0  0  0  0  0  0  0  0  0  0  0
  -23.6917   -8.2686   20.5889 C   0  0  0  0  0  0  0  0  0  0  0  0
  -29.3030  -22.0803   18.9413 C   0  0  0  0  0  0  0  0  0  0  0  0
  -25.9876  -15.1596   19.5294 C   0  0  0  0  0  0  0  0  0  0  0  0
  -25.7913  -17.3346   19.2731 C   0  0  0  0  0  0  0  0  0  0  0  0
  -24.2441  -16.3692   20.9826 C   0  0  0  0  0  0  0  0  0  0  0  0
  -22.7035  -28.4060   24.0523 C   0  0  0  0  0  0  0  0  0  0  0  0
  -24.9629  -29.2119   26.2358 C   0  0  0  0  0  0  0  0  0  0  0  0
  -31.0871  -18.1193   16.5435 C   0  0  0  0  0  0  0  0  0  0  0  0
  -27.9073  -28.4389   27.7784 C   0  0  0  0  0  0  0  0  0  0  0  0
  -30.7611  -18.6519   18.9936 C   0  0  0  0  0  0  0  0  0  0  0  0
  -17.8780  -29.7058   23.0116 C   0  0  0  0  0  0  0  0  0  0  0  0
  -22.8777  -26.2843   25.4028 C   0  0  0  0  0  0  0  0  0  0  0  0
  -25.5404  -27.3316   24.6558 C   0  0  0  0  0  0  0  0  0  0  0  0
  -19.0662  -30.3770   23.6957 C   0  0  0  0  0  0  0  0  0  0  0  0
  -27.8270  -18.3728   15.0783 C   0  0  0  0  0  0  0  0  0  0  0  0
  -20.3186  -30.2526   22.8338 C   0  0  0  0  0  0  0  0  0  0  0  0
  -26.9255  -17.6548   16.0818 C   0  0  0  0  0  0  0  0  0  0  0  0
  -29.2021  -17.7177   14.9945 C   0  0  0  0  0  0  0  0  0  0  0  0
  -29.0015  -16.8842   17.3154 C   0  0  0  0  0  0  0  0  0  0  0  0
  -20.7006  -28.7822   22.6248 C   0  0  1  0  0  0  0  0  0  0  0  0
  -23.1629  -27.7816   25.3395 C   0  0  1  0  0  0  0  0  0  0  0  0
  -27.6127  -17.5328   17.4534 C   0  0  2  0  0  0  0  0  0  0  0  0
  -28.8889  -21.3640   23.1442 C   0  0  0  0  0  0  0  0  0  0  0  0
  -27.9537  -24.1964   19.1192 C   0  0  0  0  0  0  0  0  0  0  0  0
  -29.5210  -29.3085   29.4923 C   0  0  0  0  0  0  0  0  0  0  0  0
  -33.0432  -18.6025   17.9160 C   0  0  0  0  0  0  0  0  0  0  0  0
  -31.7831  -16.4693   18.2579 C   0  0  0  0  0  0  0  0  0  0  0  0
  -26.0185  -31.2360   24.2113 C   0  0  0  0  0  0  0  0  0  0  0  0
  -28.1275  -31.3740   25.5535 C   0  0  0  0  0  0  0  0  0  0  0  0
  -25.9556  -32.0579   26.5724 C   0  0  0  0  0  0  0  0  0  0  0  0
  -27.5131  -26.0769   29.5175 C   0  0  0  0  0  0  0  0  0  0  0  0
  -27.6713  -23.7216   21.9451 C   0  0  0  0  0  0  0  0  0  1  0  0
  -26.4191  -29.6049   26.1722 C   0  0  1  0  0  0  0  0  0  0  0  0
  -28.3049  -28.4299   29.2434 C   0  0  2  0  0  0  0  0  0  0  0  0
  -31.6471  -17.9631   17.9349 C   0  0  0  0  0  0  0  0  0  0  0  0
  -26.6211  -31.0432   25.6173 C   0  0  0  0  0  0  0  0  0  0  0  0
  -26.8851  -15.4680   18.5895 N   0  0  0  0  0  0  0  0  0  0  0  0
  -26.7417  -16.7975   18.4554 N   0  0  0  0  0  0  0  0  0  0  0  0
  -24.5869  -28.0922   25.4804 N   0  0  0  0  0  0  0  0  0  0  0  0
  -29.8119  -17.5998   16.3202 N   0  0  0  0  0  0  0  0  0  0  0  0
  -25.5189  -18.6568   19.2670 N   0  0  0  0  0  0  0  0  0  0  0  0
  -23.8347  -15.1925   21.6247 N   0  0  0  0  0  0  0  0  0  0  0  0
  -30.6111  -20.0290   18.7704 N   0  0  0  0  0  0  0  0  0  0  0  0
  -21.3522  -28.2566   23.8053 N   0  0  0  0  0  0  0  0  0  0  0  0
  -26.9559  -29.4011   27.5134 N   0  0  0  0  0  0  0  0  0  0  0  0
  -28.6289  -27.0434   29.6837 N   0  3  0  0  0  0  0  0  0  0  0  0
  -23.6889  -17.4546   21.2777 O   0  0  0  0  0  0  0  0  0  0  0  0
  -23.5147  -28.9821   23.3369 O   0  0  0  0  0  0  0  0  0  0  0  0
  -24.1891  -29.8697   26.9359 O   0  0  0  0  0  0  0  0  0  0  0  0
  -31.7632  -18.6890   15.6830 O   0  0  0  0  0  0  0  0  0  0  0  0
  -28.3949  -27.6718   26.9512 O   0  0  0  0  0  0  0  0  0  0  0  0
  -30.2532  -18.0133   19.9125 O   0  0  0  0  0  0  0  0  0  0  0  0
  -25.3902   -9.8594   21.2081 O   0  0  0  0  0  0  0  0  0  0  0  0
  -26.4040  -23.1501   22.2670 O   0  0  0  0  0  0  0  0  0  1  0  0
  -20.2634   -7.9035   21.7507 F   0  0  0  0  0  0  0  0  0  0  0  0
  -24.5389   -7.6825   19.7318 F   0  0  0  0  0  0  0  0  0  0  0  0
  -29.4749  -22.3619   17.2385 Cl  0  0  0  0  0  0  0  0  0  0  0  0
  1  2  1  0  0  0  0
  1  5  2  0  0  0  0
  2  6  2  0  0  0  0
  3  8  2  0  0  0  0
  3 16  1  0  0  0  0
  4  9  1  0  0  0  0
  4 16  2  0  0  0  0
  5 18  1  0  0  0  0
  6 20  1  0  0  0  0
  7 10  2  0  0  0  0
  7 19  1  0  0  0  0
  8 26  1  0  0  0  0
  9 26  2  0  0  0  0
 10 27  1  0  0  0  0
 11 12  2  0  0  0  0
 11 28  1  0  0  0  0
 12 29  1  0  0  0  0
 13 21  1  0  0  0  0
 13 27  2  0  0  0  0
 14 22  2  0  0  0  0
 14 25  1  0  0  0  0
 15 29  2  0  0  0  0
 15 30  1  0  0  0  0
 16 32  1  0  0  0  0
 17 32  1  0  0  0  0
 17 33  2  0  0  0  0
 17 34  1  0  0  0  0
 18 20  2  0  0  0  0
 18 40  1  0  0  0  0
 19 21  2  0  0  0  0
 19 41  1  0  0  0  0
 20 49  1  0  0  0  0
 21 42  1  0  0  0  0
 22 23  1  0  0  0  0
 22 52  1  0  0  0  0
 23 24  2  0  0  0  0
 23 61  1  0  0  0  0
 24 31  1  0  0  0  0
 24 53  1  0  0  0  0
 25 31  2  0  0  0  0
 25 72  1  0  0  0  0
 26 82  1  0  0  0  0
 27 83  1  0  0  0  0
 28 30  2  0  0  0  0
 28 82  1  0  0  0  0
 29 84  1  0  0  0  0
 30 85  1  0  0  0  0
 31 86  1  0  0  0  0
 32 66  2  0  0  0  0
 33 67  1  0  0  0  0
 33 70  1  0  0  0  0
 34 71  1  0  0  0  0
 34 76  2  0  0  0  0
 35 50  1  0  0  0  0
 35 73  1  0  0  0  0
 35 77  2  0  0  0  0
 36 62  1  0  0  0  0
 36 68  1  0  0  0  0
 36 78  2  0  0  0  0
 37 64  1  0  0  0  0
 37 69  1  0  0  0  0
 37 79  2  0  0  0  0
 38 63  1  0  0  0  0
 38 74  1  0  0  0  0
 38 80  2  0  0  0  0
 39 64  1  0  0  0  0
 39 72  1  0  0  0  0
 39 81  2  0  0  0  0
 40 43  1  0  0  0  0
 41 50  1  0  0  0  0
 42 68  1  0  0  0  0
 43 45  1  0  0  0  0
 44 46  1  0  0  0  0
 44 47  1  0  0  0  0
 45 49  1  0  0  0  0
 46 51  1  0  0  0  0
 47 69  1  0  0  0  0
 48 51  1  0  0  0  0
 48 69  1  0  0  0  0
 49 73  1  0  0  0  0
 50 68  1  0  0  0  0
 51 67  1  0  0  0  0
 54 63  1  0  0  0  0
 55 64  1  0  0  0  0
 56 64  1  0  0  0  0
 57 65  1  0  0  0  0
 58 65  1  0  0  0  0
 59 65  1  0  0  0  0
 60 75  1  0  0  0  0
 61 83  1  0  0  0  0
 62 65  1  0  0  0  0
 62 74  1  0  0  0  0
 63 75  1  0  0  0  0
 66 67  1  0  0  0  0
M  CHG  1  75   1
M  ISO  4  37 100  61 101  64 100  83 101
M  END
> <Batch ID>
0017

> <Smiles>
CNC(C)C(=O)NC(C(=O)N1Cc2cc([101O:1][101CH2:1]c3c(C)cc(NC(=O)[100C:0](C)(C)[100C:0](=O)N4CCCC(n5nc(-c6ccc(Oc7ccc(F)cc7F)cc6)c(C(N)=O)c5N)C4)c(Cl)c3C)ccc2CC1C(=O)NC1CCCc2ccccc21)C(C)(C)C

> <Shape>
0.220

> <Color>
0.092

> <Negative vol penalty>
0.000

$$$$

  -OEChem-04052316013D

 88 96  0     1  0  0  0  0  0999 V2000
  -17.4871  -26.4518   20.0224 C   0  0  0  0  0  0  0  0  0  0  0  0
  -18.5720  -27.0302   19.3713 C   0  0  0  0  0  0  0  0  0  0  0  0
  -23.8969  -13.9850   21.4643 C   0  0  0  0  0  0  0  0  0  0  0  0
  -26.2086  -14.0561   20.7659 C   0  0  0  0  0  0  0  0  0  0  0  0
  -17.3569  -26.5783   21.4048 C   0  0  0  0  0  0  0  0  0  0  0  0
  -19.5267  -27.7364   20.1021 C   0  0  0  0  0  0  0  0  0  0  0  0
  -24.2644  -26.5767   18.7404 C   0  0  0  0  0  0  0  0  0  0  0  0
  -23.7583  -12.7272   20.8776 C   0  0  0  0  0  0  0  0  0  0  0  0
  -26.0701  -12.7982   20.1792 C   0  0  0  0  0  0  0  0  0  0  0  0
  -24.7482  -27.1519   17.5662 C   0  0  0  0  0  0  0  0  0  0  0  0
  -24.5518   -9.5273   21.6286 C   0  0  0  0  0  0  0  0  0  0  0  0
  -23.8921   -8.5399   22.3603 C   0  0  0  0  0  0  0  0  0  0  0  0
  -25.9220  -28.8088   18.8686 C   0  0  0  0  0  0  0  0  0  0  0  0
  -31.3680  -23.4348   18.1029 C   0  0  0  0  0  0  0  0  0  0  0  0
  -22.2360   -8.3504   20.6115 C   0  0  0  0  0  0  0  0  0  0  0  0
  -25.1221  -14.6496   21.4084 C   0  0  0  0  0  0  0  0  0  0  0  0
  -25.6567  -16.2325   23.3360 C   0  0  0  0  0  0  0  0  0  0  0  0
  -18.3156  -27.2783   22.1541 C   0  0  0  0  0  0  0  0  0  0  0  0
  -24.5974  -27.1208   19.9892 C   0  0  0  0  0  0  0  0  0  0  0  0
  -19.4084  -27.8736   21.4956 C   0  0  0  0  0  0  0  0  0  0  0  0
  -25.4431  -28.2371   20.0572 C   0  0  0  0  0  0  0  0  0  0  0  0
  -32.2439  -24.2721   17.4121 C   0  0  0  0  0  0  0  0  0  0  0  0
  -29.6564  -25.1366   17.9954 C   0  0  0  0  0  0  0  0  0  0  0  0
  -30.5324  -25.9740   17.3047 C   0  0  0  0  0  0  0  0  0  0  0  0
  -30.0742  -23.8670   18.3945 C   0  0  0  0  0  0  0  0  0  0  0  0
  -24.8449  -12.1338   20.2351 C   0  0  0  0  0  0  0  0  0  0  0  0
  -25.5748  -28.2698   17.6300 C   0  0  0  0  0  0  0  0  0  0  0  0
  -24.0535   -9.9264   20.3884 C   0  0  0  0  0  0  0  0  0  0  0  0
  -22.7342   -7.9514   21.8518 C   0  0  0  0  0  0  0  0  0  0  0  0
  -22.8957   -9.3379   19.8798 C   0  0  0  0  0  0  0  0  0  0  0  0
  -31.8262  -25.5417   17.0130 C   0  0  0  0  0  0  0  0  0  0  0  0
  -25.2657  -15.9492   22.0137 C   0  0  0  0  0  0  0  0  0  0  0  0
  -25.6387  -17.6038   23.4131 C   0  0  0  0  0  0  0  0  0  0  0  0
  -28.4842  -22.2245   18.3593 C   0  0  0  0  0  0  0  0  0  0  0  0
  -26.0051  -15.3364   24.3996 C   0  0  0  0  0  0  0  0  0  0  0  0
  -22.9542  -28.4176   22.3813 C   0  0  0  0  0  0  0  0  0  0  0  0
  -26.1655  -21.8660   19.2098 C   0  0  0  0  0  0  0  0  0  0  0  0
  -25.8427  -28.4030   23.8574 C   0  0  0  0  0  0  0  0  0  0  0  0
  -29.2432  -28.3764   23.5698 C   0  0  0  0  0  0  0  0  0  0  0  0
  -18.1071  -27.4286   23.6403 C   0  0  0  0  0  0  0  0  0  0  0  0
  -24.0889  -26.4725   21.2476 C   0  0  0  0  0  0  0  0  0  0  0  0
  -25.8468  -28.8471   21.3738 C   0  0  0  0  0  0  0  0  0  0  0  0
  -19.3605  -27.8741   24.3892 C   0  0  0  0  0  0  0  0  0  0  0  0
  -23.4851  -21.4386   21.5492 C   0  0  0  0  0  0  0  0  0  0  0  0
  -20.0301  -29.0375   23.6646 C   0  0  0  0  0  0  0  0  0  0  0  0
  -23.6564  -19.9991   22.0324 C   0  0  0  0  0  0  0  0  0  0  0  0
  -23.8681  -21.5838   20.0798 C   0  0  0  0  0  0  0  0  0  0  0  0
  -25.4205  -19.6641   20.2433 C   0  0  0  0  0  0  0  0  0  0  0  0
  -20.4780  -28.6264   22.2569 C   0  0  1  0  0  0  0  0  0  0  0  0
  -24.0753  -27.4191   22.4439 C   0  0  1  0  0  0  0  0  0  0  0  0
  -25.0735  -19.4799   21.7312 C   0  0  2  0  0  0  0  0  0  0  0  0
  -33.6264  -23.8066   17.1012 C   0  0  0  0  0  0  0  0  0  0  0  0
  -28.2683  -25.5993   18.3080 C   0  0  0  0  0  0  0  0  0  0  0  0
  -31.3373  -28.4066   24.9522 C   0  0  0  0  0  0  0  0  0  0  0  0
  -29.7861  -29.2963   14.3969 C   0  0  0  0  0  0  0  0  0  0  0  0
  -25.4464  -31.3814   24.3884 C   0  0  0  0  0  0  0  0  0  0  0  0
  -27.8937  -31.5465   24.8901 C   0  0  0  0  0  0  0  0  0  0  0  0
  -26.4279  -30.1025   26.3003 C   0  0  0  0  0  0  0  0  0  0  0  0
  -30.1177  -25.7543   22.5121 C   0  0  0  0  0  0  0  0  0  0  0  0
  -30.1039  -27.3431   16.8655 C   0  0  0  0  0  0  0  0  0  0  0  0
  -27.5275  -21.2572   18.9904 C   0  0  0  0  0  0  0  0  0  0  0  0
  -27.3838  -28.5249   14.5167 C   0  0  0  0  0  0  0  0  0  0  0  0
  -26.2499  -27.9669   15.3698 C   0  0  0  0  0  0  0  0  0  1  0  0
  -27.0007  -29.3670   23.9502 C   0  0  1  0  0  0  0  0  0  0  0  0
  -30.3054  -27.5348   24.2538 C   0  0  2  0  0  0  0  0  0  0  0  0
  -28.7094  -28.6631   15.2681 C   0  0  1  0  0  0  0  0  0  0  0  0
  -26.6832  -30.5893   24.8572 C   0  0  0  0  0  0  0  0  0  0  0  0
  -25.0173  -17.0518   21.3019 N   0  0  0  0  0  0  0  0  0  0  0  0
  -29.2093  -23.0115   19.0885 N   0  0  0  0  0  0  0  0  0  0  0  0
  -25.2527  -18.0413   22.1803 N   0  0  0  0  0  0  0  0  0  0  0  0
  -25.3188  -28.1811   22.5760 N   0  0  0  0  0  0  0  0  0  0  0  0
  -25.2119  -21.0590   19.8305 N   0  0  0  0  0  0  0  0  0  0  0  0
  -25.9154  -18.4658   24.4144 N   0  0  0  0  0  0  0  0  0  0  0  0
  -25.9713  -13.9577   24.1498 N   0  0  0  0  0  0  0  0  0  0  0  0
  -21.6965  -27.8483   22.3213 N   0  0  0  0  0  0  0  0  0  0  0  0
  -28.1510  -28.5825   24.3859 N   0  0  0  0  0  0  0  0  0  0  0  0
  -31.0098  -26.6796   23.2571 N   0  3  0  0  0  0  0  0  0  0  0  0
  -29.1930  -27.3195   15.6917 N   0  3  0  0  0  0  0  0  0  0  0  0
  -26.3208  -15.7456   25.5426 O   0  0  0  0  0  0  0  0  0  0  0  0
  -23.2112  -29.6158   22.3884 O   0  0  0  0  0  0  0  0  0  0  0  0
  -25.9581  -23.0255   18.8425 O   0  0  0  0  0  0  0  0  0  0  0  0
  -25.4231  -27.8612   24.8831 O   0  0  0  0  0  0  0  0  0  0  0  0
  -29.3712  -28.8110   22.4273 O   0  0  0  0  0  0  0  0  0  0  0  0
  -24.7101  -10.9062   19.6628 O   0  0  0  0  0  0  0  0  0  0  0  0
  -26.0480  -28.8336   16.4854 O   0  0  0  0  0  0  0  0  0  1  0  0
  -22.1017   -7.0021   22.5539 F   0  0  0  0  0  0  0  0  0  0  0  0
  -22.4129   -9.7163   18.6884 F   0  0  0  0  0  0  0  0  0  0  0  0
  -32.6691  -26.3454   16.3476 F   0  0  0  0  0  0  0  0  0  0  0  0
  1  2  1  0  0  0  0
  1  5  2  0  0  0  0
  2  6  2  0  0  0  0
  3  8  2  0  0  0  0
  3 16  1  0  0  0  0
  4  9  1  0  0  0  0
  4 16  2  0  0  0  0
  5 18  1  0  0  0  0
  6 20  1  0  0  0  0
  7 10  2  0  0  0  0
  7 19  1  0  0  0  0
  8 26  1  0  0  0  0
  9 26  2  0  0  0  0
 10 27  1  0  0  0  0
 11 12  2  0  0  0  0
 11 28  1  0  0  0  0
 12 29  1  0  0  0  0
 13 21  1  0  0  0  0
 13 27  2  0  0  0  0
 14 22  2  0  0  0  0
 14 25  1  0  0  0  0
 15 29  2  0  0  0  0
 15 30  1  0  0  0  0
 16 32  1  0  0  0  0
 17 32  1  0  0  0  0
 17 33  2  0  0  0  0
 17 35  1  0  0  0  0
 18 20  2  0  0  0  0
 18 40  1  0  0  0  0
 19 21  2  0  0  0  0
 19 41  1  0  0  0  0
 20 49  1  0  0  0  0
 21 42  1  0  0  0  0
 22 31  1  0  0  0  0
 22 52  1  0  0  0  0
 23 24  1  0  0  0  0
 23 25  2  0  0  0  0
 23 53  1  0  0  0  0
 24 31  2  0  0  0  0
 24 60  1  0  0  0  0
 25 69  1  0  0  0  0
 26 84  1  0  0  0  0
 27 85  1  0  0  0  0
 28 30  2  0  0  0  0
 28 84  1  0  0  0  0
 29 86  1  0  0  0  0
 30 87  1  0  0  0  0
 31 88  1  0  0  0  0
 32 68  2  0  0  0  0
 33 70  1  0  0  0  0
 33 73  1  0  0  0  0
 34 61  1  0  0  0  0
 34 69  2  0  0  0  0
 35 74  1  0  0  0  0
 35 79  2  0  0  0  0
 36 50  1  0  0  0  0
 36 75  1  0  0  0  0
 36 80  2  0  0  0  0
 37 61  1  0  0  0  0
 37 72  1  0  0  0  0
 37 81  2  0  0  0  0
 38 64  1  0  0  0  0
 38 71  1  0  0  0  0
 38 82  2  0  0  0  0
 39 65  1  0  0  0  0
 39 76  1  0  0  0  0
 39 83  2  0  0  0  0
 40 43  1  0  0  0  0
 41 50  1  0  0  0  0
 42 71  1  0  0  0  0
 43 45  1  0  0  0  0
 44 46  1  0  0  0  0
 44 47  1  0  0  0  0
 45 49  1  0  0  0  0
 46 51  1  0  0  0  0
 47 72  1  0  0  0  0
 48 51  1  0  0  0  0
 48 72  1  0  0  0  0
 49 75  1  0  0  0  0
 50 71  1  0  0  0  0
 51 70  1  0  0  0  0
 54 65  1  0  0  0  0
 55 66  1  0  0  0  0
 56 67  1  0  0  0  0
 57 67  1  0  0  0  0
 58 67  1  0  0  0  0
 59 77  1  0  0  0  0
 60 78  1  0  0  0  0
 62 63  1  0  0  0  0
 62 66  1  0  0  0  0
 63 85  1  0  0  0  0
 64 67  1  0  0  0  0
 64 76  1  0  0  0  0
 65 77  1  0  0  0  0
 66 78  1  0  0  0  0
 68 70  1  0  0  0  0
M  CHG  2  77   1  78   1
M  ISO  4  37 100  61 100  63 101  85 101
M  END
> <Batch ID>
0017

> <Smiles>
CNC(C)C(=O)NC(C(=O)N1Cc2cc([101O:1][101CH2:1]CC(C)NCc3c(C)c(NC=[100CH:0][100C:0](=O)N4CCCC(n5nc(-c6ccc(Oc7ccc(F)cc7F)cc6)c(C(N)=O)c5N)C4)cc(C)c3F)ccc2CC1C(=O)NC1CCCc2ccccc21)C(C)(C)C

> <Shape>
0.235

> <Color>
0.083

> <Negative vol penalty>
0.000

$$$$

  -OEChem-04052316013D

 84 92  0     1  0  0  0  0  0999 V2000
  -22.3600   -8.0981   20.8002 C   0  0  0  0  0  0  0  0  0  0  0  0
  -21.8225   -9.3813   20.7936 C   0  0  0  0  0  0  0  0  0  0  0  0
  -26.5568  -29.6358   19.4149 C   0  0  0  0  0  0  0  0  0  0  0  0
  -26.1740  -28.8506   21.6674 C   0  0  0  0  0  0  0  0  0  0  0  0
  -23.7124   -7.9116   21.0832 C   0  0  0  0  0  0  0  0  0  0  0  0
  -22.6369  -10.4786   21.0711 C   0  0  0  0  0  0  0  0  0  0  0  0
  -22.2308  -16.0774   18.6228 C   0  0  0  0  0  0  0  0  0  0  0  0
  -25.3744  -30.3735   19.4710 C   0  0  0  0  0  0  0  0  0  0  0  0
  -24.9916  -29.5884   21.7236 C   0  0  0  0  0  0  0  0  0  0  0  0
  -21.6552  -17.2619   19.0806 C   0  0  0  0  0  0  0  0  0  0  0  0
  -22.6414  -32.7492   19.1522 C   0  0  0  0  0  0  0  0  0  0  0  0
  -22.6716  -34.0600   18.6765 C   0  0  0  0  0  0  0  0  0  0  0  0
  -23.8042  -17.9785   19.9098 C   0  0  0  0  0  0  0  0  0  0  0  0
  -24.3566  -34.6162   20.3162 C   0  0  0  0  0  0  0  0  0  0  0  0
  -26.2411  -22.1007   20.9725 C   0  0  0  0  0  0  0  0  0  0  0  0
  -26.9566  -28.8743   20.5131 C   0  0  0  0  0  0  0  0  0  0  0  0
  -29.4666  -28.5411   20.8244 C   0  0  0  0  0  0  0  0  0  0  0  0
  -24.5460   -9.0080   21.3548 C   0  0  0  0  0  0  0  0  0  0  0  0
  -23.5975  -15.8294   18.8151 C   0  0  0  0  0  0  0  0  0  0  0  0
  -24.0015  -10.3064   21.3593 C   0  0  0  0  0  0  0  0  0  0  0  0
  -24.3952  -16.7913   19.4513 C   0  0  0  0  0  0  0  0  0  0  0  0
  -24.5918  -30.3499   20.6254 C   0  0  0  0  0  0  0  0  0  0  0  0
  -22.4413  -18.2113   19.7268 C   0  0  0  0  0  0  0  0  0  0  0  0
  -23.4687  -32.3718   20.2100 C   0  0  0  0  0  0  0  0  0  0  0  0
  -23.5292  -34.9935   19.2584 C   0  0  0  0  0  0  0  0  0  0  0  0
  -24.3263  -33.3053   20.7919 C   0  0  0  0  0  0  0  0  0  0  0  0
  -28.1777  -28.1115   20.4554 C   0  0  0  0  0  0  0  0  0  0  0  0
  -27.3147  -22.2864   21.8640 C   0  0  0  0  0  0  0  0  0  0  0  0
  -25.2031  -22.8036   21.5338 C   0  0  0  0  0  0  0  0  0  0  0  0
  -30.2724  -27.4552   20.5838 C   0  0  0  0  0  0  0  0  0  0  0  0
  -29.8969  -29.8083   21.3388 C   0  0  0  0  0  0  0  0  0  0  0  0
  -25.2804  -13.6307   20.3763 C   0  0  0  0  0  0  0  0  0  0  0  0
  -27.7951  -15.1102   18.9587 C   0  0  0  0  0  0  0  0  0  0  0  0
  -29.0970  -21.5683   20.3106 C   0  0  0  0  0  0  0  0  0  0  0  0
  -29.0643  -17.9393   17.5331 C   0  0  0  0  0  0  0  0  0  0  0  0
  -25.9914   -8.7527   21.7016 C   0  0  0  0  0  0  0  0  0  0  0  0
  -24.2085  -14.5586   18.2916 C   0  0  0  0  0  0  0  0  0  0  0  0
  -25.8714  -16.5821   19.6645 C   0  0  0  0  0  0  0  0  0  0  0  0
  -26.8676   -9.9998   21.6167 C   0  0  0  0  0  0  0  0  0  0  0  0
  -30.6353  -23.5977   17.7897 C   0  0  0  0  0  0  0  0  0  0  0  0
  -26.1889  -11.1772   22.3094 C   0  0  0  0  0  0  0  0  0  0  0  0
  -30.2725  -25.0228   18.2054 C   0  0  0  0  0  0  0  0  0  0  0  0
  -29.5101  -22.6189   18.1107 C   0  0  0  0  0  0  0  0  0  0  0  0
  -28.7175  -24.0591   19.9598 C   0  0  0  0  0  0  0  0  0  0  0  0
  -24.8581  -11.5240   21.6310 C   0  0  1  0  0  0  0  0  0  0  0  0
  -25.5078  -14.1849   18.9983 C   0  0  1  0  0  0  0  0  0  0  0  0
  -29.8395  -25.0749   19.6812 C   0  0  2  0  0  0  0  0  0  0  0  0
  -31.1609  -18.8560   16.5031 C   0  0  0  0  0  0  0  0  0  0  0  0
  -28.8044  -20.3482   22.4267 C   0  0  0  0  0  0  0  0  0  0  0  0
  -29.8335  -22.6216   22.3437 C   0  0  0  0  0  0  0  0  0  0  0  0
  -29.0307  -15.3960   21.7339 C   0  0  0  0  0  0  0  0  0  0  0  0
  -30.5948  -17.1053   20.7852 C   0  0  0  0  0  0  0  0  0  0  0  0
  -30.6459  -14.7614   19.9331 C   0  0  0  0  0  0  0  0  0  0  0  0
  -24.9921  -24.1727   23.6354 C   0  0  0  0  0  0  0  0  0  0  0  0
  -23.5909  -23.6524   19.8485 C   0  0  0  0  0  0  0  0  0  0  0  0
  -27.7191  -18.4200   14.9412 C   0  0  0  0  0  0  0  0  0  0  0  0
  -21.9360  -21.5256   21.2245 C   0  0  0  0  0  0  0  0  0  0  0  0
  -22.7667  -22.5776   21.9495 C   0  0  0  0  0  0  0  0  0  0  0  0
  -22.7461  -20.2968   20.8286 C   0  0  0  0  0  0  0  0  0  1  0  0
  -28.7032  -16.2599   19.3230 C   0  0  1  0  0  0  0  0  0  0  0  0
  -29.8344  -18.1591   16.2435 C   0  0  2  0  0  0  0  0  0  0  0  0
  -28.6799  -21.7470   21.7487 C   0  0  0  0  0  0  0  0  0  0  0  0
  -29.7155  -15.8840   20.4416 C   0  0  0  0  0  0  0  0  0  0  0  0
  -28.1610  -26.8511   20.0138 N   0  0  0  0  0  0  0  0  0  0  0  0
  -26.9888  -23.0478   22.9120 N   0  0  0  0  0  0  0  0  0  0  0  0
  -29.4493  -26.4793   20.1037 N   0  0  0  0  0  0  0  0  0  0  0  0
  -25.6988  -23.3467   22.6825 N   0  0  0  0  0  0  0  0  0  0  0  0
  -26.4209  -15.3208   19.1403 N   0  0  0  0  0  0  0  0  0  0  0  0
  -29.1123  -22.7149   19.5163 N   0  0  0  0  0  0  0  0  0  0  0  0
  -31.5976  -27.2494   20.7380 N   0  0  0  0  0  0  0  0  0  0  0  0
  -28.9385  -30.8138   21.5256 N   0  0  0  0  0  0  0  0  0  0  0  0
  -25.0915  -12.2623   20.4083 N   0  0  0  0  0  0  0  0  0  0  0  0
  -29.3242  -16.6997   18.0783 N   0  0  0  0  0  0  0  0  0  0  0  0
  -23.8753  -23.0060   21.1311 N   0  0  3  0  0  0  0  0  0  0  0  0
  -29.0395  -18.9973   15.3020 N   0  3  0  0  0  0  0  0  0  0  0  0
  -31.0983  -30.0475   21.6088 O   0  0  0  0  0  0  0  0  0  0  0  0
  -25.2780  -14.3884   21.3394 O   0  0  0  0  0  0  0  0  0  0  0  0
  -28.2865  -14.0663   18.5221 O   0  0  0  0  0  0  0  0  0  0  0  0
  -29.4025  -20.4428   19.9079 O   0  0  0  0  0  0  0  0  0  0  0  0
  -28.3106  -18.7843   18.0112 O   0  0  0  0  0  0  0  0  0  0  0  0
  -23.4380  -31.0698   20.6806 O   0  0  0  0  0  0  0  0  0  0  0  0
  -21.8819  -19.3680   20.1752 O   0  0  0  0  0  0  0  0  0  1  0  0
  -23.5593  -36.2519   18.8005 F   0  0  0  0  0  0  0  0  0  0  0  0
  -25.1243  -32.9484   21.8076 F   0  0  0  0  0  0  0  0  0  0  0  0
  1  2  1  0  0  0  0
  1  5  2  0  0  0  0
  2  6  2  0  0  0  0
  3  8  2  0  0  0  0
  3 16  1  0  0  0  0
  4  9  1  0  0  0  0
  4 16  2  0  0  0  0
  5 18  1  0  0  0  0
  6 20  1  0  0  0  0
  7 10  2  0  0  0  0
  7 19  1  0  0  0  0
  8 22  1  0  0  0  0
  9 22  2  0  0  0  0
 10 23  1  0  0  0  0
 11 12  2  0  0  0  0
 11 24  1  0  0  0  0
 12 25  1  0  0  0  0
 13 21  1  0  0  0  0
 13 23  2  0  0  0  0
 14 25  2  0  0  0  0
 14 26  1  0  0  0  0
 15 28  1  0  0  0  0
 15 29  2  0  0  0  0
 16 27  1  0  0  0  0
 17 27  1  0  0  0  0
 17 30  2  0  0  0  0
 17 31  1  0  0  0  0
 18 20  2  0  0  0  0
 18 36  1  0  0  0  0
 19 21  2  0  0  0  0
 19 37  1  0  0  0  0
 20 45  1  0  0  0  0
 21 38  1  0  0  0  0
 22 81  1  0  0  0  0
 23 82  1  0  0  0  0
 24 26  2  0  0  0  0
 24 81  1  0  0  0  0
 25 83  1  0  0  0  0
 26 84  1  0  0  0  0
 27 64  2  0  0  0  0
 28 62  1  0  0  0  0
 28 65  2  0  0  0  0
 29 67  1  0  0  0  0
 29 74  1  0  0  0  0
 30 66  1  0  0  0  0
 30 70  1  0  0  0  0
 31 71  1  0  0  0  0
 31 76  2  0  0  0  0
 32 46  1  0  0  0  0
 32 72  1  0  0  0  0
 32 77  2  0  0  0  0
 33 60  1  0  0  0  0
 33 68  1  0  0  0  0
 33 78  2  0  0  0  0
 34 62  1  0  0  0  0
 34 69  1  0  0  0  0
 34 79  2  0  0  0  0
 35 61  1  0  0  0  0
 35 73  1  0  0  0  0
 35 80  2  0  0  0  0
 36 39  1  0  0  0  0
 37 46  1  0  0  0  0
 38 68  1  0  0  0  0
 39 41  1  0  0  0  0
 40 42  1  0  0  0  0
 40 43  1  0  0  0  0
 41 45  1  0  0  0  0
 42 47  1  0  0  0  0
 43 69  1  0  0  0  0
 44 47  1  0  0  0  0
 44 69  1  0  0  0  0
 45 72  1  0  0  0  0
 46 68  1  0  0  0  0
 47 66  1  0  0  0  0
 48 61  1  0  0  0  0
 49 62  1  0  0  0  0
 50 62  1  0  0  0  0
 51 63  1  0  0  0  0
 52 63  1  0  0  0  0
 53 63  1  0  0  0  0
 54 67  1  0  0  0  0
 55 74  1  0  0  0  0
 56 75  1  0  0  0  0
 57 58  1  0  0  0  0
 57 59  1  0  0  0  0
 58 74  1  0  0  0  0
 59 82  1  0  0  0  0
 60 63  1  0  0  0  0
 60 73  1  0  0  0  0
 61 75  1  0  0  0  0
 64 66  1  0  0  0  0
 65 67  1  0  0  0  0
M  CHG  1  75   1
M  ISO  4  34 100  59 101  62 100  82 101
M  END
> <Batch ID>
0017

> <Smiles>
CNC(C)C(=O)NC(C(=O)N1Cc2cc([101O:1][101CH2:1]CCN(C)c3cc([100C:0](C)(C)[100C:0](=O)N4CCCC(n5nc(-c6ccc(Oc7ccc(F)cc7F)cc6)c(C(N)=O)c5N)C4)nn3C)ccc2CC1C(=O)NC1CCCc2ccccc21)C(C)(C)C

> <Shape>
0.233

> <Color>
0.067

> <Negative vol penalty>
0.000

$$$$

  -OEChem-04052316013D

 82 90  0     1  0  0  0  0  0999 V2000
  -16.7100  -30.0166   23.3111 C   0  0  0  0  0  0  0  0  0  0  0  0
  -17.8023  -30.6037   22.6806 C   0  0  0  0  0  0  0  0  0  0  0  0
  -26.1253  -14.0964   21.8774 C   0  0  0  0  0  0  0  0  0  0  0  0
  -24.7838  -15.4146   20.3609 C   0  0  0  0  0  0  0  0  0  0  0  0
  -16.8911  -28.8878   24.1092 C   0  0  0  0  0  0  0  0  0  0  0  0
  -19.0766  -30.0629   22.8487 C   0  0  0  0  0  0  0  0  0  0  0  0
  -25.2558  -29.1387   19.3445 C   0  0  0  0  0  0  0  0  0  0  0  0
  -25.0921  -13.1653   21.9821 C   0  0  0  0  0  0  0  0  0  0  0  0
  -23.7505  -14.4834   20.4656 C   0  0  0  0  0  0  0  0  0  0  0  0
  -26.6231  -29.3667   19.4936 C   0  0  0  0  0  0  0  0  0  0  0  0
  -22.9457  -10.2566   22.3662 C   0  0  0  0  0  0  0  0  0  0  0  0
  -23.2805   -8.9049   22.2880 C   0  0  0  0  0  0  0  0  0  0  0  0
  -26.8044  -27.3677   20.8316 C   0  0  0  0  0  0  0  0  0  0  0  0
  -31.7308  -25.2170   18.0812 C   0  0  0  0  0  0  0  0  0  0  0  0
  -24.1816   -9.2563   20.0740 C   0  0  0  0  0  0  0  0  0  0  0  0
  -25.9712  -15.2212   21.0668 C   0  0  0  0  0  0  0  0  0  0  0  0
  -28.0920  -16.1832   20.0256 C   0  0  0  0  0  0  0  0  0  0  0  0
  -18.1668  -28.3272   24.2794 C   0  0  0  0  0  0  0  0  0  0  0  0
  -24.6495  -28.0275   19.9479 C   0  0  0  0  0  0  0  0  0  0  0  0
  -19.2751  -28.9264   23.6508 C   0  0  0  0  0  0  0  0  0  0  0  0
  -25.4297  -27.1264   20.6865 C   0  0  0  0  0  0  0  0  0  0  0  0
  -31.2633  -24.0447   17.4977 C   0  0  0  0  0  0  0  0  0  0  0  0
  -30.5228  -23.1447   18.2559 C   0  0  0  0  0  0  0  0  0  0  0  0
  -23.9047  -13.3588   21.2762 C   0  0  0  0  0  0  0  0  0  0  0  0
  -27.3971  -28.4827   20.2397 C   0  0  0  0  0  0  0  0  0  0  0  0
  -23.2287  -11.1083   21.2983 C   0  0  0  0  0  0  0  0  0  0  0  0
  -23.8985   -8.4047   21.1419 C   0  0  0  0  0  0  0  0  0  0  0  0
  -23.8467  -10.6081   20.1522 C   0  0  0  0  0  0  0  0  0  0  0  0
  -27.0379  -16.1837   20.9587 C   0  0  0  0  0  0  0  0  0  0  0  0
  -31.4331  -25.4408   19.4157 C   0  0  0  0  0  0  0  0  0  0  0  0
  -30.2793  -23.4611   19.5827 C   0  0  0  0  0  0  0  0  0  0  0  0
  -28.8298  -17.2981   20.3405 C   0  0  0  0  0  0  0  0  0  0  0  0
  -28.3785  -15.2579   18.9685 C   0  0  0  0  0  0  0  0  0  0  0  0
  -22.3871  -27.6236   22.1438 C   0  0  0  0  0  0  0  0  0  0  0  0
  -22.7417  -24.4931   21.3714 C   0  0  0  0  0  0  0  0  0  0  0  0
  -24.7307  -22.0314   20.0944 C   0  0  0  0  0  0  0  0  0  0  0  0
  -29.1746  -22.6842   21.7093 C   0  0  0  0  0  0  0  0  0  0  0  0
  -18.3201  -27.1345   25.1897 C   0  0  0  0  0  0  0  0  0  0  0  0
  -23.1783  -27.7811   19.7553 C   0  0  0  0  0  0  0  0  0  0  0  0
  -24.8307  -25.9075   21.3376 C   0  0  0  0  0  0  0  0  0  0  0  0
  -19.6475  -26.4013   25.0147 C   0  0  0  0  0  0  0  0  0  0  0  0
  -28.6033  -20.3719   24.3558 C   0  0  0  0  0  0  0  0  0  0  0  0
  -20.8048  -27.3942   24.9768 C   0  0  0  0  0  0  0  0  0  0  0  0
  -28.2318  -19.0761   23.6312 C   0  0  0  0  0  0  0  0  0  0  0  0
  -28.0462  -21.6014   23.6405 C   0  0  0  0  0  0  0  0  0  0  0  0
  -28.0123  -20.4003   21.4898 C   0  0  0  0  0  0  0  0  0  0  0  0
  -20.6693  -28.3543   23.7888 C   0  0  1  0  0  0  0  0  0  0  0  0
  -22.5732  -26.8974   20.8416 C   0  0  1  0  0  0  0  0  0  0  0  0
  -28.6061  -19.1386   22.1373 C   0  0  2  0  0  0  0  0  0  0  0  0
  -31.5688  -23.7765   16.0609 C   0  0  0  0  0  0  0  0  0  0  0  0
  -30.0106  -21.8818   17.6457 C   0  0  0  0  0  0  0  0  0  0  0  0
  -24.7594  -19.5660   19.6272 C   0  0  0  0  0  0  0  0  0  0  0  0
  -23.1670  -23.9377   24.3414 C   0  0  0  0  0  0  0  0  0  0  0  0
  -24.1122  -21.7049   23.7171 C   0  0  0  0  0  0  0  0  0  0  0  0
  -21.7440  -22.2552   23.1587 C   0  0  0  0  0  0  0  0  0  0  0  0
  -25.0895  -22.4685   17.1893 C   0  0  0  0  0  0  0  0  0  0  0  0
  -31.9249  -26.7008   20.0821 C   0  0  0  0  0  0  0  0  0  0  0  0
  -30.9460  -27.8727   19.9823 C   0  0  0  0  0  0  0  0  0  0  0  0
  -29.5659  -27.5564   20.5469 C   0  0  0  0  0  0  0  0  0  1  0  0
  -23.6122  -23.3624   21.8641 C   0  0  1  0  0  0  0  0  0  0  0  0
  -24.4580  -20.9475   19.0672 C   0  0  2  0  0  0  0  0  0  0  0  0
  -23.1701  -22.8390   23.2598 C   0  0  0  0  0  0  0  0  0  0  0  0
  -27.0974  -17.2167   21.8033 N   0  0  0  0  0  0  0  0  0  0  0  0
  -30.7168  -24.5900   20.1843 N   0  0  0  0  0  0  0  0  0  0  0  0
  -28.1977  -17.8758   21.4021 N   0  0  0  0  0  0  0  0  0  0  0  0
  -23.3868  -25.7135   21.1255 N   0  0  0  0  0  0  0  0  0  0  0  0
  -28.4447  -21.5953   22.2312 N   0  0  0  0  0  0  0  0  0  0  0  0
  -29.9513  -17.8307   19.8103 N   0  0  0  0  0  0  0  0  0  0  0  0
  -27.5176  -14.1675   18.7835 N   0  0  0  0  0  0  0  0  0  0  0  0
  -29.5258  -22.5522   20.3663 N   0  0  0  0  0  0  0  0  0  0  0  0
  -21.0724  -27.7007   22.5622 N   0  0  0  0  0  0  0  0  0  0  0  0
  -23.5985  -22.3495   20.8142 N   0  0  0  0  0  0  0  0  0  0  0  0
  -25.3005  -21.1578   17.8560 N   0  3  0  0  0  0  0  0  0  0  0  0
  -29.3777  -15.3849   18.2210 O   0  0  0  0  0  0  0  0  0  0  0  0
  -23.3642  -28.0790   22.7266 O   0  0  0  0  0  0  0  0  0  0  0  0
  -21.5352  -24.2987   21.2039 O   0  0  0  0  0  0  0  0  0  0  0  0
  -25.8383  -22.5422   20.2457 O   0  0  0  0  0  0  0  0  0  0  0  0
  -29.4900  -23.6495   22.4099 O   0  0  0  0  0  0  0  0  0  0  0  0
  -22.8964  -12.4502   21.3779 O   0  0  0  0  0  0  0  0  0  0  0  0
  -28.7318  -28.7033   20.3874 O   0  0  0  0  0  0  0  0  0  1  0  0
  -24.2213   -7.1068   21.0675 F   0  0  0  0  0  0  0  0  0  0  0  0
  -24.1222  -11.4216   19.1236 F   0  0  0  0  0  0  0  0  0  0  0  0
  1  2  1  0  0  0  0
  1  5  2  0  0  0  0
  2  6  2  0  0  0  0
  3  8  2  0  0  0  0
  3 16  1  0  0  0  0
  4  9  1  0  0  0  0
  4 16  2  0  0  0  0
  5 18  1  0  0  0  0
  6 20  1  0  0  0  0
  7 10  2  0  0  0  0
  7 19  1  0  0  0  0
  8 24  1  0  0  0  0
  9 24  2  0  0  0  0
 10 25  1  0  0  0  0
 11 12  2  0  0  0  0
 11 26  1  0  0  0  0
 12 27  1  0  0  0  0
 13 21  1  0  0  0  0
 13 25  2  0  0  0  0
 14 22  2  0  0  0  0
 14 30  1  0  0  0  0
 15 27  2  0  0  0  0
 15 28  1  0  0  0  0
 16 29  1  0  0  0  0
 17 29  1  0  0  0  0
 17 32  2  0  0  0  0
 17 33  1  0  0  0  0
 18 20  2  0  0  0  0
 18 38  1  0  0  0  0
 19 21  2  0  0  0  0
 19 39  1  0  0  0  0
 20 47  1  0  0  0  0
 21 40  1  0  0  0  0
 22 23  1  0  0  0  0
 22 50  1  0  0  0  0
 23 31  2  0  0  0  0
 23 51  1  0  0  0  0
 24 79  1  0  0  0  0
 25 80  1  0  0  0  0
 26 28  2  0  0  0  0
 26 79  1  0  0  0  0
 27 81  1  0  0  0  0
 28 82  1  0  0  0  0
 29 63  2  0  0  0  0
 30 57  1  0  0  0  0
 30 64  2  0  0  0  0
 31 64  1  0  0  0  0
 31 70  1  0  0  0  0
 32 65  1  0  0  0  0
 32 68  1  0  0  0  0
 33 69  1  0  0  0  0
 33 74  2  0  0  0  0
 34 48  1  0  0  0  0
 34 71  1  0  0  0  0
 34 75  2  0  0  0  0
 35 60  1  0  0  0  0
 35 66  1  0  0  0  0
 35 76  2  0  0  0  0
 36 61  1  0  0  0  0
 36 72  1  0  0  0  0
 36 77  2  0  0  0  0
 37 67  1  0  0  0  0
 37 70  1  0  0  0  0
 37 78  2  0  0  0  0
 38 41  1  0  0  0  0
 39 48  1  0  0  0  0
 40 66  1  0  0  0  0
 41 43  1  0  0  0  0
 42 44  1  0  0  0  0
 42 45  1  0  0  0  0
 43 47  1  0  0  0  0
 44 49  1  0  0  0  0
 45 67  1  0  0  0  0
 46 49  1  0  0  0  0
 46 67  1  0  0  0  0
 47 71  1  0  0  0  0
 48 66  1  0  0  0  0
 49 65  1  0  0  0  0
 52 61  1  0  0  0  0
 53 62  1  0  0  0  0
 54 62  1  0  0  0  0
 55 62  1  0  0  0  0
 56 73  1  0  0  0  0
 57 58  1  0  0  0  0
 58 59  1  0  0  0  0
 59 80  1  0  0  0  0
 60 62  1  0  0  0  0
 60 72  1  0  0  0  0
 61 73  1  0  0  0  0
 63 65  1  0  0  0  0
M  CHG  1  73   1
M  ISO  4  37 100  59 101  70 100  80 101
M  END
> <Batch ID>
0017

> <Smiles>
CNC(C)C(=O)NC(C(=O)N1Cc2cc([101O:1][101CH2:1]CCc3cc(C)c(C)c([100NH:0][100C:0](=O)N4CCCC(n5nc(-c6ccc(Oc7ccc(F)cc7F)cc6)c(C(N)=O)c5N)C4)n3)ccc2CC1C(=O)NC1CCCc2ccccc21)C(C)(C)C

> <Shape>
0.250

> <Color>
0.086

> <Negative vol penalty>
0.000

$$$$

  -OEChem-04052316013D

 84 92  0     1  0  0  0  0  0999 V2000
  -21.9865  -23.6169   13.9009 C   0  0  0  0  0  0  0  0  0  0  0  0
  -21.9375  -24.6873   14.7882 C   0  0  0  0  0  0  0  0  0  0  0  0
  -22.1155  -16.4836   20.0861 C   0  0  0  0  0  0  0  0  0  0  0  0
  -23.4601  -17.9467   21.4602 C   0  0  0  0  0  0  0  0  0  0  0  0
  -22.7108  -22.4721   14.2309 C   0  0  0  0  0  0  0  0  0  0  0  0
  -22.6119  -24.6131   16.0064 C   0  0  0  0  0  0  0  0  0  0  0  0
  -25.3638  -29.2077   18.9768 C   0  0  0  0  0  0  0  0  0  0  0  0
  -23.2000  -15.6176   19.9468 C   0  0  0  0  0  0  0  0  0  0  0  0
  -24.5447  -17.0807   21.3209 C   0  0  0  0  0  0  0  0  0  0  0  0
  -24.9570  -30.0158   20.0375 C   0  0  0  0  0  0  0  0  0  0  0  0
  -24.7301  -13.2263   21.7835 C   0  0  0  0  0  0  0  0  0  0  0  0
  -24.4930  -11.8604   21.9371 C   0  0  0  0  0  0  0  0  0  0  0  0
  -26.1165  -28.5666   21.5784 C   0  0  0  0  0  0  0  0  0  0  0  0
  -18.3383  -28.0187   22.6893 C   0  0  0  0  0  0  0  0  0  0  0  0
  -25.2705  -11.4718   19.6829 C   0  0  0  0  0  0  0  0  0  0  0  0
  -22.2455  -17.6482   20.8428 C   0  0  0  0  0  0  0  0  0  0  0  0
  -20.1362  -18.5131   21.9874 C   0  0  0  0  0  0  0  0  0  0  0  0
  -23.4023  -22.3877   15.4496 C   0  0  0  0  0  0  0  0  0  0  0  0
  -26.1422  -28.0649   19.2104 C   0  0  0  0  0  0  0  0  0  0  0  0
  -23.3449  -23.4656   16.3536 C   0  0  0  0  0  0  0  0  0  0  0  0
  -26.5340  -27.7470   20.5187 C   0  0  0  0  0  0  0  0  0  0  0  0
  -19.4747  -28.5690   23.2820 C   0  0  0  0  0  0  0  0  0  0  0  0
  -20.7192  -27.9671   23.0961 C   0  0  0  0  0  0  0  0  0  0  0  0
  -20.8273  -26.8148   22.3175 C   0  0  0  0  0  0  0  0  0  0  0  0
  -19.6909  -26.2645   21.7247 C   0  0  0  0  0  0  0  0  0  0  0  0
  -24.4146  -15.9161   20.5642 C   0  0  0  0  0  0  0  0  0  0  0  0
  -25.3309  -29.6937   21.3389 C   0  0  0  0  0  0  0  0  0  0  0  0
  -25.2374  -13.7150   20.5795 C   0  0  0  0  0  0  0  0  0  0  0  0
  -24.7631  -10.9831   20.8869 C   0  0  0  0  0  0  0  0  0  0  0  0
  -25.5076  -12.8377   19.5292 C   0  0  0  0  0  0  0  0  0  0  0  0
  -18.4464  -26.8664   21.9106 C   0  0  0  0  0  0  0  0  0  0  0  0
  -21.1257  -18.5434   20.9866 C   0  0  0  0  0  0  0  0  0  0  0  0
  -19.3064  -19.5641   21.6818 C   0  0  0  0  0  0  0  0  0  0  0  0
  -19.9810  -17.6153   23.0945 C   0  0  0  0  0  0  0  0  0  0  0  0
  -25.7460  -24.9463   18.7401 C   0  0  0  0  0  0  0  0  0  0  0  0
  -28.8378  -24.8028   19.7108 C   0  0  0  0  0  0  0  0  0  0  0  0
  -31.3968  -26.2382   21.4537 C   0  0  0  0  0  0  0  0  0  0  0  0
  -19.4839  -24.9445   19.5890 C   0  0  0  0  0  0  0  0  0  0  0  0
  -24.1329  -21.1110   15.7828 C   0  0  0  0  0  0  0  0  0  0  0  0
  -26.5952  -27.2183   18.0526 C   0  0  0  0  0  0  0  0  0  0  0  0
  -27.3861  -26.5423   20.8207 C   0  0  0  0  0  0  0  0  0  0  0  0
  -25.1276  -21.2603   16.9310 C   0  0  0  0  0  0  0  0  0  0  0  0
  -18.3851  -22.2039   17.5994 C   0  0  0  0  0  0  0  0  0  0  0  0
  -24.4914  -22.0154   18.0937 C   0  0  0  0  0  0  0  0  0  0  0  0
  -18.8823  -20.9766   18.3666 C   0  0  0  0  0  0  0  0  0  0  0  0
  -19.3788  -23.3617   17.6763 C   0  0  0  0  0  0  0  0  0  0  0  0
  -20.2871  -22.5104   19.8022 C   0  0  0  0  0  0  0  0  0  0  0  0
  -24.0837  -23.4328   17.6739 C   0  0  1  0  0  0  0  0  0  0  0  0
  -26.9553  -25.7928   18.4596 C   0  0  1  0  0  0  0  0  0  0  0  0
  -19.2902  -21.3400   19.8079 C   0  0  2  0  0  0  0  0  0  0  0  0
  -19.3313  -29.8039   24.1105 C   0  0  0  0  0  0  0  0  0  0  0  0
  -22.1662  -26.1738   22.1219 C   0  0  0  0  0  0  0  0  0  0  0  0
  -33.7939  -25.8671   22.0970 C   0  0  0  0  0  0  0  0  0  0  0  0
  -23.8368  -30.8988   24.4688 C   0  0  0  0  0  0  0  0  0  0  0  0
  -27.9598  -22.7466   21.7871 C   0  0  0  0  0  0  0  0  0  0  0  0
  -30.1282  -23.1274   22.9792 C   0  0  0  0  0  0  0  0  0  0  0  0
  -30.1271  -22.2247   20.6537 C   0  0  0  0  0  0  0  0  0  0  0  0
  -32.2722  -28.6992   20.0624 C   0  0  0  0  0  0  0  0  0  0  0  0
  -21.9456  -28.5640   23.7389 C   0  0  0  0  0  0  0  0  0  0  0  0
  -22.8456  -29.3326   22.7604 C   0  0  0  0  0  0  0  0  0  0  0  0
  -29.5347  -24.6517   21.0414 C   0  0  1  0  0  0  0  0  0  0  0  0
  -32.8471  -26.4944   21.0857 C   0  0  2  0  0  0  0  0  0  0  0  0
  -24.1383  -29.8673   23.3891 C   0  0  1  0  0  0  0  0  0  1  0  0
  -29.4198  -23.2093   21.6102 C   0  0  0  0  0  0  0  0  0  0  0  0
  -20.9428  -19.5350   20.1105 N   0  0  0  0  0  0  0  0  0  0  0  0
  -19.8288  -20.1374   20.5600 N   0  0  0  0  0  0  0  0  0  0  0  0
  -27.7986  -25.7423   19.6556 N   0  0  0  0  0  0  0  0  0  0  0  0
  -19.7155  -23.6525   19.0716 N   0  0  0  0  0  0  0  0  0  0  0  0
  -18.1882  -20.0444   22.2659 N   0  0  0  0  0  0  0  0  0  0  0  0
  -20.9233  -16.5913   23.2614 N   0  0  0  0  0  0  0  0  0  0  0  0
  -19.8125  -25.0936   20.9360 N   0  0  0  0  0  0  0  0  0  0  0  0
  -25.2419  -24.2992   17.6280 N   0  0  0  0  0  0  0  0  0  0  0  0
  -30.9060  -25.1063   20.8379 N   0  0  0  0  0  0  0  0  0  0  0  0
  -33.1175  -27.9591   21.0343 N   0  3  0  0  0  0  0  0  0  0  0  0
  -19.0256  -17.7081   23.9020 O   0  0  0  0  0  0  0  0  0  0  0  0
  -25.3038  -24.8837   19.8813 O   0  0  0  0  0  0  0  0  0  0  0  0
  -29.2068  -24.1177   18.7536 O   0  0  0  0  0  0  0  0  0  0  0  0
  -30.7639  -26.9670   22.2145 O   0  0  0  0  0  0  0  0  0  0  0  0
  -19.0023  -25.8444   18.8960 O   0  0  0  0  0  0  0  0  0  0  0  0
  -25.4731  -15.0712   20.4287 O   0  0  0  0  0  0  0  0  0  0  0  0
  -24.9347  -30.4805   22.3761 O   0  0  0  0  0  0  0  0  0  1  0  0
  -24.5368   -9.6713   21.0351 F   0  0  0  0  0  0  0  0  0  0  0  0
  -25.9962  -13.3012   18.3706 F   0  0  0  0  0  0  0  0  0  0  0  0
  -17.0112  -26.2205   21.1962 Cl  0  0  0  0  0  0  0  0  0  0  0  0
  1  2  1  0  0  0  0
  1  5  2  0  0  0  0
  2  6  2  0  0  0  0
  3  8  2  0  0  0  0
  3 16  1  0  0  0  0
  4  9  1  0  0  0  0
  4 16  2  0  0  0  0
  5 18  1  0  0  0  0
  6 20  1  0  0  0  0
  7 10  2  0  0  0  0
  7 19  1  0  0  0  0
  8 26  1  0  0  0  0
  9 26  2  0  0  0  0
 10 27  1  0  0  0  0
 11 12  2  0  0  0  0
 11 28  1  0  0  0  0
 12 29  1  0  0  0  0
 13 21  1  0  0  0  0
 13 27  2  0  0  0  0
 14 22  2  0  0  0  0
 14 31  1  0  0  0  0
 15 29  2  0  0  0  0
 15 30  1  0  0  0  0
 16 32  1  0  0  0  0
 17 32  1  0  0  0  0
 17 33  2  0  0  0  0
 17 34  1  0  0  0  0
 18 20  2  0  0  0  0
 18 39  1  0  0  0  0
 19 21  2  0  0  0  0
 19 40  1  0  0  0  0
 20 48  1  0  0  0  0
 21 41  1  0  0  0  0
 22 23  1  0  0  0  0
 22 51  1  0  0  0  0
 23 24  2  0  0  0  0
 23 59  1  0  0  0  0
 24 25  1  0  0  0  0
 24 52  1  0  0  0  0
 25 31  2  0  0  0  0
 25 71  1  0  0  0  0
 26 80  1  0  0  0  0
 27 81  1  0  0  0  0
 28 30  2  0  0  0  0
 28 80  1  0  0  0  0
 29 82  1  0  0  0  0
 30 83  1  0  0  0  0
 31 84  1  0  0  0  0
 32 65  2  0  0  0  0
 33 66  1  0  0  0  0
 33 69  1  0  0  0  0
 34 70  1  0  0  0  0
 34 75  2  0  0  0  0
 35 49  1  0  0  0  0
 35 72  1  0  0  0  0
 35 76  2  0  0  0  0
 36 61  1  0  0  0  0
 36 67  1  0  0  0  0
 36 77  2  0  0  0  0
 37 62  1  0  0  0  0
 37 73  1  0  0  0  0
 37 78  2  0  0  0  0
 38 68  1  0  0  0  0
 38 71  1  0  0  0  0
 38 79  2  0  0  0  0
 39 42  1  0  0  0  0
 40 49  1  0  0  0  0
 41 67  1  0  0  0  0
 42 44  1  0  0  0  0
 43 45  1  0  0  0  0
 43 46  1  0  0  0  0
 44 48  1  0  0  0  0
 45 50  1  0  0  0  0
 46 68  1  0  0  0  0
 47 50  1  0  0  0  0
 47 68  1  0  0  0  0
 48 72  1  0  0  0  0
 49 67  1  0  0  0  0
 50 66  1  0  0  0  0
 53 62  1  0  0  0  0
 54 63  1  0  0  0  0
 55 64  1  0  0  0  0
 56 64  1  0  0  0  0
 57 64  1  0  0  0  0
 58 74  1  0  0  0  0
 59 60  1  0  0  0  0
 60 63  1  0  0  0  0
 61 64  1  0  0  0  0
 61 73  1  0  0  0  0
 62 74  1  0  0  0  0
 63 81  1  0  0  0  0
 65 66  1  0  0  0  0
M  CHG  1  74   1
M  ISO  4  38 100  63 101  71 100  81 101
M  END
> <Batch ID>
0017

> <Smiles>
CNC(C)C(=O)NC(C(=O)N1Cc2cc([101O:1][101CH:1](C)CCc3c(C)cc(Cl)c([100NH:0][100C:0](=O)N4CCCC(n5nc(-c6ccc(Oc7ccc(F)cc7F)cc6)c(C(N)=O)c5N)C4)c3C)ccc2CC1C(=O)NC1CCCc2ccccc21)C(C)(C)C

> <Shape>
0.195

> <Color>
0.074

> <Negative vol penalty>
0.000

$$$$

  -OEChem-04052316013D

 81 89  0     1  0  0  0  0  0999 V2000
  -23.2758  -26.4751   20.6480 C   0  0  0  0  0  0  0  0  0  0  0  0
  -24.3180  -25.5606   20.7616 C   0  0  0  0  0  0  0  0  0  0  0  0
  -23.0466   -9.7892   19.9796 C   0  0  0  0  0  0  0  0  0  0  0  0
  -23.7406   -9.8969   22.2913 C   0  0  0  0  0  0  0  0  0  0  0  0
  -23.5532  -27.8201   20.4074 C   0  0  0  0  0  0  0  0  0  0  0  0
  -25.6383  -25.9904   20.6336 C   0  0  0  0  0  0  0  0  0  0  0  0
  -28.6717  -24.0324   24.1846 C   0  0  0  0  0  0  0  0  0  0  0  0
  -22.3000   -8.6442   20.2571 C   0  0  0  0  0  0  0  0  0  0  0  0
  -22.9939   -8.7519   22.5688 C   0  0  0  0  0  0  0  0  0  0  0  0
  -29.0912  -22.7147   24.0077 C   0  0  0  0  0  0  0  0  0  0  0  0
  -23.3123   -5.4107   22.1616 C   0  0  0  0  0  0  0  0  0  0  0  0
  -23.9106   -4.4197   22.9397 C   0  0  0  0  0  0  0  0  0  0  0  0
  -31.2070  -23.5079   23.1631 C   0  0  0  0  0  0  0  0  0  0  0  0
  -32.2908  -17.2544   23.9199 C   0  0  0  0  0  0  0  0  0  0  0  0
  -22.1605   -4.6574   24.5883 C   0  0  0  0  0  0  0  0  0  0  0  0
  -23.7670  -10.4156   20.9967 C   0  0  0  0  0  0  0  0  0  0  0  0
  -24.1033  -12.9349   20.7793 C   0  0  0  0  0  0  0  0  0  0  0  0
  -24.8780  -28.2683   20.2860 C   0  0  0  0  0  0  0  0  0  0  0  0
  -29.5140  -25.0997   23.8413 C   0  0  0  0  0  0  0  0  0  0  0  0
  -25.9337  -27.3425   20.3899 C   0  0  0  0  0  0  0  0  0  0  0  0
  -30.7968  -24.8383   23.3390 C   0  0  0  0  0  0  0  0  0  0  0  0
  -31.6745  -18.4887   24.1256 C   0  0  0  0  0  0  0  0  0  0  0  0
  -30.4966  -18.8018   23.4474 C   0  0  0  0  0  0  0  0  0  0  0  0
  -30.5512  -16.6463   22.3574 C   0  0  0  0  0  0  0  0  0  0  0  0
  -22.2736   -8.1255   21.5517 C   0  0  0  0  0  0  0  0  0  0  0  0
  -30.3579  -22.4522   23.4942 C   0  0  0  0  0  0  0  0  0  0  0  0
  -22.1381   -6.0252   22.5969 C   0  0  0  0  0  0  0  0  0  0  0  0
  -23.3347   -4.0430   24.1530 C   0  0  0  0  0  0  0  0  0  0  0  0
  -21.5622   -5.6485   23.8102 C   0  0  0  0  0  0  0  0  0  0  0  0
  -31.7292  -16.3332   23.0357 C   0  0  0  0  0  0  0  0  0  0  0  0
  -29.9349  -17.8806   22.5632 C   0  0  0  0  0  0  0  0  0  0  0  0
  -24.5390  -11.5981   20.7106 C   0  0  0  0  0  0  0  0  0  0  0  0
  -25.2028  -13.6735   20.4156 C   0  0  0  0  0  0  0  0  0  0  0  0
  -22.8196  -13.4621   21.1396 C   0  0  0  0  0  0  0  0  0  0  0  0
  -29.3609  -27.4990   21.7620 C   0  0  0  0  0  0  0  0  0  0  0  0
  -32.0970  -28.4336   23.2324 C   0  0  0  0  0  0  0  0  0  0  0  0
  -34.8421  -27.5680   25.0660 C   0  0  0  0  0  0  0  0  0  0  0  0
  -30.6580  -14.7513   20.7010 C   0  0  0  0  0  0  0  0  0  0  0  0
  -25.1266  -29.7238   19.9790 C   0  0  0  0  0  0  0  0  0  0  0  0
  -29.0568  -26.5153   24.0633 C   0  0  0  0  0  0  0  0  0  0  0  0
  -31.7469  -25.9485   22.9740 C   0  0  0  0  0  0  0  0  0  0  0  0
  -26.5675  -30.1615   20.2291 C   0  0  0  0  0  0  0  0  0  0  0  0
  -29.6202  -12.2341   18.4067 C   0  0  0  0  0  0  0  0  0  0  0  0
  -27.5433  -29.1532   19.6308 C   0  0  0  0  0  0  0  0  0  0  0  0
  -28.1699  -11.9542   18.8072 C   0  0  0  0  0  0  0  0  0  0  0  0
  -30.4998  -12.5179   19.6231 C   0  0  0  0  0  0  0  0  0  0  0  0
  -28.5516  -13.2912   20.9176 C   0  0  0  0  0  0  0  0  0  0  0  0
  -27.3800  -27.7744   20.2817 C   0  0  1  0  0  0  0  0  0  0  0  0
  -29.8023  -27.5267   23.1979 C   0  0  1  0  0  0  0  0  0  0  0  0
  -27.6135  -13.0637   19.7210 C   0  0  2  0  0  0  0  0  0  0  0  0
  -32.2986  -19.4566   25.0776 C   0  0  0  0  0  0  0  0  0  0  0  0
  -36.9191  -28.5423   26.0829 C   0  0  0  0  0  0  0  0  0  0  0  0
  -33.3967  -28.5364   20.4737 C   0  0  0  0  0  0  0  0  0  0  0  0
  -35.6303  -28.5720   21.6041 C   0  0  0  0  0  0  0  0  0  0  0  0
  -34.0107  -30.4301   21.9874 C   0  0  0  0  0  0  0  0  0  0  0  0
  -33.9973  -26.8128   27.8000 C   0  0  0  0  0  0  0  0  0  0  0  0
  -29.8525  -20.1361   23.6841 C   0  0  0  0  0  0  0  0  0  1  0  0
  -33.5681  -28.1667   23.0232 C   0  0  1  0  0  0  0  0  0  0  0  0
  -35.4585  -28.1841   26.3089 C   0  0  2  0  0  0  0  0  0  0  0  0
  -34.1331  -28.9052   21.7771 C   0  0  0  0  0  0  0  0  0  0  0  0
  -25.8156  -11.4905   20.3328 N   0  0  0  0  0  0  0  0  0  0  0  0
  -26.1915  -12.7693   20.1608 N   0  0  0  0  0  0  0  0  0  0  0  0
  -31.2513  -27.3157   23.2033 N   0  0  0  0  0  0  0  0  0  0  0  0
  -29.9124  -13.5823   20.4396 N   0  0  0  0  0  0  0  0  0  0  0  0
  -25.4105  -15.0016   20.2921 N   0  0  0  0  0  0  0  0  0  0  0  0
  -21.8016  -12.5632   21.4863 N   0  0  0  0  0  0  0  0  0  0  0  0
  -29.9843  -15.7071   21.4606 N   0  0  0  0  0  0  0  0  0  0  0  0
  -28.0142  -27.7512   21.5824 N   0  0  0  0  0  0  0  0  0  0  0  0
  -34.2287  -28.5171   24.2759 N   0  0  0  0  0  0  0  0  0  0  0  0
  -35.3796  -27.2320   27.4526 N   0  3  0  0  0  0  0  0  0  0  0  0
  -22.5775  -14.6929   21.1379 O   0  0  0  0  0  0  0  0  0  0  0  0
  -30.1816  -27.2674   20.8819 O   0  0  0  0  0  0  0  0  0  0  0  0
  -31.7133  -29.5906   23.4219 O   0  0  0  0  0  0  0  0  0  0  0  0
  -34.9023  -26.3656   24.8186 O   0  0  0  0  0  0  0  0  0  0  0  0
  -31.7994  -14.9054   20.2589 O   0  0  0  0  0  0  0  0  0  0  0  0
  -21.5449   -7.0084   21.8229 O   0  0  0  0  0  0  0  0  0  0  0  0
  -30.7696  -21.1669   23.3199 O   0  0  0  0  0  0  0  0  0  1  0  0
  -23.9085   -3.0901   24.8993 F   0  0  0  0  0  0  0  0  0  0  0  0
  -20.4336   -6.2344   24.2330 F   0  0  0  0  0  0  0  0  0  0  0  0
  -32.5306  -14.8177   22.8149 Cl  0  0  0  0  0  0  0  0  0  0  0  0
  -28.4693  -18.2783   21.7231 Cl  0  0  0  0  0  0  0  0  0  0  0  0
  1  2  1  0  0  0  0
  1  5  2  0  0  0  0
  2  6  2  0  0  0  0
  3  8  2  0  0  0  0
  3 16  1  0  0  0  0
  4  9  1  0  0  0  0
  4 16  2  0  0  0  0
  5 18  1  0  0  0  0
  6 20  1  0  0  0  0
  7 10  2  0  0  0  0
  7 19  1  0  0  0  0
  8 25  1  0  0  0  0
  9 25  2  0  0  0  0
 10 26  1  0  0  0  0
 11 12  2  0  0  0  0
 11 27  1  0  0  0  0
 12 28  1  0  0  0  0
 13 21  1  0  0  0  0
 13 26  2  0  0  0  0
 14 22  2  0  0  0  0
 14 30  1  0  0  0  0
 15 28  2  0  0  0  0
 15 29  1  0  0  0  0
 16 32  1  0  0  0  0
 17 32  1  0  0  0  0
 17 33  2  0  0  0  0
 17 34  1  0  0  0  0
 18 20  2  0  0  0  0
 18 39  1  0  0  0  0
 19 21  2  0  0  0  0
 19 40  1  0  0  0  0
 20 48  1  0  0  0  0
 21 41  1  0  0  0  0
 22 23  1  0  0  0  0
 22 51  1  0  0  0  0
 23 31  2  0  0  0  0
 23 57  1  0  0  0  0
 24 30  2  0  0  0  0
 24 31  1  0  0  0  0
 24 67  1  0  0  0  0
 25 76  1  0  0  0  0
 26 77  1  0  0  0  0
 27 29  2  0  0  0  0
 27 76  1  0  0  0  0
 28 78  1  0  0  0  0
 29 79  1  0  0  0  0
 30 80  1  0  0  0  0
 31 81  1  0  0  0  0
 32 61  2  0  0  0  0
 33 62  1  0  0  0  0
 33 65  1  0  0  0  0
 34 66  1  0  0  0  0
 34 71  2  0  0  0  0
 35 49  1  0  0  0  0
 35 68  1  0  0  0  0
 35 72  2  0  0  0  0
 36 58  1  0  0  0  0
 36 63  1  0  0  0  0
 36 73  2  0  0  0  0
 37 59  1  0  0  0  0
 37 69  1  0  0  0  0
 37 74  2  0  0  0  0
 38 64  1  0  0  0  0
 38 67  1  0  0  0  0
 38 75  2  0  0  0  0
 39 42  1  0  0  0  0
 40 49  1  0  0  0  0
 41 63  1  0  0  0  0
 42 44  1  0  0  0  0
 43 45  1  0  0  0  0
 43 46  1  0  0  0  0
 44 48  1  0  0  0  0
 45 50  1  0  0  0  0
 46 64  1  0  0  0  0
 47 50  1  0  0  0  0
 47 64  1  0  0  0  0
 48 68  1  0  0  0  0
 49 63  1  0  0  0  0
 50 62  1  0  0  0  0
 52 59  1  0  0  0  0
 53 60  1  0  0  0  0
 54 60  1  0  0  0  0
 55 60  1  0  0  0  0
 56 70  1  0  0  0  0
 57 77  1  0  0  0  0
 58 60  1  0  0  0  0
 58 69  1  0  0  0  0
 59 70  1  0  0  0  0
 61 62  1  0  0  0  0
M  CHG  1  70   1
M  ISO  4  38 100  57 101  67 100  77 101
M  END
> <Batch ID>
0017

> <Smiles>
CNC(C)C(=O)NC(C(=O)N1Cc2cc([101O:1][101CH2:1]c3c(C)cc(Cl)c([100NH:0][100C:0](=O)N4CCCC(n5nc(-c6ccc(Oc7ccc(F)cc7F)cc6)c(C(N)=O)c5N)C4)c3Cl)ccc2CC1C(=O)NC1CCCc2ccccc21)C(C)(C)C

> <Shape>
0.244

> <Color>
0.226

> <Negative vol penalty>
0.000

$$$$

  -OEChem-04052316013D

 85 93  0     1  0  0  0  0  0999 V2000
  -28.5326  -33.7337   24.7717 C   0  0  0  0  0  0  0  0  0  0  0  0
  -28.9268  -32.4942   25.2653 C   0  0  0  0  0  0  0  0  0  0  0  0
  -23.0756   -9.8700   19.9388 C   0  0  0  0  0  0  0  0  0  0  0  0
  -23.8348   -9.8746   22.2324 C   0  0  0  0  0  0  0  0  0  0  0  0
  -27.3805  -33.8386   23.9936 C   0  0  0  0  0  0  0  0  0  0  0  0
  -28.1684  -31.3589   24.9819 C   0  0  0  0  0  0  0  0  0  0  0  0
  -30.2524  -25.6730   24.0687 C   0  0  0  0  0  0  0  0  0  0  0  0
  -22.3311   -8.7170   20.1875 C   0  0  0  0  0  0  0  0  0  0  0  0
  -23.0902   -8.7216   22.4812 C   0  0  0  0  0  0  0  0  0  0  0  0
  -30.3414  -24.5610   24.9050 C   0  0  0  0  0  0  0  0  0  0  0  0
  -19.8615   -7.9249   23.0820 C   0  0  0  0  0  0  0  0  0  0  0  0
  -19.1042   -7.8843   24.2527 C   0  0  0  0  0  0  0  0  0  0  0  0
  -28.2500  -23.7405   24.0264 C   0  0  0  0  0  0  0  0  0  0  0  0
  -30.1522  -19.2221   20.3416 C   0  0  0  0  0  0  0  0  0  0  0  0
  -20.3444   -5.9456   24.9878 C   0  0  0  0  0  0  0  0  0  0  0  0
  -23.8275  -10.4488   20.9612 C   0  0  0  0  0  0  0  0  0  0  0  0
  -24.1706  -12.9739   20.8435 C   0  0  0  0  0  0  0  0  0  0  0  0
  -26.6129  -32.7024   23.6925 C   0  0  0  0  0  0  0  0  0  0  0  0
  -29.1543  -25.8328   23.2114 C   0  0  0  0  0  0  0  0  0  0  0  0
  -27.0042  -31.4488   24.2001 C   0  0  0  0  0  0  0  0  0  0  0  0
  -28.1507  -24.8541   23.1784 C   0  0  0  0  0  0  0  0  0  0  0  0
  -29.9844  -17.8375   20.3354 C   0  0  0  0  0  0  0  0  0  0  0  0
  -30.6915  -17.7414   22.6436 C   0  0  0  0  0  0  0  0  0  0  0  0
  -30.8593  -19.1261   22.6498 C   0  0  0  0  0  0  0  0  0  0  0  0
  -30.2540  -17.0971   21.4864 C   0  0  0  0  0  0  0  0  0  0  0  0
  -22.3384   -8.1428   21.4587 C   0  0  0  0  0  0  0  0  0  0  0  0
  -29.3387  -23.5960   24.8860 C   0  0  0  0  0  0  0  0  0  0  0  0
  -20.8602   -6.9758   22.8642 C   0  0  0  0  0  0  0  0  0  0  0  0
  -19.3456   -6.8947   25.2056 C   0  0  0  0  0  0  0  0  0  0  0  0
  -21.1017   -5.9862   23.8171 C   0  0  0  0  0  0  0  0  0  0  0  0
  -30.5897  -19.8665   21.4988 C   0  0  0  0  0  0  0  0  0  0  0  0
  -24.5973  -11.6395   20.7048 C   0  0  0  0  0  0  0  0  0  0  0  0
  -25.2633  -13.7232   20.4812 C   0  0  0  0  0  0  0  0  0  0  0  0
  -22.9003  -13.4900   21.2625 C   0  0  0  0  0  0  0  0  0  0  0  0
  -26.8398  -27.9906   22.9092 C   0  0  0  0  0  0  0  0  0  0  0  0
  -26.1005  -26.2559   20.2698 C   0  0  0  0  0  0  0  0  0  0  0  0
  -26.2535  -23.2662   18.6312 C   0  0  0  0  0  0  0  0  0  0  0  0
  -30.7299  -14.7659   20.6585 C   0  0  0  0  0  0  0  0  0  0  0  0
  -25.3493  -32.8727   22.8868 C   0  0  0  0  0  0  0  0  0  0  0  0
  -29.0864  -27.0246   22.2963 C   0  0  0  0  0  0  0  0  0  0  0  0
  -26.9612  -24.9686   22.2617 C   0  0  0  0  0  0  0  0  0  0  0  0
  -24.8073  -31.5631   22.3199 C   0  0  0  0  0  0  0  0  0  0  0  0
  -29.6150  -12.3547   18.2878 C   0  0  0  0  0  0  0  0  0  0  0  0
  -24.8011  -30.4789   23.3929 C   0  0  0  0  0  0  0  0  0  0  0  0
  -28.1751  -12.0635   18.7167 C   0  0  0  0  0  0  0  0  0  0  0  0
  -30.5299  -12.5820   19.4899 C   0  0  0  0  0  0  0  0  0  0  0  0
  -28.6229  -13.3062   20.8712 C   0  0  0  0  0  0  0  0  0  0  0  0
  -26.2215  -30.1904   23.8937 C   0  0  1  0  0  0  0  0  0  0  0  0
  -27.6677  -27.3437   21.8350 C   0  0  1  0  0  0  0  0  0  0  0  0
  -27.6503  -13.1344   19.6930 C   0  0  2  0  0  0  0  0  0  0  0  0
  -29.5144  -17.1757   19.0804 C   0  0  0  0  0  0  0  0  0  0  0  0
  -30.9816  -16.9491   23.8806 C   0  0  0  0  0  0  0  0  0  0  0  0
  -25.5257  -22.1441   16.5079 C   0  0  0  0  0  0  0  0  0  0  0  0
  -29.7989  -20.0864   27.3267 C   0  0  0  0  0  0  0  0  0  0  0  0
  -23.2588  -26.0411   21.3602 C   0  0  0  0  0  0  0  0  0  0  0  0
  -22.8543  -24.1725   19.7437 C   0  0  0  0  0  0  0  0  0  0  0  0
  -23.4029  -26.4542   18.8979 C   0  0  0  0  0  0  0  0  0  0  0  0
  -29.0489  -22.7361   17.8166 C   0  0  0  0  0  0  0  0  0  0  0  0
  -31.3304  -19.8065   23.9013 C   0  0  0  0  0  0  0  0  0  0  0  0
  -30.7310  -22.0488   26.0364 C   0  0  0  0  0  0  0  0  0  1  0  0
  -25.2150  -25.0667   19.9855 C   0  0  1  0  0  0  0  0  0  0  0  0
  -26.6345  -22.9184   17.2035 C   0  0  2  0  0  0  0  0  0  0  0  0
  -30.7332  -20.5348   26.2147 C   0  0  2  0  0  0  0  0  0  0  0  0
  -23.7041  -25.4321   20.0156 C   0  0  0  0  0  0  0  0  0  0  0  0
  -25.8622  -11.5434   20.2868 N   0  0  0  0  0  0  0  0  0  0  0  0
  -26.2398  -12.8269   20.1597 N   0  0  0  0  0  0  0  0  0  0  0  0
  -26.9371  -26.1552   21.3904 N   0  0  0  0  0  0  0  0  0  0  0  0
  -29.9711  -13.6123   20.3680 N   0  0  0  0  0  0  0  0  0  0  0  0
  -25.4743  -15.0546   20.4094 N   0  0  0  0  0  0  0  0  0  0  0  0
  -21.8878  -12.5810   21.5987 N   0  0  0  0  0  0  0  0  0  0  0  0
  -30.0828  -15.6905   21.4775 N   0  0  0  0  0  0  0  0  0  0  0  0
  -26.9363  -29.3687   22.9407 N   0  0  0  0  0  0  0  0  0  0  0  0
  -25.6707  -24.5130   18.7150 N   0  0  0  0  0  0  0  0  0  0  0  0
  -27.8712  -22.0870   17.1852 N   0  3  0  0  0  0  0  0  0  0  0  0
  -30.2751  -19.9075   24.9412 N   0  3  0  0  0  0  0  0  0  0  0  0
  -22.6646  -14.7207   21.3209 O   0  0  0  0  0  0  0  0  0  0  0  0
  -26.1625  -27.2912   23.6534 O   0  0  0  0  0  0  0  0  0  0  0  0
  -26.0567  -27.2351   19.5210 O   0  0  0  0  0  0  0  0  0  0  0  0
  -26.4497  -22.5062   19.5770 O   0  0  0  0  0  0  0  0  0  0  0  0
  -31.8592  -14.9345   20.1913 O   0  0  0  0  0  0  0  0  0  0  0  0
  -21.6118   -7.0179   21.7019 O   0  0  0  0  0  0  0  0  0  0  0  0
  -29.4228  -22.5100   25.7017 O   0  0  0  0  0  0  0  0  0  1  0  0
  -18.6193   -6.8568   26.3304 F   0  0  0  0  0  0  0  0  0  0  0  0
  -22.0606   -5.0724   23.6140 F   0  0  0  0  0  0  0  0  0  0  0  0
  -30.7847  -21.5818   21.4650 Cl  0  0  0  0  0  0  0  0  0  0  0  0
  1  2  1  0  0  0  0
  1  5  2  0  0  0  0
  2  6  2  0  0  0  0
  3  8  2  0  0  0  0
  3 16  1  0  0  0  0
  4  9  1  0  0  0  0
  4 16  2  0  0  0  0
  5 18  1  0  0  0  0
  6 20  1  0  0  0  0
  7 10  2  0  0  0  0
  7 19  1  0  0  0  0
  8 26  1  0  0  0  0
  9 26  2  0  0  0  0
 10 27  1  0  0  0  0
 11 12  2  0  0  0  0
 11 28  1  0  0  0  0
 12 29  1  0  0  0  0
 13 21  1  0  0  0  0
 13 27  2  0  0  0  0
 14 22  1  0  0  0  0
 14 31  2  0  0  0  0
 15 29  2  0  0  0  0
 15 30  1  0  0  0  0
 16 32  1  0  0  0  0
 17 32  1  0  0  0  0
 17 33  2  0  0  0  0
 17 34  1  0  0  0  0
 18 20  2  0  0  0  0
 18 39  1  0  0  0  0
 19 21  2  0  0  0  0
 19 40  1  0  0  0  0
 20 48  1  0  0  0  0
 21 41  1  0  0  0  0
 22 25  2  0  0  0  0
 22 51  1  0  0  0  0
 23 24  2  0  0  0  0
 23 25  1  0  0  0  0
 23 52  1  0  0  0  0
 24 31  1  0  0  0  0
 24 59  1  0  0  0  0
 25 71  1  0  0  0  0
 26 81  1  0  0  0  0
 27 82  1  0  0  0  0
 28 30  2  0  0  0  0
 28 81  1  0  0  0  0
 29 83  1  0  0  0  0
 30 84  1  0  0  0  0
 31 85  1  0  0  0  0
 32 65  2  0  0  0  0
 33 66  1  0  0  0  0
 33 69  1  0  0  0  0
 34 70  1  0  0  0  0
 34 76  2  0  0  0  0
 35 49  1  0  0  0  0
 35 72  1  0  0  0  0
 35 77  2  0  0  0  0
 36 61  1  0  0  0  0
 36 67  1  0  0  0  0
 36 78  2  0  0  0  0
 37 62  1  0  0  0  0
 37 73  1  0  0  0  0
 37 79  2  0  0  0  0
 38 68  1  0  0  0  0
 38 71  1  0  0  0  0
 38 80  2  0  0  0  0
 39 42  1  0  0  0  0
 40 49  1  0  0  0  0
 41 67  1  0  0  0  0
 42 44  1  0  0  0  0
 43 45  1  0  0  0  0
 43 46  1  0  0  0  0
 44 48  1  0  0  0  0
 45 50  1  0  0  0  0
 46 68  1  0  0  0  0
 47 50  1  0  0  0  0
 47 68  1  0  0  0  0
 48 72  1  0  0  0  0
 49 67  1  0  0  0  0
 50 66  1  0  0  0  0
 53 62  1  0  0  0  0
 54 63  1  0  0  0  0
 55 64  1  0  0  0  0
 56 64  1  0  0  0  0
 57 64  1  0  0  0  0
 58 74  1  0  0  0  0
 59 75  1  0  0  0  0
 60 63  1  0  0  0  0
 60 82  1  0  0  0  0
 61 64  1  0  0  0  0
 61 73  1  0  0  0  0
 62 74  1  0  0  0  0
 63 75  1  0  0  0  0
 65 66  1  0  0  0  0
M  CHG  2  74   1  75   1
M  ISO  4  38 100  60 101  71 100  82 101
M  END
> <Batch ID>
0017

> <Smiles>
CNC(C)C(=O)NC(C(=O)N1Cc2cc([101O:1][101CH2:1]C(C)NCc3c(Cl)cc(C)c([100NH:0][100C:0](=O)N4CCCC(n5nc(-c6ccc(Oc7ccc(F)cc7F)cc6)c(C(N)=O)c5N)C4)c3C)ccc2CC1C(=O)NC1CCCc2ccccc21)C(C)(C)C

> <Shape>
0.290

> <Color>
0.192

> <Negative vol penalty>
0.000

$$$$

  -OEChem-04052316013D

 78 86  0     1  0  0  0  0  0999 V2000
  -27.5411  -33.8620   26.0001 C   0  0  0  0  0  0  0  0  0  0  0  0
  -27.8112  -32.6816   25.3152 C   0  0  0  0  0  0  0  0  0  0  0  0
  -25.1739  -13.1732   19.7557 C   0  0  0  0  0  0  0  0  0  0  0  0
  -25.3310  -13.9366   22.0426 C   0  0  0  0  0  0  0  0  0  0  0  0
  -26.2410  -34.1419   26.4186 C   0  0  0  0  0  0  0  0  0  0  0  0
  -26.7813  -31.7798   25.0494 C   0  0  0  0  0  0  0  0  0  0  0  0
  -26.9104  -30.0282   20.2996 C   0  0  0  0  0  0  0  0  0  0  0  0
  -25.0512  -11.8578   20.2031 C   0  0  0  0  0  0  0  0  0  0  0  0
  -25.2083  -12.6211   22.4900 C   0  0  0  0  0  0  0  0  0  0  0  0
  -27.8451  -29.0343   20.0127 C   0  0  0  0  0  0  0  0  0  0  0  0
  -24.3342   -8.3370   20.7554 C   0  0  0  0  0  0  0  0  0  0  0  0
  -23.3535   -7.5401   20.1651 C   0  0  0  0  0  0  0  0  0  0  0  0
  -26.1137  -27.3638   20.1889 C   0  0  0  0  0  0  0  0  0  0  0  0
  -21.6509   -9.0846   20.9087 C   0  0  0  0  0  0  0  0  0  0  0  0
  -25.3139  -14.2126   20.6754 C   0  0  0  0  0  0  0  0  0  0  0  0
  -24.4011  -16.4906   19.9787 C   0  0  0  0  0  0  0  0  0  0  0  0
  -25.1929  -33.2476   26.1494 C   0  0  0  0  0  0  0  0  0  0  0  0
  -25.5703  -29.6957   20.5445 C   0  0  0  0  0  0  0  0  0  0  0  0
  -25.4662  -32.0474   25.4659 C   0  0  0  0  0  0  0  0  0  0  0  0
  -25.1635  -28.3556   20.4761 C   0  0  0  0  0  0  0  0  0  0  0  0
  -25.0683  -11.5818   21.5703 C   0  0  0  0  0  0  0  0  0  0  0  0
  -27.4473  -27.7015   19.9601 C   0  0  0  0  0  0  0  0  0  0  0  0
  -23.9734   -9.5078   21.4224 C   0  0  0  0  0  0  0  0  0  0  0  0
  -22.0118   -7.9139   20.2417 C   0  0  0  0  0  0  0  0  0  0  0  0
  -22.6317   -9.8816   21.4990 C   0  0  0  0  0  0  0  0  0  0  0  0
  -25.4413  -15.5716   20.2138 C   0  0  0  0  0  0  0  0  0  0  0  0
  -28.5014  -25.3704   21.8082 C   0  0  0  0  0  0  0  0  0  0  0  0
  -25.0394  -17.6306   19.5552 C   0  0  0  0  0  0  0  0  0  0  0  0
  -28.3366  -25.5845   20.4599 C   0  0  0  0  0  0  0  0  0  1  0  0
  -28.1630  -23.4461   20.9637 C   0  0  0  0  0  0  0  0  0  0  0  0
  -22.9846  -16.3282   20.1297 C   0  0  0  0  0  0  0  0  0  0  0  0
  -23.5989  -30.0032   23.0189 C   0  0  0  0  0  0  0  0  0  0  0  0
  -29.1835  -21.3403   20.1504 C   0  0  0  0  0  0  0  0  0  0  0  0
  -21.4013  -28.8924   20.9074 C   0  0  0  0  0  0  0  0  0  0  0  0
  -20.7534  -27.1250   18.0607 C   0  0  0  0  0  0  0  0  0  0  0  0
  -23.8124  -33.5713   26.6632 C   0  0  0  0  0  0  0  0  0  0  0  0
  -24.5691  -30.7823   20.8263 C   0  0  0  0  0  0  0  0  0  0  0  0
  -23.7327  -27.9482   20.7112 C   0  0  0  0  0  0  0  0  0  0  0  0
  -22.7100  -32.7390   26.0134 C   0  0  0  0  0  0  0  0  0  0  0  0
  -29.8383  -18.4136   18.1894 C   0  0  0  0  0  0  0  0  0  0  0  0
  -23.1050  -31.2661   25.9758 C   0  0  0  0  0  0  0  0  0  0  0  0
  -28.6839  -17.4775   18.5450 C   0  0  0  0  0  0  0  0  0  0  0  0
  -30.2672  -19.2520   19.3894 C   0  0  0  0  0  0  0  0  0  0  0  0
  -28.0007  -19.0988   20.3698 C   0  0  0  0  0  0  0  0  0  0  0  0
  -24.3713  -31.0558   25.1370 C   0  0  1  0  0  0  0  0  0  0  0  0
  -23.3334  -30.2790   21.5660 C   0  0  1  0  0  0  0  0  0  0  0  0
  -27.5162  -18.2554   19.1772 C   0  0  2  0  0  0  0  0  0  0  0  0
  -28.7621  -26.3601   22.8652 C   0  0  0  0  0  0  0  0  0  0  0  0
  -18.8572  -26.3579   16.6070 C   0  0  0  0  0  0  0  0  0  0  0  0
  -20.7037  -26.7417   22.9563 C   0  0  0  0  0  0  0  0  0  0  0  0
  -19.5408  -25.4803   21.1329 C   0  0  0  0  0  0  0  0  0  0  0  0
  -18.7344  -27.7480   21.7885 C   0  0  0  0  0  0  0  0  0  0  0  0
  -27.8902  -24.0366   18.5389 C   0  0  0  0  0  0  0  0  0  0  0  0
  -21.7892  -28.6158   15.7234 C   0  0  0  0  0  0  0  0  0  0  0  0
  -27.9684  -21.9965   20.7561 C   0  0  0  0  0  0  0  0  0  0  0  0
  -20.9010  -27.5263   20.5044 C   0  0  1  0  0  0  0  0  0  0  0  0
  -19.8936  -27.4437   16.8509 C   0  0  2  0  0  0  0  0  0  0  0  0
  -19.9974  -26.8812   21.5930 C   0  0  0  0  0  0  0  0  0  0  0  0
  -26.6487  -16.0835   19.9605 N   0  0  0  0  0  0  0  0  0  0  0  0
  -28.3922  -24.0372   22.1152 N   0  0  0  0  0  0  0  0  0  0  0  0
  -26.3711  -17.3366   19.5618 N   0  0  0  0  0  0  0  0  0  0  0  0
  -28.1207  -24.3426   19.9324 N   0  0  0  0  0  0  0  0  0  0  0  0
  -22.7925  -29.0464   20.9894 N   0  0  0  0  0  0  0  0  0  0  0  0
  -29.1260  -19.9575   19.9751 N   0  0  0  0  0  0  0  0  0  0  0  0
  -24.5857  -18.8459   19.1815 N   0  0  0  0  0  0  0  0  0  0  0  0
  -22.4975  -15.0918   20.5751 N   0  0  0  0  0  0  0  0  0  0  0  0
  -24.0556  -31.0995   23.7254 N   0  0  0  0  0  0  0  0  0  0  0  0
  -20.2491  -27.6956   19.2103 N   0  0  0  0  0  0  0  0  0  0  0  0
  -20.7410  -27.5672   15.6313 N   0  3  0  0  0  0  0  0  0  0  0  0
  -22.1737  -17.2470   19.8616 O   0  0  0  0  0  0  0  0  0  0  0  0
  -23.4026  -28.8794   23.4663 O   0  0  0  0  0  0  0  0  0  0  0  0
  -30.1528  -22.0378   19.8404 O   0  0  0  0  0  0  0  0  0  0  0  0
  -20.5879  -29.7917   21.1339 O   0  0  0  0  0  0  0  0  0  0  0  0
  -21.7685  -26.4355   17.9934 O   0  0  0  0  0  0  0  0  0  0  0  0
  -24.9484  -10.2983   22.0073 O   0  0  0  0  0  0  0  0  0  0  0  0
  -28.3577  -26.7293   19.6810 O   0  0  0  0  0  0  0  0  0  1  0  0
  -21.0702   -7.1492   19.6734 F   0  0  0  0  0  0  0  0  0  0  0  0
  -22.2790  -11.0058   22.1374 F   0  0  0  0  0  0  0  0  0  0  0  0
  1  2  1  0  0  0  0
  1  5  2  0  0  0  0
  2  6  2  0  0  0  0
  3  8  2  0  0  0  0
  3 15  1  0  0  0  0
  4  9  1  0  0  0  0
  4 15  2  0  0  0  0
  5 17  1  0  0  0  0
  6 19  1  0  0  0  0
  7 10  2  0  0  0  0
  7 18  1  0  0  0  0
  8 21  1  0  0  0  0
  9 21  2  0  0  0  0
 10 22  1  0  0  0  0
 11 12  2  0  0  0  0
 11 23  1  0  0  0  0
 12 24  1  0  0  0  0
 13 20  1  0  0  0  0
 13 22  2  0  0  0  0
 14 24  2  0  0  0  0
 14 25  1  0  0  0  0
 15 26  1  0  0  0  0
 16 26  1  0  0  0  0
 16 28  2  0  0  0  0
 16 31  1  0  0  0  0
 17 19  2  0  0  0  0
 17 36  1  0  0  0  0
 18 20  2  0  0  0  0
 18 37  1  0  0  0  0
 19 45  1  0  0  0  0
 20 38  1  0  0  0  0
 21 75  1  0  0  0  0
 22 76  1  0  0  0  0
 23 25  2  0  0  0  0
 23 75  1  0  0  0  0
 24 77  1  0  0  0  0
 25 78  1  0  0  0  0
 26 59  2  0  0  0  0
 27 29  2  0  0  0  0
 27 48  1  0  0  0  0
 27 60  1  0  0  0  0
 28 61  1  0  0  0  0
 28 65  1  0  0  0  0
 29 62  1  0  0  0  0
 29 76  1  0  0  0  0
 30 55  1  0  0  0  0
 30 60  2  0  0  0  0
 30 62  1  0  0  0  0
 31 66  1  0  0  0  0
 31 70  2  0  0  0  0
 32 46  1  0  0  0  0
 32 67  1  0  0  0  0
 32 71  2  0  0  0  0
 33 55  1  0  0  0  0
 33 64  1  0  0  0  0
 33 72  2  0  0  0  0
 34 56  1  0  0  0  0
 34 63  1  0  0  0  0
 34 73  2  0  0  0  0
 35 57  1  0  0  0  0
 35 68  1  0  0  0  0
 35 74  2  0  0  0  0
 36 39  1  0  0  0  0
 37 46  1  0  0  0  0
 38 63  1  0  0  0  0
 39 41  1  0  0  0  0
 40 42  1  0  0  0  0
 40 43  1  0  0  0  0
 41 45  1  0  0  0  0
 42 47  1  0  0  0  0
 43 64  1  0  0  0  0
 44 47  1  0  0  0  0
 44 64  1  0  0  0  0
 45 67  1  0  0  0  0
 46 63  1  0  0  0  0
 47 61  1  0  0  0  0
 49 57  1  0  0  0  0
 50 58  1  0  0  0  0
 51 58  1  0  0  0  0
 52 58  1  0  0  0  0
 53 62  1  0  0  0  0
 54 69  1  0  0  0  0
 56 58  1  0  0  0  0
 56 68  1  0  0  0  0
 57 69  1  0  0  0  0
 59 61  1  0  0  0  0
M  CHG  1  69   1
M  ISO  4  29 101  33 100  55 100  76 101
M  END
> <Batch ID>
0017

> <Smiles>
CNC(C)C(=O)NC(C(=O)N1Cc2cc([101O:1][101c:1]3c(C)nc([100CH2:0][100C:0](=O)N4CCCC(n5nc(-c6ccc(Oc7ccc(F)cc7F)cc6)c(C(N)=O)c5N)C4)n3C)ccc2CC1C(=O)NC1CCCc2ccccc21)C(C)(C)C

> <Shape>
0.298

> <Color>
0.089

> <Negative vol penalty>
0.000

$$$$

  -OEChem-04052316013D

 79 87  0     1  0  0  0  0  0999 V2000
  -29.1029  -36.2159   23.2701 C   0  0  0  0  0  0  0  0  0  0  0  0
  -29.3778  -34.9367   22.7973 C   0  0  0  0  0  0  0  0  0  0  0  0
  -26.7060  -12.8999   21.7743 C   0  0  0  0  0  0  0  0  0  0  0  0
  -26.1784  -14.2142   19.8169 C   0  0  0  0  0  0  0  0  0  0  0  0
  -27.9917  -36.4333   24.0836 C   0  0  0  0  0  0  0  0  0  0  0  0
  -28.5422  -33.8739   23.1388 C   0  0  0  0  0  0  0  0  0  0  0  0
  -27.0992  -29.0556   19.6449 C   0  0  0  0  0  0  0  0  0  0  0  0
  -25.4119  -12.3795   21.7737 C   0  0  0  0  0  0  0  0  0  0  0  0
  -24.8843  -13.6938   19.8163 C   0  0  0  0  0  0  0  0  0  0  0  0
  -27.5908  -27.7519   19.5957 C   0  0  0  0  0  0  0  0  0  0  0  0
  -22.3577  -10.4311   22.0740 C   0  0  0  0  0  0  0  0  0  0  0  0
  -22.2108   -9.0581   22.2709 C   0  0  0  0  0  0  0  0  0  0  0  0
  -25.7888  -27.0248   21.0251 C   0  0  0  0  0  0  0  0  0  0  0  0
  -23.5339   -8.6331   20.2945 C   0  0  0  0  0  0  0  0  0  0  0  0
  -27.0893  -13.8173   20.7959 C   0  0  0  0  0  0  0  0  0  0  0  0
  -29.5542  -13.8300   20.1389 C   0  0  0  0  0  0  0  0  0  0  0  0
  -27.1366  -35.3744   24.4273 C   0  0  0  0  0  0  0  0  0  0  0  0
  -25.9530  -29.3562   20.3948 C   0  0  0  0  0  0  0  0  0  0  0  0
  -27.4193  -34.0771   23.9588 C   0  0  0  0  0  0  0  0  0  0  0  0
  -25.2832  -28.3326   21.0802 C   0  0  0  0  0  0  0  0  0  0  0  0
  -24.5010  -12.7764   20.7947 C   0  0  0  0  0  0  0  0  0  0  0  0
  -26.9372  -26.7368   20.2882 C   0  0  0  0  0  0  0  0  0  0  0  0
  -23.0926  -10.9052   20.9874 C   0  0  0  0  0  0  0  0  0  0  0  0
  -22.7989   -8.1591   21.3812 C   0  0  0  0  0  0  0  0  0  0  0  0
  -23.6807  -10.0062   20.0977 C   0  0  0  0  0  0  0  0  0  0  0  0
  -29.5223  -23.0629   20.5782 C   0  0  0  0  0  0  0  0  0  0  0  0
  -28.4258  -14.3557   20.7963 C   0  0  0  0  0  0  0  0  0  0  0  0
  -28.9399  -23.7803   19.5161 C   0  0  0  0  0  0  0  0  0  0  0  0
  -30.5694  -14.7015   20.4493 C   0  0  0  0  0  0  0  0  0  0  0  0
  -29.6249  -21.7765   20.1080 C   0  0  0  0  0  0  0  0  0  0  0  0
  -29.6740  -12.6588   19.3207 C   0  0  0  0  0  0  0  0  0  0  0  0
  -25.3323  -31.2200   22.8937 C   0  0  0  0  0  0  0  0  0  0  0  0
  -22.2667  -30.3509   22.2867 C   0  0  0  0  0  0  0  0  0  0  0  0
  -20.1151  -28.0818   20.9196 C   0  0  0  0  0  0  0  0  0  0  0  0
  -30.6653  -20.4725   21.9958 C   0  0  0  0  0  0  0  0  0  0  0  0
  -25.9743  -35.6496   25.3481 C   0  0  0  0  0  0  0  0  0  0  0  0
  -25.4201  -30.7626   20.4160 C   0  0  0  0  0  0  0  0  0  0  0  0
  -24.0372  -28.5994   21.8832 C   0  0  0  0  0  0  0  0  0  0  0  0
  -24.9278  -34.5383   25.3569 C   0  0  0  0  0  0  0  0  0  0  0  0
  -31.9784  -17.7440   23.8687 C   0  0  0  0  0  0  0  0  0  0  0  0
  -25.5988  -33.1741   25.4808 C   0  0  0  0  0  0  0  0  0  0  0  0
  -31.3238  -16.5172   23.2296 C   0  0  0  0  0  0  0  0  0  0  0  0
  -31.0243  -18.9362   23.9156 C   0  0  0  0  0  0  0  0  0  0  0  0
  -29.7579  -18.0658   21.9899 C   0  0  0  0  0  0  0  0  0  0  0  0
  -26.5225  -32.9032   24.2871 C   0  0  1  0  0  0  0  0  0  0  0  0
  -24.5399  -31.0498   21.6285 C   0  0  1  0  0  0  0  0  0  0  0  0
  -30.7015  -16.8589   21.8615 C   0  0  2  0  0  0  0  0  0  0  0  0
  -17.6666  -27.6246   20.6144 C   0  0  0  0  0  0  0  0  0  0  0  0
  -22.0687  -29.4773   25.2035 C   0  0  0  0  0  0  0  0  0  0  0  0
  -20.0047  -28.1923   24.6060 C   0  0  0  0  0  0  0  0  0  0  0  0
  -20.0511  -30.6714   24.3329 C   0  0  0  0  0  0  0  0  0  0  0  0
  -29.0049  -20.6878   17.9274 C   0  0  0  0  0  0  0  0  0  0  0  0
  -20.3494  -28.1612   17.9704 C   0  0  0  0  0  0  0  0  0  0  0  0
  -28.5910  -25.2388   19.4653 C   0  0  0  0  0  0  0  0  0  1  0  0
  -21.3670  -29.2233   22.7319 C   0  0  1  0  0  0  0  0  0  0  0  0
  -18.9117  -28.2555   20.0107 C   0  0  2  0  0  0  0  0  0  0  0  0
  -20.8974  -29.3861   24.2051 C   0  0  0  0  0  0  0  0  0  0  0  0
  -28.6981  -15.4744   21.4734 N   0  0  0  0  0  0  0  0  0  0  0  0
  -28.6901  -23.0134   18.4515 N   0  0  0  0  0  0  0  0  0  0  0  0
  -30.0093  -15.6587   21.2432 N   0  0  0  0  0  0  0  0  0  0  0  0
  -29.1177  -21.8007   18.8421 N   0  0  0  0  0  0  0  0  0  0  0  0
  -23.5589  -29.9917   21.8782 N   0  0  0  0  0  0  0  0  0  0  0  0
  -30.4772  -19.2038   22.5837 N   0  0  0  0  0  0  0  0  0  0  0  0
  -31.8777  -14.7347   20.1181 N   0  0  0  0  0  0  0  0  0  0  0  0
  -28.5320  -11.8757   19.1036 N   0  0  0  0  0  0  0  0  0  0  0  0
  -30.1294  -20.5995   20.7146 N   0  0  0  0  0  0  0  0  0  0  0  0
  -25.7487  -32.5169   23.1267 N   0  0  0  0  0  0  0  0  0  0  0  0
  -20.2794  -29.1614   21.7614 N   0  0  0  0  0  0  0  0  0  0  0  0
  -19.1661  -27.6196   18.6871 N   0  3  0  0  0  0  0  0  0  0  0  0
  -30.7651  -12.3077   18.8110 O   0  0  0  0  0  0  0  0  0  0  0  0
  -25.5487  -30.2470   23.6066 O   0  0  0  0  0  0  0  0  0  0  0  0
  -21.8363  -31.5069   22.2943 O   0  0  0  0  0  0  0  0  0  0  0  0
  -20.8350  -27.0862   20.8887 O   0  0  0  0  0  0  0  0  0  0  0  0
  -31.2818  -21.3709   22.5744 O   0  0  0  0  0  0  0  0  0  0  0  0
  -23.2382  -12.2686   20.7937 O   0  0  0  0  0  0  0  0  0  0  0  0
  -27.4153  -25.4635   20.2423 O   0  0  0  0  0  0  0  0  0  1  0  0
  -22.6590   -6.8405   21.5712 F   0  0  0  0  0  0  0  0  0  0  0  0
  -24.3890  -10.4557   19.0526 F   0  0  0  0  0  0  0  0  0  0  0  0
  -29.9823  -23.6798   22.0869 Cl  0  0  0  0  0  0  0  0  0  0  0  0
  1  2  1  0  0  0  0
  1  5  2  0  0  0  0
  2  6  2  0  0  0  0
  3  8  2  0  0  0  0
  3 15  1  0  0  0  0
  4  9  1  0  0  0  0
  4 15  2  0  0  0  0
  5 17  1  0  0  0  0
  6 19  1  0  0  0  0
  7 10  2  0  0  0  0
  7 18  1  0  0  0  0
  8 21  1  0  0  0  0
  9 21  2  0  0  0  0
 10 22  1  0  0  0  0
 11 12  2  0  0  0  0
 11 23  1  0  0  0  0
 12 24  1  0  0  0  0
 13 20  1  0  0  0  0
 13 22  2  0  0  0  0
 14 24  2  0  0  0  0
 14 25  1  0  0  0  0
 15 27  1  0  0  0  0
 16 27  1  0  0  0  0
 16 29  2  0  0  0  0
 16 31  1  0  0  0  0
 17 19  2  0  0  0  0
 17 36  1  0  0  0  0
 18 20  2  0  0  0  0
 18 37  1  0  0  0  0
 19 45  1  0  0  0  0
 20 38  1  0  0  0  0
 21 75  1  0  0  0  0
 22 76  1  0  0  0  0
 23 25  2  0  0  0  0
 23 75  1  0  0  0  0
 24 77  1  0  0  0  0
 25 78  1  0  0  0  0
 26 28  1  0  0  0  0
 26 30  2  0  0  0  0
 26 79  1  0  0  0  0
 27 58  2  0  0  0  0
 28 54  1  0  0  0  0
 28 59  2  0  0  0  0
 29 60  1  0  0  0  0
 29 64  1  0  0  0  0
 30 61  1  0  0  0  0
 30 66  1  0  0  0  0
 31 65  1  0  0  0  0
 31 70  2  0  0  0  0
 32 46  1  0  0  0  0
 32 67  1  0  0  0  0
 32 71  2  0  0  0  0
 33 55  1  0  0  0  0
 33 62  1  0  0  0  0
 33 72  2  0  0  0  0
 34 56  1  0  0  0  0
 34 68  1  0  0  0  0
 34 73  2  0  0  0  0
 35 63  1  0  0  0  0
 35 66  1  0  0  0  0
 35 74  2  0  0  0  0
 36 39  1  0  0  0  0
 37 46  1  0  0  0  0
 38 62  1  0  0  0  0
 39 41  1  0  0  0  0
 40 42  1  0  0  0  0
 40 43  1  0  0  0  0
 41 45  1  0  0  0  0
 42 47  1  0  0  0  0
 43 63  1  0  0  0  0
 44 47  1  0  0  0  0
 44 63  1  0  0  0  0
 45 67  1  0  0  0  0
 46 62  1  0  0  0  0
 47 60  1  0  0  0  0
 48 56  1  0  0  0  0
 49 57  1  0  0  0  0
 50 57  1  0  0  0  0
 51 57  1  0  0  0  0
 52 61  1  0  0  0  0
 53 69  1  0  0  0  0
 54 76  1  0  0  0  0
 55 57  1  0  0  0  0
 55 68  1  0  0  0  0
 56 69  1  0  0  0  0
 58 60  1  0  0  0  0
 59 61  1  0  0  0  0
M  CHG  1  69   1
M  ISO  4  35 100  54 101  66 100  76 101
M  END
> <Batch ID>
0017

> <Smiles>
CNC(C)C(=O)NC(C(=O)N1Cc2cc([101O:1][101CH2:1]c3nn(C)c([100NH:0][100C:0](=O)N4CCCC(n5nc(-c6ccc(Oc7ccc(F)cc7F)cc6)c(C(N)=O)c5N)C4)c3Cl)ccc2CC1C(=O)NC1CCCc2ccccc21)C(C)(C)C

> <Shape>
0.348

> <Color>
0.100

> <Negative vol penalty>
0.000

$$$$

  -OEChem-04052316013D

 80 87  0     1  0  0  0  0  0999 V2000
  -32.4095  -25.3667   15.6340 C   0  0  0  0  0  0  0  0  0  0  0  0
  -31.0333  -25.3650   15.4303 C   0  0  0  0  0  0  0  0  0  0  0  0
  -27.0792  -13.8900   21.9133 C   0  0  0  0  0  0  0  0  0  0  0  0
  -25.2373  -14.2091   20.3828 C   0  0  0  0  0  0  0  0  0  0  0  0
  -32.9211  -25.3417   16.9308 C   0  0  0  0  0  0  0  0  0  0  0  0
  -30.1678  -25.3373   16.5233 C   0  0  0  0  0  0  0  0  0  0  0  0
  -23.7395  -27.7066   18.6160 C   0  0  0  0  0  0  0  0  0  0  0  0
  -26.3824  -12.8546   22.5361 C   0  0  0  0  0  0  0  0  0  0  0  0
  -24.5404  -13.1736   21.0055 C   0  0  0  0  0  0  0  0  0  0  0  0
  -22.5450  -27.2395   19.1625 C   0  0  0  0  0  0  0  0  0  0  0  0
  -24.5588   -9.7943   20.9826 C   0  0  0  0  0  0  0  0  0  0  0  0
  -23.9297   -8.8552   20.1654 C   0  0  0  0  0  0  0  0  0  0  0  0
  -23.5418  -27.2779   21.3588 C   0  0  0  0  0  0  0  0  0  0  0  0
  -21.7969   -9.4342   21.1417 C   0  0  0  0  0  0  0  0  0  0  0  0
  -26.5067  -14.5673   20.8367 C   0  0  0  0  0  0  0  0  0  0  0  0
  -28.1120  -15.5319   19.1045 C   0  0  0  0  0  0  0  0  0  0  0  0
  -32.0615  -25.3234   18.0404 C   0  0  0  0  0  0  0  0  0  0  0  0
  -24.8495  -27.9529   19.4368 C   0  0  0  0  0  0  0  0  0  0  0  0
  -30.6684  -25.3106   17.8361 C   0  0  0  0  0  0  0  0  0  0  0  0
  -24.7485  -27.7506   20.8206 C   0  0  0  0  0  0  0  0  0  0  0  0
  -25.1130  -12.4964   22.0822 C   0  0  0  0  0  0  0  0  0  0  0  0
  -22.4469  -27.0223   20.5337 C   0  0  0  0  0  0  0  0  0  0  0  0
  -23.8069  -10.5534   21.8794 C   0  0  0  0  0  0  0  0  0  0  0  0
  -22.5488   -8.6751   20.2449 C   0  0  0  0  0  0  0  0  0  0  0  0
  -22.4260  -10.3733   21.9590 C   0  0  0  0  0  0  0  0  0  0  0  0
  -27.2258  -15.6374   20.1933 C   0  0  0  0  0  0  0  0  0  0  0  0
  -28.5264  -16.8208   18.8731 C   0  0  0  0  0  0  0  0  0  0  0  0
  -21.0155  -22.7076   21.5472 C   0  0  0  0  0  0  0  0  0  0  0  0
  -28.5236  -14.3726   18.3682 C   0  0  0  0  0  0  0  0  0  0  0  0
  -20.5097  -23.8866   21.9583 C   0  0  0  0  0  0  0  0  0  0  0  0
  -27.7951  -26.7756   19.6391 C   0  0  0  0  0  0  0  0  0  0  0  0
  -28.1671  -29.1321   21.8369 C   0  0  0  0  0  0  0  0  0  0  0  0
  -26.7183  -31.2531   24.0841 C   0  0  0  0  0  0  0  0  0  0  0  0
  -26.0726  -22.1609   20.0188 C   0  0  0  0  0  0  0  0  0  0  0  0
  -32.6613  -25.2490   19.4222 C   0  0  0  0  0  0  0  0  0  0  0  0
  -26.1225  -28.4821   18.8352 C   0  0  0  0  0  0  0  0  0  0  0  0
  -25.9047  -28.0190   21.7478 C   0  0  0  0  0  0  0  0  0  0  0  0
  -31.6754  -25.5990   20.5339 C   0  0  0  0  0  0  0  0  0  0  0  0
  -29.2470  -20.9829   21.1199 C   0  0  0  0  0  0  0  0  0  0  0  0
  -30.3487  -24.8779   20.3173 C   0  0  0  0  0  0  0  0  0  0  0  0
  -29.1689  -19.4698   20.9090 C   0  0  0  0  0  0  0  0  0  0  0  0
  -27.9070  -21.5597   21.5712 C   0  0  0  0  0  0  0  0  0  0  0  0
  -26.6860  -19.7118   20.4904 C   0  0  0  0  0  0  0  0  0  0  0  0
  -29.6973  -25.3060   18.9967 C   0  0  1  0  0  0  0  0  0  0  0  0
  -27.3500  -28.2094   19.6991 C   0  0  1  0  0  0  0  0  0  0  0  0
  -27.9987  -19.0927   19.9808 C   0  0  2  0  0  0  0  0  0  0  0  0
  -20.8174  -24.4068   23.3377 C   0  0  0  0  0  0  0  0  0  0  0  0
  -27.2834  -33.0351   25.7581 C   0  0  0  0  0  0  0  0  0  0  0  0
  -29.1419  -26.9927   23.7818 C   0  0  0  0  0  0  0  0  0  0  0  0
  -28.7802  -28.6228   25.6474 C   0  0  0  0  0  0  0  0  0  0  0  0
  -30.4345  -29.1325   23.8512 C   0  0  0  0  0  0  0  0  0  0  0  0
  -25.1285  -33.2837   22.6322 C   0  0  0  0  0  0  0  0  0  0  0  0
  -20.7908  -22.0267   20.2256 C   0  0  0  0  0  0  0  0  0  0  0  0
  -19.6458  -24.7860   21.1084 C   0  0  0  0  0  0  0  0  0  0  0  0
  -22.0966  -21.6974   19.4949 C   0  0  0  0  0  0  0  0  0  0  0  0
  -22.9491  -22.9386   19.2037 C   0  0  0  0  0  0  0  0  0  0  0  0
  -24.2198  -22.6043   18.4283 C   0  0  0  0  0  0  0  0  0  0  0  0
  -20.4685  -25.7346   20.2442 C   0  0  0  0  0  0  0  0  0  1  0  0
  -27.9634  -29.2447   23.3285 C   0  0  1  0  0  0  0  0  0  0  0  0
  -26.8902  -32.7430   24.3183 C   0  0  2  0  0  0  0  0  0  0  0  0
  -29.0586  -28.4912   24.1348 C   0  0  0  0  0  0  0  0  0  0  0  0
  -27.0851  -16.8940   20.6237 N   0  0  0  0  0  0  0  0  0  0  0  0
  -27.8885  -17.5899   19.8013 N   0  0  0  0  0  0  0  0  0  0  0  0
  -27.1300  -28.5295   21.1109 N   0  0  0  0  0  0  0  0  0  0  0  0
  -26.8400  -21.1666   20.6477 N   0  0  0  0  0  0  0  0  0  0  0  0
  -29.3708  -17.3598   17.9682 N   0  0  0  0  0  0  0  0  0  0  0  0
  -28.0011  -13.1258   18.7382 N   0  0  0  0  0  0  0  0  0  0  0  0
  -29.0716  -26.6032   19.1389 N   0  0  0  0  0  0  0  0  0  0  0  0
  -27.8801  -30.6713   23.6226 N   0  0  0  0  0  0  0  0  0  0  0  0
  -25.0864  -21.7025   19.1540 N   0  0  0  0  0  0  0  0  0  0  0  0
  -25.6197  -33.4638   24.0226 N   0  3  0  0  0  0  0  0  0  0  0  0
  -29.3434  -14.4381   17.4210 O   0  0  0  0  0  0  0  0  0  0  0  0
  -27.0370  -25.8912   20.0198 O   0  0  0  0  0  0  0  0  0  0  0  0
  -29.2049  -29.5694   21.3336 O   0  0  0  0  0  0  0  0  0  0  0  0
  -25.6604  -30.6635   24.2933 O   0  0  0  0  0  0  0  0  0  0  0  0
  -26.2565  -23.3679   20.2095 O   0  0  0  0  0  0  0  0  0  0  0  0
  -24.4328  -11.4859   22.6896 O   0  0  0  0  0  0  0  0  0  0  0  0
  -21.2742  -26.5626   21.0734 O   0  0  0  0  0  0  0  0  0  1  0  0
  -21.9447   -7.7743   19.4589 F   0  0  0  0  0  0  0  0  0  0  0  0
  -21.6983  -11.1004   22.8178 F   0  0  0  0  0  0  0  0  0  0  0  0
  1  2  1  0  0  0  0
  1  5  2  0  0  0  0
  2  6  2  0  0  0  0
  3  8  2  0  0  0  0
  3 15  1  0  0  0  0
  4  9  1  0  0  0  0
  4 15  2  0  0  0  0
  5 17  1  0  0  0  0
  6 19  1  0  0  0  0
  7 10  2  0  0  0  0
  7 18  1  0  0  0  0
  8 21  1  0  0  0  0
  9 21  2  0  0  0  0
 10 22  1  0  0  0  0
 11 12  2  0  0  0  0
 11 23  1  0  0  0  0
 12 24  1  0  0  0  0
 13 20  1  0  0  0  0
 13 22  2  0  0  0  0
 14 24  2  0  0  0  0
 14 25  1  0  0  0  0
 15 26  1  0  0  0  0
 16 26  1  0  0  0  0
 16 27  2  0  0  0  0
 16 29  1  0  0  0  0
 17 19  2  0  0  0  0
 17 35  1  0  0  0  0
 18 20  2  0  0  0  0
 18 36  1  0  0  0  0
 19 44  1  0  0  0  0
 20 37  1  0  0  0  0
 21 77  1  0  0  0  0
 22 78  1  0  0  0  0
 23 25  2  0  0  0  0
 23 77  1  0  0  0  0
 24 79  1  0  0  0  0
 25 80  1  0  0  0  0
 26 62  2  0  0  0  0
 27 63  1  0  0  0  0
 27 66  1  0  0  0  0
 28 30  2  0  0  0  0
 28 53  1  0  0  0  0
 29 67  1  0  0  0  0
 29 72  2  0  0  0  0
 30 47  1  0  0  0  0
 30 54  1  0  0  0  0
 31 45  1  0  0  0  0
 31 68  1  0  0  0  0
 31 73  2  0  0  0  0
 32 59  1  0  0  0  0
 32 64  1  0  0  0  0
 32 74  2  0  0  0  0
 33 60  1  0  0  0  0
 33 69  1  0  0  0  0
 33 75  2  0  0  0  0
 34 65  1  0  0  0  0
 34 70  1  0  0  0  0
 34 76  2  0  0  0  0
 35 38  1  0  0  0  0
 36 45  1  0  0  0  0
 37 64  1  0  0  0  0
 38 40  1  0  0  0  0
 39 41  1  0  0  0  0
 39 42  1  0  0  0  0
 40 44  1  0  0  0  0
 41 46  1  0  0  0  0
 42 65  1  0  0  0  0
 43 46  1  0  0  0  0
 43 65  1  0  0  0  0
 44 68  1  0  0  0  0
 45 64  1  0  0  0  0
 46 63  1  0  0  0  0
 48 60  1  0  0  0  0
 49 61  1  0  0  0  0
 50 61  1  0  0  0  0
 51 61  1  0  0  0  0
 52 71  1  0  0  0  0
 53 55  1  0  0  0  0
 54 58  1  0  0  0  0
 55 56  1  0  0  0  0
 56 57  1  0  0  0  0
 57 70  1  0  0  0  0
 58 78  1  0  0  0  0
 59 61  1  0  0  0  0
 59 69  1  0  0  0  0
 60 71  1  0  0  0  0
 62 63  1  0  0  0  0
M  CHG  1  71   1
M  ISO  4  34 100  58 101  70 100  78 101
M  END
> <Batch ID>
0017

> <Smiles>
CNC(C)C(=O)NC(C(=O)N1Cc2cc([101O:1][101CH2:1]CC(C)=CCCCC[100NH:0][100C:0](=O)N3CCCC(n4nc(-c5ccc(Oc6ccc(F)cc6F)cc5)c(C(N)=O)c4N)C3)ccc2CC1C(=O)NC1CCCc2ccccc21)C(C)(C)C

> <Shape>
0.252

> <Color>
0.055

> <Negative vol penalty>
0.000

$$$$

  -OEChem-04052316013D

 81 89  0     1  0  0  0  0  0999 V2000
  -34.3867  -30.5305   28.5162 C   0  0  0  0  0  0  0  0  0  0  0  0
  -34.3468  -29.2077   28.0874 C   0  0  0  0  0  0  0  0  0  0  0  0
  -23.0011   -9.8937   19.9772 C   0  0  0  0  0  0  0  0  0  0  0  0
  -23.7271   -9.9391   22.2811 C   0  0  0  0  0  0  0  0  0  0  0  0
  -33.4676  -31.4522   28.0165 C   0  0  0  0  0  0  0  0  0  0  0  0
  -33.3869  -28.8055   27.1593 C   0  0  0  0  0  0  0  0  0  0  0  0
  -34.0590  -24.6055   22.7531 C   0  0  0  0  0  0  0  0  0  0  0  0
  -22.2349   -8.7585   20.2410 C   0  0  0  0  0  0  0  0  0  0  0  0
  -22.9608   -8.8039   22.5449 C   0  0  0  0  0  0  0  0  0  0  0  0
  -33.6988  -23.2608   22.6762 C   0  0  0  0  0  0  0  0  0  0  0  0
  -23.2054   -5.4662   22.0648 C   0  0  0  0  0  0  0  0  0  0  0  0
  -23.7933   -4.4472   22.8142 C   0  0  0  0  0  0  0  0  0  0  0  0
  -31.6687  -23.8766   21.5278 C   0  0  0  0  0  0  0  0  0  0  0  0
  -31.1977  -17.5849   20.5768 C   0  0  0  0  0  0  0  0  0  0  0  0
  -22.0700   -4.6858   24.4906 C   0  0  0  0  0  0  0  0  0  0  0  0
  -23.7473  -10.4840   20.9972 C   0  0  0  0  0  0  0  0  0  0  0  0
  -24.1322  -13.0001   20.8273 C   0  0  0  0  0  0  0  0  0  0  0  0
  -32.5022  -31.0633   27.0745 C   0  0  0  0  0  0  0  0  0  0  0  0
  -33.2202  -25.5983   22.2268 C   0  0  0  0  0  0  0  0  0  0  0  0
  -32.4532  -29.7225   26.6475 C   0  0  0  0  0  0  0  0  0  0  0  0
  -32.0218  -25.2329   21.5971 C   0  0  0  0  0  0  0  0  0  0  0  0
  -31.4044  -18.9638   20.5406 C   0  0  0  0  0  0  0  0  0  0  0  0
  -29.7569  -19.2565   22.2834 C   0  0  0  0  0  0  0  0  0  0  0  0
  -30.6841  -19.7997   21.3939 C   0  0  0  0  0  0  0  0  0  0  0  0
  -29.5502  -17.8776   22.3196 C   0  0  0  0  0  0  0  0  0  0  0  0
  -30.2705  -17.0417   21.4663 C   0  0  0  0  0  0  0  0  0  0  0  0
  -22.2146   -8.2136   21.5249 C   0  0  0  0  0  0  0  0  0  0  0  0
  -32.5022  -22.8964   22.0661 C   0  0  0  0  0  0  0  0  0  0  0  0
  -22.0498   -6.0950   22.5283 C   0  0  0  0  0  0  0  0  0  0  0  0
  -23.2256   -4.0570   24.0271 C   0  0  0  0  0  0  0  0  0  0  0  0
  -21.4821   -5.7048   23.7412 C   0  0  0  0  0  0  0  0  0  0  0  0
  -24.5395  -11.6564   20.7252 C   0  0  0  0  0  0  0  0  0  0  0  0
  -25.2418  -13.7237   20.4643 C   0  0  0  0  0  0  0  0  0  0  0  0
  -22.8643  -13.5454   21.2156 C   0  0  0  0  0  0  0  0  0  0  0  0
  -31.6427  -28.0769   23.4400 C   0  0  0  0  0  0  0  0  0  0  0  0
  -30.9861  -28.6871   20.3224 C   0  0  0  0  0  0  0  0  0  0  0  0
  -30.6629  -27.4922   17.1421 C   0  0  0  0  0  0  0  0  0  0  0  0
  -30.7212  -14.6850   20.6987 C   0  0  0  0  0  0  0  0  0  0  0  0
  -31.4997  -32.0845   26.5985 C   0  0  0  0  0  0  0  0  0  0  0  0
  -33.6358  -27.0423   22.2941 C   0  0  0  0  0  0  0  0  0  0  0  0
  -31.0957  -26.2588   20.9983 C   0  0  0  0  0  0  0  0  0  0  0  0
  -30.7527  -31.6623   25.3360 C   0  0  0  0  0  0  0  0  0  0  0  0
  -29.6024  -12.2377   18.3671 C   0  0  0  0  0  0  0  0  0  0  0  0
  -30.2653  -30.2222   25.4605 C   0  0  0  0  0  0  0  0  0  0  0  0
  -28.1520  -11.9788   18.7812 C   0  0  0  0  0  0  0  0  0  0  0  0
  -30.5033  -12.4783   19.5772 C   0  0  0  0  0  0  0  0  0  0  0  0
  -28.5883  -13.2636   20.9133 C   0  0  0  0  0  0  0  0  0  0  0  0
  -31.4428  -29.2534   25.6232 C   0  0  1  0  0  0  0  0  0  0  0  0
  -32.4604  -28.0083   22.1813 C   0  0  1  0  0  0  0  0  0  0  0  0
  -27.6303  -13.0800   19.7250 C   0  0  2  0  0  0  0  0  0  0  0  0
  -32.4003  -19.5204   19.5763 C   0  0  0  0  0  0  0  0  0  0  0  0
  -28.9844  -20.1538   23.1984 C   0  0  0  0  0  0  0  0  0  0  0  0
  -28.5535  -17.2973   23.2738 C   0  0  0  0  0  0  0  0  0  0  0  0
  -30.0795  -28.2224   14.8132 C   0  0  0  0  0  0  0  0  0  0  0  0
  -28.0340  -28.7663   21.0894 C   0  0  0  0  0  0  0  0  0  0  0  0
  -27.4687  -28.5435   18.6606 C   0  0  0  0  0  0  0  0  0  0  0  0
  -28.7380  -30.5340   19.4665 C   0  0  0  0  0  0  0  0  0  0  0  0
  -33.3267  -26.7210   16.1085 C   0  0  0  0  0  0  0  0  0  0  0  0
  -30.9080  -21.2827   21.3515 C   0  0  0  0  0  0  0  0  0  1  0  0
  -29.8922  -28.2870   19.3622 C   0  0  1  0  0  0  0  0  0  0  0  0
  -31.2007  -27.9991   15.8161 C   0  0  2  0  0  0  0  0  0  0  0  0
  -28.5495  -29.0133   19.6576 C   0  0  0  0  0  0  0  0  0  0  0  0
  -25.8087  -11.5311   20.3283 N   0  0  0  0  0  0  0  0  0  0  0  0
  -26.2084  -12.8053   20.1776 N   0  0  0  0  0  0  0  0  0  0  0  0
  -31.5433  -27.6581   21.0948 N   0  0  0  0  0  0  0  0  0  0  0  0
  -29.9484  -13.5371   20.4233 N   0  0  0  0  0  0  0  0  0  0  0  0
  -25.4750  -15.0497   20.3654 N   0  0  0  0  0  0  0  0  0  0  0  0
  -21.8328  -12.6603   21.5573 N   0  0  0  0  0  0  0  0  0  0  0  0
  -30.0770  -15.6382   21.4868 N   0  0  0  0  0  0  0  0  0  0  0  0
  -32.0854  -29.0201   24.3477 N   0  0  0  0  0  0  0  0  0  0  0  0
  -30.4180  -28.5249   18.0223 N   0  0  0  0  0  0  0  0  0  0  0  0
  -32.1605  -27.0170   15.2370 N   0  3  0  0  0  0  0  0  0  0  0  0
  -22.6474  -14.7806   21.2424 O   0  0  0  0  0  0  0  0  0  0  0  0
  -30.6805  -27.3305   23.5768 O   0  0  0  0  0  0  0  0  0  0  0  0
  -31.3385  -29.8678   20.3798 O   0  0  0  0  0  0  0  0  0  0  0  0
  -30.4750  -26.2997   17.3726 O   0  0  0  0  0  0  0  0  0  0  0  0
  -31.8597  -14.8252   20.2446 O   0  0  0  0  0  0  0  0  0  0  0  0
  -21.4668   -7.1059   21.7827 O   0  0  0  0  0  0  0  0  0  0  0  0
  -32.1479  -21.5847   21.9902 O   0  0  0  0  0  0  0  0  0  1  0  0
  -23.7895   -3.0774   24.7459 F   0  0  0  0  0  0  0  0  0  0  0  0
  -20.3713   -6.3044   24.1910 F   0  0  0  0  0  0  0  0  0  0  0  0
  1  2  1  0  0  0  0
  1  5  2  0  0  0  0
  2  6  2  0  0  0  0
  3  8  2  0  0  0  0
  3 16  1  0  0  0  0
  4  9  1  0  0  0  0
  4 16  2  0  0  0  0
  5 18  1  0  0  0  0
  6 20  1  0  0  0  0
  7 10  2  0  0  0  0
  7 19  1  0  0  0  0
  8 27  1  0  0  0  0
  9 27  2  0  0  0  0
 10 28  1  0  0  0  0
 11 12  2  0  0  0  0
 11 29  1  0  0  0  0
 12 30  1  0  0  0  0
 13 21  1  0  0  0  0
 13 28  2  0  0  0  0
 14 22  2  0  0  0  0
 14 26  1  0  0  0  0
 15 30  2  0  0  0  0
 15 31  1  0  0  0  0
 16 32  1  0  0  0  0
 17 32  1  0  0  0  0
 17 33  2  0  0  0  0
 17 34  1  0  0  0  0
 18 20  2  0  0  0  0
 18 39  1  0  0  0  0
 19 21  2  0  0  0  0
 19 40  1  0  0  0  0
 20 48  1  0  0  0  0
 21 41  1  0  0  0  0
 22 24  1  0  0  0  0
 22 51  1  0  0  0  0
 23 24  2  0  0  0  0
 23 25  1  0  0  0  0
 23 52  1  0  0  0  0
 24 59  1  0  0  0  0
 25 26  2  0  0  0  0
 25 53  1  0  0  0  0
 26 69  1  0  0  0  0
 27 78  1  0  0  0  0
 28 79  1  0  0  0  0
 29 31  2  0  0  0  0
 29 78  1  0  0  0  0
 30 80  1  0  0  0  0
 31 81  1  0  0  0  0
 32 63  2  0  0  0  0
 33 64  1  0  0  0  0
 33 67  1  0  0  0  0
 34 68  1  0  0  0  0
 34 73  2  0  0  0  0
 35 49  1  0  0  0  0
 35 70  1  0  0  0  0
 35 74  2  0  0  0  0
 36 60  1  0  0  0  0
 36 65  1  0  0  0  0
 36 75  2  0  0  0  0
 37 61  1  0  0  0  0
 37 71  1  0  0  0  0
 37 76  2  0  0  0  0
 38 66  1  0  0  0  0
 38 69  1  0  0  0  0
 38 77  2  0  0  0  0
 39 42  1  0  0  0  0
 40 49  1  0  0  0  0
 41 65  1  0  0  0  0
 42 44  1  0  0  0  0
 43 45  1  0  0  0  0
 43 46  1  0  0  0  0
 44 48  1  0  0  0  0
 45 50  1  0  0  0  0
 46 66  1  0  0  0  0
 47 50  1  0  0  0  0
 47 66  1  0  0  0  0
 48 70  1  0  0  0  0
 49 65  1  0  0  0  0
 50 64  1  0  0  0  0
 54 61  1  0  0  0  0
 55 62  1  0  0  0  0
 56 62  1  0  0  0  0
 57 62  1  0  0  0  0
 58 72  1  0  0  0  0
 59 79  1  0  0  0  0
 60 62  1  0  0  0  0
 60 71  1  0  0  0  0
 61 72  1  0  0  0  0
 63 64  1  0  0  0  0
M  CHG  1  72   1
M  ISO  4  38 100  59 101  69 100  79 101
M  END
> <Batch ID>
0017

> <Smiles>
CNC(C)C(=O)NC(C(=O)N1Cc2cc([101O:1][101CH2:1]c3c(C)cc([100NH:0][100C:0](=O)N4CCCC(n5nc(-c6ccc(Oc7ccc(F)cc7F)cc6)c(C(N)=O)c5N)C4)c(C)c3C)ccc2CC1C(=O)NC1CCCc2ccccc21)C(C)(C)C

> <Shape>
0.224

> <Color>
0.207

> <Negative vol penalty>
0.000

$$$$

  -OEChem-04052316013D

 85 93  0     1  0  0  0  0  0999 V2000
  -27.8409  -32.3243   24.7238 C   0  0  0  0  0  0  0  0  0  0  0  0
  -27.5645  -30.9666   24.8496 C   0  0  0  0  0  0  0  0  0  0  0  0
  -23.0028   -9.9218   19.9574 C   0  0  0  0  0  0  0  0  0  0  0  0
  -23.7467   -9.9182   22.2560 C   0  0  0  0  0  0  0  0  0  0  0  0
  -27.6152  -32.9708   23.5093 C   0  0  0  0  0  0  0  0  0  0  0  0
  -27.0613  -30.2549   23.7612 C   0  0  0  0  0  0  0  0  0  0  0  0
  -29.3569  -25.7848   23.1340 C   0  0  0  0  0  0  0  0  0  0  0  0
  -22.2360   -8.7830   20.2037 C   0  0  0  0  0  0  0  0  0  0  0  0
  -22.9799   -8.7794   22.5024 C   0  0  0  0  0  0  0  0  0  0  0  0
  -28.9720  -24.7469   23.9815 C   0  0  0  0  0  0  0  0  0  0  0  0
  -23.2132   -5.4518   21.9517 C   0  0  0  0  0  0  0  0  0  0  0  0
  -23.8046   -4.4164   22.6754 C   0  0  0  0  0  0  0  0  0  0  0  0
  -27.5661  -23.8522   22.2373 C   0  0  0  0  0  0  0  0  0  0  0  0
  -22.0949   -4.6240   24.3697 C   0  0  0  0  0  0  0  0  0  0  0  0
  -30.8694  -19.0432   20.3416 C   0  0  0  0  0  0  0  0  0  0  0  0
  -23.7582  -10.4894   20.9835 C   0  0  0  0  0  0  0  0  0  0  0  0
  -24.1475  -13.0076   20.8624 C   0  0  0  0  0  0  0  0  0  0  0  0
  -27.1181  -32.2645   22.4027 C   0  0  0  0  0  0  0  0  0  0  0  0
  -28.8401  -25.8705   21.8333 C   0  0  0  0  0  0  0  0  0  0  0  0
  -26.8275  -30.8929   22.5312 C   0  0  0  0  0  0  0  0  0  0  0  0
  -27.9480  -24.8908   21.3744 C   0  0  0  0  0  0  0  0  0  0  0  0
  -30.1268  -17.7625   22.7061 C   0  0  0  0  0  0  0  0  0  0  0  0
  -30.3251  -19.1431   22.6934 C   0  0  0  0  0  0  0  0  0  0  0  0
  -30.2997  -17.0223   21.5366 C   0  0  0  0  0  0  0  0  0  0  0  0
  -22.2245   -8.2118   21.4762 C   0  0  0  0  0  0  0  0  0  0  0  0
  -28.0742  -23.7820   23.5342 C   0  0  0  0  0  0  0  0  0  0  0  0
  -22.0626   -6.0734   22.4371 C   0  0  0  0  0  0  0  0  0  0  0  0
  -23.2455   -4.0024   23.8844 C   0  0  0  0  0  0  0  0  0  0  0  0
  -21.5035   -5.6595   23.6460 C   0  0  0  0  0  0  0  0  0  0  0  0
  -30.6711  -17.6626   20.3543 C   0  0  0  0  0  0  0  0  0  0  0  0
  -30.6964  -19.7835   21.5112 C   0  0  0  0  0  0  0  0  0  0  0  0
  -24.5510  -11.6655   20.7295 C   0  0  0  0  0  0  0  0  0  0  0  0
  -25.2558  -13.7362   20.5057 C   0  0  0  0  0  0  0  0  0  0  0  0
  -22.8839  -13.5475   21.2717 C   0  0  0  0  0  0  0  0  0  0  0  0
  -27.0741  -27.9915   20.2564 C   0  0  0  0  0  0  0  0  0  0  0  0
  -27.6800  -26.0408   17.7366 C   0  0  0  0  0  0  0  0  0  0  0  0
  -28.5088  -22.9247   16.6186 C   0  0  0  0  0  0  0  0  0  0  0  0
  -30.7391  -14.6809   20.7172 C   0  0  0  0  0  0  0  0  0  0  0  0
  -26.8457  -33.0167   21.1241 C   0  0  0  0  0  0  0  0  0  0  0  0
  -29.2859  -26.9814   20.9224 C   0  0  0  0  0  0  0  0  0  0  0  0
  -27.3799  -24.9262   19.9800 C   0  0  0  0  0  0  0  0  0  0  0  0
  -26.6641  -32.1090   19.9103 C   0  0  0  0  0  0  0  0  0  0  0  0
  -29.5968  -12.2845   18.3445 C   0  0  0  0  0  0  0  0  0  0  0  0
  -25.7271  -30.9525   20.2440 C   0  0  0  0  0  0  0  0  0  0  0  0
  -28.1490  -12.0202   18.7644 C   0  0  0  0  0  0  0  0  0  0  0  0
  -30.5076  -12.4982   19.5522 C   0  0  0  0  0  0  0  0  0  0  0  0
  -28.6047  -13.2599   20.9191 C   0  0  0  0  0  0  0  0  0  0  0  0
  -26.3041  -30.0812   21.3661 C   0  0  1  0  0  0  0  0  0  0  0  0
  -28.3005  -27.2584   19.7913 C   0  0  1  0  0  0  0  0  0  0  0  0
  -27.6371  -13.1028   19.7347 C   0  0  2  0  0  0  0  0  0  0  0  0
  -29.7281  -17.0750   23.9752 C   0  0  0  0  0  0  0  0  0  0  0  0
  -28.8921  -21.6276   14.5048 C   0  0  0  0  0  0  0  0  0  0  0  0
  -27.1136  -20.4897   26.1274 C   0  0  0  0  0  0  0  0  0  0  0  0
  -24.6672  -25.9133   17.2713 C   0  0  0  0  0  0  0  0  0  0  0  0
  -25.0475  -23.9153   15.8113 C   0  0  0  0  0  0  0  0  0  0  0  0
  -26.0366  -26.1191   15.1888 C   0  0  0  0  0  0  0  0  0  0  0  0
  -31.3139  -22.3329   17.3532 C   0  0  0  0  0  0  0  0  0  0  0  0
  -30.1365  -19.9267   23.9589 C   0  0  0  0  0  0  0  0  0  0  0  0
  -28.6435  -22.3388   25.3367 C   0  0  0  0  0  0  0  0  0  1  0  0
  -27.0071  -24.8305   17.1355 C   0  0  1  0  0  0  0  0  0  0  0  0
  -29.5365  -22.4592   15.6029 C   0  0  2  0  0  0  0  0  0  0  0  0
  -28.4952  -20.8450   25.6026 C   0  0  2  0  0  0  0  0  0  0  0  0
  -25.6986  -25.1947   16.3787 C   0  0  0  0  0  0  0  0  0  0  0  0
  -25.8167  -11.5457   20.3202 N   0  0  0  0  0  0  0  0  0  0  0  0
  -26.2182  -12.8218   20.1927 N   0  0  0  0  0  0  0  0  0  0  0  0
  -27.8415  -26.0356   19.1293 N   0  0  0  0  0  0  0  0  0  0  0  0
  -29.9616  -13.5405   20.4242 N   0  0  0  0  0  0  0  0  0  0  0  0
  -25.4913  -15.0635   20.4323 N   0  0  0  0  0  0  0  0  0  0  0  0
  -21.8530  -12.6577   21.6031 N   0  0  0  0  0  0  0  0  0  0  0  0
  -30.1032  -15.6190   21.5297 N   0  0  0  0  0  0  0  0  0  0  0  0
  -27.3389  -29.2113   20.8493 N   0  0  0  0  0  0  0  0  0  0  0  0
  -28.0128  -24.1732   16.3079 N   0  0  0  0  0  0  0  0  0  0  0  0
  -30.5827  -21.6313   16.2669 N   0  3  0  0  0  0  0  0  0  0  0  0
  -28.7082  -20.1126   24.3207 N   0  3  0  0  0  0  0  0  0  0  0  0
  -22.6700  -14.7823   21.3256 O   0  0  0  0  0  0  0  0  0  0  0  0
  -25.9694  -27.4885   20.0885 O   0  0  0  0  0  0  0  0  0  0  0  0
  -28.0552  -26.9539   16.9968 O   0  0  0  0  0  0  0  0  0  0  0  0
  -28.1763  -22.2468   17.5884 O   0  0  0  0  0  0  0  0  0  0  0  0
  -31.8743  -14.8280   20.2572 O   0  0  0  0  0  0  0  0  0  0  0  0
  -21.4762   -7.1007   21.7170 O   0  0  0  0  0  0  0  0  0  0  0  0
  -27.6963  -22.7682   24.3596 O   0  0  0  0  0  0  0  0  0  1  0  0
  -23.8126   -3.0071   24.5784 F   0  0  0  0  0  0  0  0  0  0  0  0
  -20.3975   -6.2520   24.1168 F   0  0  0  0  0  0  0  0  0  0  0  0
  -30.8404  -16.9619   19.2239 F   0  0  0  0  0  0  0  0  0  0  0  0
  -30.9504  -21.4903   21.4524 Cl  0  0  0  0  0  0  0  0  0  0  0  0
  1  2  1  0  0  0  0
  1  5  2  0  0  0  0
  2  6  2  0  0  0  0
  3  8  2  0  0  0  0
  3 16  1  0  0  0  0
  4  9  1  0  0  0  0
  4 16  2  0  0  0  0
  5 18  1  0  0  0  0
  6 20  1  0  0  0  0
  7 10  2  0  0  0  0
  7 19  1  0  0  0  0
  8 25  1  0  0  0  0
  9 25  2  0  0  0  0
 10 26  1  0  0  0  0
 11 12  2  0  0  0  0
 11 27  1  0  0  0  0
 12 28  1  0  0  0  0
 13 21  1  0  0  0  0
 13 26  2  0  0  0  0
 14 28  2  0  0  0  0
 14 29  1  0  0  0  0
 15 30  1  0  0  0  0
 15 31  2  0  0  0  0
 16 32  1  0  0  0  0
 17 32  1  0  0  0  0
 17 33  2  0  0  0  0
 17 34  1  0  0  0  0
 18 20  2  0  0  0  0
 18 39  1  0  0  0  0
 19 21  2  0  0  0  0
 19 40  1  0  0  0  0
 20 48  1  0  0  0  0
 21 41  1  0  0  0  0
 22 23  2  0  0  0  0
 22 24  1  0  0  0  0
 22 51  1  0  0  0  0
 23 31  1  0  0  0  0
 23 58  1  0  0  0  0
 24 30  2  0  0  0  0
 24 70  1  0  0  0  0
 25 80  1  0  0  0  0
 26 81  1  0  0  0  0
 27 29  2  0  0  0  0
 27 80  1  0  0  0  0
 28 82  1  0  0  0  0
 29 83  1  0  0  0  0
 30 84  1  0  0  0  0
 31 85  1  0  0  0  0
 32 64  2  0  0  0  0
 33 65  1  0  0  0  0
 33 68  1  0  0  0  0
 34 69  1  0  0  0  0
 34 75  2  0  0  0  0
 35 49  1  0  0  0  0
 35 71  1  0  0  0  0
 35 76  2  0  0  0  0
 36 60  1  0  0  0  0
 36 66  1  0  0  0  0
 36 77  2  0  0  0  0
 37 61  1  0  0  0  0
 37 72  1  0  0  0  0
 37 78  2  0  0  0  0
 38 67  1  0  0  0  0
 38 70  1  0  0  0  0
 38 79  2  0  0  0  0
 39 42  1  0  0  0  0
 40 49  1  0  0  0  0
 41 66  1  0  0  0  0
 42 44  1  0  0  0  0
 43 45  1  0  0  0  0
 43 46  1  0  0  0  0
 44 48  1  0  0  0  0
 45 50  1  0  0  0  0
 46 67  1  0  0  0  0
 47 50  1  0  0  0  0
 47 67  1  0  0  0  0
 48 71  1  0  0  0  0
 49 66  1  0  0  0  0
 50 65  1  0  0  0  0
 52 61  1  0  0  0  0
 53 62  1  0  0  0  0
 54 63  1  0  0  0  0
 55 63  1  0  0  0  0
 56 63  1  0  0  0  0
 57 73  1  0  0  0  0
 58 74  1  0  0  0  0
 59 62  1  0  0  0  0
 59 81  1  0  0  0  0
 60 63  1  0  0  0  0
 60 72  1  0  0  0  0
 61 73  1  0  0  0  0
 62 74  1  0  0  0  0
 64 65  1  0  0  0  0
M  CHG  2  73   1  74   1
M  ISO  4  38 100  59 101  70 100  81 101
M  END
> <Batch ID>
0017

> <Smiles>
CNC(C)C(=O)NC(C(=O)N1Cc2cc([101O:1][101CH2:1]C(C)NCc3c(Cl)cc(F)c([100NH:0][100C:0](=O)N4CCCC(n5nc(-c6ccc(Oc7ccc(F)cc7F)cc6)c(C(N)=O)c5N)C4)c3C)ccc2CC1C(=O)NC1CCCc2ccccc21)C(C)(C)C

> <Shape>
0.307

> <Color>
0.199

> <Negative vol penalty>
0.000

$$$$

  -OEChem-04052316013D

 89 98  0     1  0  0  0  0  0999 V2000
  -30.1027  -24.0303   22.6700 C   0  0  0  0  0  0  0  0  0  0  0  0
  -29.6832  -23.5271   21.4428 C   0  0  0  0  0  0  0  0  0  0  0  0
  -25.9506  -29.8236   20.5113 C   0  0  0  0  0  0  0  0  0  0  0  0
  -23.6534  -29.1071   20.7277 C   0  0  0  0  0  0  0  0  0  0  0  0
  -30.8382  -23.2243   23.5380 C   0  0  0  0  0  0  0  0  0  0  0  0
  -29.9998  -22.2178   21.0824 C   0  0  0  0  0  0  0  0  0  0  0  0
  -26.0594  -19.7475   19.0785 C   0  0  0  0  0  0  0  0  0  0  0  0
  -25.7304  -30.8176   21.4647 C   0  0  0  0  0  0  0  0  0  0  0  0
  -23.4332  -30.1011   21.6812 C   0  0  0  0  0  0  0  0  0  0  0  0
  -25.7404  -20.0282   17.7506 C   0  0  0  0  0  0  0  0  0  0  0  0
  -25.5087  -31.0343   24.8318 C   0  0  0  0  0  0  0  0  0  0  0  0
  -26.4685  -31.1986   25.8305 C   0  0  0  0  0  0  0  0  0  0  0  0
  -26.8794  -18.0176   17.0582 C   0  0  0  0  0  0  0  0  0  0  0  0
  -26.8311  -33.4752   25.1075 C   0  0  0  0  0  0  0  0  0  0  0  0
  -24.9121  -28.9684   20.1427 C   0  0  0  0  0  0  0  0  0  0  0  0
  -26.0652  -26.8842   19.2293 C   0  0  0  0  0  0  0  0  0  0  0  0
  -31.1557  -21.9014   23.1922 C   0  0  0  0  0  0  0  0  0  0  0  0
  -26.8014  -18.6035   19.4057 C   0  0  0  0  0  0  0  0  0  0  0  0
  -30.7413  -21.3937   21.9460 C   0  0  0  0  0  0  0  0  0  0  0  0
  -27.2044  -17.7233   18.3912 C   0  0  0  0  0  0  0  0  0  0  0  0
  -24.4717  -30.9563   22.0497 C   0  0  0  0  0  0  0  0  0  0  0  0
  -26.1529  -19.1647   16.7400 C   0  0  0  0  0  0  0  0  0  0  0  0
  -25.2102  -32.0904   23.9708 C   0  0  0  0  0  0  0  0  0  0  0  0
  -27.1297  -32.4190   25.9684 C   0  0  0  0  0  0  0  0  0  0  0  0
  -25.8714  -33.3109   24.1088 C   0  0  0  0  0  0  0  0  0  0  0  0
  -25.1388  -27.9417   19.1575 C   0  0  0  0  0  0  0  0  0  0  0  0
  -25.8905  -26.1943   18.0546 C   0  0  0  0  0  0  0  0  0  0  0  0
  -27.0001  -26.5550   20.2653 C   0  0  0  0  0  0  0  0  0  0  0  0
  -29.6242  -18.0745   20.7681 C   0  0  0  0  0  0  0  0  0  0  0  0
  -28.6887  -14.9733   20.5963 C   0  0  0  0  0  0  0  0  0  0  0  0
  -26.7414  -12.6141   19.0834 C   0  0  0  0  0  0  0  0  0  0  0  0
  -21.7081  -24.6267   14.3716 C   0  0  0  0  0  0  0  0  0  0  0  0
  -31.9933  -21.0835   24.1431 C   0  0  0  0  0  0  0  0  0  0  0  0
  -27.1144  -18.3008   20.8454 C   0  0  0  0  0  0  0  0  0  0  0  0
  -27.9856  -16.4712   18.6918 C   0  0  0  0  0  0  0  0  0  0  0  0
  -31.9659  -19.5865   23.8457 C   0  0  0  0  0  0  0  0  0  0  0  0
  -23.9670  -27.2772   13.6308 C   0  0  0  0  0  0  0  0  0  0  0  0
  -32.1690  -19.3345   22.3551 C   0  0  0  0  0  0  0  0  0  0  0  0
  -24.5856  -27.6205   14.9871 C   0  0  0  0  0  0  0  0  0  0  0  0
  -27.0903  -21.3489   14.6847 C   0  0  0  0  0  0  0  0  0  0  0  0
  -23.3946  -18.1358   13.2822 C   0  0  0  0  0  0  0  0  0  0  0  0
  -22.4943  -26.8955   13.7626 C   0  0  0  0  0  0  0  0  0  0  0  0
  -22.8360  -26.1651   16.0914 C   0  0  0  0  0  0  0  0  0  0  0  0
  -27.0130  -22.7815   14.1877 C   0  0  0  0  0  0  0  0  0  0  0  0
  -24.6460  -22.4162   13.4500 C   0  0  0  0  0  0  0  0  0  0  0  0
  -31.0439  -19.9706   21.5298 C   0  0  1  0  0  0  0  0  0  0  0  0
  -28.3164  -17.3767   21.0141 C   0  0  1  0  0  0  0  0  0  0  0  0
  -23.2064  -19.0065   14.4954 C   0  0  2  0  0  0  0  0  0  0  0  0
  -24.6934  -20.9692   13.9406 C   0  0  1  0  0  0  0  0  0  0  0  0
  -24.3350  -26.5023   16.0168 C   0  0  2  0  0  0  0  0  0  0  0  0
  -25.7149  -20.8090   15.0809 C   0  0  1  0  0  0  0  0  0  1  0  0
  -22.0357  -18.2086   13.9452 C   0  0  0  0  0  0  0  0  0  0  0  0
  -20.9254  -18.9085   13.2067 C   0  0  0  0  0  0  0  0  0  0  0  0
  -21.5791  -17.0178   14.7474 C   0  0  0  0  0  0  0  0  0  0  0  0
  -21.4745  -20.4324   19.8155 C   0  0  0  0  0  0  0  0  0  0  0  0
  -26.2226  -10.1594   19.1354 C   0  0  0  0  0  0  0  0  0  0  0  0
  -31.3193  -14.3894   19.1648 C   0  0  0  0  0  0  0  0  0  0  0  0
  -30.3474  -12.2066   18.4171 C   0  0  0  0  0  0  0  0  0  0  0  0
  -30.6447  -12.6694   20.8502 C   0  0  0  0  0  0  0  0  0  0  0  0
  -23.9014  -13.1102   19.7524 C   0  0  0  0  0  0  0  0  0  0  0  0
  -21.6456  -20.1896   18.3236 C   0  0  0  0  0  0  0  0  0  0  0  0
  -21.4171  -21.4714   17.5199 C   0  0  0  0  0  0  0  0  0  0  0  0
  -20.9872  -22.3761   15.1293 C   0  0  0  0  0  0  0  0  0  0  0  0
  -28.8232  -13.8711   19.5735 C   0  0  1  0  0  0  0  0  0  0  0  0
  -25.8382  -11.5360   19.6549 C   0  0  2  0  0  0  0  0  0  0  0  0
  -23.2984  -20.5152   14.3761 C   0  0  2  0  0  0  0  0  0  0  0  0
  -21.5599  -21.2623   16.0065 C   0  0  1  0  0  0  0  0  0  0  0  0
  -30.2706  -13.3087   19.4952 C   0  0  0  0  0  0  0  0  0  0  0  0
  -24.4283  -27.9289   18.0265 N   0  0  0  0  0  0  0  0  0  0  0  0
  -24.9086  -26.8550   17.3768 N   0  0  0  0  0  0  0  0  0  0  0  0
  -28.2725  -16.2223   20.1142 N   0  0  0  0  0  0  0  0  0  0  0  0
  -22.3254  -25.8294   14.7530 N   0  0  0  0  0  0  0  0  0  0  0  0
  -26.4827  -25.0931   17.5456 N   0  0  0  0  0  0  0  0  0  0  0  0
  -26.5856  -25.6936   21.2902 N   0  0  0  0  0  0  0  0  0  0  0  0
  -29.8478  -19.1585   21.5954 N   0  0  0  0  0  0  0  0  0  0  0  0
  -27.8125  -12.8749   19.9116 N   0  0  0  0  0  0  0  0  0  0  0  0
  -21.5935  -23.6666   15.3695 N   0  0  0  0  0  0  0  0  0  0  0  0
  -26.0222  -22.8591   13.0741 N   0  3  0  0  0  0  0  0  0  0  0  0
  -24.4190  -11.7989   19.2838 N   0  3  0  0  0  0  0  0  0  0  0  0
  -23.0090  -21.1205   15.7011 N   0  3  0  0  0  0  0  0  0  0  0  0
  -28.1632  -27.0242   20.2905 O   0  0  0  0  0  0  0  0  0  0  0  0
  -30.3754  -17.6593   19.8935 O   0  0  0  0  0  0  0  0  0  0  0  0
  -28.9367  -14.7329   21.7805 O   0  0  0  0  0  0  0  0  0  0  0  0
  -26.5209  -13.1667   18.0080 O   0  0  0  0  0  0  0  0  0  0  0  0
  -21.2949  -24.4215   13.2253 O   0  0  0  0  0  0  0  0  0  0  0  0
  -24.2566  -31.9260   22.9803 O   0  0  0  0  0  0  0  0  0  0  0  0
  -25.8434  -19.4367   15.4430 O   0  0  0  0  0  0  0  0  0  1  0  0
  -28.0502  -32.5771   26.9285 F   0  0  0  0  0  0  0  0  0  0  0  0
  -25.5880  -34.3295   23.2854 F   0  0  0  0  0  0  0  0  0  0  0  0
  1  2  1  0  0  0  0
  1  5  2  0  0  0  0
  2  6  2  0  0  0  0
  3  8  2  0  0  0  0
  3 15  1  0  0  0  0
  4  9  1  0  0  0  0
  4 15  2  0  0  0  0
  5 17  1  0  0  0  0
  6 19  1  0  0  0  0
  7 10  2  0  0  0  0
  7 18  1  0  0  0  0
  8 21  1  0  0  0  0
  9 21  2  0  0  0  0
 10 22  1  0  0  0  0
 11 12  2  0  0  0  0
 11 23  1  0  0  0  0
 12 24  1  0  0  0  0
 13 20  1  0  0  0  0
 13 22  2  0  0  0  0
 14 24  2  0  0  0  0
 14 25  1  0  0  0  0
 15 26  1  0  0  0  0
 16 26  1  0  0  0  0
 16 27  2  0  0  0  0
 16 28  1  0  0  0  0
 17 19  2  0  0  0  0
 17 33  1  0  0  0  0
 18 20  2  0  0  0  0
 18 34  1  0  0  0  0
 19 46  1  0  0  0  0
 20 35  1  0  0  0  0
 21 86  1  0  0  0  0
 22 87  1  0  0  0  0
 23 25  2  0  0  0  0
 23 86  1  0  0  0  0
 24 88  1  0  0  0  0
 25 89  1  0  0  0  0
 26 69  2  0  0  0  0
 27 70  1  0  0  0  0
 27 73  1  0  0  0  0
 28 74  1  0  0  0  0
 28 81  2  0  0  0  0
 29 47  1  0  0  0  0
 29 75  1  0  0  0  0
 29 82  2  0  0  0  0
 30 64  1  0  0  0  0
 30 71  1  0  0  0  0
 30 83  2  0  0  0  0
 31 65  1  0  0  0  0
 31 76  1  0  0  0  0
 31 84  2  0  0  0  0
 32 72  1  0  0  0  0
 32 77  1  0  0  0  0
 32 85  2  0  0  0  0
 33 36  1  0  0  0  0
 34 47  1  0  0  0  0
 35 71  1  0  0  0  0
 36 38  1  0  0  0  0
 37 39  1  0  0  0  0
 37 42  1  0  0  0  0
 38 46  1  0  0  0  0
 39 50  1  0  0  0  0
 40 44  1  0  0  0  0
 40 51  1  0  0  0  0
 41 48  1  0  0  0  0
 41 52  1  0  0  0  0
 42 72  1  0  0  0  0
 43 50  1  0  0  0  0
 43 72  1  0  0  0  0
 44 78  1  0  0  0  0
 45 49  1  0  0  0  0
 45 78  1  0  0  0  0
 46 75  1  0  0  0  0
 47 71  1  0  0  0  0
 48 52  1  0  0  0  0
 48 66  1  0  0  0  0
 49 51  1  0  0  0  0
 49 66  1  0  0  0  0
 50 70  1  0  0  0  0
 51 87  1  0  0  0  0
 52 53  1  0  0  0  0
 52 54  1  0  0  0  0
 55 61  1  0  0  0  0
 56 65  1  0  0  0  0
 57 68  1  0  0  0  0
 58 68  1  0  0  0  0
 59 68  1  0  0  0  0
 60 79  1  0  0  0  0
 61 62  1  0  0  0  0
 62 67  1  0  0  0  0
 63 67  1  0  0  0  0
 63 77  1  0  0  0  0
 64 68  1  0  0  0  0
 64 76  1  0  0  0  0
 65 79  1  0  0  0  0
 66 80  1  0  0  0  0
 67 80  1  0  0  0  0
 69 70  1  0  0  0  0
M  CHG  3  78   1  79   1  80   1
M  ISO  4  32 100  51 101  77 100  87 101
M  END
> <Batch ID>
0017

> <Smiles>
CCCC(C[100NH:0][100C:0](=O)N1CCCC(n2nc(-c3ccc(Oc4ccc(F)cc4F)cc3)c(C(N)=O)c2N)C1)NC(C1CC1(C)C)C1CNCC[101CH:1]1[101O:1]c1ccc2c(c1)CN(C(=O)C(NC(=O)C(C)NC)C(C)(C)C)C(C(=O)NC1CCCc3ccccc31)C2

> <Shape>
0.215

> <Color>
0.054

> <Negative vol penalty>
0.000

$$$$

  -OEChem-04052316013D

 85 92  0     1  0  0  0  0  0999 V2000
  -24.6608  -11.0532   20.3104 C   0  0  0  0  0  0  0  0  0  0  0  0
  -23.9625  -12.2019   19.9521 C   0  0  0  0  0  0  0  0  0  0  0  0
  -29.2519  -27.8928   18.1555 C   0  0  0  0  0  0  0  0  0  0  0  0
  -29.7826  -27.4085   20.4622 C   0  0  0  0  0  0  0  0  0  0  0  0
  -25.8057  -11.1526   21.0999 C   0  0  0  0  0  0  0  0  0  0  0  0
  -24.4081  -13.4506   20.3841 C   0  0  0  0  0  0  0  0  0  0  0  0
  -24.0620  -18.7440   17.3237 C   0  0  0  0  0  0  0  0  0  0  0  0
  -30.5986  -27.7594   17.8176 C   0  0  0  0  0  0  0  0  0  0  0  0
  -31.1293  -27.2749   20.1243 C   0  0  0  0  0  0  0  0  0  0  0  0
  -23.1643  -19.8086   17.3897 C   0  0  0  0  0  0  0  0  0  0  0  0
  -33.4147  -29.6168   18.0275 C   0  0  0  0  0  0  0  0  0  0  0  0
  -33.9702  -30.5824   17.1881 C   0  0  0  0  0  0  0  0  0  0  0  0
  -24.6659  -20.9748   18.8744 C   0  0  0  0  0  0  0  0  0  0  0  0
  -34.5045  -28.8690   15.5707 C   0  0  0  0  0  0  0  0  0  0  0  0
  -28.8439  -27.7174   19.4778 C   0  0  0  0  0  0  0  0  0  0  0  0
  -26.4749  -26.8433   19.8402 C   0  0  0  0  0  0  0  0  0  0  0  0
  -26.2710  -12.4040   21.5338 C   0  0  0  0  0  0  0  0  0  0  0  0
  -25.2655  -18.7821   18.0424 C   0  0  0  0  0  0  0  0  0  0  0  0
  -25.5595  -13.5667   21.1813 C   0  0  0  0  0  0  0  0  0  0  0  0
  -25.5784  -19.9104   18.8138 C   0  0  0  0  0  0  0  0  0  0  0  0
  -31.5373  -27.4504   18.8020 C   0  0  0  0  0  0  0  0  0  0  0  0
  -23.4649  -20.9230   18.1674 C   0  0  0  0  0  0  0  0  0  0  0  0
  -33.4041  -28.2772   17.6385 C   0  0  0  0  0  0  0  0  0  0  0  0
  -34.5151  -30.2085   15.9597 C   0  0  0  0  0  0  0  0  0  0  0  0
  -33.9490  -27.9034   16.4101 C   0  0  0  0  0  0  0  0  0  0  0  0
  -27.4530  -27.8557   19.8276 C   0  0  0  0  0  0  0  0  0  0  0  0
  -25.3258  -27.4811   20.2394 C   0  0  0  0  0  0  0  0  0  0  0  0
  -26.5943  -25.4509   19.5199 C   0  0  0  0  0  0  0  0  0  0  0  0
  -26.5461  -17.0332   20.3673 C   0  0  0  0  0  0  0  0  0  0  0  0
  -29.1293  -18.9213   19.8338 C   0  0  0  0  0  0  0  0  0  0  0  0
  -20.0662  -28.1082   24.9678 C   0  0  0  0  0  0  0  0  0  0  0  0
  -30.3627  -21.8818   18.6673 C   0  0  0  0  0  0  0  0  0  0  0  0
  -23.5554  -31.6873   23.8014 C   0  0  0  0  0  0  0  0  0  0  0  0
  -27.4866  -12.4573   22.4250 C   0  0  0  0  0  0  0  0  0  0  0  0
  -26.2353  -17.6370   17.9394 C   0  0  0  0  0  0  0  0  0  0  0  0
  -26.8663  -20.0093   19.5883 C   0  0  0  0  0  0  0  0  0  0  0  0
  -28.1046  -13.8492   22.5294 C   0  0  0  0  0  0  0  0  0  0  0  0
  -23.7827  -32.1778   20.2823 C   0  0  0  0  0  0  0  0  0  0  0  0
  -27.0230  -14.8967   22.7735 C   0  0  0  0  0  0  0  0  0  0  0  0
  -24.6614  -31.0192   19.8074 C   0  0  0  0  0  0  0  0  0  0  0  0
  -24.2292  -32.7031   21.6449 C   0  0  0  0  0  0  0  0  0  0  0  0
  -25.2128  -30.5191   22.2250 C   0  0  0  0  0  0  0  0  0  0  0  0
  -26.0255  -14.9413   21.6097 C   0  0  1  0  0  0  0  0  0  0  0  0
  -27.1978  -17.5611   19.1206 C   0  0  1  0  0  0  0  0  0  0  0  0
  -24.7668  -29.9190   20.8807 C   0  0  2  0  0  0  0  0  0  0  0  0
  -32.0767  -23.5891   18.0004 C   0  0  0  0  0  0  0  0  0  0  0  0
  -29.1158  -19.5682   22.8156 C   0  0  0  0  0  0  0  0  0  0  0  0
  -30.6169  -21.5122   22.3296 C   0  0  0  0  0  0  0  0  0  0  0  0
  -31.3875  -19.1907   21.8403 C   0  0  0  0  0  0  0  0  0  0  0  0
  -18.9582  -29.0509   22.9105 C   0  0  0  0  0  0  0  0  0  0  0  0
  -30.5549  -20.7873   15.9243 C   0  0  0  0  0  0  0  0  0  0  0  0
  -20.9976  -29.3109   24.8799 C   0  0  0  0  0  0  0  0  0  0  0  0
  -22.0446  -29.3255   25.9976 C   0  0  0  0  0  0  0  0  0  0  0  0
  -19.6847  -24.7083   21.1103 C   0  0  0  0  0  0  0  0  0  0  0  0
  -19.6014  -25.5481   22.3869 C   0  0  0  0  0  0  0  0  0  0  0  0
  -21.0791  -24.1022   20.9361 C   0  0  0  0  0  0  0  0  0  0  0  0
  -18.2288  -26.1897   22.6026 C   0  0  0  0  0  0  0  0  0  0  0  0
  -21.1750  -23.2905   19.6461 C   0  0  0  0  0  0  0  0  0  0  0  0
  -22.9670  -30.5374   25.9205 C   0  0  0  0  0  0  0  0  0  0  0  0
  -18.1204  -26.9615   23.9122 C   0  0  0  0  0  0  0  0  0  0  0  0
  -22.5715  -22.7197   19.4440 C   0  0  0  0  0  0  0  0  0  1  0  0
  -29.6170  -20.2436   20.3746 C   0  0  1  0  0  0  0  0  0  0  0  0
  -31.5270  -22.1944   17.7447 C   0  0  2  0  0  0  0  0  0  0  0  0
  -30.1591  -20.1263   21.8271 C   0  0  0  0  0  0  0  0  0  0  0  0
  -26.9676  -29.0462   20.1898 N   0  0  0  0  0  0  0  0  0  0  0  0
  -25.6719  -28.7859   20.4337 N   0  0  0  0  0  0  0  0  0  0  0  0
  -27.7792  -18.8614   19.4604 N   0  0  0  0  0  0  0  0  0  0  0  0
  -24.3073  -31.6104   22.6174 N   0  0  0  0  0  0  0  0  0  0  0  0
  -24.0631  -27.0474   20.4396 N   0  0  0  0  0  0  0  0  0  0  0  0
  -27.8474  -24.9607   19.1278 N   0  0  0  0  0  0  0  0  0  0  0  0
  -26.5912  -15.6573   20.4864 N   0  0  0  0  0  0  0  0  0  0  0  0
  -30.5920  -20.7439   19.4115 N   0  0  0  0  0  0  0  0  0  0  0  0
  -23.6823  -30.6068   24.6658 N   0  0  0  0  0  0  0  0  0  0  0  0
  -19.0750  -28.0351   23.9637 N   0  0  0  0  0  0  0  0  0  0  0  0
  -31.0956  -22.1131   16.3205 N   0  3  0  0  0  0  0  0  0  0  0  0
  -25.6151  -24.6681   19.5637 O   0  0  0  0  0  0  0  0  0  0  0  0
  -26.0411  -17.8165   21.1631 O   0  0  0  0  0  0  0  0  0  0  0  0
  -29.9190  -17.9783   19.7392 O   0  0  0  0  0  0  0  0  0  0  0  0
  -20.2001  -27.2778   25.8705 O   0  0  0  0  0  0  0  0  0  0  0  0
  -29.3526  -22.5795   18.7250 O   0  0  0  0  0  0  0  0  0  0  0  0
  -22.8211  -32.6453   24.0660 O   0  0  0  0  0  0  0  0  0  0  0  0
  -32.8514  -27.3199   18.4726 O   0  0  0  0  0  0  0  0  0  0  0  0
  -22.5901  -21.9633   18.2341 O   0  0  0  0  0  0  0  0  0  1  0  0
  -35.0472  -31.1361   15.1531 F   0  0  0  0  0  0  0  0  0  0  0  0
  -33.9406  -26.6182   16.0304 F   0  0  0  0  0  0  0  0  0  0  0  0
  1  2  1  0  0  0  0
  1  5  2  0  0  0  0
  2  6  2  0  0  0  0
  3  8  2  0  0  0  0
  3 15  1  0  0  0  0
  4  9  1  0  0  0  0
  4 15  2  0  0  0  0
  5 17  1  0  0  0  0
  6 19  1  0  0  0  0
  7 10  2  0  0  0  0
  7 18  1  0  0  0  0
  8 21  1  0  0  0  0
  9 21  2  0  0  0  0
 10 22  1  0  0  0  0
 11 12  2  0  0  0  0
 11 23  1  0  0  0  0
 12 24  1  0  0  0  0
 13 20  1  0  0  0  0
 13 22  2  0  0  0  0
 14 24  2  0  0  0  0
 14 25  1  0  0  0  0
 15 26  1  0  0  0  0
 16 26  1  0  0  0  0
 16 27  2  0  0  0  0
 16 28  1  0  0  0  0
 17 19  2  0  0  0  0
 17 34  1  0  0  0  0
 18 20  2  0  0  0  0
 18 35  1  0  0  0  0
 19 43  1  0  0  0  0
 20 36  1  0  0  0  0
 21 82  1  0  0  0  0
 22 83  1  0  0  0  0
 23 25  2  0  0  0  0
 23 82  1  0  0  0  0
 24 84  1  0  0  0  0
 25 85  1  0  0  0  0
 26 65  2  0  0  0  0
 27 66  1  0  0  0  0
 27 69  1  0  0  0  0
 28 70  1  0  0  0  0
 28 76  2  0  0  0  0
 29 44  1  0  0  0  0
 29 71  1  0  0  0  0
 29 77  2  0  0  0  0
 30 62  1  0  0  0  0
 30 67  1  0  0  0  0
 30 78  2  0  0  0  0
 31 52  1  0  0  0  0
 31 74  1  0  0  0  0
 31 79  2  0  0  0  0
 32 63  1  0  0  0  0
 32 72  1  0  0  0  0
 32 80  2  0  0  0  0
 33 68  1  0  0  0  0
 33 73  1  0  0  0  0
 33 81  2  0  0  0  0
 34 37  1  0  0  0  0
 35 44  1  0  0  0  0
 36 67  1  0  0  0  0
 37 39  1  0  0  0  0
 38 40  1  0  0  0  0
 38 41  1  0  0  0  0
 39 43  1  0  0  0  0
 40 45  1  0  0  0  0
 41 68  1  0  0  0  0
 42 45  1  0  0  0  0
 42 68  1  0  0  0  0
 43 71  1  0  0  0  0
 44 67  1  0  0  0  0
 45 66  1  0  0  0  0
 46 63  1  0  0  0  0
 47 64  1  0  0  0  0
 48 64  1  0  0  0  0
 49 64  1  0  0  0  0
 50 74  1  0  0  0  0
 51 75  1  0  0  0  0
 52 53  1  0  0  0  0
 53 59  1  0  0  0  0
 54 55  1  0  0  0  0
 54 56  1  0  0  0  0
 55 57  1  0  0  0  0
 56 58  1  0  0  0  0
 57 60  1  0  0  0  0
 58 61  1  0  0  0  0
 59 73  1  0  0  0  0
 60 74  1  0  0  0  0
 61 83  1  0  0  0  0
 62 64  1  0  0  0  0
 62 72  1  0  0  0  0
 63 75  1  0  0  0  0
 65 66  1  0  0  0  0
M  CHG  1  75   1
M  ISO  4  33 100  61 101  73 100  83 101
M  END
> <Batch ID>
0017

> <Smiles>
CNC(C)C(=O)NC(C(=O)N1Cc2cc([101O:1][101CH2:1]CCCCCCN(C)C(=O)CCC[100NH:0][100C:0](=O)N3CCCC(n4nc(-c5ccc(Oc6ccc(F)cc6F)cc5)c(C(N)=O)c4N)C3)ccc2CC1C(=O)NC1CCCc2ccccc21)C(C)(C)C

> <Shape>
0.219

> <Color>
0.079

> <Negative vol penalty>
0.000

$$$$

  -OEChem-04052316013D

 86 94  0     1  0  0  0  0  0999 V2000
  -21.9948  -22.5782   20.5833 C   0  0  0  0  0  0  0  0  0  0  0  0
  -22.9025  -22.0999   19.6438 C   0  0  0  0  0  0  0  0  0  0  0  0
  -27.4394  -28.5320   20.2019 C   0  0  0  0  0  0  0  0  0  0  0  0
  -25.4683  -27.1423   20.0578 C   0  0  0  0  0  0  0  0  0  0  0  0
  -21.8464  -21.9220   21.8045 C   0  0  0  0  0  0  0  0  0  0  0  0
  -23.6632  -20.9657   19.9254 C   0  0  0  0  0  0  0  0  0  0  0  0
  -26.6164  -15.2848   16.7125 C   0  0  0  0  0  0  0  0  0  0  0  0
  -26.6404  -29.6729   20.1295 C   0  0  0  0  0  0  0  0  0  0  0  0
  -24.6692  -28.2833   19.9854 C   0  0  0  0  0  0  0  0  0  0  0  0
  -27.8408  -14.6280   16.5978 C   0  0  0  0  0  0  0  0  0  0  0  0
  -23.4305  -30.5942   22.1175 C   0  0  0  0  0  0  0  0  0  0  0  0
  -22.2788  -30.6279   22.9037 C   0  0  0  0  0  0  0  0  0  0  0  0
  -27.4427  -13.5302   18.7086 C   0  0  0  0  0  0  0  0  0  0  0  0
  -30.4733  -17.6334   19.9540 C   0  0  0  0  0  0  0  0  0  0  0  0
  -20.9280  -30.8657   20.9148 C   0  0  0  0  0  0  0  0  0  0  0  0
  -26.8534  -27.2667   20.1661 C   0  0  0  0  0  0  0  0  0  0  0  0
  -28.5469  -25.7223   21.2863 C   0  0  0  0  0  0  0  0  0  0  0  0
  -22.5986  -20.7736   22.0974 C   0  0  0  0  0  0  0  0  0  0  0  0
  -25.7995  -15.0772   17.8332 C   0  0  0  0  0  0  0  0  0  0  0  0
  -23.5257  -20.2943   21.1522 C   0  0  0  0  0  0  0  0  0  0  0  0
  -26.2073  -14.1836   18.8339 C   0  0  0  0  0  0  0  0  0  0  0  0
  -31.3655  -16.7712   20.5912 C   0  0  0  0  0  0  0  0  0  0  0  0
  -30.5716  -17.5379   22.7404 C   0  0  0  0  0  0  0  0  0  0  0  0
  -29.6302  -18.4480   20.7100 C   0  0  0  0  0  0  0  0  0  0  0  0
  -25.2553  -29.5486   20.0212 C   0  0  0  0  0  0  0  0  0  0  0  0
  -28.2555  -13.7528   17.5973 C   0  0  0  0  0  0  0  0  0  0  0  0
  -23.3310  -30.6963   20.7299 C   0  0  0  0  0  0  0  0  0  0  0  0
  -21.0276  -30.7637   22.3024 C   0  0  0  0  0  0  0  0  0  0  0  0
  -22.0797  -30.8320   20.1286 C   0  0  0  0  0  0  0  0  0  0  0  0
  -31.4147  -16.7234   21.9844 C   0  0  0  0  0  0  0  0  0  0  0  0
  -29.6794  -18.4002   22.1031 C   0  0  0  0  0  0  0  0  0  0  0  0
  -27.6784  -26.0877   20.2403 C   0  0  0  0  0  0  0  0  0  0  0  0
  -29.0923  -24.5294   20.8789 C   0  0  0  0  0  0  0  0  0  0  0  0
  -31.6007  -12.8641   18.4652 C   0  0  0  0  0  0  0  0  0  0  0  0
  -28.8349  -26.4006   22.5162 C   0  0  0  0  0  0  0  0  0  0  0  0
  -32.4501  -13.6809   19.1083 C   0  0  0  0  0  0  0  0  0  0  0  0
  -24.6746  -16.9249   20.1622 C   0  0  0  0  0  0  0  0  0  0  0  0
  -23.0314  -14.2456   20.9643 C   0  0  0  0  0  0  0  0  0  0  0  0
  -22.8019  -10.8427   20.8438 C   0  0  0  0  0  0  0  0  0  0  0  0
  -28.5884  -19.4527   18.6481 C   0  0  0  0  0  0  0  0  0  0  0  0
  -22.4378  -20.1258   23.4498 C   0  0  0  0  0  0  0  0  0  0  0  0
  -24.4694  -15.7729   17.9291 C   0  0  0  0  0  0  0  0  0  0  0  0
  -25.3579  -13.9106   20.0473 C   0  0  0  0  0  0  0  0  0  0  0  0
  -23.0108  -18.7127   23.5204 C   0  0  0  0  0  0  0  0  0  0  0  0
  -28.9184  -22.1890   16.3940 C   0  0  0  0  0  0  0  0  0  0  0  0
  -24.4013  -18.6687   22.8947 C   0  0  0  0  0  0  0  0  0  0  0  0
  -28.6966  -23.4172   17.2798 C   0  0  0  0  0  0  0  0  0  0  0  0
  -28.0223  -21.0227   16.8069 C   0  0  0  0  0  0  0  0  0  0  0  0
  -27.8777  -21.8808   19.1117 C   0  0  0  0  0  0  0  0  0  0  0  0
  -24.3510  -19.0525   21.4110 C   0  0  1  0  0  0  0  0  0  0  0  0
  -23.9525  -15.8792   19.3605 C   0  0  1  0  0  0  0  0  0  0  0  0
  -28.8047  -23.0603   18.7753 C   0  0  2  0  0  0  0  0  0  0  0  0
  -30.6550  -17.4538   24.2309 C   0  0  0  0  0  0  0  0  0  0  0  0
  -33.9191  -13.7189   18.8230 C   0  0  0  0  0  0  0  0  0  0  0  0
  -21.8013   -8.5637   21.1633 C   0  0  0  0  0  0  0  0  0  0  0  0
  -24.1819  -14.5326   23.7757 C   0  0  0  0  0  0  0  0  0  0  0  0
  -23.5141  -12.1601   24.2159 C   0  0  0  0  0  0  0  0  0  0  0  0
  -21.7721  -13.8687   23.6975 C   0  0  0  0  0  0  0  0  0  0  0  0
  -21.3878  -10.9723   18.2472 C   0  0  0  0  0  0  0  0  0  0  0  0
  -32.2698  -15.8944   19.7758 C   0  0  0  0  0  0  0  0  0  0  0  0
  -30.1263  -12.7857   18.7022 C   0  0  0  0  0  0  0  0  0  1  0  0
  -23.2971  -13.0543   21.8527 C   0  0  1  0  0  0  0  0  0  0  0  0
  -21.6446   -9.9227   20.4991 C   0  0  2  0  0  0  0  0  0  0  0  0
  -23.2084  -13.4103   23.3636 C   0  0  0  0  0  0  0  0  0  0  0  0
  -27.6694  -25.1989   19.2433 N   0  0  0  0  0  0  0  0  0  0  0  0
  -28.5391  -24.2633   19.6609 N   0  0  0  0  0  0  0  0  0  0  0  0
  -24.0687  -14.6198   20.0984 N   0  0  0  0  0  0  0  0  0  0  0  0
  -28.1809  -20.7388   18.2349 N   0  0  0  0  0  0  0  0  0  0  0  0
  -29.9863  -23.6927   21.4471 N   0  0  0  0  0  0  0  0  0  0  0  0
  -28.0500  -26.1083   23.6400 N   0  0  0  0  0  0  0  0  0  0  0  0
  -28.7368  -19.3103   20.0273 N   0  0  0  0  0  0  0  0  0  0  0  0
  -23.8616  -17.9448   20.6186 N   0  0  0  0  0  0  0  0  0  0  0  0
  -22.3672  -12.0133   21.4286 N   0  0  0  0  0  0  0  0  0  0  0  0
  -21.5661   -9.7192   19.0249 N   0  3  0  0  0  0  0  0  0  0  0  0
  -29.7502  -27.2530   22.6115 O   0  0  0  0  0  0  0  0  0  0  0  0
  -25.8798  -16.8139   20.3538 O   0  0  0  0  0  0  0  0  0  0  0  0
  -21.9410  -14.8185   21.0310 O   0  0  0  0  0  0  0  0  0  0  0  0
  -23.9746  -10.5504   20.6203 O   0  0  0  0  0  0  0  0  0  0  0  0
  -28.8170  -18.5524   17.8362 O   0  0  0  0  0  0  0  0  0  0  0  0
  -24.4752  -30.6618   19.9507 O   0  0  0  0  0  0  0  0  0  0  0  0
  -29.4505  -13.1109   17.4882 O   0  0  0  0  0  0  0  0  0  1  0  0
  -32.0077  -14.5482   20.0878 O   0  0  0  0  0  0  0  0  0  0  0  0
  -19.9216  -30.7945   23.0574 F   0  0  0  0  0  0  0  0  0  0  0  0
  -21.9777  -30.9293   18.7959 F   0  0  0  0  0  0  0  0  0  0  0  0
  -32.2725  -15.8927   22.5956 F   0  0  0  0  0  0  0  0  0  0  0  0
  -28.6336  -19.4101   23.0477 Cl  0  0  0  0  0  0  0  0  0  0  0  0
  1  2  1  0  0  0  0
  1  5  2  0  0  0  0
  2  6  2  0  0  0  0
  3  8  2  0  0  0  0
  3 16  1  0  0  0  0
  4  9  1  0  0  0  0
  4 16  2  0  0  0  0
  5 18  1  0  0  0  0
  6 20  1  0  0  0  0
  7 10  2  0  0  0  0
  7 19  1  0  0  0  0
  8 25  1  0  0  0  0
  9 25  2  0  0  0  0
 10 26  1  0  0  0  0
 11 12  2  0  0  0  0
 11 27  1  0  0  0  0
 12 28  1  0  0  0  0
 13 21  1  0  0  0  0
 13 26  2  0  0  0  0
 14 22  1  0  0  0  0
 14 24  2  0  0  0  0
 15 28  2  0  0  0  0
 15 29  1  0  0  0  0
 16 32  1  0  0  0  0
 17 32  1  0  0  0  0
 17 33  2  0  0  0  0
 17 35  1  0  0  0  0
 18 20  2  0  0  0  0
 18 41  1  0  0  0  0
 19 21  2  0  0  0  0
 19 42  1  0  0  0  0
 20 50  1  0  0  0  0
 21 43  1  0  0  0  0
 22 30  2  0  0  0  0
 22 60  1  0  0  0  0
 23 30  1  0  0  0  0
 23 31  2  0  0  0  0
 23 53  1  0  0  0  0
 24 31  1  0  0  0  0
 24 71  1  0  0  0  0
 25 80  1  0  0  0  0
 26 81  1  0  0  0  0
 27 29  2  0  0  0  0
 27 80  1  0  0  0  0
 28 83  1  0  0  0  0
 29 84  1  0  0  0  0
 30 85  1  0  0  0  0
 31 86  1  0  0  0  0
 32 65  2  0  0  0  0
 33 66  1  0  0  0  0
 33 69  1  0  0  0  0
 34 36  2  0  0  0  0
 34 61  1  0  0  0  0
 35 70  1  0  0  0  0
 35 75  2  0  0  0  0
 36 54  1  0  0  0  0
 36 82  1  0  0  0  0
 37 51  1  0  0  0  0
 37 72  1  0  0  0  0
 37 76  2  0  0  0  0
 38 62  1  0  0  0  0
 38 67  1  0  0  0  0
 38 77  2  0  0  0  0
 39 63  1  0  0  0  0
 39 73  1  0  0  0  0
 39 78  2  0  0  0  0
 40 68  1  0  0  0  0
 40 71  1  0  0  0  0
 40 79  2  0  0  0  0
 41 44  1  0  0  0  0
 42 51  1  0  0  0  0
 43 67  1  0  0  0  0
 44 46  1  0  0  0  0
 45 47  1  0  0  0  0
 45 48  1  0  0  0  0
 46 50  1  0  0  0  0
 47 52  1  0  0  0  0
 48 68  1  0  0  0  0
 49 52  1  0  0  0  0
 49 68  1  0  0  0  0
 50 72  1  0  0  0  0
 51 67  1  0  0  0  0
 52 66  1  0  0  0  0
 55 63  1  0  0  0  0
 56 64  1  0  0  0  0
 57 64  1  0  0  0  0
 58 64  1  0  0  0  0
 59 74  1  0  0  0  0
 60 82  1  0  0  0  0
 61 81  1  0  0  0  0
 62 64  1  0  0  0  0
 62 73  1  0  0  0  0
 63 74  1  0  0  0  0
 65 66  1  0  0  0  0
M  CHG  1  74   1
M  ISO  4  40 100  61 101  71 100  81 101
M  END
> <Batch ID>
0017

> <Smiles>
CNC(C)C(=O)NC(C(=O)N1Cc2cc([101O:1][101CH2:1]C=C(C)OCc3cc([100NH:0][100C:0](=O)N4CCCC(n5nc(-c6ccc(Oc7ccc(F)cc7F)cc6)c(C(N)=O)c5N)C4)c(Cl)c(C)c3F)ccc2CC1C(=O)NC1CCCc2ccccc21)C(C)(C)C

> <Shape>
0.254

> <Color>
0.058

> <Negative vol penalty>
0.000

$$$$

  -OEChem-04052316013D

 80 88  0     1  0  0  0  0  0999 V2000
  -27.9402  -35.2459   24.7350 C   0  0  0  0  0  0  0  0  0  0  0  0
  -28.7270  -34.1982   24.2675 C   0  0  0  0  0  0  0  0  0  0  0  0
  -24.2967   -9.5470   21.4829 C   0  0  0  0  0  0  0  0  0  0  0  0
  -24.7849  -10.6736   23.5636 C   0  0  0  0  0  0  0  0  0  0  0  0
  -26.5886  -35.0347   25.0046 C   0  0  0  0  0  0  0  0  0  0  0  0
  -28.1629  -32.9382   24.0703 C   0  0  0  0  0  0  0  0  0  0  0  0
  -28.6843  -27.1901   19.8273 C   0  0  0  0  0  0  0  0  0  0  0  0
  -23.9220   -8.4043   22.1895 C   0  0  0  0  0  0  0  0  0  0  0  0
  -24.4102   -9.5309   24.2703 C   0  0  0  0  0  0  0  0  0  0  0  0
  -28.8348  -25.8061   19.9023 C   0  0  0  0  0  0  0  0  0  0  0  0
  -21.2316   -7.3208   23.9277 C   0  0  0  0  0  0  0  0  0  0  0  0
  -20.0574   -6.6752   23.5406 C   0  0  0  0  0  0  0  0  0  0  0  0
  -26.4710  -25.5782   20.3262 C   0  0  0  0  0  0  0  0  0  0  0  0
  -29.2226  -20.8560   18.9697 C   0  0  0  0  0  0  0  0  0  0  0  0
  -28.9941  -21.0078   21.3700 C   0  0  0  0  0  0  0  0  0  0  0  0
  -21.3159   -4.6664   23.0735 C   0  0  0  0  0  0  0  0  0  0  0  0
  -24.7282  -10.6816   22.1699 C   0  0  0  0  0  0  0  0  0  0  0  0
  -24.2880  -12.9335   21.0549 C   0  0  0  0  0  0  0  0  0  0  0  0
  -26.0055  -33.7740   24.8014 C   0  0  0  0  0  0  0  0  0  0  0  0
  -27.4258  -27.7803   20.0123 C   0  0  0  0  0  0  0  0  0  0  0  0
  -26.8026  -32.7096   24.3387 C   0  0  0  0  0  0  0  0  0  0  0  0
  -26.3068  -26.9697   20.2505 C   0  0  0  0  0  0  0  0  0  0  0  0
  -29.1331  -21.6276   20.1282 C   0  0  0  0  0  0  0  0  0  0  0  0
  -29.1731  -19.4645   19.0529 C   0  0  0  0  0  0  0  0  0  0  0  0
  -28.9446  -19.6162   21.4533 C   0  0  0  0  0  0  0  0  0  0  0  0
  -29.0341  -18.8446   20.2947 C   0  0  0  0  0  0  0  0  0  0  0  0
  -23.9787   -8.3962   23.5832 C   0  0  0  0  0  0  0  0  0  0  0  0
  -27.7285  -25.0001   20.1547 C   0  0  0  0  0  0  0  0  0  0  0  0
  -22.4480   -6.6393   23.8877 C   0  0  0  0  0  0  0  0  0  0  0  0
  -20.0995   -5.3480   23.1135 C   0  0  0  0  0  0  0  0  0  0  0  0
  -22.4901   -5.3121   23.4606 C   0  0  0  0  0  0  0  0  0  0  0  0
  -25.1160  -11.8622   21.4404 C   0  0  0  0  0  0  0  0  0  0  0  0
  -25.1277  -13.7951   20.3922 C   0  0  0  0  0  0  0  0  0  0  0  0
  -22.8854  -13.1320   21.2760 C   0  0  0  0  0  0  0  0  0  0  0  0
  -26.1940  -29.8252   22.1110 C   0  0  0  0  0  0  0  0  0  0  0  0
  -23.6174  -29.6872   20.1451 C   0  0  0  0  0  0  0  0  0  0  0  0
  -21.8531  -27.9464   17.7991 C   0  0  0  0  0  0  0  0  0  0  0  0
  -29.9623  -16.5250   19.9719 C   0  0  0  0  0  0  0  0  0  0  0  0
  -24.5512  -33.5819   25.1518 C   0  0  0  0  0  0  0  0  0  0  0  0
  -27.2756  -29.2728   19.9017 C   0  0  0  0  0  0  0  0  0  0  0  0
  -24.9304  -27.5526   20.4362 C   0  0  0  0  0  0  0  0  0  0  0  0
  -23.9447  -32.3121   24.5600 C   0  0  0  0  0  0  0  0  0  0  0  0
  -29.8853  -13.1705   18.7809 C   0  0  0  0  0  0  0  0  0  0  0  0
  -24.8722  -31.1223   24.7854 C   0  0  0  0  0  0  0  0  0  0  0  0
  -28.5696  -12.6192   19.3350 C   0  0  0  0  0  0  0  0  0  0  0  0
  -30.5613  -14.1221   19.7665 C   0  0  0  0  0  0  0  0  0  0  0  0
  -28.3962  -14.6645   20.8093 C   0  0  0  0  0  0  0  0  0  0  0  0
  -26.2216  -31.3349   24.0886 C   0  0  1  0  0  0  0  0  0  0  0  0
  -26.0368  -29.8033   20.6168 C   0  0  1  0  0  0  0  0  0  0  0  0
  -27.6462  -13.7516   19.8255 C   0  0  2  0  0  0  0  0  0  0  0  0
  -29.2710  -18.6648   17.7940 C   0  0  0  0  0  0  0  0  0  0  0  0
  -28.7956  -18.9810   22.7981 C   0  0  0  0  0  0  0  0  0  0  0  0
  -19.7687  -28.0725   16.4074 C   0  0  0  0  0  0  0  0  0  0  0  0
  -21.9409  -28.9892   22.5971 C   0  0  0  0  0  0  0  0  0  0  0  0
  -20.1316  -28.2101   21.0519 C   0  0  0  0  0  0  0  0  0  0  0  0
  -20.8582  -30.5962   21.0161 C   0  0  0  0  0  0  0  0  0  0  0  0
  -23.3948  -27.8636   15.2742 C   0  0  0  0  0  0  0  0  0  0  0  0
  -29.1861  -23.1244   20.0386 C   0  0  0  0  0  0  0  0  0  1  0  0
  -22.3836  -28.8216   20.0590 C   0  0  1  0  0  0  0  0  0  0  0  0
  -21.2593  -28.3683   16.4673 C   0  0  2  0  0  0  0  0  0  0  0  0
  -21.3547  -29.1431   21.1795 C   0  0  0  0  0  0  0  0  0  0  0  0
  -26.3842  -12.0259   21.0547 N   0  0  0  0  0  0  0  0  0  0  0  0
  -26.3594  -13.2101   20.4198 N   0  0  0  0  0  0  0  0  0  0  0  0
  -24.8360  -29.0176   20.3253 N   0  0  0  0  0  0  0  0  0  0  0  0
  -29.6281  -15.1707   20.1840 N   0  0  0  0  0  0  0  0  0  0  0  0
  -24.9251  -14.9884   19.7944 N   0  0  0  0  0  0  0  0  0  0  0  0
  -22.1733  -12.1479   21.9751 N   0  0  0  0  0  0  0  0  0  0  0  0
  -28.9839  -17.4311   20.3796 N   0  0  0  0  0  0  0  0  0  0  0  0
  -26.1014  -31.0865   22.6679 N   0  0  0  0  0  0  0  0  0  0  0  0
  -21.8638  -28.9853   18.7057 N   0  0  0  0  0  0  0  0  0  0  0  0
  -21.9275  -27.6439   15.3494 N   0  3  0  0  0  0  0  0  0  0  0  0
  -22.2781  -14.1441   20.8515 O   0  0  0  0  0  0  0  0  0  0  0  0
  -26.3836  -28.7755   22.7140 O   0  0  0  0  0  0  0  0  0  0  0  0
  -23.5050  -30.9118   20.0487 O   0  0  0  0  0  0  0  0  0  0  0  0
  -22.2629  -26.8079   18.0150 O   0  0  0  0  0  0  0  0  0  0  0  0
  -31.0257  -16.8555   19.4409 O   0  0  0  0  0  0  0  0  0  0  0  0
  -23.6129   -7.2814   24.2731 O   0  0  0  0  0  0  0  0  0  0  0  0
  -27.8727  -23.6489   20.2291 O   0  0  0  0  0  0  0  0  0  1  0  0
  -18.9716   -4.7277   22.7432 F   0  0  0  0  0  0  0  0  0  0  0  0
  -23.6556   -4.6518   23.4212 F   0  0  0  0  0  0  0  0  0  0  0  0
  1  2  1  0  0  0  0
  1  5  2  0  0  0  0
  2  6  2  0  0  0  0
  3  8  2  0  0  0  0
  3 17  1  0  0  0  0
  4  9  1  0  0  0  0
  4 17  2  0  0  0  0
  5 19  1  0  0  0  0
  6 21  1  0  0  0  0
  7 10  2  0  0  0  0
  7 20  1  0  0  0  0
  8 27  1  0  0  0  0
  9 27  2  0  0  0  0
 10 28  1  0  0  0  0
 11 12  2  0  0  0  0
 11 29  1  0  0  0  0
 12 30  1  0  0  0  0
 13 22  1  0  0  0  0
 13 28  2  0  0  0  0
 14 23  1  0  0  0  0
 14 24  2  0  0  0  0
 15 23  2  0  0  0  0
 15 25  1  0  0  0  0
 16 30  2  0  0  0  0
 16 31  1  0  0  0  0
 17 32  1  0  0  0  0
 18 32  1  0  0  0  0
 18 33  2  0  0  0  0
 18 34  1  0  0  0  0
 19 21  2  0  0  0  0
 19 39  1  0  0  0  0
 20 22  2  0  0  0  0
 20 40  1  0  0  0  0
 21 48  1  0  0  0  0
 22 41  1  0  0  0  0
 23 58  1  0  0  0  0
 24 26  1  0  0  0  0
 24 51  1  0  0  0  0
 25 26  2  0  0  0  0
 25 52  1  0  0  0  0
 26 68  1  0  0  0  0
 27 77  1  0  0  0  0
 28 78  1  0  0  0  0
 29 31  2  0  0  0  0
 29 77  1  0  0  0  0
 30 79  1  0  0  0  0
 31 80  1  0  0  0  0
 32 62  2  0  0  0  0
 33 63  1  0  0  0  0
 33 66  1  0  0  0  0
 34 67  1  0  0  0  0
 34 72  2  0  0  0  0
 35 49  1  0  0  0  0
 35 69  1  0  0  0  0
 35 73  2  0  0  0  0
 36 59  1  0  0  0  0
 36 64  1  0  0  0  0
 36 74  2  0  0  0  0
 37 60  1  0  0  0  0
 37 70  1  0  0  0  0
 37 75  2  0  0  0  0
 38 65  1  0  0  0  0
 38 68  1  0  0  0  0
 38 76  2  0  0  0  0
 39 42  1  0  0  0  0
 40 49  1  0  0  0  0
 41 64  1  0  0  0  0
 42 44  1  0  0  0  0
 43 45  1  0  0  0  0
 43 46  1  0  0  0  0
 44 48  1  0  0  0  0
 45 50  1  0  0  0  0
 46 65  1  0  0  0  0
 47 50  1  0  0  0  0
 47 65  1  0  0  0  0
 48 69  1  0  0  0  0
 49 64  1  0  0  0  0
 50 63  1  0  0  0  0
 53 60  1  0  0  0  0
 54 61  1  0  0  0  0
 55 61  1  0  0  0  0
 56 61  1  0  0  0  0
 57 71  1  0  0  0  0
 58 78  1  0  0  0  0
 59 61  1  0  0  0  0
 59 70  1  0  0  0  0
 60 71  1  0  0  0  0
 62 63  1  0  0  0  0
M  CHG  1  71   1
M  ISO  4  38 100  58 101  68 100  78 101
M  END
> <Batch ID>
0017

> <Smiles>
CNC(C)C(=O)NC(C(=O)N1Cc2cc([101O:1][101CH2:1]c3cc(C)c([100NH:0][100C:0](=O)N4CCCC(n5nc(-c6ccc(Oc7ccc(F)cc7F)cc6)c(C(N)=O)c5N)C4)c(C)c3)ccc2CC1C(=O)NC1CCCc2ccccc21)C(C)(C)C

> <Shape>
0.358

> <Color>
0.123

> <Negative vol penalty>
0.000

$$$$

  -OEChem-04052316013D

 80 88  0     1  0  0  0  0  0999 V2000
  -24.0024  -31.3530   20.3822 C   0  0  0  0  0  0  0  0  0  0  0  0
  -24.5133  -30.1010   20.0553 C   0  0  0  0  0  0  0  0  0  0  0  0
  -23.1592   -9.6659   20.4511 C   0  0  0  0  0  0  0  0  0  0  0  0
  -23.8096  -10.1633   22.7241 C   0  0  0  0  0  0  0  0  0  0  0  0
  -24.2228  -31.8846   21.6522 C   0  0  0  0  0  0  0  0  0  0  0  0
  -25.2459  -29.3803   20.9978 C   0  0  0  0  0  0  0  0  0  0  0  0
  -25.3337  -23.3003   21.7271 C   0  0  0  0  0  0  0  0  0  0  0  0
  -22.4345   -8.5619   20.9000 C   0  0  0  0  0  0  0  0  0  0  0  0
  -23.0849   -9.0593   23.1731 C   0  0  0  0  0  0  0  0  0  0  0  0
  -26.2247  -22.3170   21.2991 C   0  0  0  0  0  0  0  0  0  0  0  0
  -19.8537   -8.2874   23.7928 C   0  0  0  0  0  0  0  0  0  0  0  0
  -19.0437   -8.4587   24.9153 C   0  0  0  0  0  0  0  0  0  0  0  0
  -27.3410  -22.4070   23.4357 C   0  0  0  0  0  0  0  0  0  0  0  0
  -20.2988   -6.7549   26.0811 C   0  0  0  0  0  0  0  0  0  0  0  0
  -32.0256  -18.8284   20.9853 C   0  0  0  0  0  0  0  0  0  0  0  0
  -23.8468  -10.4666   21.3632 C   0  0  0  0  0  0  0  0  0  0  0  0
  -24.1282  -12.9257   20.7455 C   0  0  0  0  0  0  0  0  0  0  0  0
  -24.9503  -31.1659   22.6139 C   0  0  0  0  0  0  0  0  0  0  0  0
  -25.4467  -23.8530   23.0109 C   0  0  0  0  0  0  0  0  0  0  0  0
  -25.4774  -29.9034   22.2813 C   0  0  0  0  0  0  0  0  0  0  0  0
  -26.4486  -23.3953   23.8785 C   0  0  0  0  0  0  0  0  0  0  0  0
  -29.9793  -19.4701   22.0136 C   0  0  0  0  0  0  0  0  0  0  0  0
  -22.3974   -8.2586   22.2610 C   0  0  0  0  0  0  0  0  0  0  0  0
  -27.2303  -21.8723   22.1524 C   0  0  0  0  0  0  0  0  0  0  0  0
  -20.8863   -7.3498   23.8144 C   0  0  0  0  0  0  0  0  0  0  0  0
  -19.2662   -7.6925   26.0595 C   0  0  0  0  0  0  0  0  0  0  0  0
  -21.1088   -6.5836   24.9585 C   0  0  0  0  0  0  0  0  0  0  0  0
  -31.2544  -19.8145   21.5793 C   0  0  0  0  0  0  0  0  0  0  0  0
  -29.5207  -18.1686   21.8431 C   0  0  0  0  0  0  0  0  0  0  0  0
  -24.5960  -11.6069   20.9000 C   0  0  0  0  0  0  0  0  0  0  0  0
  -30.3694  -17.2562   21.2371 C   0  0  0  0  0  0  0  0  0  0  0  0
  -25.2165  -13.6239   20.2822 C   0  0  0  0  0  0  0  0  0  0  0  0
  -22.8264  -13.4708   20.9982 C   0  0  0  0  0  0  0  0  0  0  0  0
  -26.0033  -26.7645   24.1586 C   0  0  0  0  0  0  0  0  0  0  0  0
  -25.4047  -25.3323   27.0069 C   0  0  0  0  0  0  0  0  0  0  0  0
  -25.3222  -22.4569   28.8432 C   0  0  0  0  0  0  0  0  0  0  0  0
  -30.6393  -14.8739   20.4638 C   0  0  0  0  0  0  0  0  0  0  0  0
  -25.2030  -31.8021   23.9578 C   0  0  0  0  0  0  0  0  0  0  0  0
  -24.4612  -24.8938   23.4670 C   0  0  0  0  0  0  0  0  0  0  0  0
  -26.6000  -23.9420   25.2737 C   0  0  0  0  0  0  0  0  0  0  0  0
  -25.6703  -30.8124   25.0220 C   0  0  0  0  0  0  0  0  0  0  0  0
  -29.7009  -11.9934   18.5932 C   0  0  0  0  0  0  0  0  0  0  0  0
  -26.7688  -29.9111   24.4672 C   0  0  0  0  0  0  0  0  0  0  0  0
  -28.2507  -11.7446   19.0138 C   0  0  0  0  0  0  0  0  0  0  0  0
  -30.5521  -12.4925   19.7594 C   0  0  0  0  0  0  0  0  0  0  0  0
  -28.5639  -13.4142   20.8850 C   0  0  0  0  0  0  0  0  0  0  0  0
  -26.2560  -29.0804   23.2846 C   0  0  1  0  0  0  0  0  0  0  0  0
  -24.9876  -25.7542   24.6116 C   0  0  1  0  0  0  0  0  0  0  0  0
  -27.6526  -12.9723   19.7284 C   0  0  2  0  0  0  0  0  0  0  0  0
  -24.8297  -21.6080   31.1528 C   0  0  0  0  0  0  0  0  0  0  0  0
  -28.0836  -26.4243   27.9770 C   0  0  0  0  0  0  0  0  0  0  0  0
  -27.9783  -24.7993   29.8787 C   0  0  0  0  0  0  0  0  0  0  0  0
  -26.2315  -26.5656   29.6515 C   0  0  0  0  0  0  0  0  0  0  0  0
  -23.1250  -20.7317   27.8661 C   0  0  0  0  0  0  0  0  0  0  0  0
  -29.1075  -20.5043   22.6629 C   0  0  0  0  0  0  0  0  0  1  0  0
  -26.2408  -24.6171   28.0405 C   0  0  1  0  0  0  0  0  0  0  0  0
  -24.2643  -21.8823   29.7679 C   0  0  2  0  0  0  0  0  0  0  0  0
  -27.1322  -25.5924   28.8600 C   0  0  0  0  0  0  0  0  0  0  0  0
  -31.6145  -17.5536   20.8023 N   0  0  0  0  0  0  0  0  0  0  0  0
  -25.8812  -11.4728   20.5621 N   0  0  0  0  0  0  0  0  0  0  0  0
  -26.2303  -12.7162   20.1906 N   0  0  0  0  0  0  0  0  0  0  0  0
  -25.6160  -24.9625   25.6711 N   0  0  0  0  0  0  0  0  0  0  0  0
  -29.9258  -13.6593   20.3849 N   0  0  0  0  0  0  0  0  0  0  0  0
  -25.3955  -14.9196   19.9482 N   0  0  0  0  0  0  0  0  0  0  0  0
  -21.8237  -12.6138   21.4719 N   0  0  0  0  0  0  0  0  0  0  0  0
  -29.9303  -15.9222   21.0494 N   0  0  0  0  0  0  0  0  0  0  0  0
  -25.4582  -27.9688   23.7561 N   0  0  0  0  0  0  0  0  0  0  0  0
  -25.3107  -23.8357   28.8484 N   0  0  0  0  0  0  0  0  0  0  0  0
  -23.7326  -20.6043   29.2158 N   0  3  0  0  0  0  0  0  0  0  0  0
  -22.5559  -14.6785   20.7940 O   0  0  0  0  0  0  0  0  0  0  0  0
  -27.1936  -26.4736   24.1745 O   0  0  0  0  0  0  0  0  0  0  0  0
  -24.5890  -26.1826   27.3719 O   0  0  0  0  0  0  0  0  0  0  0  0
  -26.0852  -21.7531   28.1852 O   0  0  0  0  0  0  0  0  0  0  0  0
  -31.7845  -14.9840   20.0182 O   0  0  0  0  0  0  0  0  0  0  0  0
  -21.6901   -7.1815   22.6994 O   0  0  0  0  0  0  0  0  0  0  0  0
  -28.1016  -20.9131   21.7369 O   0  0  0  0  0  0  0  0  0  1  0  0
  -18.4892   -7.8582   27.1379 F   0  0  0  0  0  0  0  0  0  0  0  0
  -22.1000   -5.6822   24.9856 F   0  0  0  0  0  0  0  0  0  0  0  0
  -31.8946  -21.4019   21.7541 Cl  0  0  0  0  0  0  0  0  0  0  0  0
  -27.9383  -17.7152   22.3745 Cl  0  0  0  0  0  0  0  0  0  0  0  0
  1  2  1  0  0  0  0
  1  5  2  0  0  0  0
  2  6  2  0  0  0  0
  3  8  2  0  0  0  0
  3 16  1  0  0  0  0
  4  9  1  0  0  0  0
  4 16  2  0  0  0  0
  5 18  1  0  0  0  0
  6 20  1  0  0  0  0
  7 10  2  0  0  0  0
  7 19  1  0  0  0  0
  8 23  1  0  0  0  0
  9 23  2  0  0  0  0
 10 24  1  0  0  0  0
 11 12  2  0  0  0  0
 11 25  1  0  0  0  0
 12 26  1  0  0  0  0
 13 21  1  0  0  0  0
 13 24  2  0  0  0  0
 14 26  2  0  0  0  0
 14 27  1  0  0  0  0
 15 28  2  0  0  0  0
 15 59  1  0  0  0  0
 16 30  1  0  0  0  0
 17 30  1  0  0  0  0
 17 32  2  0  0  0  0
 17 33  1  0  0  0  0
 18 20  2  0  0  0  0
 18 38  1  0  0  0  0
 19 21  2  0  0  0  0
 19 39  1  0  0  0  0
 20 47  1  0  0  0  0
 21 40  1  0  0  0  0
 22 28  1  0  0  0  0
 22 29  2  0  0  0  0
 22 55  1  0  0  0  0
 23 75  1  0  0  0  0
 24 76  1  0  0  0  0
 25 27  2  0  0  0  0
 25 75  1  0  0  0  0
 26 77  1  0  0  0  0
 27 78  1  0  0  0  0
 28 79  1  0  0  0  0
 29 31  1  0  0  0  0
 29 80  1  0  0  0  0
 30 60  2  0  0  0  0
 31 59  2  0  0  0  0
 31 66  1  0  0  0  0
 32 61  1  0  0  0  0
 32 64  1  0  0  0  0
 33 65  1  0  0  0  0
 33 70  2  0  0  0  0
 34 48  1  0  0  0  0
 34 67  1  0  0  0  0
 34 71  2  0  0  0  0
 35 56  1  0  0  0  0
 35 62  1  0  0  0  0
 35 72  2  0  0  0  0
 36 57  1  0  0  0  0
 36 68  1  0  0  0  0
 36 73  2  0  0  0  0
 37 63  1  0  0  0  0
 37 66  1  0  0  0  0
 37 74  2  0  0  0  0
 38 41  1  0  0  0  0
 39 48  1  0  0  0  0
 40 62  1  0  0  0  0
 41 43  1  0  0  0  0
 42 44  1  0  0  0  0
 42 45  1  0  0  0  0
 43 47  1  0  0  0  0
 44 49  1  0  0  0  0
 45 63  1  0  0  0  0
 46 49  1  0  0  0  0
 46 63  1  0  0  0  0
 47 67  1  0  0  0  0
 48 62  1  0  0  0  0
 49 61  1  0  0  0  0
 50 57  1  0  0  0  0
 51 58  1  0  0  0  0
 52 58  1  0  0  0  0
 53 58  1  0  0  0  0
 54 69  1  0  0  0  0
 55 76  1  0  0  0  0
 56 58  1  0  0  0  0
 56 68  1  0  0  0  0
 57 69  1  0  0  0  0
 60 61  1  0  0  0  0
M  CHG  1  69   1
M  ISO  4  37 100  55 101  66 100  76 101
M  END
> <Batch ID>
0017

> <Smiles>
CNC(C)C(=O)NC(C(=O)N1Cc2cc([101O:1][101CH2:1]c3c(Cl)cnc([100NH:0][100C:0](=O)N4CCCC(n5nc(-c6ccc(Oc7ccc(F)cc7F)cc6)c(C(N)=O)c5N)C4)c3Cl)ccc2CC1C(=O)NC1CCCc2ccccc21)C(C)(C)C

> <Shape>
0.239

> <Color>
0.185

> <Negative vol penalty>
0.000

$$$$

  -OEChem-04052316013D

 91 99  0     1  0  0  0  0  0999 V2000
  -22.7331  -21.7161   18.0943 C   0  0  0  0  0  0  0  0  0  0  0  0
  -23.8380  -20.9468   17.7438 C   0  0  0  0  0  0  0  0  0  0  0  0
  -25.2962  -27.1722   19.3824 C   0  0  0  0  0  0  0  0  0  0  0  0
  -27.0773  -27.9910   20.7945 C   0  0  0  0  0  0  0  0  0  0  0  0
  -21.9836  -21.3842   19.2221 C   0  0  0  0  0  0  0  0  0  0  0  0
  -24.1947  -19.8458   18.5215 C   0  0  0  0  0  0  0  0  0  0  0  0
  -26.6153  -14.5763   16.5519 C   0  0  0  0  0  0  0  0  0  0  0  0
  -24.6590  -28.4100   19.4683 C   0  0  0  0  0  0  0  0  0  0  0  0
  -26.4402  -29.2289   20.8804 C   0  0  0  0  0  0  0  0  0  0  0  0
  -27.9261  -14.1030   16.5125 C   0  0  0  0  0  0  0  0  0  0  0  0
  -23.8566  -30.5881   22.5859 C   0  0  0  0  0  0  0  0  0  0  0  0
  -23.7681  -31.1856   23.8431 C   0  0  0  0  0  0  0  0  0  0  0  0
  -27.5649  -12.9469   18.5987 C   0  0  0  0  0  0  0  0  0  0  0  0
  -31.6754  -16.2999   20.8913 C   0  0  0  0  0  0  0  0  0  0  0  0
  -25.0129  -33.0884   23.0264 C   0  0  0  0  0  0  0  0  0  0  0  0
  -26.5053  -26.9627   20.0456 C   0  0  0  0  0  0  0  0  0  0  0  0
  -28.1109  -25.2797   18.9979 C   0  0  0  0  0  0  0  0  0  0  0  0
  -22.3255  -20.2728   20.0086 C   0  0  0  0  0  0  0  0  0  0  0  0
  -25.7714  -14.2468   17.6223 C   0  0  0  0  0  0  0  0  0  0  0  0
  -23.4498  -19.4994   19.6616 C   0  0  0  0  0  0  0  0  0  0  0  0
  -26.2430  -13.4151   18.6480 C   0  0  0  0  0  0  0  0  0  0  0  0
  -32.3046  -17.9374   19.2301 C   0  0  0  0  0  0  0  0  0  0  0  0
  -32.0326  -18.6004   21.5373 C   0  0  0  0  0  0  0  0  0  0  0  0
  -31.9758  -16.6247   19.5685 C   0  0  0  0  0  0  0  0  0  0  0  0
  -25.2310  -29.4384   20.2172 C   0  0  0  0  0  0  0  0  0  0  0  0
  -28.4020  -13.2906   17.5374 C   0  0  0  0  0  0  0  0  0  0  0  0
  -24.5233  -31.2406   21.5489 C   0  0  0  0  0  0  0  0  0  0  0  0
  -24.3462  -32.4357   24.0634 C   0  0  0  0  0  0  0  0  0  0  0  0
  -31.7038  -17.2878   21.8757 C   0  0  0  0  0  0  0  0  0  0  0  0
  -25.1014  -32.4908   21.7691 C   0  0  0  0  0  0  0  0  0  0  0  0
  -32.3330  -18.9252   20.2145 C   0  0  0  0  0  0  0  0  0  0  0  0
  -27.1638  -25.6840   19.9578 C   0  0  0  0  0  0  0  0  0  0  0  0
  -28.4266  -23.9900   19.3491 C   0  0  0  0  0  0  0  0  0  0  0  0
  -28.6566  -26.0052   17.8882 C   0  0  0  0  0  0  0  0  0  0  0  0
  -24.2555  -15.8997   19.8747 C   0  0  0  0  0  0  0  0  0  0  0  0
  -32.3266  -10.9626   16.6019 C   0  0  0  0  0  0  0  0  0  0  0  0
  -22.9700  -13.0072   20.5842 C   0  0  0  0  0  0  0  0  0  0  0  0
  -23.2399   -9.6074   20.4593 C   0  0  0  0  0  0  0  0  0  0  0  0
  -32.2056  -14.2486   18.7552 C   0  0  0  0  0  0  0  0  0  0  0  0
  -29.7032  -20.1723   23.2145 C   0  0  0  0  0  0  0  0  0  0  0  0
  -21.5131  -19.9811   21.2454 C   0  0  0  0  0  0  0  0  0  0  0  0
  -24.3517  -14.7435   17.6364 C   0  0  0  0  0  0  0  0  0  0  0  0
  -25.3709  -13.0156   19.8091 C   0  0  0  0  0  0  0  0  0  0  0  0
  -21.7357  -18.5778   21.8035 C   0  0  0  0  0  0  0  0  0  0  0  0
  -26.2516  -20.8563   22.6712 C   0  0  0  0  0  0  0  0  0  0  0  0
  -23.2259  -18.2579   21.8649 C   0  0  0  0  0  0  0  0  0  0  0  0
  -26.2595  -22.1426   21.8435 C   0  0  0  0  0  0  0  0  0  0  0  0
  -27.3715  -20.8464   23.7094 C   0  0  0  0  0  0  0  0  0  0  0  0
  -28.7283  -22.3816   22.3399 C   0  0  0  0  0  0  0  0  0  0  0  0
  -23.8536  -18.2829   20.4660 C   0  0  1  0  0  0  0  0  0  0  0  0
  -23.7404  -14.7658   19.0340 C   0  0  1  0  0  0  0  0  0  0  0  0
  -27.6515  -22.4137   21.2418 C   0  0  2  0  0  0  0  0  0  0  0  0
  -32.6249  -18.2677   17.8041 C   0  0  0  0  0  0  0  0  0  0  0  0
  -32.6158   -9.5238   16.9479 C   0  0  0  0  0  0  0  0  0  0  0  0
  -22.0515   -7.5100   21.1564 C   0  0  0  0  0  0  0  0  0  0  0  0
  -33.0933  -13.9971   16.4263 C   0  0  0  0  0  0  0  0  0  0  0  0
  -23.8974  -13.4399   23.4587 C   0  0  0  0  0  0  0  0  0  0  0  0
  -23.5528  -10.9935   23.8644 C   0  0  0  0  0  0  0  0  0  0  0  0
  -21.6171  -12.4369   23.2380 C   0  0  0  0  0  0  0  0  0  0  0  0
  -22.9489   -8.7026   17.6566 C   0  0  0  0  0  0  0  0  0  0  0  0
  -32.0514  -19.6288   22.6228 C   0  0  0  0  0  0  0  0  0  0  0  0
  -32.3991  -11.9528   17.7578 C   0  0  0  0  0  0  0  0  0  0  0  0
  -30.6504  -13.6472   16.8494 C   0  0  0  0  0  0  0  0  0  1  0  0
  -23.3507  -11.8612   21.4901 C   0  0  1  0  0  0  0  0  0  0  0  0
  -22.2497   -8.5328   20.0484 C   0  0  2  0  0  0  0  0  0  0  0  0
  -32.0667  -13.4319   17.4342 C   0  0  1  0  0  0  0  0  0  0  0  0
  -23.1218  -12.1918   22.9921 C   0  0  0  0  0  0  0  0  0  0  0  0
  -26.8952  -24.7285   20.8515 N   0  0  0  0  0  0  0  0  0  0  0  0
  -27.6782  -23.7109   20.4547 N   0  0  0  0  0  0  0  0  0  0  0  0
  -23.9924  -13.5318   19.7809 N   0  0  0  0  0  0  0  0  0  0  0  0
  -28.6651  -21.1080   23.0738 N   0  0  0  0  0  0  0  0  0  0  0  0
  -29.2684  -23.0787   18.8170 N   0  0  0  0  0  0  0  0  0  0  0  0
  -28.2229  -27.3202   17.6713 N   0  0  0  0  0  0  0  0  0  0  0  0
  -31.9423  -15.6048   18.5877 N   0  0  0  0  0  0  0  0  0  0  0  0
  -23.5316  -17.0696   19.7458 N   0  0  0  0  0  0  0  0  0  0  0  0
  -22.6072  -10.6999   21.0138 N   0  0  0  0  0  0  0  0  0  0  0  0
  -30.8942  -20.4945   22.5752 N   0  0  0  0  0  0  0  0  0  0  0  0
  -22.7335   -7.8203   18.8322 N   0  3  0  0  0  0  0  0  0  0  0  0
  -29.4915  -25.4966   17.1021 O   0  0  0  0  0  0  0  0  0  0  0  0
  -25.2361  -15.7255   20.5887 O   0  0  0  0  0  0  0  0  0  0  0  0
  -32.0093  -11.2787   15.4574 O   0  0  0  0  0  0  0  0  0  0  0  0
  -21.8065  -13.4170   20.5839 O   0  0  0  0  0  0  0  0  0  0  0  0
  -24.4537   -9.4881   20.3073 O   0  0  0  0  0  0  0  0  0  0  0  0
  -32.5035  -13.7000   19.8147 O   0  0  0  0  0  0  0  0  0  0  0  0
  -29.5764  -19.1247   23.8574 O   0  0  0  0  0  0  0  0  0  0  0  0
  -24.6096  -30.6465   20.3010 O   0  0  0  0  0  0  0  0  0  0  0  0
  -29.6812  -12.8278   17.5018 O   0  0  0  0  0  0  0  0  0  1  0  0
  -24.2598  -33.0101   25.2704 F   0  0  0  0  0  0  0  0  0  0  0  0
  -31.4133  -16.9644   23.1438 F   0  0  0  0  0  0  0  0  0  0  0  0
  -25.7422  -33.1231   20.7765 F   0  0  0  0  0  0  0  0  0  0  0  0
  -32.7415  -20.5565   19.7977 Cl  0  0  0  0  0  0  0  0  0  0  0  0
  1  2  1  0  0  0  0
  1  5  2  0  0  0  0
  2  6  2  0  0  0  0
  3  8  2  0  0  0  0
  3 16  1  0  0  0  0
  4  9  1  0  0  0  0
  4 16  2  0  0  0  0
  5 18  1  0  0  0  0
  6 20  1  0  0  0  0
  7 10  2  0  0  0  0
  7 19  1  0  0  0  0
  8 25  1  0  0  0  0
  9 25  2  0  0  0  0
 10 26  1  0  0  0  0
 11 12  2  0  0  0  0
 11 27  1  0  0  0  0
 12 28  1  0  0  0  0
 13 21  1  0  0  0  0
 13 26  2  0  0  0  0
 14 24  1  0  0  0  0
 14 29  2  0  0  0  0
 15 28  2  0  0  0  0
 15 30  1  0  0  0  0
 16 32  1  0  0  0  0
 17 32  1  0  0  0  0
 17 33  2  0  0  0  0
 17 34  1  0  0  0  0
 18 20  2  0  0  0  0
 18 41  1  0  0  0  0
 19 21  2  0  0  0  0
 19 42  1  0  0  0  0
 20 50  1  0  0  0  0
 21 43  1  0  0  0  0
 22 24  2  0  0  0  0
 22 31  1  0  0  0  0
 22 53  1  0  0  0  0
 23 29  1  0  0  0  0
 23 31  2  0  0  0  0
 23 61  1  0  0  0  0
 24 74  1  0  0  0  0
 25 86  1  0  0  0  0
 26 87  1  0  0  0  0
 27 30  2  0  0  0  0
 27 86  1  0  0  0  0
 28 88  1  0  0  0  0
 29 89  1  0  0  0  0
 30 90  1  0  0  0  0
 31 91  1  0  0  0  0
 32 68  2  0  0  0  0
 33 69  1  0  0  0  0
 33 72  1  0  0  0  0
 34 73  1  0  0  0  0
 34 79  2  0  0  0  0
 35 51  1  0  0  0  0
 35 75  1  0  0  0  0
 35 80  2  0  0  0  0
 36 54  1  0  0  0  0
 36 62  1  0  0  0  0
 36 81  2  0  0  0  0
 37 64  1  0  0  0  0
 37 70  1  0  0  0  0
 37 82  2  0  0  0  0
 38 65  1  0  0  0  0
 38 76  1  0  0  0  0
 38 83  2  0  0  0  0
 39 66  1  0  0  0  0
 39 74  1  0  0  0  0
 39 84  2  0  0  0  0
 40 71  1  0  0  0  0
 40 77  1  0  0  0  0
 40 85  2  0  0  0  0
 41 44  1  0  0  0  0
 42 51  1  0  0  0  0
 43 70  1  0  0  0  0
 44 46  1  0  0  0  0
 45 47  1  0  0  0  0
 45 48  1  0  0  0  0
 46 50  1  0  0  0  0
 47 52  1  0  0  0  0
 48 71  1  0  0  0  0
 49 52  1  0  0  0  0
 49 71  1  0  0  0  0
 50 75  1  0  0  0  0
 51 70  1  0  0  0  0
 52 69  1  0  0  0  0
 55 65  1  0  0  0  0
 56 66  1  0  0  0  0
 57 67  1  0  0  0  0
 58 67  1  0  0  0  0
 59 67  1  0  0  0  0
 60 78  1  0  0  0  0
 61 77  1  0  0  0  0
 62 66  1  0  0  0  0
 63 66  1  0  0  0  0
 63 87  1  0  0  0  0
 64 67  1  0  0  0  0
 64 76  1  0  0  0  0
 65 78  1  0  0  0  0
 68 69  1  0  0  0  0
M  CHG  1  78   1
M  ISO  4  40 100  63 101  77 100  87 101
M  END
> <Batch ID>
0017

> <Smiles>
CNC(C)C(=O)NC(C(=O)N1Cc2cc([101O:1][101CH2:1]C(C)(CC(C)=O)C(=O)Nc3cc(F)c(C[100NH:0][100C:0](=O)N4CCCC(n5nc(-c6ccc(Oc7ccc(F)cc7F)cc6)c(C(N)=O)c5N)C4)c(Cl)c3C)ccc2CC1C(=O)NC1CCCc2ccccc21)C(C)(C)C

> <Shape>
0.211

> <Color>
0.055

> <Negative vol penalty>
0.000

$$$$

  -OEChem-04052316013D

 83 91  0     1  0  0  0  0  0999 V2000
  -30.4769  -25.5453   17.4564 C   0  0  0  0  0  0  0  0  0  0  0  0
  -29.0883  -25.5280   17.5400 C   0  0  0  0  0  0  0  0  0  0  0  0
  -26.1661  -13.7846   19.3049 C   0  0  0  0  0  0  0  0  0  0  0  0
  -24.1641  -14.0572   20.6296 C   0  0  0  0  0  0  0  0  0  0  0  0
  -31.2321  -26.0374   18.5201 C   0  0  0  0  0  0  0  0  0  0  0  0
  -28.4541  -26.0018   18.6879 C   0  0  0  0  0  0  0  0  0  0  0  0
  -23.0926  -28.9468   18.9821 C   0  0  0  0  0  0  0  0  0  0  0  0
  -21.5765  -25.1782   22.1899 C   0  0  0  0  0  0  0  0  0  0  0  0
  -22.5997  -24.2539   21.9796 C   0  0  0  0  0  0  0  0  0  0  0  0
  -26.3143  -12.4874   19.7958 C   0  0  0  0  0  0  0  0  0  0  0  0
  -24.3122  -12.7599   21.1204 C   0  0  0  0  0  0  0  0  0  0  0  0
  -21.8008  -28.5158   19.2809 C   0  0  0  0  0  0  0  0  0  0  0  0
  -23.7138   -9.6105   20.0511 C   0  0  0  0  0  0  0  0  0  0  0  0
  -22.5782   -8.8018   20.0938 C   0  0  0  0  0  0  0  0  0  0  0  0
  -22.1034  -29.2147   21.5698 C   0  0  0  0  0  0  0  0  0  0  0  0
  -22.8240   -8.5831   22.4874 C   0  0  0  0  0  0  0  0  0  0  0  0
  -25.0911  -14.5695   19.7219 C   0  0  0  0  0  0  0  0  0  0  0  0
  -24.2308  -16.3084   18.0654 C   0  0  0  0  0  0  0  0  0  0  0  0
  -30.6064  -26.5264   19.6778 C   0  0  0  0  0  0  0  0  0  0  0  0
  -23.9048  -29.5060   19.9792 C   0  0  0  0  0  0  0  0  0  0  0  0
  -29.2017  -26.4997   19.7687 C   0  0  0  0  0  0  0  0  0  0  0  0
  -23.4042  -29.6544   21.2805 C   0  0  0  0  0  0  0  0  0  0  0  0
  -20.2454  -24.7941   22.0274 C   0  0  0  0  0  0  0  0  0  0  0  0
  -19.9376  -23.4857   21.6545 C   0  0  0  0  0  0  0  0  0  0  0  0
  -22.2919  -22.9455   21.6067 C   0  0  0  0  0  0  0  0  0  0  0  0
  -25.3874  -11.9750   20.7035 C   0  0  0  0  0  0  0  0  0  0  0  0
  -21.3071  -28.6470   20.5755 C   0  0  0  0  0  0  0  0  0  0  0  0
  -24.4046   -9.9055   21.2264 C   0  0  0  0  0  0  0  0  0  0  0  0
  -20.9608  -22.5614   21.4441 C   0  0  0  0  0  0  0  0  0  0  0  0
  -22.1332   -8.2881   21.3120 C   0  0  0  0  0  0  0  0  0  0  0  0
  -23.9597   -9.3919   22.4446 C   0  0  0  0  0  0  0  0  0  0  0  0
  -24.9378  -15.9098   19.2157 C   0  0  0  0  0  0  0  0  0  0  0  0
  -24.3867  -17.6723   18.0220 C   0  0  0  0  0  0  0  0  0  0  0  0
  -23.4984  -15.5166   17.1208 C   0  0  0  0  0  0  0  0  0  0  0  0
  -26.6850  -28.7250   21.3073 C   0  0  0  0  0  0  0  0  0  0  0  0
  -26.3381  -31.5897   22.7889 C   0  0  0  0  0  0  0  0  0  0  0  0
  -24.2429  -34.0554   23.8739 C   0  0  0  0  0  0  0  0  0  0  0  0
  -24.7128  -22.2534   21.5245 C   0  0  0  0  0  0  0  0  0  0  0  0
  -31.4664  -27.0047   20.8207 C   0  0  0  0  0  0  0  0  0  0  0  0
  -25.2864  -29.9906   19.6346 C   0  0  0  0  0  0  0  0  0  0  0  0
  -24.2287  -30.2668   22.3823 C   0  0  0  0  0  0  0  0  0  0  0  0
  -30.7044  -27.8352   21.8503 C   0  0  0  0  0  0  0  0  0  0  0  0
  -27.6099  -20.8755   19.9801 C   0  0  0  0  0  0  0  0  0  0  0  0
  -29.3872  -27.1571   22.2139 C   0  0  0  0  0  0  0  0  0  0  0  0
  -27.1487  -19.4932   19.5123 C   0  0  0  0  0  0  0  0  0  0  0  0
  -26.9813  -21.2604   21.3182 C   0  0  0  0  0  0  0  0  0  0  0  0
  -25.0556  -19.7823   20.8988 C   0  0  0  0  0  0  0  0  0  0  0  0
  -28.4762  -27.0279   20.9872 C   0  0  1  0  0  0  0  0  0  0  0  0
  -26.2099  -30.0737   20.8460 C   0  0  1  0  0  0  0  0  0  0  0  0
  -25.6117  -19.3783   19.5236 C   0  0  2  0  0  0  0  0  0  0  0  0
  -18.5114  -23.0700   21.4809 C   0  0  0  0  0  0  0  0  0  0  0  0
  -24.2481  -36.2537   25.0843 C   0  0  0  0  0  0  0  0  0  0  0  0
  -26.7431  -30.1282   25.4366 C   0  0  0  0  0  0  0  0  0  0  0  0
  -25.8100  -32.1351   26.6071 C   0  0  0  0  0  0  0  0  0  0  0  0
  -27.9089  -32.3348   25.2740 C   0  0  0  0  0  0  0  0  0  0  0  0
  -23.1074  -35.4757   21.5389 C   0  0  0  0  0  0  0  0  0  0  0  0
  -20.5669  -21.0119   19.6835 C   0  0  0  0  0  0  0  0  0  0  0  0
  -19.1578  -25.8120   22.2612 C   0  0  0  0  0  0  0  0  0  0  0  0
  -18.5411  -26.3614   20.9730 C   0  0  0  0  0  0  0  0  0  0  0  0
  -19.5327  -27.1333   20.1103 C   0  0  0  0  0  0  0  0  0  1  0  0
  -25.7006  -32.0581   24.0747 C   0  0  1  0  0  0  0  0  0  0  0  0
  -24.3043  -35.5653   23.7294 C   0  0  2  0  0  0  0  0  0  0  0  0
  -26.5255  -31.6507   25.3280 C   0  0  0  0  0  0  0  0  0  0  0  0
  -25.5011  -16.9374   19.8566 N   0  0  0  0  0  0  0  0  0  0  0  0
  -25.1483  -17.9951   19.1064 N   0  0  0  0  0  0  0  0  0  0  0  0
  -25.5755  -30.7196   21.9970 N   0  0  0  0  0  0  0  0  0  0  0  0
  -25.5240  -21.1314   21.2525 N   0  0  0  0  0  0  0  0  0  0  0  0
  -23.9454  -18.6150   17.1623 N   0  0  0  0  0  0  0  0  0  0  0  0
  -23.4391  -14.1298   17.3151 N   0  0  0  0  0  0  0  0  0  0  0  0
  -23.3438  -22.0191   21.3992 N   0  0  0  0  0  0  0  0  0  0  0  0
  -27.8449  -28.2960   20.6907 N   0  0  0  0  0  0  0  0  0  0  0  0
  -25.5020  -33.4963   23.9316 N   0  0  0  0  0  0  0  0  0  0  0  0
  -23.1619  -36.0537   22.9063 N   0  3  0  0  0  0  0  0  0  0  0  0
  -22.9278  -16.0219   16.1245 O   0  0  0  0  0  0  0  0  0  0  0  0
  -26.0474  -28.1191   22.1605 O   0  0  0  0  0  0  0  0  0  0  0  0
  -27.4682  -31.9871   22.4945 O   0  0  0  0  0  0  0  0  0  0  0  0
  -23.1840  -33.4345   23.9337 O   0  0  0  0  0  0  0  0  0  0  0  0
  -25.1979  -23.3490   21.8183 O   0  0  0  0  0  0  0  0  0  0  0  0
  -25.5315  -10.7092   21.1824 O   0  0  0  0  0  0  0  0  0  0  0  0
  -20.6582  -21.2814   21.0800 O   0  0  0  0  0  0  0  0  0  0  0  0
  -20.0468  -28.2265   20.8700 O   0  0  0  0  0  0  0  0  0  1  0  0
  -21.0417   -7.5128   21.3531 F   0  0  0  0  0  0  0  0  0  0  0  0
  -24.6185   -9.6728   23.5772 F   0  0  0  0  0  0  0  0  0  0  0  0
  1  2  1  0  0  0  0
  1  5  2  0  0  0  0
  2  6  2  0  0  0  0
  3 10  2  0  0  0  0
  3 17  1  0  0  0  0
  4 11  1  0  0  0  0
  4 17  2  0  0  0  0
  5 19  1  0  0  0  0
  6 21  1  0  0  0  0
  7 12  2  0  0  0  0
  7 20  1  0  0  0  0
  8  9  2  0  0  0  0
  8 23  1  0  0  0  0
  9 25  1  0  0  0  0
 10 26  1  0  0  0  0
 11 26  2  0  0  0  0
 12 27  1  0  0  0  0
 13 14  2  0  0  0  0
 13 28  1  0  0  0  0
 14 30  1  0  0  0  0
 15 22  1  0  0  0  0
 15 27  2  0  0  0  0
 16 30  2  0  0  0  0
 16 31  1  0  0  0  0
 17 32  1  0  0  0  0
 18 32  1  0  0  0  0
 18 33  2  0  0  0  0
 18 34  1  0  0  0  0
 19 21  2  0  0  0  0
 19 39  1  0  0  0  0
 20 22  2  0  0  0  0
 20 40  1  0  0  0  0
 21 48  1  0  0  0  0
 22 41  1  0  0  0  0
 23 24  2  0  0  0  0
 23 58  1  0  0  0  0
 24 29  1  0  0  0  0
 24 51  1  0  0  0  0
 25 29  2  0  0  0  0
 25 70  1  0  0  0  0
 26 79  1  0  0  0  0
 27 81  1  0  0  0  0
 28 31  2  0  0  0  0
 28 79  1  0  0  0  0
 29 80  1  0  0  0  0
 30 82  1  0  0  0  0
 31 83  1  0  0  0  0
 32 64  2  0  0  0  0
 33 65  1  0  0  0  0
 33 68  1  0  0  0  0
 34 69  1  0  0  0  0
 34 74  2  0  0  0  0
 35 49  1  0  0  0  0
 35 71  1  0  0  0  0
 35 75  2  0  0  0  0
 36 61  1  0  0  0  0
 36 66  1  0  0  0  0
 36 76  2  0  0  0  0
 37 62  1  0  0  0  0
 37 72  1  0  0  0  0
 37 77  2  0  0  0  0
 38 67  1  0  0  0  0
 38 70  1  0  0  0  0
 38 78  2  0  0  0  0
 39 42  1  0  0  0  0
 40 49  1  0  0  0  0
 41 66  1  0  0  0  0
 42 44  1  0  0  0  0
 43 45  1  0  0  0  0
 43 46  1  0  0  0  0
 44 48  1  0  0  0  0
 45 50  1  0  0  0  0
 46 67  1  0  0  0  0
 47 50  1  0  0  0  0
 47 67  1  0  0  0  0
 48 71  1  0  0  0  0
 49 66  1  0  0  0  0
 50 65  1  0  0  0  0
 52 62  1  0  0  0  0
 53 63  1  0  0  0  0
 54 63  1  0  0  0  0
 55 63  1  0  0  0  0
 56 73  1  0  0  0  0
 57 80  1  0  0  0  0
 58 59  1  0  0  0  0
 59 60  1  0  0  0  0
 60 81  1  0  0  0  0
 61 63  1  0  0  0  0
 61 72  1  0  0  0  0
 62 73  1  0  0  0  0
 64 65  1  0  0  0  0
M  CHG  1  73   1
M  ISO  4  38 100  60 101  70 100  81 101
M  END
> <Batch ID>
0017

> <Smiles>
CNC(C)C(=O)NC(C(=O)N1Cc2cc([101O:1][101CH2:1]CCc3ccc([100NH:0][100C:0](=O)N4CCCC(n5nc(-c6ccc(Oc7ccc(F)cc7F)cc6)c(C(N)=O)c5N)C4)c(OC)c3C)ccc2CC1C(=O)NC1CCCc2ccccc21)C(C)(C)C

> <Shape>
0.300

> <Color>
0.092

> <Negative vol penalty>
0.000

$$$$

  -OEChem-04052316013D

 87 95  0     1  0  0  0  0  0999 V2000
  -30.4182  -31.1072   24.2980 C   0  0  0  0  0  0  0  0  0  0  0  0
  -30.1543  -29.7478   24.4315 C   0  0  0  0  0  0  0  0  0  0  0  0
  -22.9948  -10.0368   19.9221 C   0  0  0  0  0  0  0  0  0  0  0  0
  -23.8089   -9.9092   22.1932 C   0  0  0  0  0  0  0  0  0  0  0  0
  -29.9826  -31.7927   23.1647 C   0  0  0  0  0  0  0  0  0  0  0  0
  -29.4536  -29.0733   23.4323 C   0  0  0  0  0  0  0  0  0  0  0  0
  -31.5471  -24.6125   22.2645 C   0  0  0  0  0  0  0  0  0  0  0  0
  -22.2048   -8.9086   20.1418 C   0  0  0  0  0  0  0  0  0  0  0  0
  -23.0187   -8.7809   22.4130 C   0  0  0  0  0  0  0  0  0  0  0  0
  -31.3112  -23.5507   23.1367 C   0  0  0  0  0  0  0  0  0  0  0  0
  -19.7725   -8.1037   23.0643 C   0  0  0  0  0  0  0  0  0  0  0  0
  -19.0428   -8.0467   24.2516 C   0  0  0  0  0  0  0  0  0  0  0  0
  -31.9986  -19.0348   22.9586 C   0  0  0  0  0  0  0  0  0  0  0  0
  -29.6016  -22.7188   21.6519 C   0  0  0  0  0  0  0  0  0  0  0  0
  -20.2107   -6.0249   24.8724 C   0  0  0  0  0  0  0  0  0  0  0  0
  -23.7970  -10.5371   20.9478 C   0  0  0  0  0  0  0  0  0  0  0  0
  -31.6120  -18.0405   23.8571 C   0  0  0  0  0  0  0  0  0  0  0  0
  -24.2519  -13.0472   20.9267 C   0  0  0  0  0  0  0  0  0  0  0  0
  -29.2846  -31.1241   22.1466 C   0  0  0  0  0  0  0  0  0  0  0  0
  -30.8032  -24.7417   21.0828 C   0  0  0  0  0  0  0  0  0  0  0  0
  -29.0071  -29.7507   22.2850 C   0  0  0  0  0  0  0  0  0  0  0  0
  -29.8318  -23.7818   20.7652 C   0  0  0  0  0  0  0  0  0  0  0  0
  -31.8196  -18.8446   21.5884 C   0  0  0  0  0  0  0  0  0  0  0  0
  -31.2541  -17.6599   21.1167 C   0  0  0  0  0  0  0  0  0  0  0  0
  -30.8676  -16.6655   22.0153 C   0  0  0  0  0  0  0  0  0  0  0  0
  -22.2167   -8.2806   21.3873 C   0  0  0  0  0  0  0  0  0  0  0  0
  -30.3364  -22.6052   22.8319 C   0  0  0  0  0  0  0  0  0  0  0  0
  -20.7214   -7.1213   22.7809 C   0  0  0  0  0  0  0  0  0  0  0  0
  -19.2619   -7.0073   25.1557 C   0  0  0  0  0  0  0  0  0  0  0  0
  -20.9405   -6.0819   23.6850 C   0  0  0  0  0  0  0  0  0  0  0  0
  -31.0466  -16.8558   23.3855 C   0  0  0  0  0  0  0  0  0  0  0  0
  -24.6138  -11.7023   20.7212 C   0  0  0  0  0  0  0  0  0  0  0  0
  -25.3685  -13.7619   20.5676 C   0  0  0  0  0  0  0  0  0  0  0  0
  -31.8243  -18.2980   25.2840 C   0  0  0  0  0  0  0  0  0  0  0  0
  -23.0170  -13.6009   21.4000 C   0  0  0  0  0  0  0  0  0  0  0  0
  -30.9495  -18.8937   26.1205 C   0  0  0  0  0  0  0  0  0  0  0  0
  -28.8036  -26.9207   19.9180 C   0  0  0  0  0  0  0  0  0  0  0  0
  -28.9192  -25.0465   17.2729 C   0  0  0  0  0  0  0  0  0  0  0  0
  -29.4961  -21.9625   15.9304 C   0  0  0  0  0  0  0  0  0  0  0  0
  -30.8797  -14.5515   20.6452 C   0  0  0  0  0  0  0  0  0  0  0  0
  -28.7926  -31.9175   20.9620 C   0  0  0  0  0  0  0  0  0  0  0  0
  -31.0882  -25.8781   20.1395 C   0  0  0  0  0  0  0  0  0  0  0  0
  -29.0199  -23.8639   19.4993 C   0  0  0  0  0  0  0  0  0  0  0  0
  -28.3831  -31.0492   19.7751 C   0  0  0  0  0  0  0  0  0  0  0  0
  -29.5989  -12.2963   18.2058 C   0  0  0  0  0  0  0  0  0  0  0  0
  -27.5097  -29.8880   20.2393 C   0  0  0  0  0  0  0  0  0  0  0  0
  -28.1580  -12.0514   18.6597 C   0  0  0  0  0  0  0  0  0  0  0  0
  -30.5520  -12.4308   19.3920 C   0  0  0  0  0  0  0  0  0  0  0  0
  -28.7141  -13.1793   20.8518 C   0  0  0  0  0  0  0  0  0  0  0  0
  -28.2715  -28.9788   21.2111 C   0  0  1  0  0  0  0  0  0  0  0  0
  -29.9166  -26.1958   19.2156 C   0  0  1  0  0  0  0  0  0  0  0  0
  -27.7064  -13.1018   19.6933 C   0  0  2  0  0  0  0  0  0  0  0  0
  -32.2399  -19.9273   20.6487 C   0  0  0  0  0  0  0  0  0  0  0  0
  -31.0644  -17.4655   19.6445 C   0  0  0  0  0  0  0  0  0  0  0  0
  -31.3350  -19.0717   27.5694 C   0  0  0  0  0  0  0  0  0  0  0  0
  -28.4565  -18.6536   26.4146 C   0  0  0  0  0  0  0  0  0  0  0  0
  -29.4741  -20.7301   13.7445 C   0  0  0  0  0  0  0  0  0  0  0  0
  -25.8708  -24.9503   17.3607 C   0  0  0  0  0  0  0  0  0  0  0  0
  -25.9569  -22.9969   15.7970 C   0  0  0  0  0  0  0  0  0  0  0  0
  -26.8407  -25.2136   15.0706 C   0  0  0  0  0  0  0  0  0  0  0  0
  -32.3814  -21.3325   16.1238 C   0  0  0  0  0  0  0  0  0  0  0  0
  -29.4007  -20.9383   25.9098 C   0  0  0  0  0  0  0  0  0  0  0  0
  -30.3403  -21.8002   25.0697 C   0  0  0  0  0  0  0  0  0  1  0  0
  -29.5771  -19.4170   25.6974 C   0  0  1  0  0  0  0  0  0  0  0  0
  -28.1348  -23.8594   16.7687 C   0  0  1  0  0  0  0  0  0  0  0  0
  -30.3167  -21.5234   14.7311 C   0  0  2  0  0  0  0  0  0  0  0  0
  -26.7146  -24.2543   16.2741 C   0  0  0  0  0  0  0  0  0  0  0  0
  -25.8625  -11.5680   20.2667 N   0  0  0  0  0  0  0  0  0  0  0  0
  -26.2950  -12.8377   20.1835 N   0  0  0  0  0  0  0  0  0  0  0  0
  -29.3313  -24.9969   18.6122 N   0  0  0  0  0  0  0  0  0  0  0  0
  -30.0623  -13.4464   20.3267 N   0  0  0  0  0  0  0  0  0  0  0  0
  -25.6383  -15.0844   20.5460 N   0  0  0  0  0  0  0  0  0  0  0  0
  -21.9726  -12.7243   21.7243 N   0  0  0  0  0  0  0  0  0  0  0  0
  -30.2955  -15.4680   21.5188 N   0  0  0  0  0  0  0  0  0  0  0  0
  -29.1853  -28.1199   20.4887 N   0  0  0  0  0  0  0  0  0  0  0  0
  -28.9658  -23.2228   15.7526 N   0  0  0  0  0  0  0  0  0  0  0  0
  -31.4570  -20.6693   15.1684 N   0  3  0  0  0  0  0  0  0  0  0  0
  -22.8392  -14.8372   21.5159 O   0  0  0  0  0  0  0  0  0  0  0  0
  -27.6812  -26.4293   19.9392 O   0  0  0  0  0  0  0  0  0  0  0  0
  -29.1637  -25.9802   16.5048 O   0  0  0  0  0  0  0  0  0  0  0  0
  -29.3381  -21.2564   16.9239 O   0  0  0  0  0  0  0  0  0  0  0  0
  -32.0039  -14.6895   20.1562 O   0  0  0  0  0  0  0  0  0  0  0  0
  -21.4456   -7.1797   21.6021 O   0  0  0  0  0  0  0  0  0  0  0  0
  -30.1037  -21.5682   23.6817 O   0  0  0  0  0  0  0  0  0  1  0  0
  -18.5621   -6.9536   26.2966 F   0  0  0  0  0  0  0  0  0  0  0  0
  -21.8515   -5.1359   23.4189 F   0  0  0  0  0  0  0  0  0  0  0  0
  -30.5627  -15.6127   24.4999 Cl  0  0  0  0  0  0  0  0  0  0  0  0
  1  2  1  0  0  0  0
  1  5  2  0  0  0  0
  2  6  2  0  0  0  0
  3  8  2  0  0  0  0
  3 16  1  0  0  0  0
  4  9  1  0  0  0  0
  4 16  2  0  0  0  0
  5 19  1  0  0  0  0
  6 21  1  0  0  0  0
  7 10  2  0  0  0  0
  7 20  1  0  0  0  0
  8 26  1  0  0  0  0
  9 26  2  0  0  0  0
 10 27  1  0  0  0  0
 11 12  2  0  0  0  0
 11 28  1  0  0  0  0
 12 29  1  0  0  0  0
 13 17  1  0  0  0  0
 13 23  2  0  0  0  0
 14 22  1  0  0  0  0
 14 27  2  0  0  0  0
 15 29  2  0  0  0  0
 15 30  1  0  0  0  0
 16 32  1  0  0  0  0
 17 31  2  0  0  0  0
 17 34  1  0  0  0  0
 18 32  1  0  0  0  0
 18 33  2  0  0  0  0
 18 35  1  0  0  0  0
 19 21  2  0  0  0  0
 19 41  1  0  0  0  0
 20 22  2  0  0  0  0
 20 42  1  0  0  0  0
 21 50  1  0  0  0  0
 22 43  1  0  0  0  0
 23 24  1  0  0  0  0
 23 53  1  0  0  0  0
 24 25  2  0  0  0  0
 24 54  1  0  0  0  0
 25 31  1  0  0  0  0
 25 74  1  0  0  0  0
 26 83  1  0  0  0  0
 27 84  1  0  0  0  0
 28 30  2  0  0  0  0
 28 83  1  0  0  0  0
 29 85  1  0  0  0  0
 30 86  1  0  0  0  0
 31 87  1  0  0  0  0
 32 68  2  0  0  0  0
 33 69  1  0  0  0  0
 33 72  1  0  0  0  0
 34 36  2  0  0  0  0
 35 73  1  0  0  0  0
 35 78  2  0  0  0  0
 36 55  1  0  0  0  0
 36 64  1  0  0  0  0
 37 51  1  0  0  0  0
 37 75  1  0  0  0  0
 37 79  2  0  0  0  0
 38 65  1  0  0  0  0
 38 70  1  0  0  0  0
 38 80  2  0  0  0  0
 39 66  1  0  0  0  0
 39 76  1  0  0  0  0
 39 81  2  0  0  0  0
 40 71  1  0  0  0  0
 40 74  1  0  0  0  0
 40 82  2  0  0  0  0
 41 44  1  0  0  0  0
 42 51  1  0  0  0  0
 43 70  1  0  0  0  0
 44 46  1  0  0  0  0
 45 47  1  0  0  0  0
 45 48  1  0  0  0  0
 46 50  1  0  0  0  0
 47 52  1  0  0  0  0
 48 71  1  0  0  0  0
 49 52  1  0  0  0  0
 49 71  1  0  0  0  0
 50 75  1  0  0  0  0
 51 70  1  0  0  0  0
 52 69  1  0  0  0  0
 56 64  1  0  0  0  0
 57 66  1  0  0  0  0
 58 67  1  0  0  0  0
 59 67  1  0  0  0  0
 60 67  1  0  0  0  0
 61 77  1  0  0  0  0
 62 63  1  0  0  0  0
 62 64  1  0  0  0  0
 63 84  1  0  0  0  0
 65 67  1  0  0  0  0
 65 76  1  0  0  0  0
 66 77  1  0  0  0  0
 68 69  1  0  0  0  0
M  CHG  1  77   1
M  ISO  4  40 100  63 101  74 100  84 101
M  END
> <Batch ID>
0017

> <Smiles>
CNC(C)C(=O)NC(C(=O)N1Cc2cc([101O:1][101CH2:1]CC(C)C(C)=Cc3cc(C)c(C)c([100NH:0][100C:0](=O)N4CCCC(n5nc(-c6ccc(Oc7ccc(F)cc7F)cc6)c(C(N)=O)c5N)C4)c3Cl)ccc2CC1C(=O)NC1CCCc2ccccc21)C(C)(C)C

> <Shape>
0.254

> <Color>
0.198

> <Negative vol penalty>
0.000

$$$$

  -OEChem-04052316013D

 92100  0     1  0  0  0  0  0999 V2000
  -31.2767  -25.0490   19.2625 C   0  0  0  0  0  0  0  0  0  0  0  0
  -31.3538  -25.8905   20.1167 C   0  0  0  0  0  0  0  0  0  0  0  0
  -18.0783  -24.8345   22.7113 C   0  0  0  0  0  0  0  0  0  0  0  0
  -18.8883  -23.7882   22.2846 C   0  0  0  0  0  0  0  0  0  0  0  0
  -26.8732  -13.1226   20.9315 C   0  0  0  0  0  0  0  0  0  0  0  0
  -27.1121  -13.0508   18.5284 C   0  0  0  0  0  0  0  0  0  0  0  0
  -18.0434  -26.0241   21.9868 C   0  0  0  0  0  0  0  0  0  0  0  0
  -19.6727  -23.9354   21.1400 C   0  0  0  0  0  0  0  0  0  0  0  0
  -26.2136  -27.2671   18.8224 C   0  0  0  0  0  0  0  0  0  0  0  0
  -26.3110  -11.8462   20.9137 C   0  0  0  0  0  0  0  0  0  0  0  0
  -26.5499  -11.7744   18.5106 C   0  0  0  0  0  0  0  0  0  0  0  0
  -26.7880  -28.4611   19.2563 C   0  0  0  0  0  0  0  0  0  0  0  0
  -24.4819   -8.7516   21.4629 C   0  0  0  0  0  0  0  0  0  0  0  0
  -23.3403   -8.5334   22.2340 C   0  0  0  0  0  0  0  0  0  0  0  0
  -32.1945  -23.9495   17.2823 C   0  0  0  0  0  0  0  0  0  0  0  0
  -26.2702  -27.8739   21.5380 C   0  0  0  0  0  0  0  0  0  0  0  0
  -22.1688  -10.2349   20.9812 C   0  0  0  0  0  0  0  0  0  0  0  0
  -31.1890  -24.0494   18.2437 C   0  0  0  0  0  0  0  0  0  0  0  0
  -27.2738  -13.7250   19.7388 C   0  0  0  0  0  0  0  0  0  0  0  0
  -29.2175  -15.3708   19.8820 C   0  0  0  0  0  0  0  0  0  0  0  0
  -18.8185  -26.1805   20.8259 C   0  0  0  0  0  0  0  0  0  0  0  0
  -25.6525  -26.3711   19.7437 C   0  0  0  0  0  0  0  0  0  0  0  0
  -19.6694  -25.1369   20.4086 C   0  0  0  0  0  0  0  0  0  0  0  0
  -25.6916  -26.6681   21.1135 C   0  0  0  0  0  0  0  0  0  0  0  0
  -32.1135  -22.9758   16.2868 C   0  0  0  0  0  0  0  0  0  0  0  0
  -31.0269  -22.1018   16.2529 C   0  0  0  0  0  0  0  0  0  0  0  0
  -30.0213  -22.2016   17.2144 C   0  0  0  0  0  0  0  0  0  0  0  0
  -26.1494  -11.1721   19.7033 C   0  0  0  0  0  0  0  0  0  0  0  0
  -26.8138  -28.7660   20.6140 C   0  0  0  0  0  0  0  0  0  0  0  0
  -24.4670   -9.7115   20.4509 C   0  0  0  0  0  0  0  0  0  0  0  0
  -22.1838   -9.2750   21.9932 C   0  0  0  0  0  0  0  0  0  0  0  0
  -23.3105  -10.4531   20.2101 C   0  0  0  0  0  0  0  0  0  0  0  0
  -30.1024  -23.1754   18.2099 C   0  0  0  0  0  0  0  0  0  0  0  0
  -27.8541  -15.0437   19.7564 C   0  0  0  0  0  0  0  0  0  0  0  0
  -29.2463  -16.7435   19.8430 C   0  0  0  0  0  0  0  0  0  0  0  0
  -30.3562  -14.5108   20.0213 C   0  0  0  0  0  0  0  0  0  0  0  0
  -22.7412  -25.1966   20.2426 C   0  0  0  0  0  0  0  0  0  0  0  0
  -24.2782  -23.3707   22.4394 C   0  0  0  0  0  0  0  0  0  0  0  0
  -26.9605  -22.9752   24.5121 C   0  0  0  0  0  0  0  0  0  0  0  0
  -30.7673  -28.2260   20.6974 C   0  0  0  0  0  0  0  0  0  0  0  0
  -27.6147  -21.5889   17.6378 C   0  0  0  0  0  0  0  0  0  0  0  0
  -18.7484  -27.4922   20.0843 C   0  0  0  0  0  0  0  0  0  0  0  0
  -25.0606  -25.0750   19.2619 C   0  0  0  0  0  0  0  0  0  0  0  0
  -25.1209  -25.7305   22.1448 C   0  0  0  0  0  0  0  0  0  0  0  0
  -19.2669  -27.3944   18.6533 C   0  0  0  0  0  0  0  0  0  0  0  0
  -25.4879  -20.1252   20.0896 C   0  0  0  0  0  0  0  0  0  0  0  0
  -20.6227  -26.7045   18.6376 C   0  0  0  0  0  0  0  0  0  0  0  0
  -26.0261  -18.6996   20.2319 C   0  0  0  0  0  0  0  0  0  0  0  0
  -25.5613  -20.6176   18.6454 C   0  0  0  0  0  0  0  0  0  0  0  0
  -27.4217  -19.0776   18.1591 C   0  0  0  0  0  0  0  0  0  0  0  0
  -20.5079  -25.2631   19.1495 C   0  0  1  0  0  0  0  0  0  0  0  0
  -24.0588  -24.4743   20.2432 C   0  0  1  0  0  0  0  0  0  0  0  0
  -27.4284  -18.5617   19.6073 C   0  0  2  0  0  0  0  0  0  0  0  0
  -33.2035  -22.8902   15.2688 C   0  0  0  0  0  0  0  0  0  0  0  0
  -30.9441  -21.0589   15.1824 C   0  0  0  0  0  0  0  0  0  0  0  0
  -33.8066  -27.6410   20.3642 C   0  0  0  0  0  0  0  0  0  0  0  0
  -28.5007  -21.8408   26.1363 C   0  0  0  0  0  0  0  0  0  0  0  0
  -30.7131  -26.3961   22.4190 C   0  0  0  0  0  0  0  0  0  0  0  0
  -22.2471  -24.3534   24.4933 C   0  0  0  0  0  0  0  0  0  0  0  0
  -23.7806  -23.5383   26.2967 C   0  0  0  0  0  0  0  0  0  0  0  0
  -22.8096  -21.9225   24.6629 C   0  0  0  0  0  0  0  0  0  0  0  0
  -28.5350  -21.7374   22.3331 C   0  0  0  0  0  0  0  0  0  0  0  0
  -32.9426  -27.1653   21.5301 C   0  0  0  0  0  0  0  0  0  0  0  0
  -29.1288  -30.9141   22.3480 C   0  0  0  0  0  0  0  0  0  0  0  0
  -30.2184  -30.5518   21.3479 C   0  0  0  0  0  0  0  0  0  0  0  0
  -27.9648  -29.9306   22.3388 C   0  0  0  0  0  0  0  0  0  1  0  0
  -24.6177  -23.5180   23.9030 C   0  0  1  0  0  0  0  0  0  0  0  0
  -27.8883  -21.7965   24.7450 C   0  0  2  0  0  0  0  0  0  0  0  0
  -31.4527  -26.9275   21.1751 C   0  0  1  0  0  0  0  0  0  0  0  0
  -23.3728  -23.3518   24.8196 C   0  0  0  0  0  0  0  0  0  0  0  0
  -27.0732  -16.1217   19.6461 N   0  0  0  0  0  0  0  0  0  0  0  0
  -27.9488  -17.1396   19.7023 N   0  0  0  0  0  0  0  0  0  0  0  0
  -24.5475  -24.4787   21.6235 N   0  0  0  0  0  0  0  0  0  0  0  0
  -26.9199  -20.4602   18.1216 N   0  0  0  0  0  0  0  0  0  0  0  0
  -30.2546  -17.6381   19.9158 N   0  0  0  0  0  0  0  0  0  0  0  0
  -30.1482  -13.1250   20.0428 N   0  0  0  0  0  0  0  0  0  0  0  0
  -28.9101  -21.3226   17.1955 N   0  0  0  0  0  0  0  0  0  0  0  0
  -21.8357  -24.7145   19.3169 N   0  0  0  0  0  0  0  0  0  0  0  0
  -30.8040  -29.2680   21.6185 N   0  0  0  0  0  0  0  0  0  0  0  0
  -25.6889  -22.5647   24.1715 N   0  0  0  0  0  0  0  0  0  0  0  0
  -28.9932  -21.8015   23.7448 N   0  3  0  0  0  0  0  0  0  0  0  0
  -31.5220  -14.9586   20.1402 O   0  0  0  0  0  0  0  0  0  0  0  0
  -22.5592  -26.1219   21.0251 O   0  0  0  0  0  0  0  0  0  0  0  0
  -23.7987  -22.3091   22.0336 O   0  0  0  0  0  0  0  0  0  0  0  0
  -27.3261  -24.1432   24.6249 O   0  0  0  0  0  0  0  0  0  0  0  0
  -30.2353  -28.3231   19.5907 O   0  0  0  0  0  0  0  0  0  0  0  0
  -27.1084  -22.7139   17.6426 O   0  0  0  0  0  0  0  0  0  0  0  0
  -25.6010   -9.9265   19.6857 O   0  0  0  0  0  0  0  0  0  0  0  0
  -27.3733  -29.9310   21.0402 O   0  0  0  0  0  0  0  0  0  1  0  0
  -21.0871   -9.0642   22.7328 F   0  0  0  0  0  0  0  0  0  0  0  0
  -23.2897  -11.3759   19.2385 F   0  0  0  0  0  0  0  0  0  0  0  0
  -29.1330  -23.2690   19.1339 F   0  0  0  0  0  0  0  0  0  0  0  0
  1  2  3  0  0  0  0
  1 18  1  0  0  0  0
  2 69  1  0  0  0  0
  3  4  1  0  0  0  0
  3  7  2  0  0  0  0
  4  8  2  0  0  0  0
  5 10  2  0  0  0  0
  5 19  1  0  0  0  0
  6 11  1  0  0  0  0
  6 19  2  0  0  0  0
  7 21  1  0  0  0  0
  8 23  1  0  0  0  0
  9 12  2  0  0  0  0
  9 22  1  0  0  0  0
 10 28  1  0  0  0  0
 11 28  2  0  0  0  0
 12 29  1  0  0  0  0
 13 14  2  0  0  0  0
 13 30  1  0  0  0  0
 14 31  1  0  0  0  0
 15 18  1  0  0  0  0
 15 25  2  0  0  0  0
 16 24  1  0  0  0  0
 16 29  2  0  0  0  0
 17 31  2  0  0  0  0
 17 32  1  0  0  0  0
 18 33  2  0  0  0  0
 19 34  1  0  0  0  0
 20 34  1  0  0  0  0
 20 35  2  0  0  0  0
 20 36  1  0  0  0  0
 21 23  2  0  0  0  0
 21 42  1  0  0  0  0
 22 24  2  0  0  0  0
 22 43  1  0  0  0  0
 23 51  1  0  0  0  0
 24 44  1  0  0  0  0
 25 26  1  0  0  0  0
 25 54  1  0  0  0  0
 26 27  2  0  0  0  0
 26 55  1  0  0  0  0
 27 33  1  0  0  0  0
 27 77  1  0  0  0  0
 28 88  1  0  0  0  0
 29 89  1  0  0  0  0
 30 32  2  0  0  0  0
 30 88  1  0  0  0  0
 31 90  1  0  0  0  0
 32 91  1  0  0  0  0
 33 92  1  0  0  0  0
 34 71  2  0  0  0  0
 35 72  1  0  0  0  0
 35 75  1  0  0  0  0
 36 76  1  0  0  0  0
 36 82  2  0  0  0  0
 37 52  1  0  0  0  0
 37 78  1  0  0  0  0
 37 83  2  0  0  0  0
 38 67  1  0  0  0  0
 38 73  1  0  0  0  0
 38 84  2  0  0  0  0
 39 68  1  0  0  0  0
 39 80  1  0  0  0  0
 39 85  2  0  0  0  0
 40 69  1  0  0  0  0
 40 79  1  0  0  0  0
 40 86  2  0  0  0  0
 41 74  1  0  0  0  0
 41 77  1  0  0  0  0
 41 87  2  0  0  0  0
 42 45  1  0  0  0  0
 43 52  1  0  0  0  0
 44 73  1  0  0  0  0
 45 47  1  0  0  0  0
 46 48  1  0  0  0  0
 46 49  1  0  0  0  0
 47 51  1  0  0  0  0
 48 53  1  0  0  0  0
 49 74  1  0  0  0  0
 50 53  1  0  0  0  0
 50 74  1  0  0  0  0
 51 78  1  0  0  0  0
 52 73  1  0  0  0  0
 53 72  1  0  0  0  0
 56 63  1  0  0  0  0
 57 68  1  0  0  0  0
 58 69  1  0  0  0  0
 59 70  1  0  0  0  0
 60 70  1  0  0  0  0
 61 70  1  0  0  0  0
 62 81  1  0  0  0  0
 63 69  1  0  0  0  0
 64 65  1  0  0  0  0
 64 66  1  0  0  0  0
 65 79  1  0  0  0  0
 66 89  1  0  0  0  0
 67 70  1  0  0  0  0
 67 80  1  0  0  0  0
 68 81  1  0  0  0  0
 71 72  1  0  0  0  0
M  CHG  1  81   1
M  ISO  4  41 100  66 101  77 100  89 101
M  END
> <Batch ID>
0017

> <Smiles>
CCC(C)(C#Cc1cc(C)c(C)c([100NH:0][100C:0](=O)N2CCCC(n3nc(-c4ccc(Oc5ccc(F)cc5F)cc4)c(C(N)=O)c3N)C2)c1F)C(=O)NCC[101CH2:1][101O:1]c1ccc2c(c1)CN(C(=O)C(NC(=O)C(C)NC)C(C)(C)C)C(C(=O)NC1CCCc3ccccc31)C2

> <Shape>
0.206

> <Color>
0.063

> <Negative vol penalty>
0.000

$$$$

  -OEChem-04052316013D

 87 95  0     1  0  0  0  0  0999 V2000
  -27.8955  -37.8191   20.1740 C   0  0  0  0  0  0  0  0  0  0  0  0
  -28.3544  -36.5292   19.9268 C   0  0  0  0  0  0  0  0  0  0  0  0
  -24.2914  -12.7764   17.9595 C   0  0  0  0  0  0  0  0  0  0  0  0
  -23.7125  -14.7359   19.2487 C   0  0  0  0  0  0  0  0  0  0  0  0
  -26.9780  -38.0469   21.1987 C   0  0  0  0  0  0  0  0  0  0  0  0
  -27.8968  -35.4665   20.7050 C   0  0  0  0  0  0  0  0  0  0  0  0
  -26.8978  -29.7135   18.8581 C   0  0  0  0  0  0  0  0  0  0  0  0
  -29.1747  -17.7109   14.3911 C   0  0  0  0  0  0  0  0  0  0  0  0
  -29.3656  -17.8221   15.7683 C   0  0  0  0  0  0  0  0  0  0  0  0
  -25.3622  -12.5278   18.8181 C   0  0  0  0  0  0  0  0  0  0  0  0
  -24.7832  -14.4873   20.1074 C   0  0  0  0  0  0  0  0  0  0  0  0
  -27.6629  -28.5519   18.9525 C   0  0  0  0  0  0  0  0  0  0  0  0
  -28.4991  -13.6948   19.2897 C   0  0  0  0  0  0  0  0  0  0  0  0
  -29.7248  -13.3586   18.7154 C   0  0  0  0  0  0  0  0  0  0  0  0
  -26.4583  -27.9279   20.9472 C   0  0  0  0  0  0  0  0  0  0  0  0
  -29.6926  -11.2444   19.8841 C   0  0  0  0  0  0  0  0  0  0  0  0
  -23.4666  -13.8805   18.1747 C   0  0  0  0  0  0  0  0  0  0  0  0
  -21.0409  -13.6649   17.4148 C   0  0  0  0  0  0  0  0  0  0  0  0
  -26.5016  -36.9850   21.9837 C   0  0  0  0  0  0  0  0  0  0  0  0
  -25.9130  -29.9970   19.8152 C   0  0  0  0  0  0  0  0  0  0  0  0
  -26.9731  -35.6805   21.7421 C   0  0  0  0  0  0  0  0  0  0  0  0
  -25.6803  -29.0925   20.8612 C   0  0  0  0  0  0  0  0  0  0  0  0
  -27.9286  -17.3374   13.8876 C   0  0  0  0  0  0  0  0  0  0  0  0
  -28.3105  -17.5597   16.6421 C   0  0  0  0  0  0  0  0  0  0  0  0
  -26.8735  -17.0750   14.7614 C   0  0  0  0  0  0  0  0  0  0  0  0
  -25.6081  -13.3832   19.8921 C   0  0  0  0  0  0  0  0  0  0  0  0
  -27.4452  -27.6602   19.9988 C   0  0  0  0  0  0  0  0  0  0  0  0
  -27.8700  -12.8058   20.1614 C   0  0  0  0  0  0  0  0  0  0  0  0
  -30.3216  -12.1334   19.0125 C   0  0  0  0  0  0  0  0  0  0  0  0
  -28.4668  -11.5806   20.4586 C   0  0  0  0  0  0  0  0  0  0  0  0
  -27.0644  -17.1862   16.1387 C   0  0  0  0  0  0  0  0  0  0  0  0
  -22.3607  -14.1381   17.2878 C   0  0  0  0  0  0  0  0  0  0  0  0
  -20.3830  -14.1866   16.3280 C   0  0  0  0  0  0  0  0  0  0  0  0
  -20.4616  -12.8285   18.4250 C   0  0  0  0  0  0  0  0  0  0  0  0
  -25.4455  -32.3214   21.9323 C   0  0  0  0  0  0  0  0  0  0  0  0
  -22.6215  -30.7958   22.4009 C   0  0  0  0  0  0  0  0  0  0  0  0
  -20.8239  -27.9018   22.2010 C   0  0  0  0  0  0  0  0  0  0  0  0
  -24.3981  -17.3583   14.3929 C   0  0  0  0  0  0  0  0  0  0  0  0
  -25.5461  -37.2872   23.1109 C   0  0  0  0  0  0  0  0  0  0  0  0
  -25.0780  -31.2412   19.6842 C   0  0  0  0  0  0  0  0  0  0  0  0
  -24.6213  -29.3405   21.9031 C   0  0  0  0  0  0  0  0  0  0  0  0
  -24.8259  -36.0524   23.6463 C   0  0  0  0  0  0  0  0  0  0  0  0
  -22.6783  -14.6253   12.6413 C   0  0  0  0  0  0  0  0  0  0  0  0
  -25.8140  -34.9113   23.8660 C   0  0  0  0  0  0  0  0  0  0  0  0
  -21.2347  -14.8037   13.1086 C   0  0  0  0  0  0  0  0  0  0  0  0
  -23.3763  -15.9707   12.4925 C   0  0  0  0  0  0  0  0  0  0  0  0
  -21.9492  -16.9816   14.2409 C   0  0  0  0  0  0  0  0  0  0  0  0
  -26.4814  -34.4981   22.5486 C   0  0  1  0  0  0  0  0  0  0  0  0
  -24.4521  -31.6824   21.0036 C   0  0  1  0  0  0  0  0  0  0  0  0
  -21.1016  -15.6978   14.3550 C   0  0  2  0  0  0  0  0  0  0  0  0
  -27.7571  -17.2289   12.4068 C   0  0  0  0  0  0  0  0  0  0  0  0
  -18.5522  -26.9558   22.6931 C   0  0  0  0  0  0  0  0  0  0  0  0
  -23.3025  -30.7132   25.3739 C   0  0  0  0  0  0  0  0  0  0  0  0
  -21.5261  -28.9726   25.6613 C   0  0  0  0  0  0  0  0  0  0  0  0
  -20.9149  -31.2564   24.8654 C   0  0  0  0  0  0  0  0  0  0  0  0
  -20.3598  -27.2297   19.3564 C   0  0  0  0  0  0  0  0  0  0  0  0
  -28.5645  -17.6902   18.1150 C   0  0  0  0  0  0  0  0  0  0  0  0
  -28.1544  -21.6019   20.0844 C   0  0  0  0  0  0  0  0  0  0  0  0
  -27.5391  -22.8675   20.6861 C   0  0  0  0  0  0  0  0  0  0  0  0
  -27.5184  -20.3411   20.6769 C   0  0  0  0  0  0  0  0  0  0  0  0
  -28.1483  -24.1269   20.0734 C   0  0  0  0  0  0  0  0  0  0  0  0
  -28.1465  -19.0493   20.1685 C   0  0  0  0  0  0  0  0  0  0  0  0
  -27.5721  -25.3903   20.6968 C   0  0  0  0  0  0  0  0  0  1  0  0
  -22.1423  -29.6882   23.3078 C   0  0  1  0  0  0  0  0  0  0  0  0
  -19.4406  -27.6114   21.6472 C   0  0  2  0  0  0  0  0  0  0  0  0
  -21.9928  -30.1536   24.7837 C   0  0  0  0  0  0  0  0  0  0  0  0
  -22.5327  -14.9017   16.2055 N   0  0  0  0  0  0  0  0  0  0  0  0
  -21.3124  -14.9121   15.6425 N   0  0  0  0  0  0  0  0  0  0  0  0
  -23.8354  -30.5740   21.7352 N   0  0  0  0  0  0  0  0  0  0  0  0
  -23.3064  -16.7382   13.7432 N   0  0  0  0  0  0  0  0  0  0  0  0
  -19.1058  -14.0909   15.9012 N   0  0  0  0  0  0  0  0  0  0  0  0
  -21.2793  -12.3806   19.4715 N   0  0  0  0  0  0  0  0  0  0  0  0
  -25.6148  -16.6964   14.2323 N   0  0  0  0  0  0  0  0  0  0  0  0
  -25.5809  -33.6857   21.7589 N   0  0  0  0  0  0  0  0  0  0  0  0
  -20.9109  -29.1786   22.7143 N   0  0  0  0  0  0  0  0  0  0  0  0
  -19.5340  -26.7000   20.4719 N   0  3  0  0  0  0  0  0  0  0  0  0
  -27.9684  -18.9215   18.7031 N   0  3  0  0  0  0  0  0  0  0  0  0
  -19.2585  -12.4749   18.3916 O   0  0  0  0  0  0  0  0  0  0  0  0
  -26.0437  -31.6284   22.7468 O   0  0  0  0  0  0  0  0  0  0  0  0
  -21.9401  -31.8172   22.2817 O   0  0  0  0  0  0  0  0  0  0  0  0
  -21.7350  -27.0771   22.1836 O   0  0  0  0  0  0  0  0  0  0  0  0
  -24.2561  -18.3800   15.0696 O   0  0  0  0  0  0  0  0  0  0  0  0
  -26.6527  -13.1408   20.7303 O   0  0  0  0  0  0  0  0  0  0  0  0
  -28.1910  -26.5259   20.0937 O   0  0  0  0  0  0  0  0  0  1  0  0
  -31.4980  -11.8100   18.4596 F   0  0  0  0  0  0  0  0  0  0  0  0
  -27.8667  -10.7220   21.2943 F   0  0  0  0  0  0  0  0  0  0  0  0
  -25.7598  -16.8597   17.2336 Cl  0  0  0  0  0  0  0  0  0  0  0  0
  1  2  1  0  0  0  0
  1  5  2  0  0  0  0
  2  6  2  0  0  0  0
  3 10  2  0  0  0  0
  3 17  1  0  0  0  0
  4 11  1  0  0  0  0
  4 17  2  0  0  0  0
  5 19  1  0  0  0  0
  6 21  1  0  0  0  0
  7 12  2  0  0  0  0
  7 20  1  0  0  0  0
  8  9  2  0  0  0  0
  8 23  1  0  0  0  0
  9 24  1  0  0  0  0
 10 26  1  0  0  0  0
 11 26  2  0  0  0  0
 12 27  1  0  0  0  0
 13 14  2  0  0  0  0
 13 28  1  0  0  0  0
 14 29  1  0  0  0  0
 15 22  1  0  0  0  0
 15 27  2  0  0  0  0
 16 29  2  0  0  0  0
 16 30  1  0  0  0  0
 17 32  1  0  0  0  0
 18 32  1  0  0  0  0
 18 33  2  0  0  0  0
 18 34  1  0  0  0  0
 19 21  2  0  0  0  0
 19 39  1  0  0  0  0
 20 22  2  0  0  0  0
 20 40  1  0  0  0  0
 21 48  1  0  0  0  0
 22 41  1  0  0  0  0
 23 25  2  0  0  0  0
 23 51  1  0  0  0  0
 24 31  2  0  0  0  0
 24 57  1  0  0  0  0
 25 31  1  0  0  0  0
 25 73  1  0  0  0  0
 26 83  1  0  0  0  0
 27 84  1  0  0  0  0
 28 30  2  0  0  0  0
 28 83  1  0  0  0  0
 29 85  1  0  0  0  0
 30 86  1  0  0  0  0
 31 87  1  0  0  0  0
 32 67  2  0  0  0  0
 33 68  1  0  0  0  0
 33 71  1  0  0  0  0
 34 72  1  0  0  0  0
 34 78  2  0  0  0  0
 35 49  1  0  0  0  0
 35 74  1  0  0  0  0
 35 79  2  0  0  0  0
 36 64  1  0  0  0  0
 36 69  1  0  0  0  0
 36 80  2  0  0  0  0
 37 65  1  0  0  0  0
 37 75  1  0  0  0  0
 37 81  2  0  0  0  0
 38 70  1  0  0  0  0
 38 73  1  0  0  0  0
 38 82  2  0  0  0  0
 39 42  1  0  0  0  0
 40 49  1  0  0  0  0
 41 69  1  0  0  0  0
 42 44  1  0  0  0  0
 43 45  1  0  0  0  0
 43 46  1  0  0  0  0
 44 48  1  0  0  0  0
 45 50  1  0  0  0  0
 46 70  1  0  0  0  0
 47 50  1  0  0  0  0
 47 70  1  0  0  0  0
 48 74  1  0  0  0  0
 49 69  1  0  0  0  0
 50 68  1  0  0  0  0
 52 65  1  0  0  0  0
 53 66  1  0  0  0  0
 54 66  1  0  0  0  0
 55 66  1  0  0  0  0
 56 76  1  0  0  0  0
 57 77  1  0  0  0  0
 58 59  1  0  0  0  0
 58 60  1  0  0  0  0
 59 61  1  0  0  0  0
 60 62  1  0  0  0  0
 61 63  1  0  0  0  0
 62 77  1  0  0  0  0
 63 84  1  0  0  0  0
 64 66  1  0  0  0  0
 64 75  1  0  0  0  0
 65 76  1  0  0  0  0
 67 68  1  0  0  0  0
M  CHG  2  76   1  77   1
M  ISO  4  38 100  63 101  73 100  84 101
M  END
> <Batch ID>
0017

> <Smiles>
CNC(C)C(=O)NC(C(=O)N1Cc2cc([101O:1][101CH2:1]CCCCCNCc3ccc(C)c([100NH:0][100C:0](=O)N4CCCC(n5nc(-c6ccc(Oc7ccc(F)cc7F)cc6)c(C(N)=O)c5N)C4)c3Cl)ccc2CC1C(=O)NC1CCCc2ccccc21)C(C)(C)C

> <Shape>
0.237

> <Color>
0.075

> <Negative vol penalty>
0.000

$$$$

  -OEChem-04052316013D

 82 90  0     1  0  0  0  0  0999 V2000
  -17.6841  -26.8614   22.5476 C   0  0  0  0  0  0  0  0  0  0  0  0
  -18.8095  -26.5129   21.8079 C   0  0  0  0  0  0  0  0  0  0  0  0
  -26.7714  -12.4341   20.9622 C   0  0  0  0  0  0  0  0  0  0  0  0
  -25.3261  -14.3377   21.3153 C   0  0  0  0  0  0  0  0  0  0  0  0
  -17.7227  -27.9693   23.3932 C   0  0  0  0  0  0  0  0  0  0  0  0
  -19.9740  -27.2727   21.9125 C   0  0  0  0  0  0  0  0  0  0  0  0
  -25.7406  -25.2316   21.6191 C   0  0  0  0  0  0  0  0  0  0  0  0
  -25.7652  -11.5848   21.4224 C   0  0  0  0  0  0  0  0  0  0  0  0
  -24.3199  -13.4884   21.7754 C   0  0  0  0  0  0  0  0  0  0  0  0
  -26.6743  -25.2039   20.5842 C   0  0  0  0  0  0  0  0  0  0  0  0
  -23.4501   -8.8820   22.1642 C   0  0  0  0  0  0  0  0  0  0  0  0
  -23.2010   -7.7181   21.4370 C   0  0  0  0  0  0  0  0  0  0  0  0
  -27.6357  -27.2586   21.4046 C   0  0  0  0  0  0  0  0  0  0  0  0
  -31.6394  -22.8756   20.9065 C   0  0  0  0  0  0  0  0  0  0  0  0
  -22.6696   -9.0476   19.4909 C   0  0  0  0  0  0  0  0  0  0  0  0
  -26.5519  -13.8106   20.9087 C   0  0  0  0  0  0  0  0  0  0  0  0
  -27.8132  -15.1034   19.1072 C   0  0  0  0  0  0  0  0  0  0  0  0
  -18.8913  -28.7374   23.5156 C   0  0  0  0  0  0  0  0  0  0  0  0
  -25.7406  -26.2805   22.5498 C   0  0  0  0  0  0  0  0  0  0  0  0
  -20.0279  -28.3927   22.7595 C   0  0  0  0  0  0  0  0  0  0  0  0
  -26.7026  -27.2959   22.4519 C   0  0  0  0  0  0  0  0  0  0  0  0
  -31.5677  -24.2188   20.5373 C   0  0  0  0  0  0  0  0  0  0  0  0
  -30.9537  -24.5807   19.3383 C   0  0  0  0  0  0  0  0  0  0  0  0
  -30.4834  -22.2562   18.8774 C   0  0  0  0  0  0  0  0  0  0  0  0
  -31.0973  -21.8943   20.0765 C   0  0  0  0  0  0  0  0  0  0  0  0
  -24.5394  -12.1119   21.8290 C   0  0  0  0  0  0  0  0  0  0  0  0
  -27.6202  -26.2190   20.4750 C   0  0  0  0  0  0  0  0  0  0  0  0
  -23.3088  -10.1288   21.5548 C   0  0  0  0  0  0  0  0  0  0  0  0
  -22.8107   -7.8009   20.1004 C   0  0  0  0  0  0  0  0  0  0  0  0
  -22.9186  -10.2116   20.2182 C   0  0  0  0  0  0  0  0  0  0  0  0
  -30.4116  -23.5994   18.5083 C   0  0  0  0  0  0  0  0  0  0  0  0
  -27.5911  -14.6885   20.4340 C   0  0  0  0  0  0  0  0  0  0  0  0
  -28.9117  -15.9244   19.1835 C   0  0  0  0  0  0  0  0  0  0  0  0
  -27.0910  -14.7761   17.9127 C   0  0  0  0  0  0  0  0  0  0  0  0
  -23.6673  -28.5423   23.3803 C   0  0  0  0  0  0  0  0  0  0  0  0
  -25.8671  -29.1685   25.6805 C   0  0  0  0  0  0  0  0  0  0  0  0
  -29.1140  -28.9756   26.7135 C   0  0  0  0  0  0  0  0  0  0  0  0
  -31.7629  -20.0307   21.6354 C   0  0  0  0  0  0  0  0  0  0  0  0
  -18.8703  -29.9541   24.4067 C   0  0  0  0  0  0  0  0  0  0  0  0
  -24.7436  -26.2817   23.6761 C   0  0  0  0  0  0  0  0  0  0  0  0
  -26.7578  -28.4337   23.4373 C   0  0  0  0  0  0  0  0  0  0  0  0
  -20.2608  -30.4857   24.7445 C   0  0  0  0  0  0  0  0  0  0  0  0
  -32.1415  -16.7599   22.9903 C   0  0  0  0  0  0  0  0  0  0  0  0
  -21.1219  -30.5650   23.4878 C   0  0  0  0  0  0  0  0  0  0  0  0
  -31.0097  -15.9635   22.3369 C   0  0  0  0  0  0  0  0  0  0  0  0
  -31.7172  -18.1928   23.3073 C   0  0  0  0  0  0  0  0  0  0  0  0
  -30.0210  -18.1417   21.5214 C   0  0  0  0  0  0  0  0  0  0  0  0
  -21.3175  -29.1775   22.8647 C   0  0  1  0  0  0  0  0  0  0  0  0
  -24.5104  -27.6691   24.2661 C   0  0  1  0  0  0  0  0  0  0  0  0
  -30.4215  -16.7115   21.1244 C   0  0  2  0  0  0  0  0  0  0  0  0
  -32.1576  -25.2483   21.4452 C   0  0  0  0  0  0  0  0  0  0  0  0
  -29.9073  -21.1893   17.9967 C   0  0  0  0  0  0  0  0  0  0  0  0
  -30.6146  -29.6079   28.6229 C   0  0  0  0  0  0  0  0  0  0  0  0
  -25.8566  -32.0665   24.7259 C   0  0  0  0  0  0  0  0  0  0  0  0
  -27.9956  -32.4142   25.9796 C   0  0  0  0  0  0  0  0  0  0  0  0
  -25.9185  -31.7867   27.2104 C   0  0  0  0  0  0  0  0  0  0  0  0
  -29.8035  -26.1497   27.2595 C   0  0  0  0  0  0  0  0  0  0  0  0
  -30.8885  -26.0403   18.9590 C   0  0  0  0  0  0  0  0  0  0  0  0
  -29.8032  -26.7901   19.7237 C   0  0  0  0  0  0  0  0  0  1  0  0
  -27.0841  -30.0560   25.7828 C   0  0  1  0  0  0  0  0  0  0  0  0
  -29.7282  -28.5255   28.0268 C   0  0  2  0  0  0  0  0  0  0  0  0
  -26.7117  -31.5606   25.9048 C   0  0  0  0  0  0  0  0  0  0  0  0
  -28.4775  -15.2032   21.2904 N   0  0  0  0  0  0  0  0  0  0  0  0
  -29.2672  -15.9500   20.5000 N   0  0  0  0  0  0  0  0  0  0  0  0
  -25.7579  -28.3936   24.5171 N   0  0  0  0  0  0  0  0  0  0  0  0
  -31.1740  -18.8400   22.1110 N   0  0  0  0  0  0  0  0  0  0  0  0
  -29.5986  -16.6195   18.2522 N   0  0  0  0  0  0  0  0  0  0  0  0
  -25.9871  -13.9184   18.0131 N   0  0  0  0  0  0  0  0  0  0  0  0
  -31.1824  -20.5365   20.4728 N   0  0  0  0  0  0  0  0  0  0  0  0
  -22.3088  -28.4264   23.6047 N   0  0  0  0  0  0  0  0  0  0  0  0
  -27.8710  -29.5427   26.8989 N   0  0  0  0  0  0  0  0  0  0  0  0
  -30.5544  -27.3025   27.8200 N   0  3  0  0  0  0  0  0  0  0  0  0
  -27.4249  -15.2177   16.7870 O   0  0  0  0  0  0  0  0  0  0  0  0
  -24.2093  -29.2685   22.5554 O   0  0  0  0  0  0  0  0  0  0  0  0
  -25.0474  -29.1576   26.6023 O   0  0  0  0  0  0  0  0  0  0  0  0
  -29.6820  -28.8411   25.6319 O   0  0  0  0  0  0  0  0  0  0  0  0
  -32.7296  -20.5476   22.2013 O   0  0  0  0  0  0  0  0  0  0  0  0
  -23.5572  -11.2834   22.2778 O   0  0  0  0  0  0  0  0  0  0  0  0
  -28.5323  -26.1947   19.4654 O   0  0  0  0  0  0  0  0  0  1  0  0
  -22.5731   -6.6830   19.4017 F   0  0  0  0  0  0  0  0  0  0  0  0
  -22.7824  -11.4065   19.6270 F   0  0  0  0  0  0  0  0  0  0  0  0
  -29.6481  -24.0502   17.0190 Cl  0  0  0  0  0  0  0  0  0  0  0  0
  1  2  1  0  0  0  0
  1  5  2  0  0  0  0
  2  6  2  0  0  0  0
  3  8  2  0  0  0  0
  3 16  1  0  0  0  0
  4  9  1  0  0  0  0
  4 16  2  0  0  0  0
  5 18  1  0  0  0  0
  6 20  1  0  0  0  0
  7 10  2  0  0  0  0
  7 19  1  0  0  0  0
  8 26  1  0  0  0  0
  9 26  2  0  0  0  0
 10 27  1  0  0  0  0
 11 12  2  0  0  0  0
 11 28  1  0  0  0  0
 12 29  1  0  0  0  0
 13 21  1  0  0  0  0
 13 27  2  0  0  0  0
 14 22  2  0  0  0  0
 14 25  1  0  0  0  0
 15 29  2  0  0  0  0
 15 30  1  0  0  0  0
 16 32  1  0  0  0  0
 17 32  1  0  0  0  0
 17 33  2  0  0  0  0
 17 34  1  0  0  0  0
 18 20  2  0  0  0  0
 18 39  1  0  0  0  0
 19 21  2  0  0  0  0
 19 40  1  0  0  0  0
 20 48  1  0  0  0  0
 21 41  1  0  0  0  0
 22 23  1  0  0  0  0
 22 51  1  0  0  0  0
 23 31  2  0  0  0  0
 23 58  1  0  0  0  0
 24 25  2  0  0  0  0
 24 31  1  0  0  0  0
 24 52  1  0  0  0  0
 25 69  1  0  0  0  0
 26 78  1  0  0  0  0
 27 79  1  0  0  0  0
 28 30  2  0  0  0  0
 28 78  1  0  0  0  0
 29 80  1  0  0  0  0
 30 81  1  0  0  0  0
 31 82  1  0  0  0  0
 32 63  2  0  0  0  0
 33 64  1  0  0  0  0
 33 67  1  0  0  0  0
 34 68  1  0  0  0  0
 34 73  2  0  0  0  0
 35 49  1  0  0  0  0
 35 70  1  0  0  0  0
 35 74  2  0  0  0  0
 36 60  1  0  0  0  0
 36 65  1  0  0  0  0
 36 75  2  0  0  0  0
 37 61  1  0  0  0  0
 37 71  1  0  0  0  0
 37 76  2  0  0  0  0
 38 66  1  0  0  0  0
 38 69  1  0  0  0  0
 38 77  2  0  0  0  0
 39 42  1  0  0  0  0
 40 49  1  0  0  0  0
 41 65  1  0  0  0  0
 42 44  1  0  0  0  0
 43 45  1  0  0  0  0
 43 46  1  0  0  0  0
 44 48  1  0  0  0  0
 45 50  1  0  0  0  0
 46 66  1  0  0  0  0
 47 50  1  0  0  0  0
 47 66  1  0  0  0  0
 48 70  1  0  0  0  0
 49 65  1  0  0  0  0
 50 64  1  0  0  0  0
 53 61  1  0  0  0  0
 54 62  1  0  0  0  0
 55 62  1  0  0  0  0
 56 62  1  0  0  0  0
 57 72  1  0  0  0  0
 58 59  1  0  0  0  0
 59 79  1  0  0  0  0
 60 62  1  0  0  0  0
 60 71  1  0  0  0  0
 61 72  1  0  0  0  0
 63 64  1  0  0  0  0
M  CHG  1  72   1
M  ISO  4  38 100  59 101  69 100  79 101
M  END
> <Batch ID>
0017

> <Smiles>
CNC(C)C(=O)NC(C(=O)N1Cc2cc([101O:1][101CH2:1]Cc3c(C)cc([100NH:0][100C:0](=O)N4CCCC(n5nc(-c6ccc(Oc7ccc(F)cc7F)cc6)c(C(N)=O)c5N)C4)c(C)c3Cl)ccc2CC1C(=O)NC1CCCc2ccccc21)C(C)(C)C

> <Shape>
0.283

> <Color>
0.069

> <Negative vol penalty>
0.000

$$$$

  -OEChem-04052316013D

 83 91  0     1  0  0  0  0  0999 V2000
  -25.1955  -26.6218   18.3253 C   0  0  0  0  0  0  0  0  0  0  0  0
  -25.9178  -25.9998   19.3386 C   0  0  0  0  0  0  0  0  0  0  0  0
  -23.0121   -9.8924   19.9700 C   0  0  0  0  0  0  0  0  0  0  0  0
  -23.7457   -9.9265   22.2717 C   0  0  0  0  0  0  0  0  0  0  0  0
  -25.3639  -26.2173   17.0016 C   0  0  0  0  0  0  0  0  0  0  0  0
  -26.8081  -24.9722   19.0290 C   0  0  0  0  0  0  0  0  0  0  0  0
  -32.1268  -23.7476   21.8072 C   0  0  0  0  0  0  0  0  0  0  0  0
  -22.2526   -8.7515   20.2290 C   0  0  0  0  0  0  0  0  0  0  0  0
  -22.9862   -8.7857   22.5307 C   0  0  0  0  0  0  0  0  0  0  0  0
  -32.4805  -22.8253   22.7911 C   0  0  0  0  0  0  0  0  0  0  0  0
  -23.2463   -5.4524   22.0279 C   0  0  0  0  0  0  0  0  0  0  0  0
  -23.8421   -4.4317   22.7687 C   0  0  0  0  0  0  0  0  0  0  0  0
  -33.2305  -21.2978   21.0813 C   0  0  0  0  0  0  0  0  0  0  0  0
  -32.0450  -16.5617   22.5672 C   0  0  0  0  0  0  0  0  0  0  0  0
  -22.1233   -4.6504   24.4524 C   0  0  0  0  0  0  0  0  0  0  0  0
  -23.7587  -10.4799   20.9913 C   0  0  0  0  0  0  0  0  0  0  0  0
  -24.1301  -12.9990   20.8364 C   0  0  0  0  0  0  0  0  0  0  0  0
  -26.2638  -25.1908   16.6746 C   0  0  0  0  0  0  0  0  0  0  0  0
  -32.3124  -23.4469   20.4501 C   0  0  0  0  0  0  0  0  0  0  0  0
  -26.9877  -24.5528   17.6999 C   0  0  0  0  0  0  0  0  0  0  0  0
  -32.8806  -22.2190   20.0822 C   0  0  0  0  0  0  0  0  0  0  0  0
  -32.6474  -17.4473   23.4607 C   0  0  0  0  0  0  0  0  0  0  0  0
  -31.8645  -18.3404   24.1921 C   0  0  0  0  0  0  0  0  0  0  0  0
  -30.4791  -18.3479   24.0301 C   0  0  0  0  0  0  0  0  0  0  0  0
  -30.6595  -16.5692   22.4051 C   0  0  0  0  0  0  0  0  0  0  0  0
  -22.2396   -8.1981   21.5093 C   0  0  0  0  0  0  0  0  0  0  0  0
  -33.0298  -21.5991   22.4282 C   0  0  0  0  0  0  0  0  0  0  0  0
  -22.0891   -6.0723   22.4995 C   0  0  0  0  0  0  0  0  0  0  0  0
  -29.8766  -17.4623   23.1366 C   0  0  0  0  0  0  0  0  0  0  0  0
  -23.2806   -4.0306   23.9809 C   0  0  0  0  0  0  0  0  0  0  0  0
  -21.5276   -5.6712   23.7117 C   0  0  0  0  0  0  0  0  0  0  0  0
  -24.5440  -11.6581   20.7242 C   0  0  0  0  0  0  0  0  0  0  0  0
  -25.2346  -13.7307   20.4744 C   0  0  0  0  0  0  0  0  0  0  0  0
  -22.8607  -13.5351   21.2326 C   0  0  0  0  0  0  0  0  0  0  0  0
  -30.3891  -23.1295   17.9394 C   0  0  0  0  0  0  0  0  0  0  0  0
  -33.1874  -22.8509   16.3226 C   0  0  0  0  0  0  0  0  0  0  0  0
  -36.5076  -22.0645   16.3918 C   0  0  0  0  0  0  0  0  0  0  0  0
  -30.7098  -14.7187   20.6965 C   0  0  0  0  0  0  0  0  0  0  0  0
  -26.3769  -24.7559   15.2349 C   0  0  0  0  0  0  0  0  0  0  0  0
  -31.9504  -24.4633   19.4021 C   0  0  0  0  0  0  0  0  0  0  0  0
  -33.1192  -21.8560   18.6401 C   0  0  0  0  0  0  0  0  0  0  0  0
  -27.6174  -23.9136   14.9486 C   0  0  0  0  0  0  0  0  0  0  0  0
  -29.5957  -12.2809   18.3528 C   0  0  0  0  0  0  0  0  0  0  0  0
  -27.7857  -22.8327   16.0117 C   0  0  0  0  0  0  0  0  0  0  0  0
  -28.1480  -12.0118   18.7701 C   0  0  0  0  0  0  0  0  0  0  0  0
  -30.4995  -12.5182   19.5613 C   0  0  0  0  0  0  0  0  0  0  0  0
  -28.5851  -13.2849   20.9091 C   0  0  0  0  0  0  0  0  0  0  0  0
  -27.9813  -23.4511   17.4012 C   0  0  1  0  0  0  0  0  0  0  0  0
  -31.7074  -23.8448   18.0288 C   0  0  1  0  0  0  0  0  0  0  0  0
  -27.6239  -13.1041   19.7228 C   0  0  2  0  0  0  0  0  0  0  0  0
  -34.1326  -17.4189   23.6161 C   0  0  0  0  0  0  0  0  0  0  0  0
  -29.6345  -19.3037   24.8118 C   0  0  0  0  0  0  0  0  0  0  0  0
  -38.5235  -21.8960   14.9068 C   0  0  0  0  0  0  0  0  0  0  0  0
  -32.1166  -20.2366   15.1698 C   0  0  0  0  0  0  0  0  0  0  0  0
  -34.4558  -19.6595   14.4892 C   0  0  0  0  0  0  0  0  0  0  0  0
  -33.3413  -21.6751   13.5311 C   0  0  0  0  0  0  0  0  0  0  0  0
  -37.9690  -24.1147   17.9475 C   0  0  0  0  0  0  0  0  0  0  0  0
  -27.9937  -18.3349   21.9750 C   0  0  0  0  0  0  0  0  0  0  0  0
  -32.5179  -19.2981   25.1586 C   0  0  0  0  0  0  0  0  0  0  0  0
  -32.6179  -20.7117   24.5958 C   0  0  0  0  0  0  0  0  0  1  0  0
  -34.0942  -21.7046   15.9445 C   0  0  1  0  0  0  0  0  0  0  0  0
  -37.7256  -22.7875   15.8456 C   0  0  2  0  0  0  0  0  0  0  0  0
  -33.4958  -20.8247   14.8108 C   0  0  0  0  0  0  0  0  0  0  0  0
  -25.8124  -11.5419   20.3222 N   0  0  0  0  0  0  0  0  0  0  0  0
  -26.2050  -12.8191   20.1785 N   0  0  0  0  0  0  0  0  0  0  0  0
  -32.7429  -22.8804   17.6520 N   0  0  0  0  0  0  0  0  0  0  0  0
  -29.9420  -13.5686   20.4162 N   0  0  0  0  0  0  0  0  0  0  0  0
  -25.4607  -15.0584   20.3834 N   0  0  0  0  0  0  0  0  0  0  0  0
  -21.8349  -12.6425   21.5720 N   0  0  0  0  0  0  0  0  0  0  0  0
  -30.0635  -15.6634   21.4930 N   0  0  0  0  0  0  0  0  0  0  0  0
  -29.3363  -23.9364   17.5522 N   0  0  0  0  0  0  0  0  0  0  0  0
  -35.3878  -22.2968   15.6216 N   0  0  0  0  0  0  0  0  0  0  0  0
  -38.6180  -23.2139   16.9604 N   0  3  0  0  0  0  0  0  0  0  0  0
  -22.6376  -14.7690   21.2683 O   0  0  0  0  0  0  0  0  0  0  0  0
  -30.3316  -21.9336   18.2008 O   0  0  0  0  0  0  0  0  0  0  0  0
  -32.8904  -23.6931   15.4716 O   0  0  0  0  0  0  0  0  0  0  0  0
  -36.5466  -21.3609   17.3988 O   0  0  0  0  0  0  0  0  0  0  0  0
  -31.8460  -14.8677   20.2395 O   0  0  0  0  0  0  0  0  0  0  0  0
  -21.4984   -7.0850   21.7625 O   0  0  0  0  0  0  0  0  0  0  0  0
  -28.5211  -17.4712   22.9785 O   0  0  0  0  0  0  0  0  0  0  0  0
  -33.3753  -20.6969   23.3865 O   0  0  0  0  0  0  0  0  0  1  0  0
  -23.8519   -3.0493   24.6914 F   0  0  0  0  0  0  0  0  0  0  0  0
  -20.4152   -6.2621   24.1692 F   0  0  0  0  0  0  0  0  0  0  0  0
  1  2  1  0  0  0  0
  1  5  2  0  0  0  0
  2  6  2  0  0  0  0
  3  8  2  0  0  0  0
  3 16  1  0  0  0  0
  4  9  1  0  0  0  0
  4 16  2  0  0  0  0
  5 18  1  0  0  0  0
  6 20  1  0  0  0  0
  7 10  2  0  0  0  0
  7 19  1  0  0  0  0
  8 26  1  0  0  0  0
  9 26  2  0  0  0  0
 10 27  1  0  0  0  0
 11 12  2  0  0  0  0
 11 28  1  0  0  0  0
 12 30  1  0  0  0  0
 13 21  1  0  0  0  0
 13 27  2  0  0  0  0
 14 22  2  0  0  0  0
 14 25  1  0  0  0  0
 15 30  2  0  0  0  0
 15 31  1  0  0  0  0
 16 32  1  0  0  0  0
 17 32  1  0  0  0  0
 17 33  2  0  0  0  0
 17 34  1  0  0  0  0
 18 20  2  0  0  0  0
 18 39  1  0  0  0  0
 19 21  2  0  0  0  0
 19 40  1  0  0  0  0
 20 48  1  0  0  0  0
 21 41  1  0  0  0  0
 22 23  1  0  0  0  0
 22 51  1  0  0  0  0
 23 24  2  0  0  0  0
 23 59  1  0  0  0  0
 24 29  1  0  0  0  0
 24 52  1  0  0  0  0
 25 29  2  0  0  0  0
 25 70  1  0  0  0  0
 26 79  1  0  0  0  0
 27 81  1  0  0  0  0
 28 31  2  0  0  0  0
 28 79  1  0  0  0  0
 29 80  1  0  0  0  0
 30 82  1  0  0  0  0
 31 83  1  0  0  0  0
 32 64  2  0  0  0  0
 33 65  1  0  0  0  0
 33 68  1  0  0  0  0
 34 69  1  0  0  0  0
 34 74  2  0  0  0  0
 35 49  1  0  0  0  0
 35 71  1  0  0  0  0
 35 75  2  0  0  0  0
 36 61  1  0  0  0  0
 36 66  1  0  0  0  0
 36 76  2  0  0  0  0
 37 62  1  0  0  0  0
 37 72  1  0  0  0  0
 37 77  2  0  0  0  0
 38 67  1  0  0  0  0
 38 70  1  0  0  0  0
 38 78  2  0  0  0  0
 39 42  1  0  0  0  0
 40 49  1  0  0  0  0
 41 66  1  0  0  0  0
 42 44  1  0  0  0  0
 43 45  1  0  0  0  0
 43 46  1  0  0  0  0
 44 48  1  0  0  0  0
 45 50  1  0  0  0  0
 46 67  1  0  0  0  0
 47 50  1  0  0  0  0
 47 67  1  0  0  0  0
 48 71  1  0  0  0  0
 49 66  1  0  0  0  0
 50 65  1  0  0  0  0
 53 62  1  0  0  0  0
 54 63  1  0  0  0  0
 55 63  1  0  0  0  0
 56 63  1  0  0  0  0
 57 73  1  0  0  0  0
 58 80  1  0  0  0  0
 59 60  1  0  0  0  0
 60 81  1  0  0  0  0
 61 63  1  0  0  0  0
 61 72  1  0  0  0  0
 62 73  1  0  0  0  0
 64 65  1  0  0  0  0
M  CHG  1  73   1
M  ISO  4  38 100  60 101  70 100  81 101
M  END
> <Batch ID>
0017

> <Smiles>
CNC(C)C(=O)NC(C(=O)N1Cc2cc([101O:1][101CH2:1]Cc3c(C)cc([100NH:0][100C:0](=O)N4CCCC(n5nc(-c6ccc(Oc7ccc(F)cc7F)cc6)c(C(N)=O)c5N)C4)c(OC)c3C)ccc2CC1C(=O)NC1CCCc2ccccc21)C(C)(C)C

> <Shape>
0.216

> <Color>
0.203

> <Negative vol penalty>
0.000

$$$$

  -OEChem-04052316013D

 82 90  0     1  0  0  0  0  0999 V2000
  -22.4927   -7.8331   20.7552 C   0  0  0  0  0  0  0  0  0  0  0  0
  -21.8394   -9.0606   20.7131 C   0  0  0  0  0  0  0  0  0  0  0  0
  -26.0915  -29.7666   21.2113 C   0  0  0  0  0  0  0  0  0  0  0  0
  -25.1975  -27.8475   20.0473 C   0  0  0  0  0  0  0  0  0  0  0  0
  -23.7895   -7.7520   21.2610 C   0  0  0  0  0  0  0  0  0  0  0  0
  -22.4820  -10.2076   21.1778 C   0  0  0  0  0  0  0  0  0  0  0  0
  -21.9422  -15.8875   18.9524 C   0  0  0  0  0  0  0  0  0  0  0  0
  -27.2713  -29.6640   20.4745 C   0  0  0  0  0  0  0  0  0  0  0  0
  -26.3773  -27.7449   19.3104 C   0  0  0  0  0  0  0  0  0  0  0  0
  -21.1827  -16.9848   19.3560 C   0  0  0  0  0  0  0  0  0  0  0  0
  -29.2920  -26.7573   17.3766 C   0  0  0  0  0  0  0  0  0  0  0  0
  -29.8517  -25.4890   17.2222 C   0  0  0  0  0  0  0  0  0  0  0  0
  -23.0782  -17.8394   20.5790 C   0  0  0  0  0  0  0  0  0  0  0  0
  -20.8922  -22.1118   26.2278 C   0  0  0  0  0  0  0  0  0  0  0  0
  -30.0711  -25.2939   19.6203 C   0  0  0  0  0  0  0  0  0  0  0  0
  -25.0545  -28.8584   20.9978 C   0  0  0  0  0  0  0  0  0  0  0  0
  -22.6853  -29.7024   21.4241 C   0  0  0  0  0  0  0  0  0  0  0  0
  -24.4519   -8.9001   21.7232 C   0  0  0  0  0  0  0  0  0  0  0  0
  -23.2744  -15.7522   19.3687 C   0  0  0  0  0  0  0  0  0  0  0  0
  -23.7883  -10.1415   21.6915 C   0  0  0  0  0  0  0  0  0  0  0  0
  -23.8533  -16.7408   20.1772 C   0  0  0  0  0  0  0  0  0  0  0  0
  -20.7289  -20.7299   26.1316 C   0  0  0  0  0  0  0  0  0  0  0  0
  -20.4713  -20.1426   24.8928 C   0  0  0  0  0  0  0  0  0  0  0  0
  -20.3771  -20.9373   23.7503 C   0  0  0  0  0  0  0  0  0  0  0  0
  -20.7979  -22.9065   25.0853 C   0  0  0  0  0  0  0  0  0  0  0  0
  -27.4143  -28.6532   19.5240 C   0  0  0  0  0  0  0  0  0  0  0  0
  -21.7498  -17.9595   20.1717 C   0  0  0  0  0  0  0  0  0  0  0  0
  -29.1219  -27.2939   18.6529 C   0  0  0  0  0  0  0  0  0  0  0  0
  -30.2412  -24.7573   18.3440 C   0  0  0  0  0  0  0  0  0  0  0  0
  -29.5114  -26.5622   19.7747 C   0  0  0  0  0  0  0  0  0  0  0  0
  -20.5404  -22.3192   23.8466 C   0  0  0  0  0  0  0  0  0  0  0  0
  -23.8357  -28.9635   21.7591 C   0  0  0  0  0  0  0  0  0  0  0  0
  -21.8167  -29.4755   22.4636 C   0  0  0  0  0  0  0  0  0  0  0  0
  -22.4250  -30.5207   20.2759 C   0  0  0  0  0  0  0  0  0  0  0  0
  -24.8786  -13.6218   21.0984 C   0  0  0  0  0  0  0  0  0  0  0  0
  -27.4375  -15.4063   20.2097 C   0  0  0  0  0  0  0  0  0  0  0  0
  -28.6423  -18.4208   19.1571 C   0  0  0  0  0  0  0  0  0  0  0  0
  -21.2326  -25.0139   26.3953 C   0  0  0  0  0  0  0  0  0  0  0  0
  -25.8358   -8.7550   22.3050 C   0  0  0  0  0  0  0  0  0  0  0  0
  -24.0884  -14.5763   18.9028 C   0  0  0  0  0  0  0  0  0  0  0  0
  -25.2854  -16.6526   20.6350 C   0  0  0  0  0  0  0  0  0  0  0  0
  -26.5855  -10.0788   22.4309 C   0  0  0  0  0  0  0  0  0  0  0  0
  -21.7610  -28.4548   27.1422 C   0  0  0  0  0  0  0  0  0  0  0  0
  -25.6857  -11.1453   23.0472 C   0  0  0  0  0  0  0  0  0  0  0  0
  -22.2425  -29.0443   25.8145 C   0  0  0  0  0  0  0  0  0  0  0  0
  -22.2960  -27.0410   27.3623 C   0  0  0  0  0  0  0  0  0  0  0  0
  -22.5229  -26.6919   24.9341 C   0  0  0  0  0  0  0  0  0  0  0  0
  -24.4613  -11.4121   22.1634 C   0  0  1  0  0  0  0  0  0  0  0  0
  -25.2799  -14.2782   19.8078 C   0  0  1  0  0  0  0  0  0  0  0  0
  -21.9570  -28.0904   24.6379 C   0  0  2  0  0  0  0  0  0  0  0  0
  -20.8338  -19.9016   27.3705 C   0  0  0  0  0  0  0  0  0  0  0  0
  -20.2942  -18.6600   24.7948 C   0  0  0  0  0  0  0  0  0  0  0  0
  -30.7816  -19.5843   18.5512 C   0  0  0  0  0  0  0  0  0  0  0  0
  -28.1507  -15.6302   23.1679 C   0  0  0  0  0  0  0  0  0  0  0  0
  -29.6752  -17.5287   22.5851 C   0  0  0  0  0  0  0  0  0  0  0  0
  -30.1024  -15.2560   21.6497 C   0  0  0  0  0  0  0  0  0  0  0  0
  -27.7145  -18.9376   16.3947 C   0  0  0  0  0  0  0  0  0  0  0  0
  -20.0959  -20.2823   22.4198 C   0  0  0  0  0  0  0  0  0  0  0  0
  -21.3320  -19.6110   21.8313 C   0  0  0  0  0  0  0  0  0  1  0  0
  -28.1520  -16.6083   20.7785 C   0  0  1  0  0  0  0  0  0  0  0  0
  -29.5940  -18.7883   18.0329 C   0  0  2  0  0  0  0  0  0  0  0  0
  -28.9925  -16.2568   22.0385 C   0  0  0  0  0  0  0  0  0  0  0  0
  -23.7124  -28.3158   22.9206 N   0  0  0  0  0  0  0  0  0  0  0  0
  -22.4742  -28.6470   23.3246 N   0  0  0  0  0  0  0  0  0  0  0  0
  -26.0383  -15.4808   20.1581 N   0  0  0  0  0  0  0  0  0  0  0  0
  -21.9849  -26.1930   26.2094 N   0  0  0  0  0  0  0  0  0  0  0  0
  -20.5623  -29.9058   22.7160 N   0  0  0  0  0  0  0  0  0  0  0  0
  -23.4264  -30.6451   19.3032 N   0  0  0  0  0  0  0  0  0  0  0  0
  -20.9710  -24.3061   25.2226 N   0  0  0  0  0  0  0  0  0  0  0  0
  -24.8238  -12.2425   21.0349 N   0  0  0  0  0  0  0  0  0  0  0  0
  -28.9280  -17.1784   19.6825 N   0  0  0  0  0  0  0  0  0  0  0  0
  -28.8907  -19.6081   17.0061 N   0  3  0  0  0  0  0  0  0  0  0  0
  -21.3428  -31.1368   20.1252 O   0  0  0  0  0  0  0  0  0  0  0  0
  -24.6379  -14.3152   22.0797 O   0  0  0  0  0  0  0  0  0  0  0  0
  -28.0969  -14.4399   19.8187 O   0  0  0  0  0  0  0  0  0  0  0  0
  -27.7384  -19.1634   19.5341 O   0  0  0  0  0  0  0  0  0  0  0  0
  -20.8256  -24.6725   27.5087 O   0  0  0  0  0  0  0  0  0  0  0  0
  -28.5653  -28.5528   18.8046 O   0  0  0  0  0  0  0  0  0  0  0  0
  -21.0104  -19.0312   20.5676 O   0  0  0  0  0  0  0  0  0  1  0  0
  -30.7772  -23.5388   18.1957 F   0  0  0  0  0  0  0  0  0  0  0  0
  -29.3494  -27.0720   21.0034 F   0  0  0  0  0  0  0  0  0  0  0  0
  -20.4241  -23.3057   22.4247 Cl  0  0  0  0  0  0  0  0  0  0  0  0
  1  2  1  0  0  0  0
  1  5  2  0  0  0  0
  2  6  2  0  0  0  0
  3  8  2  0  0  0  0
  3 16  1  0  0  0  0
  4  9  1  0  0  0  0
  4 16  2  0  0  0  0
  5 18  1  0  0  0  0
  6 20  1  0  0  0  0
  7 10  2  0  0  0  0
  7 19  1  0  0  0  0
  8 26  1  0  0  0  0
  9 26  2  0  0  0  0
 10 27  1  0  0  0  0
 11 12  2  0  0  0  0
 11 28  1  0  0  0  0
 12 29  1  0  0  0  0
 13 21  1  0  0  0  0
 13 27  2  0  0  0  0
 14 22  1  0  0  0  0
 14 25  2  0  0  0  0
 15 29  2  0  0  0  0
 15 30  1  0  0  0  0
 16 32  1  0  0  0  0
 17 32  1  0  0  0  0
 17 33  2  0  0  0  0
 17 34  1  0  0  0  0
 18 20  2  0  0  0  0
 18 39  1  0  0  0  0
 19 21  2  0  0  0  0
 19 40  1  0  0  0  0
 20 48  1  0  0  0  0
 21 41  1  0  0  0  0
 22 23  2  0  0  0  0
 22 51  1  0  0  0  0
 23 24  1  0  0  0  0
 23 52  1  0  0  0  0
 24 31  2  0  0  0  0
 24 58  1  0  0  0  0
 25 31  1  0  0  0  0
 25 69  1  0  0  0  0
 26 78  1  0  0  0  0
 27 79  1  0  0  0  0
 28 30  2  0  0  0  0
 28 78  1  0  0  0  0
 29 80  1  0  0  0  0
 30 81  1  0  0  0  0
 31 82  1  0  0  0  0
 32 63  2  0  0  0  0
 33 64  1  0  0  0  0
 33 67  1  0  0  0  0
 34 68  1  0  0  0  0
 34 73  2  0  0  0  0
 35 49  1  0  0  0  0
 35 70  1  0  0  0  0
 35 74  2  0  0  0  0
 36 60  1  0  0  0  0
 36 65  1  0  0  0  0
 36 75  2  0  0  0  0
 37 61  1  0  0  0  0
 37 71  1  0  0  0  0
 37 76  2  0  0  0  0
 38 66  1  0  0  0  0
 38 69  1  0  0  0  0
 38 77  2  0  0  0  0
 39 42  1  0  0  0  0
 40 49  1  0  0  0  0
 41 65  1  0  0  0  0
 42 44  1  0  0  0  0
 43 45  1  0  0  0  0
 43 46  1  0  0  0  0
 44 48  1  0  0  0  0
 45 50  1  0  0  0  0
 46 66  1  0  0  0  0
 47 50  1  0  0  0  0
 47 66  1  0  0  0  0
 48 70  1  0  0  0  0
 49 65  1  0  0  0  0
 50 64  1  0  0  0  0
 53 61  1  0  0  0  0
 54 62  1  0  0  0  0
 55 62  1  0  0  0  0
 56 62  1  0  0  0  0
 57 72  1  0  0  0  0
 58 59  1  0  0  0  0
 59 79  1  0  0  0  0
 60 62  1  0  0  0  0
 60 71  1  0  0  0  0
 61 72  1  0  0  0  0
 63 64  1  0  0  0  0
M  CHG  1  72   1
M  ISO  4  38 100  59 101  69 100  79 101
M  END
> <Batch ID>
0017

> <Smiles>
CNC(C)C(=O)NC(C(=O)N1Cc2cc([101O:1][101CH2:1]Cc3c(C)c(C)cc([100NH:0][100C:0](=O)N4CCCC(n5nc(-c6ccc(Oc7ccc(F)cc7F)cc6)c(C(N)=O)c5N)C4)c3Cl)ccc2CC1C(=O)NC1CCCc2ccccc21)C(C)(C)C

> <Shape>
0.235

> <Color>
0.052

> <Negative vol penalty>
0.000

$$$$

  -OEChem-04052316013D

 82 90  0     1  0  0  0  0  0999 V2000
  -19.1530  -24.4374   21.5929 C   0  0  0  0  0  0  0  0  0  0  0  0
  -20.1742  -24.9165   20.7785 C   0  0  0  0  0  0  0  0  0  0  0  0
  -37.8479  -17.7542   18.4813 C   0  0  0  0  0  0  0  0  0  0  0  0
  -37.8552  -19.2178   16.5591 C   0  0  0  0  0  0  0  0  0  0  0  0
  -18.4416  -25.3174   22.4074 C   0  0  0  0  0  0  0  0  0  0  0  0
  -20.4838  -26.2761   20.7775 C   0  0  0  0  0  0  0  0  0  0  0  0
  -25.4716  -27.1329   20.9594 C   0  0  0  0  0  0  0  0  0  0  0  0
  -38.7169  -16.8845   17.8224 C   0  0  0  0  0  0  0  0  0  0  0  0
  -38.7243  -18.3482   15.9002 C   0  0  0  0  0  0  0  0  0  0  0  0
  -26.1882  -26.9762   19.7738 C   0  0  0  0  0  0  0  0  0  0  0  0
  -38.5168  -14.4947   15.4406 C   0  0  0  0  0  0  0  0  0  0  0  0
  -38.2335  -13.1301   15.4976 C   0  0  0  0  0  0  0  0  0  0  0  0
  -26.1635  -29.3665   19.4500 C   0  0  0  0  0  0  0  0  0  0  0  0
  -40.3644  -12.7324   16.5645 C   0  0  0  0  0  0  0  0  0  0  0  0
  -37.4170  -18.9208   17.8496 C   0  0  0  0  0  0  0  0  0  0  0  0
  -36.8664  -20.9041   19.3566 C   0  0  0  0  0  0  0  0  0  0  0  0
  -18.7491  -26.6870   22.4235 C   0  0  0  0  0  0  0  0  0  0  0  0
  -25.0854  -28.4089   21.3943 C   0  0  0  0  0  0  0  0  0  0  0  0
  -19.7750  -27.1755   21.5920 C   0  0  0  0  0  0  0  0  0  0  0  0
  -25.4442  -29.5370   20.6428 C   0  0  0  0  0  0  0  0  0  0  0  0
  -30.0943  -27.4794   17.5959 C   0  0  0  0  0  0  0  0  0  0  0  0
  -39.1551  -17.1815   16.5319 C   0  0  0  0  0  0  0  0  0  0  0  0
  -26.5318  -28.0928   19.0174 C   0  0  0  0  0  0  0  0  0  0  0  0
  -39.7239  -14.9782   15.9454 C   0  0  0  0  0  0  0  0  0  0  0  0
  -39.1573  -12.2490   16.0596 C   0  0  0  0  0  0  0  0  0  0  0  0
  -40.6477  -14.0970   16.5074 C   0  0  0  0  0  0  0  0  0  0  0  0
  -30.0763  -26.0664   17.4960 C   0  0  0  0  0  0  0  0  0  0  0  0
  -36.5189  -19.8192   18.5295 C   0  0  0  0  0  0  0  0  0  0  0  0
  -30.9610  -27.8087   18.6146 C   0  0  0  0  0  0  0  0  0  0  0  0
  -35.6625  -21.4327   19.7536 C   0  0  0  0  0  0  0  0  0  0  0  0
  -30.9324  -25.5751   18.4568 C   0  0  0  0  0  0  0  0  0  0  0  0
  -38.1617  -21.3905   19.7325 C   0  0  0  0  0  0  0  0  0  0  0  0
  -22.3031  -29.8485   21.9329 C   0  0  0  0  0  0  0  0  0  0  0  0
  -24.1968  -32.2323   23.0526 C   0  0  0  0  0  0  0  0  0  0  0  0
  -27.2503  -33.7564   23.0370 C   0  0  0  0  0  0  0  0  0  0  0  0
  -30.4708  -23.1049   18.6339 C   0  0  0  0  0  0  0  0  0  0  0  0
  -17.9210  -27.6068   23.2854 C   0  0  0  0  0  0  0  0  0  0  0  0
  -24.3359  -28.5632   22.6892 C   0  0  0  0  0  0  0  0  0  0  0  0
  -25.0713  -30.9303   21.0764 C   0  0  0  0  0  0  0  0  0  0  0  0
  -18.5604  -28.9755   23.5050 C   0  0  0  0  0  0  0  0  0  0  0  0
  -30.9555  -19.6351   19.2688 C   0  0  0  0  0  0  0  0  0  0  0  0
  -19.0744  -29.5425   22.1855 C   0  0  0  0  0  0  0  0  0  0  0  0
  -32.4747  -19.4630   19.2011 C   0  0  0  0  0  0  0  0  0  0  0  0
  -30.4536  -20.6508   18.2439 C   0  0  0  0  0  0  0  0  0  0  0  0
  -32.6399  -21.7861   18.2199 C   0  0  0  0  0  0  0  0  0  0  0  0
  -20.1569  -28.6398   21.5815 C   0  0  1  0  0  0  0  0  0  0  0  0
  -23.5491  -29.8676   22.7724 C   0  0  1  0  0  0  0  0  0  0  0  0
  -33.1997  -20.8209   19.2776 C   0  0  2  0  0  0  0  0  0  0  0  0
  -31.3528  -29.1334   19.1411 C   0  0  0  0  0  0  0  0  0  0  0  0
  -33.8290  -26.8856   19.7789 C   0  0  0  0  0  0  0  0  0  0  0  0
  -28.4842  -35.7054   24.0251 C   0  0  0  0  0  0  0  0  0  0  0  0
  -22.7278  -34.1196   21.1579 C   0  0  0  0  0  0  0  0  0  0  0  0
  -24.5816  -35.7717   21.4780 C   0  0  0  0  0  0  0  0  0  0  0  0
  -23.1898  -35.0687   23.4252 C   0  0  0  0  0  0  0  0  0  0  0  0
  -29.2356  -31.9888   24.3383 C   0  0  0  0  0  0  0  0  0  0  0  0
  -29.3133  -28.4549   16.7493 C   0  0  0  0  0  0  0  0  0  0  0  0
  -32.4132  -26.5583   20.2217 C   0  0  0  0  0  0  0  0  0  0  0  0
  -28.0962  -29.0117   17.4799 C   0  0  0  0  0  0  0  0  0  1  0  0
  -24.8613  -33.4443   22.4457 C   0  0  1  0  0  0  0  0  0  0  0  0
  -28.1456  -34.2297   24.1679 C   0  0  2  0  0  0  0  0  0  0  0  0
  -23.8456  -34.5748   22.1173 C   0  0  0  0  0  0  0  0  0  0  0  0
  -35.1976  -19.6664   18.4075 N   0  0  0  0  0  0  0  0  0  0  0  0
  -31.4642  -26.6432   19.1309 N   0  0  0  0  0  0  0  0  0  0  0  0
  -34.7043  -20.6622   19.1633 N   0  0  0  0  0  0  0  0  0  0  0  0
  -24.3331  -31.0287   22.3465 N   0  0  0  0  0  0  0  0  0  0  0  0
  -31.1827  -21.9137   18.3787 N   0  0  0  0  0  0  0  0  0  0  0  0
  -35.3405  -22.4768   20.5465 N   0  0  0  0  0  0  0  0  0  0  0  0
  -39.2935  -20.7303   19.2350 N   0  0  0  0  0  0  0  0  0  0  0  0
  -31.2727  -24.2370   18.7750 N   0  0  0  0  0  0  0  0  0  0  0  0
  -21.4186  -28.8391   22.2618 N   0  0  0  0  0  0  0  0  0  0  0  0
  -25.9157  -33.8393   23.3734 N   0  0  0  0  0  0  0  0  0  0  0  0
  -29.4184  -33.4545   24.1800 N   0  3  0  0  0  0  0  0  0  0  0  0
  -38.3110  -22.3711   20.5003 O   0  0  0  0  0  0  0  0  0  0  0  0
  -22.1545  -30.6883   21.0530 O   0  0  0  0  0  0  0  0  0  0  0  0
  -23.5856  -32.3476   24.1179 O   0  0  0  0  0  0  0  0  0  0  0  0
  -27.6907  -33.3568   21.9614 O   0  0  0  0  0  0  0  0  0  0  0  0
  -29.2424  -23.1150   18.7479 O   0  0  0  0  0  0  0  0  0  0  0  0
  -40.0033  -16.3333   15.8888 O   0  0  0  0  0  0  0  0  0  0  0  0
  -27.2306  -27.9426   17.8594 O   0  0  0  0  0  0  0  0  0  1  0  0
  -38.8844  -10.9388   16.1157 F   0  0  0  0  0  0  0  0  0  0  0  0
  -41.8085  -14.5557   16.9952 F   0  0  0  0  0  0  0  0  0  0  0  0
  -29.1543  -25.1696   16.3819 Cl  0  0  0  0  0  0  0  0  0  0  0  0
  1  2  1  0  0  0  0
  1  5  2  0  0  0  0
  2  6  2  0  0  0  0
  3  8  2  0  0  0  0
  3 15  1  0  0  0  0
  4  9  1  0  0  0  0
  4 15  2  0  0  0  0
  5 17  1  0  0  0  0
  6 19  1  0  0  0  0
  7 10  2  0  0  0  0
  7 18  1  0  0  0  0
  8 22  1  0  0  0  0
  9 22  2  0  0  0  0
 10 23  1  0  0  0  0
 11 12  2  0  0  0  0
 11 24  1  0  0  0  0
 12 25  1  0  0  0  0
 13 20  1  0  0  0  0
 13 23  2  0  0  0  0
 14 25  2  0  0  0  0
 14 26  1  0  0  0  0
 15 28  1  0  0  0  0
 16 28  1  0  0  0  0
 16 30  2  0  0  0  0
 16 32  1  0  0  0  0
 17 19  2  0  0  0  0
 17 37  1  0  0  0  0
 18 20  2  0  0  0  0
 18 38  1  0  0  0  0
 19 46  1  0  0  0  0
 20 39  1  0  0  0  0
 21 27  1  0  0  0  0
 21 29  2  0  0  0  0
 21 56  1  0  0  0  0
 22 78  1  0  0  0  0
 23 79  1  0  0  0  0
 24 26  2  0  0  0  0
 24 78  1  0  0  0  0
 25 80  1  0  0  0  0
 26 81  1  0  0  0  0
 27 31  2  0  0  0  0
 27 82  1  0  0  0  0
 28 62  2  0  0  0  0
 29 49  1  0  0  0  0
 29 63  1  0  0  0  0
 30 64  1  0  0  0  0
 30 67  1  0  0  0  0
 31 63  1  0  0  0  0
 31 69  1  0  0  0  0
 32 68  1  0  0  0  0
 32 73  2  0  0  0  0
 33 47  1  0  0  0  0
 33 70  1  0  0  0  0
 33 74  2  0  0  0  0
 34 59  1  0  0  0  0
 34 65  1  0  0  0  0
 34 75  2  0  0  0  0
 35 60  1  0  0  0  0
 35 71  1  0  0  0  0
 35 76  2  0  0  0  0
 36 66  1  0  0  0  0
 36 69  1  0  0  0  0
 36 77  2  0  0  0  0
 37 40  1  0  0  0  0
 38 47  1  0  0  0  0
 39 65  1  0  0  0  0
 40 42  1  0  0  0  0
 41 43  1  0  0  0  0
 41 44  1  0  0  0  0
 42 46  1  0  0  0  0
 43 48  1  0  0  0  0
 44 66  1  0  0  0  0
 45 48  1  0  0  0  0
 45 66  1  0  0  0  0
 46 70  1  0  0  0  0
 47 65  1  0  0  0  0
 48 64  1  0  0  0  0
 50 57  1  0  0  0  0
 51 60  1  0  0  0  0
 52 61  1  0  0  0  0
 53 61  1  0  0  0  0
 54 61  1  0  0  0  0
 55 72  1  0  0  0  0
 56 58  1  0  0  0  0
 57 63  1  0  0  0  0
 58 79  1  0  0  0  0
 59 61  1  0  0  0  0
 59 71  1  0  0  0  0
 60 72  1  0  0  0  0
 62 64  1  0  0  0  0
M  CHG  1  72   1
M  ISO  4  36 100  58 101  69 100  79 101
M  END
> <Batch ID>
0017

> <Smiles>
CCn1c(C)c(C[101CH2:1][101O:1]c2ccc3c(c2)CN(C(=O)C(NC(=O)C(C)NC)C(C)(C)C)C(C(=O)NC2CCCc4ccccc42)C3)c(Cl)c1[100NH:0][100C:0](=O)N1CCCC(n2nc(-c3ccc(Oc4ccc(F)cc4F)cc3)c(C(N)=O)c2N)C1

> <Shape>
0.186

> <Color>
0.104

> <Negative vol penalty>
0.000

$$$$

  -OEChem-04052316013D

 85 93  0     1  0  0  0  0  0999 V2000
  -21.5847  -15.2560   34.6752 C   0  0  0  0  0  0  0  0  0  0  0  0
  -22.7559  -15.5442   33.9818 C   0  0  0  0  0  0  0  0  0  0  0  0
  -23.2862   -9.8007   19.9155 C   0  0  0  0  0  0  0  0  0  0  0  0
  -23.7371   -9.9434   22.2848 C   0  0  0  0  0  0  0  0  0  0  0  0
  -21.3607  -13.9672   35.1574 C   0  0  0  0  0  0  0  0  0  0  0  0
  -23.7042  -14.5438   33.7711 C   0  0  0  0  0  0  0  0  0  0  0  0
  -27.3018  -13.8562   28.8630 C   0  0  0  0  0  0  0  0  0  0  0  0
  -22.5599   -8.6283   20.1243 C   0  0  0  0  0  0  0  0  0  0  0  0
  -23.0107   -8.7710   22.4936 C   0  0  0  0  0  0  0  0  0  0  0  0
  -28.6280  -14.2079   28.6154 C   0  0  0  0  0  0  0  0  0  0  0  0
  -23.2134   -5.3545   20.6525 C   0  0  0  0  0  0  0  0  0  0  0  0
  -23.4418   -4.2879   19.7832 C   0  0  0  0  0  0  0  0  0  0  0  0
  -29.3248  -11.9770   29.2127 C   0  0  0  0  0  0  0  0  0  0  0  0
  -32.1576  -15.2017   25.9108 C   0  0  0  0  0  0  0  0  0  0  0  0
  -21.1197   -4.3331   19.1176 C   0  0  0  0  0  0  0  0  0  0  0  0
  -23.8749  -10.4582   20.9957 C   0  0  0  0  0  0  0  0  0  0  0  0
  -24.1343  -12.9880   20.7949 C   0  0  0  0  0  0  0  0  0  0  0  0
  -22.3023  -12.9481   34.9442 C   0  0  0  0  0  0  0  0  0  0  0  0
  -26.9777  -12.5632   29.2985 C   0  0  0  0  0  0  0  0  0  0  0  0
  -23.4931  -13.2404   34.2521 C   0  0  0  0  0  0  0  0  0  0  0  0
  -27.9935  -11.6106   29.4626 C   0  0  0  0  0  0  0  0  0  0  0  0
  -32.2349  -13.8097   25.9535 C   0  0  0  0  0  0  0  0  0  0  0  0
  -31.5900  -15.8352   24.8052 C   0  0  0  0  0  0  0  0  0  0  0  0
  -31.7447  -13.0510   24.8906 C   0  0  0  0  0  0  0  0  0  0  0  0
  -31.0998  -15.0765   23.7423 C   0  0  0  0  0  0  0  0  0  0  0  0
  -31.1771  -13.6844   23.7850 C   0  0  0  0  0  0  0  0  0  0  0  0
  -22.4221   -8.1135   21.4134 C   0  0  0  0  0  0  0  0  0  0  0  0
  -29.6400  -13.2691   28.7930 C   0  0  0  0  0  0  0  0  0  0  0  0
  -21.9381   -5.9104   20.7545 C   0  0  0  0  0  0  0  0  0  0  0  0
  -22.3950   -3.7772   19.0157 C   0  0  0  0  0  0  0  0  0  0  0  0
  -20.8913   -5.3997   19.9870 C   0  0  0  0  0  0  0  0  0  0  0  0
  -24.6259  -11.6689   20.7806 C   0  0  0  0  0  0  0  0  0  0  0  0
  -25.2358  -13.7677   20.5391 C   0  0  0  0  0  0  0  0  0  0  0  0
  -22.8013  -13.4658   21.0193 C   0  0  0  0  0  0  0  0  0  0  0  0
  -25.6325  -11.3469   31.9090 C   0  0  0  0  0  0  0  0  0  0  0  0
  -25.7940   -8.5769   30.2287 C   0  0  0  0  0  0  0  0  0  0  0  0
  -27.2912   -6.7780   27.7449 C   0  0  0  0  0  0  0  0  0  0  0  0
  -31.0962  -12.9541   21.3753 C   0  0  0  0  0  0  0  0  0  0  0  0
  -22.0376  -11.5818   35.5254 C   0  0  0  0  0  0  0  0  0  0  0  0
  -25.5396  -12.1918   29.5355 C   0  0  0  0  0  0  0  0  0  0  0  0
  -27.6961  -10.2032   29.9090 C   0  0  0  0  0  0  0  0  0  0  0  0
  -22.9219  -10.4868   34.9346 C   0  0  0  0  0  0  0  0  0  0  0  0
  -29.4626  -13.6557   18.2905 C   0  0  0  0  0  0  0  0  0  0  0  0
  -24.3759  -10.9450   34.8824 C   0  0  0  0  0  0  0  0  0  0  0  0
  -27.9913  -13.3517   18.5821 C   0  0  0  0  0  0  0  0  0  0  0  0
  -30.3958  -12.6812   19.0068 C   0  0  0  0  0  0  0  0  0  0  0  0
  -28.7027  -12.2547   20.7448 C   0  0  0  0  0  0  0  0  0  0  0  0
  -24.5344  -12.1761   33.9820 C   0  0  1  0  0  0  0  0  0  0  0  0
  -25.3772  -10.9971   30.4702 C   0  0  1  0  0  0  0  0  0  0  0  0
  -27.7263  -13.2500   20.0970 C   0  0  2  0  0  0  0  0  0  0  0  0
  -31.8304  -11.5576   24.9442 C   0  0  0  0  0  0  0  0  0  0  0  0
  -30.4933  -15.7634   22.5586 C   0  0  0  0  0  0  0  0  0  0  0  0
  -27.2325   -4.5302   26.6308 C   0  0  0  0  0  0  0  0  0  0  0  0
  -32.1297  -17.9377   26.0835 C   0  0  0  0  0  0  0  0  0  0  0  0
  -30.0430  -17.8196   24.6807 C   0  0  0  0  0  0  0  0  0  0  0  0
  -32.2746  -18.0171   23.6026 C   0  0  0  0  0  0  0  0  0  0  0  0
  -27.2414   -7.3559   32.6213 C   0  0  0  0  0  0  0  0  0  0  0  0
  -27.9799   -5.4845   31.1311 C   0  0  0  0  0  0  0  0  0  0  0  0
  -25.5493   -5.8580   31.5502 C   0  0  0  0  0  0  0  0  0  0  0  0
  -26.6049   -7.9665   25.1228 C   0  0  0  0  0  0  0  0  0  0  0  0
  -32.8549  -13.1500   27.1613 C   0  0  0  0  0  0  0  0  0  0  0  0
  -31.8082  -12.5724   28.1077 C   0  0  0  0  0  0  0  0  0  1  0  0
  -26.8161   -7.4762   30.0776 C   0  0  1  0  0  0  0  0  0  0  0  0
  -26.7125   -5.9591   26.6052 C   0  0  2  0  0  0  0  0  0  0  0  0
  -31.5189  -17.3271   24.7851 C   0  0  0  0  0  0  0  0  0  0  0  0
  -26.9028   -6.5707   31.3385 C   0  0  0  0  0  0  0  0  0  0  0  0
  -25.9375  -11.6100   20.5350 N   0  0  0  0  0  0  0  0  0  0  0  0
  -26.2794  -12.9019   20.3926 N   0  0  0  0  0  0  0  0  0  0  0  0
  -26.2752   -9.8904   30.1340 N   0  0  0  0  0  0  0  0  0  0  0  0
  -30.0890  -12.6405   20.4383 N   0  0  0  0  0  0  0  0  0  0  0  0
  -25.4037  -15.1025   20.4275 N   0  0  0  0  0  0  0  0  0  0  0  0
  -21.7887  -12.5292   21.2677 N   0  0  0  0  0  0  0  0  0  0  0  0
  -30.6790  -12.9137   22.7054 N   0  0  0  0  0  0  0  0  0  0  0  0
  -24.5129  -11.7886   32.5878 N   0  0  0  0  0  0  0  0  0  0  0  0
  -26.4702   -6.7633   28.8526 N   0  0  0  0  0  0  0  0  0  0  0  0
  -27.0750   -6.5676   25.2940 N   0  3  0  0  0  0  0  0  0  0  0  0
  -22.5134  -14.6862   20.9839 O   0  0  0  0  0  0  0  0  0  0  0  0
  -26.7614  -11.2237   32.3696 O   0  0  0  0  0  0  0  0  0  0  0  0
  -24.6111   -8.2819   30.4166 O   0  0  0  0  0  0  0  0  0  0  0  0
  -28.3660   -7.3684   27.6622 O   0  0  0  0  0  0  0  0  0  0  0  0
  -32.2370  -13.2640   21.0226 O   0  0  0  0  0  0  0  0  0  0  0  0
  -21.7132   -6.9697   21.6175 O   0  0  0  0  0  0  0  0  0  0  0  0
  -30.9354  -13.6099   28.5527 O   0  0  0  0  0  0  0  0  0  1  0  0
  -22.6148   -2.7540   18.1797 F   0  0  0  0  0  0  0  0  0  0  0  0
  -19.6643   -5.9304   20.0798 F   0  0  0  0  0  0  0  0  0  0  0  0
  1  2  1  0  0  0  0
  1  5  2  0  0  0  0
  2  6  2  0  0  0  0
  3  8  2  0  0  0  0
  3 16  1  0  0  0  0
  4  9  1  0  0  0  0
  4 16  2  0  0  0  0
  5 18  1  0  0  0  0
  6 20  1  0  0  0  0
  7 10  2  0  0  0  0
  7 19  1  0  0  0  0
  8 27  1  0  0  0  0
  9 27  2  0  0  0  0
 10 28  1  0  0  0  0
 11 12  2  0  0  0  0
 11 29  1  0  0  0  0
 12 30  1  0  0  0  0
 13 21  1  0  0  0  0
 13 28  2  0  0  0  0
 14 22  1  0  0  0  0
 14 23  2  0  0  0  0
 15 30  2  0  0  0  0
 15 31  1  0  0  0  0
 16 32  1  0  0  0  0
 17 32  1  0  0  0  0
 17 33  2  0  0  0  0
 17 34  1  0  0  0  0
 18 20  2  0  0  0  0
 18 39  1  0  0  0  0
 19 21  2  0  0  0  0
 19 40  1  0  0  0  0
 20 48  1  0  0  0  0
 21 41  1  0  0  0  0
 22 24  2  0  0  0  0
 22 61  1  0  0  0  0
 23 25  1  0  0  0  0
 23 65  1  0  0  0  0
 24 26  1  0  0  0  0
 24 51  1  0  0  0  0
 25 26  2  0  0  0  0
 25 52  1  0  0  0  0
 26 73  1  0  0  0  0
 27 82  1  0  0  0  0
 28 83  1  0  0  0  0
 29 31  2  0  0  0  0
 29 82  1  0  0  0  0
 30 84  1  0  0  0  0
 31 85  1  0  0  0  0
 32 67  2  0  0  0  0
 33 68  1  0  0  0  0
 33 71  1  0  0  0  0
 34 72  1  0  0  0  0
 34 77  2  0  0  0  0
 35 49  1  0  0  0  0
 35 74  1  0  0  0  0
 35 78  2  0  0  0  0
 36 63  1  0  0  0  0
 36 69  1  0  0  0  0
 36 79  2  0  0  0  0
 37 64  1  0  0  0  0
 37 75  1  0  0  0  0
 37 80  2  0  0  0  0
 38 70  1  0  0  0  0
 38 73  1  0  0  0  0
 38 81  2  0  0  0  0
 39 42  1  0  0  0  0
 40 49  1  0  0  0  0
 41 69  1  0  0  0  0
 42 44  1  0  0  0  0
 43 45  1  0  0  0  0
 43 46  1  0  0  0  0
 44 48  1  0  0  0  0
 45 50  1  0  0  0  0
 46 70  1  0  0  0  0
 47 50  1  0  0  0  0
 47 70  1  0  0  0  0
 48 74  1  0  0  0  0
 49 69  1  0  0  0  0
 50 68  1  0  0  0  0
 53 64  1  0  0  0  0
 54 65  1  0  0  0  0
 55 65  1  0  0  0  0
 56 65  1  0  0  0  0
 57 66  1  0  0  0  0
 58 66  1  0  0  0  0
 59 66  1  0  0  0  0
 60 76  1  0  0  0  0
 61 62  1  0  0  0  0
 62 83  1  0  0  0  0
 63 66  1  0  0  0  0
 63 75  1  0  0  0  0
 64 76  1  0  0  0  0
 67 68  1  0  0  0  0
M  CHG  1  76   1
M  ISO  4  38 100  62 101  73 100  83 101
M  END
> <Batch ID>
0017

> <Smiles>
CNC(C)C(=O)NC(C(=O)N1Cc2cc([101O:1][101CH2:1]Cc3cc(C(C)(C)C)c(C)c([100NH:0][100C:0](=O)N4CCCC(n5nc(-c6ccc(Oc7ccc(F)cc7F)cc6)c(C(N)=O)c5N)C4)c3C)ccc2CC1C(=O)NC1CCCc2ccccc21)C(C)(C)C

> <Shape>
0.128

> <Color>
0.178

> <Negative vol penalty>
0.000

$$$$

  -OEChem-04052316013D

 86 94  0     1  0  0  0  0  0999 V2000
  -31.0914  -23.4826   23.5166 C   0  0  0  0  0  0  0  0  0  0  0  0
  -30.7471  -24.4156   22.5451 C   0  0  0  0  0  0  0  0  0  0  0  0
  -26.4765  -12.4924   21.5938 C   0  0  0  0  0  0  0  0  0  0  0  0
  -25.9717  -13.4418   19.4303 C   0  0  0  0  0  0  0  0  0  0  0  0
  -30.1012  -22.9196   24.3190 C   0  0  0  0  0  0  0  0  0  0  0  0
  -29.4140  -24.7948   22.3836 C   0  0  0  0  0  0  0  0  0  0  0  0
  -28.5025  -28.4819   19.2567 C   0  0  0  0  0  0  0  0  0  0  0  0
  -25.2324  -11.8618   21.6074 C   0  0  0  0  0  0  0  0  0  0  0  0
  -24.7276  -12.8111   19.4438 C   0  0  0  0  0  0  0  0  0  0  0  0
  -28.6086  -28.3410   17.8738 C   0  0  0  0  0  0  0  0  0  0  0  0
  -23.8164   -9.1162   20.2327 C   0  0  0  0  0  0  0  0  0  0  0  0
  -23.7713   -7.7801   20.6304 C   0  0  0  0  0  0  0  0  0  0  0  0
  -28.3631  -22.2049   16.5327 C   0  0  0  0  0  0  0  0  0  0  0  0
  -26.2048  -28.2269   17.7070 C   0  0  0  0  0  0  0  0  0  0  0  0
  -22.2910   -8.3706   22.4462 C   0  0  0  0  0  0  0  0  0  0  0  0
  -26.8461  -13.2825   20.5053 C   0  0  0  0  0  0  0  0  0  0  0  0
  -27.6554  -23.2526   17.1220 C   0  0  0  0  0  0  0  0  0  0  0  0
  -29.3393  -13.4211   19.9834 C   0  0  0  0  0  0  0  0  0  0  0  0
  -28.7541  -23.2834   24.1582 C   0  0  0  0  0  0  0  0  0  0  0  0
  -27.2450  -28.4855   19.8774 C   0  0  0  0  0  0  0  0  0  0  0  0
  -28.4031  -24.2558   23.1998 C   0  0  0  0  0  0  0  0  0  0  0  0
  -26.0853  -28.3706   19.0977 C   0  0  0  0  0  0  0  0  0  0  0  0
  -28.7575  -21.2442   18.7141 C   0  0  0  0  0  0  0  0  0  0  0  0
  -24.3580  -12.0211   20.5324 C   0  0  0  0  0  0  0  0  0  0  0  0
  -27.4598  -28.2105   17.0989 C   0  0  0  0  0  0  0  0  0  0  0  0
  -23.0989  -10.0796   20.9418 C   0  0  0  0  0  0  0  0  0  0  0  0
  -23.0085   -7.4072   21.7372 C   0  0  0  0  0  0  0  0  0  0  0  0
  -28.9141  -21.2007   17.3287 C   0  0  0  0  0  0  0  0  0  0  0  0
  -22.3361   -9.7068   22.0485 C   0  0  0  0  0  0  0  0  0  0  0  0
  -27.4989  -23.2961   18.5073 C   0  0  0  0  0  0  0  0  0  0  0  0
  -28.0499  -22.2919   19.3034 C   0  0  0  0  0  0  0  0  0  0  0  0
  -28.1308  -13.9347   20.4910 C   0  0  0  0  0  0  0  0  0  0  0  0
  -30.2568  -14.4186   20.2061 C   0  0  0  0  0  0  0  0  0  0  0  0
  -27.0698  -24.3196   16.2701 C   0  0  0  0  0  0  0  0  0  0  0  0
  -29.6084  -12.1555   19.3657 C   0  0  0  0  0  0  0  0  0  0  0  0
  -25.7964  -26.6388   22.0210 C   0  0  0  0  0  0  0  0  0  0  0  0
  -23.4990  -28.9232   21.8607 C   0  0  0  0  0  0  0  0  0  0  0  0
  -22.0183  -31.4224   20.0694 C   0  0  0  0  0  0  0  0  0  0  0  0
  -29.7758  -20.3414   20.8340 C   0  0  0  0  0  0  0  0  0  0  0  0
  -27.7241  -22.6487   25.0590 C   0  0  0  0  0  0  0  0  0  0  0  0
  -27.1464  -28.6652   21.3675 C   0  0  0  0  0  0  0  0  0  0  0  0
  -24.7108  -28.3887   19.7133 C   0  0  0  0  0  0  0  0  0  0  0  0
  -26.3030  -22.7775   24.5204 C   0  0  0  0  0  0  0  0  0  0  0  0
  -31.1835  -18.0591   23.1764 C   0  0  0  0  0  0  0  0  0  0  0  0
  -26.0264  -24.2198   24.1233 C   0  0  0  0  0  0  0  0  0  0  0  0
  -30.6754  -16.6951   22.7038 C   0  0  0  0  0  0  0  0  0  0  0  0
  -30.1335  -19.1524   22.9865 C   0  0  0  0  0  0  0  0  0  0  0  0
  -29.0719  -17.8888   21.1575 C   0  0  0  0  0  0  0  0  0  0  0  0
  -26.9559  -24.6608   22.9855 C   0  0  1  0  0  0  0  0  0  0  0  0
  -25.8371  -28.1390   21.9475 C   0  0  1  0  0  0  0  0  0  0  0  0
  -30.1181  -16.7677   21.2686 C   0  0  2  0  0  0  0  0  0  0  0  0
  -20.1393  -33.0817   20.1846 C   0  0  0  0  0  0  0  0  0  0  0  0
  -21.4977  -26.6931   21.2852 C   0  0  0  0  0  0  0  0  0  0  0  0
  -19.8898  -28.4374   20.4850 C   0  0  0  0  0  0  0  0  0  0  0  0
  -20.6715  -28.4569   22.8538 C   0  0  0  0  0  0  0  0  0  0  0  0
  -23.8771  -33.7164   19.8648 C   0  0  0  0  0  0  0  0  0  0  0  0
  -28.3748  -26.6922   13.9625 C   0  0  0  0  0  0  0  0  0  0  0  0
  -27.3157  -25.6181   14.1703 C   0  0  0  0  0  0  0  0  0  0  0  0
  -28.7318  -27.4293   15.2475 C   0  0  0  0  0  0  0  0  0  1  0  0
  -22.2669  -29.1430   21.0164 C   0  0  1  0  0  0  0  0  0  0  0  0
  -21.6155  -32.8347   20.4537 C   0  0  2  0  0  0  0  0  0  0  0  0
  -21.1073  -28.1803   21.3984 C   0  0  0  0  0  0  0  0  0  0  0  0
  -28.2652  -15.1630   20.9981 N   0  0  0  0  0  0  0  0  0  0  0  0
  -29.5690  -15.4296   20.8104 N   0  0  0  0  0  0  0  0  0  0  0  0
  -24.6668  -28.5605   21.1748 N   0  0  0  0  0  0  0  0  0  0  0  0
  -29.6547  -19.1643   21.6026 N   0  0  0  0  0  0  0  0  0  0  0  0
  -31.5767  -14.5208   19.9422 N   0  0  0  0  0  0  0  0  0  0  0  0
  -28.5515  -11.2475   19.2147 N   0  0  0  0  0  0  0  0  0  0  0  0
  -29.3163  -20.2237   19.5227 N   0  0  0  0  0  0  0  0  0  0  0  0
  -27.7442  -24.5977   15.0865 N   0  0  0  0  0  0  0  0  0  0  0  0
  -26.8089  -26.0851   22.7810 N   0  0  0  0  0  0  0  0  0  0  0  0
  -21.9342  -30.5580   21.1404 N   0  0  0  0  0  0  0  0  0  0  0  0
  -22.4078  -33.8290   19.6762 N   0  3  0  0  0  0  0  0  0  0  0  0
  -26.0583  -24.9033   16.6504 O   0  0  0  0  0  0  0  0  0  0  0  0
  -30.7557  -11.8326   18.9746 O   0  0  0  0  0  0  0  0  0  0  0  0
  -24.9110  -26.0289   21.4331 O   0  0  0  0  0  0  0  0  0  0  0  0
  -23.4295  -29.0749   23.0829 O   0  0  0  0  0  0  0  0  0  0  0  0
  -22.3688  -31.1159   18.9320 O   0  0  0  0  0  0  0  0  0  0  0  0
  -30.2771  -21.3695   21.2963 O   0  0  0  0  0  0  0  0  0  0  0  0
  -23.1441  -11.4056   20.5452 O   0  0  0  0  0  0  0  0  0  0  0  0
  -27.5606  -28.0721   15.7489 O   0  0  0  0  0  0  0  0  0  1  0  0
  -22.9641   -6.1238   22.1181 F   0  0  0  0  0  0  0  0  0  0  0  0
  -29.5935  -20.1995   16.7511 F   0  0  0  0  0  0  0  0  0  0  0  0
  -21.6437  -10.6276   22.7329 F   0  0  0  0  0  0  0  0  0  0  0  0
  -26.8218  -24.2989   19.0849 F   0  0  0  0  0  0  0  0  0  0  0  0
  -27.8934  -22.3446   20.6339 F   0  0  0  0  0  0  0  0  0  0  0  0
  1  2  1  0  0  0  0
  1  5  2  0  0  0  0
  2  6  2  0  0  0  0
  3  8  2  0  0  0  0
  3 16  1  0  0  0  0
  4  9  1  0  0  0  0
  4 16  2  0  0  0  0
  5 19  1  0  0  0  0
  6 21  1  0  0  0  0
  7 10  2  0  0  0  0
  7 20  1  0  0  0  0
  8 24  1  0  0  0  0
  9 24  2  0  0  0  0
 10 25  1  0  0  0  0
 11 12  2  0  0  0  0
 11 26  1  0  0  0  0
 12 27  1  0  0  0  0
 13 17  1  0  0  0  0
 13 28  2  0  0  0  0
 14 22  1  0  0  0  0
 14 25  2  0  0  0  0
 15 27  2  0  0  0  0
 15 29  1  0  0  0  0
 16 32  1  0  0  0  0
 17 30  2  0  0  0  0
 17 34  1  0  0  0  0
 18 32  1  0  0  0  0
 18 33  2  0  0  0  0
 18 35  1  0  0  0  0
 19 21  2  0  0  0  0
 19 40  1  0  0  0  0
 20 22  2  0  0  0  0
 20 41  1  0  0  0  0
 21 49  1  0  0  0  0
 22 42  1  0  0  0  0
 23 28  1  0  0  0  0
 23 31  2  0  0  0  0
 23 69  1  0  0  0  0
 24 80  1  0  0  0  0
 25 81  1  0  0  0  0
 26 29  2  0  0  0  0
 26 80  1  0  0  0  0
 27 82  1  0  0  0  0
 28 83  1  0  0  0  0
 29 84  1  0  0  0  0
 30 31  1  0  0  0  0
 30 85  1  0  0  0  0
 31 86  1  0  0  0  0
 32 63  2  0  0  0  0
 33 64  1  0  0  0  0
 33 67  1  0  0  0  0
 34 70  1  0  0  0  0
 34 74  2  0  0  0  0
 35 68  1  0  0  0  0
 35 75  2  0  0  0  0
 36 50  1  0  0  0  0
 36 71  1  0  0  0  0
 36 76  2  0  0  0  0
 37 60  1  0  0  0  0
 37 65  1  0  0  0  0
 37 77  2  0  0  0  0
 38 61  1  0  0  0  0
 38 72  1  0  0  0  0
 38 78  2  0  0  0  0
 39 66  1  0  0  0  0
 39 69  1  0  0  0  0
 39 79  2  0  0  0  0
 40 43  1  0  0  0  0
 41 50  1  0  0  0  0
 42 65  1  0  0  0  0
 43 45  1  0  0  0  0
 44 46  1  0  0  0  0
 44 47  1  0  0  0  0
 45 49  1  0  0  0  0
 46 51  1  0  0  0  0
 47 66  1  0  0  0  0
 48 51  1  0  0  0  0
 48 66  1  0  0  0  0
 49 71  1  0  0  0  0
 50 65  1  0  0  0  0
 51 64  1  0  0  0  0
 52 61  1  0  0  0  0
 53 62  1  0  0  0  0
 54 62  1  0  0  0  0
 55 62  1  0  0  0  0
 56 73  1  0  0  0  0
 57 58  1  0  0  0  0
 57 59  1  0  0  0  0
 58 70  1  0  0  0  0
 59 81  1  0  0  0  0
 60 62  1  0  0  0  0
 60 72  1  0  0  0  0
 61 73  1  0  0  0  0
 63 64  1  0  0  0  0
M  CHG  1  73   1
M  ISO  4  39 100  59 101  69 100  81 101
M  END
> <Batch ID>
0017

> <Smiles>
CNC(C)C(=O)NC(C(=O)N1Cc2cc([101O:1][101CH2:1]CCNC(=O)c3cc(F)c([100NH:0][100C:0](=O)N4CCCC(n5nc(-c6ccc(Oc7ccc(F)cc7F)cc6)c(C(N)=O)c5N)C4)c(F)c3F)ccc2CC1C(=O)NC1CCCc2ccccc21)C(C)(C)C

> <Shape>
0.237

> <Color>
0.085

> <Negative vol penalty>
0.000

$$$$

  -OEChem-04052316013D

 85 93  0     1  0  0  0  0  0999 V2000
  -26.3542  -33.1456   19.3400 C   0  0  0  0  0  0  0  0  0  0  0  0
  -27.4226  -32.4705   19.9217 C   0  0  0  0  0  0  0  0  0  0  0  0
  -23.0396   -9.8904   19.9639 C   0  0  0  0  0  0  0  0  0  0  0  0
  -23.8012   -9.9017   22.2567 C   0  0  0  0  0  0  0  0  0  0  0  0
  -25.0546  -32.6708   19.5115 C   0  0  0  0  0  0  0  0  0  0  0  0
  -27.1917  -31.3208   20.6763 C   0  0  0  0  0  0  0  0  0  0  0  0
  -30.8042  -26.3916   21.0748 C   0  0  0  0  0  0  0  0  0  0  0  0
  -22.2715   -8.7557   20.2246 C   0  0  0  0  0  0  0  0  0  0  0  0
  -23.0330   -8.7670   22.5174 C   0  0  0  0  0  0  0  0  0  0  0  0
  -31.7445  -25.9921   22.0234 C   0  0  0  0  0  0  0  0  0  0  0  0
  -20.9910   -6.0850   23.8797 C   0  0  0  0  0  0  0  0  0  0  0  0
  -20.2349   -6.0681   25.0516 C   0  0  0  0  0  0  0  0  0  0  0  0
  -30.0710  -24.6276   23.0988 C   0  0  0  0  0  0  0  0  0  0  0  0
  -32.1731  -16.4323   22.4800 C   0  0  0  0  0  0  0  0  0  0  0  0
  -19.0314   -8.0250   24.3034 C   0  0  0  0  0  0  0  0  0  0  0  0
  -23.8046  -10.4634   20.9799 C   0  0  0  0  0  0  0  0  0  0  0  0
  -24.2002  -12.9794   20.8371 C   0  0  0  0  0  0  0  0  0  0  0  0
  -24.8086  -31.5093   20.2605 C   0  0  0  0  0  0  0  0  0  0  0  0
  -29.4851  -25.9198   21.1376 C   0  0  0  0  0  0  0  0  0  0  0  0
  -25.8874  -30.8309   20.8591 C   0  0  0  0  0  0  0  0  0  0  0  0
  -29.1165  -25.0206   22.1483 C   0  0  0  0  0  0  0  0  0  0  0  0
  -32.8151  -17.2958   23.3676 C   0  0  0  0  0  0  0  0  0  0  0  0
  -32.0689  -18.1985   24.1251 C   0  0  0  0  0  0  0  0  0  0  0  0
  -30.6807  -18.2378   23.9951 C   0  0  0  0  0  0  0  0  0  0  0  0
  -30.7848  -16.4716   22.3499 C   0  0  0  0  0  0  0  0  0  0  0  0
  -22.2681   -8.1940   21.5014 C   0  0  0  0  0  0  0  0  0  0  0  0
  -31.3773  -25.1122   23.0373 C   0  0  0  0  0  0  0  0  0  0  0  0
  -20.7675   -7.0720   22.9196 C   0  0  0  0  0  0  0  0  0  0  0  0
  -19.2551   -7.0381   25.2635 C   0  0  0  0  0  0  0  0  0  0  0  0
  -19.7877   -8.0419   23.1314 C   0  0  0  0  0  0  0  0  0  0  0  0
  -30.0386  -17.3743   23.1075 C   0  0  0  0  0  0  0  0  0  0  0  0
  -24.5987  -11.6352   20.7111 C   0  0  0  0  0  0  0  0  0  0  0  0
  -25.3079  -13.7021   20.4665 C   0  0  0  0  0  0  0  0  0  0  0  0
  -22.9414  -13.5260   21.2520 C   0  0  0  0  0  0  0  0  0  0  0  0
  -26.6346  -27.2732   21.5205 C   0  0  0  0  0  0  0  0  0  0  0  0
  -25.5629  -24.2646   20.9530 C   0  0  0  0  0  0  0  0  0  0  0  0
  -26.1894  -20.9100   20.9936 C   0  0  0  0  0  0  0  0  0  0  0  0
  -30.7953  -14.6321   20.6288 C   0  0  0  0  0  0  0  0  0  0  0  0
  -23.3820  -31.0611   20.4575 C   0  0  0  0  0  0  0  0  0  0  0  0
  -28.4895  -26.3394   20.0911 C   0  0  0  0  0  0  0  0  0  0  0  0
  -27.7185  -24.4692   22.2480 C   0  0  0  0  0  0  0  0  0  0  0  0
  -23.2586  -29.6248   20.9594 C   0  0  0  0  0  0  0  0  0  0  0  0
  -29.6278  -12.2215   18.2829 C   0  0  0  0  0  0  0  0  0  0  0  0
  -24.2256  -29.3775   22.1129 C   0  0  0  0  0  0  0  0  0  0  0  0
  -28.1825  -11.9647   18.7158 C   0  0  0  0  0  0  0  0  0  0  0  0
  -30.5485  -12.4415   19.4819 C   0  0  0  0  0  0  0  0  0  0  0  0
  -28.6585  -13.2189   20.8577 C   0  0  0  0  0  0  0  0  0  0  0  0
  -25.6797  -29.5663   21.6640 C   0  0  1  0  0  0  0  0  0  0  0  0
  -27.0423  -26.1986   20.5526 C   0  0  1  0  0  0  0  0  0  0  0  0
  -27.6813  -13.0559   19.6820 C   0  0  2  0  0  0  0  0  0  0  0  0
  -34.3030  -17.2340   23.4873 C   0  0  0  0  0  0  0  0  0  0  0  0
  -29.8980  -19.2157   24.8162 C   0  0  0  0  0  0  0  0  0  0  0  0
  -25.1075  -18.6981   20.5097 C   0  0  0  0  0  0  0  0  0  0  0  0
  -23.9816  -24.4716   23.5543 C   0  0  0  0  0  0  0  0  0  0  0  0
  -23.7083  -21.9834   23.5048 C   0  0  0  0  0  0  0  0  0  0  0  0
  -22.7526  -23.3781   21.6706 C   0  0  0  0  0  0  0  0  0  0  0  0
  -28.1848  -20.2595   18.9070 C   0  0  0  0  0  0  0  0  0  0  0  0
  -32.7641  -19.1272   25.0766 C   0  0  0  0  0  0  0  0  0  0  0  0
  -33.4998  -22.8816   24.9204 C   0  0  0  0  0  0  0  0  0  0  0  0
  -33.4592  -21.4847   25.5214 C   0  0  0  0  0  0  0  0  0  0  0  0
  -32.1290  -23.4220   24.5319 C   0  0  0  0  0  0  0  0  0  1  0  0
  -25.2569  -23.0594   21.8092 C   0  0  1  0  0  0  0  0  0  0  0  0
  -25.9577  -19.8294   19.9530 C   0  0  2  0  0  0  0  0  0  0  0  0
  -23.9508  -23.2349   22.6342 C   0  0  0  0  0  0  0  0  0  0  0  0
  -25.8610  -11.5085   20.2930 N   0  0  0  0  0  0  0  0  0  0  0  0
  -26.2651  -12.7826   20.1529 N   0  0  0  0  0  0  0  0  0  0  0  0
  -26.7795  -24.9143   21.2050 N   0  0  0  0  0  0  0  0  0  0  0  0
  -30.0123  -13.4918   20.3503 N   0  0  0  0  0  0  0  0  0  0  0  0
  -25.5466  -15.0281   20.3814 N   0  0  0  0  0  0  0  0  0  0  0  0
  -21.9105  -12.6418   21.5980 N   0  0  0  0  0  0  0  0  0  0  0  0
  -30.1685  -15.5781   21.4392 N   0  0  0  0  0  0  0  0  0  0  0  0
  -26.1326  -28.4113   20.9188 N   0  0  0  0  0  0  0  0  0  0  0  0
  -25.2453  -21.9115   20.9089 N   0  0  0  0  0  0  0  0  0  0  0  0
  -27.2581  -19.2604   19.4988 N   0  3  0  0  0  0  0  0  0  0  0  0
  -32.8347  -20.5284   24.5775 N   0  3  0  0  0  0  0  0  0  0  0  0
  -22.7315  -14.7619   21.2985 O   0  0  0  0  0  0  0  0  0  0  0  0
  -26.7643  -27.0831   22.7241 O   0  0  0  0  0  0  0  0  0  0  0  0
  -24.7556  -24.6123   20.0876 O   0  0  0  0  0  0  0  0  0  0  0  0
  -27.1130  -20.8680   21.8033 O   0  0  0  0  0  0  0  0  0  0  0  0
  -31.9274  -14.7724   20.1590 O   0  0  0  0  0  0  0  0  0  0  0  0
  -21.5185   -7.0869   21.7562 O   0  0  0  0  0  0  0  0  0  0  0  0
  -32.2931  -24.7212   23.9648 O   0  0  0  0  0  0  0  0  0  1  0  0
  -18.5279   -7.0208   26.3883 F   0  0  0  0  0  0  0  0  0  0  0  0
  -19.5675   -8.9918   22.2122 F   0  0  0  0  0  0  0  0  0  0  0  0
  -28.3122  -17.4236   22.9480 Cl  0  0  0  0  0  0  0  0  0  0  0  0
  1  2  1  0  0  0  0
  1  5  2  0  0  0  0
  2  6  2  0  0  0  0
  3  8  2  0  0  0  0
  3 16  1  0  0  0  0
  4  9  1  0  0  0  0
  4 16  2  0  0  0  0
  5 18  1  0  0  0  0
  6 20  1  0  0  0  0
  7 10  2  0  0  0  0
  7 19  1  0  0  0  0
  8 26  1  0  0  0  0
  9 26  2  0  0  0  0
 10 27  1  0  0  0  0
 11 12  2  0  0  0  0
 11 28  1  0  0  0  0
 12 29  1  0  0  0  0
 13 21  1  0  0  0  0
 13 27  2  0  0  0  0
 14 22  2  0  0  0  0
 14 25  1  0  0  0  0
 15 29  2  0  0  0  0
 15 30  1  0  0  0  0
 16 32  1  0  0  0  0
 17 32  1  0  0  0  0
 17 33  2  0  0  0  0
 17 34  1  0  0  0  0
 18 20  2  0  0  0  0
 18 39  1  0  0  0  0
 19 21  2  0  0  0  0
 19 40  1  0  0  0  0
 20 48  1  0  0  0  0
 21 41  1  0  0  0  0
 22 23  1  0  0  0  0
 22 51  1  0  0  0  0
 23 24  2  0  0  0  0
 23 58  1  0  0  0  0
 24 31  1  0  0  0  0
 24 52  1  0  0  0  0
 25 31  2  0  0  0  0
 25 71  1  0  0  0  0
 26 81  1  0  0  0  0
 27 82  1  0  0  0  0
 28 30  2  0  0  0  0
 28 81  1  0  0  0  0
 29 83  1  0  0  0  0
 30 84  1  0  0  0  0
 31 85  1  0  0  0  0
 32 65  2  0  0  0  0
 33 66  1  0  0  0  0
 33 69  1  0  0  0  0
 34 70  1  0  0  0  0
 34 76  2  0  0  0  0
 35 49  1  0  0  0  0
 35 72  1  0  0  0  0
 35 77  2  0  0  0  0
 36 62  1  0  0  0  0
 36 67  1  0  0  0  0
 36 78  2  0  0  0  0
 37 63  1  0  0  0  0
 37 73  1  0  0  0  0
 37 79  2  0  0  0  0
 38 68  1  0  0  0  0
 38 71  1  0  0  0  0
 38 80  2  0  0  0  0
 39 42  1  0  0  0  0
 40 49  1  0  0  0  0
 41 67  1  0  0  0  0
 42 44  1  0  0  0  0
 43 45  1  0  0  0  0
 43 46  1  0  0  0  0
 44 48  1  0  0  0  0
 45 50  1  0  0  0  0
 46 68  1  0  0  0  0
 47 50  1  0  0  0  0
 47 68  1  0  0  0  0
 48 72  1  0  0  0  0
 49 67  1  0  0  0  0
 50 66  1  0  0  0  0
 53 63  1  0  0  0  0
 54 64  1  0  0  0  0
 55 64  1  0  0  0  0
 56 64  1  0  0  0  0
 57 74  1  0  0  0  0
 58 75  1  0  0  0  0
 59 60  1  0  0  0  0
 59 61  1  0  0  0  0
 60 75  1  0  0  0  0
 61 82  1  0  0  0  0
 62 64  1  0  0  0  0
 62 73  1  0  0  0  0
 63 74  1  0  0  0  0
 65 66  1  0  0  0  0
M  CHG  2  74   1  75   1
M  ISO  4  38 100  61 101  71 100  82 101
M  END
> <Batch ID>
0017

> <Smiles>
CNC(C)C(=O)NC(C(=O)N1Cc2cc([101O:1][101CH2:1]CCNCc3c(C)cc([100NH:0][100C:0](=O)N4CCCC(n5nc(-c6ccc(Oc7ccc(F)cc7F)cc6)c(C(N)=O)c5N)C4)c(Cl)c3C)ccc2CC1C(=O)NC1CCCc2ccccc21)C(C)(C)C

> <Shape>
0.253

> <Color>
0.213

> <Negative vol penalty>
0.000

$$$$

  -OEChem-04052316013D

 84 92  0     1  0  0  0  0  0999 V2000
  -20.0237  -34.1466   20.2037 C   0  0  0  0  0  0  0  0  0  0  0  0
  -21.2255  -33.5240   19.8822 C   0  0  0  0  0  0  0  0  0  0  0  0
  -24.5165  -13.6044   21.2040 C   0  0  0  0  0  0  0  0  0  0  0  0
  -26.4932  -13.3660   19.8355 C   0  0  0  0  0  0  0  0  0  0  0  0
  -19.3721  -33.8290   21.3947 C   0  0  0  0  0  0  0  0  0  0  0  0
  -21.7770  -32.5841   20.7522 C   0  0  0  0  0  0  0  0  0  0  0  0
  -24.9434  -27.5687   19.2270 C   0  0  0  0  0  0  0  0  0  0  0  0
  -24.0738  -12.3504   20.7831 C   0  0  0  0  0  0  0  0  0  0  0  0
  -26.0505  -12.1120   19.4145 C   0  0  0  0  0  0  0  0  0  0  0  0
  -26.3110  -27.3029   19.1739 C   0  0  0  0  0  0  0  0  0  0  0  0
  -24.7248   -9.1101   21.4969 C   0  0  0  0  0  0  0  0  0  0  0  0
  -24.2252   -8.2401   22.4660 C   0  0  0  0  0  0  0  0  0  0  0  0
  -26.2038  -26.3419   21.3840 C   0  0  0  0  0  0  0  0  0  0  0  0
  -32.3730  -23.9851   21.3204 C   0  0  0  0  0  0  0  0  0  0  0  0
  -22.0991   -8.1842   21.3198 C   0  0  0  0  0  0  0  0  0  0  0  0
  -25.7262  -14.1122   20.7302 C   0  0  0  0  0  0  0  0  0  0  0  0
  -26.9917  -15.6936   22.2810 C   0  0  0  0  0  0  0  0  0  0  0  0
  -19.9110  -32.8776   22.2751 C   0  0  0  0  0  0  0  0  0  0  0  0
  -24.1966  -27.2325   20.3652 C   0  0  0  0  0  0  0  0  0  0  0  0
  -21.1327  -32.2544   21.9567 C   0  0  0  0  0  0  0  0  0  0  0  0
  -24.8264  -26.6022   21.4479 C   0  0  0  0  0  0  0  0  0  0  0  0
  -32.4341  -22.6401   21.6673 C   0  0  0  0  0  0  0  0  0  0  0  0
  -31.3993  -21.7861   21.3026 C   0  0  0  0  0  0  0  0  0  0  0  0
  -24.8408  -11.6042   19.8884 C   0  0  0  0  0  0  0  0  0  0  0  0
  -26.9419  -26.6920   20.2537 C   0  0  0  0  0  0  0  0  0  0  0  0
  -23.9115   -9.5173   20.4393 C   0  0  0  0  0  0  0  0  0  0  0  0
  -22.9124   -7.7772   22.3774 C   0  0  0  0  0  0  0  0  0  0  0  0
  -22.5987   -9.0543   20.3507 C   0  0  0  0  0  0  0  0  0  0  0  0
  -26.1837  -15.4077   21.1642 C   0  0  0  0  0  0  0  0  0  0  0  0
  -31.2643  -24.4230   20.6141 C   0  0  0  0  0  0  0  0  0  0  0  0
  -30.3341  -22.3224   20.5973 C   0  0  0  0  0  0  0  0  0  0  0  0
  -27.1405  -17.0588   22.2566 C   0  0  0  0  0  0  0  0  0  0  0  0
  -27.5572  -14.8047   23.2535 C   0  0  0  0  0  0  0  0  0  0  0  0
  -22.5077  -28.8687   22.5039 C   0  0  0  0  0  0  0  0  0  0  0  0
  -21.7220  -25.9081   23.5715 C   0  0  0  0  0  0  0  0  0  0  0  0
  -22.5260  -22.5985   23.7880 C   0  0  0  0  0  0  0  0  0  0  0  0
  -28.1205  -21.8035   19.5124 C   0  0  0  0  0  0  0  0  0  0  0  0
  -19.1944  -32.6018   23.5732 C   0  0  0  0  0  0  0  0  0  0  0  0
  -22.7170  -27.5016   20.3960 C   0  0  0  0  0  0  0  0  0  0  0  0
  -24.0656  -26.2029   22.6850 C   0  0  0  0  0  0  0  0  0  0  0  0
  -19.6550  -31.3202   24.2628 C   0  0  0  0  0  0  0  0  0  0  0  0
  -24.7764  -20.5811   19.4950 C   0  0  0  0  0  0  0  0  0  0  0  0
  -21.1783  -31.2439   24.2853 C   0  0  0  0  0  0  0  0  0  0  0  0
  -24.9109  -19.1498   20.0196 C   0  0  0  0  0  0  0  0  0  0  0  0
  -25.9584  -20.9745   18.6107 C   0  0  0  0  0  0  0  0  0  0  0  0
  -27.4154  -19.3405   19.7404 C   0  0  0  0  0  0  0  0  0  0  0  0
  -21.7501  -31.2113   22.8628 C   0  0  1  0  0  0  0  0  0  0  0  0
  -22.1539  -27.5830   21.8115 C   0  0  1  0  0  0  0  0  0  0  0  0
  -26.2804  -18.9211   20.6888 C   0  0  2  0  0  0  0  0  0  0  0  0
  -33.6170  -22.1394   22.4287 C   0  0  0  0  0  0  0  0  0  0  0  0
  -31.4488  -20.3382   21.6644 C   0  0  0  0  0  0  0  0  0  0  0  0
  -22.2460  -20.1651   24.3339 C   0  0  0  0  0  0  0  0  0  0  0  0
  -22.6579  -26.7936   26.3374 C   0  0  0  0  0  0  0  0  0  0  0  0
  -22.7201  -24.3832   27.0115 C   0  0  0  0  0  0  0  0  0  0  0  0
  -20.5607  -25.4312   26.3324 C   0  0  0  0  0  0  0  0  0  0  0  0
  -31.2008  -26.8516   22.5872 C   0  0  0  0  0  0  0  0  0  0  0  0
  -30.5345  -28.2634   20.6453 C   0  0  0  0  0  0  0  0  0  0  0  0
  -21.2081  -22.0494   21.1956 C   0  0  0  0  0  0  0  0  0  0  0  0
  -31.1632  -25.8784   20.2214 C   0  0  0  0  0  0  0  0  0  0  0  0
  -28.9862  -26.4421   21.4429 C   0  0  0  0  0  0  0  0  0  1  0  0
  -22.3085  -24.9420   24.5723 C   0  0  1  0  0  0  0  0  0  0  0  0
  -21.7072  -21.3446   23.5393 C   0  0  2  0  0  0  0  0  0  0  0  0
  -22.0768  -25.3967   26.0410 C   0  0  0  0  0  0  0  0  0  0  0  0
  -30.4660  -26.8354   21.2328 C   0  0  0  0  0  0  0  0  0  0  0  0
  -25.8430  -16.5032   20.4803 N   0  0  0  0  0  0  0  0  0  0  0  0
  -30.2396  -23.6235   20.2423 N   0  0  0  0  0  0  0  0  0  0  0  0
  -26.4396  -17.4908   21.1692 N   0  0  0  0  0  0  0  0  0  0  0  0
  -22.6223  -26.4929   22.6697 N   0  0  0  0  0  0  0  0  0  0  0  0
  -27.2216  -20.7346   19.3118 N   0  0  0  0  0  0  0  0  0  0  0  0
  -27.8011  -17.9199   23.0595 N   0  0  0  0  0  0  0  0  0  0  0  0
  -27.3051  -13.4316   23.1299 N   0  0  0  0  0  0  0  0  0  0  0  0
  -29.2730  -21.4627   20.2196 N   0  0  0  0  0  0  0  0  0  0  0  0
  -21.6030  -29.8909   22.2891 N   0  0  0  0  0  0  0  0  0  0  0  0
  -21.7450  -23.6341   24.2558 N   0  0  0  0  0  0  0  0  0  0  0  0
  -21.7328  -20.9877   22.0926 N   0  3  0  0  0  0  0  0  0  0  0  0
  -28.2515  -15.2175   24.2132 O   0  0  0  0  0  0  0  0  0  0  0  0
  -23.5253  -28.9285   23.1841 O   0  0  0  0  0  0  0  0  0  0  0  0
  -20.5087  -26.1300   23.5847 O   0  0  0  0  0  0  0  0  0  0  0  0
  -23.7379  -22.6526   23.5909 O   0  0  0  0  0  0  0  0  0  0  0  0
  -27.8727  -22.9437   19.1116 O   0  0  0  0  0  0  0  0  0  0  0  0
  -24.4092  -10.3805   19.4776 O   0  0  0  0  0  0  0  0  0  0  0  0
  -28.2768  -26.4320   20.2048 O   0  0  0  0  0  0  0  0  0  1  0  0
  -22.4333   -6.9405   23.3072 F   0  0  0  0  0  0  0  0  0  0  0  0
  -21.8130   -9.4410   19.3363 F   0  0  0  0  0  0  0  0  0  0  0  0
  1  2  1  0  0  0  0
  1  5  2  0  0  0  0
  2  6  2  0  0  0  0
  3  8  2  0  0  0  0
  3 16  1  0  0  0  0
  4  9  1  0  0  0  0
  4 16  2  0  0  0  0
  5 18  1  0  0  0  0
  6 20  1  0  0  0  0
  7 10  2  0  0  0  0
  7 19  1  0  0  0  0
  8 24  1  0  0  0  0
  9 24  2  0  0  0  0
 10 25  1  0  0  0  0
 11 12  2  0  0  0  0
 11 26  1  0  0  0  0
 12 27  1  0  0  0  0
 13 21  1  0  0  0  0
 13 25  2  0  0  0  0
 14 22  2  0  0  0  0
 14 30  1  0  0  0  0
 15 27  2  0  0  0  0
 15 28  1  0  0  0  0
 16 29  1  0  0  0  0
 17 29  1  0  0  0  0
 17 32  2  0  0  0  0
 17 33  1  0  0  0  0
 18 20  2  0  0  0  0
 18 38  1  0  0  0  0
 19 21  2  0  0  0  0
 19 39  1  0  0  0  0
 20 47  1  0  0  0  0
 21 40  1  0  0  0  0
 22 23  1  0  0  0  0
 22 50  1  0  0  0  0
 23 31  2  0  0  0  0
 23 51  1  0  0  0  0
 24 81  1  0  0  0  0
 25 82  1  0  0  0  0
 26 28  2  0  0  0  0
 26 81  1  0  0  0  0
 27 83  1  0  0  0  0
 28 84  1  0  0  0  0
 29 65  2  0  0  0  0
 30 59  1  0  0  0  0
 30 66  2  0  0  0  0
 31 66  1  0  0  0  0
 31 72  1  0  0  0  0
 32 67  1  0  0  0  0
 32 70  1  0  0  0  0
 33 71  1  0  0  0  0
 33 76  2  0  0  0  0
 34 48  1  0  0  0  0
 34 73  1  0  0  0  0
 34 77  2  0  0  0  0
 35 61  1  0  0  0  0
 35 68  1  0  0  0  0
 35 78  2  0  0  0  0
 36 62  1  0  0  0  0
 36 74  1  0  0  0  0
 36 79  2  0  0  0  0
 37 69  1  0  0  0  0
 37 72  1  0  0  0  0
 37 80  2  0  0  0  0
 38 41  1  0  0  0  0
 39 48  1  0  0  0  0
 40 68  1  0  0  0  0
 41 43  1  0  0  0  0
 42 44  1  0  0  0  0
 42 45  1  0  0  0  0
 43 47  1  0  0  0  0
 44 49  1  0  0  0  0
 45 69  1  0  0  0  0
 46 49  1  0  0  0  0
 46 69  1  0  0  0  0
 47 73  1  0  0  0  0
 48 68  1  0  0  0  0
 49 67  1  0  0  0  0
 52 62  1  0  0  0  0
 53 63  1  0  0  0  0
 54 63  1  0  0  0  0
 55 63  1  0  0  0  0
 56 64  1  0  0  0  0
 57 64  1  0  0  0  0
 58 75  1  0  0  0  0
 59 64  1  0  0  0  0
 60 64  1  0  0  0  0
 60 82  1  0  0  0  0
 61 63  1  0  0  0  0
 61 74  1  0  0  0  0
 62 75  1  0  0  0  0
 65 67  1  0  0  0  0
M  CHG  1  75   1
M  ISO  4  37 100  60 101  72 100  82 101
M  END
> <Batch ID>
0017

> <Smiles>
CNC(C)C(=O)NC(C(=O)N1Cc2cc([101O:1][101CH2:1]C(C)(C)Cc3cc(C)c(C)c([100NH:0][100C:0](=O)N4CCCC(n5nc(-c6ccc(Oc7ccc(F)cc7F)cc6)c(C(N)=O)c5N)C4)n3)ccc2CC1C(=O)NC1CCCc2ccccc21)C(C)(C)C

> <Shape>
0.202

> <Color>
0.090

> <Negative vol penalty>
0.000

$$$$

  -OEChem-04052316013D

 92100  0     1  0  0  0  0  0999 V2000
  -25.8307  -26.8400   16.2398 C   0  0  0  0  0  0  0  0  0  0  0  0
  -24.6886  -27.5686   16.5565 C   0  0  0  0  0  0  0  0  0  0  0  0
  -22.4690  -10.0644   20.5611 C   0  0  0  0  0  0  0  0  0  0  0  0
  -24.3698   -9.0614   21.6647 C   0  0  0  0  0  0  0  0  0  0  0  0
  -26.8092  -26.6237   17.2092 C   0  0  0  0  0  0  0  0  0  0  0  0
  -24.5239  -28.0804   17.8431 C   0  0  0  0  0  0  0  0  0  0  0  0
  -21.8209  -33.3538   19.3894 C   0  0  0  0  0  0  0  0  0  0  0  0
  -21.7971   -8.8429   20.6082 C   0  0  0  0  0  0  0  0  0  0  0  0
  -23.6979   -7.8400   21.7119 C   0  0  0  0  0  0  0  0  0  0  0  0
  -20.5396  -33.6508   19.8517 C   0  0  0  0  0  0  0  0  0  0  0  0
  -21.2830   -6.3982   23.5854 C   0  0  0  0  0  0  0  0  0  0  0  0
  -21.3211   -5.6852   24.7836 C   0  0  0  0  0  0  0  0  0  0  0  0
  -21.3566  -33.6144   22.1212 C   0  0  0  0  0  0  0  0  0  0  0  0
  -22.3812   -3.8345   23.6487 C   0  0  0  0  0  0  0  0  0  0  0  0
  -23.7554  -10.1736   21.0893 C   0  0  0  0  0  0  0  0  0  0  0  0
  -24.4270  -12.4564   22.0088 C   0  0  0  0  0  0  0  0  0  0  0  0
  -26.6608  -27.1413   18.5057 C   0  0  0  0  0  0  0  0  0  0  0  0
  -22.8792  -33.1738   20.2916 C   0  0  0  0  0  0  0  0  0  0  0  0
  -25.5006  -27.8696   18.8311 C   0  0  0  0  0  0  0  0  0  0  0  0
  -22.6510  -33.3177   21.6676 C   0  0  0  0  0  0  0  0  0  0  0  0
  -22.4115   -7.7307   21.1837 C   0  0  0  0  0  0  0  0  0  0  0  0
  -20.3067  -33.7783   21.2179 C   0  0  0  0  0  0  0  0  0  0  0  0
  -21.7940   -5.8293   22.4188 C   0  0  0  0  0  0  0  0  0  0  0  0
  -21.8702   -4.4034   24.8153 C   0  0  0  0  0  0  0  0  0  0  0  0
  -22.3431   -4.5475   22.4504 C   0  0  0  0  0  0  0  0  0  0  0  0
  -24.4501  -11.4350   21.0403 C   0  0  0  0  0  0  0  0  0  0  0  0
  -25.2426  -13.4350   21.4953 C   0  0  0  0  0  0  0  0  0  0  0  0
  -23.7307  -12.5153   23.2607 C   0  0  0  0  0  0  0  0  0  0  0  0
  -27.8399  -20.8307   17.1129 C   0  0  0  0  0  0  0  0  0  0  0  0
  -24.8157  -30.7623   21.0256 C   0  0  0  0  0  0  0  0  0  0  0  0
  -26.2683  -33.0016   22.8689 C   0  0  0  0  0  0  0  0  0  0  0  0
  -26.0312  -35.9474   24.5757 C   0  0  0  0  0  0  0  0  0  0  0  0
  -26.6763  -16.6038   17.2226 C   0  0  0  0  0  0  0  0  0  0  0  0
  -27.7234  -26.8412   19.5331 C   0  0  0  0  0  0  0  0  0  0  0  0
  -24.2612  -32.8802   19.7754 C   0  0  0  0  0  0  0  0  0  0  0  0
  -23.7573  -33.1543   22.6764 C   0  0  0  0  0  0  0  0  0  0  0  0
  -27.6473  -27.7363   20.7673 C   0  0  0  0  0  0  0  0  0  0  0  0
  -28.4210  -13.3729   17.5835 C   0  0  0  0  0  0  0  0  0  0  0  0
  -26.2099  -27.8333   21.2686 C   0  0  0  0  0  0  0  0  0  0  0  0
  -27.4993  -12.6494   18.5608 C   0  0  0  0  0  0  0  0  0  0  0  0
  -28.7192  -19.2113   15.3289 C   0  0  0  0  0  0  0  0  0  0  0  0
  -27.6485  -14.3000   16.6460 C   0  0  0  0  0  0  0  0  0  0  0  0
  -25.8560  -14.5535   18.3392 C   0  0  0  0  0  0  0  0  0  0  0  0
  -25.2972  -28.4620   20.2087 C   0  0  1  0  0  0  0  0  0  0  0  0
  -28.3901  -19.4729   16.7519 C   0  0  2  0  0  0  0  0  0  0  0  0
  -25.1567  -32.2101   20.8128 C   0  0  1  0  0  0  0  0  0  0  0  0
  -26.6203  -13.6534   19.3222 C   0  0  1  0  0  0  0  0  0  0  0  0
  -27.5211  -18.5589   15.9594 C   0  0  2  0  0  0  0  0  0  0  0  0
  -28.6475  -22.0338   16.6960 C   0  0  0  0  0  0  0  0  0  0  0  0
  -27.3739  -37.5033   26.0157 C   0  0  0  0  0  0  0  0  0  0  0  0
  -25.9703  -31.0794   25.2196 C   0  0  0  0  0  0  0  0  0  0  0  0
  -26.4320  -32.9996   26.7583 C   0  0  0  0  0  0  0  0  0  0  0  0
  -28.1661  -32.2721   25.1193 C   0  0  0  0  0  0  0  0  0  0  0  0
  -25.7304  -38.1750   22.6506 C   0  0  0  0  0  0  0  0  0  0  0  0
  -19.5595  -27.0083   21.9000 C   0  0  0  0  0  0  0  0  0  0  0  0
  -20.9188  -26.8979   21.1996 C   0  0  0  0  0  0  0  0  0  0  0  0
  -19.1928  -28.4448   22.2795 C   0  0  0  0  0  0  0  0  0  0  0  0
  -21.3638  -25.4772   20.8371 C   0  0  0  0  0  0  0  0  0  0  0  0
  -17.8736  -28.5519   23.0498 C   0  0  0  0  0  0  0  0  0  0  0  0
  -22.7322  -25.4308   20.1536 C   0  0  0  0  0  0  0  0  0  0  0  0
  -17.4804  -29.9584   23.5103 C   0  0  0  0  0  0  0  0  0  0  0  0
  -23.1757  -24.0088   19.7922 C   0  0  0  0  0  0  0  0  0  0  0  0
  -17.2890  -30.9476   22.3573 C   0  0  0  0  0  0  0  0  0  0  0  0
  -24.5208  -23.8984   19.0667 C   0  0  0  0  0  0  0  0  0  0  0  0
  -16.9240  -32.3387   22.8821 C   0  0  0  0  0  0  0  0  0  0  0  0
  -25.0139  -22.4808   18.7514 C   0  0  0  0  0  0  0  0  0  0  0  0
  -16.7361  -33.3843   21.7774 C   0  0  0  0  0  0  0  0  0  0  0  0
  -26.3449  -22.4215   18.0074 C   0  0  0  0  0  0  0  0  0  0  0  0
  -17.9570  -33.6062   20.8930 C   0  0  0  0  0  0  0  0  0  1  0  0
  -26.1081  -33.4842   24.2903 C   0  0  1  0  0  0  0  0  0  0  0  0
  -26.9274  -37.1724   24.6001 C   0  0  2  0  0  0  0  0  0  0  0  0
  -26.6477  -32.4601   25.3283 C   0  0  0  0  0  0  0  0  0  0  0  0
  -25.2193  -11.7368   19.9909 N   0  0  0  0  0  0  0  0  0  0  0  0
  -26.7331  -21.0380   17.7352 N   0  0  0  0  0  0  0  0  0  0  0  0
  -25.6870  -12.9589   20.2969 N   0  0  0  0  0  0  0  0  0  0  0  0
  -25.0897  -32.8615   22.1226 N   0  0  0  0  0  0  0  0  0  0  0  0
  -26.7651  -15.2102   17.3918 N   0  0  0  0  0  0  0  0  0  0  0  0
  -25.6156  -14.6477   21.9564 N   0  0  0  0  0  0  0  0  0  0  0  0
  -22.9361  -11.4232   23.6353 N   0  0  0  0  0  0  0  0  0  0  0  0
  -25.4768  -29.8976   20.1744 N   0  0  0  0  0  0  0  0  0  0  0  0
  -26.7506  -34.7925   24.3521 N   0  0  0  0  0  0  0  0  0  0  0  0
  -27.5059  -17.1501   16.2499 N   0  0  0  0  0  0  0  0  0  0  0  0
  -26.2060  -38.3531   24.0467 N   0  3  0  0  0  0  0  0  0  0  0  0
  -23.7977  -13.5138   24.0170 O   0  0  0  0  0  0  0  0  0  0  0  0
  -24.0132  -30.4526   21.8984 O   0  0  0  0  0  0  0  0  0  0  0  0
  -27.3983  -32.7647   22.4344 O   0  0  0  0  0  0  0  0  0  0  0  0
  -24.8150  -36.0084   24.7423 O   0  0  0  0  0  0  0  0  0  0  0  0
  -25.9096  -17.3114   17.8853 O   0  0  0  0  0  0  0  0  0  0  0  0
  -21.7561   -6.5387   21.2301 O   0  0  0  0  0  0  0  0  0  0  0  0
  -19.0471  -34.0697   21.6754 O   0  0  0  0  0  0  0  0  0  1  0  0
  -21.9082   -3.7194   25.9664 F   0  0  0  0  0  0  0  0  0  0  0  0
  -22.8366   -3.9962   21.3331 F   0  0  0  0  0  0  0  0  0  0  0  0
  1  2  1  0  0  0  0
  1  5  2  0  0  0  0
  2  6  2  0  0  0  0
  3  8  2  0  0  0  0
  3 15  1  0  0  0  0
  4  9  1  0  0  0  0
  4 15  2  0  0  0  0
  5 17  1  0  0  0  0
  6 19  1  0  0  0  0
  7 10  2  0  0  0  0
  7 18  1  0  0  0  0
  8 21  1  0  0  0  0
  9 21  2  0  0  0  0
 10 22  1  0  0  0  0
 11 12  2  0  0  0  0
 11 23  1  0  0  0  0
 12 24  1  0  0  0  0
 13 20  1  0  0  0  0
 13 22  2  0  0  0  0
 14 24  2  0  0  0  0
 14 25  1  0  0  0  0
 15 26  1  0  0  0  0
 16 26  1  0  0  0  0
 16 27  2  0  0  0  0
 16 28  1  0  0  0  0
 17 19  2  0  0  0  0
 17 34  1  0  0  0  0
 18 20  2  0  0  0  0
 18 35  1  0  0  0  0
 19 44  1  0  0  0  0
 20 36  1  0  0  0  0
 21 89  1  0  0  0  0
 22 90  1  0  0  0  0
 23 25  2  0  0  0  0
 23 89  1  0  0  0  0
 24 91  1  0  0  0  0
 25 92  1  0  0  0  0
 26 73  2  0  0  0  0
 27 75  1  0  0  0  0
 27 78  1  0  0  0  0
 28 79  1  0  0  0  0
 28 84  2  0  0  0  0
 29 45  1  0  0  0  0
 29 49  1  0  0  0  0
 29 74  2  0  0  0  0
 30 46  1  0  0  0  0
 30 80  1  0  0  0  0
 30 85  2  0  0  0  0
 31 70  1  0  0  0  0
 31 76  1  0  0  0  0
 31 86  2  0  0  0  0
 32 71  1  0  0  0  0
 32 81  1  0  0  0  0
 32 87  2  0  0  0  0
 33 77  1  0  0  0  0
 33 82  1  0  0  0  0
 33 88  2  0  0  0  0
 34 37  1  0  0  0  0
 35 46  1  0  0  0  0
 36 76  1  0  0  0  0
 37 39  1  0  0  0  0
 38 40  1  0  0  0  0
 38 42  1  0  0  0  0
 39 44  1  0  0  0  0
 40 47  1  0  0  0  0
 41 45  1  0  0  0  0
 41 48  1  0  0  0  0
 42 77  1  0  0  0  0
 43 47  1  0  0  0  0
 43 77  1  0  0  0  0
 44 80  1  0  0  0  0
 45 48  1  0  0  0  0
 46 76  1  0  0  0  0
 47 75  1  0  0  0  0
 48 82  1  0  0  0  0
 50 71  1  0  0  0  0
 51 72  1  0  0  0  0
 52 72  1  0  0  0  0
 53 72  1  0  0  0  0
 54 83  1  0  0  0  0
 55 56  1  0  0  0  0
 55 57  1  0  0  0  0
 56 58  1  0  0  0  0
 57 59  1  0  0  0  0
 58 60  1  0  0  0  0
 59 61  1  0  0  0  0
 60 62  1  0  0  0  0
 61 63  1  0  0  0  0
 62 64  1  0  0  0  0
 63 65  1  0  0  0  0
 64 66  1  0  0  0  0
 65 67  1  0  0  0  0
 66 68  1  0  0  0  0
 67 69  1  0  0  0  0
 68 74  1  0  0  0  0
 69 90  1  0  0  0  0
 70 72  1  0  0  0  0
 70 81  1  0  0  0  0
 71 83  1  0  0  0  0
 73 75  1  0  0  0  0
M  CHG  1  83   1
M  ISO  4  33 100  69 101  82 100  90 101
M  END
> <Batch ID>
0017

> <Smiles>
C=C(NCCCCCCCCCCCCCC[101CH2:1][101O:1]c1ccc2c(c1)CN(C(=O)C(NC(=O)C(C)NC)C(C)(C)C)C(C(=O)NC1CCCc3ccccc31)C2)C1CC1[100NH:0][100C:0](=O)N1CCCC(n2nc(-c3ccc(Oc4ccc(F)cc4F)cc3)c(C(N)=O)c2N)C1

> <Shape>
0.302

> <Color>
0.122

> <Negative vol penalty>
0.000

$$$$

  -OEChem-04052316013D

 88 96  0     1  0  0  0  0  0999 V2000
  -28.0671  -34.3040   12.6191 C   0  0  0  0  0  0  0  0  0  0  0  0
  -29.0665  -33.4774   13.1225 C   0  0  0  0  0  0  0  0  0  0  0  0
  -23.0038   -9.9293   19.9132 C   0  0  0  0  0  0  0  0  0  0  0  0
  -23.8045   -9.8023   22.1891 C   0  0  0  0  0  0  0  0  0  0  0  0
  -27.0337  -34.7326   13.4512 C   0  0  0  0  0  0  0  0  0  0  0  0
  -29.0337  -33.0798   14.4586 C   0  0  0  0  0  0  0  0  0  0  0  0
  -28.8186  -26.1054   16.2482 C   0  0  0  0  0  0  0  0  0  0  0  0
  -22.2502   -8.7728   20.1138 C   0  0  0  0  0  0  0  0  0  0  0  0
  -23.0508   -8.6459   22.3898 C   0  0  0  0  0  0  0  0  0  0  0  0
  -28.9894  -24.7882   16.6747 C   0  0  0  0  0  0  0  0  0  0  0  0
  -23.2903   -5.3561   21.6474 C   0  0  0  0  0  0  0  0  0  0  0  0
  -23.9057   -4.2862   22.2970 C   0  0  0  0  0  0  0  0  0  0  0  0
  -28.8409  -25.5039   18.9798 C   0  0  0  0  0  0  0  0  0  0  0  0
  -22.2373   -4.3859   24.0416 C   0  0  0  0  0  0  0  0  0  0  0  0
  -23.7810  -10.4440   20.9509 C   0  0  0  0  0  0  0  0  0  0  0  0
  -24.1521  -12.9679   20.9620 C   0  0  0  0  0  0  0  0  0  0  0  0
  -26.9830  -34.3323   14.7958 C   0  0  0  0  0  0  0  0  0  0  0  0
  -28.6427  -27.1260   17.1867 C   0  0  0  0  0  0  0  0  0  0  0  0
  -27.9994  -33.5046   15.3098 C   0  0  0  0  0  0  0  0  0  0  0  0
  -28.6569  -26.8235   18.5583 C   0  0  0  0  0  0  0  0  0  0  0  0
  -31.3095  -18.1456   24.0277 C   0  0  0  0  0  0  0  0  0  0  0  0
  -30.6349  -16.7915   22.1441 C   0  0  0  0  0  0  0  0  0  0  0  0
  -31.5198  -19.0102   21.7815 C   0  0  0  0  0  0  0  0  0  0  0  0
  -22.2737   -8.1311   21.3521 C   0  0  0  0  0  0  0  0  0  0  0  0
  -29.0007  -24.4883   18.0371 C   0  0  0  0  0  0  0  0  0  0  0  0
  -22.1484   -5.9411   22.1949 C   0  0  0  0  0  0  0  0  0  0  0  0
  -23.3792   -3.8010   23.4941 C   0  0  0  0  0  0  0  0  0  0  0  0
  -21.6219   -5.4559   23.3920 C   0  0  0  0  0  0  0  0  0  0  0  0
  -30.7896  -16.9547   23.5207 C   0  0  0  0  0  0  0  0  0  0  0  0
  -31.6745  -19.1734   23.1581 C   0  0  0  0  0  0  0  0  0  0  0  0
  -31.0000  -17.8192   21.2745 C   0  0  0  0  0  0  0  0  0  0  0  0
  -24.5602  -11.6383   20.7441 C   0  0  0  0  0  0  0  0  0  0  0  0
  -25.2469  -13.7235   20.6199 C   0  0  0  0  0  0  0  0  0  0  0  0
  -22.8958  -13.4746   21.4318 C   0  0  0  0  0  0  0  0  0  0  0  0
  -28.0771  -30.7826   17.8074 C   0  0  0  0  0  0  0  0  0  0  0  0
  -26.3325  -29.2573   19.8175 C   0  0  0  0  0  0  0  0  0  0  0  0
  -24.2466  -27.2103   21.5770 C   0  0  0  0  0  0  0  0  0  0  0  0
  -30.7279  -14.6952   20.7501 C   0  0  0  0  0  0  0  0  0  0  0  0
  -25.8720  -34.8596   15.6688 C   0  0  0  0  0  0  0  0  0  0  0  0
  -28.5170  -28.5676   16.7745 C   0  0  0  0  0  0  0  0  0  0  0  0
  -28.4987  -27.9585   19.5328 C   0  0  0  0  0  0  0  0  0  0  0  0
  -25.7067  -34.0890   16.9761 C   0  0  0  0  0  0  0  0  0  0  0  0
  -29.5414  -12.4272   18.2751 C   0  0  0  0  0  0  0  0  0  0  0  0
  -27.0618  -33.8687   17.6409 C   0  0  0  0  0  0  0  0  0  0  0  0
  -28.1061  -12.1291   18.7147 C   0  0  0  0  0  0  0  0  0  0  0  0
  -30.4806  -12.5795   19.4703 C   0  0  0  0  0  0  0  0  0  0  0  0
  -28.6078  -13.2494   20.9239 C   0  0  0  0  0  0  0  0  0  0  0  0
  -27.9851  -33.0318   16.7473 C   0  0  1  0  0  0  0  0  0  0  0  0
  -27.5727  -29.3749   17.6833 C   0  0  1  0  0  0  0  0  0  0  0  0
  -27.6120  -13.1518   19.7566 C   0  0  2  0  0  0  0  0  0  0  0  0
  -31.4760  -18.3212   25.5077 C   0  0  0  0  0  0  0  0  0  0  0  0
  -35.1855  -20.5098   19.0009 C   0  0  0  0  0  0  0  0  0  0  0  0
  -22.4307  -27.2661   23.3081 C   0  0  0  0  0  0  0  0  0  0  0  0
  -28.4183  -29.7692   21.9835 C   0  0  0  0  0  0  0  0  0  0  0  0
  -26.7864  -28.8857   23.6642 C   0  0  0  0  0  0  0  0  0  0  0  0
  -26.2322  -30.9290   22.3448 C   0  0  0  0  0  0  0  0  0  0  0  0
  -22.2879  -25.9819   19.7295 C   0  0  0  0  0  0  0  0  0  0  0  0
  -34.1199  -20.7298   20.0653 C   0  0  0  0  0  0  0  0  0  0  0  0
  -30.5243  -21.6510   19.6748 C   0  0  0  0  0  0  0  0  0  0  0  0
  -32.9164  -19.8110   19.8925 C   0  0  0  0  0  0  0  0  0  0  0  0
  -31.2617  -21.3423   20.9722 C   0  0  0  0  0  0  0  0  0  0  0  0
  -29.8056  -22.9948   19.7042 C   0  0  0  0  0  0  0  0  0  1  0  0
  -26.2147  -28.6735   21.2026 C   0  0  1  0  0  0  0  0  0  0  0  0
  -22.7494  -27.2668   21.8211 C   0  0  2  0  0  0  0  0  0  0  0  0
  -26.9208  -29.5485   22.2766 C   0  0  0  0  0  0  0  0  0  0  0  0
  -25.8161  -11.5509   20.2979 N   0  0  0  0  0  0  0  0  0  0  0  0
  -26.2066  -12.8352   20.2326 N   0  0  0  0  0  0  0  0  0  0  0  0
  -27.4514  -28.8799   19.0651 N   0  0  0  0  0  0  0  0  0  0  0  0
  -29.9503  -13.5673   20.4126 N   0  0  0  0  0  0  0  0  0  0  0  0
  -25.4725  -15.0544   20.6155 N   0  0  0  0  0  0  0  0  0  0  0  0
  -21.8788  -12.5601   21.7378 N   0  0  0  0  0  0  0  0  0  0  0  0
  -30.1068  -15.5815   21.6294 N   0  0  0  0  0  0  0  0  0  0  0  0
  -27.6232  -31.6323   16.8167 N   0  0  0  0  0  0  0  0  0  0  0  0
  -24.7897  -28.4703   21.4401 N   0  0  0  0  0  0  0  0  0  0  0  0
  -31.8871  -20.0434   20.9075 N   0  0  3  0  0  0  0  0  0  0  0  0
  -22.0780  -26.0922   21.1960 N   0  3  0  0  0  0  0  0  0  0  0  0
  -22.6760  -14.7029   21.5603 O   0  0  0  0  0  0  0  0  0  0  0  0
  -28.8222  -31.0780   18.7344 O   0  0  0  0  0  0  0  0  0  0  0  0
  -25.4607  -30.0317   19.4131 O   0  0  0  0  0  0  0  0  0  0  0  0
  -24.8725  -26.1542   21.5177 O   0  0  0  0  0  0  0  0  0  0  0  0
  -31.8505  -14.8762   20.2716 O   0  0  0  0  0  0  0  0  0  0  0  0
  -21.5382   -7.0028   21.5483 O   0  0  0  0  0  0  0  0  0  0  0  0
  -29.1634  -23.1996   18.4464 O   0  0  0  0  0  0  0  0  0  1  0  0
  -23.9693   -2.7725   24.1170 F   0  0  0  0  0  0  0  0  0  0  0  0
  -20.5245   -6.0130   23.9222 F   0  0  0  0  0  0  0  0  0  0  0  0
  -30.3363  -15.6790   24.6077 Cl  0  0  0  0  0  0  0  0  0  0  0  0
  -32.3216  -20.6535   23.7935 Cl  0  0  0  0  0  0  0  0  0  0  0  0
  -30.8075  -17.6170   19.5593 Cl  0  0  0  0  0  0  0  0  0  0  0  0
  1  2  1  0  0  0  0
  1  5  2  0  0  0  0
  2  6  2  0  0  0  0
  3  8  2  0  0  0  0
  3 15  1  0  0  0  0
  4  9  1  0  0  0  0
  4 15  2  0  0  0  0
  5 17  1  0  0  0  0
  6 19  1  0  0  0  0
  7 10  2  0  0  0  0
  7 18  1  0  0  0  0
  8 24  1  0  0  0  0
  9 24  2  0  0  0  0
 10 25  1  0  0  0  0
 11 12  2  0  0  0  0
 11 26  1  0  0  0  0
 12 27  1  0  0  0  0
 13 20  1  0  0  0  0
 13 25  2  0  0  0  0
 14 27  2  0  0  0  0
 14 28  1  0  0  0  0
 15 32  1  0  0  0  0
 16 32  1  0  0  0  0
 16 33  2  0  0  0  0
 16 34  1  0  0  0  0
 17 19  2  0  0  0  0
 17 39  1  0  0  0  0
 18 20  2  0  0  0  0
 18 40  1  0  0  0  0
 19 48  1  0  0  0  0
 20 41  1  0  0  0  0
 21 29  1  0  0  0  0
 21 30  2  0  0  0  0
 21 51  1  0  0  0  0
 22 29  2  0  0  0  0
 22 31  1  0  0  0  0
 22 72  1  0  0  0  0
 23 30  1  0  0  0  0
 23 31  2  0  0  0  0
 23 75  1  0  0  0  0
 24 82  1  0  0  0  0
 25 83  1  0  0  0  0
 26 28  2  0  0  0  0
 26 82  1  0  0  0  0
 27 84  1  0  0  0  0
 28 85  1  0  0  0  0
 29 86  1  0  0  0  0
 30 87  1  0  0  0  0
 31 88  1  0  0  0  0
 32 66  2  0  0  0  0
 33 67  1  0  0  0  0
 33 70  1  0  0  0  0
 34 71  1  0  0  0  0
 34 77  2  0  0  0  0
 35 49  1  0  0  0  0
 35 73  1  0  0  0  0
 35 78  2  0  0  0  0
 36 63  1  0  0  0  0
 36 68  1  0  0  0  0
 36 79  2  0  0  0  0
 37 64  1  0  0  0  0
 37 74  1  0  0  0  0
 37 80  2  0  0  0  0
 38 69  1  0  0  0  0
 38 72  1  0  0  0  0
 38 81  2  0  0  0  0
 39 42  1  0  0  0  0
 40 49  1  0  0  0  0
 41 68  1  0  0  0  0
 42 44  1  0  0  0  0
 43 45  1  0  0  0  0
 43 46  1  0  0  0  0
 44 48  1  0  0  0  0
 45 50  1  0  0  0  0
 46 69  1  0  0  0  0
 47 50  1  0  0  0  0
 47 69  1  0  0  0  0
 48 73  1  0  0  0  0
 49 68  1  0  0  0  0
 50 67  1  0  0  0  0
 52 58  1  0  0  0  0
 53 64  1  0  0  0  0
 54 65  1  0  0  0  0
 55 65  1  0  0  0  0
 56 65  1  0  0  0  0
 57 76  1  0  0  0  0
 58 60  1  0  0  0  0
 59 61  1  0  0  0  0
 59 62  1  0  0  0  0
 60 75  1  0  0  0  0
 61 75  1  0  0  0  0
 62 83  1  0  0  0  0
 63 65  1  0  0  0  0
 63 74  1  0  0  0  0
 64 76  1  0  0  0  0
 66 67  1  0  0  0  0
M  CHG  1  76   1
M  ISO  4  38 100  62 101  72 100  83 101
M  END
> <Batch ID>
0017

> <Smiles>
CCCN(CC[101CH2:1][101O:1]c1ccc2c(c1)CN(C(=O)C(NC(=O)C(C)NC)C(C)(C)C)C(C(=O)NC1CCCc3ccccc31)C2)c1c(Cl)c(C)c(Cl)c([100NH:0][100C:0](=O)N2CCCC(n3nc(-c4ccc(Oc5ccc(F)cc5F)cc4)c(C(N)=O)c3N)C2)c1Cl

> <Shape>
0.276

> <Color>
0.216

> <Negative vol penalty>
0.000

$$$$

  -OEChem-04052316013D

 90 99  0     1  0  0  0  0  0999 V2000
  -23.5270   -6.9406   24.9124 C   0  0  0  0  0  0  0  0  0  0  0  0
  -24.5715   -7.8565   24.9876 C   0  0  0  0  0  0  0  0  0  0  0  0
  -20.0633  -28.8985   23.3153 C   0  0  0  0  0  0  0  0  0  0  0  0
  -20.8557  -26.7070   22.6779 C   0  0  0  0  0  0  0  0  0  0  0  0
  -22.7891   -6.8217   23.7354 C   0  0  0  0  0  0  0  0  0  0  0  0
  -24.8793   -8.6533   23.8854 C   0  0  0  0  0  0  0  0  0  0  0  0
  -26.9097  -14.4305   23.9715 C   0  0  0  0  0  0  0  0  0  0  0  0
  -18.8103  -28.6014   22.7793 C   0  0  0  0  0  0  0  0  0  0  0  0
  -19.6027  -26.4098   22.1419 C   0  0  0  0  0  0  0  0  0  0  0  0
  -28.1867  -14.9777   23.8546 C   0  0  0  0  0  0  0  0  0  0  0  0
  -16.0641  -26.8503   23.6876 C   0  0  0  0  0  0  0  0  0  0  0  0
  -14.9401  -27.1854   24.4425 C   0  0  0  0  0  0  0  0  0  0  0  0
  -27.8104  -15.3371   21.4990 C   0  0  0  0  0  0  0  0  0  0  0  0
  -29.5145  -27.4195   18.9070 C   0  0  0  0  0  0  0  0  0  0  0  0
  -29.8565  -25.1926   18.0349 C   0  0  0  0  0  0  0  0  0  0  0  0
  -14.1703  -28.6217   22.6587 C   0  0  0  0  0  0  0  0  0  0  0  0
  -21.0860  -27.9513   23.2645 C   0  0  0  0  0  0  0  0  0  0  0  0
  -22.8169  -28.0316   25.1368 C   0  0  0  0  0  0  0  0  0  0  0  0
  -23.0817   -7.6243   22.6215 C   0  0  0  0  0  0  0  0  0  0  0  0
  -26.0762  -14.3222   22.8490 C   0  0  0  0  0  0  0  0  0  0  0  0
  -24.1454   -8.5441   22.6920 C   0  0  0  0  0  0  0  0  0  0  0  0
  -26.5224  -14.7904   21.6049 C   0  0  0  0  0  0  0  0  0  0  0  0
  -30.0954  -26.5653   17.9698 C   0  0  0  0  0  0  0  0  0  0  0  0
  -28.4557  -25.5284   19.9745 C   0  0  0  0  0  0  0  0  0  0  0  0
  -28.6947  -26.9011   19.9094 C   0  0  0  0  0  0  0  0  0  0  0  0
  -18.5800  -27.3570   22.1926 C   0  0  0  0  0  0  0  0  0  0  0  0
  -28.6383  -15.4285   22.6177 C   0  0  0  0  0  0  0  0  0  0  0  0
  -16.2413  -27.4010   22.4183 C   0  0  0  0  0  0  0  0  0  0  0  0
  -29.0366  -24.6741   19.0373 C   0  0  0  0  0  0  0  0  0  0  0  0
  -13.9932  -28.0711   23.9281 C   0  0  0  0  0  0  0  0  0  0  0  0
  -15.2944  -28.2866   21.9039 C   0  0  0  0  0  0  0  0  0  0  0  0
  -22.3808  -28.2579   23.8175 C   0  0  0  0  0  0  0  0  0  0  0  0
  -24.1104  -28.4932   25.1547 C   0  0  0  0  0  0  0  0  0  0  0  0
  -22.1155  -27.4557   26.2467 C   0  0  0  0  0  0  0  0  0  0  0  0
  -24.7289  -11.9084   21.2800 C   0  0  0  0  0  0  0  0  0  0  0  0
  -23.2840  -14.2986   19.6302 C   0  0  0  0  0  0  0  0  0  0  0  0
  -23.3364  -17.5521   18.6015 C   0  0  0  0  0  0  0  0  0  0  0  0
  -28.2616  -29.1718   20.9106 C   0  0  0  0  0  0  0  0  0  0  0  0
  -22.2865   -7.4266   21.3553 C   0  0  0  0  0  0  0  0  0  0  0  0
  -24.6915  -13.7540   22.9971 C   0  0  0  0  0  0  0  0  0  0  0  0
  -25.6588  -14.7154   20.3732 C   0  0  0  0  0  0  0  0  0  0  0  0
  -22.4357   -8.5720   20.3573 C   0  0  0  0  0  0  0  0  0  0  0  0
  -26.9689  -31.7076   23.0497 C   0  0  0  0  0  0  0  0  0  0  0  0
  -23.9039   -8.9536   20.1981 C   0  0  0  0  0  0  0  0  0  0  0  0
  -25.6885  -31.0878   23.6141 C   0  0  0  0  0  0  0  0  0  0  0  0
  -29.9940  -21.3885   20.8706 C   0  0  0  0  0  0  0  0  0  0  0  0
  -30.8364  -20.1748   18.8304 C   0  0  0  0  0  0  0  0  0  0  0  0
  -27.1963  -31.3109   21.5921 C   0  0  0  0  0  0  0  0  0  0  0  0
  -25.8863  -29.2465   21.8944 C   0  0  0  0  0  0  0  0  0  0  0  0
  -30.0033  -20.0782   21.6460 C   0  0  0  0  0  0  0  0  0  0  0  0
  -30.8412  -18.8707   19.6162 C   0  0  0  0  0  0  0  0  0  0  0  0
  -24.4937   -9.4436   21.5260 C   0  0  1  0  0  0  0  0  0  0  0  0
  -24.1210  -13.2210   21.6864 C   0  0  1  0  0  0  0  0  0  0  0  0
  -29.7909  -21.1586   19.3685 C   0  0  0  0  0  0  0  0  0  0  0  0
  -25.6487  -29.5650   23.3796 C   0  0  2  0  0  0  0  0  0  0  0  0
  -30.9728  -27.1190   16.8984 C   0  0  0  0  0  0  0  0  0  0  0  0
  -27.5781  -24.9620   21.0458 C   0  0  0  0  0  0  0  0  0  0  0  0
  -22.0380  -19.2064   17.2322 C   0  0  0  0  0  0  0  0  0  0  0  0
  -32.5725  -17.3113   21.6105 C   0  0  0  0  0  0  0  0  0  0  0  0
  -24.3146  -12.9884   17.0746 C   0  0  0  0  0  0  0  0  0  0  0  0
  -23.8281  -15.1260   15.8654 C   0  0  0  0  0  0  0  0  0  0  0  0
  -21.9706  -13.8489   16.9337 C   0  0  0  0  0  0  0  0  0  0  0  0
  -22.9130  -19.3251   20.9330 C   0  0  0  0  0  0  0  0  0  0  0  0
  -29.8468  -22.4803   18.6055 C   0  0  0  0  0  0  0  0  0  0  0  0
  -30.0734  -16.9561   21.4940 C   0  0  0  0  0  0  0  0  0  1  0  0
  -23.6165  -15.0961   18.3923 C   0  0  1  0  0  0  0  0  0  0  0  0
  -22.2698  -18.6321   18.6212 C   0  0  2  0  0  0  0  0  0  0  0  0
  -31.2005  -17.9048   21.8862 C   0  0  2  0  0  0  0  0  0  0  0  0
  -23.4497  -14.2646   17.0891 C   0  0  0  0  0  0  0  0  0  0  0  0
  -23.3208  -28.8196   23.0528 N   0  0  0  0  0  0  0  0  0  0  0  0
  -24.3605  -28.9503   23.8943 N   0  0  0  0  0  0  0  0  0  0  0  0
  -24.3151  -14.1460   20.5679 N   0  0  0  0  0  0  0  0  0  0  0  0
  -27.1493  -29.8543   21.4470 N   0  0  0  0  0  0  0  0  0  0  0  0
  -25.0468  -28.5486   26.1255 N   0  0  0  0  0  0  0  0  0  0  0  0
  -20.7928  -27.0339   26.0551 N   0  0  0  0  0  0  0  0  0  0  0  0
  -28.1143  -27.7864   20.8512 N   0  0  0  0  0  0  0  0  0  0  0  0
  -24.0766  -10.8035   21.7931 N   0  0  0  0  0  0  0  0  0  0  0  0
  -22.7889  -16.2963   18.4454 N   0  0  0  0  0  0  0  0  0  0  0  0
  -31.0647  -19.1667   21.0794 N   0  3  0  0  0  0  0  0  0  0  0  0
  -22.6747  -19.7435   19.5277 N   0  3  0  0  0  0  0  0  0  0  0  0
  -22.6407  -27.3341   27.3794 O   0  0  0  0  0  0  0  0  0  0  0  0
  -25.7157  -11.8987   20.5535 O   0  0  0  0  0  0  0  0  0  0  0  0
  -22.1490  -13.8343   19.7637 O   0  0  0  0  0  0  0  0  0  0  0  0
  -24.5357  -17.7983   18.7096 O   0  0  0  0  0  0  0  0  0  0  0  0
  -29.2812  -29.7697   20.5571 O   0  0  0  0  0  0  0  0  0  0  0  0
  -17.3573  -27.0667   21.6697 O   0  0  0  0  0  0  0  0  0  0  0  0
  -28.8134  -23.3200   19.0854 O   0  0  0  0  0  0  0  0  0  0  0  0
  -29.8845  -15.9625   22.5006 O   0  0  0  0  0  0  0  0  0  1  0  0
  -12.9131  -28.3916   24.6525 F   0  0  0  0  0  0  0  0  0  0  0  0
  -15.4586  -28.8179   20.6846 F   0  0  0  0  0  0  0  0  0  0  0  0
  1  2  1  0  0  0  0
  1  5  2  0  0  0  0
  2  6  2  0  0  0  0
  3  8  2  0  0  0  0
  3 17  1  0  0  0  0
  4  9  1  0  0  0  0
  4 17  2  0  0  0  0
  5 19  1  0  0  0  0
  6 21  1  0  0  0  0
  7 10  2  0  0  0  0
  7 20  1  0  0  0  0
  8 26  1  0  0  0  0
  9 26  2  0  0  0  0
 10 27  1  0  0  0  0
 11 12  2  0  0  0  0
 11 28  1  0  0  0  0
 12 30  1  0  0  0  0
 13 22  1  0  0  0  0
 13 27  2  0  0  0  0
 14 23  1  0  0  0  0
 14 25  2  0  0  0  0
 15 23  2  0  0  0  0
 15 29  1  0  0  0  0
 16 30  2  0  0  0  0
 16 31  1  0  0  0  0
 17 32  1  0  0  0  0
 18 32  1  0  0  0  0
 18 33  2  0  0  0  0
 18 34  1  0  0  0  0
 19 21  2  0  0  0  0
 19 39  1  0  0  0  0
 20 22  2  0  0  0  0
 20 40  1  0  0  0  0
 21 52  1  0  0  0  0
 22 41  1  0  0  0  0
 23 56  1  0  0  0  0
 24 25  1  0  0  0  0
 24 29  2  0  0  0  0
 24 57  1  0  0  0  0
 25 76  1  0  0  0  0
 26 86  1  0  0  0  0
 27 88  1  0  0  0  0
 28 31  2  0  0  0  0
 28 86  1  0  0  0  0
 29 87  1  0  0  0  0
 30 89  1  0  0  0  0
 31 90  1  0  0  0  0
 32 70  2  0  0  0  0
 33 71  1  0  0  0  0
 33 74  1  0  0  0  0
 34 75  1  0  0  0  0
 34 81  2  0  0  0  0
 35 53  1  0  0  0  0
 35 77  1  0  0  0  0
 35 82  2  0  0  0  0
 36 66  1  0  0  0  0
 36 72  1  0  0  0  0
 36 83  2  0  0  0  0
 37 67  1  0  0  0  0
 37 78  1  0  0  0  0
 37 84  2  0  0  0  0
 38 73  1  0  0  0  0
 38 76  1  0  0  0  0
 38 85  2  0  0  0  0
 39 42  1  0  0  0  0
 40 53  1  0  0  0  0
 41 72  1  0  0  0  0
 42 44  1  0  0  0  0
 43 45  1  0  0  0  0
 43 48  1  0  0  0  0
 44 52  1  0  0  0  0
 45 55  1  0  0  0  0
 46 50  1  0  0  0  0
 46 54  1  0  0  0  0
 47 51  1  0  0  0  0
 47 54  1  0  0  0  0
 48 73  1  0  0  0  0
 49 55  1  0  0  0  0
 49 73  1  0  0  0  0
 50 79  1  0  0  0  0
 51 79  1  0  0  0  0
 52 77  1  0  0  0  0
 53 72  1  0  0  0  0
 54 64  1  0  0  0  0
 55 71  1  0  0  0  0
 58 67  1  0  0  0  0
 59 68  1  0  0  0  0
 60 69  1  0  0  0  0
 61 69  1  0  0  0  0
 62 69  1  0  0  0  0
 63 80  1  0  0  0  0
 64 87  1  0  0  0  0
 65 68  1  0  0  0  0
 65 88  1  0  0  0  0
 66 69  1  0  0  0  0
 66 78  1  0  0  0  0
 67 80  1  0  0  0  0
 68 79  1  0  0  0  0
 70 71  1  0  0  0  0
M  CHG  2  79   1  80   1
M  ISO  4  38 100  65 101  76 100  88 101
M  END
> <Batch ID>
0017

> <Smiles>
CNC(C)C(=O)NC(C(=O)N1Cc2cc([101O:1][101CH2:1]C(C)N3CCC(COc4cc(C)cc([100NH:0][100C:0](=O)N5CCCC(n6nc(-c7ccc(Oc8ccc(F)cc8F)cc7)c(C(N)=O)c6N)C5)c4C)CC3)ccc2CC1C(=O)NC1CCCc2ccccc21)C(C)(C)C

> <Shape>
0.265

> <Color>
0.078

> <Negative vol penalty>
0.000

$$$$

  -OEChem-04052316013D

 83 91  0     1  0  0  0  0  0999 V2000
  -38.3296  -28.6366   21.7146 C   0  0  0  0  0  0  0  0  0  0  0  0
  -37.3800  -27.7306   22.1760 C   0  0  0  0  0  0  0  0  0  0  0  0
  -23.0762   -9.8682   19.9384 C   0  0  0  0  0  0  0  0  0  0  0  0
  -23.8366   -9.8718   22.2317 C   0  0  0  0  0  0  0  0  0  0  0  0
  -38.2326  -29.1482   20.4213 C   0  0  0  0  0  0  0  0  0  0  0  0
  -36.3323  -27.3365   21.3446 C   0  0  0  0  0  0  0  0  0  0  0  0
  -35.5235  -22.3391   21.4744 C   0  0  0  0  0  0  0  0  0  0  0  0
  -22.3327   -8.7145   20.1867 C   0  0  0  0  0  0  0  0  0  0  0  0
  -23.0931   -8.7180   22.4800 C   0  0  0  0  0  0  0  0  0  0  0  0
  -34.8310  -21.8345   22.5742 C   0  0  0  0  0  0  0  0  0  0  0  0
  -21.1093   -5.9782   23.8127 C   0  0  0  0  0  0  0  0  0  0  0  0
  -20.3533   -5.9325   24.9840 C   0  0  0  0  0  0  0  0  0  0  0  0
  -32.8112  -21.7538   21.2578 C   0  0  0  0  0  0  0  0  0  0  0  0
  -32.0647  -16.5797   22.5286 C   0  0  0  0  0  0  0  0  0  0  0  0
  -19.1080   -7.8706   24.2558 C   0  0  0  0  0  0  0  0  0  0  0  0
  -23.8282  -10.4469   20.9609 C   0  0  0  0  0  0  0  0  0  0  0  0
  -24.1692  -12.9723   20.8448 C   0  0  0  0  0  0  0  0  0  0  0  0
  -37.1886  -28.7528   19.5702 C   0  0  0  0  0  0  0  0  0  0  0  0
  -34.8615  -22.5655   20.2591 C   0  0  0  0  0  0  0  0  0  0  0  0
  -36.2205  -27.8443   20.0391 C   0  0  0  0  0  0  0  0  0  0  0  0
  -33.4981  -22.2589   20.1433 C   0  0  0  0  0  0  0  0  0  0  0  0
  -30.5331  -18.3380   24.0601 C   0  0  0  0  0  0  0  0  0  0  0  0
  -31.9218  -18.3274   24.1906 C   0  0  0  0  0  0  0  0  0  0  0  0
  -30.6761  -16.5902   22.3981 C   0  0  0  0  0  0  0  0  0  0  0  0
  -22.3411   -8.1394   21.4575 C   0  0  0  0  0  0  0  0  0  0  0  0
  -33.4740  -21.5445   22.4669 C   0  0  0  0  0  0  0  0  0  0  0  0
  -20.8647   -6.9701   22.8629 C   0  0  0  0  0  0  0  0  0  0  0  0
  -19.3526   -6.8787   25.2055 C   0  0  0  0  0  0  0  0  0  0  0  0
  -19.8640   -7.9163   23.0845 C   0  0  0  0  0  0  0  0  0  0  0  0
  -32.6877  -17.4483   23.4249 C   0  0  0  0  0  0  0  0  0  0  0  0
  -29.9103  -17.4694   23.1638 C   0  0  0  0  0  0  0  0  0  0  0  0
  -24.5969  -11.6384   20.7049 C   0  0  0  0  0  0  0  0  0  0  0  0
  -25.2611  -13.7227   20.4825 C   0  0  0  0  0  0  0  0  0  0  0  0
  -22.8987  -13.4871   21.2648 C   0  0  0  0  0  0  0  0  0  0  0  0
  -34.2766  -25.1241   18.4660 C   0  0  0  0  0  0  0  0  0  0  0  0
  -33.0939  -22.9223   16.3983 C   0  0  0  0  0  0  0  0  0  0  0  0
  -31.7590  -19.8176   15.9227 C   0  0  0  0  0  0  0  0  0  0  0  0
  -30.7270  -14.7697   20.6576 C   0  0  0  0  0  0  0  0  0  0  0  0
  -37.0987  -29.3691   18.1966 C   0  0  0  0  0  0  0  0  0  0  0  0
  -35.6288  -23.0850   19.0743 C   0  0  0  0  0  0  0  0  0  0  0  0
  -32.7457  -22.4648   18.8549 C   0  0  0  0  0  0  0  0  0  0  0  0
  -36.1693  -28.6141   17.2499 C   0  0  0  0  0  0  0  0  0  0  0  0
  -29.6128  -12.3593   18.2858 C   0  0  0  0  0  0  0  0  0  0  0  0
  -34.8528  -28.2831   17.9456 C   0  0  0  0  0  0  0  0  0  0  0  0
  -28.1733  -12.0666   18.7152 C   0  0  0  0  0  0  0  0  0  0  0  0
  -30.5281  -12.5864   19.4876 C   0  0  0  0  0  0  0  0  0  0  0  0
  -28.6212  -13.3081   20.8704 C   0  0  0  0  0  0  0  0  0  0  0  0
  -35.0832  -27.3736   19.1586 C   0  0  1  0  0  0  0  0  0  0  0  0
  -34.7387  -23.7606   18.0357 C   0  0  1  0  0  0  0  0  0  0  0  0
  -27.6482  -13.1365   19.6925 C   0  0  2  0  0  0  0  0  0  0  0  0
  -29.7271  -19.2892   24.8906 C   0  0  0  0  0  0  0  0  0  0  0  0
  -33.3299  -18.5063   26.2683 C   0  0  0  0  0  0  0  0  0  0  0  0
  -30.8567  -18.3153   14.1265 C   0  0  0  0  0  0  0  0  0  0  0  0
  -30.5137  -24.5498   16.3367 C   0  0  0  0  0  0  0  0  0  0  0  0
  -29.3672  -22.5641   15.3313 C   0  0  0  0  0  0  0  0  0  0  0  0
  -31.2439  -23.6675   14.1134 C   0  0  0  0  0  0  0  0  0  0  0  0
  -33.8337  -17.7693   16.4321 C   0  0  0  0  0  0  0  0  0  0  0  0
  -33.5348  -20.2605   24.4678 C   0  0  0  0  0  0  0  0  0  1  0  0
  -32.5896  -19.2777   25.1722 C   0  0  1  0  0  0  0  0  0  0  0  0
  -31.7439  -22.2859   16.1709 C   0  0  1  0  0  0  0  0  0  0  0  0
  -32.0862  -18.7228   14.9233 C   0  0  2  0  0  0  0  0  0  0  0  0
  -30.7306  -23.2647   15.5131 C   0  0  0  0  0  0  0  0  0  0  0  0
  -25.8617  -11.5436   20.2862 N   0  0  0  0  0  0  0  0  0  0  0  0
  -26.2381  -12.8275   20.1598 N   0  0  0  0  0  0  0  0  0  0  0  0
  -33.5385  -22.9808   17.7267 N   0  0  0  0  0  0  0  0  0  0  0  0
  -29.9690  -13.6157   20.3667 N   0  0  0  0  0  0  0  0  0  0  0  0
  -25.4711  -15.0543   20.4115 N   0  0  0  0  0  0  0  0  0  0  0  0
  -21.8871  -12.5771   21.6009 N   0  0  0  0  0  0  0  0  0  0  0  0
  -30.0795  -15.6932   21.4776 N   0  0  0  0  0  0  0  0  0  0  0  0
  -35.3045  -26.0085   18.7320 N   0  0  0  0  0  0  0  0  0  0  0  0
  -31.9895  -21.0723   15.3994 N   0  0  0  0  0  0  0  0  0  0  0  0
  -32.6102  -17.5184   15.6275 N   0  3  0  0  0  0  0  0  0  0  0  0
  -22.6621  -14.7175   21.3242 O   0  0  0  0  0  0  0  0  0  0  0  0
  -33.0764  -25.3569   18.5491 O   0  0  0  0  0  0  0  0  0  0  0  0
  -33.7335  -23.3452   15.4321 O   0  0  0  0  0  0  0  0  0  0  0  0
  -31.3374  -19.5833   17.0531 O   0  0  0  0  0  0  0  0  0  0  0  0
  -31.8559  -14.9395   20.1900 O   0  0  0  0  0  0  0  0  0  0  0  0
  -21.6156   -7.0137   21.7002 O   0  0  0  0  0  0  0  0  0  0  0  0
  -32.7956  -21.0525   23.5390 O   0  0  0  0  0  0  0  0  0  1  0  0
  -18.6257   -6.8338   26.3297 F   0  0  0  0  0  0  0  0  0  0  0  0
  -19.6236   -8.8708   22.1752 F   0  0  0  0  0  0  0  0  0  0  0  0
  -34.4083  -17.3999   23.5605 Cl  0  0  0  0  0  0  0  0  0  0  0  0
  -28.1833  -17.4835   23.0031 Cl  0  0  0  0  0  0  0  0  0  0  0  0
  1  2  1  0  0  0  0
  1  5  2  0  0  0  0
  2  6  2  0  0  0  0
  3  8  2  0  0  0  0
  3 16  1  0  0  0  0
  4  9  1  0  0  0  0
  4 16  2  0  0  0  0
  5 18  1  0  0  0  0
  6 20  1  0  0  0  0
  7 10  2  0  0  0  0
  7 19  1  0  0  0  0
  8 25  1  0  0  0  0
  9 25  2  0  0  0  0
 10 26  1  0  0  0  0
 11 12  2  0  0  0  0
 11 27  1  0  0  0  0
 12 28  1  0  0  0  0
 13 21  1  0  0  0  0
 13 26  2  0  0  0  0
 14 24  1  0  0  0  0
 14 30  2  0  0  0  0
 15 28  2  0  0  0  0
 15 29  1  0  0  0  0
 16 32  1  0  0  0  0
 17 32  1  0  0  0  0
 17 33  2  0  0  0  0
 17 34  1  0  0  0  0
 18 20  2  0  0  0  0
 18 39  1  0  0  0  0
 19 21  2  0  0  0  0
 19 40  1  0  0  0  0
 20 48  1  0  0  0  0
 21 41  1  0  0  0  0
 22 23  2  0  0  0  0
 22 31  1  0  0  0  0
 22 51  1  0  0  0  0
 23 30  1  0  0  0  0
 23 59  1  0  0  0  0
 24 31  2  0  0  0  0
 24 69  1  0  0  0  0
 25 78  1  0  0  0  0
 26 79  1  0  0  0  0
 27 29  2  0  0  0  0
 27 78  1  0  0  0  0
 28 80  1  0  0  0  0
 29 81  1  0  0  0  0
 30 82  1  0  0  0  0
 31 83  1  0  0  0  0
 32 63  2  0  0  0  0
 33 64  1  0  0  0  0
 33 67  1  0  0  0  0
 34 68  1  0  0  0  0
 34 73  2  0  0  0  0
 35 49  1  0  0  0  0
 35 70  1  0  0  0  0
 35 74  2  0  0  0  0
 36 60  1  0  0  0  0
 36 65  1  0  0  0  0
 36 75  2  0  0  0  0
 37 61  1  0  0  0  0
 37 71  1  0  0  0  0
 37 76  2  0  0  0  0
 38 66  1  0  0  0  0
 38 69  1  0  0  0  0
 38 77  2  0  0  0  0
 39 42  1  0  0  0  0
 40 49  1  0  0  0  0
 41 65  1  0  0  0  0
 42 44  1  0  0  0  0
 43 45  1  0  0  0  0
 43 46  1  0  0  0  0
 44 48  1  0  0  0  0
 45 50  1  0  0  0  0
 46 66  1  0  0  0  0
 47 50  1  0  0  0  0
 47 66  1  0  0  0  0
 48 70  1  0  0  0  0
 49 65  1  0  0  0  0
 50 64  1  0  0  0  0
 52 59  1  0  0  0  0
 53 61  1  0  0  0  0
 54 62  1  0  0  0  0
 55 62  1  0  0  0  0
 56 62  1  0  0  0  0
 57 72  1  0  0  0  0
 58 59  1  0  0  0  0
 58 79  1  0  0  0  0
 60 62  1  0  0  0  0
 60 71  1  0  0  0  0
 61 72  1  0  0  0  0
 63 64  1  0  0  0  0
M  CHG  1  72   1
M  ISO  4  38 100  58 101  69 100  79 101
M  END
> <Batch ID>
0017

> <Smiles>
CNC(C)C(=O)NC(C(=O)N1Cc2cc([101O:1][101CH2:1]C(C)c3c(Cl)cc([100NH:0][100C:0](=O)N4CCCC(n5nc(-c6ccc(Oc7ccc(F)cc7F)cc6)c(C(N)=O)c5N)C4)c(Cl)c3C)ccc2CC1C(=O)NC1CCCc2ccccc21)C(C)(C)C

> <Shape>
0.170

> <Color>
0.196

> <Negative vol penalty>
0.000

$$$$

  -OEChem-04052316013D

 84 92  0     1  0  0  0  0  0999 V2000
  -30.3772  -26.8942   17.2203 C   0  0  0  0  0  0  0  0  0  0  0  0
  -29.4540  -25.8822   17.4633 C   0  0  0  0  0  0  0  0  0  0  0  0
  -26.5336  -12.8397   21.5983 C   0  0  0  0  0  0  0  0  0  0  0  0
  -26.1337  -13.7701   19.4048 C   0  0  0  0  0  0  0  0  0  0  0  0
  -30.6066  -27.8735   18.1858 C   0  0  0  0  0  0  0  0  0  0  0  0
  -28.7604  -25.8484   18.6725 C   0  0  0  0  0  0  0  0  0  0  0  0
  -23.8220  -24.9130   18.0540 C   0  0  0  0  0  0  0  0  0  0  0  0
  -25.2578  -12.2761   21.5919 C   0  0  0  0  0  0  0  0  0  0  0  0
  -24.8578  -13.2064   19.3984 C   0  0  0  0  0  0  0  0  0  0  0  0
  -23.4498  -23.5914   17.8118 C   0  0  0  0  0  0  0  0  0  0  0  0
  -23.7317   -9.5817   20.2338 C   0  0  0  0  0  0  0  0  0  0  0  0
  -23.6056   -8.2582   20.6557 C   0  0  0  0  0  0  0  0  0  0  0  0
  -22.8277  -23.3481   20.1298 C   0  0  0  0  0  0  0  0  0  0  0  0
  -27.7591  -18.9542   18.7152 C   0  0  0  0  0  0  0  0  0  0  0  0
  -25.8506  -20.5536   19.9730 C   0  0  0  0  0  0  0  0  0  0  0  0
  -22.1146   -8.9630   22.4212 C   0  0  0  0  0  0  0  0  0  0  0  0
  -26.9716  -13.5868   20.5048 C   0  0  0  0  0  0  0  0  0  0  0  0
  -29.4807  -13.5828   20.0446 C   0  0  0  0  0  0  0  0  0  0  0  0
  -29.9084  -27.8571   19.4036 C   0  0  0  0  0  0  0  0  0  0  0  0
  -23.7100  -25.4596   19.3405 C   0  0  0  0  0  0  0  0  0  0  0  0
  -28.9817  -26.8276   19.6558 C   0  0  0  0  0  0  0  0  0  0  0  0
  -23.1968  -24.6777   20.3851 C   0  0  0  0  0  0  0  0  0  0  0  0
  -26.4111  -18.5990   18.6683 C   0  0  0  0  0  0  0  0  0  0  0  0
  -28.1529  -20.1091   19.3911 C   0  0  0  0  0  0  0  0  0  0  0  0
  -25.4568  -19.3986   19.2971 C   0  0  0  0  0  0  0  0  0  0  0  0
  -24.4198  -12.4594   20.4919 C   0  0  0  0  0  0  0  0  0  0  0  0
  -22.9552  -22.8079   18.8503 C   0  0  0  0  0  0  0  0  0  0  0  0
  -23.0493  -10.5959   20.9057 C   0  0  0  0  0  0  0  0  0  0  0  0
  -22.7970   -7.9488   21.7493 C   0  0  0  0  0  0  0  0  0  0  0  0
  -22.2407  -10.2865   21.9994 C   0  0  0  0  0  0  0  0  0  0  0  0
  -27.1987  -20.9088   20.0199 C   0  0  0  0  0  0  0  0  0  0  0  0
  -28.2892  -14.1698   20.5110 C   0  0  0  0  0  0  0  0  0  0  0  0
  -30.4443  -14.5348   20.2717 C   0  0  0  0  0  0  0  0  0  0  0  0
  -29.6971  -12.2924   19.4583 C   0  0  0  0  0  0  0  0  0  0  0  0
  -25.7588  -26.6576   21.4549 C   0  0  0  0  0  0  0  0  0  0  0  0
  -23.0498  -27.3822   23.0856 C   0  0  0  0  0  0  0  0  0  0  0  0
  -30.1286  -20.5097   20.8319 C   0  0  0  0  0  0  0  0  0  0  0  0
  -19.7551  -26.7136   23.6725 C   0  0  0  0  0  0  0  0  0  0  0  0
  -30.2248  -28.9102   20.4359 C   0  0  0  0  0  0  0  0  0  0  0  0
  -24.0907  -26.8950   19.5795 C   0  0  0  0  0  0  0  0  0  0  0  0
  -23.0378  -25.2234   21.7799 C   0  0  0  0  0  0  0  0  0  0  0  0
  -29.1751  -29.0162   21.5392 C   0  0  0  0  0  0  0  0  0  0  0  0
  -31.5109  -18.1762   23.1737 C   0  0  0  0  0  0  0  0  0  0  0  0
  -28.8038  -27.6305   22.0577 C   0  0  0  0  0  0  0  0  0  0  0  0
  -30.9271  -16.8351   22.7312 C   0  0  0  0  0  0  0  0  0  0  0  0
  -30.5181  -19.3147   22.9614 C   0  0  0  0  0  0  0  0  0  0  0  0
  -29.4230  -18.0822   21.1165 C   0  0  0  0  0  0  0  0  0  0  0  0
  -28.1915  -26.7710   20.9452 C   0  0  1  0  0  0  0  0  0  0  0  0
  -24.4169  -27.1914   21.0400 C   0  0  1  0  0  0  0  0  0  0  0  0
  -30.4051  -16.9094   21.2854 C   0  0  2  0  0  0  0  0  0  0  0  0
  -26.0122  -17.3570   17.9410 C   0  0  0  0  0  0  0  0  0  0  0  0
  -17.8178  -27.4482   25.0884 C   0  0  0  0  0  0  0  0  0  0  0  0
  -29.8564  -21.8448   18.7760 C   0  0  0  0  0  0  0  0  0  0  0  0
  -30.5585  -19.4497   18.7089 C   0  0  0  0  0  0  0  0  0  0  0  0
  -24.2518  -25.9251   25.4818 C   0  0  0  0  0  0  0  0  0  0  0  0
  -21.9657  -25.8601   26.5006 C   0  0  0  0  0  0  0  0  0  0  0  0
  -23.0636  -28.0528   26.0433 C   0  0  0  0  0  0  0  0  0  0  0  0
  -18.1610  -27.4788   21.2993 C   0  0  0  0  0  0  0  0  0  0  0  0
  -23.9944  -19.0331   19.2621 C   0  0  0  0  0  0  0  0  0  0  0  0
  -23.3154  -19.3371   17.9249 C   0  0  0  0  0  0  0  0  0  0  0  0
  -23.2902  -20.8226   17.5844 C   0  0  0  0  0  0  0  0  0  1  0  0
  -22.1967  -26.6736   24.1099 C   0  0  1  0  0  0  0  0  0  0  0  0
  -18.5433  -27.6235   23.7634 C   0  0  2  0  0  0  0  0  0  0  0  0
  -29.6068  -20.4548   19.4181 C   0  0  0  0  0  0  0  0  0  0  0  0
  -22.8741  -26.6167   25.5082 C   0  0  0  0  0  0  0  0  0  0  0  0
  -28.4764  -15.3994   20.9979 N   0  0  0  0  0  0  0  0  0  0  0  0
  -29.7967  -15.5928   20.8387 N   0  0  0  0  0  0  0  0  0  0  0  0
  -23.4297  -26.6304   21.9647 N   0  0  0  0  0  0  0  0  0  0  0  0
  -30.0288  -19.3376   21.5818 N   0  0  0  0  0  0  0  0  0  0  0  0
  -31.7740  -14.5618   20.0399 N   0  0  0  0  0  0  0  0  0  0  0  0
  -28.5973  -11.4387   19.2975 N   0  0  0  0  0  0  0  0  0  0  0  0
  -26.8146  -27.1512   20.7126 N   0  0  0  0  0  0  0  0  0  0  0  0
  -20.9027  -27.3474   24.0998 N   0  0  0  0  0  0  0  0  0  0  0  0
  -17.5867  -27.3237   22.6606 N   0  3  0  0  0  0  0  0  0  0  0  0
  -30.8349  -11.9015   19.1030 O   0  0  0  0  0  0  0  0  0  0  0  0
  -25.8310  -25.8583   22.3810 O   0  0  0  0  0  0  0  0  0  0  0  0
  -23.3615  -28.5614   23.2696 O   0  0  0  0  0  0  0  0  0  0  0  0
  -30.6129  -21.5629   21.2544 O   0  0  0  0  0  0  0  0  0  0  0  0
  -19.6894  -25.5553   23.2669 O   0  0  0  0  0  0  0  0  0  0  0  0
  -23.1749  -11.9093   20.4852 O   0  0  0  0  0  0  0  0  0  0  0  0
  -22.5918  -21.5174   18.6168 O   0  0  0  0  0  0  0  0  0  1  0  0
  -22.6748   -6.6776   22.1534 F   0  0  0  0  0  0  0  0  0  0  0  0
  -21.5817  -11.2564   22.6482 F   0  0  0  0  0  0  0  0  0  0  0  0
  -27.6483  -22.3447   20.8657 Cl  0  0  0  0  0  0  0  0  0  0  0  0
  1  2  1  0  0  0  0
  1  5  2  0  0  0  0
  2  6  2  0  0  0  0
  3  8  2  0  0  0  0
  3 17  1  0  0  0  0
  4  9  1  0  0  0  0
  4 17  2  0  0  0  0
  5 19  1  0  0  0  0
  6 21  1  0  0  0  0
  7 10  2  0  0  0  0
  7 20  1  0  0  0  0
  8 26  1  0  0  0  0
  9 26  2  0  0  0  0
 10 27  1  0  0  0  0
 11 12  2  0  0  0  0
 11 28  1  0  0  0  0
 12 29  1  0  0  0  0
 13 22  1  0  0  0  0
 13 27  2  0  0  0  0
 14 23  1  0  0  0  0
 14 24  2  0  0  0  0
 15 25  1  0  0  0  0
 15 31  2  0  0  0  0
 16 29  2  0  0  0  0
 16 30  1  0  0  0  0
 17 32  1  0  0  0  0
 18 32  1  0  0  0  0
 18 33  2  0  0  0  0
 18 34  1  0  0  0  0
 19 21  2  0  0  0  0
 19 39  1  0  0  0  0
 20 22  2  0  0  0  0
 20 40  1  0  0  0  0
 21 48  1  0  0  0  0
 22 41  1  0  0  0  0
 23 25  2  0  0  0  0
 23 51  1  0  0  0  0
 24 31  1  0  0  0  0
 24 64  1  0  0  0  0
 25 59  1  0  0  0  0
 26 80  1  0  0  0  0
 27 81  1  0  0  0  0
 28 30  2  0  0  0  0
 28 80  1  0  0  0  0
 29 82  1  0  0  0  0
 30 83  1  0  0  0  0
 31 84  1  0  0  0  0
 32 66  2  0  0  0  0
 33 67  1  0  0  0  0
 33 70  1  0  0  0  0
 34 71  1  0  0  0  0
 34 75  2  0  0  0  0
 35 49  1  0  0  0  0
 35 72  1  0  0  0  0
 35 76  2  0  0  0  0
 36 62  1  0  0  0  0
 36 68  1  0  0  0  0
 36 77  2  0  0  0  0
 37 64  1  0  0  0  0
 37 69  1  0  0  0  0
 37 78  2  0  0  0  0
 38 63  1  0  0  0  0
 38 73  1  0  0  0  0
 38 79  2  0  0  0  0
 39 42  1  0  0  0  0
 40 49  1  0  0  0  0
 41 68  1  0  0  0  0
 42 44  1  0  0  0  0
 43 45  1  0  0  0  0
 43 46  1  0  0  0  0
 44 48  1  0  0  0  0
 45 50  1  0  0  0  0
 46 69  1  0  0  0  0
 47 50  1  0  0  0  0
 47 69  1  0  0  0  0
 48 72  1  0  0  0  0
 49 68  1  0  0  0  0
 50 67  1  0  0  0  0
 52 63  1  0  0  0  0
 53 64  1  0  0  0  0
 54 64  1  0  0  0  0
 55 65  1  0  0  0  0
 56 65  1  0  0  0  0
 57 65  1  0  0  0  0
 58 74  1  0  0  0  0
 59 60  1  0  0  0  0
 60 61  1  0  0  0  0
 61 81  1  0  0  0  0
 62 65  1  0  0  0  0
 62 73  1  0  0  0  0
 63 74  1  0  0  0  0
 66 67  1  0  0  0  0
M  CHG  1  74   1
M  ISO  4  37 100  61 101  64 100  81 101
M  END
> <Batch ID>
0017

> <Smiles>
CNC(C)C(=O)NC(C(=O)N1Cc2cc([101O:1][101CH2:1]CCc3cc(Cl)c([100C:0](C)(C)[100C:0](=O)N4CCCC(n5nc(-c6ccc(Oc7ccc(F)cc7F)cc6)c(C(N)=O)c5N)C4)cc3C)ccc2CC1C(=O)NC1CCCc2ccccc21)C(C)(C)C

> <Shape>
0.264

> <Color>
0.070

> <Negative vol penalty>
0.000

$$$$

  -OEChem-04052316013D

 82 90  0     1  0  0  0  0  0999 V2000
  -17.2216  -25.6521   23.5399 C   0  0  0  0  0  0  0  0  0  0  0  0
  -18.3215  -25.5539   22.6938 C   0  0  0  0  0  0  0  0  0  0  0  0
  -26.4880  -11.0946   21.1211 C   0  0  0  0  0  0  0  0  0  0  0  0
  -25.5029  -12.6633   19.5700 C   0  0  0  0  0  0  0  0  0  0  0  0
  -16.7957  -26.9028   23.9853 C   0  0  0  0  0  0  0  0  0  0  0  0
  -18.9956  -26.7064   22.2917 C   0  0  0  0  0  0  0  0  0  0  0  0
  -24.0278  -26.2079   22.5618 C   0  0  0  0  0  0  0  0  0  0  0  0
  -25.2188  -10.6096   21.4367 C   0  0  0  0  0  0  0  0  0  0  0  0
  -24.2337  -12.1783   19.8856 C   0  0  0  0  0  0  0  0  0  0  0  0
  -24.6527  -25.4946   21.5398 C   0  0  0  0  0  0  0  0  0  0  0  0
  -22.3217   -9.5070   19.0925 C   0  0  0  0  0  0  0  0  0  0  0  0
  -21.4441   -9.2576   18.0374 C   0  0  0  0  0  0  0  0  0  0  0  0
  -25.2857  -27.5703   20.4862 C   0  0  0  0  0  0  0  0  0  0  0  0
  -29.6327  -21.1305   20.5452 C   0  0  0  0  0  0  0  0  0  0  0  0
  -19.8840  -10.8567   18.9571 C   0  0  0  0  0  0  0  0  0  0  0  0
  -26.6300  -12.1215   20.1878 C   0  0  0  0  0  0  0  0  0  0  0  0
  -28.8002  -12.1605   18.8475 C   0  0  0  0  0  0  0  0  0  0  0  0
  -17.4708  -28.0705   23.5963 C   0  0  0  0  0  0  0  0  0  0  0  0
  -24.0177  -27.6101   22.5479 C   0  0  0  0  0  0  0  0  0  0  0  0
  -18.5775  -27.9740   22.7313 C   0  0  0  0  0  0  0  0  0  0  0  0
  -24.6621  -28.2991   21.5105 C   0  0  0  0  0  0  0  0  0  0  0  0
  -29.0671  -22.3770   20.2768 C   0  0  0  0  0  0  0  0  0  0  0  0
  -27.9124  -21.4427   18.3713 C   0  0  0  0  0  0  0  0  0  0  0  0
  -28.2070  -22.5331   19.1899 C   0  0  0  0  0  0  0  0  0  0  0  0
  -28.4781  -20.1963   18.6397 C   0  0  0  0  0  0  0  0  0  0  0  0
  -29.3382  -20.0402   19.7266 C   0  0  0  0  0  0  0  0  0  0  0  0
  -24.0917  -11.1514   20.8189 C   0  0  0  0  0  0  0  0  0  0  0  0
  -25.2793  -26.1758   20.5003 C   0  0  0  0  0  0  0  0  0  0  0  0
  -21.9804  -10.4312   20.0800 C   0  0  0  0  0  0  0  0  0  0  0  0
  -20.2253   -9.9325   17.9697 C   0  0  0  0  0  0  0  0  0  0  0  0
  -20.7616  -11.1060   20.0123 C   0  0  0  0  0  0  0  0  0  0  0  0
  -27.9408  -12.6234   19.8618 C   0  0  0  0  0  0  0  0  0  0  0  0
  -29.9124  -12.9600   18.9485 C   0  0  0  0  0  0  0  0  0  0  0  0
  -28.6102  -11.1024   17.8988 C   0  0  0  0  0  0  0  0  0  0  0  0
  -21.7526  -29.8357   22.4060 C   0  0  0  0  0  0  0  0  0  0  0  0
  -24.2513  -31.8533   22.8624 C   0  0  0  0  0  0  0  0  0  0  0  0
  -27.6067  -32.4161   22.5959 C   0  0  0  0  0  0  0  0  0  0  0  0
  -30.7943  -18.4785   21.0635 C   0  0  0  0  0  0  0  0  0  0  0  0
  -16.9446  -29.4037   24.0655 C   0  0  0  0  0  0  0  0  0  0  0  0
  -23.3623  -28.3650   23.6717 C   0  0  0  0  0  0  0  0  0  0  0  0
  -24.6971  -29.8040   21.4599 C   0  0  0  0  0  0  0  0  0  0  0  0
  -17.9417  -30.5467   23.8938 C   0  0  0  0  0  0  0  0  0  0  0  0
  -32.4211  -15.5001   22.1405 C   0  0  0  0  0  0  0  0  0  0  0  0
  -18.5702  -30.5027   22.5046 C   0  0  0  0  0  0  0  0  0  0  0  0
  -31.5383  -14.3822   21.5809 C   0  0  0  0  0  0  0  0  0  0  0  0
  -31.5939  -16.6986   22.6022 C   0  0  0  0  0  0  0  0  0  0  0  0
  -29.7798  -16.1151   21.0409 C   0  0  0  0  0  0  0  0  0  0  0  0
  -19.3499  -29.1993   22.2929 C   0  0  1  0  0  0  0  0  0  0  0  0
  -22.9692  -29.7878   23.2865 C   0  0  1  0  0  0  0  0  0  0  0  0
  -30.5727  -14.9128   20.5031 C   0  0  2  0  0  0  0  0  0  0  0  0
  -29.4017  -23.5293   21.1666 C   0  0  0  0  0  0  0  0  0  0  0  0
  -26.9897  -21.6110   17.2053 C   0  0  0  0  0  0  0  0  0  0  0  0
  -28.1618  -19.0281   17.7587 C   0  0  0  0  0  0  0  0  0  0  0  0
  -29.3488  -34.1731   23.0147 C   0  0  0  0  0  0  0  0  0  0  0  0
  -23.3306  -33.3563   20.3718 C   0  0  0  0  0  0  0  0  0  0  0  0
  -25.5747  -34.4639   20.2957 C   0  0  0  0  0  0  0  0  0  0  0  0
  -24.0758  -34.8201   22.2577 C   0  0  0  0  0  0  0  0  0  0  0  0
  -29.0464  -30.6939   24.5247 C   0  0  0  0  0  0  0  0  0  0  0  0
  -27.5977  -23.8836   18.9017 C   0  0  0  0  0  0  0  0  0  0  0  0
  -26.4369  -24.2074   19.8360 C   0  0  0  0  0  0  0  0  0  1  0  0
  -25.2151  -32.5830   21.9582 C   0  0  1  0  0  0  0  0  0  0  0  0
  -28.6172  -32.9681   23.5852 C   0  0  2  0  0  0  0  0  0  0  0  0
  -24.5469  -33.7775   21.2205 C   0  0  0  0  0  0  0  0  0  0  0  0
  -28.4623  -13.6382   20.5562 N   0  0  0  0  0  0  0  0  0  0  0  0
  -29.6614  -13.8195   19.9773 N   0  0  0  0  0  0  0  0  0  0  0  0
  -24.0368  -30.4971   22.5784 N   0  0  0  0  0  0  0  0  0  0  0  0
  -30.7060  -17.1492   21.5282 N   0  0  0  0  0  0  0  0  0  0  0  0
  -31.0708  -13.0046   18.2568 N   0  0  0  0  0  0  0  0  0  0  0  0
  -27.4088  -10.3814   17.9338 N   0  0  0  0  0  0  0  0  0  0  0  0
  -29.9232  -18.7829   20.0180 N   0  0  0  0  0  0  0  0  0  0  0  0
  -20.6288  -29.2601   22.9675 N   0  0  0  0  0  0  0  0  0  0  0  0
  -26.3532  -32.9563   22.7911 N   0  0  0  0  0  0  0  0  0  0  0  0
  -29.6254  -31.9266   23.9312 N   0  3  0  0  0  0  0  0  0  0  0  0
  -29.4867  -10.7943   17.0560 O   0  0  0  0  0  0  0  0  0  0  0  0
  -21.8275  -30.3575   21.2998 O   0  0  0  0  0  0  0  0  0  0  0  0
  -23.7141  -32.4623   23.7909 O   0  0  0  0  0  0  0  0  0  0  0  0
  -27.9008  -31.5912   21.7336 O   0  0  0  0  0  0  0  0  0  0  0  0
  -31.6036  -19.2796   21.5384 O   0  0  0  0  0  0  0  0  0  0  0  0
  -22.8531  -10.6782   21.1264 O   0  0  0  0  0  0  0  0  0  0  0  0
  -25.8894  -25.4820   19.5012 O   0  0  0  0  0  0  0  0  0  1  0  0
  -19.3833   -9.6940   16.9556 F   0  0  0  0  0  0  0  0  0  0  0  0
  -20.4287  -11.9959   20.9574 F   0  0  0  0  0  0  0  0  0  0  0  0
  1  2  1  0  0  0  0
  1  5  2  0  0  0  0
  2  6  2  0  0  0  0
  3  8  2  0  0  0  0
  3 16  1  0  0  0  0
  4  9  1  0  0  0  0
  4 16  2  0  0  0  0
  5 18  1  0  0  0  0
  6 20  1  0  0  0  0
  7 10  2  0  0  0  0
  7 19  1  0  0  0  0
  8 27  1  0  0  0  0
  9 27  2  0  0  0  0
 10 28  1  0  0  0  0
 11 12  2  0  0  0  0
 11 29  1  0  0  0  0
 12 30  1  0  0  0  0
 13 21  1  0  0  0  0
 13 28  2  0  0  0  0
 14 22  2  0  0  0  0
 14 26  1  0  0  0  0
 15 30  2  0  0  0  0
 15 31  1  0  0  0  0
 16 32  1  0  0  0  0
 17 32  1  0  0  0  0
 17 33  2  0  0  0  0
 17 34  1  0  0  0  0
 18 20  2  0  0  0  0
 18 39  1  0  0  0  0
 19 21  2  0  0  0  0
 19 40  1  0  0  0  0
 20 48  1  0  0  0  0
 21 41  1  0  0  0  0
 22 24  1  0  0  0  0
 22 51  1  0  0  0  0
 23 24  2  0  0  0  0
 23 25  1  0  0  0  0
 23 52  1  0  0  0  0
 24 59  1  0  0  0  0
 25 26  2  0  0  0  0
 25 53  1  0  0  0  0
 26 70  1  0  0  0  0
 27 79  1  0  0  0  0
 28 80  1  0  0  0  0
 29 31  2  0  0  0  0
 29 79  1  0  0  0  0
 30 81  1  0  0  0  0
 31 82  1  0  0  0  0
 32 64  2  0  0  0  0
 33 65  1  0  0  0  0
 33 68  1  0  0  0  0
 34 69  1  0  0  0  0
 34 74  2  0  0  0  0
 35 49  1  0  0  0  0
 35 71  1  0  0  0  0
 35 75  2  0  0  0  0
 36 61  1  0  0  0  0
 36 66  1  0  0  0  0
 36 76  2  0  0  0  0
 37 62  1  0  0  0  0
 37 72  1  0  0  0  0
 37 77  2  0  0  0  0
 38 67  1  0  0  0  0
 38 70  1  0  0  0  0
 38 78  2  0  0  0  0
 39 42  1  0  0  0  0
 40 49  1  0  0  0  0
 41 66  1  0  0  0  0
 42 44  1  0  0  0  0
 43 45  1  0  0  0  0
 43 46  1  0  0  0  0
 44 48  1  0  0  0  0
 45 50  1  0  0  0  0
 46 67  1  0  0  0  0
 47 50  1  0  0  0  0
 47 67  1  0  0  0  0
 48 71  1  0  0  0  0
 49 66  1  0  0  0  0
 50 65  1  0  0  0  0
 54 62  1  0  0  0  0
 55 63  1  0  0  0  0
 56 63  1  0  0  0  0
 57 63  1  0  0  0  0
 58 73  1  0  0  0  0
 59 60  1  0  0  0  0
 60 80  1  0  0  0  0
 61 63  1  0  0  0  0
 61 72  1  0  0  0  0
 62 73  1  0  0  0  0
 64 65  1  0  0  0  0
M  CHG  1  73   1
M  ISO  4  38 100  60 101  70 100  80 101
M  END
> <Batch ID>
0017

> <Smiles>
CNC(C)C(=O)NC(C(=O)N1Cc2cc([101O:1][101CH2:1]Cc3c(C)cc([100NH:0][100C:0](=O)N4CCCC(n5nc(-c6ccc(Oc7ccc(F)cc7F)cc6)c(C(N)=O)c5N)C4)c(C)c3C)ccc2CC1C(=O)NC1CCCc2ccccc21)C(C)(C)C

> <Shape>
0.312

> <Color>
0.068

> <Negative vol penalty>
0.000

$$$$

  -OEChem-04052316013D

 85 93  0     1  0  0  0  0  0999 V2000
  -34.1832  -32.8625   22.9935 C   0  0  0  0  0  0  0  0  0  0  0  0
  -33.6915  -31.5821   23.2264 C   0  0  0  0  0  0  0  0  0  0  0  0
  -23.0753   -9.8687   19.9380 C   0  0  0  0  0  0  0  0  0  0  0  0
  -23.8377   -9.8698   22.2305 C   0  0  0  0  0  0  0  0  0  0  0  0
  -33.3095  -33.8899   22.6401 C   0  0  0  0  0  0  0  0  0  0  0  0
  -32.3255  -31.3287   23.1071 C   0  0  0  0  0  0  0  0  0  0  0  0
  -31.3570  -27.0558   20.5675 C   0  0  0  0  0  0  0  0  0  0  0  0
  -22.3322   -8.7146   20.1856 C   0  0  0  0  0  0  0  0  0  0  0  0
  -23.0945   -8.7157   22.4782 C   0  0  0  0  0  0  0  0  0  0  0  0
  -31.5120  -25.8551   21.2589 C   0  0  0  0  0  0  0  0  0  0  0  0
  -19.8672   -7.9151   23.0820 C   0  0  0  0  0  0  0  0  0  0  0  0
  -19.1116   -7.8717   24.2536 C   0  0  0  0  0  0  0  0  0  0  0  0
  -29.1269  -25.7534   21.6050 C   0  0  0  0  0  0  0  0  0  0  0  0
  -31.4452  -19.1425   21.4704 C   0  0  0  0  0  0  0  0  0  0  0  0
  -20.3545   -5.9327   24.9835 C   0  0  0  0  0  0  0  0  0  0  0  0
  -23.8282  -10.4463   20.9604 C   0  0  0  0  0  0  0  0  0  0  0  0
  -24.1689  -12.9719   20.8469 C   0  0  0  0  0  0  0  0  0  0  0  0
  -31.9333  -33.6468   22.5069 C   0  0  0  0  0  0  0  0  0  0  0  0
  -30.0847  -27.6209   20.3988 C   0  0  0  0  0  0  0  0  0  0  0  0
  -31.4324  -32.3541   22.7529 C   0  0  0  0  0  0  0  0  0  0  0  0
  -28.9581  -26.9600   20.9089 C   0  0  0  0  0  0  0  0  0  0  0  0
  -31.5718  -19.3827   22.8385 C   0  0  0  0  0  0  0  0  0  0  0  0
  -30.9514  -17.9182   21.0199 C   0  0  0  0  0  0  0  0  0  0  0  0
  -31.2046  -18.3986   23.7563 C   0  0  0  0  0  0  0  0  0  0  0  0
  -30.7108  -17.1742   23.3059 C   0  0  0  0  0  0  0  0  0  0  0  0
  -30.5842  -16.9340   21.9377 C   0  0  0  0  0  0  0  0  0  0  0  0
  -22.3417   -8.1381   21.4557 C   0  0  0  0  0  0  0  0  0  0  0  0
  -30.3972  -25.2052   21.7803 C   0  0  0  0  0  0  0  0  0  0  0  0
  -20.8665   -6.9672   22.8611 C   0  0  0  0  0  0  0  0  0  0  0  0
  -19.3552   -6.8805   25.2044 C   0  0  0  0  0  0  0  0  0  0  0  0
  -21.1101   -5.9761   23.8118 C   0  0  0  0  0  0  0  0  0  0  0  0
  -24.5965  -11.6381   20.7051 C   0  0  0  0  0  0  0  0  0  0  0  0
  -25.2604  -13.7227   20.4844 C   0  0  0  0  0  0  0  0  0  0  0  0
  -22.8987  -13.4861   21.2685 C   0  0  0  0  0  0  0  0  0  0  0  0
  -28.7004  -30.3383   21.2948 C   0  0  0  0  0  0  0  0  0  0  0  0
  -26.2623  -29.2495   19.4530 C   0  0  0  0  0  0  0  0  0  0  0  0
  -24.6716  -26.5862   18.0307 C   0  0  0  0  0  0  0  0  0  0  0  0
  -30.7264  -14.7698   20.6561 C   0  0  0  0  0  0  0  0  0  0  0  0
  -31.0218  -34.7998   22.1690 C   0  0  0  0  0  0  0  0  0  0  0  0
  -29.9314  -28.9030   19.6274 C   0  0  0  0  0  0  0  0  0  0  0  0
  -27.5682  -27.5145   20.7374 C   0  0  0  0  0  0  0  0  0  0  0  0
  -29.6368  -34.3636   21.6979 C   0  0  0  0  0  0  0  0  0  0  0  0
  -29.6104  -12.3620   18.2825 C   0  0  0  0  0  0  0  0  0  0  0  0
  -29.0744  -33.2859   22.6194 C   0  0  0  0  0  0  0  0  0  0  0  0
  -28.1713  -12.0688   18.7128 C   0  0  0  0  0  0  0  0  0  0  0  0
  -30.5267  -12.5879   19.4838 C   0  0  0  0  0  0  0  0  0  0  0  0
  -28.6209  -13.3079   20.8691 C   0  0  0  0  0  0  0  0  0  0  0  0
  -29.9603  -32.0342   22.6093 C   0  0  1  0  0  0  0  0  0  0  0  0
  -28.6438  -29.6503   19.9602 C   0  0  1  0  0  0  0  0  0  0  0  0
  -27.6469  -13.1375   19.6918 C   0  0  2  0  0  0  0  0  0  0  0  0
  -30.8263  -17.6913   19.5480 C   0  0  0  0  0  0  0  0  0  0  0  0
  -31.3417  -18.6594   25.2230 C   0  0  0  0  0  0  0  0  0  0  0  0
  -30.3183  -16.1213   24.2950 C   0  0  0  0  0  0  0  0  0  0  0  0
  -22.6842  -26.0064   16.6124 C   0  0  0  0  0  0  0  0  0  0  0  0
  -30.5510  -23.4586   25.3415 C   0  0  0  0  0  0  0  0  0  0  0  0
  -24.4305  -29.6512   21.8599 C   0  0  0  0  0  0  0  0  0  0  0  0
  -22.7343  -28.2026   20.7228 C   0  0  0  0  0  0  0  0  0  0  0  0
  -23.4445  -30.3499   19.6705 C   0  0  0  0  0  0  0  0  0  0  0  0
  -26.3793  -25.4481   15.8982 C   0  0  0  0  0  0  0  0  0  0  0  0
  -32.1041  -20.7085   23.2964 C   0  0  0  0  0  0  0  0  0  0  0  0
  -31.7710  -23.8417   23.1621 C   0  0  0  0  0  0  0  0  0  1  0  0
  -25.0432  -28.3915   19.6911 C   0  0  1  0  0  0  0  0  0  0  0  0
  -24.1652  -26.3519   16.6189 C   0  0  2  0  0  0  0  0  0  0  0  0
  -31.5619  -22.9079   24.3489 C   0  0  2  0  0  0  0  0  0  0  0  0
  -23.9394  -29.1391   20.4912 C   0  0  0  0  0  0  0  0  0  0  0  0
  -25.8610  -11.5439   20.2852 N   0  0  0  0  0  0  0  0  0  0  0  0
  -26.2373  -12.8279   20.1599 N   0  0  0  0  0  0  0  0  0  0  0  0
  -27.4709  -28.7739   19.9811 N   0  0  0  0  0  0  0  0  0  0  0  0
  -29.9683  -13.6162   20.3646 N   0  0  0  0  0  0  0  0  0  0  0  0
  -25.4703  -15.0545   20.4148 N   0  0  0  0  0  0  0  0  0  0  0  0
  -21.8875  -12.5756   21.6044 N   0  0  0  0  0  0  0  0  0  0  0  0
  -30.0796  -15.6924   21.4777 N   0  0  0  0  0  0  0  0  0  0  0  0
  -29.7251  -31.2582   21.4105 N   0  0  0  0  0  0  0  0  0  0  0  0
  -24.6141  -27.9190   18.3793 N   0  0  0  0  0  0  0  0  0  0  0  0
  -24.9119  -25.2315   15.9800 N   0  3  0  0  0  0  0  0  0  0  0  0
  -31.0501  -21.6026   23.8397 N   0  3  0  0  0  0  0  0  0  0  0  0
  -22.6621  -14.7164   21.3295 O   0  0  0  0  0  0  0  0  0  0  0  0
  -27.8746  -30.0567   22.1553 O   0  0  0  0  0  0  0  0  0  0  0  0
  -26.1477  -30.2994   18.8156 O   0  0  0  0  0  0  0  0  0  0  0  0
  -25.0742  -25.6772   18.7533 O   0  0  0  0  0  0  0  0  0  0  0  0
  -31.8550  -14.9402   20.1877 O   0  0  0  0  0  0  0  0  0  0  0  0
  -21.6164   -7.0121   21.6978 O   0  0  0  0  0  0  0  0  0  0  0  0
  -30.5458  -24.0334   22.4561 O   0  0  0  0  0  0  0  0  0  1  0  0
  -18.6305   -6.8399   26.3301 F   0  0  0  0  0  0  0  0  0  0  0  0
  -22.0696   -5.0635   23.6057 F   0  0  0  0  0  0  0  0  0  0  0  0
  1  2  1  0  0  0  0
  1  5  2  0  0  0  0
  2  6  2  0  0  0  0
  3  8  2  0  0  0  0
  3 16  1  0  0  0  0
  4  9  1  0  0  0  0
  4 16  2  0  0  0  0
  5 18  1  0  0  0  0
  6 20  1  0  0  0  0
  7 10  2  0  0  0  0
  7 19  1  0  0  0  0
  8 27  1  0  0  0  0
  9 27  2  0  0  0  0
 10 28  1  0  0  0  0
 11 12  2  0  0  0  0
 11 29  1  0  0  0  0
 12 30  1  0  0  0  0
 13 21  1  0  0  0  0
 13 28  2  0  0  0  0
 14 22  1  0  0  0  0
 14 23  2  0  0  0  0
 15 30  2  0  0  0  0
 15 31  1  0  0  0  0
 16 32  1  0  0  0  0
 17 32  1  0  0  0  0
 17 33  2  0  0  0  0
 17 34  1  0  0  0  0
 18 20  2  0  0  0  0
 18 39  1  0  0  0  0
 19 21  2  0  0  0  0
 19 40  1  0  0  0  0
 20 48  1  0  0  0  0
 21 41  1  0  0  0  0
 22 24  2  0  0  0  0
 22 60  1  0  0  0  0
 23 26  1  0  0  0  0
 23 51  1  0  0  0  0
 24 25  1  0  0  0  0
 24 52  1  0  0  0  0
 25 26  2  0  0  0  0
 25 53  1  0  0  0  0
 26 72  1  0  0  0  0
 27 82  1  0  0  0  0
 28 83  1  0  0  0  0
 29 31  2  0  0  0  0
 29 82  1  0  0  0  0
 30 84  1  0  0  0  0
 31 85  1  0  0  0  0
 32 66  2  0  0  0  0
 33 67  1  0  0  0  0
 33 70  1  0  0  0  0
 34 71  1  0  0  0  0
 34 77  2  0  0  0  0
 35 49  1  0  0  0  0
 35 73  1  0  0  0  0
 35 78  2  0  0  0  0
 36 62  1  0  0  0  0
 36 68  1  0  0  0  0
 36 79  2  0  0  0  0
 37 63  1  0  0  0  0
 37 74  1  0  0  0  0
 37 80  2  0  0  0  0
 38 69  1  0  0  0  0
 38 72  1  0  0  0  0
 38 81  2  0  0  0  0
 39 42  1  0  0  0  0
 40 49  1  0  0  0  0
 41 68  1  0  0  0  0
 42 44  1  0  0  0  0
 43 45  1  0  0  0  0
 43 46  1  0  0  0  0
 44 48  1  0  0  0  0
 45 50  1  0  0  0  0
 46 69  1  0  0  0  0
 47 50  1  0  0  0  0
 47 69  1  0  0  0  0
 48 73  1  0  0  0  0
 49 68  1  0  0  0  0
 50 67  1  0  0  0  0
 54 63  1  0  0  0  0
 55 64  1  0  0  0  0
 56 65  1  0  0  0  0
 57 65  1  0  0  0  0
 58 65  1  0  0  0  0
 59 75  1  0  0  0  0
 60 76  1  0  0  0  0
 61 64  1  0  0  0  0
 61 83  1  0  0  0  0
 62 65  1  0  0  0  0
 62 74  1  0  0  0  0
 63 75  1  0  0  0  0
 64 76  1  0  0  0  0
 66 67  1  0  0  0  0
M  CHG  2  75   1  76   1
M  ISO  4  38 100  61 101  72 100  83 101
M  END
> <Batch ID>
0017

> <Smiles>
CNC(C)C(=O)NC(C(=O)N1Cc2cc([101O:1][101CH2:1]C(C)NCc3cc(C)c([100NH:0][100C:0](=O)N4CCCC(n5nc(-c6ccc(Oc7ccc(F)cc7F)cc6)c(C(N)=O)c5N)C4)c(C)c3C)ccc2CC1C(=O)NC1CCCc2ccccc21)C(C)(C)C

> <Shape>
0.276

> <Color>
0.192

> <Negative vol penalty>
0.000

$$$$

  -OEChem-04052316013D

 84 92  0     1  0  0  0  0  0999 V2000
  -20.0187  -34.1402   20.2020 C   0  0  0  0  0  0  0  0  0  0  0  0
  -21.2209  -33.5184   19.8804 C   0  0  0  0  0  0  0  0  0  0  0  0
  -24.5176  -13.6088   21.2041 C   0  0  0  0  0  0  0  0  0  0  0  0
  -26.4933  -13.3700   19.8342 C   0  0  0  0  0  0  0  0  0  0  0  0
  -19.3677  -33.8226   21.3933 C   0  0  0  0  0  0  0  0  0  0  0  0
  -21.7734  -32.5793   20.7506 C   0  0  0  0  0  0  0  0  0  0  0  0
  -24.9434  -27.5658   19.2268 C   0  0  0  0  0  0  0  0  0  0  0  0
  -24.0740  -12.3553   20.7829 C   0  0  0  0  0  0  0  0  0  0  0  0
  -26.0498  -12.1164   19.4131 C   0  0  0  0  0  0  0  0  0  0  0  0
  -26.3111  -27.3011   19.1735 C   0  0  0  0  0  0  0  0  0  0  0  0
  -24.7239   -9.1144   21.4951 C   0  0  0  0  0  0  0  0  0  0  0  0
  -24.2245   -8.2442   22.4641 C   0  0  0  0  0  0  0  0  0  0  0  0
  -26.2053  -26.3410   21.3840 C   0  0  0  0  0  0  0  0  0  0  0  0
  -22.0976   -8.1899   21.3192 C   0  0  0  0  0  0  0  0  0  0  0  0
  -32.3769  -23.9890   21.3190 C   0  0  0  0  0  0  0  0  0  0  0  0
  -25.7272  -14.1162   20.7297 C   0  0  0  0  0  0  0  0  0  0  0  0
  -26.9945  -15.6965   22.2804 C   0  0  0  0  0  0  0  0  0  0  0  0
  -19.9076  -32.8721   22.2740 C   0  0  0  0  0  0  0  0  0  0  0  0
  -24.1971  -27.2295   20.3654 C   0  0  0  0  0  0  0  0  0  0  0  0
  -21.1297  -32.2496   21.9555 C   0  0  0  0  0  0  0  0  0  0  0  0
  -24.8277  -26.6002   21.4482 C   0  0  0  0  0  0  0  0  0  0  0  0
  -31.4054  -21.7890   21.3017 C   0  0  0  0  0  0  0  0  0  0  0  0
  -24.8401  -11.6090   19.8874 C   0  0  0  0  0  0  0  0  0  0  0  0
  -26.9429  -26.6912   20.2533 C   0  0  0  0  0  0  0  0  0  0  0  0
  -23.9101   -9.5224   20.4381 C   0  0  0  0  0  0  0  0  0  0  0  0
  -22.9114   -7.7820   22.3762 C   0  0  0  0  0  0  0  0  0  0  0  0
  -22.5971   -9.0601   20.3502 C   0  0  0  0  0  0  0  0  0  0  0  0
  -32.4396  -22.6440   21.6658 C   0  0  0  0  0  0  0  0  0  0  0  0
  -26.1857  -15.4114   21.1639 C   0  0  0  0  0  0  0  0  0  0  0  0
  -31.2672  -24.4258   20.6136 C   0  0  0  0  0  0  0  0  0  0  0  0
  -30.3391  -22.3243   20.5972 C   0  0  0  0  0  0  0  0  0  0  0  0
  -27.1439  -17.0616   22.2564 C   0  0  0  0  0  0  0  0  0  0  0  0
  -27.5601  -14.8069   23.2521 C   0  0  0  0  0  0  0  0  0  0  0  0
  -22.5075  -28.8653   22.5039 C   0  0  0  0  0  0  0  0  0  0  0  0
  -21.7245  -25.9045   23.5730 C   0  0  0  0  0  0  0  0  0  0  0  0
  -22.5312  -22.5957   23.7907 C   0  0  0  0  0  0  0  0  0  0  0  0
  -28.1246  -21.8068   19.5134 C   0  0  0  0  0  0  0  0  0  0  0  0
  -19.1915  -32.5963   23.5724 C   0  0  0  0  0  0  0  0  0  0  0  0
  -22.7174  -27.4975   20.3965 C   0  0  0  0  0  0  0  0  0  0  0  0
  -24.0677  -26.2009   22.6856 C   0  0  0  0  0  0  0  0  0  0  0  0
  -19.6533  -31.3153   24.2625 C   0  0  0  0  0  0  0  0  0  0  0  0
  -24.7799  -20.5862   19.4976 C   0  0  0  0  0  0  0  0  0  0  0  0
  -21.1767  -31.2402   24.2846 C   0  0  0  0  0  0  0  0  0  0  0  0
  -24.9140  -19.1545   20.0216 C   0  0  0  0  0  0  0  0  0  0  0  0
  -25.9615  -20.9792   18.6128 C   0  0  0  0  0  0  0  0  0  0  0  0
  -27.4185  -19.3441   19.7409 C   0  0  0  0  0  0  0  0  0  0  0  0
  -21.7481  -31.2075   22.8619 C   0  0  1  0  0  0  0  0  0  0  0  0
  -22.1546  -27.5790   21.8121 C   0  0  1  0  0  0  0  0  0  0  0  0
  -26.2838  -18.9249   20.6899 C   0  0  2  0  0  0  0  0  0  0  0  0
  -31.4399  -20.3380   21.6579 C   0  0  0  0  0  0  0  0  0  0  0  0
  -22.2534  -20.1624   24.3377 C   0  0  0  0  0  0  0  0  0  0  0  0
  -22.6605  -26.7920   26.3382 C   0  0  0  0  0  0  0  0  0  0  0  0
  -22.7248  -24.3820   27.0133 C   0  0  0  0  0  0  0  0  0  0  0  0
  -20.5643  -25.4280   26.3343 C   0  0  0  0  0  0  0  0  0  0  0  0
  -31.2023  -26.8552   22.5856 C   0  0  0  0  0  0  0  0  0  0  0  0
  -30.5343  -28.2656   20.6433 C   0  0  0  0  0  0  0  0  0  0  0  0
  -21.2131  -22.0444   21.1989 C   0  0  0  0  0  0  0  0  0  0  0  0
  -31.1648  -25.8810   20.2202 C   0  0  0  0  0  0  0  0  0  0  0  0
  -28.9877  -26.4434   21.4421 C   0  0  0  0  0  0  0  0  0  1  0  0
  -22.3121  -24.9393   24.5740 C   0  0  1  0  0  0  0  0  0  0  0  0
  -21.7134  -21.3410   23.5428 C   0  0  2  0  0  0  0  0  0  0  0  0
  -22.0804  -25.3945   26.0426 C   0  0  0  0  0  0  0  0  0  0  0  0
  -30.4671  -26.8379   21.2314 C   0  0  0  0  0  0  0  0  0  0  0  0
  -25.8451  -16.5073   20.4807 N   0  0  0  0  0  0  0  0  0  0  0  0
  -30.2430  -23.6253   20.2424 N   0  0  0  0  0  0  0  0  0  0  0  0
  -26.4426  -17.4943   21.1697 N   0  0  0  0  0  0  0  0  0  0  0  0
  -22.6241  -26.4897   22.6706 N   0  0  0  0  0  0  0  0  0  0  0  0
  -27.2251  -20.7385   19.3130 N   0  0  0  0  0  0  0  0  0  0  0  0
  -27.8054  -17.9220   23.0592 N   0  0  0  0  0  0  0  0  0  0  0  0
  -27.3073  -13.4339   23.1282 N   0  0  0  0  0  0  0  0  0  0  0  0
  -29.2774  -21.4652   20.2199 N   0  0  0  0  0  0  0  0  0  0  0  0
  -21.6020  -29.8867   22.2888 N   0  0  0  0  0  0  0  0  0  0  0  0
  -21.7495  -23.6308   24.2582 N   0  0  0  0  0  0  0  0  0  0  0  0
  -21.7389  -20.9835   22.0963 N   0  3  0  0  0  0  0  0  0  0  0  0
  -28.2552  -15.2190   24.2116 O   0  0  0  0  0  0  0  0  0  0  0  0
  -23.5253  -28.9262   23.1837 O   0  0  0  0  0  0  0  0  0  0  0  0
  -20.5110  -26.1255   23.5863 O   0  0  0  0  0  0  0  0  0  0  0  0
  -23.7431  -22.6507   23.5932 O   0  0  0  0  0  0  0  0  0  0  0  0
  -27.8771  -22.9473   19.1133 O   0  0  0  0  0  0  0  0  0  0  0  0
  -24.4077  -10.3857   19.4764 O   0  0  0  0  0  0  0  0  0  0  0  0
  -28.2780  -26.4323   20.2042 O   0  0  0  0  0  0  0  0  0  1  0  0
  -22.4324   -6.9451   23.3059 F   0  0  0  0  0  0  0  0  0  0  0  0
  -21.8109   -9.4475   19.3364 F   0  0  0  0  0  0  0  0  0  0  0  0
  -33.8126  -22.0771   22.5440 Cl  0  0  0  0  0  0  0  0  0  0  0  0
  1  2  1  0  0  0  0
  1  5  2  0  0  0  0
  2  6  2  0  0  0  0
  3  8  2  0  0  0  0
  3 16  1  0  0  0  0
  4  9  1  0  0  0  0
  4 16  2  0  0  0  0
  5 18  1  0  0  0  0
  6 20  1  0  0  0  0
  7 10  2  0  0  0  0
  7 19  1  0  0  0  0
  8 23  1  0  0  0  0
  9 23  2  0  0  0  0
 10 24  1  0  0  0  0
 11 12  2  0  0  0  0
 11 25  1  0  0  0  0
 12 26  1  0  0  0  0
 13 21  1  0  0  0  0
 13 24  2  0  0  0  0
 14 26  2  0  0  0  0
 14 27  1  0  0  0  0
 15 28  2  0  0  0  0
 15 30  1  0  0  0  0
 16 29  1  0  0  0  0
 17 29  1  0  0  0  0
 17 32  2  0  0  0  0
 17 33  1  0  0  0  0
 18 20  2  0  0  0  0
 18 38  1  0  0  0  0
 19 21  2  0  0  0  0
 19 39  1  0  0  0  0
 20 47  1  0  0  0  0
 21 40  1  0  0  0  0
 22 28  1  0  0  0  0
 22 31  2  0  0  0  0
 22 50  1  0  0  0  0
 23 80  1  0  0  0  0
 24 81  1  0  0  0  0
 25 27  2  0  0  0  0
 25 80  1  0  0  0  0
 26 82  1  0  0  0  0
 27 83  1  0  0  0  0
 28 84  1  0  0  0  0
 29 64  2  0  0  0  0
 30 58  1  0  0  0  0
 30 65  2  0  0  0  0
 31 65  1  0  0  0  0
 31 71  1  0  0  0  0
 32 66  1  0  0  0  0
 32 69  1  0  0  0  0
 33 70  1  0  0  0  0
 33 75  2  0  0  0  0
 34 48  1  0  0  0  0
 34 72  1  0  0  0  0
 34 76  2  0  0  0  0
 35 60  1  0  0  0  0
 35 67  1  0  0  0  0
 35 77  2  0  0  0  0
 36 61  1  0  0  0  0
 36 73  1  0  0  0  0
 36 78  2  0  0  0  0
 37 68  1  0  0  0  0
 37 71  1  0  0  0  0
 37 79  2  0  0  0  0
 38 41  1  0  0  0  0
 39 48  1  0  0  0  0
 40 67  1  0  0  0  0
 41 43  1  0  0  0  0
 42 44  1  0  0  0  0
 42 45  1  0  0  0  0
 43 47  1  0  0  0  0
 44 49  1  0  0  0  0
 45 68  1  0  0  0  0
 46 49  1  0  0  0  0
 46 68  1  0  0  0  0
 47 72  1  0  0  0  0
 48 67  1  0  0  0  0
 49 66  1  0  0  0  0
 51 61  1  0  0  0  0
 52 62  1  0  0  0  0
 53 62  1  0  0  0  0
 54 62  1  0  0  0  0
 55 63  1  0  0  0  0
 56 63  1  0  0  0  0
 57 74  1  0  0  0  0
 58 63  1  0  0  0  0
 59 63  1  0  0  0  0
 59 81  1  0  0  0  0
 60 62  1  0  0  0  0
 60 73  1  0  0  0  0
 61 74  1  0  0  0  0
 64 66  1  0  0  0  0
M  CHG  1  74   1
M  ISO  4  37 100  59 101  71 100  81 101
M  END
> <Batch ID>
0017

> <Smiles>
CNC(C)C(=O)NC(C(=O)N1Cc2cc([101O:1][101CH2:1]C(C)(C)Cc3cc(Cl)c(C)c([100NH:0][100C:0](=O)N4CCCC(n5nc(-c6ccc(Oc7ccc(F)cc7F)cc6)c(C(N)=O)c5N)C4)n3)ccc2CC1C(=O)NC1CCCc2ccccc21)C(C)(C)C

> <Shape>
0.202

> <Color>
0.090

> <Negative vol penalty>
0.000

$$$$

  -OEChem-04052316013D

 81 89  0     1  0  0  0  0  0999 V2000
  -30.2998  -33.5913   25.2041 C   0  0  0  0  0  0  0  0  0  0  0  0
  -31.0266  -32.4468   24.8922 C   0  0  0  0  0  0  0  0  0  0  0  0
  -22.9790   -9.8665   19.9962 C   0  0  0  0  0  0  0  0  0  0  0  0
  -23.6975   -9.9456   22.3015 C   0  0  0  0  0  0  0  0  0  0  0  0
  -28.9086  -33.5339   25.2766 C   0  0  0  0  0  0  0  0  0  0  0  0
  -30.3627  -31.2440   24.6538 C   0  0  0  0  0  0  0  0  0  0  0  0
  -30.8596  -25.2773   20.7208 C   0  0  0  0  0  0  0  0  0  0  0  0
  -22.2096   -8.7369   20.2747 C   0  0  0  0  0  0  0  0  0  0  0  0
  -22.9280   -8.8160   22.5801 C   0  0  0  0  0  0  0  0  0  0  0  0
  -30.8457  -23.8903   20.8615 C   0  0  0  0  0  0  0  0  0  0  0  0
  -23.1675   -5.4709   22.1515 C   0  0  0  0  0  0  0  0  0  0  0  0
  -23.7509   -4.4623   22.9183 C   0  0  0  0  0  0  0  0  0  0  0  0
  -28.4348  -23.9283   20.9368 C   0  0  0  0  0  0  0  0  0  0  0  0
  -22.0226   -4.7298   24.5852 C   0  0  0  0  0  0  0  0  0  0  0  0
  -23.7230  -10.4709   21.0095 C   0  0  0  0  0  0  0  0  0  0  0  0
  -24.1135  -12.9833   20.8026 C   0  0  0  0  0  0  0  0  0  0  0  0
  -28.2267  -32.3320   25.0295 C   0  0  0  0  0  0  0  0  0  0  0  0
  -29.6597  -26.0025   20.6980 C   0  0  0  0  0  0  0  0  0  0  0  0
  -28.9612  -31.1702   24.7244 C   0  0  0  0  0  0  0  0  0  0  0  0
  -28.4362  -25.3242   20.7932 C   0  0  0  0  0  0  0  0  0  0  0  0
  -30.0715  -17.7976   22.5391 C   0  0  0  0  0  0  0  0  0  0  0  0
  -30.2694  -19.1724   22.4773 C   0  0  0  0  0  0  0  0  0  0  0  0
  -30.2578  -17.0221   21.4002 C   0  0  0  0  0  0  0  0  0  0  0  0
  -22.1841   -8.2117   21.5666 C   0  0  0  0  0  0  0  0  0  0  0  0
  -29.6333  -23.2158   20.9724 C   0  0  0  0  0  0  0  0  0  0  0  0
  -22.0116   -6.1090   22.6016 C   0  0  0  0  0  0  0  0  0  0  0  0
  -23.1785   -4.0917   24.1351 C   0  0  0  0  0  0  0  0  0  0  0  0
  -21.4392   -5.7384   23.8184 C   0  0  0  0  0  0  0  0  0  0  0  0
  -24.5185  -11.6374   20.7223 C   0  0  0  0  0  0  0  0  0  0  0  0
  -30.6502  -19.7189   21.2624 C   0  0  0  0  0  0  0  0  0  0  0  0
  -30.6390  -17.6648   20.2334 C   0  0  0  0  0  0  0  0  0  0  0  0
  -25.2257  -13.6991   20.4322 C   0  0  0  0  0  0  0  0  0  0  0  0
  -22.8455  -13.5369   21.1783 C   0  0  0  0  0  0  0  0  0  0  0  0
  -28.3688  -28.2614   22.5242 C   0  0  0  0  0  0  0  0  0  0  0  0
  -26.1031  -28.2969   20.2031 C   0  0  0  0  0  0  0  0  0  0  0  0
  -24.5161  -26.6380   17.6779 C   0  0  0  0  0  0  0  0  0  0  0  0
  -30.7063  -14.6531   20.6701 C   0  0  0  0  0  0  0  0  0  0  0  0
  -26.7249  -32.3081   25.1660 C   0  0  0  0  0  0  0  0  0  0  0  0
  -29.6909  -27.4956   20.5187 C   0  0  0  0  0  0  0  0  0  0  0  0
  -27.1195  -26.0543   20.7538 C   0  0  0  0  0  0  0  0  0  0  0  0
  -26.0751  -31.0811   24.5316 C   0  0  0  0  0  0  0  0  0  0  0  0
  -29.5902  -12.1727   18.3724 C   0  0  0  0  0  0  0  0  0  0  0  0
  -26.8249  -29.8138   24.9301 C   0  0  0  0  0  0  0  0  0  0  0  0
  -28.1379  -11.9231   18.7855 C   0  0  0  0  0  0  0  0  0  0  0  0
  -30.4876  -12.4299   19.5816 C   0  0  0  0  0  0  0  0  0  0  0  0
  -28.5699  -13.2393   20.8993 C   0  0  0  0  0  0  0  0  0  0  0  0
  -28.2757  -29.8525   24.4348 C   0  0  1  0  0  0  0  0  0  0  0  0
  -28.4273  -28.1847   21.0247 C   0  0  1  0  0  0  0  0  0  0  0  0
  -27.6153  -13.0395   19.7107 C   0  0  2  0  0  0  0  0  0  0  0  0
  -29.6597  -17.1601   23.8288 C   0  0  0  0  0  0  0  0  0  0  0  0
  -30.0777  -20.0321   23.6817 C   0  0  0  0  0  0  0  0  0  0  0  0
  -22.6806  -26.9124   15.9889 C   0  0  0  0  0  0  0  0  0  0  0  0
  -24.0246  -27.8933   22.4000 C   0  0  0  0  0  0  0  0  0  0  0  0
  -22.3828  -27.2327   20.6290 C   0  0  0  0  0  0  0  0  0  0  0  0
  -23.3631  -29.5266   20.6253 C   0  0  0  0  0  0  0  0  0  0  0  0
  -26.3874  -26.2763   15.4137 C   0  0  0  0  0  0  0  0  0  0  0  0
  -30.8787  -21.1963   21.1339 C   0  0  0  0  0  0  0  0  0  1  0  0
  -24.8076  -27.5603   19.9624 C   0  0  1  0  0  0  0  0  0  0  0  0
  -24.1702  -27.0552   16.2599 C   0  0  2  0  0  0  0  0  0  0  0  0
  -23.6692  -28.0394   20.9069 C   0  0  0  0  0  0  0  0  0  0  0  0
  -25.7887  -11.5035   20.3315 N   0  0  0  0  0  0  0  0  0  0  0  0
  -30.8408  -18.9979   20.1348 N   0  0  0  0  0  0  0  0  0  0  0  0
  -26.1915  -12.7745   20.1628 N   0  0  0  0  0  0  0  0  0  0  0  0
  -27.2026  -27.5143   20.5834 N   0  0  0  0  0  0  0  0  0  0  0  0
  -29.9321  -13.5026   20.4096 N   0  0  0  0  0  0  0  0  0  0  0  0
  -25.4620  -15.0230   20.3139 N   0  0  0  0  0  0  0  0  0  0  0  0
  -21.8110  -12.6591   21.5301 N   0  0  0  0  0  0  0  0  0  0  0  0
  -30.0615  -15.6194   21.4415 N   0  0  0  0  0  0  0  0  0  0  0  0
  -28.3352  -29.5505   23.0207 N   0  0  0  0  0  0  0  0  0  0  0  0
  -24.5094  -27.7122   18.5424 N   0  0  0  0  0  0  0  0  0  0  0  0
  -24.9095  -26.2132   15.2773 N   0  3  0  0  0  0  0  0  0  0  0  0
  -22.6310  -14.7728   21.1857 O   0  0  0  0  0  0  0  0  0  0  0  0
  -28.3538  -27.2275   23.1819 O   0  0  0  0  0  0  0  0  0  0  0  0
  -26.1402  -29.5206   20.0520 O   0  0  0  0  0  0  0  0  0  0  0  0
  -24.7637  -25.4749   17.9884 O   0  0  0  0  0  0  0  0  0  0  0  0
  -31.8465  -14.7841   20.2177 O   0  0  0  0  0  0  0  0  0  0  0  0
  -21.4332   -7.1096   21.8388 O   0  0  0  0  0  0  0  0  0  0  0  0
  -29.6168  -21.8621   21.1105 O   0  0  0  0  0  0  0  0  0  1  0  0
  -23.7380   -3.1221   24.8706 F   0  0  0  0  0  0  0  0  0  0  0  0
  -20.3281   -6.3470   24.2554 F   0  0  0  0  0  0  0  0  0  0  0  0
  -30.9026  -16.8230   18.7546 Cl  0  0  0  0  0  0  0  0  0  0  0  0
  1  2  1  0  0  0  0
  1  5  2  0  0  0  0
  2  6  2  0  0  0  0
  3  8  2  0  0  0  0
  3 15  1  0  0  0  0
  4  9  1  0  0  0  0
  4 15  2  0  0  0  0
  5 17  1  0  0  0  0
  6 19  1  0  0  0  0
  7 10  2  0  0  0  0
  7 18  1  0  0  0  0
  8 24  1  0  0  0  0
  9 24  2  0  0  0  0
 10 25  1  0  0  0  0
 11 12  2  0  0  0  0
 11 26  1  0  0  0  0
 12 27  1  0  0  0  0
 13 20  1  0  0  0  0
 13 25  2  0  0  0  0
 14 27  2  0  0  0  0
 14 28  1  0  0  0  0
 15 29  1  0  0  0  0
 16 29  1  0  0  0  0
 16 32  2  0  0  0  0
 16 33  1  0  0  0  0
 17 19  2  0  0  0  0
 17 38  1  0  0  0  0
 18 20  2  0  0  0  0
 18 39  1  0  0  0  0
 19 47  1  0  0  0  0
 20 40  1  0  0  0  0
 21 22  1  0  0  0  0
 21 23  2  0  0  0  0
 21 50  1  0  0  0  0
 22 30  2  0  0  0  0
 22 51  1  0  0  0  0
 23 31  1  0  0  0  0
 23 68  1  0  0  0  0
 24 77  1  0  0  0  0
 25 78  1  0  0  0  0
 26 28  2  0  0  0  0
 26 77  1  0  0  0  0
 27 79  1  0  0  0  0
 28 80  1  0  0  0  0
 29 61  2  0  0  0  0
 30 57  1  0  0  0  0
 30 62  1  0  0  0  0
 31 62  2  0  0  0  0
 31 81  1  0  0  0  0
 32 63  1  0  0  0  0
 32 66  1  0  0  0  0
 33 67  1  0  0  0  0
 33 72  2  0  0  0  0
 34 48  1  0  0  0  0
 34 69  1  0  0  0  0
 34 73  2  0  0  0  0
 35 58  1  0  0  0  0
 35 64  1  0  0  0  0
 35 74  2  0  0  0  0
 36 59  1  0  0  0  0
 36 70  1  0  0  0  0
 36 75  2  0  0  0  0
 37 65  1  0  0  0  0
 37 68  1  0  0  0  0
 37 76  2  0  0  0  0
 38 41  1  0  0  0  0
 39 48  1  0  0  0  0
 40 64  1  0  0  0  0
 41 43  1  0  0  0  0
 42 44  1  0  0  0  0
 42 45  1  0  0  0  0
 43 47  1  0  0  0  0
 44 49  1  0  0  0  0
 45 65  1  0  0  0  0
 46 49  1  0  0  0  0
 46 65  1  0  0  0  0
 47 69  1  0  0  0  0
 48 64  1  0  0  0  0
 49 63  1  0  0  0  0
 52 59  1  0  0  0  0
 53 60  1  0  0  0  0
 54 60  1  0  0  0  0
 55 60  1  0  0  0  0
 56 71  1  0  0  0  0
 57 78  1  0  0  0  0
 58 60  1  0  0  0  0
 58 70  1  0  0  0  0
 59 71  1  0  0  0  0
 61 63  1  0  0  0  0
M  CHG  1  71   1
M  ISO  4  37 100  57 101  68 100  78 101
M  END
> <Batch ID>
0017

> <Smiles>
CNC(C)C(=O)NC(C(=O)N1Cc2cc([101O:1][101CH2:1]c3nc(Cl)c([100NH:0][100C:0](=O)N4CCCC(n5nc(-c6ccc(Oc7ccc(F)cc7F)cc6)c(C(N)=O)c5N)C4)c(C)c3C)ccc2CC1C(=O)NC1CCCc2ccccc21)C(C)(C)C

> <Shape>
0.352

> <Color>
0.206

> <Negative vol penalty>
0.000

$$$$

  -OEChem-04052316013D

 86 94  0     1  0  0  0  0  0999 V2000
  -24.8484  -19.2364   18.6025 C   0  0  0  0  0  0  0  0  0  0  0  0
  -24.6684  -20.5473   18.1760 C   0  0  0  0  0  0  0  0  0  0  0  0
  -23.0488  -13.7675   21.0939 C   0  0  0  0  0  0  0  0  0  0  0  0
  -24.8515  -14.6896   22.4118 C   0  0  0  0  0  0  0  0  0  0  0  0
  -25.6129  -18.9755   19.7377 C   0  0  0  0  0  0  0  0  0  0  0  0
  -25.2625  -21.5969   18.8776 C   0  0  0  0  0  0  0  0  0  0  0  0
  -24.8535  -27.6245   18.0847 C   0  0  0  0  0  0  0  0  0  0  0  0
  -23.9142  -12.7970   20.5891 C   0  0  0  0  0  0  0  0  0  0  0  0
  -25.7169  -13.7190   21.9071 C   0  0  0  0  0  0  0  0  0  0  0  0
  -24.0639  -28.6730   18.5548 C   0  0  0  0  0  0  0  0  0  0  0  0
  -27.4702  -13.1787   19.0672 C   0  0  0  0  0  0  0  0  0  0  0  0
  -28.7342  -13.5927   18.6473 C   0  0  0  0  0  0  0  0  0  0  0  0
  -25.7418  -29.1865   20.2101 C   0  0  0  0  0  0  0  0  0  0  0  0
  -19.5522  -28.2143   21.6994 C   0  0  0  0  0  0  0  0  0  0  0  0
  -29.7550  -12.1219   20.2696 C   0  0  0  0  0  0  0  0  0  0  0  0
  -23.5175  -14.7139   22.0052 C   0  0  0  0  0  0  0  0  0  0  0  0
  -21.8258  -15.6264   23.6824 C   0  0  0  0  0  0  0  0  0  0  0  0
  -26.2060  -20.0240   20.4602 C   0  0  0  0  0  0  0  0  0  0  0  0
  -26.0903  -27.3417   18.6820 C   0  0  0  0  0  0  0  0  0  0  0  0
  -26.0574  -21.3523   20.0120 C   0  0  0  0  0  0  0  0  0  0  0  0
  -26.5463  -28.1354   19.7441 C   0  0  0  0  0  0  0  0  0  0  0  0
  -18.6560  -27.1465   21.6538 C   0  0  0  0  0  0  0  0  0  0  0  0
  -20.1059  -25.8678   23.1031 C   0  0  0  0  0  0  0  0  0  0  0  0
  -20.7253  -28.1089   22.4468 C   0  0  0  0  0  0  0  0  0  0  0  0
  -25.2482  -12.7727   20.9957 C   0  0  0  0  0  0  0  0  0  0  0  0
  -24.5067  -29.4524   19.6195 C   0  0  0  0  0  0  0  0  0  0  0  0
  -27.3485  -12.2363   20.0884 C   0  0  0  0  0  0  0  0  0  0  0  0
  -29.8766  -13.0643   19.2484 C   0  0  0  0  0  0  0  0  0  0  0  0
  -28.4909  -11.7079   20.6895 C   0  0  0  0  0  0  0  0  0  0  0  0
  -18.9328  -25.9732   22.3557 C   0  0  0  0  0  0  0  0  0  0  0  0
  -21.0021  -26.9357   23.1486 C   0  0  0  0  0  0  0  0  0  0  0  0
  -22.6242  -15.7171   22.5265 C   0  0  0  0  0  0  0  0  0  0  0  0
  -21.1682  -16.8309   23.7408 C   0  0  0  0  0  0  0  0  0  0  0  0
  -21.6907  -14.5498   24.6196 C   0  0  0  0  0  0  0  0  0  0  0  0
  -27.3185  -24.8490   20.2252 C   0  0  0  0  0  0  0  0  0  0  0  0
  -30.0365  -26.6162   20.1168 C   0  0  0  0  0  0  0  0  0  0  0  0
  -31.4805  -29.6973   19.8557 C   0  0  0  0  0  0  0  0  0  0  0  0
  -21.2198  -22.2964   23.4728 C   0  0  0  0  0  0  0  0  0  0  0  0
  -27.0297  -19.6843   21.6773 C   0  0  0  0  0  0  0  0  0  0  0  0
  -26.9422  -26.2240   18.1458 C   0  0  0  0  0  0  0  0  0  0  0  0
  -27.8757  -27.8859   20.4067 C   0  0  0  0  0  0  0  0  0  0  0  0
  -27.2463  -20.8786   22.6009 C   0  0  0  0  0  0  0  0  0  0  0  0
  -20.7957  -20.5498   20.3317 C   0  0  0  0  0  0  0  0  0  0  0  0
  -27.7285  -22.0767   21.7968 C   0  0  0  0  0  0  0  0  0  0  0  0
  -21.1711  -19.1201   20.7255 C   0  0  0  0  0  0  0  0  0  0  0  0
  -21.6724  -21.5700   21.0521 C   0  0  0  0  0  0  0  0  0  0  0  0
  -22.0401  -20.0208   22.9332 C   0  0  0  0  0  0  0  0  0  0  0  0
  -26.6688  -22.5123   20.7769 C   0  0  1  0  0  0  0  0  0  0  0  0
  -27.9523  -25.7020   19.1630 C   0  0  1  0  0  0  0  0  0  0  0  0
  -21.1746  -18.9430   22.2555 C   0  0  2  0  0  0  0  0  0  0  0  0
  -17.4954  -26.5706   19.5072 C   0  0  0  0  0  0  0  0  0  0  0  0
  -33.7209  -30.8277   19.8369 C   0  0  0  0  0  0  0  0  0  0  0  0
  -30.2356  -26.2666   23.1414 C   0  0  0  0  0  0  0  0  0  0  0  0
  -31.8853  -28.1495   23.1805 C   0  0  0  0  0  0  0  0  0  0  0  0
  -32.4094  -26.0603   21.9221 C   0  0  0  0  0  0  0  0  0  0  0  0
  -31.0551  -30.7516   17.1233 C   0  0  0  0  0  0  0  0  0  0  0  0
  -17.4113  -27.3056   20.8408 C   0  0  0  0  0  0  0  0  0  0  0  0
  -20.4021  -24.6072   23.8586 C   0  0  0  0  0  0  0  0  0  0  0  0
  -22.5265  -31.3830   21.9433 C   0  0  0  0  0  0  0  0  0  0  0  0
  -21.3561  -30.4240   21.7625 C   0  0  0  0  0  0  0  0  0  0  0  0
  -23.8517  -30.8013   21.4654 C   0  0  0  0  0  0  0  0  0  1  0  0
  -30.6728  -27.6547   21.0088 C   0  0  1  0  0  0  0  0  0  0  0  0
  -32.6204  -30.2056   18.9915 C   0  0  2  0  0  0  0  0  0  0  0  0
  -31.2748  -27.0365   22.3022 C   0  0  0  0  0  0  0  0  0  0  0  0
  -22.4877  -16.8866   21.8959 N   0  0  0  0  0  0  0  0  0  0  0  0
  -21.5958  -17.5419   22.6582 N   0  0  0  0  0  0  0  0  0  0  0  0
  -28.6694  -26.7776   19.8507 N   0  0  0  0  0  0  0  0  0  0  0  0
  -21.6167  -21.3584   22.5054 N   0  0  0  0  0  0  0  0  0  0  0  0
  -20.2716  -17.3405   24.6119 N   0  0  0  0  0  0  0  0  0  0  0  0
  -22.4394  -13.3837   24.4100 N   0  0  0  0  0  0  0  0  0  0  0  0
  -21.5939  -29.1890   22.4698 N   0  0  0  0  0  0  0  0  0  0  0  0
  -27.2406  -23.5087   19.8983 N   0  0  0  0  0  0  0  0  0  0  0  0
  -31.6399  -28.3668   20.1807 N   0  0  0  0  0  0  0  0  0  0  0  0
  -20.8406  -23.5412   22.9855 N   0  0  0  0  0  0  0  0  0  0  0  0
  -32.1253  -31.2343   18.0336 N   0  3  0  0  0  0  0  0  0  0  0  0
  -20.9163  -14.6135   25.6043 O   0  0  0  0  0  0  0  0  0  0  0  0
  -26.9303  -25.3682   21.2651 O   0  0  0  0  0  0  0  0  0  0  0  0
  -30.7286  -25.6996   19.6669 O   0  0  0  0  0  0  0  0  0  0  0  0
  -30.5443  -30.4104   20.2104 O   0  0  0  0  0  0  0  0  0  0  0  0
  -21.1997  -22.0418   24.6819 O   0  0  0  0  0  0  0  0  0  0  0  0
  -26.0929  -11.8256   20.5036 O   0  0  0  0  0  0  0  0  0  0  0  0
  -23.7377  -30.4760   20.0806 O   0  0  0  0  0  0  0  0  0  1  0  0
  -31.0904  -13.4609   18.8440 F   0  0  0  0  0  0  0  0  0  0  0  0
  -28.3803  -10.8013   21.6702 F   0  0  0  0  0  0  0  0  0  0  0  0
  -17.8137  -24.6514   22.2962 Cl  0  0  0  0  0  0  0  0  0  0  0  0
  -22.4622  -26.8057   24.0766 Cl  0  0  0  0  0  0  0  0  0  0  0  0
  1  2  1  0  0  0  0
  1  5  2  0  0  0  0
  2  6  2  0  0  0  0
  3  8  2  0  0  0  0
  3 16  1  0  0  0  0
  4  9  1  0  0  0  0
  4 16  2  0  0  0  0
  5 18  1  0  0  0  0
  6 20  1  0  0  0  0
  7 10  2  0  0  0  0
  7 19  1  0  0  0  0
  8 25  1  0  0  0  0
  9 25  2  0  0  0  0
 10 26  1  0  0  0  0
 11 12  2  0  0  0  0
 11 27  1  0  0  0  0
 12 28  1  0  0  0  0
 13 21  1  0  0  0  0
 13 26  2  0  0  0  0
 14 22  1  0  0  0  0
 14 24  2  0  0  0  0
 15 28  2  0  0  0  0
 15 29  1  0  0  0  0
 16 32  1  0  0  0  0
 17 32  1  0  0  0  0
 17 33  2  0  0  0  0
 17 34  1  0  0  0  0
 18 20  2  0  0  0  0
 18 39  1  0  0  0  0
 19 21  2  0  0  0  0
 19 40  1  0  0  0  0
 20 48  1  0  0  0  0
 21 41  1  0  0  0  0
 22 30  2  0  0  0  0
 22 57  1  0  0  0  0
 23 30  1  0  0  0  0
 23 31  2  0  0  0  0
 23 58  1  0  0  0  0
 24 31  1  0  0  0  0
 24 71  1  0  0  0  0
 25 81  1  0  0  0  0
 26 82  1  0  0  0  0
 27 29  2  0  0  0  0
 27 81  1  0  0  0  0
 28 83  1  0  0  0  0
 29 84  1  0  0  0  0
 30 85  1  0  0  0  0
 31 86  1  0  0  0  0
 32 65  2  0  0  0  0
 33 66  1  0  0  0  0
 33 69  1  0  0  0  0
 34 70  1  0  0  0  0
 34 76  2  0  0  0  0
 35 49  1  0  0  0  0
 35 72  1  0  0  0  0
 35 77  2  0  0  0  0
 36 62  1  0  0  0  0
 36 67  1  0  0  0  0
 36 78  2  0  0  0  0
 37 63  1  0  0  0  0
 37 73  1  0  0  0  0
 37 79  2  0  0  0  0
 38 68  1  0  0  0  0
 38 74  1  0  0  0  0
 38 80  2  0  0  0  0
 39 42  1  0  0  0  0
 40 49  1  0  0  0  0
 41 67  1  0  0  0  0
 42 44  1  0  0  0  0
 43 45  1  0  0  0  0
 43 46  1  0  0  0  0
 44 48  1  0  0  0  0
 45 50  1  0  0  0  0
 46 68  1  0  0  0  0
 47 50  1  0  0  0  0
 47 68  1  0  0  0  0
 48 72  1  0  0  0  0
 49 67  1  0  0  0  0
 50 66  1  0  0  0  0
 51 57  1  0  0  0  0
 52 63  1  0  0  0  0
 53 64  1  0  0  0  0
 54 64  1  0  0  0  0
 55 64  1  0  0  0  0
 56 75  1  0  0  0  0
 58 74  1  0  0  0  0
 59 60  1  0  0  0  0
 59 61  1  0  0  0  0
 60 71  1  0  0  0  0
 61 82  1  0  0  0  0
 62 64  1  0  0  0  0
 62 73  1  0  0  0  0
 63 75  1  0  0  0  0
 65 66  1  0  0  0  0
M  CHG  1  75   1
M  ISO  4  38 100  61 101  74 100  82 101
M  END
> <Batch ID>
0017

> <Smiles>
CCc1cc(NCC[101CH2:1][101O:1]c2ccc3c(c2)CN(C(=O)C(NC(=O)C(C)NC)C(C)(C)C)C(C(=O)NC2CCCc4ccccc42)C3)c(Cl)c(C[100NH:0][100C:0](=O)N2CCCC(n3nc(-c4ccc(Oc5ccc(F)cc5F)cc4)c(C(N)=O)c3N)C2)c1Cl

> <Shape>
0.218

> <Color>
0.085

> <Negative vol penalty>
0.000

$$$$

  -OEChem-04052316013D

 83 91  0     1  0  0  0  0  0999 V2000
  -33.0554  -32.4005   20.0063 C   0  0  0  0  0  0  0  0  0  0  0  0
  -33.7422  -31.2789   20.4601 C   0  0  0  0  0  0  0  0  0  0  0  0
  -23.1604   -9.8700   19.9011 C   0  0  0  0  0  0  0  0  0  0  0  0
  -23.8469   -9.8897   22.2174 C   0  0  0  0  0  0  0  0  0  0  0  0
  -31.6637  -32.3790   19.9260 C   0  0  0  0  0  0  0  0  0  0  0  0
  -33.0375  -30.1355   20.8348 C   0  0  0  0  0  0  0  0  0  0  0  0
  -34.2404  -23.8120   17.6010 C   0  0  0  0  0  0  0  0  0  0  0  0
  -22.4350   -8.7001   20.1260 C   0  0  0  0  0  0  0  0  0  0  0  0
  -23.1214   -8.7198   22.4424 C   0  0  0  0  0  0  0  0  0  0  0  0
  -34.5623  -22.5229   17.1760 C   0  0  0  0  0  0  0  0  0  0  0  0
  -19.8944   -7.8490   22.9413 C   0  0  0  0  0  0  0  0  0  0  0  0
  -19.1019   -7.7900   24.0876 C   0  0  0  0  0  0  0  0  0  0  0  0
  -32.7883  -21.6164   18.5469 C   0  0  0  0  0  0  0  0  0  0  0  0
  -20.3623   -5.8794   24.8608 C   0  0  0  0  0  0  0  0  0  0  0  0
  -23.8665  -10.4648   20.9468 C   0  0  0  0  0  0  0  0  0  0  0  0
  -24.1554  -12.9971   20.8406 C   0  0  0  0  0  0  0  0  0  0  0  0
  -30.9421  -31.2314   20.2907 C   0  0  0  0  0  0  0  0  0  0  0  0
  -33.1799  -24.0099   18.4897 C   0  0  0  0  0  0  0  0  0  0  0  0
  -31.6347  -30.0991   20.7605 C   0  0  0  0  0  0  0  0  0  0  0  0
  -32.4532  -22.9066   18.9664 C   0  0  0  0  0  0  0  0  0  0  0  0
  -22.4154   -8.1250   21.3967 C   0  0  0  0  0  0  0  0  0  0  0  0
  -33.8383  -21.4278   17.6480 C   0  0  0  0  0  0  0  0  0  0  0  0
  -20.9209   -6.9231   22.7547 C   0  0  0  0  0  0  0  0  0  0  0  0
  -19.3358   -6.8053   25.0473 C   0  0  0  0  0  0  0  0  0  0  0  0
  -21.1549   -5.9384   23.7145 C   0  0  0  0  0  0  0  0  0  0  0  0
  -24.6165  -11.6730   20.7150 C   0  0  0  0  0  0  0  0  0  0  0  0
  -25.2415  -13.7715   20.5130 C   0  0  0  0  0  0  0  0  0  0  0  0
  -22.8610  -13.4837   21.2196 C   0  0  0  0  0  0  0  0  0  0  0  0
  -31.1120  -26.4550   20.4445 C   0  0  0  0  0  0  0  0  0  0  0  0
  -29.1818  -24.3490   19.3266 C   0  0  0  0  0  0  0  0  0  0  0  0
  -27.3485  -22.0742   17.5656 C   0  0  0  0  0  0  0  0  0  0  0  0
  -30.5661  -14.9415   20.9884 C   0  0  0  0  0  0  0  0  0  0  0  0
  -29.4356  -31.2718   20.2316 C   0  0  0  0  0  0  0  0  0  0  0  0
  -32.8372  -25.3749   19.0219 C   0  0  0  0  0  0  0  0  0  0  0  0
  -31.3428  -23.1639   19.9481 C   0  0  0  0  0  0  0  0  0  0  0  0
  -28.7864  -29.8916   20.2926 C   0  0  0  0  0  0  0  0  0  0  0  0
  -29.6878  -12.5090   18.4568 C   0  0  0  0  0  0  0  0  0  0  0  0
  -29.4116  -29.0563   21.4055 C   0  0  0  0  0  0  0  0  0  0  0  0
  -28.2415  -12.1848   18.8354 C   0  0  0  0  0  0  0  0  0  0  0  0
  -31.8523  -17.5830   20.3704 C   0  0  0  0  0  0  0  0  0  0  0  0
  -30.5496  -12.7218   19.6978 C   0  0  0  0  0  0  0  0  0  0  0  0
  -28.5928  -13.4422   21.0114 C   0  0  0  0  0  0  0  0  0  0  0  0
  -31.8192  -17.6975   18.8528 C   0  0  0  0  0  0  0  0  0  0  0  0
  -33.9855  -16.4475   18.7005 C   0  0  0  0  0  0  0  0  0  0  0  0
  -30.9072  -28.8314   21.1526 C   0  0  1  0  0  0  0  0  0  0  0  0
  -31.3279  -25.5718   19.2508 C   0  0  1  0  0  0  0  0  0  0  0  0
  -34.0334  -16.3042   20.2290 C   0  0  1  0  0  0  0  0  0  0  0  0
  -27.6651  -13.2382   19.7999 C   0  0  2  0  0  0  0  0  0  0  0  0
  -32.6143  -16.3374   20.8724 C   0  0  1  0  0  0  0  0  0  0  0  0
  -34.8441  -15.0517   20.5879 C   0  0  0  0  0  0  0  0  0  0  0  0
  -32.7083  -16.4120   22.4069 C   0  0  0  0  0  0  0  0  0  0  0  0
  -24.9829  -21.3428   17.1574 C   0  0  0  0  0  0  0  0  0  0  0  0
  -32.1486  -17.1157   16.2089 C   0  0  0  0  0  0  0  0  0  0  0  0
  -33.1797  -19.7804   15.0598 C   0  0  0  0  0  0  0  0  0  0  0  0
  -29.1419  -22.9721   22.0481 C   0  0  0  0  0  0  0  0  0  0  0  0
  -27.2679  -21.5361   21.2149 C   0  0  0  0  0  0  0  0  0  0  0  0
  -26.9687  -24.0078   21.3705 C   0  0  0  0  0  0  0  0  0  0  0  0
  -27.5344  -22.6884   14.6765 C   0  0  0  0  0  0  0  0  0  0  0  0
  -28.4525  -23.0504   19.5612 C   0  0  1  0  0  0  0  0  0  0  0  0
  -26.1219  -22.2332   16.6855 C   0  0  2  0  0  0  0  0  0  0  0  0
  -33.2647  -17.9408   16.8403 C   0  0  1  0  0  0  0  0  0  0  0  0
  -33.1313  -19.4421   16.5458 C   0  0  1  0  0  0  0  0  0  1  0  0
  -27.9826  -22.8924   21.0349 C   0  0  0  0  0  0  0  0  0  0  0  0
  -25.8958  -11.6062   20.3369 N   0  0  0  0  0  0  0  0  0  0  0  0
  -26.2478  -12.8981   20.2220 N   0  0  0  0  0  0  0  0  0  0  0  0
  -30.5670  -24.3425   19.5314 N   0  0  0  0  0  0  0  0  0  0  0  0
  -29.9555  -13.7495   20.5645 N   0  0  0  0  0  0  0  0  0  0  0  0
  -25.4243  -15.1074   20.4482 N   0  0  0  0  0  0  0  0  0  0  0  0
  -21.8595  -12.5516   21.5236 N   0  0  0  0  0  0  0  0  0  0  0  0
  -31.1017  -27.8052   20.1509 N   0  0  0  0  0  0  0  0  0  0  0  0
  -27.3724  -23.0061   18.5816 N   0  0  0  0  0  0  0  0  0  0  0  0
  -31.8593  -15.1537   20.5264 N   0  0  0  0  0  0  0  0  0  0  0  0
  -33.2293  -17.6968   18.3244 N   0  3  1  0  0  0  0  0  0  0  0  0
  -26.4458  -21.8744   15.2758 N   0  3  0  0  0  0  0  0  0  0  0  0
  -22.5956  -14.7086   21.2708 O   0  0  0  0  0  0  0  0  0  0  0  0
  -30.9640  -25.9497   21.5511 O   0  0  0  0  0  0  0  0  0  0  0  0
  -28.5426  -25.3451   18.9768 O   0  0  0  0  0  0  0  0  0  0  0  0
  -28.1984  -21.2074   17.3734 O   0  0  0  0  0  0  0  0  0  0  0  0
  -29.9986  -15.7594   21.7206 O   0  0  0  0  0  0  0  0  0  0  0  0
  -21.7074   -6.9835   21.6166 O   0  0  0  0  0  0  0  0  0  0  0  0
  -34.1568  -20.1653   17.2232 O   0  0  0  0  0  0  0  0  0  1  0  0
  -18.5756   -6.7497   26.1488 F   0  0  0  0  0  0  0  0  0  0  0  0
  -22.1403   -5.0469   23.5414 F   0  0  0  0  0  0  0  0  0  0  0  0
  1  2  1  0  0  0  0
  1  5  2  0  0  0  0
  2  6  2  0  0  0  0
  3  8  2  0  0  0  0
  3 15  1  0  0  0  0
  4  9  1  0  0  0  0
  4 15  2  0  0  0  0
  5 17  1  0  0  0  0
  6 19  1  0  0  0  0
  7 10  2  0  0  0  0
  7 18  1  0  0  0  0
  8 21  1  0  0  0  0
  9 21  2  0  0  0  0
 10 22  1  0  0  0  0
 11 12  2  0  0  0  0
 11 23  1  0  0  0  0
 12 24  1  0  0  0  0
 13 20  1  0  0  0  0
 13 22  2  0  0  0  0
 14 24  2  0  0  0  0
 14 25  1  0  0  0  0
 15 26  1  0  0  0  0
 16 26  1  0  0  0  0
 16 27  2  0  0  0  0
 16 28  1  0  0  0  0
 17 19  2  0  0  0  0
 17 33  1  0  0  0  0
 18 20  2  0  0  0  0
 18 34  1  0  0  0  0
 19 45  1  0  0  0  0
 20 35  1  0  0  0  0
 21 80  1  0  0  0  0
 22 81  1  0  0  0  0
 23 25  2  0  0  0  0
 23 80  1  0  0  0  0
 24 82  1  0  0  0  0
 25 83  1  0  0  0  0
 26 64  2  0  0  0  0
 27 65  1  0  0  0  0
 27 68  1  0  0  0  0
 28 69  1  0  0  0  0
 28 75  2  0  0  0  0
 29 46  1  0  0  0  0
 29 70  1  0  0  0  0
 29 76  2  0  0  0  0
 30 59  1  0  0  0  0
 30 66  1  0  0  0  0
 30 77  2  0  0  0  0
 31 60  1  0  0  0  0
 31 71  1  0  0  0  0
 31 78  2  0  0  0  0
 32 67  1  0  0  0  0
 32 72  1  0  0  0  0
 32 79  2  0  0  0  0
 33 36  1  0  0  0  0
 34 46  1  0  0  0  0
 35 66  1  0  0  0  0
 36 38  1  0  0  0  0
 37 39  1  0  0  0  0
 37 41  1  0  0  0  0
 38 45  1  0  0  0  0
 39 48  1  0  0  0  0
 40 43  1  0  0  0  0
 40 49  1  0  0  0  0
 41 67  1  0  0  0  0
 42 48  1  0  0  0  0
 42 67  1  0  0  0  0
 43 73  1  0  0  0  0
 44 47  1  0  0  0  0
 44 73  1  0  0  0  0
 45 70  1  0  0  0  0
 46 66  1  0  0  0  0
 47 49  1  0  0  0  0
 47 50  1  0  0  0  0
 48 65  1  0  0  0  0
 49 51  1  0  0  0  0
 49 72  1  0  0  0  0
 52 60  1  0  0  0  0
 53 61  1  0  0  0  0
 54 62  1  0  0  0  0
 55 63  1  0  0  0  0
 56 63  1  0  0  0  0
 57 63  1  0  0  0  0
 58 74  1  0  0  0  0
 59 63  1  0  0  0  0
 59 71  1  0  0  0  0
 60 74  1  0  0  0  0
 61 62  1  0  0  0  0
 61 73  1  0  0  0  0
 62 81  1  0  0  0  0
 64 65  1  0  0  0  0
M  CHG  2  73   1  74   1
M  ISO  4  32 100  62 101  72 100  81 101
M  END
> <Batch ID>
0017

> <Smiles>
CNC(C)C(=O)NC(C(=O)N1Cc2cc([101O:1][101CH:1](C)C(C)N3CCC(C)([100NH:0][100C:0](=O)N4CCCC(n5nc(-c6ccc(Oc7ccc(F)cc7F)cc6)c(C(N)=O)c5N)C4)C(C)C3)ccc2CC1C(=O)NC1CCCc2ccccc21)C(C)(C)C

> <Shape>
0.231

> <Color>
0.172

> <Negative vol penalty>
0.000

$$$$

  -OEChem-04052316013D

 82 90  0     1  0  0  0  0  0999 V2000
  -14.0984  -19.1959   22.8677 C   0  0  0  0  0  0  0  0  0  0  0  0
  -14.2039  -20.4760   22.3333 C   0  0  0  0  0  0  0  0  0  0  0  0
  -28.0222  -20.1918   19.7417 C   0  0  0  0  0  0  0  0  0  0  0  0
  -30.0580  -20.5621   18.4946 C   0  0  0  0  0  0  0  0  0  0  0  0
  -14.8248  -18.8558   24.0081 C   0  0  0  0  0  0  0  0  0  0  0  0
  -15.0350  -21.4172   22.9397 C   0  0  0  0  0  0  0  0  0  0  0  0
  -19.2583  -26.9814   21.3525 C   0  0  0  0  0  0  0  0  0  0  0  0
  -28.4756  -18.9240   20.1055 C   0  0  0  0  0  0  0  0  0  0  0  0
  -30.5115  -19.2942   18.8584 C   0  0  0  0  0  0  0  0  0  0  0  0
  -19.4671  -28.3122   21.7120 C   0  0  0  0  0  0  0  0  0  0  0  0
  -28.6996  -15.8599   18.6963 C   0  0  0  0  0  0  0  0  0  0  0  0
  -27.7992  -14.7988   18.6025 C   0  0  0  0  0  0  0  0  0  0  0  0
  -20.7352  -27.5881   23.6321 C   0  0  0  0  0  0  0  0  0  0  0  0
  -25.7585  -30.6964   21.2026 C   0  0  0  0  0  0  0  0  0  0  0  0
  -23.1074  -29.9621   20.7387 C   0  0  0  0  0  0  0  0  0  0  0  0
  -28.0395  -14.3855   20.9707 C   0  0  0  0  0  0  0  0  0  0  0  0
  -28.8133  -21.0109   18.9361 C   0  0  0  0  0  0  0  0  0  0  0  0
  -27.1792  -22.6304   17.8340 C   0  0  0  0  0  0  0  0  0  0  0  0
  -15.6727  -19.7904   24.6232 C   0  0  0  0  0  0  0  0  0  0  0  0
  -19.7781  -25.9421   22.1374 C   0  0  0  0  0  0  0  0  0  0  0  0
  -15.7724  -21.0897   24.0902 C   0  0  0  0  0  0  0  0  0  0  0  0
  -20.5338  -26.2451   23.2790 C   0  0  0  0  0  0  0  0  0  0  0  0
  -24.7201  -31.4528   21.7458 C   0  0  0  0  0  0  0  0  0  0  0  0
  -23.3946  -31.0857   21.5139 C   0  0  0  0  0  0  0  0  0  0  0  0
  -25.4714  -29.5729   20.4273 C   0  0  0  0  0  0  0  0  0  0  0  0
  -29.7203  -18.4751   19.6640 C   0  0  0  0  0  0  0  0  0  0  0  0
  -20.2032  -28.6157   22.8536 C   0  0  0  0  0  0  0  0  0  0  0  0
  -29.2700  -16.1838   19.9273 C   0  0  0  0  0  0  0  0  0  0  0  0
  -27.4691  -14.0616   19.7397 C   0  0  0  0  0  0  0  0  0  0  0  0
  -24.1459  -29.2058   20.1954 C   0  0  0  0  0  0  0  0  0  0  0  0
  -28.9399  -15.4466   21.0645 C   0  0  0  0  0  0  0  0  0  0  0  0
  -28.3452  -22.3205   18.5595 C   0  0  0  0  0  0  0  0  0  0  0  0
  -27.1872  -24.0006   17.7402 C   0  0  0  0  0  0  0  0  0  0  0  0
  -26.1785  -21.7576   17.2932 C   0  0  0  0  0  0  0  0  0  0  0  0
  -18.5207  -23.5424   23.7999 C   0  0  0  0  0  0  0  0  0  0  0  0
  -21.6280  -22.6932   24.1819 C   0  0  0  0  0  0  0  0  0  0  0  0
  -24.9054  -23.6431   24.2362 C   0  0  0  0  0  0  0  0  0  0  0  0
  -27.8971  -29.0343   20.0120 C   0  0  0  0  0  0  0  0  0  0  0  0
  -16.4017  -19.3911   25.8817 C   0  0  0  0  0  0  0  0  0  0  0  0
  -19.5667  -24.5123   21.7212 C   0  0  0  0  0  0  0  0  0  0  0  0
  -21.1305  -25.1663   24.1443 C   0  0  0  0  0  0  0  0  0  0  0  0
  -17.5476  -20.3315   26.2463 C   0  0  0  0  0  0  0  0  0  0  0  0
  -30.8121  -27.3569   18.8434 C   0  0  0  0  0  0  0  0  0  0  0  0
  -17.0993  -21.7856   26.1399 C   0  0  0  0  0  0  0  0  0  0  0  0
  -30.3343  -25.9226   18.6057 C   0  0  0  0  0  0  0  0  0  0  0  0
  -30.1468  -27.9805   20.0690 C   0  0  0  0  0  0  0  0  0  0  0  0
  -28.2017  -26.4862   19.8392 C   0  0  0  0  0  0  0  0  0  0  0  0
  -16.6825  -22.1308   24.7051 C   0  0  1  0  0  0  0  0  0  0  0  0
  -19.7064  -23.5266   22.8771 C   0  0  1  0  0  0  0  0  0  0  0  0
  -28.7955  -25.8386   18.5776 C   0  0  2  0  0  0  0  0  0  0  0  0
  -25.0516  -32.6519   22.5722 C   0  0  0  0  0  0  0  0  0  0  0  0
  -27.3997  -23.3956   24.3573 C   0  0  0  0  0  0  0  0  0  0  0  0
  -21.1127  -22.6362   27.1887 C   0  0  0  0  0  0  0  0  0  0  0  0
  -23.5908  -22.6701   27.5436 C   0  0  0  0  0  0  0  0  0  0  0  0
  -22.5314  -20.7607   26.3377 C   0  0  0  0  0  0  0  0  0  0  0  0
  -25.1255  -23.2578   21.3101 C   0  0  0  0  0  0  0  0  0  0  0  0
  -22.2551  -31.8876   22.0903 C   0  0  0  0  0  0  0  0  0  0  0  0
  -22.0251  -31.6455   23.5837 C   0  0  0  0  0  0  0  0  0  0  0  0
  -21.6148  -30.2136   23.9071 C   0  0  0  0  0  0  0  0  0  1  0  0
  -22.7058  -23.0072   25.1912 C   0  0  1  0  0  0  0  0  0  0  0  0
  -26.1385  -23.0450   23.5833 C   0  0  2  0  0  0  0  0  0  0  0  0
  -22.4724  -22.2891   26.5503 C   0  0  0  0  0  0  0  0  0  0  0  0
  -29.0431  -23.4066   18.9022 N   0  0  0  0  0  0  0  0  0  0  0  0
  -28.3137  -24.4122   18.3897 N   0  0  0  0  0  0  0  0  0  0  0  0
  -20.8907  -23.7836   23.6991 N   0  0  0  0  0  0  0  0  0  0  0  0
  -28.6899  -27.8679   19.9707 N   0  0  0  0  0  0  0  0  0  0  0  0
  -26.3404  -24.8816   17.1663 N   0  0  0  0  0  0  0  0  0  0  0  0
  -26.3472  -21.2751   15.9882 N   0  0  0  0  0  0  0  0  0  0  0  0
  -26.5281  -28.8060   19.8768 N   0  0  0  0  0  0  0  0  0  0  0  0
  -17.8502  -22.3365   23.8752 N   0  0  0  0  0  0  0  0  0  0  0  0
  -23.9740  -22.6761   24.5504 N   0  0  0  0  0  0  0  0  0  0  0  0
  -26.2852  -23.5536   22.1902 N   0  3  0  0  0  0  0  0  0  0  0  0
  -25.1564  -21.4289   17.9420 O   0  0  0  0  0  0  0  0  0  0  0  0
  -18.2362  -24.5721   24.4004 O   0  0  0  0  0  0  0  0  0  0  0  0
  -21.4517  -21.5243   23.8293 O   0  0  0  0  0  0  0  0  0  0  0  0
  -24.7825  -24.8471   24.4498 O   0  0  0  0  0  0  0  0  0  0  0  0
  -28.3979  -30.1556   20.1294 O   0  0  0  0  0  0  0  0  0  0  0  0
  -30.1632  -17.2381   20.0190 O   0  0  0  0  0  0  0  0  0  0  0  0
  -20.4079  -29.9137   23.2072 O   0  0  0  0  0  0  0  0  0  1  0  0
  -26.6032  -13.0436   19.6497 F   0  0  0  0  0  0  0  0  0  0  0  0
  -23.8582  -28.1277   19.4521 F   0  0  0  0  0  0  0  0  0  0  0  0
  -29.4838  -15.7538   22.2501 F   0  0  0  0  0  0  0  0  0  0  0  0
  1  2  1  0  0  0  0
  1  5  2  0  0  0  0
  2  6  2  0  0  0  0
  3  8  2  0  0  0  0
  3 17  1  0  0  0  0
  4  9  1  0  0  0  0
  4 17  2  0  0  0  0
  5 19  1  0  0  0  0
  6 21  1  0  0  0  0
  7 10  2  0  0  0  0
  7 20  1  0  0  0  0
  8 26  1  0  0  0  0
  9 26  2  0  0  0  0
 10 27  1  0  0  0  0
 11 12  2  0  0  0  0
 11 28  1  0  0  0  0
 12 29  1  0  0  0  0
 13 22  1  0  0  0  0
 13 27  2  0  0  0  0
 14 23  1  0  0  0  0
 14 25  2  0  0  0  0
 15 24  1  0  0  0  0
 15 30  2  0  0  0  0
 16 29  2  0  0  0  0
 16 31  1  0  0  0  0
 17 32  1  0  0  0  0
 18 32  1  0  0  0  0
 18 33  2  0  0  0  0
 18 34  1  0  0  0  0
 19 21  2  0  0  0  0
 19 39  1  0  0  0  0
 20 22  2  0  0  0  0
 20 40  1  0  0  0  0
 21 48  1  0  0  0  0
 22 41  1  0  0  0  0
 23 24  2  0  0  0  0
 23 51  1  0  0  0  0
 24 57  1  0  0  0  0
 25 30  1  0  0  0  0
 25 69  1  0  0  0  0
 26 78  1  0  0  0  0
 27 79  1  0  0  0  0
 28 31  2  0  0  0  0
 28 78  1  0  0  0  0
 29 80  1  0  0  0  0
 30 81  1  0  0  0  0
 31 82  1  0  0  0  0
 32 63  2  0  0  0  0
 33 64  1  0  0  0  0
 33 67  1  0  0  0  0
 34 68  1  0  0  0  0
 34 73  2  0  0  0  0
 35 49  1  0  0  0  0
 35 70  1  0  0  0  0
 35 74  2  0  0  0  0
 36 60  1  0  0  0  0
 36 65  1  0  0  0  0
 36 75  2  0  0  0  0
 37 61  1  0  0  0  0
 37 71  1  0  0  0  0
 37 76  2  0  0  0  0
 38 66  1  0  0  0  0
 38 69  1  0  0  0  0
 38 77  2  0  0  0  0
 39 42  1  0  0  0  0
 40 49  1  0  0  0  0
 41 65  1  0  0  0  0
 42 44  1  0  0  0  0
 43 45  1  0  0  0  0
 43 46  1  0  0  0  0
 44 48  1  0  0  0  0
 45 50  1  0  0  0  0
 46 66  1  0  0  0  0
 47 50  1  0  0  0  0
 47 66  1  0  0  0  0
 48 70  1  0  0  0  0
 49 65  1  0  0  0  0
 50 64  1  0  0  0  0
 52 61  1  0  0  0  0
 53 62  1  0  0  0  0
 54 62  1  0  0  0  0
 55 62  1  0  0  0  0
 56 72  1  0  0  0  0
 57 58  1  0  0  0  0
 58 59  1  0  0  0  0
 59 79  1  0  0  0  0
 60 62  1  0  0  0  0
 60 71  1  0  0  0  0
 61 72  1  0  0  0  0
 63 64  1  0  0  0  0
M  CHG  1  72   1
M  ISO  4  38 100  59 101  69 100  79 101
M  END
> <Batch ID>
0017

> <Smiles>
CNC(C)C(=O)NC(C(=O)N1Cc2cc([101O:1][101CH2:1]CCc3cc(F)c([100NH:0][100C:0](=O)N4CCCC(n5nc(-c6ccc(Oc7ccc(F)cc7F)cc6)c(C(N)=O)c5N)C4)cc3C)ccc2CC1C(=O)NC1CCCc2ccccc21)C(C)(C)C

> <Shape>
0.214

> <Color>
0.061

> <Negative vol penalty>
0.000

$$$$

  -OEChem-04052316013D

 81 89  0     1  0  0  0  0  0999 V2000
  -28.1496  -37.0333   21.2706 C   0  0  0  0  0  0  0  0  0  0  0  0
  -28.5492  -35.7141   21.0823 C   0  0  0  0  0  0  0  0  0  0  0  0
  -26.8721  -12.7094   21.7983 C   0  0  0  0  0  0  0  0  0  0  0  0
  -26.2247  -14.3159   20.1140 C   0  0  0  0  0  0  0  0  0  0  0  0
  -27.0352  -37.3170   22.0589 C   0  0  0  0  0  0  0  0  0  0  0  0
  -27.8352  -34.6779   21.6831 C   0  0  0  0  0  0  0  0  0  0  0  0
  -26.8478  -29.0810   19.4014 C   0  0  0  0  0  0  0  0  0  0  0  0
  -25.5543  -12.2588   21.8751 C   0  0  0  0  0  0  0  0  0  0  0  0
  -24.9068  -13.8653   20.1908 C   0  0  0  0  0  0  0  0  0  0  0  0
  -27.4724  -27.8543   19.6226 C   0  0  0  0  0  0  0  0  0  0  0  0
  -22.4296  -10.4401   22.2541 C   0  0  0  0  0  0  0  0  0  0  0  0
  -22.2157   -9.0619   22.2760 C   0  0  0  0  0  0  0  0  0  0  0  0
  -25.7800  -27.2924   21.2472 C   0  0  0  0  0  0  0  0  0  0  0  0
  -30.3461  -22.6446   21.9249 C   0  0  0  0  0  0  0  0  0  0  0  0
  -23.2894   -8.8611   20.1210 C   0  0  0  0  0  0  0  0  0  0  0  0
  -27.2073  -13.7380   20.9178 C   0  0  0  0  0  0  0  0  0  0  0  0
  -29.5834  -13.7238   19.9897 C   0  0  0  0  0  0  0  0  0  0  0  0
  -26.3014  -36.2832   22.6618 C   0  0  0  0  0  0  0  0  0  0  0  0
  -25.6888  -29.4277   20.1107 C   0  0  0  0  0  0  0  0  0  0  0  0
  -26.7107  -34.9482   22.4813 C   0  0  0  0  0  0  0  0  0  0  0  0
  -25.1412  -28.5230   21.0314 C   0  0  0  0  0  0  0  0  0  0  0  0
  -29.8771  -23.9145   21.5888 C   0  0  0  0  0  0  0  0  0  0  0  0
  -29.2285  -24.1186   20.3708 C   0  0  0  0  0  0  0  0  0  0  0  0
  -29.0490  -23.0528   19.4890 C   0  0  0  0  0  0  0  0  0  0  0  0
  -30.1666  -21.5788   21.0431 C   0  0  0  0  0  0  0  0  0  0  0  0
  -24.5716  -12.8367   21.0713 C   0  0  0  0  0  0  0  0  0  0  0  0
  -26.9402  -26.9610   20.5477 C   0  0  0  0  0  0  0  0  0  0  0  0
  -23.0733  -11.0288   21.1657 C   0  0  0  0  0  0  0  0  0  0  0  0
  -22.6456   -8.2724   21.2095 C   0  0  0  0  0  0  0  0  0  0  0  0
  -23.5033  -10.2393   20.0992 C   0  0  0  0  0  0  0  0  0  0  0  0
  -29.5180  -21.7829   19.8252 C   0  0  0  0  0  0  0  0  0  0  0  0
  -28.5683  -14.2043   20.8385 C   0  0  0  0  0  0  0  0  0  0  0  0
  -30.6804  -14.4905   20.2981 C   0  0  0  0  0  0  0  0  0  0  0  0
  -29.5387  -12.6779   19.0099 C   0  0  0  0  0  0  0  0  0  0  0  0
  -24.9174  -31.7338   22.1577 C   0  0  0  0  0  0  0  0  0  0  0  0
  -21.9500  -30.4533   21.8791 C   0  0  0  0  0  0  0  0  0  0  0  0
  -20.0259  -27.7351   21.1337 C   0  0  0  0  0  0  0  0  0  0  0  0
  -31.3159  -19.9673   22.6015 C   0  0  0  0  0  0  0  0  0  0  0  0
  -25.1318  -36.6420   23.5439 C   0  0  0  0  0  0  0  0  0  0  0  0
  -25.0120  -30.7437   19.8411 C   0  0  0  0  0  0  0  0  0  0  0  0
  -23.8875  -28.8389   21.8038 C   0  0  0  0  0  0  0  0  0  0  0  0
  -24.2078  -35.4634   23.8395 C   0  0  0  0  0  0  0  0  0  0  0  0
  -32.6415  -16.9365   23.9183 C   0  0  0  0  0  0  0  0  0  0  0  0
  -25.0200  -34.2346   24.2357 C   0  0  0  0  0  0  0  0  0  0  0  0
  -31.8440  -15.8481   23.1962 C   0  0  0  0  0  0  0  0  0  0  0  0
  -31.7774  -18.1550   24.2379 C   0  0  0  0  0  0  0  0  0  0  0  0
  -30.2586  -17.6341   22.3694 C   0  0  0  0  0  0  0  0  0  0  0  0
  -25.9473  -33.7952   23.0961 C   0  0  1  0  0  0  0  0  0  0  0  0
  -24.1265  -31.2073   20.9937 C   0  0  1  0  0  0  0  0  0  0  0  0
  -31.1027  -16.4132   21.9687 C   0  0  2  0  0  0  0  0  0  0  0  0
  -30.0829  -25.0391   22.5505 C   0  0  0  0  0  0  0  0  0  0  0  0
  -28.3518  -23.2933   18.1855 C   0  0  0  0  0  0  0  0  0  0  0  0
  -17.6341  -26.9824   21.0338 C   0  0  0  0  0  0  0  0  0  0  0  0
  -21.8924  -30.2406   24.9224 C   0  0  0  0  0  0  0  0  0  0  0  0
  -19.9649  -28.6576   24.7056 C   0  0  0  0  0  0  0  0  0  0  0  0
  -19.7469  -31.0047   23.8892 C   0  0  0  0  0  0  0  0  0  0  0  0
  -20.2023  -27.1740   18.2332 C   0  0  0  0  0  0  0  0  0  0  0  0
  -28.7280  -25.4869   20.0123 C   0  0  0  0  0  0  0  0  0  1  0  0
  -21.1808  -29.3712   22.5978 C   0  0  1  0  0  0  0  0  0  0  0  0
  -18.7962  -27.5813   20.2570 C   0  0  2  0  0  0  0  0  0  0  0  0
  -20.7210  -29.8131   24.0158 C   0  0  0  0  0  0  0  0  0  0  0  0
  -28.9835  -15.1992   21.6270 N   0  0  0  0  0  0  0  0  0  0  0  0
  -30.2718  -15.3500   21.2751 N   0  0  0  0  0  0  0  0  0  0  0  0
  -23.2660  -30.1408   21.5097 N   0  0  0  0  0  0  0  0  0  0  0  0
  -31.1096  -18.6380   23.0272 N   0  0  0  0  0  0  0  0  0  0  0  0
  -31.9452  -14.5066   19.8263 N   0  0  0  0  0  0  0  0  0  0  0  0
  -28.3316  -11.9914   18.8202 N   0  0  0  0  0  0  0  0  0  0  0  0
  -30.6555  -20.3035   21.4202 N   0  0  0  0  0  0  0  0  0  0  0  0
  -25.1993  -33.0844   22.0814 N   0  0  0  0  0  0  0  0  0  0  0  0
  -20.0900  -28.9867   21.7086 N   0  0  0  0  0  0  0  0  0  0  0  0
  -19.0942  -26.6932   19.0979 N   0  3  0  0  0  0  0  0  0  0  0  0
  -30.5439  -12.3505   18.3347 O   0  0  0  0  0  0  0  0  0  0  0  0
  -25.2461  -30.9716   23.0591 O   0  0  0  0  0  0  0  0  0  0  0  0
  -21.4011  -31.5334   21.6476 O   0  0  0  0  0  0  0  0  0  0  0  0
  -20.8455  -26.8336   21.2955 O   0  0  0  0  0  0  0  0  0  0  0  0
  -32.0478  -20.7417   23.2233 O   0  0  0  0  0  0  0  0  0  0  0  0
  -23.2857  -12.3971   21.1458 O   0  0  0  0  0  0  0  0  0  0  0  0
  -27.5482  -25.7633   20.7659 O   0  0  0  0  0  0  0  0  0  1  0  0
  -22.4415   -6.9488   21.2313 F   0  0  0  0  0  0  0  0  0  0  0  0
  -24.1234  -10.7990   19.0513 F   0  0  0  0  0  0  0  0  0  0  0  0
  -29.2928  -20.4585   18.7282 Cl  0  0  0  0  0  0  0  0  0  0  0  0
  1  2  1  0  0  0  0
  1  5  2  0  0  0  0
  2  6  2  0  0  0  0
  3  8  2  0  0  0  0
  3 16  1  0  0  0  0
  4  9  1  0  0  0  0
  4 16  2  0  0  0  0
  5 18  1  0  0  0  0
  6 20  1  0  0  0  0
  7 10  2  0  0  0  0
  7 19  1  0  0  0  0
  8 26  1  0  0  0  0
  9 26  2  0  0  0  0
 10 27  1  0  0  0  0
 11 12  2  0  0  0  0
 11 28  1  0  0  0  0
 12 29  1  0  0  0  0
 13 21  1  0  0  0  0
 13 27  2  0  0  0  0
 14 22  2  0  0  0  0
 14 25  1  0  0  0  0
 15 29  2  0  0  0  0
 15 30  1  0  0  0  0
 16 32  1  0  0  0  0
 17 32  1  0  0  0  0
 17 33  2  0  0  0  0
 17 34  1  0  0  0  0
 18 20  2  0  0  0  0
 18 39  1  0  0  0  0
 19 21  2  0  0  0  0
 19 40  1  0  0  0  0
 20 48  1  0  0  0  0
 21 41  1  0  0  0  0
 22 23  1  0  0  0  0
 22 51  1  0  0  0  0
 23 24  2  0  0  0  0
 23 58  1  0  0  0  0
 24 31  1  0  0  0  0
 24 52  1  0  0  0  0
 25 31  2  0  0  0  0
 25 68  1  0  0  0  0
 26 77  1  0  0  0  0
 27 78  1  0  0  0  0
 28 30  2  0  0  0  0
 28 77  1  0  0  0  0
 29 79  1  0  0  0  0
 30 80  1  0  0  0  0
 31 81  1  0  0  0  0
 32 62  2  0  0  0  0
 33 63  1  0  0  0  0
 33 66  1  0  0  0  0
 34 67  1  0  0  0  0
 34 72  2  0  0  0  0
 35 49  1  0  0  0  0
 35 69  1  0  0  0  0
 35 73  2  0  0  0  0
 36 59  1  0  0  0  0
 36 64  1  0  0  0  0
 36 74  2  0  0  0  0
 37 60  1  0  0  0  0
 37 70  1  0  0  0  0
 37 75  2  0  0  0  0
 38 65  1  0  0  0  0
 38 68  1  0  0  0  0
 38 76  2  0  0  0  0
 39 42  1  0  0  0  0
 40 49  1  0  0  0  0
 41 64  1  0  0  0  0
 42 44  1  0  0  0  0
 43 45  1  0  0  0  0
 43 46  1  0  0  0  0
 44 48  1  0  0  0  0
 45 50  1  0  0  0  0
 46 65  1  0  0  0  0
 47 50  1  0  0  0  0
 47 65  1  0  0  0  0
 48 69  1  0  0  0  0
 49 64  1  0  0  0  0
 50 63  1  0  0  0  0
 53 60  1  0  0  0  0
 54 61  1  0  0  0  0
 55 61  1  0  0  0  0
 56 61  1  0  0  0  0
 57 71  1  0  0  0  0
 58 78  1  0  0  0  0
 59 61  1  0  0  0  0
 59 70  1  0  0  0  0
 60 71  1  0  0  0  0
 62 63  1  0  0  0  0
M  CHG  1  71   1
M  ISO  4  38 100  58 101  68 100  78 101
M  END
> <Batch ID>
0017

> <Smiles>
CNC(C)C(=O)NC(C(=O)N1Cc2cc([101O:1][101CH2:1]c3c(C)cc([100NH:0][100C:0](=O)N4CCCC(n5nc(-c6ccc(Oc7ccc(F)cc7F)cc6)c(C(N)=O)c5N)C4)c(Cl)c3C)ccc2CC1C(=O)NC1CCCc2ccccc21)C(C)(C)C

> <Shape>
0.349

> <Color>
0.081

> <Negative vol penalty>
0.000

$$$$

  -OEChem-04052316013D

 87 95  0     1  0  0  0  0  0999 V2000
  -30.6015  -34.2569   23.9720 C   0  0  0  0  0  0  0  0  0  0  0  0
  -29.8621  -33.1539   23.5573 C   0  0  0  0  0  0  0  0  0  0  0  0
  -24.4962   -9.4186   21.6698 C   0  0  0  0  0  0  0  0  0  0  0  0
  -24.6194  -10.7270   23.6971 C   0  0  0  0  0  0  0  0  0  0  0  0
  -30.0359  -35.1858   24.8444 C   0  0  0  0  0  0  0  0  0  0  0  0
  -28.5569  -32.9785   24.0156 C   0  0  0  0  0  0  0  0  0  0  0  0
  -25.3601  -31.6566   20.3173 C   0  0  0  0  0  0  0  0  0  0  0  0
  -24.1478   -8.2935   22.4170 C   0  0  0  0  0  0  0  0  0  0  0  0
  -24.2709   -9.6019   24.4444 C   0  0  0  0  0  0  0  0  0  0  0  0
  -25.3844  -30.3267   19.8998 C   0  0  0  0  0  0  0  0  0  0  0  0
  -21.3803   -7.0582   23.9163 C   0  0  0  0  0  0  0  0  0  0  0  0
  -20.3280   -6.2705   23.4496 C   0  0  0  0  0  0  0  0  0  0  0  0
  -23.4326  -29.8753   21.2437 C   0  0  0  0  0  0  0  0  0  0  0  0
  -28.6041  -20.9751   18.8447 C   0  0  0  0  0  0  0  0  0  0  0  0
  -21.8178   -4.3751   23.2896 C   0  0  0  0  0  0  0  0  0  0  0  0
  -24.7321  -10.6354   22.3099 C   0  0  0  0  0  0  0  0  0  0  0  0
  -24.2204  -12.7498   20.9775 C   0  0  0  0  0  0  0  0  0  0  0  0
  -28.7198  -35.0269   25.3061 C   0  0  0  0  0  0  0  0  0  0  0  0
  -24.3767  -32.1041   21.2112 C   0  0  0  0  0  0  0  0  0  0  0  0
  -27.9736  -33.9055   24.8961 C   0  0  0  0  0  0  0  0  0  0  0  0
  -23.3965  -31.2121   21.6690 C   0  0  0  0  0  0  0  0  0  0  0  0
  -28.6755  -19.5953   19.0360 C   0  0  0  0  0  0  0  0  0  0  0  0
  -28.1428  -19.8920   21.3739 C   0  0  0  0  0  0  0  0  0  0  0  0
  -28.3021  -21.8134   19.9180 C   0  0  0  0  0  0  0  0  0  0  0  0
  -28.4449  -19.0537   20.3006 C   0  0  0  0  0  0  0  0  0  0  0  0
  -24.0351   -8.3851   23.8043 C   0  0  0  0  0  0  0  0  0  0  0  0
  -24.4224  -29.4351   20.3652 C   0  0  0  0  0  0  0  0  0  0  0  0
  -22.6514   -6.5044   24.0695 C   0  0  0  0  0  0  0  0  0  0  0  0
  -20.5467   -4.9290   23.1363 C   0  0  0  0  0  0  0  0  0  0  0  0
  -22.8701   -5.1629   23.7562 C   0  0  0  0  0  0  0  0  0  0  0  0
  -28.0715  -21.2718   21.1825 C   0  0  0  0  0  0  0  0  0  0  0  0
  -25.0926  -11.7978   21.5386 C   0  0  0  0  0  0  0  0  0  0  0  0
  -25.0493  -13.6468   20.3493 C   0  0  0  0  0  0  0  0  0  0  0  0
  -22.7888  -12.8172   21.0204 C   0  0  0  0  0  0  0  0  0  0  0  0
  -24.4018  -33.3334   24.1424 C   0  0  0  0  0  0  0  0  0  0  0  0
  -21.2269  -33.7067   23.5921 C   0  0  0  0  0  0  0  0  0  0  0  0
  -27.0261  -23.9220   19.9355 C   0  0  0  0  0  0  0  0  0  0  0  0
  -18.4469  -32.7138   21.8796 C   0  0  0  0  0  0  0  0  0  0  0  0
  -29.6201  -16.8256   20.2702 C   0  0  0  0  0  0  0  0  0  0  0  0
  -28.1676  -36.0323   26.2854 C   0  0  0  0  0  0  0  0  0  0  0  0
  -24.3482  -33.5482   21.6310 C   0  0  0  0  0  0  0  0  0  0  0  0
  -22.3073  -31.6473   22.6138 C   0  0  0  0  0  0  0  0  0  0  0  0
  -26.6491  -35.9718   26.4293 C   0  0  0  0  0  0  0  0  0  0  0  0
  -30.0052  -13.4086   19.3470 C   0  0  0  0  0  0  0  0  0  0  0  0
  -26.1849  -34.5273   26.5872 C   0  0  0  0  0  0  0  0  0  0  0  0
  -28.6897  -12.7632   19.7887 C   0  0  0  0  0  0  0  0  0  0  0  0
  -30.4635  -14.4888   20.3251 C   0  0  0  0  0  0  0  0  0  0  0  0
  -28.1462  -14.8743   21.0674 C   0  0  0  0  0  0  0  0  0  0  0  0
  -26.5462  -33.6937   25.3519 C   0  0  1  0  0  0  0  0  0  0  0  0
  -23.6074  -33.7738   22.9455 C   0  0  1  0  0  0  0  0  0  0  0  0
  -27.6109  -13.8249   20.0795 C   0  0  2  0  0  0  0  0  0  0  0  0
  -29.0010  -18.7235   17.8666 C   0  0  0  0  0  0  0  0  0  0  0  0
  -27.8977  -19.2950   22.7265 C   0  0  0  0  0  0  0  0  0  0  0  0
  -15.9897  -33.1792   21.6731 C   0  0  0  0  0  0  0  0  0  0  0  0
  -20.7255  -32.2038   26.1998 C   0  0  0  0  0  0  0  0  0  0  0  0
  -18.3538  -31.8705   25.4704 C   0  0  0  0  0  0  0  0  0  0  0  0
  -19.2340  -34.1768   25.8294 C   0  0  0  0  0  0  0  0  0  0  0  0
  -29.4347  -23.9334   19.1779 C   0  0  0  0  0  0  0  0  0  0  0  0
  -18.7154  -33.4930   19.0371 C   0  0  0  0  0  0  0  0  0  0  0  0
  -27.0227  -25.4159   19.6197 C   0  0  0  0  0  0  0  0  0  0  0  0
  -25.6806  -26.0804   19.9229 C   0  0  0  0  0  0  0  0  0  0  0  0
  -25.7179  -27.5760   19.6433 C   0  0  0  0  0  0  0  0  0  1  0  0
  -19.9970  -32.8592   23.8111 C   0  0  1  0  0  0  0  0  0  0  0  0
  -17.3788  -33.5056   21.1471 C   0  0  2  0  0  0  0  0  0  0  0  0
  -19.5991  -32.7686   25.3114 C   0  0  0  0  0  0  0  0  0  0  0  0
  -26.3772  -12.0650   21.2887 N   0  0  0  0  0  0  0  0  0  0  0  0
  -26.3183  -13.1950   20.5636 N   0  0  0  0  0  0  0  0  0  0  0  0
  -22.3257  -33.0678   23.0003 N   0  0  0  0  0  0  0  0  0  0  0  0
  -29.3917  -15.4615   20.5490 N   0  0  0  0  0  0  0  0  0  0  0  0
  -24.8093  -14.7700   19.6399 N   0  0  0  0  0  0  0  0  0  0  0  0
  -22.0931  -11.8142   21.7090 N   0  0  0  0  0  0  0  0  0  0  0  0
  -28.5182  -17.6515   20.4905 N   0  0  0  0  0  0  0  0  0  0  0  0
  -25.6235  -33.9662   24.2707 N   0  0  0  0  0  0  0  0  0  0  0  0
  -18.9591  -33.4159   22.9502 N   0  0  0  0  0  0  0  0  0  0  0  0
  -28.2372  -23.2409   19.6792 N   0  0  0  0  0  0  0  0  0  0  0  0
  -17.4138  -33.1975   19.6895 N   0  3  0  0  0  0  0  0  0  0  0  0
  -22.1449  -13.7306   20.4506 O   0  0  0  0  0  0  0  0  0  0  0  0
  -23.9399  -32.4834   24.8947 O   0  0  0  0  0  0  0  0  0  0  0  0
  -21.2108  -34.8938   23.9270 O   0  0  0  0  0  0  0  0  0  0  0  0
  -25.9944  -23.3919   20.3554 O   0  0  0  0  0  0  0  0  0  0  0  0
  -18.7898  -31.5839   21.5386 O   0  0  0  0  0  0  0  0  0  0  0  0
  -30.7042  -17.2274   19.8399 O   0  0  0  0  0  0  0  0  0  0  0  0
  -23.6949   -7.2875   24.5337 O   0  0  0  0  0  0  0  0  0  0  0  0
  -24.4442  -28.1362   19.9598 O   0  0  0  0  0  0  0  0  0  1  0  0
  -19.5358   -4.1723   22.6896 F   0  0  0  0  0  0  0  0  0  0  0  0
  -24.0887   -4.6250   23.9025 F   0  0  0  0  0  0  0  0  0  0  0  0
  -27.6964  -22.3130   22.5180 Cl  0  0  0  0  0  0  0  0  0  0  0  0
  1  2  1  0  0  0  0
  1  5  2  0  0  0  0
  2  6  2  0  0  0  0
  3  8  2  0  0  0  0
  3 16  1  0  0  0  0
  4  9  1  0  0  0  0
  4 16  2  0  0  0  0
  5 18  1  0  0  0  0
  6 20  1  0  0  0  0
  7 10  2  0  0  0  0
  7 19  1  0  0  0  0
  8 26  1  0  0  0  0
  9 26  2  0  0  0  0
 10 27  1  0  0  0  0
 11 12  2  0  0  0  0
 11 28  1  0  0  0  0
 12 29  1  0  0  0  0
 13 21  1  0  0  0  0
 13 27  2  0  0  0  0
 14 22  2  0  0  0  0
 14 24  1  0  0  0  0
 15 29  2  0  0  0  0
 15 30  1  0  0  0  0
 16 32  1  0  0  0  0
 17 32  1  0  0  0  0
 17 33  2  0  0  0  0
 17 34  1  0  0  0  0
 18 20  2  0  0  0  0
 18 40  1  0  0  0  0
 19 21  2  0  0  0  0
 19 41  1  0  0  0  0
 20 49  1  0  0  0  0
 21 42  1  0  0  0  0
 22 25  1  0  0  0  0
 22 52  1  0  0  0  0
 23 25  2  0  0  0  0
 23 31  1  0  0  0  0
 23 53  1  0  0  0  0
 24 31  2  0  0  0  0
 24 75  1  0  0  0  0
 25 72  1  0  0  0  0
 26 83  1  0  0  0  0
 27 84  1  0  0  0  0
 28 30  2  0  0  0  0
 28 83  1  0  0  0  0
 29 85  1  0  0  0  0
 30 86  1  0  0  0  0
 31 87  1  0  0  0  0
 32 66  2  0  0  0  0
 33 67  1  0  0  0  0
 33 70  1  0  0  0  0
 34 71  1  0  0  0  0
 34 77  2  0  0  0  0
 35 50  1  0  0  0  0
 35 73  1  0  0  0  0
 35 78  2  0  0  0  0
 36 63  1  0  0  0  0
 36 68  1  0  0  0  0
 36 79  2  0  0  0  0
 37 60  1  0  0  0  0
 37 75  1  0  0  0  0
 37 80  2  0  0  0  0
 38 64  1  0  0  0  0
 38 74  1  0  0  0  0
 38 81  2  0  0  0  0
 39 69  1  0  0  0  0
 39 72  1  0  0  0  0
 39 82  2  0  0  0  0
 40 43  1  0  0  0  0
 41 50  1  0  0  0  0
 42 68  1  0  0  0  0
 43 45  1  0  0  0  0
 44 46  1  0  0  0  0
 44 47  1  0  0  0  0
 45 49  1  0  0  0  0
 46 51  1  0  0  0  0
 47 69  1  0  0  0  0
 48 51  1  0  0  0  0
 48 69  1  0  0  0  0
 49 73  1  0  0  0  0
 50 68  1  0  0  0  0
 51 67  1  0  0  0  0
 54 64  1  0  0  0  0
 55 65  1  0  0  0  0
 56 65  1  0  0  0  0
 57 65  1  0  0  0  0
 58 75  1  0  0  0  0
 59 76  1  0  0  0  0
 60 61  1  0  0  0  0
 61 62  1  0  0  0  0
 62 84  1  0  0  0  0
 63 65  1  0  0  0  0
 63 74  1  0  0  0  0
 64 76  1  0  0  0  0
 66 67  1  0  0  0  0
M  CHG  1  76   1
M  ISO  4  39 100  62 101  72 100  84 101
M  END
> <Batch ID>
0017

> <Smiles>
CNC(C)C(=O)NC(C(=O)N1Cc2cc([101O:1][101CH2:1]CCC(=O)N(C)c3cc(C)c([100NH:0][100C:0](=O)N4CCCC(n5nc(-c6ccc(Oc7ccc(F)cc7F)cc6)c(C(N)=O)c5N)C4)c(C)c3Cl)ccc2CC1C(=O)NC1CCCc2ccccc21)C(C)(C)C

> <Shape>
0.284

> <Color>
0.125

> <Negative vol penalty>
0.000

$$$$

  -OEChem-04052316013D

 86 94  0     1  0  0  0  0  0999 V2000
  -33.3674  -33.0743   15.3330 C   0  0  0  0  0  0  0  0  0  0  0  0
  -33.6896  -31.7580   15.6479 C   0  0  0  0  0  0  0  0  0  0  0  0
  -23.0749   -9.8629   19.9441 C   0  0  0  0  0  0  0  0  0  0  0  0
  -23.8344   -9.8759   22.2375 C   0  0  0  0  0  0  0  0  0  0  0  0
  -32.3738  -33.7384   16.0510 C   0  0  0  0  0  0  0  0  0  0  0  0
  -33.0190  -31.1055   16.6818 C   0  0  0  0  0  0  0  0  0  0  0  0
  -31.5381  -25.1686   16.9397 C   0  0  0  0  0  0  0  0  0  0  0  0
  -22.3323   -8.7095   20.1965 C   0  0  0  0  0  0  0  0  0  0  0  0
  -23.0918   -8.7225   22.4900 C   0  0  0  0  0  0  0  0  0  0  0  0
  -32.1388  -24.0785   17.5679 C   0  0  0  0  0  0  0  0  0  0  0  0
  -19.8645   -7.9224   23.0938 C   0  0  0  0  0  0  0  0  0  0  0  0
  -19.1074   -7.8842   24.2647 C   0  0  0  0  0  0  0  0  0  0  0  0
  -30.6467  -24.3454   19.4444 C   0  0  0  0  0  0  0  0  0  0  0  0
  -31.5182  -19.3772   22.7168 C   0  0  0  0  0  0  0  0  0  0  0  0
  -20.3509   -5.9498   25.0057 C   0  0  0  0  0  0  0  0  0  0  0  0
  -23.8260  -10.4461   20.9646 C   0  0  0  0  0  0  0  0  0  0  0  0
  -24.1650  -12.9713   20.8389 C   0  0  0  0  0  0  0  0  0  0  0  0
  -31.6840  -33.0906   17.0879 C   0  0  0  0  0  0  0  0  0  0  0  0
  -30.4927  -25.8632   17.5650 C   0  0  0  0  0  0  0  0  0  0  0  0
  -32.0161  -31.7621   17.4152 C   0  0  0  0  0  0  0  0  0  0  0  0
  -30.0327  -25.4424   18.8209 C   0  0  0  0  0  0  0  0  0  0  0  0
  -30.2530  -18.9686   23.1236 C   0  0  0  0  0  0  0  0  0  0  0  0
  -29.7595  -17.7367   22.7086 C   0  0  0  0  0  0  0  0  0  0  0  0
  -22.3407   -8.1393   21.4695 C   0  0  0  0  0  0  0  0  0  0  0  0
  -31.6950  -23.6685   18.8217 C   0  0  0  0  0  0  0  0  0  0  0  0
  -20.8647   -6.9742   22.8788 C   0  0  0  0  0  0  0  0  0  0  0  0
  -19.3506   -6.8980   25.2207 C   0  0  0  0  0  0  0  0  0  0  0  0
  -21.1079   -5.9880   23.8348 C   0  0  0  0  0  0  0  0  0  0  0  0
  -24.5938  -11.6372   20.7043 C   0  0  0  0  0  0  0  0  0  0  0  0
  -32.2443  -18.5240   21.9015 C   0  0  0  0  0  0  0  0  0  0  0  0
  -30.5642  -16.9571   21.8935 C   0  0  0  0  0  0  0  0  0  0  0  0
  -25.2564  -13.7212   20.4741 C   0  0  0  0  0  0  0  0  0  0  0  0
  -22.8939  -13.4867   21.2565 C   0  0  0  0  0  0  0  0  0  0  0  0
  -30.0757  -28.8441   18.5869 C   0  0  0  0  0  0  0  0  0  0  0  0
  -27.0506  -27.8151   19.1461 C   0  0  0  0  0  0  0  0  0  0  0  0
  -24.9457  -25.1973   19.7485 C   0  0  0  0  0  0  0  0  0  0  0  0
  -30.7214  -14.7734   20.6473 C   0  0  0  0  0  0  0  0  0  0  0  0
  -30.6505  -33.8649   17.8669 C   0  0  0  0  0  0  0  0  0  0  0  0
  -29.8375  -27.0206   16.8624 C   0  0  0  0  0  0  0  0  0  0  0  0
  -28.9002  -26.1417   19.5258 C   0  0  0  0  0  0  0  0  0  0  0  0
  -29.7275  -32.9802   18.7009 C   0  0  0  0  0  0  0  0  0  0  0  0
  -29.6100  -12.3530   18.2843 C   0  0  0  0  0  0  0  0  0  0  0  0
  -30.5363  -31.9407   19.4704 C   0  0  0  0  0  0  0  0  0  0  0  0
  -28.1707  -12.0608   18.7143 C   0  0  0  0  0  0  0  0  0  0  0  0
  -30.5247  -12.5855   19.4855 C   0  0  0  0  0  0  0  0  0  0  0  0
  -28.6168  -13.3109   20.8649 C   0  0  0  0  0  0  0  0  0  0  0  0
  -31.2939  -31.0123   18.5136 C   0  0  1  0  0  0  0  0  0  0  0  0
  -29.1239  -27.9727   17.8171 C   0  0  1  0  0  0  0  0  0  0  0  0
  -27.6443  -13.1339   19.6873 C   0  0  2  0  0  0  0  0  0  0  0  0
  -29.4472  -19.8673   24.0026 C   0  0  0  0  0  0  0  0  0  0  0  0
  -28.4039  -17.2803   23.1374 C   0  0  0  0  0  0  0  0  0  0  0  0
  -34.7849  -18.0133   23.6012 C   0  0  0  0  0  0  0  0  0  0  0  0
  -22.5338  -24.6727   20.2011 C   0  0  0  0  0  0  0  0  0  0  0  0
  -34.3454  -17.8950   20.5249 C   0  0  0  0  0  0  0  0  0  0  0  0
  -27.3722  -28.8188   22.0095 C   0  0  0  0  0  0  0  0  0  0  0  0
  -25.3742  -27.4483   22.6404 C   0  0  0  0  0  0  0  0  0  0  0  0
  -25.1433  -29.2964   20.9809 C   0  0  0  0  0  0  0  0  0  0  0  0
  -24.7306  -23.5308   17.3122 C   0  0  0  0  0  0  0  0  0  0  0  0
  -34.5755  -19.2029   22.6677 C   0  0  0  0  0  0  0  0  0  0  0  0
  -32.7521  -20.2527   19.3361 C   0  0  0  0  0  0  0  0  0  0  0  0
  -33.5694  -20.2934   20.6337 C   0  0  0  0  0  0  0  0  0  0  0  0
  -32.8193  -21.5848   18.5981 C   0  0  0  0  0  0  0  0  0  1  0  0
  -26.3385  -27.1715   20.3113 C   0  0  1  0  0  0  0  0  0  0  0  0
  -23.6096  -24.8175   19.1361 C   0  0  2  0  0  0  0  0  0  0  0  0
  -33.6502  -18.9438   21.4294 C   0  0  2  0  0  0  0  0  0  0  0  0
  -26.0797  -28.1716   21.4734 C   0  0  0  0  0  0  0  0  0  0  0  0
  -25.8588  -11.5419   20.2864 N   0  0  0  0  0  0  0  0  0  0  0  0
  -31.7983  -17.3202   21.4779 N   0  0  0  0  0  0  0  0  0  0  0  0
  -26.2343  -12.8256   20.1552 N   0  0  0  0  0  0  0  0  0  0  0  0
  -28.2961  -27.2717   18.8008 N   0  0  0  0  0  0  0  0  0  0  0  0
  -29.9645  -13.6177   20.3605 N   0  0  0  0  0  0  0  0  0  0  0  0
  -25.4653  -15.0528   20.3982 N   0  0  0  0  0  0  0  0  0  0  0  0
  -21.8830  -12.5771   21.5957 N   0  0  0  0  0  0  0  0  0  0  0  0
  -30.0729  -15.6995   21.4635 N   0  0  0  0  0  0  0  0  0  0  0  0
  -30.3966  -30.0271   17.9491 N   0  0  0  0  0  0  0  0  0  0  0  0
  -25.1297  -26.5637   19.7657 N   0  0  0  0  0  0  0  0  0  0  0  0
  -23.7240  -23.5240   18.4047 N   0  3  0  0  0  0  0  0  0  0  0  0
  -22.6563  -14.7171   21.3111 O   0  0  0  0  0  0  0  0  0  0  0  0
  -30.4871  -28.4714   19.6794 O   0  0  0  0  0  0  0  0  0  0  0  0
  -26.5181  -28.7605   18.5593 O   0  0  0  0  0  0  0  0  0  0  0  0
  -25.7445  -24.3652   20.1729 O   0  0  0  0  0  0  0  0  0  0  0  0
  -31.8504  -14.9423   20.1794 O   0  0  0  0  0  0  0  0  0  0  0  0
  -21.6160   -7.0139   21.7162 O   0  0  0  0  0  0  0  0  0  0  0  0
  -32.2800  -22.6052   19.4373 O   0  0  0  0  0  0  0  0  0  1  0  0
  -18.6245   -6.8624   26.3457 F   0  0  0  0  0  0  0  0  0  0  0  0
  -22.0683   -5.0751   23.6343 F   0  0  0  0  0  0  0  0  0  0  0  0
  1  2  1  0  0  0  0
  1  5  2  0  0  0  0
  2  6  2  0  0  0  0
  3  8  2  0  0  0  0
  3 16  1  0  0  0  0
  4  9  1  0  0  0  0
  4 16  2  0  0  0  0
  5 18  1  0  0  0  0
  6 20  1  0  0  0  0
  7 10  2  0  0  0  0
  7 19  1  0  0  0  0
  8 24  1  0  0  0  0
  9 24  2  0  0  0  0
 10 25  1  0  0  0  0
 11 12  2  0  0  0  0
 11 26  1  0  0  0  0
 12 27  1  0  0  0  0
 13 21  1  0  0  0  0
 13 25  2  0  0  0  0
 14 22  2  0  0  0  0
 14 30  1  0  0  0  0
 15 27  2  0  0  0  0
 15 28  1  0  0  0  0
 16 29  1  0  0  0  0
 17 29  1  0  0  0  0
 17 32  2  0  0  0  0
 17 33  1  0  0  0  0
 18 20  2  0  0  0  0
 18 38  1  0  0  0  0
 19 21  2  0  0  0  0
 19 39  1  0  0  0  0
 20 47  1  0  0  0  0
 21 40  1  0  0  0  0
 22 23  1  0  0  0  0
 22 50  1  0  0  0  0
 23 31  2  0  0  0  0
 23 51  1  0  0  0  0
 24 83  1  0  0  0  0
 25 84  1  0  0  0  0
 26 28  2  0  0  0  0
 26 83  1  0  0  0  0
 27 85  1  0  0  0  0
 28 86  1  0  0  0  0
 29 67  2  0  0  0  0
 30 65  1  0  0  0  0
 30 68  2  0  0  0  0
 31 68  1  0  0  0  0
 31 74  1  0  0  0  0
 32 69  1  0  0  0  0
 32 72  1  0  0  0  0
 33 73  1  0  0  0  0
 33 78  2  0  0  0  0
 34 48  1  0  0  0  0
 34 75  1  0  0  0  0
 34 79  2  0  0  0  0
 35 63  1  0  0  0  0
 35 70  1  0  0  0  0
 35 80  2  0  0  0  0
 36 64  1  0  0  0  0
 36 76  1  0  0  0  0
 36 81  2  0  0  0  0
 37 71  1  0  0  0  0
 37 74  1  0  0  0  0
 37 82  2  0  0  0  0
 38 41  1  0  0  0  0
 39 48  1  0  0  0  0
 40 70  1  0  0  0  0
 41 43  1  0  0  0  0
 42 44  1  0  0  0  0
 42 45  1  0  0  0  0
 43 47  1  0  0  0  0
 44 49  1  0  0  0  0
 45 71  1  0  0  0  0
 46 49  1  0  0  0  0
 46 71  1  0  0  0  0
 47 75  1  0  0  0  0
 48 70  1  0  0  0  0
 49 69  1  0  0  0  0
 52 59  1  0  0  0  0
 53 64  1  0  0  0  0
 54 65  1  0  0  0  0
 55 66  1  0  0  0  0
 56 66  1  0  0  0  0
 57 66  1  0  0  0  0
 58 77  1  0  0  0  0
 59 65  1  0  0  0  0
 60 61  1  0  0  0  0
 60 62  1  0  0  0  0
 61 65  1  0  0  0  0
 62 84  1  0  0  0  0
 63 66  1  0  0  0  0
 63 76  1  0  0  0  0
 64 77  1  0  0  0  0
 67 69  1  0  0  0  0
M  CHG  1  77   1
M  ISO  4  37 100  62 101  74 100  84 101
M  END
> <Batch ID>
0017

> <Smiles>
CCC(C)(CC[101CH2:1][101O:1]c1ccc2c(c1)CN(C(=O)C(NC(=O)C(C)NC)C(C)(C)C)C(C(=O)NC1CCCc3ccccc31)C2)c1cc(C)c(C)c([100NH:0][100C:0](=O)N2CCCC(n3nc(-c4ccc(Oc5ccc(F)cc5F)cc4)c(C(N)=O)c3N)C2)n1

> <Shape>
0.252

> <Color>
0.184

> <Negative vol penalty>
0.000

$$$$

  -OEChem-04052316013D

 84 93  0     1  0  0  0  0  0999 V2000
  -29.5142  -28.5056   15.7917 C   0  0  0  0  0  0  0  0  0  0  0  0
  -29.2911  -27.2901   16.4305 C   0  0  0  0  0  0  0  0  0  0  0  0
  -23.0764   -9.8649   19.9434 C   0  0  0  0  0  0  0  0  0  0  0  0
  -23.8341   -9.8769   22.2375 C   0  0  0  0  0  0  0  0  0  0  0  0
  -30.3609  -29.4506   16.3697 C   0  0  0  0  0  0  0  0  0  0  0  0
  -29.9155  -27.0184   17.6474 C   0  0  0  0  0  0  0  0  0  0  0  0
  -27.6240  -23.7925   22.3216 C   0  0  0  0  0  0  0  0  0  0  0  0
  -22.3323   -8.7123   20.1951 C   0  0  0  0  0  0  0  0  0  0  0  0
  -23.0900   -8.7243   22.4892 C   0  0  0  0  0  0  0  0  0  0  0  0
  -27.7996  -22.4690   22.7232 C   0  0  0  0  0  0  0  0  0  0  0  0
  -19.8613   -7.9276   23.0904 C   0  0  0  0  0  0  0  0  0  0  0  0
  -19.1032   -7.8902   24.2607 C   0  0  0  0  0  0  0  0  0  0  0  0
  -29.5011  -23.1738   24.2812 C   0  0  0  0  0  0  0  0  0  0  0  0
  -20.3440   -5.9544   25.0025 C   0  0  0  0  0  0  0  0  0  0  0  0
  -23.8273  -10.4472   20.9645 C   0  0  0  0  0  0  0  0  0  0  0  0
  -24.1691  -12.9721   20.8393 C   0  0  0  0  0  0  0  0  0  0  0  0
  -30.9884  -29.1942   17.5990 C   0  0  0  0  0  0  0  0  0  0  0  0
  -28.3946  -24.8170   22.8899 C   0  0  0  0  0  0  0  0  0  0  0  0
  -30.7724  -27.9603   18.2417 C   0  0  0  0  0  0  0  0  0  0  0  0
  -29.3316  -24.5098   23.8868 C   0  0  0  0  0  0  0  0  0  0  0  0
  -30.2961  -17.8315   22.8202 C   0  0  0  0  0  0  0  0  0  0  0  0
  -22.3391   -8.1420   21.4681 C   0  0  0  0  0  0  0  0  0  0  0  0
  -28.7402  -22.1591   23.7011 C   0  0  0  0  0  0  0  0  0  0  0  0
  -20.8607   -6.9784   22.8761 C   0  0  0  0  0  0  0  0  0  0  0  0
  -19.3446   -6.9036   25.2168 C   0  0  0  0  0  0  0  0  0  0  0  0
  -21.1021   -5.9918   23.8322 C   0  0  0  0  0  0  0  0  0  0  0  0
  -24.5966  -11.6376   20.7049 C   0  0  0  0  0  0  0  0  0  0  0  0
  -31.2879  -18.2249   23.7206 C   0  0  0  0  0  0  0  0  0  0  0  0
  -25.2616  -13.7209   20.4755 C   0  0  0  0  0  0  0  0  0  0  0  0
  -30.6752  -16.5940   22.3869 C   0  0  0  0  0  0  0  0  0  0  0  0
  -22.8982  -13.4888   21.2559 C   0  0  0  0  0  0  0  0  0  0  0  0
  -30.5037  -26.9184   21.7766 C   0  0  0  0  0  0  0  0  0  0  0  0
  -30.3608  -28.0778   24.8028 C   0  0  0  0  0  0  0  0  0  0  0  0
  -29.6829  -27.5008   28.0974 C   0  0  0  0  0  0  0  0  0  0  0  0
  -30.7276  -14.7670   20.6532 C   0  0  0  0  0  0  0  0  0  0  0  0
  -31.9323  -30.2273   18.1616 C   0  0  0  0  0  0  0  0  0  0  0  0
  -28.1743  -26.2429   22.4649 C   0  0  0  0  0  0  0  0  0  0  0  0
  -30.1698  -25.5755   24.5427 C   0  0  0  0  0  0  0  0  0  0  0  0
  -32.2608  -30.0129   19.6368 C   0  0  0  0  0  0  0  0  0  0  0  0
  -29.6155  -12.3482   18.2889 C   0  0  0  0  0  0  0  0  0  0  0  0
  -32.6018  -28.5496   19.9006 C   0  0  0  0  0  0  0  0  0  0  0  0
  -28.1754  -12.0574   18.7178 C   0  0  0  0  0  0  0  0  0  0  0  0
  -30.5295  -12.5795   19.4910 C   0  0  0  0  0  0  0  0  0  0  0  0
  -28.6212  -13.3068   20.8689 C   0  0  0  0  0  0  0  0  0  0  0  0
  -31.4120  -27.6386   19.5750 C   0  0  1  0  0  0  0  0  0  0  0  0
  -29.3752  -27.1417   22.7432 C   0  0  1  0  0  0  0  0  0  0  0  0
  -27.6495  -13.1311   19.6905 C   0  0  2  0  0  0  0  0  0  0  0  0
  -29.8785  -20.1056   23.3815 C   0  0  2  0  0  0  0  0  0  1  0  0
  -29.2175  -18.8405   22.6545 C   0  0  0  0  0  0  0  0  0  0  0  0
  -31.0558  -19.5654   24.3241 C   0  0  0  0  0  0  0  0  0  0  0  0
  -27.9168  -18.3790   23.3261 C   0  0  0  0  0  0  0  0  0  0  0  0
  -28.9447  -19.1621   21.1810 C   0  0  0  0  0  0  0  0  0  0  0  0
  -32.2811  -20.4785   24.2107 C   0  0  0  0  0  0  0  0  0  0  0  0
  -30.6375  -19.4457   25.7960 C   0  0  0  0  0  0  0  0  0  0  0  0
  -29.6953  -28.6302   30.3383 C   0  0  0  0  0  0  0  0  0  0  0  0
  -33.4005  -27.8340   24.9061 C   0  0  0  0  0  0  0  0  0  0  0  0
  -33.2635  -28.0502   27.3966 C   0  0  0  0  0  0  0  0  0  0  0  0
  -32.4855  -29.9195   25.9395 C   0  0  0  0  0  0  0  0  0  0  0  0
  -32.6682  -15.1492   22.9314 C   0  0  0  0  0  0  0  0  0  0  0  0
  -26.7711  -27.1011   28.4444 C   0  0  0  0  0  0  0  0  0  0  0  0
  -31.1051  -27.8065   26.0878 C   0  0  1  0  0  0  0  0  0  0  0  0
  -28.8676  -28.2842   29.1103 C   0  0  2  0  0  0  0  0  0  0  0  0
  -32.5494  -28.3820   26.0690 C   0  0  0  0  0  0  0  0  0  0  0  0
  -25.8618  -11.5409   20.2881 N   0  0  0  0  0  0  0  0  0  0  0  0
  -32.2536  -17.3287   23.8841 N   0  0  0  0  0  0  0  0  0  0  0  0
  -26.2388  -12.8242   20.1573 N   0  0  0  0  0  0  0  0  0  0  0  0
  -31.8528  -16.3367   23.0496 N   0  0  0  0  0  0  0  0  0  0  0  0
  -29.9219  -26.9539   24.0886 N   0  0  0  0  0  0  0  0  0  0  0  0
  -29.9696  -13.6122   20.3656 N   0  0  0  0  0  0  0  0  0  0  0  0
  -25.4720  -15.0522   20.3998 N   0  0  0  0  0  0  0  0  0  0  0  0
  -21.8860  -12.5803   21.5942 N   0  0  0  0  0  0  0  0  0  0  0  0
  -30.0794  -15.6938   21.4690 N   0  0  0  0  0  0  0  0  0  0  0  0
  -30.4284  -27.6935   20.6351 N   0  0  0  0  0  0  0  0  0  0  0  0
  -30.2679  -28.3285   27.1625 N   0  0  0  0  0  0  0  0  0  0  0  0
  -27.6852  -27.4903   29.5489 N   0  3  0  0  0  0  0  0  0  0  0  0
  -22.6618  -14.7195   21.3103 O   0  0  0  0  0  0  0  0  0  0  0  0
  -31.3788  -26.1043   22.0471 O   0  0  0  0  0  0  0  0  0  0  0  0
  -30.1694  -29.2440   24.4495 O   0  0  0  0  0  0  0  0  0  0  0  0
  -29.7931  -26.2772   28.1342 O   0  0  0  0  0  0  0  0  0  0  0  0
  -31.8571  -14.9348   20.1862 O   0  0  0  0  0  0  0  0  0  0  0  0
  -21.6130   -7.0174   21.7141 O   0  0  0  0  0  0  0  0  0  0  0  0
  -28.9150  -20.8617   24.0964 O   0  0  0  0  0  0  0  0  0  1  0  0
  -18.6176   -6.8688   26.3412 F   0  0  0  0  0  0  0  0  0  0  0  0
  -22.0616   -5.0780   23.6325 F   0  0  0  0  0  0  0  0  0  0  0  0
  1  2  1  0  0  0  0
  1  5  2  0  0  0  0
  2  6  2  0  0  0  0
  3  8  2  0  0  0  0
  3 15  1  0  0  0  0
  4  9  1  0  0  0  0
  4 15  2  0  0  0  0
  5 17  1  0  0  0  0
  6 19  1  0  0  0  0
  7 10  2  0  0  0  0
  7 18  1  0  0  0  0
  8 22  1  0  0  0  0
  9 22  2  0  0  0  0
 10 23  1  0  0  0  0
 11 12  2  0  0  0  0
 11 24  1  0  0  0  0
 12 25  1  0  0  0  0
 13 20  1  0  0  0  0
 13 23  2  0  0  0  0
 14 25  2  0  0  0  0
 14 26  1  0  0  0  0
 15 27  1  0  0  0  0
 16 27  1  0  0  0  0
 16 29  2  0  0  0  0
 16 31  1  0  0  0  0
 17 19  2  0  0  0  0
 17 36  1  0  0  0  0
 18 20  2  0  0  0  0
 18 37  1  0  0  0  0
 19 45  1  0  0  0  0
 20 38  1  0  0  0  0
 21 28  1  0  0  0  0
 21 30  2  0  0  0  0
 21 49  1  0  0  0  0
 22 81  1  0  0  0  0
 23 82  1  0  0  0  0
 24 26  2  0  0  0  0
 24 81  1  0  0  0  0
 25 83  1  0  0  0  0
 26 84  1  0  0  0  0
 27 64  2  0  0  0  0
 28 50  1  0  0  0  0
 28 65  2  0  0  0  0
 29 66  1  0  0  0  0
 29 70  1  0  0  0  0
 30 67  1  0  0  0  0
 30 72  1  0  0  0  0
 31 71  1  0  0  0  0
 31 76  2  0  0  0  0
 32 46  1  0  0  0  0
 32 73  1  0  0  0  0
 32 77  2  0  0  0  0
 33 61  1  0  0  0  0
 33 68  1  0  0  0  0
 33 78  2  0  0  0  0
 34 62  1  0  0  0  0
 34 74  1  0  0  0  0
 34 79  2  0  0  0  0
 35 69  1  0  0  0  0
 35 72  1  0  0  0  0
 35 80  2  0  0  0  0
 36 39  1  0  0  0  0
 37 46  1  0  0  0  0
 38 68  1  0  0  0  0
 39 41  1  0  0  0  0
 40 42  1  0  0  0  0
 40 43  1  0  0  0  0
 41 45  1  0  0  0  0
 42 47  1  0  0  0  0
 43 69  1  0  0  0  0
 44 47  1  0  0  0  0
 44 69  1  0  0  0  0
 45 73  1  0  0  0  0
 46 68  1  0  0  0  0
 47 66  1  0  0  0  0
 48 49  1  0  0  0  0
 48 50  1  0  0  0  0
 48 82  1  0  0  0  0
 49 51  1  0  0  0  0
 49 52  1  0  0  0  0
 50 53  1  0  0  0  0
 50 54  1  0  0  0  0
 55 62  1  0  0  0  0
 56 63  1  0  0  0  0
 57 63  1  0  0  0  0
 58 63  1  0  0  0  0
 59 67  1  0  0  0  0
 60 75  1  0  0  0  0
 61 63  1  0  0  0  0
 61 74  1  0  0  0  0
 62 75  1  0  0  0  0
 64 66  1  0  0  0  0
 65 67  1  0  0  0  0
M  CHG  1  75   1
M  ISO  4  35 100  48 101  72 100  82 101
M  END
> <Batch ID>
0017

> <Smiles>
CNC(C)C(=O)NC(C(=O)N1Cc2cc([101O:1][101CH:1]3C(C)(C)c4nn(C)c([100NH:0][100C:0](=O)N5CCCC(n6nc(-c7ccc(Oc8ccc(F)cc8F)cc7)c(C(N)=O)c6N)C5)c4C3(C)C)ccc2CC1C(=O)NC1CCCc2ccccc21)C(C)(C)C

> <Shape>
0.207

> <Color>
0.183

> <Negative vol penalty>
0.000

$$$$

  -OEChem-04052316013D

 82 90  0     1  0  0  0  0  0999 V2000
  -17.2029  -25.6603   23.5374 C   0  0  0  0  0  0  0  0  0  0  0  0
  -18.3008  -25.5620   22.6886 C   0  0  0  0  0  0  0  0  0  0  0  0
  -26.4992  -11.0797   21.1277 C   0  0  0  0  0  0  0  0  0  0  0  0
  -25.5072  -12.6331   19.5656 C   0  0  0  0  0  0  0  0  0  0  0  0
  -16.7811  -26.9105   23.9878 C   0  0  0  0  0  0  0  0  0  0  0  0
  -18.9768  -26.7142   22.2888 C   0  0  0  0  0  0  0  0  0  0  0  0
  -24.0084  -26.2025   22.5466 C   0  0  0  0  0  0  0  0  0  0  0  0
  -25.2324  -10.5896   21.4448 C   0  0  0  0  0  0  0  0  0  0  0  0
  -24.2404  -12.1429   19.8827 C   0  0  0  0  0  0  0  0  0  0  0  0
  -24.6294  -25.4910   21.5210 C   0  0  0  0  0  0  0  0  0  0  0  0
  -22.3444   -9.4560   19.1040 C   0  0  0  0  0  0  0  0  0  0  0  0
  -21.4696   -9.1950   18.0495 C   0  0  0  0  0  0  0  0  0  0  0  0
  -25.2652  -27.5685   20.4728 C   0  0  0  0  0  0  0  0  0  0  0  0
  -29.5979  -21.1197   20.5022 C   0  0  0  0  0  0  0  0  0  0  0  0
  -19.8993  -10.7910   18.9573 C   0  0  0  0  0  0  0  0  0  0  0  0
  -26.6366  -12.1016   20.1881 C   0  0  0  0  0  0  0  0  0  0  0  0
  -28.8082  -12.1444   18.8502 C   0  0  0  0  0  0  0  0  0  0  0  0
  -17.4582  -28.0778   23.6010 C   0  0  0  0  0  0  0  0  0  0  0  0
  -24.0017  -27.6048   22.5372 C   0  0  0  0  0  0  0  0  0  0  0  0
  -18.5628  -27.9814   22.7334 C   0  0  0  0  0  0  0  0  0  0  0  0
  -24.6457  -28.2955   21.5007 C   0  0  0  0  0  0  0  0  0  0  0  0
  -29.0333  -22.3677   20.2389 C   0  0  0  0  0  0  0  0  0  0  0  0
  -28.1714  -22.5283   19.1540 C   0  0  0  0  0  0  0  0  0  0  0  0
  -27.8740  -21.4410   18.3324 C   0  0  0  0  0  0  0  0  0  0  0  0
  -29.3007  -20.0323   19.6806 C   0  0  0  0  0  0  0  0  0  0  0  0
  -24.1030  -11.1211   20.8222 C   0  0  0  0  0  0  0  0  0  0  0  0
  -25.2554  -26.1739   20.4824 C   0  0  0  0  0  0  0  0  0  0  0  0
  -21.9967  -10.3844   20.0853 C   0  0  0  0  0  0  0  0  0  0  0  0
  -20.2470   -9.8626   17.9761 C   0  0  0  0  0  0  0  0  0  0  0  0
  -20.7742  -11.0519   20.0119 C   0  0  0  0  0  0  0  0  0  0  0  0
  -28.4387  -20.1930   18.5957 C   0  0  0  0  0  0  0  0  0  0  0  0
  -27.9449  -12.6088   19.8606 C   0  0  0  0  0  0  0  0  0  0  0  0
  -29.9157  -12.9508   18.9475 C   0  0  0  0  0  0  0  0  0  0  0  0
  -28.6253  -11.0793   17.9079 C   0  0  0  0  0  0  0  0  0  0  0  0
  -21.7418  -29.8363   22.4074 C   0  0  0  0  0  0  0  0  0  0  0  0
  -24.2464  -31.8463   22.8649 C   0  0  0  0  0  0  0  0  0  0  0  0
  -27.6027  -32.4017   22.5931 C   0  0  0  0  0  0  0  0  0  0  0  0
  -30.7639  -18.4873   21.0290 C   0  0  0  0  0  0  0  0  0  0  0  0
  -16.9363  -29.4108   24.0757 C   0  0  0  0  0  0  0  0  0  0  0  0
  -23.3506  -28.3576   23.6649 C   0  0  0  0  0  0  0  0  0  0  0  0
  -24.6842  -29.8005   21.4548 C   0  0  0  0  0  0  0  0  0  0  0  0
  -17.9359  -30.5519   23.9056 C   0  0  0  0  0  0  0  0  0  0  0  0
  -32.4061  -15.5250   22.1266 C   0  0  0  0  0  0  0  0  0  0  0  0
  -18.5613  -30.5108   22.5149 C   0  0  0  0  0  0  0  0  0  0  0  0
  -31.5303  -14.3986   21.5729 C   0  0  0  0  0  0  0  0  0  0  0  0
  -31.5716  -16.7216   22.5798 C   0  0  0  0  0  0  0  0  0  0  0  0
  -29.7627  -16.1182   21.0200 C   0  0  0  0  0  0  0  0  0  0  0  0
  -19.3373  -29.2062   22.2973 C   0  0  1  0  0  0  0  0  0  0  0  0
  -22.9602  -29.7827   23.2851 C   0  0  1  0  0  0  0  0  0  0  0  0
  -30.5631  -14.9170   20.4907 C   0  0  2  0  0  0  0  0  0  0  0  0
  -29.3687  -23.5161   21.1337 C   0  0  0  0  0  0  0  0  0  0  0  0
  -26.9477  -21.6349   17.1717 C   0  0  0  0  0  0  0  0  0  0  0  0
  -29.3500  -34.1531   23.0138 C   0  0  0  0  0  0  0  0  0  0  0  0
  -23.3242  -33.3596   20.3811 C   0  0  0  0  0  0  0  0  0  0  0  0
  -25.5708  -34.4619   20.3038 C   0  0  0  0  0  0  0  0  0  0  0  0
  -24.0770  -34.8154   22.2701 C   0  0  0  0  0  0  0  0  0  0  0  0
  -29.0422  -30.6698   24.5132 C   0  0  0  0  0  0  0  0  0  0  0  0
  -27.5648  -23.8813   18.8714 C   0  0  0  0  0  0  0  0  0  0  0  0
  -26.4068  -24.2049   19.8093 C   0  0  0  0  0  0  0  0  0  1  0  0
  -25.2101  -32.5766   21.9610 C   0  0  1  0  0  0  0  0  0  0  0  0
  -28.6166  -32.9480   23.5820 C   0  0  2  0  0  0  0  0  0  0  0  0
  -24.5433  -33.7750   21.2286 C   0  0  0  0  0  0  0  0  0  0  0  0
  -28.4598  -13.6308   20.5492 N   0  0  0  0  0  0  0  0  0  0  0  0
  -29.6586  -13.8153   19.9706 N   0  0  0  0  0  0  0  0  0  0  0  0
  -24.0281  -30.4916   22.5770 N   0  0  0  0  0  0  0  0  0  0  0  0
  -30.6825  -17.1605   21.5019 N   0  0  0  0  0  0  0  0  0  0  0  0
  -31.0747  -12.9977   18.2569 N   0  0  0  0  0  0  0  0  0  0  0  0
  -27.4280  -10.3518   17.9460 N   0  0  0  0  0  0  0  0  0  0  0  0
  -29.8923  -18.7803   19.9806 N   0  0  0  0  0  0  0  0  0  0  0  0
  -20.6178  -29.2617   22.9694 N   0  0  0  0  0  0  0  0  0  0  0  0
  -26.3509  -32.9444   22.7927 N   0  0  0  0  0  0  0  0  0  0  0  0
  -29.6230  -31.9030   23.9225 N   0  3  0  0  0  0  0  0  0  0  0  0
  -29.5046  -10.7710   17.0681 O   0  0  0  0  0  0  0  0  0  0  0  0
  -21.8157  -30.3615   21.3026 O   0  0  0  0  0  0  0  0  0  0  0  0
  -23.7127  -32.4536   23.7965 O   0  0  0  0  0  0  0  0  0  0  0  0
  -27.8929  -31.5789   21.7275 O   0  0  0  0  0  0  0  0  0  0  0  0
  -31.5680  -19.2959   21.4998 O   0  0  0  0  0  0  0  0  0  0  0  0
  -22.8667  -10.6429   21.1312 O   0  0  0  0  0  0  0  0  0  0  0  0
  -25.8618  -25.4819   19.4797 O   0  0  0  0  0  0  0  0  0  1  0  0
  -19.4076   -9.6130   16.9625 F   0  0  0  0  0  0  0  0  0  0  0  0
  -20.4351  -11.9457   20.9510 F   0  0  0  0  0  0  0  0  0  0  0  0
  -28.0669  -18.8417   17.5739 Cl  0  0  0  0  0  0  0  0  0  0  0  0
  1  2  1  0  0  0  0
  1  5  2  0  0  0  0
  2  6  2  0  0  0  0
  3  8  2  0  0  0  0
  3 16  1  0  0  0  0
  4  9  1  0  0  0  0
  4 16  2  0  0  0  0
  5 18  1  0  0  0  0
  6 20  1  0  0  0  0
  7 10  2  0  0  0  0
  7 19  1  0  0  0  0
  8 26  1  0  0  0  0
  9 26  2  0  0  0  0
 10 27  1  0  0  0  0
 11 12  2  0  0  0  0
 11 28  1  0  0  0  0
 12 29  1  0  0  0  0
 13 21  1  0  0  0  0
 13 27  2  0  0  0  0
 14 22  2  0  0  0  0
 14 25  1  0  0  0  0
 15 29  2  0  0  0  0
 15 30  1  0  0  0  0
 16 32  1  0  0  0  0
 17 32  1  0  0  0  0
 17 33  2  0  0  0  0
 17 34  1  0  0  0  0
 18 20  2  0  0  0  0
 18 39  1  0  0  0  0
 19 21  2  0  0  0  0
 19 40  1  0  0  0  0
 20 48  1  0  0  0  0
 21 41  1  0  0  0  0
 22 23  1  0  0  0  0
 22 51  1  0  0  0  0
 23 24  2  0  0  0  0
 23 58  1  0  0  0  0
 24 31  1  0  0  0  0
 24 52  1  0  0  0  0
 25 31  2  0  0  0  0
 25 69  1  0  0  0  0
 26 78  1  0  0  0  0
 27 79  1  0  0  0  0
 28 30  2  0  0  0  0
 28 78  1  0  0  0  0
 29 80  1  0  0  0  0
 30 81  1  0  0  0  0
 31 82  1  0  0  0  0
 32 63  2  0  0  0  0
 33 64  1  0  0  0  0
 33 67  1  0  0  0  0
 34 68  1  0  0  0  0
 34 73  2  0  0  0  0
 35 49  1  0  0  0  0
 35 70  1  0  0  0  0
 35 74  2  0  0  0  0
 36 60  1  0  0  0  0
 36 65  1  0  0  0  0
 36 75  2  0  0  0  0
 37 61  1  0  0  0  0
 37 71  1  0  0  0  0
 37 76  2  0  0  0  0
 38 66  1  0  0  0  0
 38 69  1  0  0  0  0
 38 77  2  0  0  0  0
 39 42  1  0  0  0  0
 40 49  1  0  0  0  0
 41 65  1  0  0  0  0
 42 44  1  0  0  0  0
 43 45  1  0  0  0  0
 43 46  1  0  0  0  0
 44 48  1  0  0  0  0
 45 50  1  0  0  0  0
 46 66  1  0  0  0  0
 47 50  1  0  0  0  0
 47 66  1  0  0  0  0
 48 70  1  0  0  0  0
 49 65  1  0  0  0  0
 50 64  1  0  0  0  0
 53 61  1  0  0  0  0
 54 62  1  0  0  0  0
 55 62  1  0  0  0  0
 56 62  1  0  0  0  0
 57 72  1  0  0  0  0
 58 59  1  0  0  0  0
 59 79  1  0  0  0  0
 60 62  1  0  0  0  0
 60 71  1  0  0  0  0
 61 72  1  0  0  0  0
 63 64  1  0  0  0  0
M  CHG  1  72   1
M  ISO  4  38 100  59 101  69 100  79 101
M  END
> <Batch ID>
0017

> <Smiles>
CNC(C)C(=O)NC(C(=O)N1Cc2cc([101O:1][101CH2:1]Cc3c(C)cc([100NH:0][100C:0](=O)N4CCCC(n5nc(-c6ccc(Oc7ccc(F)cc7F)cc6)c(C(N)=O)c5N)C4)c(Cl)c3C)ccc2CC1C(=O)NC1CCCc2ccccc21)C(C)(C)C

> <Shape>
0.311

> <Color>
0.068

> <Negative vol penalty>
0.000

$$$$

  -OEChem-04052316013D

 84 92  0     1  0  0  0  0  0999 V2000
  -38.1259  -31.1947   21.3703 C   0  0  0  0  0  0  0  0  0  0  0  0
  -37.3492  -30.1932   21.9440 C   0  0  0  0  0  0  0  0  0  0  0  0
  -23.0011   -9.8945   19.9793 C   0  0  0  0  0  0  0  0  0  0  0  0
  -23.7275   -9.9421   22.2830 C   0  0  0  0  0  0  0  0  0  0  0  0
  -37.8019  -31.6894   20.1077 C   0  0  0  0  0  0  0  0  0  0  0  0
  -36.2473  -29.6866   21.2559 C   0  0  0  0  0  0  0  0  0  0  0  0
  -36.0018  -24.6316   21.4341 C   0  0  0  0  0  0  0  0  0  0  0  0
  -22.2349   -8.7595   20.2443 C   0  0  0  0  0  0  0  0  0  0  0  0
  -22.9613   -8.8071   22.5481 C   0  0  0  0  0  0  0  0  0  0  0  0
  -35.5214  -24.0585   22.6108 C   0  0  0  0  0  0  0  0  0  0  0  0
  -23.2059   -5.4689   22.0710 C   0  0  0  0  0  0  0  0  0  0  0  0
  -23.7940   -4.4507   22.8213 C   0  0  0  0  0  0  0  0  0  0  0  0
  -33.3632  -23.7578   21.5760 C   0  0  0  0  0  0  0  0  0  0  0  0
  -32.4702  -17.0427   23.9294 C   0  0  0  0  0  0  0  0  0  0  0  0
  -22.0710   -4.6908   24.4978 C   0  0  0  0  0  0  0  0  0  0  0  0
  -23.7475  -10.4858   20.9986 C   0  0  0  0  0  0  0  0  0  0  0  0
  -24.1323  -13.0017   20.8262 C   0  0  0  0  0  0  0  0  0  0  0  0
  -36.7011  -31.1818   19.3996 C   0  0  0  0  0  0  0  0  0  0  0  0
  -35.1621  -24.7822   20.3212 C   0  0  0  0  0  0  0  0  0  0  0  0
  -35.9075  -30.1759   19.9832 C   0  0  0  0  0  0  0  0  0  0  0  0
  -33.8361  -24.3307   20.3855 C   0  0  0  0  0  0  0  0  0  0  0  0
  -31.9060  -18.2919   24.1875 C   0  0  0  0  0  0  0  0  0  0  0  0
  -30.7262  -18.6703   23.5467 C   0  0  0  0  0  0  0  0  0  0  0  0
  -30.6749  -16.5501   22.3894 C   0  0  0  0  0  0  0  0  0  0  0  0
  -22.2150   -8.2158   21.5287 C   0  0  0  0  0  0  0  0  0  0  0  0
  -34.2011  -23.6242   22.6828 C   0  0  0  0  0  0  0  0  0  0  0  0
  -22.0503   -6.0982   22.5342 C   0  0  0  0  0  0  0  0  0  0  0  0
  -23.2265   -4.0616   24.0347 C   0  0  0  0  0  0  0  0  0  0  0  0
  -31.8547  -16.1718   23.0302 C   0  0  0  0  0  0  0  0  0  0  0  0
  -21.4829   -5.7091   23.7475 C   0  0  0  0  0  0  0  0  0  0  0  0
  -30.1107  -17.7994   22.6476 C   0  0  0  0  0  0  0  0  0  0  0  0
  -24.5396  -11.6579   20.7253 C   0  0  0  0  0  0  0  0  0  0  0  0
  -25.2417  -13.7250   20.4623 C   0  0  0  0  0  0  0  0  0  0  0  0
  -22.8644  -13.5473   21.2142 C   0  0  0  0  0  0  0  0  0  0  0  0
  -34.0715  -27.2582   18.6528 C   0  0  0  0  0  0  0  0  0  0  0  0
  -32.8635  -24.9365   16.7365 C   0  0  0  0  0  0  0  0  0  0  0  0
  -31.8162  -21.7051   16.4075 C   0  0  0  0  0  0  0  0  0  0  0  0
  -30.7212  -14.6867   20.6948 C   0  0  0  0  0  0  0  0  0  0  0  0
  -36.3621  -31.7812   18.0577 C   0  0  0  0  0  0  0  0  0  0  0  0
  -35.7032  -25.3779   19.0505 C   0  0  0  0  0  0  0  0  0  0  0  0
  -32.8997  -24.4510   19.2120 C   0  0  0  0  0  0  0  0  0  0  0  0
  -35.3998  -30.9281   17.2352 C   0  0  0  0  0  0  0  0  0  0  0  0
  -29.6021  -12.2371   18.3658 C   0  0  0  0  0  0  0  0  0  0  0  0
  -34.2318  -30.4594   18.0971 C   0  0  0  0  0  0  0  0  0  0  0  0
  -28.1517  -11.9786   18.7803 C   0  0  0  0  0  0  0  0  0  0  0  0
  -30.5032  -12.4788   19.5754 C   0  0  0  0  0  0  0  0  0  0  0  0
  -28.5884  -13.2654   20.9111 C   0  0  0  0  0  0  0  0  0  0  0  0
  -34.7190  -29.5833   19.2575 C   0  0  1  0  0  0  0  0  0  0  0  0
  -34.6146  -25.9512   18.1485 C   0  0  1  0  0  0  0  0  0  0  0  0
  -27.6301  -13.0806   19.7232 C   0  0  2  0  0  0  0  0  0  0  0  0
  -30.1386  -20.0165   23.8390 C   0  0  0  0  0  0  0  0  0  0  0  0
  -30.8462  -20.1097   14.7309 C   0  0  0  0  0  0  0  0  0  0  0  0
  -30.1395  -26.2773   17.0402 C   0  0  0  0  0  0  0  0  0  0  0  0
  -29.0870  -24.1772   16.1741 C   0  0  0  0  0  0  0  0  0  0  0  0
  -30.6543  -25.4725   14.7289 C   0  0  0  0  0  0  0  0  0  0  0  0
  -34.1472  -19.8930   16.6103 C   0  0  0  0  0  0  0  0  0  0  0  0
  -32.5902  -19.2076   25.1593 C   0  0  0  0  0  0  0  0  0  0  0  0
  -33.9460  -21.2872   25.4349 C   0  0  0  0  0  0  0  0  0  0  0  0
  -34.6671  -22.3596   24.6423 C   0  0  0  0  0  0  0  0  0  1  0  0
  -31.5710  -24.1582   16.6845 C   0  0  1  0  0  0  0  0  0  0  0  0
  -32.1211  -20.6490   15.3606 C   0  0  2  0  0  0  0  0  0  0  0  0
  -30.3798  -25.0206   16.1799 C   0  0  0  0  0  0  0  0  0  0  0  0
  -25.8087  -11.5322   20.3283 N   0  0  0  0  0  0  0  0  0  0  0  0
  -26.2084  -12.8063   20.1764 N   0  0  0  0  0  0  0  0  0  0  0  0
  -33.4739  -25.0461   17.9940 N   0  0  0  0  0  0  0  0  0  0  0  0
  -29.9484  -13.5384   20.4206 N   0  0  0  0  0  0  0  0  0  0  0  0
  -25.4749  -15.0509   20.3621 N   0  0  0  0  0  0  0  0  0  0  0  0
  -21.8330  -12.6625   21.5569 N   0  0  0  0  0  0  0  0  0  0  0  0
  -30.0772  -15.6406   21.4821 N   0  0  0  0  0  0  0  0  0  0  0  0
  -35.0254  -28.2487   18.7891 N   0  0  0  0  0  0  0  0  0  0  0  0
  -31.8388  -22.9759   15.8728 N   0  0  0  0  0  0  0  0  0  0  0  0
  -32.8606  -19.5099   15.9740 N   0  3  0  0  0  0  0  0  0  0  0  0
  -33.3084  -20.3295   24.4965 N   0  3  0  0  0  0  0  0  0  0  0  0
  -22.6475  -14.7826   21.2399 O   0  0  0  0  0  0  0  0  0  0  0  0
  -32.8754  -27.3610   18.8987 O   0  0  0  0  0  0  0  0  0  0  0  0
  -33.3186  -25.4230   15.6983 O   0  0  0  0  0  0  0  0  0  0  0  0
  -31.5778  -21.4300   17.5814 O   0  0  0  0  0  0  0  0  0  0  0  0
  -31.8596  -14.8264   20.2404 O   0  0  0  0  0  0  0  0  0  0  0  0
  -21.4672   -7.1084   21.7878 O   0  0  0  0  0  0  0  0  0  0  0  0
  -33.7293  -23.0651   23.8303 O   0  0  0  0  0  0  0  0  0  1  0  0
  -23.7905   -3.0827   24.7543 F   0  0  0  0  0  0  0  0  0  0  0  0
  -32.4075  -14.9739   22.7908 F   0  0  0  0  0  0  0  0  0  0  0  0
  -20.3721   -6.3091   24.1970 F   0  0  0  0  0  0  0  0  0  0  0  0
  -28.6430  -18.2722   21.8533 Cl  0  0  0  0  0  0  0  0  0  0  0  0
  1  2  1  0  0  0  0
  1  5  2  0  0  0  0
  2  6  2  0  0  0  0
  3  8  2  0  0  0  0
  3 16  1  0  0  0  0
  4  9  1  0  0  0  0
  4 16  2  0  0  0  0
  5 18  1  0  0  0  0
  6 20  1  0  0  0  0
  7 10  2  0  0  0  0
  7 19  1  0  0  0  0
  8 25  1  0  0  0  0
  9 25  2  0  0  0  0
 10 26  1  0  0  0  0
 11 12  2  0  0  0  0
 11 27  1  0  0  0  0
 12 28  1  0  0  0  0
 13 21  1  0  0  0  0
 13 26  2  0  0  0  0
 14 22  1  0  0  0  0
 14 29  2  0  0  0  0
 15 28  2  0  0  0  0
 15 30  1  0  0  0  0
 16 32  1  0  0  0  0
 17 32  1  0  0  0  0
 17 33  2  0  0  0  0
 17 34  1  0  0  0  0
 18 20  2  0  0  0  0
 18 39  1  0  0  0  0
 19 21  2  0  0  0  0
 19 40  1  0  0  0  0
 20 48  1  0  0  0  0
 21 41  1  0  0  0  0
 22 23  2  0  0  0  0
 22 57  1  0  0  0  0
 23 31  1  0  0  0  0
 23 51  1  0  0  0  0
 24 29  1  0  0  0  0
 24 31  2  0  0  0  0
 24 69  1  0  0  0  0
 25 79  1  0  0  0  0
 26 80  1  0  0  0  0
 27 30  2  0  0  0  0
 27 79  1  0  0  0  0
 28 81  1  0  0  0  0
 29 82  1  0  0  0  0
 30 83  1  0  0  0  0
 31 84  1  0  0  0  0
 32 63  2  0  0  0  0
 33 64  1  0  0  0  0
 33 67  1  0  0  0  0
 34 68  1  0  0  0  0
 34 74  2  0  0  0  0
 35 49  1  0  0  0  0
 35 70  1  0  0  0  0
 35 75  2  0  0  0  0
 36 60  1  0  0  0  0
 36 65  1  0  0  0  0
 36 76  2  0  0  0  0
 37 61  1  0  0  0  0
 37 71  1  0  0  0  0
 37 77  2  0  0  0  0
 38 66  1  0  0  0  0
 38 69  1  0  0  0  0
 38 78  2  0  0  0  0
 39 42  1  0  0  0  0
 40 49  1  0  0  0  0
 41 65  1  0  0  0  0
 42 44  1  0  0  0  0
 43 45  1  0  0  0  0
 43 46  1  0  0  0  0
 44 48  1  0  0  0  0
 45 50  1  0  0  0  0
 46 66  1  0  0  0  0
 47 50  1  0  0  0  0
 47 66  1  0  0  0  0
 48 70  1  0  0  0  0
 49 65  1  0  0  0  0
 50 64  1  0  0  0  0
 52 61  1  0  0  0  0
 53 62  1  0  0  0  0
 54 62  1  0  0  0  0
 55 62  1  0  0  0  0
 56 72  1  0  0  0  0
 57 73  1  0  0  0  0
 58 59  1  0  0  0  0
 58 73  1  0  0  0  0
 59 80  1  0  0  0  0
 60 62  1  0  0  0  0
 60 71  1  0  0  0  0
 61 72  1  0  0  0  0
 63 64  1  0  0  0  0
M  CHG  2  72   1  73   1
M  ISO  4  38 100  59 101  69 100  80 101
M  END
> <Batch ID>
0017

> <Smiles>
CNC(C)C(=O)NC(C(=O)N1Cc2cc([101O:1][101CH2:1]CNCc3cc(F)c([100NH:0][100C:0](=O)N4CCCC(n5nc(-c6ccc(Oc7ccc(F)cc7F)cc6)c(C(N)=O)c5N)C4)c(Cl)c3C)ccc2CC1C(=O)NC1CCCc2ccccc21)C(C)(C)C

> <Shape>
0.193

> <Color>
0.198

> <Negative vol penalty>
0.000

$$$$

  -OEChem-04052316013D

 82 90  0     1  0  0  0  0  0999 V2000
  -33.0996  -28.3759   15.0062 C   0  0  0  0  0  0  0  0  0  0  0  0
  -32.9013  -27.3002   15.8659 C   0  0  0  0  0  0  0  0  0  0  0  0
  -23.0088   -9.7312   20.0115 C   0  0  0  0  0  0  0  0  0  0  0  0
  -23.6765   -9.9025   22.3271 C   0  0  0  0  0  0  0  0  0  0  0  0
  -32.3998  -29.5650   15.2065 C   0  0  0  0  0  0  0  0  0  0  0  0
  -32.0037  -27.4134   16.9270 C   0  0  0  0  0  0  0  0  0  0  0  0
  -29.0141  -23.3516   17.3847 C   0  0  0  0  0  0  0  0  0  0  0  0
  -22.2590   -8.5941   20.3118 C   0  0  0  0  0  0  0  0  0  0  0  0
  -22.9266   -8.7654   22.6275 C   0  0  0  0  0  0  0  0  0  0  0  0
  -29.5659  -22.2190   17.9817 C   0  0  0  0  0  0  0  0  0  0  0  0
  -23.2493   -5.4143   22.3158 C   0  0  0  0  0  0  0  0  0  0  0  0
  -23.8386   -4.4451   23.1275 C   0  0  0  0  0  0  0  0  0  0  0  0
  -28.4806  -22.7924   20.0584 C   0  0  0  0  0  0  0  0  0  0  0  0
  -22.0699   -4.7276   24.7489 C   0  0  0  0  0  0  0  0  0  0  0  0
  -23.7177  -10.3854   21.0192 C   0  0  0  0  0  0  0  0  0  0  0  0
  -24.0566  -12.8980   20.7365 C   0  0  0  0  0  0  0  0  0  0  0  0
  -31.4860  -29.6896   16.2648 C   0  0  0  0  0  0  0  0  0  0  0  0
  -28.1989  -24.2205   18.1242 C   0  0  0  0  0  0  0  0  0  0  0  0
  -31.2919  -28.6058   17.1424 C   0  0  0  0  0  0  0  0  0  0  0  0
  -27.9177  -23.9340   19.4677 C   0  0  0  0  0  0  0  0  0  0  0  0
  -30.2312  -19.3722   21.7455 C   0  0  0  0  0  0  0  0  0  0  0  0
  -29.7574  -18.1169   21.3644 C   0  0  0  0  0  0  0  0  0  0  0  0
  -31.3596  -19.4743   22.5592 C   0  0  0  0  0  0  0  0  0  0  0  0
  -31.5402  -17.0656   22.6109 C   0  0  0  0  0  0  0  0  0  0  0  0
  -30.4119  -16.9636   21.7971 C   0  0  0  0  0  0  0  0  0  0  0  0
  -22.2178   -8.1111   21.6198 C   0  0  0  0  0  0  0  0  0  0  0  0
  -29.3015  -21.9408   19.3196 C   0  0  0  0  0  0  0  0  0  0  0  0
  -22.0703   -6.0402   22.7206 C   0  0  0  0  0  0  0  0  0  0  0  0
  -23.2490   -4.1017   24.3441 C   0  0  0  0  0  0  0  0  0  0  0  0
  -21.4806   -5.6969   23.9372 C   0  0  0  0  0  0  0  0  0  0  0  0
  -32.0140  -18.3210   22.9919 C   0  0  0  0  0  0  0  0  0  0  0  0
  -24.4929  -11.5598   20.7095 C   0  0  0  0  0  0  0  0  0  0  0  0
  -25.1601  -13.6265   20.3653 C   0  0  0  0  0  0  0  0  0  0  0  0
  -22.7688  -13.4345   21.0676 C   0  0  0  0  0  0  0  0  0  0  0  0
  -28.3724  -27.2778   18.9768 C   0  0  0  0  0  0  0  0  0  0  0  0
  -25.3852  -26.7262   20.1147 C   0  0  0  0  0  0  0  0  0  0  0  0
  -23.0904  -24.4736   21.2578 C   0  0  0  0  0  0  0  0  0  0  0  0
  -30.6119  -14.7131   20.6829 C   0  0  0  0  0  0  0  0  0  0  0  0
  -30.7879  -31.0108   16.4693 C   0  0  0  0  0  0  0  0  0  0  0  0
  -27.5897  -25.4237   17.4582 C   0  0  0  0  0  0  0  0  0  0  0  0
  -27.0323  -24.8241   20.2998 C   0  0  0  0  0  0  0  0  0  0  0  0
  -29.5765  -30.9229   17.3941 C   0  0  0  0  0  0  0  0  0  0  0  0
  -29.6001  -12.1335   18.4470 C   0  0  0  0  0  0  0  0  0  0  0  0
  -29.9177  -30.1211   18.6461 C   0  0  0  0  0  0  0  0  0  0  0  0
  -28.1453  -11.8644   18.8385 C   0  0  0  0  0  0  0  0  0  0  0  0
  -30.4658  -12.4509   19.6650 C   0  0  0  0  0  0  0  0  0  0  0  0
  -28.5031  -13.2590   20.9155 C   0  0  0  0  0  0  0  0  0  0  0  0
  -30.3084  -28.6816   18.2900 C   0  0  1  0  0  0  0  0  0  0  0  0
  -27.1911  -26.5157   18.4462 C   0  0  1  0  0  0  0  0  0  0  0  0
  -27.5786  -12.9984   19.7151 C   0  0  2  0  0  0  0  0  0  0  0  0
  -28.5458  -18.0129   20.4909 C   0  0  0  0  0  0  0  0  0  0  0  0
  -31.8531  -20.8313   22.9571 C   0  0  0  0  0  0  0  0  0  0  0  0
  -32.2329  -15.8177   23.0682 C   0  0  0  0  0  0  0  0  0  0  0  0
  -20.7494  -24.3266   22.1497 C   0  0  0  0  0  0  0  0  0  0  0  0
  -26.3422  -27.8150   22.7995 C   0  0  0  0  0  0  0  0  0  0  0  0
  -24.3234  -26.7811   23.8596 C   0  0  0  0  0  0  0  0  0  0  0  0
  -24.0499  -28.5577   22.1299 C   0  0  0  0  0  0  0  0  0  0  0  0
  -22.2247  -22.7358   19.0241 C   0  0  0  0  0  0  0  0  0  0  0  0
  -29.5267  -20.6122   21.2792 C   0  0  0  0  0  0  0  0  0  1  0  0
  -24.8122  -26.2515   21.4282 C   0  0  1  0  0  0  0  0  0  0  0  0
  -21.6281  -24.2608   20.9102 C   0  0  2  0  0  0  0  0  0  0  0  0
  -24.9002  -27.3354   22.5394 C   0  0  0  0  0  0  0  0  0  0  0  0
  -25.7737  -11.4423   20.3494 N   0  0  0  0  0  0  0  0  0  0  0  0
  -26.1517  -12.7159   20.1466 N   0  0  0  0  0  0  0  0  0  0  0  0
  -26.4654  -25.9918   19.6051 N   0  0  0  0  0  0  0  0  0  0  0  0
  -29.8692  -13.5372   20.4453 N   0  0  0  0  0  0  0  0  0  0  0  0
  -25.3694  -14.9508   20.2077 N   0  0  0  0  0  0  0  0  0  0  0  0
  -21.7469  -12.5452   21.4273 N   0  0  0  0  0  0  0  0  0  0  0  0
  -29.9296  -15.6892   21.4083 N   0  0  0  0  0  0  0  0  0  0  0  0
  -29.1289  -27.8951   17.9991 N   0  0  0  0  0  0  0  0  0  0  0  0
  -23.4554  -25.7982   21.1417 N   0  0  0  0  0  0  0  0  0  0  0  0
  -21.4367  -22.9294   20.2685 N   0  3  0  0  0  0  0  0  0  0  0  0
  -22.5269  -14.6647   21.0293 O   0  0  0  0  0  0  0  0  0  0  0  0
  -28.5811  -27.3050   20.1840 O   0  0  0  0  0  0  0  0  0  0  0  0
  -24.8878  -27.7080   19.5576 O   0  0  0  0  0  0  0  0  0  0  0  0
  -23.8335  -23.5571   21.6018 O   0  0  0  0  0  0  0  0  0  0  0  0
  -31.7583  -14.8552   20.2498 O   0  0  0  0  0  0  0  0  0  0  0  0
  -21.4860   -7.0017   21.9132 O   0  0  0  0  0  0  0  0  0  0  0  0
  -29.8393  -20.8363   19.9050 O   0  0  0  0  0  0  0  0  0  1  0  0
  -23.8142   -3.1699   25.1228 F   0  0  0  0  0  0  0  0  0  0  0  0
  -20.3473   -6.2939   24.3309 F   0  0  0  0  0  0  0  0  0  0  0  0
  -33.4163  -18.4489   24.0026 Cl  0  0  0  0  0  0  0  0  0  0  0  0
  1  2  1  0  0  0  0
  1  5  2  0  0  0  0
  2  6  2  0  0  0  0
  3  8  2  0  0  0  0
  3 15  1  0  0  0  0
  4  9  1  0  0  0  0
  4 15  2  0  0  0  0
  5 17  1  0  0  0  0
  6 19  1  0  0  0  0
  7 10  2  0  0  0  0
  7 18  1  0  0  0  0
  8 26  1  0  0  0  0
  9 26  2  0  0  0  0
 10 27  1  0  0  0  0
 11 12  2  0  0  0  0
 11 28  1  0  0  0  0
 12 29  1  0  0  0  0
 13 20  1  0  0  0  0
 13 27  2  0  0  0  0
 14 29  2  0  0  0  0
 14 30  1  0  0  0  0
 15 32  1  0  0  0  0
 16 32  1  0  0  0  0
 16 33  2  0  0  0  0
 16 34  1  0  0  0  0
 17 19  2  0  0  0  0
 17 39  1  0  0  0  0
 18 20  2  0  0  0  0
 18 40  1  0  0  0  0
 19 48  1  0  0  0  0
 20 41  1  0  0  0  0
 21 22  2  0  0  0  0
 21 23  1  0  0  0  0
 21 59  1  0  0  0  0
 22 25  1  0  0  0  0
 22 51  1  0  0  0  0
 23 31  2  0  0  0  0
 23 52  1  0  0  0  0
 24 25  2  0  0  0  0
 24 31  1  0  0  0  0
 24 53  1  0  0  0  0
 25 69  1  0  0  0  0
 26 78  1  0  0  0  0
 27 79  1  0  0  0  0
 28 30  2  0  0  0  0
 28 78  1  0  0  0  0
 29 80  1  0  0  0  0
 30 81  1  0  0  0  0
 31 82  1  0  0  0  0
 32 63  2  0  0  0  0
 33 64  1  0  0  0  0
 33 67  1  0  0  0  0
 34 68  1  0  0  0  0
 34 73  2  0  0  0  0
 35 49  1  0  0  0  0
 35 70  1  0  0  0  0
 35 74  2  0  0  0  0
 36 60  1  0  0  0  0
 36 65  1  0  0  0  0
 36 75  2  0  0  0  0
 37 61  1  0  0  0  0
 37 71  1  0  0  0  0
 37 76  2  0  0  0  0
 38 66  1  0  0  0  0
 38 69  1  0  0  0  0
 38 77  2  0  0  0  0
 39 42  1  0  0  0  0
 40 49  1  0  0  0  0
 41 65  1  0  0  0  0
 42 44  1  0  0  0  0
 43 45  1  0  0  0  0
 43 46  1  0  0  0  0
 44 48  1  0  0  0  0
 45 50  1  0  0  0  0
 46 66  1  0  0  0  0
 47 50  1  0  0  0  0
 47 66  1  0  0  0  0
 48 70  1  0  0  0  0
 49 65  1  0  0  0  0
 50 64  1  0  0  0  0
 54 61  1  0  0  0  0
 55 62  1  0  0  0  0
 56 62  1  0  0  0  0
 57 62  1  0  0  0  0
 58 72  1  0  0  0  0
 59 79  1  0  0  0  0
 60 62  1  0  0  0  0
 60 71  1  0  0  0  0
 61 72  1  0  0  0  0
 63 64  1  0  0  0  0
M  CHG  1  72   1
M  ISO  4  38 100  59 101  69 100  79 101
M  END
> <Batch ID>
0017

> <Smiles>
CNC(C)C(=O)NC(C(=O)N1Cc2cc([101O:1][101CH2:1]c3c(C)c(Cl)c(C)c([100NH:0][100C:0](=O)N4CCCC(n5nc(-c6ccc(Oc7ccc(F)cc7F)cc6)c(C(N)=O)c5N)C4)c3C)ccc2CC1C(=O)NC1CCCc2ccccc21)C(C)(C)C

> <Shape>
0.277

> <Color>
0.238

> <Negative vol penalty>
0.000

$$$$

  -OEChem-04052316013D

 80 88  0     1  0  0  0  0  0999 V2000
  -20.5677  -17.5392   23.1067 C   0  0  0  0  0  0  0  0  0  0  0  0
  -21.8537  -17.0630   23.3408 C   0  0  0  0  0  0  0  0  0  0  0  0
  -23.2867   -9.8009   19.9132 C   0  0  0  0  0  0  0  0  0  0  0  0
  -23.7379   -9.9420   22.2825 C   0  0  0  0  0  0  0  0  0  0  0  0
  -19.7432  -17.8737   24.1802 C   0  0  0  0  0  0  0  0  0  0  0  0
  -22.3164  -16.9219   24.6487 C   0  0  0  0  0  0  0  0  0  0  0  0
  -24.7168  -12.5260   25.3966 C   0  0  0  0  0  0  0  0  0  0  0  0
  -22.5603   -8.6285   20.1214 C   0  0  0  0  0  0  0  0  0  0  0  0
  -23.0115   -8.7696   22.4907 C   0  0  0  0  0  0  0  0  0  0  0  0
  -26.0270  -12.4287   24.9302 C   0  0  0  0  0  0  0  0  0  0  0  0
  -20.2837   -5.7948   20.0749 C   0  0  0  0  0  0  0  0  0  0  0  0
  -19.0562   -5.6683   19.4247 C   0  0  0  0  0  0  0  0  0  0  0  0
  -26.8455  -12.8311   27.1634 C   0  0  0  0  0  0  0  0  0  0  0  0
  -18.2499   -7.6409   20.5632 C   0  0  0  0  0  0  0  0  0  0  0  0
  -23.8756  -10.4577   20.9938 C   0  0  0  0  0  0  0  0  0  0  0  0
  -24.1350  -12.9876   20.7946 C   0  0  0  0  0  0  0  0  0  0  0  0
  -20.1926  -17.7275   25.5021 C   0  0  0  0  0  0  0  0  0  0  0  0
  -24.4607  -12.7880   26.7502 C   0  0  0  0  0  0  0  0  0  0  0  0
  -21.4977  -17.2560   25.7408 C   0  0  0  0  0  0  0  0  0  0  0  0
  -25.5311  -12.9288   27.6450 C   0  0  0  0  0  0  0  0  0  0  0  0
  -31.7206  -14.9430   23.8157 C   0  0  0  0  0  0  0  0  0  0  0  0
  -22.4227   -8.1128   21.4101 C   0  0  0  0  0  0  0  0  0  0  0  0
  -27.0917  -12.5841   25.8131 C   0  0  0  0  0  0  0  0  0  0  0  0
  -20.4943   -6.8443   20.9694 C   0  0  0  0  0  0  0  0  0  0  0  0
  -18.0393   -6.5914   19.6688 C   0  0  0  0  0  0  0  0  0  0  0  0
  -19.4774   -7.7673   21.2135 C   0  0  0  0  0  0  0  0  0  0  0  0
  -24.6265  -11.6686   20.7793 C   0  0  0  0  0  0  0  0  0  0  0  0
  -32.0267  -15.1606   25.1725 C   0  0  0  0  0  0  0  0  0  0  0  0
  -25.2365  -13.7674   20.5392 C   0  0  0  0  0  0  0  0  0  0  0  0
  -31.1784  -13.6815   23.7841 C   0  0  0  0  0  0  0  0  0  0  0  0
  -22.8021  -13.4654   21.0196 C   0  0  0  0  0  0  0  0  0  0  0  0
  -23.0225  -15.1287   28.3490 C   0  0  0  0  0  0  0  0  0  0  0  0
  -23.5183  -13.1719   30.8881 C   0  0  0  0  0  0  0  0  0  0  0  0
  -25.3278  -10.6360   32.2817 C   0  0  0  0  0  0  0  0  0  0  0  0
  -31.0970  -12.9529   21.3740 C   0  0  0  0  0  0  0  0  0  0  0  0
  -19.2821  -18.1467   26.6290 C   0  0  0  0  0  0  0  0  0  0  0  0
  -23.0414  -12.8635   27.2425 C   0  0  0  0  0  0  0  0  0  0  0  0
  -25.3096  -13.1911   29.1115 C   0  0  0  0  0  0  0  0  0  0  0  0
  -19.7151  -17.6138   27.9923 C   0  0  0  0  0  0  0  0  0  0  0  0
  -29.4629  -13.6569   18.2899 C   0  0  0  0  0  0  0  0  0  0  0  0
  -21.2115  -17.8268   28.1981 C   0  0  0  0  0  0  0  0  0  0  0  0
  -27.9916  -13.3528   18.5815 C   0  0  0  0  0  0  0  0  0  0  0  0
  -30.3962  -12.6818   19.0053 C   0  0  0  0  0  0  0  0  0  0  0  0
  -28.7033  -12.2541   20.7433 C   0  0  0  0  0  0  0  0  0  0  0  0
  -22.0269  -17.0657   27.1458 C   0  0  1  0  0  0  0  0  0  0  0  0
  -22.9018  -13.6440   28.5458 C   0  0  1  0  0  0  0  0  0  0  0  0
  -27.7269  -13.2500   20.0964 C   0  0  2  0  0  0  0  0  0  0  0  0
  -31.9340  -15.8622   22.6837 C   0  0  0  0  0  0  0  0  0  0  0  0
  -32.6327  -16.3583   25.7809 C   0  0  0  0  0  0  0  0  0  0  0  0
  -25.5230   -9.2795   34.3839 C   0  0  0  0  0  0  0  0  0  0  0  0
  -24.8734  -15.5257   32.2784 C   0  0  0  0  0  0  0  0  0  0  0  0
  -25.8605  -13.9037   33.9103 C   0  0  0  0  0  0  0  0  0  0  0  0
  -23.3842  -14.1603   33.7522 C   0  0  0  0  0  0  0  0  0  0  0  0
  -24.7490   -8.1137   30.8458 C   0  0  0  0  0  0  0  0  0  0  0  0
  -30.7034  -11.9025   25.5811 C   0  0  0  0  0  0  0  0  0  0  0  0
  -29.3513  -12.0065   26.2782 C   0  0  0  0  0  0  0  0  0  1  0  0
  -24.6296  -12.9845   31.8926 C   0  0  1  0  0  0  0  0  0  0  0  0
  -24.8991   -9.3692   32.9999 C   0  0  2  0  0  0  0  0  0  0  0  0
  -24.6915  -14.1406   32.9304 C   0  0  0  0  0  0  0  0  0  0  0  0
  -25.9381  -11.6098   20.5336 N   0  0  0  0  0  0  0  0  0  0  0  0
  -31.7055  -14.1207   25.9467 N   0  0  0  0  0  0  0  0  0  0  0  0
  -26.2801  -12.9017   20.3919 N   0  0  0  0  0  0  0  0  0  0  0  0
  -31.1918  -13.2375   25.0737 N   0  0  0  0  0  0  0  0  0  0  0  0
  -23.9038  -13.2626   29.5431 N   0  0  0  0  0  0  0  0  0  0  0  0
  -30.0897  -12.6401   20.4368 N   0  0  0  0  0  0  0  0  0  0  0  0
  -25.4045  -15.1023   20.4285 N   0  0  0  0  0  0  0  0  0  0  0  0
  -21.7895  -12.5286   21.2674 N   0  0  0  0  0  0  0  0  0  0  0  0
  -30.6800  -12.9116   22.7040 N   0  0  0  0  0  0  0  0  0  0  0  0
  -22.0908  -15.6583   27.4767 N   0  0  0  0  0  0  0  0  0  0  0  0
  -24.4306  -11.6641   32.4800 N   0  0  0  0  0  0  0  0  0  0  0  0
  -25.3102   -8.1674   32.2203 N   0  3  0  0  0  0  0  0  0  0  0  0
  -22.5142  -14.6858   20.9851 O   0  0  0  0  0  0  0  0  0  0  0  0
  -23.8954  -15.7483   28.9456 O   0  0  0  0  0  0  0  0  0  0  0  0
  -22.3506  -13.2282   31.2817 O   0  0  0  0  0  0  0  0  0  0  0  0
  -26.3577  -10.7076   31.6148 O   0  0  0  0  0  0  0  0  0  0  0  0
  -32.2378  -13.2631   21.0213 O   0  0  0  0  0  0  0  0  0  0  0  0
  -21.7137   -6.9689   21.6136 O   0  0  0  0  0  0  0  0  0  0  0  0
  -28.3715  -12.4901   25.3603 O   0  0  0  0  0  0  0  0  0  1  0  0
  -16.8611   -6.4707   19.0431 F   0  0  0  0  0  0  0  0  0  0  0  0
  -19.6742   -8.7783   22.0708 F   0  0  0  0  0  0  0  0  0  0  0  0
  1  2  1  0  0  0  0
  1  5  2  0  0  0  0
  2  6  2  0  0  0  0
  3  8  2  0  0  0  0
  3 15  1  0  0  0  0
  4  9  1  0  0  0  0
  4 15  2  0  0  0  0
  5 17  1  0  0  0  0
  6 19  1  0  0  0  0
  7 10  2  0  0  0  0
  7 18  1  0  0  0  0
  8 22  1  0  0  0  0
  9 22  2  0  0  0  0
 10 23  1  0  0  0  0
 11 12  2  0  0  0  0
 11 24  1  0  0  0  0
 12 25  1  0  0  0  0
 13 20  1  0  0  0  0
 13 23  2  0  0  0  0
 14 25  2  0  0  0  0
 14 26  1  0  0  0  0
 15 27  1  0  0  0  0
 16 27  1  0  0  0  0
 16 29  2  0  0  0  0
 16 31  1  0  0  0  0
 17 19  2  0  0  0  0
 17 36  1  0  0  0  0
 18 20  2  0  0  0  0
 18 37  1  0  0  0  0
 19 45  1  0  0  0  0
 20 38  1  0  0  0  0
 21 28  1  0  0  0  0
 21 30  2  0  0  0  0
 21 48  1  0  0  0  0
 22 77  1  0  0  0  0
 23 78  1  0  0  0  0
 24 26  2  0  0  0  0
 24 77  1  0  0  0  0
 25 79  1  0  0  0  0
 26 80  1  0  0  0  0
 27 60  2  0  0  0  0
 28 49  1  0  0  0  0
 28 61  2  0  0  0  0
 29 62  1  0  0  0  0
 29 66  1  0  0  0  0
 30 63  1  0  0  0  0
 30 68  1  0  0  0  0
 31 67  1  0  0  0  0
 31 72  2  0  0  0  0
 32 46  1  0  0  0  0
 32 69  1  0  0  0  0
 32 73  2  0  0  0  0
 33 57  1  0  0  0  0
 33 64  1  0  0  0  0
 33 74  2  0  0  0  0
 34 58  1  0  0  0  0
 34 70  1  0  0  0  0
 34 75  2  0  0  0  0
 35 65  1  0  0  0  0
 35 68  1  0  0  0  0
 35 76  2  0  0  0  0
 36 39  1  0  0  0  0
 37 46  1  0  0  0  0
 38 64  1  0  0  0  0
 39 41  1  0  0  0  0
 40 42  1  0  0  0  0
 40 43  1  0  0  0  0
 41 45  1  0  0  0  0
 42 47  1  0  0  0  0
 43 65  1  0  0  0  0
 44 47  1  0  0  0  0
 44 65  1  0  0  0  0
 45 69  1  0  0  0  0
 46 64  1  0  0  0  0
 47 62  1  0  0  0  0
 50 58  1  0  0  0  0
 51 59  1  0  0  0  0
 52 59  1  0  0  0  0
 53 59  1  0  0  0  0
 54 71  1  0  0  0  0
 55 56  1  0  0  0  0
 55 63  1  0  0  0  0
 56 78  1  0  0  0  0
 57 59  1  0  0  0  0
 57 70  1  0  0  0  0
 58 71  1  0  0  0  0
 60 62  1  0  0  0  0
 61 63  1  0  0  0  0
M  CHG  1  71   1
M  ISO  4  35 100  56 101  68 100  78 101
M  END
> <Batch ID>
0017

> <Smiles>
CNC(C)C(=O)NC(C(=O)N1Cc2cc([101O:1][101CH2:1]Cn3nc(C)c(C)c3[100NH:0][100C:0](=O)N3CCCC(n4nc(-c5ccc(Oc6ccc(F)cc6F)cc5)c(C(N)=O)c4N)C3)ccc2CC1C(=O)NC1CCCc2ccccc21)C(C)(C)C

> <Shape>
0.123

> <Color>
0.178

> <Negative vol penalty>
0.000

$$$$

  -OEChem-04052316013D

 86 94  0     1  0  0  0  0  0999 V2000
  -31.4654  -24.5991   16.4344 C   0  0  0  0  0  0  0  0  0  0  0  0
  -30.1998  -24.3797   16.9688 C   0  0  0  0  0  0  0  0  0  0  0  0
  -22.8986  -10.4604   21.7825 C   0  0  0  0  0  0  0  0  0  0  0  0
  -24.7024   -8.9084   21.3643 C   0  0  0  0  0  0  0  0  0  0  0  0
  -32.3571  -25.4513   17.0844 C   0  0  0  0  0  0  0  0  0  0  0  0
  -29.8256  -25.0117   18.1541 C   0  0  0  0  0  0  0  0  0  0  0  0
  -25.1587  -26.9643   17.9252 C   0  0  0  0  0  0  0  0  0  0  0  0
  -21.9804   -9.4130   21.7091 C   0  0  0  0  0  0  0  0  0  0  0  0
  -23.7842   -7.8610   21.2910 C   0  0  0  0  0  0  0  0  0  0  0  0
  -24.0906  -26.0797   18.0681 C   0  0  0  0  0  0  0  0  0  0  0  0
  -22.0286   -5.9346   23.4421 C   0  0  0  0  0  0  0  0  0  0  0  0
  -22.3391   -4.7542   24.1172 C   0  0  0  0  0  0  0  0  0  0  0  0
  -23.8560  -26.7450   20.3749 C   0  0  0  0  0  0  0  0  0  0  0  0
  -28.3171  -20.0477   21.2085 C   0  0  0  0  0  0  0  0  0  0  0  0
  -22.2626   -3.5403   22.0296 C   0  0  0  0  0  0  0  0  0  0  0  0
  -24.2596  -10.2081   21.6100 C   0  0  0  0  0  0  0  0  0  0  0  0
  -25.8765  -11.7565   22.8330 C   0  0  0  0  0  0  0  0  0  0  0  0
  -31.9902  -26.1016   18.2732 C   0  0  0  0  0  0  0  0  0  0  0  0
  -25.5912  -27.7393   19.0109 C   0  0  0  0  0  0  0  0  0  0  0  0
  -30.7137  -25.8723   18.8213 C   0  0  0  0  0  0  0  0  0  0  0  0
  -24.9282  -27.6406   20.2425 C   0  0  0  0  0  0  0  0  0  0  0  0
  -28.1537  -21.3531   21.6718 C   0  0  0  0  0  0  0  0  0  0  0  0
  -25.7545  -21.0776   21.6018 C   0  0  0  0  0  0  0  0  0  0  0  0
  -27.1992  -19.2572   20.9417 C   0  0  0  0  0  0  0  0  0  0  0  0
  -22.4231   -8.1133   21.4634 C   0  0  0  0  0  0  0  0  0  0  0  0
  -23.4410  -25.9678   19.2938 C   0  0  0  0  0  0  0  0  0  0  0  0
  -21.8349   -5.9180   22.0608 C   0  0  0  0  0  0  0  0  0  0  0  0
  -22.4561   -3.5570   23.4109 C   0  0  0  0  0  0  0  0  0  0  0  0
  -21.9520   -4.7208   21.3546 C   0  0  0  0  0  0  0  0  0  0  0  0
  -26.8724  -21.8681   21.8685 C   0  0  0  0  0  0  0  0  0  0  0  0
  -25.9179  -19.7722   21.1384 C   0  0  0  0  0  0  0  0  0  0  0  0
  -25.2085  -11.2898   21.6851 C   0  0  0  0  0  0  0  0  0  0  0  0
  -26.6603  -12.7887   22.3784 C   0  0  0  0  0  0  0  0  0  0  0  0
  -25.7957  -11.2980   24.1891 C   0  0  0  0  0  0  0  0  0  0  0  0
  -28.2957  -27.9719   20.6648 C   0  0  0  0  0  0  0  0  0  0  0  0
  -26.7569  -30.4483   22.0866 C   0  0  0  0  0  0  0  0  0  0  0  0
  -23.7950  -31.9323   22.9062 C   0  0  0  0  0  0  0  0  0  0  0  0
  -26.9086  -17.4908   19.2124 C   0  0  0  0  0  0  0  0  0  0  0  0
  -33.0051  -26.9768   18.9649 C   0  0  0  0  0  0  0  0  0  0  0  0
  -26.7277  -28.7084   18.8331 C   0  0  0  0  0  0  0  0  0  0  0  0
  -25.3407  -28.4651   21.4335 C   0  0  0  0  0  0  0  0  0  0  0  0
  -32.3966  -27.9003   20.0172 C   0  0  0  0  0  0  0  0  0  0  0  0
  -27.8063  -14.2550   17.6847 C   0  0  0  0  0  0  0  0  0  0  0  0
  -31.4282  -27.1291   20.9084 C   0  0  0  0  0  0  0  0  0  0  0  0
  -27.2040  -13.2412   18.6560 C   0  0  0  0  0  0  0  0  0  0  0  0
  -27.0154  -15.5597   17.6645 C   0  0  0  0  0  0  0  0  0  0  0  0
  -26.2403  -15.1640   19.9825 C   0  0  0  0  0  0  0  0  0  0  0  0
  -30.2620  -26.5589   20.0921 C   0  0  1  0  0  0  0  0  0  0  0  0
  -27.4136  -29.0723   20.1463 C   0  0  1  0  0  0  0  0  0  0  0  0
  -27.0400  -13.8545   20.0574 C   0  0  1  0  0  0  0  0  0  0  0  0
  -29.3806  -22.1630   21.9441 C   0  0  0  0  0  0  0  0  0  0  0  0
  -22.8565  -33.9286   24.1026 C   0  0  0  0  0  0  0  0  0  0  0  0
  -27.3697  -29.1265   24.7675 C   0  0  0  0  0  0  0  0  0  0  0  0
  -25.6397  -30.6041   25.8125 C   0  0  0  0  0  0  0  0  0  0  0  0
  -27.6543  -31.6110   24.7401 C   0  0  0  0  0  0  0  0  0  0  0  0
  -28.3588  -17.0539   21.1811 C   0  0  0  0  0  0  0  0  0  0  0  0
  -22.4877  -32.9363   20.4481 C   0  0  0  0  0  0  0  0  0  0  0  0
  -24.3766  -21.6323   21.8136 C   0  0  0  0  0  0  0  0  0  0  0  0
  -21.6830  -22.8165   19.3634 C   0  0  0  0  0  0  0  0  0  0  0  0
  -22.2988  -22.4729   20.7114 C   0  0  0  0  0  0  0  0  0  0  0  0
  -22.4108  -23.9319   18.6233 C   0  0  0  0  0  0  0  0  0  1  0  0
  -25.8517  -30.5979   23.2854 C   0  0  1  0  0  0  0  0  0  0  0  0
  -23.3135  -33.3651   22.7661 C   0  0  2  0  0  0  0  0  0  0  0  0
  -26.6221  -30.4678   24.6297 C   0  0  0  0  0  0  0  0  0  0  0  0
  -25.5390  -11.9698   20.5840 N   0  0  0  0  0  0  0  0  0  0  0  0
  -26.4231  -12.8744   21.0380 N   0  0  0  0  0  0  0  0  0  0  0  0
  -26.4614  -29.3937   21.2113 N   0  0  0  0  0  0  0  0  0  0  0  0
  -26.8348  -16.0975   19.0135 N   0  0  0  0  0  0  0  0  0  0  0  0
  -27.5222  -13.6224   22.9984 N   0  0  0  0  0  0  0  0  0  0  0  0
  -24.9410  -10.2266   24.4824 N   0  0  0  0  0  0  0  0  0  0  0  0
  -29.2996  -27.5973   19.7922 N   0  0  0  0  0  0  0  0  0  0  0  0
  -25.1564  -31.8692   23.1158 N   0  0  0  0  0  0  0  0  0  0  0  0
  -27.4096  -17.9112   20.4635 N   0  0  0  0  0  0  0  0  0  0  0  0
  -22.1720  -33.4369   21.8107 N   0  3  0  0  0  0  0  0  0  0  0  0
  -23.6862  -21.9814   20.5412 N   0  3  0  0  0  0  0  0  0  0  0  0
  -26.4495  -11.8333   25.1162 O   0  0  0  0  0  0  0  0  0  0  0  0
  -28.0823  -27.4988   21.7748 O   0  0  0  0  0  0  0  0  0  0  0  0
  -27.6875  -31.2425   21.9287 O   0  0  0  0  0  0  0  0  0  0  0  0
  -23.0385  -30.9659   22.8402 O   0  0  0  0  0  0  0  0  0  0  0  0
  -26.5810  -18.2940   18.3308 O   0  0  0  0  0  0  0  0  0  0  0  0
  -21.5275   -7.0909   21.3920 O   0  0  0  0  0  0  0  0  0  0  0  0
  -22.3986  -25.1046   19.4362 O   0  0  0  0  0  0  0  0  0  1  0  0
  -22.7559   -2.4238   24.0590 F   0  0  0  0  0  0  0  0  0  0  0  0
  -21.7683   -4.6988   20.0273 F   0  0  0  0  0  0  0  0  0  0  0  0
  -26.6774  -23.4910   22.4444 Cl  0  0  0  0  0  0  0  0  0  0  0  0
  -24.5282  -18.7881   20.8064 Cl  0  0  0  0  0  0  0  0  0  0  0  0
  1  2  1  0  0  0  0
  1  5  2  0  0  0  0
  2  6  2  0  0  0  0
  3  8  2  0  0  0  0
  3 16  1  0  0  0  0
  4  9  1  0  0  0  0
  4 16  2  0  0  0  0
  5 18  1  0  0  0  0
  6 20  1  0  0  0  0
  7 10  2  0  0  0  0
  7 19  1  0  0  0  0
  8 25  1  0  0  0  0
  9 25  2  0  0  0  0
 10 26  1  0  0  0  0
 11 12  2  0  0  0  0
 11 27  1  0  0  0  0
 12 28  1  0  0  0  0
 13 21  1  0  0  0  0
 13 26  2  0  0  0  0
 14 22  1  0  0  0  0
 14 24  2  0  0  0  0
 15 28  2  0  0  0  0
 15 29  1  0  0  0  0
 16 32  1  0  0  0  0
 17 32  1  0  0  0  0
 17 33  2  0  0  0  0
 17 34  1  0  0  0  0
 18 20  2  0  0  0  0
 18 39  1  0  0  0  0
 19 21  2  0  0  0  0
 19 40  1  0  0  0  0
 20 48  1  0  0  0  0
 21 41  1  0  0  0  0
 22 30  2  0  0  0  0
 22 51  1  0  0  0  0
 23 30  1  0  0  0  0
 23 31  2  0  0  0  0
 23 58  1  0  0  0  0
 24 31  1  0  0  0  0
 24 73  1  0  0  0  0
 25 81  1  0  0  0  0
 26 82  1  0  0  0  0
 27 29  2  0  0  0  0
 27 81  1  0  0  0  0
 28 83  1  0  0  0  0
 29 84  1  0  0  0  0
 30 85  1  0  0  0  0
 31 86  1  0  0  0  0
 32 65  2  0  0  0  0
 33 66  1  0  0  0  0
 33 69  1  0  0  0  0
 34 70  1  0  0  0  0
 34 76  2  0  0  0  0
 35 49  1  0  0  0  0
 35 71  1  0  0  0  0
 35 77  2  0  0  0  0
 36 62  1  0  0  0  0
 36 67  1  0  0  0  0
 36 78  2  0  0  0  0
 37 63  1  0  0  0  0
 37 72  1  0  0  0  0
 37 79  2  0  0  0  0
 38 68  1  0  0  0  0
 38 73  1  0  0  0  0
 38 80  2  0  0  0  0
 39 42  1  0  0  0  0
 40 49  1  0  0  0  0
 41 67  1  0  0  0  0
 42 44  1  0  0  0  0
 43 45  1  0  0  0  0
 43 46  1  0  0  0  0
 44 48  1  0  0  0  0
 45 50  1  0  0  0  0
 46 68  1  0  0  0  0
 47 50  1  0  0  0  0
 47 68  1  0  0  0  0
 48 71  1  0  0  0  0
 49 67  1  0  0  0  0
 50 66  1  0  0  0  0
 52 63  1  0  0  0  0
 53 64  1  0  0  0  0
 54 64  1  0  0  0  0
 55 64  1  0  0  0  0
 56 73  1  0  0  0  0
 57 74  1  0  0  0  0
 58 75  1  0  0  0  0
 59 60  1  0  0  0  0
 59 61  1  0  0  0  0
 60 75  1  0  0  0  0
 61 82  1  0  0  0  0
 62 64  1  0  0  0  0
 62 72  1  0  0  0  0
 63 74  1  0  0  0  0
 65 66  1  0  0  0  0
M  CHG  2  74   1  75   1
M  ISO  4  38 100  61 101  73 100  82 101
M  END
> <Batch ID>
0017

> <Smiles>
CNC(C)C(=O)NC(C(=O)N1Cc2cc([101O:1][101CH2:1]CCNCc3c(Cl)c(C)cc([100N:0](C)[100C:0](=O)N4CCCC(n5nc(-c6ccc(Oc7ccc(F)cc7F)cc6)c(C(N)=O)c5N)C4)c3Cl)ccc2CC1C(=O)NC1CCCc2ccccc21)C(C)(C)C

> <Shape>
0.281

> <Color>
0.087

> <Negative vol penalty>
0.000

$$$$

  -OEChem-04052316012D

  0  0  0     0  0  0  0  0  0999 V2000
M  END
$$$$

  -OEChem-04052316013D

 81 89  0     1  0  0  0  0  0999 V2000
  -28.8045  -32.1634   20.5892 C   0  0  0  0  0  0  0  0  0  0  0  0
  -29.1758  -30.8246   20.5174 C   0  0  0  0  0  0  0  0  0  0  0  0
  -23.0793   -9.8628   19.9414 C   0  0  0  0  0  0  0  0  0  0  0  0
  -23.8346   -9.8761   22.2362 C   0  0  0  0  0  0  0  0  0  0  0  0
  -28.1697  -32.6492   21.7316 C   0  0  0  0  0  0  0  0  0  0  0  0
  -28.9136  -29.9710   21.5884 C   0  0  0  0  0  0  0  0  0  0  0  0
  -27.4347  -24.0356   21.2892 C   0  0  0  0  0  0  0  0  0  0  0  0
  -22.3364   -8.7093   20.1926 C   0  0  0  0  0  0  0  0  0  0  0  0
  -23.0916   -8.7227   22.4875 C   0  0  0  0  0  0  0  0  0  0  0  0
  -28.1881  -22.8724   21.4411 C   0  0  0  0  0  0  0  0  0  0  0  0
  -19.8632   -7.9223   23.0854 C   0  0  0  0  0  0  0  0  0  0  0  0
  -19.1040   -7.8842   24.2549 C   0  0  0  0  0  0  0  0  0  0  0  0
  -27.5055  -22.7392   23.7510 C   0  0  0  0  0  0  0  0  0  0  0  0
  -32.2189  -18.2301   23.1471 C   0  0  0  0  0  0  0  0  0  0  0  0
  -20.3463   -5.9500   24.9984 C   0  0  0  0  0  0  0  0  0  0  0  0
  -23.8285  -10.4462   20.9632 C   0  0  0  0  0  0  0  0  0  0  0  0
  -24.1674  -12.9715   20.8379 C   0  0  0  0  0  0  0  0  0  0  0  0
  -27.8909  -31.7990   22.8133 C   0  0  0  0  0  0  0  0  0  0  0  0
  -26.7186  -24.5662   22.3718 C   0  0  0  0  0  0  0  0  0  0  0  0
  -28.2757  -30.4462   22.7469 C   0  0  0  0  0  0  0  0  0  0  0  0
  -26.7417  -23.9078   23.6095 C   0  0  0  0  0  0  0  0  0  0  0  0
  -31.5468  -19.4059   22.8132 C   0  0  0  0  0  0  0  0  0  0  0  0
  -30.3893  -19.3511   22.0368 C   0  0  0  0  0  0  0  0  0  0  0  0
  -29.9038  -18.1205   21.5944 C   0  0  0  0  0  0  0  0  0  0  0  0
  -30.5759  -16.9448   21.9283 C   0  0  0  0  0  0  0  0  0  0  0  0
  -22.3425   -8.1393   21.4656 C   0  0  0  0  0  0  0  0  0  0  0  0
  -28.2260  -22.2256   22.6729 C   0  0  0  0  0  0  0  0  0  0  0  0
  -20.8640   -6.9742   22.8724 C   0  0  0  0  0  0  0  0  0  0  0  0
  -19.3455   -6.8981   25.2114 C   0  0  0  0  0  0  0  0  0  0  0  0
  -21.1055   -5.9881   23.8289 C   0  0  0  0  0  0  0  0  0  0  0  0
  -31.7334  -16.9995   22.7046 C   0  0  0  0  0  0  0  0  0  0  0  0
  -24.5966  -11.6374   20.7042 C   0  0  0  0  0  0  0  0  0  0  0  0
  -25.2594  -13.7214   20.4750 C   0  0  0  0  0  0  0  0  0  0  0  0
  -22.8955  -13.4867   21.2530 C   0  0  0  0  0  0  0  0  0  0  0  0
  -26.8093  -27.2947   24.0000 C   0  0  0  0  0  0  0  0  0  0  0  0
  -24.1728  -26.0708   25.4399 C   0  0  0  0  0  0  0  0  0  0  0  0
  -22.3532  -23.3115   26.2897 C   0  0  0  0  0  0  0  0  0  0  0  0
  -30.7239  -14.7742   20.6582 C   0  0  0  0  0  0  0  0  0  0  0  0
  -27.2453  -32.3805   24.0460 C   0  0  0  0  0  0  0  0  0  0  0  0
  -25.8892  -25.8070   22.1845 C   0  0  0  0  0  0  0  0  0  0  0  0
  -25.9743  -24.4254   24.7976 C   0  0  0  0  0  0  0  0  0  0  0  0
  -26.6670  -31.3258   24.9859 C   0  0  0  0  0  0  0  0  0  0  0  0
  -29.6172  -12.3534   18.2934 C   0  0  0  0  0  0  0  0  0  0  0  0
  -27.6677  -30.1943   25.1989 C   0  0  0  0  0  0  0  0  0  0  0  0
  -28.1771  -12.0611   18.7208 C   0  0  0  0  0  0  0  0  0  0  0  0
  -30.5297  -12.5862   19.4963 C   0  0  0  0  0  0  0  0  0  0  0  0
  -28.6190  -13.3116   20.8720 C   0  0  0  0  0  0  0  0  0  0  0  0
  -27.9861  -29.4835   23.8780 C   0  0  1  0  0  0  0  0  0  0  0  0
  -25.6116  -26.5432   23.4915 C   0  0  1  0  0  0  0  0  0  0  0  0
  -27.6488  -13.1343   19.6927 C   0  0  2  0  0  0  0  0  0  0  0  0
  -32.0876  -20.7104   23.3005 C   0  0  0  0  0  0  0  0  0  0  0  0
  -28.6606  -18.0689   20.7614 C   0  0  0  0  0  0  0  0  0  0  0  0
  -20.2635  -22.6252   27.4978 C   0  0  0  0  0  0  0  0  0  0  0  0
  -25.5639  -26.5491   28.1130 C   0  0  0  0  0  0  0  0  0  0  0  0
  -23.8960  -25.0144   29.1764 C   0  0  0  0  0  0  0  0  0  0  0  0
  -23.1300  -27.1233   28.0862 C   0  0  0  0  0  0  0  0  0  0  0  0
  -21.1967  -22.1082   23.8456 C   0  0  0  0  0  0  0  0  0  0  0  0
  -29.6691  -20.6178   21.6788 C   0  0  0  0  0  0  0  0  0  1  0  0
  -23.9209  -25.2006   26.6475 C   0  0  1  0  0  0  0  0  0  0  0  0
  -20.8734  -23.0003   26.1561 C   0  0  2  0  0  0  0  0  0  0  0  0
  -24.1438  -25.9629   27.9841 C   0  0  0  0  0  0  0  0  0  0  0  0
  -25.8624  -11.5421   20.2887 N   0  0  0  0  0  0  0  0  0  0  0  0
  -26.2380  -12.8259   20.1580 N   0  0  0  0  0  0  0  0  0  0  0  0
  -25.1832  -25.6452   24.5660 N   0  0  0  0  0  0  0  0  0  0  0  0
  -29.9676  -13.6184   20.3701 N   0  0  0  0  0  0  0  0  0  0  0  0
  -25.4683  -15.0530   20.3992 N   0  0  0  0  0  0  0  0  0  0  0  0
  -21.8840  -12.5771   21.5904 N   0  0  0  0  0  0  0  0  0  0  0  0
  -30.0738  -15.7004   21.4731 N   0  0  0  0  0  0  0  0  0  0  0  0
  -26.9111  -28.5849   23.5157 N   0  0  0  0  0  0  0  0  0  0  0  0
  -22.5763  -24.6579   26.4862 N   0  0  0  0  0  0  0  0  0  0  0  0
  -20.6657  -21.8662   25.2118 N   0  3  0  0  0  0  0  0  0  0  0  0
  -22.6576  -14.7172   21.3069 O   0  0  0  0  0  0  0  0  0  0  0  0
  -27.5828  -26.7453   24.7755 O   0  0  0  0  0  0  0  0  0  0  0  0
  -23.4930  -27.0867   25.2741 O   0  0  0  0  0  0  0  0  0  0  0  0
  -23.2239  -22.4461   26.2297 O   0  0  0  0  0  0  0  0  0  0  0  0
  -31.8537  -14.9432   20.1924 O   0  0  0  0  0  0  0  0  0  0  0  0
  -21.6174   -7.0138   21.7112 O   0  0  0  0  0  0  0  0  0  0  0  0
  -28.9611  -21.0904   22.8241 O   0  0  0  0  0  0  0  0  0  1  0  0
  -18.6174   -6.8626   26.3351 F   0  0  0  0  0  0  0  0  0  0  0  0
  -22.0664   -5.0753   23.6304 F   0  0  0  0  0  0  0  0  0  0  0  0
  -32.5994  -15.5694   23.1430 Cl  0  0  0  0  0  0  0  0  0  0  0  0
  1  2  1  0  0  0  0
  1  5  2  0  0  0  0
  2  6  2  0  0  0  0
  3  8  2  0  0  0  0
  3 16  1  0  0  0  0
  4  9  1  0  0  0  0
  4 16  2  0  0  0  0
  5 18  1  0  0  0  0
  6 20  1  0  0  0  0
  7 10  2  0  0  0  0
  7 19  1  0  0  0  0
  8 26  1  0  0  0  0
  9 26  2  0  0  0  0
 10 27  1  0  0  0  0
 11 12  2  0  0  0  0
 11 28  1  0  0  0  0
 12 29  1  0  0  0  0
 13 21  1  0  0  0  0
 13 27  2  0  0  0  0
 14 22  2  0  0  0  0
 14 31  1  0  0  0  0
 15 29  2  0  0  0  0
 15 30  1  0  0  0  0
 16 32  1  0  0  0  0
 17 32  1  0  0  0  0
 17 33  2  0  0  0  0
 17 34  1  0  0  0  0
 18 20  2  0  0  0  0
 18 39  1  0  0  0  0
 19 21  2  0  0  0  0
 19 40  1  0  0  0  0
 20 48  1  0  0  0  0
 21 41  1  0  0  0  0
 22 23  1  0  0  0  0
 22 51  1  0  0  0  0
 23 24  2  0  0  0  0
 23 58  1  0  0  0  0
 24 25  1  0  0  0  0
 24 52  1  0  0  0  0
 25 31  2  0  0  0  0
 25 68  1  0  0  0  0
 26 77  1  0  0  0  0
 27 78  1  0  0  0  0
 28 30  2  0  0  0  0
 28 77  1  0  0  0  0
 29 79  1  0  0  0  0
 30 80  1  0  0  0  0
 31 81  1  0  0  0  0
 32 62  2  0  0  0  0
 33 63  1  0  0  0  0
 33 66  1  0  0  0  0
 34 67  1  0  0  0  0
 34 72  2  0  0  0  0
 35 49  1  0  0  0  0
 35 69  1  0  0  0  0
 35 73  2  0  0  0  0
 36 59  1  0  0  0  0
 36 64  1  0  0  0  0
 36 74  2  0  0  0  0
 37 60  1  0  0  0  0
 37 70  1  0  0  0  0
 37 75  2  0  0  0  0
 38 65  1  0  0  0  0
 38 68  1  0  0  0  0
 38 76  2  0  0  0  0
 39 42  1  0  0  0  0
 40 49  1  0  0  0  0
 41 64  1  0  0  0  0
 42 44  1  0  0  0  0
 43 45  1  0  0  0  0
 43 46  1  0  0  0  0
 44 48  1  0  0  0  0
 45 50  1  0  0  0  0
 46 65  1  0  0  0  0
 47 50  1  0  0  0  0
 47 65  1  0  0  0  0
 48 69  1  0  0  0  0
 49 64  1  0  0  0  0
 50 63  1  0  0  0  0
 53 60  1  0  0  0  0
 54 61  1  0  0  0  0
 55 61  1  0  0  0  0
 56 61  1  0  0  0  0
 57 71  1  0  0  0  0
 58 78  1  0  0  0  0
 59 61  1  0  0  0  0
 59 70  1  0  0  0  0
 60 71  1  0  0  0  0
 62 63  1  0  0  0  0
M  CHG  1  71   1
M  ISO  4  38 100  58 101  68 100  78 101
M  END
> <Batch ID>
0017

> <Smiles>
CNC(C)C(=O)NC(C(=O)N1Cc2cc([101O:1][101CH2:1]c3c(C)cc(Cl)c([100NH:0][100C:0](=O)N4CCCC(n5nc(-c6ccc(Oc7ccc(F)cc7F)cc6)c(C(N)=O)c5N)C4)c3C)ccc2CC1C(=O)NC1CCCc2ccccc21)C(C)(C)C

> <Shape>
0.237

> <Color>
0.200

> <Negative vol penalty>
0.000

$$$$

  -OEChem-04052316013D

 91100  0     1  0  0  0  0  0999 V2000
  -26.0117  -38.3983   22.7095 C   0  0  0  0  0  0  0  0  0  0  0  0
  -27.0786  -37.5056   22.6997 C   0  0  0  0  0  0  0  0  0  0  0  0
  -17.7647  -13.2882   22.2639 C   0  0  0  0  0  0  0  0  0  0  0  0
  -19.7197  -14.6764   22.5605 C   0  0  0  0  0  0  0  0  0  0  0  0
  -24.8693  -38.1093   23.4548 C   0  0  0  0  0  0  0  0  0  0  0  0
  -27.0043  -36.3238   23.4361 C   0  0  0  0  0  0  0  0  0  0  0  0
  -27.6522  -29.9074   20.2267 C   0  0  0  0  0  0  0  0  0  0  0  0
  -17.0608  -14.0869   23.1651 C   0  0  0  0  0  0  0  0  0  0  0  0
  -19.0157  -15.4752   23.4616 C   0  0  0  0  0  0  0  0  0  0  0  0
  -27.9767  -28.6495   19.7181 C   0  0  0  0  0  0  0  0  0  0  0  0
  -18.0712  -15.3342   26.7049 C   0  0  0  0  0  0  0  0  0  0  0  0
  -18.7131  -15.6950   27.8896 C   0  0  0  0  0  0  0  0  0  0  0  0
  -27.5583  -27.6548   21.8823 C   0  0  0  0  0  0  0  0  0  0  0  0
  -29.7507  -14.0723   19.4682 C   0  0  0  0  0  0  0  0  0  0  0  0
  -18.4872  -18.0274   27.3015 C   0  0  0  0  0  0  0  0  0  0  0  0
  -19.0942  -13.5829   21.9616 C   0  0  0  0  0  0  0  0  0  0  0  0
  -19.5052  -12.5165   19.6809 C   0  0  0  0  0  0  0  0  0  0  0  0
  -24.7770  -36.9189   24.1930 C   0  0  0  0  0  0  0  0  0  0  0  0
  -27.2641  -30.0416   21.5626 C   0  0  0  0  0  0  0  0  0  0  0  0
  -25.8601  -36.0193   24.1931 C   0  0  0  0  0  0  0  0  0  0  0  0
  -27.2200  -28.9104   22.3940 C   0  0  0  0  0  0  0  0  0  0  0  0
  -29.6273  -12.7021   19.2387 C   0  0  0  0  0  0  0  0  0  0  0  0
  -28.4644  -12.0330   19.6203 C   0  0  0  0  0  0  0  0  0  0  0  0
  -27.5484  -14.1045   20.4611 C   0  0  0  0  0  0  0  0  0  0  0  0
  -28.7113  -14.7736   20.0794 C   0  0  0  0  0  0  0  0  0  0  0  0
  -27.4249  -12.7342   20.2315 C   0  0  0  0  0  0  0  0  0  0  0  0
  -17.6863  -15.1804   23.7639 C   0  0  0  0  0  0  0  0  0  0  0  0
  -27.9301  -27.5261   20.5440 C   0  0  0  0  0  0  0  0  0  0  0  0
  -17.6374  -16.3200   25.8185 C   0  0  0  0  0  0  0  0  0  0  0  0
  -18.9211  -17.0416   28.1879 C   0  0  0  0  0  0  0  0  0  0  0  0
  -17.8454  -17.6666   26.1168 C   0  0  0  0  0  0  0  0  0  0  0  0
  -19.8220  -12.7579   21.0312 C   0  0  0  0  0  0  0  0  0  0  0  0
  -20.4975  -11.6751   19.2406 C   0  0  0  0  0  0  0  0  0  0  0  0
  -18.4117  -13.0087   18.8950 C   0  0  0  0  0  0  0  0  0  0  0  0
  -26.1398  -32.3367   24.3093 C   0  0  0  0  0  0  0  0  0  0  0  0
  -24.4865  -29.7653   24.5641 C   0  0  0  0  0  0  0  0  0  0  0  0
  -22.0700  -27.4325   25.1605 C   0  0  0  0  0  0  0  0  0  0  0  0
  -26.1247  -10.7218   21.0101 C   0  0  0  0  0  0  0  0  0  0  0  0
  -23.5409  -36.6722   25.0212 C   0  0  0  0  0  0  0  0  0  0  0  0
  -26.9653  -31.3858   22.1690 C   0  0  0  0  0  0  0  0  0  0  0  0
  -26.8305  -29.1076   23.8336 C   0  0  0  0  0  0  0  0  0  0  0  0
  -23.3910  -35.2224   25.4748 C   0  0  0  0  0  0  0  0  0  0  0  0
  -23.5182   -8.3049   20.8063 C   0  0  0  0  0  0  0  0  0  0  0  0
  -24.7108  -34.6979   26.0313 C   0  0  0  0  0  0  0  0  0  0  0  0
  -22.2461   -9.1506   20.7118 C   0  0  0  0  0  0  0  0  0  0  0  0
  -29.6231  -18.0093   21.7211 C   0  0  0  0  0  0  0  0  0  0  0  0
  -28.0515  -18.4289   19.8148 C   0  0  0  0  0  0  0  0  0  0  0  0
  -24.5529   -8.9386   21.7344 C   0  0  0  0  0  0  0  0  0  0  0  0
  -29.9549  -16.6339   21.1413 C   0  0  0  0  0  0  0  0  0  0  0  0
  -28.3927  -17.0556   19.2377 C   0  0  0  0  0  0  0  0  0  0  0  0
  -23.6150  -11.1815   21.3354 C   0  0  0  0  0  0  0  0  0  0  0  0
  -25.8072  -34.7153   24.9593 C   0  0  1  0  0  0  0  0  0  0  0  0
  -25.8514  -31.3350   23.2300 C   0  0  1  0  0  0  0  0  0  0  0  0
  -22.5687  -10.6163   20.3609 C   0  0  2  0  0  0  0  0  0  0  0  0
  -29.2213  -18.9835   20.6198 C   0  0  0  0  0  0  0  0  0  0  0  0
  -30.7557  -11.9747   18.5835 C   0  0  0  0  0  0  0  0  0  0  0  0
  -28.3406  -10.5616   19.3736 C   0  0  0  0  0  0  0  0  0  0  0  0
  -26.4334  -14.8606   21.1153 C   0  0  0  0  0  0  0  0  0  0  0  0
  -20.6006  -26.5418   26.9893 C   0  0  0  0  0  0  0  0  0  0  0  0
  -26.8711  -28.2790   25.7509 C   0  0  0  0  0  0  0  0  0  0  0  0
  -25.2559  -26.7408   26.8882 C   0  0  0  0  0  0  0  0  0  0  0  0
  -25.2552  -29.1743   27.4367 C   0  0  0  0  0  0  0  0  0  0  0  0
  -19.6051  -28.1770   23.7013 C   0  0  0  0  0  0  0  0  0  0  0  0
  -28.5034  -22.6963   21.0893 C   0  0  0  0  0  0  0  0  0  0  0  0
  -28.5403  -23.9235   20.1816 C   0  0  0  0  0  0  0  0  0  0  0  0
  -28.9112  -21.4426   20.3300 C   0  0  0  0  0  0  0  0  0  0  0  0
  -28.1761  -25.1933   20.9377 C   0  0  0  0  0  0  0  0  0  1  0  0
  -24.3511  -28.4068   25.2039 C   0  0  1  0  0  0  0  0  0  0  0  0
  -20.7179  -27.5343   25.8431 C   0  0  2  0  0  0  0  0  0  0  0  0
  -25.4327  -28.1535   26.2916 C   0  0  0  0  0  0  0  0  0  0  0  0
  -20.9289  -12.1213   21.4229 N   0  0  0  0  0  0  0  0  0  0  0  0
  -21.3163  -11.4714   20.3121 N   0  0  0  0  0  0  0  0  0  0  0  0
  -28.8541  -16.1490   20.2997 N   0  0  0  0  0  0  0  0  0  0  0  0
  -25.7001  -30.0450   23.9243 N   0  0  0  0  0  0  0  0  0  0  0  0
  -24.8113  -10.3249   21.3388 N   0  0  0  0  0  0  0  0  0  0  0  0
  -20.7408  -11.0971   18.0451 N   0  0  0  0  0  0  0  0  0  0  0  0
  -17.4829  -13.8636   19.5039 N   0  0  0  0  0  0  0  0  0  0  0  0
  -26.2430  -12.0547   20.6175 N   0  0  0  0  0  0  0  0  0  0  0  0
  -25.6439  -33.6004   24.0511 N   0  0  0  0  0  0  0  0  0  0  0  0
  -22.9795  -28.3211   25.6937 N   0  0  0  0  0  0  0  0  0  0  0  0
  -28.8170  -20.2733   21.2370 N   0  3  0  0  0  0  0  0  0  0  0  0
  -19.6239  -27.2591   24.8693 N   0  3  0  0  0  0  0  0  0  0  0  0
  -18.2536  -12.6866   17.6931 O   0  0  0  0  0  0  0  0  0  0  0  0
  -26.7649  -31.9895   25.3045 O   0  0  0  0  0  0  0  0  0  0  0  0
  -23.5456  -30.5610   24.6331 O   0  0  0  0  0  0  0  0  0  0  0  0
  -22.2976  -26.6411   24.2481 O   0  0  0  0  0  0  0  0  0  0  0  0
  -27.0701   -9.9301   21.0461 O   0  0  0  0  0  0  0  0  0  0  0  0
  -16.9996  -15.9601   24.6432 O   0  0  0  0  0  0  0  0  0  0  0  0
  -28.2437  -26.3004   20.0399 O   0  0  0  0  0  0  0  0  0  1  0  0
  -19.5361  -17.3880   29.3263 F   0  0  0  0  0  0  0  0  0  0  0  0
  -17.4298  -18.6182   25.2697 F   0  0  0  0  0  0  0  0  0  0  0  0
  1  2  1  0  0  0  0
  1  5  2  0  0  0  0
  2  6  2  0  0  0  0
  3  8  2  0  0  0  0
  3 16  1  0  0  0  0
  4  9  1  0  0  0  0
  4 16  2  0  0  0  0
  5 18  1  0  0  0  0
  6 20  1  0  0  0  0
  7 10  2  0  0  0  0
  7 19  1  0  0  0  0
  8 27  1  0  0  0  0
  9 27  2  0  0  0  0
 10 28  1  0  0  0  0
 11 12  2  0  0  0  0
 11 29  1  0  0  0  0
 12 30  1  0  0  0  0
 13 21  1  0  0  0  0
 13 28  2  0  0  0  0
 14 22  2  0  0  0  0
 14 25  1  0  0  0  0
 15 30  2  0  0  0  0
 15 31  1  0  0  0  0
 16 32  1  0  0  0  0
 17 32  1  0  0  0  0
 17 33  2  0  0  0  0
 17 34  1  0  0  0  0
 18 20  2  0  0  0  0
 18 39  1  0  0  0  0
 19 21  2  0  0  0  0
 19 40  1  0  0  0  0
 20 52  1  0  0  0  0
 21 41  1  0  0  0  0
 22 23  1  0  0  0  0
 22 56  1  0  0  0  0
 23 26  2  0  0  0  0
 23 57  1  0  0  0  0
 24 25  2  0  0  0  0
 24 26  1  0  0  0  0
 24 58  1  0  0  0  0
 25 73  1  0  0  0  0
 26 78  1  0  0  0  0
 27 88  1  0  0  0  0
 28 89  1  0  0  0  0
 29 31  2  0  0  0  0
 29 88  1  0  0  0  0
 30 90  1  0  0  0  0
 31 91  1  0  0  0  0
 32 71  2  0  0  0  0
 33 72  1  0  0  0  0
 33 76  1  0  0  0  0
 34 77  1  0  0  0  0
 34 83  2  0  0  0  0
 35 53  1  0  0  0  0
 35 79  1  0  0  0  0
 35 84  2  0  0  0  0
 36 68  1  0  0  0  0
 36 74  1  0  0  0  0
 36 85  2  0  0  0  0
 37 69  1  0  0  0  0
 37 80  1  0  0  0  0
 37 86  2  0  0  0  0
 38 75  1  0  0  0  0
 38 78  1  0  0  0  0
 38 87  2  0  0  0  0
 39 42  1  0  0  0  0
 40 53  1  0  0  0  0
 41 74  1  0  0  0  0
 42 44  1  0  0  0  0
 43 45  1  0  0  0  0
 43 48  1  0  0  0  0
 44 52  1  0  0  0  0
 45 54  1  0  0  0  0
 46 49  1  0  0  0  0
 46 55  1  0  0  0  0
 47 50  1  0  0  0  0
 47 55  1  0  0  0  0
 48 75  1  0  0  0  0
 49 73  1  0  0  0  0
 50 73  1  0  0  0  0
 51 54  1  0  0  0  0
 51 75  1  0  0  0  0
 52 79  1  0  0  0  0
 53 74  1  0  0  0  0
 54 72  1  0  0  0  0
 55 81  1  0  0  0  0
 59 69  1  0  0  0  0
 60 70  1  0  0  0  0
 61 70  1  0  0  0  0
 62 70  1  0  0  0  0
 63 82  1  0  0  0  0
 64 65  1  0  0  0  0
 64 66  1  0  0  0  0
 65 67  1  0  0  0  0
 66 81  1  0  0  0  0
 67 89  1  0  0  0  0
 68 70  1  0  0  0  0
 68 80  1  0  0  0  0
 69 82  1  0  0  0  0
 71 72  1  0  0  0  0
M  CHG  2  81   1  82   1
M  ISO  4  38 100  67 101  78 100  89 101
M  END
> <Batch ID>
0017

> <Smiles>
CNC(C)C(=O)NC(C(=O)N1Cc2cc([101O:1][101CH2:1]CCCNC3CCN(c4cc(C)c(C)c([100NH:0][100C:0](=O)N5CCCC(n6nc(-c7ccc(Oc8ccc(F)cc8F)cc7)c(C(N)=O)c6N)C5)c4C)CC3)ccc2CC1C(=O)NC1CCCc2ccccc21)C(C)(C)C

> <Shape>
0.277

> <Color>
0.054

> <Negative vol penalty>
0.000

$$$$

  -OEChem-04052316013D

 91 99  0     1  0  0  0  0  0999 V2000
  -31.2841  -13.5876   22.0805 C   0  0  0  0  0  0  0  0  0  0  0  0
  -30.8315  -14.9024   22.0379 C   0  0  0  0  0  0  0  0  0  0  0  0
  -24.6950  -29.9849   23.9079 C   0  0  0  0  0  0  0  0  0  0  0  0
  -24.1298  -27.7443   24.6130 C   0  0  0  0  0  0  0  0  0  0  0  0
  -30.6321  -12.6028   21.3396 C   0  0  0  0  0  0  0  0  0  0  0  0
  -29.7271  -15.2333   21.2535 C   0  0  0  0  0  0  0  0  0  0  0  0
  -25.4594  -19.4466   22.4950 C   0  0  0  0  0  0  0  0  0  0  0  0
  -23.3408  -30.2730   23.7379 C   0  0  0  0  0  0  0  0  0  0  0  0
  -22.7757  -28.0323   24.4431 C   0  0  0  0  0  0  0  0  0  0  0  0
  -25.2891  -20.7631   22.0689 C   0  0  0  0  0  0  0  0  0  0  0  0
  -20.5797  -28.2626   21.8827 C   0  0  0  0  0  0  0  0  0  0  0  0
  -19.7927  -27.3149   21.2285 C   0  0  0  0  0  0  0  0  0  0  0  0
  -23.7792  -20.0042   20.3474 C   0  0  0  0  0  0  0  0  0  0  0  0
  -18.4015  -27.1139   23.1936 C   0  0  0  0  0  0  0  0  0  0  0  0
  -25.0895  -28.7205   24.3454 C   0  0  0  0  0  0  0  0  0  0  0  0
  -29.3686  -21.5008   20.4177 C   0  0  0  0  0  0  0  0  0  0  0  0
  -27.2548  -28.5961   25.6884 C   0  0  0  0  0  0  0  0  0  0  0  0
  -29.5133  -12.9200   20.5533 C   0  0  0  0  0  0  0  0  0  0  0  0
  -24.7982  -18.3961   21.8425 C   0  0  0  0  0  0  0  0  0  0  0  0
  -29.0603  -14.2521   20.5004 C   0  0  0  0  0  0  0  0  0  0  0  0
  -23.9408  -18.6755   20.7688 C   0  0  0  0  0  0  0  0  0  0  0  0
  -29.4963  -22.1021   21.6941 C   0  0  0  0  0  0  0  0  0  0  0  0
  -22.3812  -29.2967   24.0056 C   0  0  0  0  0  0  0  0  0  0  0  0
  -24.4512  -21.0418   20.9931 C   0  0  0  0  0  0  0  0  0  0  0  0
  -20.2778  -28.6360   23.1923 C   0  0  0  0  0  0  0  0  0  0  0  0
  -18.7035  -26.7405   21.8840 C   0  0  0  0  0  0  0  0  0  0  0  0
  -19.1886  -28.0616   23.8478 C   0  0  0  0  0  0  0  0  0  0  0  0
  -26.4882  -28.4221   24.5205 C   0  0  0  0  0  0  0  0  0  0  0  0
  -29.0912  -20.1665   20.6174 C   0  0  0  0  0  0  0  0  0  0  0  0
  -29.2933  -21.1168   22.6351 C   0  0  0  0  0  0  0  0  0  0  0  0
  -28.5127  -28.1684   25.3403 C   0  0  0  0  0  0  0  0  0  0  0  0
  -29.4994  -22.1470   19.0820 C   0  0  0  0  0  0  0  0  0  0  0  0
  -26.8646  -29.0993   26.9731 C   0  0  0  0  0  0  0  0  0  0  0  0
  -25.7267  -15.8218   20.2255 C   0  0  0  0  0  0  0  0  0  0  0  0
  -22.5527  -15.1522   20.2324 C   0  0  0  0  0  0  0  0  0  0  0  0
  -19.3489  -16.3057   20.4586 C   0  0  0  0  0  0  0  0  0  0  0  0
  -30.5286  -24.3487   21.2110 C   0  0  0  0  0  0  0  0  0  0  0  0
  -28.8702  -11.8302   19.7327 C   0  0  0  0  0  0  0  0  0  0  0  0
  -24.9717  -16.9842   22.3314 C   0  0  0  0  0  0  0  0  0  0  0  0
  -23.1923  -17.5857   20.0474 C   0  0  0  0  0  0  0  0  0  0  0  0
  -27.4789  -12.1939   19.2206 C   0  0  0  0  0  0  0  0  0  0  0  0
  -31.4216  -27.7781   21.5560 C   0  0  0  0  0  0  0  0  0  0  0  0
  -27.4797  -13.5980   18.6244 C   0  0  0  0  0  0  0  0  0  0  0  0
  -30.3309  -28.3469   22.4666 C   0  0  0  0  0  0  0  0  0  0  0  0
  -30.8664  -26.7314   20.5917 C   0  0  0  0  0  0  0  0  0  0  0  0
  -29.0172  -26.2136   22.1349 C   0  0  0  0  0  0  0  0  0  0  0  0
  -27.8506  -14.6457   19.6808 C   0  0  1  0  0  0  0  0  0  0  0  0
  -24.6501  -15.9396   21.2670 C   0  0  1  0  0  0  0  0  0  0  0  0
  -29.5405  -27.2248   23.1679 C   0  0  2  0  0  0  0  0  0  0  0  0
  -28.8616  -19.0803   19.6398 C   0  0  0  0  0  0  0  0  0  0  0  0
  -29.3099  -21.1882   24.1121 C   0  0  0  0  0  0  0  0  0  0  0  0
  -30.5751  -21.6305   18.1477 C   0  0  0  0  0  0  0  0  0  0  0  0
  -16.9648  -15.5253   20.3910 C   0  0  0  0  0  0  0  0  0  0  0  0
  -22.7319  -14.8755   17.1990 C   0  0  0  0  0  0  0  0  0  0  0  0
  -20.2359  -15.0467   17.1058 C   0  0  0  0  0  0  0  0  0  0  0  0
  -21.3098  -13.1516   18.3216 C   0  0  0  0  0  0  0  0  0  0  0  0
  -28.7822  -18.6673   22.5972 C   0  0  0  0  0  0  0  0  0  0  0  0
  -18.8393  -17.2517   23.2162 C   0  0  0  0  0  0  0  0  0  0  0  0
  -25.3855  -26.5206   18.4703 C   0  0  0  0  0  0  0  0  0  0  0  0
  -26.8078  -27.0749   18.3673 C   0  0  0  0  0  0  0  0  0  0  0  0
  -25.1740  -25.7788   19.7931 C   0  0  0  0  0  0  0  0  0  0  0  0
  -27.8901  -25.9927   18.4295 C   0  0  0  0  0  0  0  0  0  0  0  0
  -23.7615  -25.1970   19.8819 C   0  0  0  0  0  0  0  0  0  0  0  0
  -27.7886  -24.8842   17.3748 C   0  0  0  0  0  0  0  0  0  0  0  0
  -23.4702  -24.5129   21.2225 C   0  0  0  0  0  0  0  0  0  0  0  0
  -28.8331  -23.7805   17.5015 C   0  0  0  0  0  0  0  0  0  0  0  0
  -24.3998  -23.3518   21.5563 C   0  0  0  0  0  0  0  0  0  1  0  0
  -21.3907  -15.4716   19.3231 C   0  0  1  0  0  0  0  0  0  0  0  0
  -18.1624  -15.8299   21.2774 C   0  0  2  0  0  0  0  0  0  0  0  0
  -21.4326  -14.6569   17.9995 C   0  0  0  0  0  0  0  0  0  0  0  0
  -27.1997  -27.9230   23.5063 N   0  0  0  0  0  0  0  0  0  0  0  0
  -28.6994  -23.1143   18.7975 N   0  0  0  0  0  0  0  0  0  0  0  0
  -29.0481  -19.9444   21.9691 N   0  0  0  0  0  0  0  0  0  0  0  0
  -28.4266  -27.7797   24.0358 N   0  0  0  0  0  0  0  0  0  0  0  0
  -23.3997  -16.2208   20.5587 N   0  0  0  0  0  0  0  0  0  0  0  0
  -30.1339  -25.6983   21.3273 N   0  0  0  0  0  0  0  0  0  0  0  0
  -29.6730  -28.0907   26.0259 N   0  0  0  0  0  0  0  0  0  0  0  0
  -25.5330  -29.4946   27.1595 N   0  0  0  0  0  0  0  0  0  0  0  0
  -29.7791  -23.4604   21.9817 N   0  0  0  0  0  0  0  0  0  0  0  0
  -26.7204  -14.9158   20.5434 N   0  0  0  0  0  0  0  0  0  0  0  0
  -20.1834  -15.2632   20.1152 N   0  0  0  0  0  0  0  0  0  0  0  0
  -17.7632  -16.8722   22.2649 N   0  3  0  0  0  0  0  0  0  0  0  0
  -27.6768  -29.2108   27.9225 O   0  0  0  0  0  0  0  0  0  0  0  0
  -25.6599  -16.5015   19.2080 O   0  0  0  0  0  0  0  0  0  0  0  0
  -22.6993  -13.9985   20.6438 O   0  0  0  0  0  0  0  0  0  0  0  0
  -19.5164  -17.4838   20.1511 O   0  0  0  0  0  0  0  0  0  0  0  0
  -31.4800  -24.0095   20.5027 O   0  0  0  0  0  0  0  0  0  0  0  0
  -21.0597  -29.5776   23.8401 O   0  0  0  0  0  0  0  0  0  0  0  0
  -24.2824  -22.3357   20.5715 O   0  0  0  0  0  0  0  0  0  1  0  0
  -17.9468  -25.8316   21.2552 F   0  0  0  0  0  0  0  0  0  0  0  0
  -18.8929  -28.4172   25.1055 F   0  0  0  0  0  0  0  0  0  0  0  0
  1  2  1  0  0  0  0
  1  5  2  0  0  0  0
  2  6  2  0  0  0  0
  3  8  2  0  0  0  0
  3 15  1  0  0  0  0
  4  9  1  0  0  0  0
  4 15  2  0  0  0  0
  5 18  1  0  0  0  0
  6 20  1  0  0  0  0
  7 10  2  0  0  0  0
  7 19  1  0  0  0  0
  8 23  1  0  0  0  0
  9 23  2  0  0  0  0
 10 24  1  0  0  0  0
 11 12  2  0  0  0  0
 11 25  1  0  0  0  0
 12 26  1  0  0  0  0
 13 21  1  0  0  0  0
 13 24  2  0  0  0  0
 14 26  2  0  0  0  0
 14 27  1  0  0  0  0
 15 28  1  0  0  0  0
 16 22  1  0  0  0  0
 16 29  2  0  0  0  0
 16 32  1  0  0  0  0
 17 28  1  0  0  0  0
 17 31  2  0  0  0  0
 17 33  1  0  0  0  0
 18 20  2  0  0  0  0
 18 38  1  0  0  0  0
 19 21  2  0  0  0  0
 19 39  1  0  0  0  0
 20 47  1  0  0  0  0
 21 40  1  0  0  0  0
 22 30  2  0  0  0  0
 22 79  1  0  0  0  0
 23 88  1  0  0  0  0
 24 89  1  0  0  0  0
 25 27  2  0  0  0  0
 25 88  1  0  0  0  0
 26 90  1  0  0  0  0
 27 91  1  0  0  0  0
 28 71  2  0  0  0  0
 29 50  1  0  0  0  0
 29 73  1  0  0  0  0
 30 51  1  0  0  0  0
 30 73  1  0  0  0  0
 31 74  1  0  0  0  0
 31 77  1  0  0  0  0
 32 52  1  0  0  0  0
 32 72  2  0  0  0  0
 33 78  1  0  0  0  0
 33 83  2  0  0  0  0
 34 48  1  0  0  0  0
 34 80  1  0  0  0  0
 34 84  2  0  0  0  0
 35 68  1  0  0  0  0
 35 75  1  0  0  0  0
 35 85  2  0  0  0  0
 36 69  1  0  0  0  0
 36 81  1  0  0  0  0
 36 86  2  0  0  0  0
 37 76  1  0  0  0  0
 37 79  1  0  0  0  0
 37 87  2  0  0  0  0
 38 41  1  0  0  0  0
 39 48  1  0  0  0  0
 40 75  1  0  0  0  0
 41 43  1  0  0  0  0
 42 44  1  0  0  0  0
 42 45  1  0  0  0  0
 43 47  1  0  0  0  0
 44 49  1  0  0  0  0
 45 76  1  0  0  0  0
 46 49  1  0  0  0  0
 46 76  1  0  0  0  0
 47 80  1  0  0  0  0
 48 75  1  0  0  0  0
 49 74  1  0  0  0  0
 53 69  1  0  0  0  0
 54 70  1  0  0  0  0
 55 70  1  0  0  0  0
 56 70  1  0  0  0  0
 57 73  1  0  0  0  0
 58 82  1  0  0  0  0
 59 60  1  0  0  0  0
 59 61  1  0  0  0  0
 60 62  1  0  0  0  0
 61 63  1  0  0  0  0
 62 64  1  0  0  0  0
 63 65  1  0  0  0  0
 64 66  1  0  0  0  0
 65 67  1  0  0  0  0
 66 72  1  0  0  0  0
 67 89  1  0  0  0  0
 68 70  1  0  0  0  0
 68 81  1  0  0  0  0
 69 82  1  0  0  0  0
 71 74  1  0  0  0  0
M  CHG  1  82   1
M  ISO  4  37 100  67 101  79 100  89 101
M  END
> <Batch ID>
0017

> <Smiles>
C=C(NCCCCCCCC[101CH2:1][101O:1]c1ccc2c(c1)CN(C(=O)C(NC(=O)C(C)NC)C(C)(C)C)C(C(=O)NC1CCCc3ccccc31)C2)c1c([100NH:0][100C:0](=O)N2CCCC(n3nc(-c4ccc(Oc5ccc(F)cc5F)cc4)c(C(N)=O)c3N)C2)c(C)n(C)c1C

> <Shape>
0.215

> <Color>
0.064

> <Negative vol penalty>
0.000

$$$$

  -OEChem-04052316013D

 83 91  0     1  0  0  0  0  0999 V2000
  -17.4127  -26.7195   25.6594 C   0  0  0  0  0  0  0  0  0  0  0  0
  -17.9943  -25.4954   25.3451 C   0  0  0  0  0  0  0  0  0  0  0  0
  -27.8215  -12.0595   20.1491 C   0  0  0  0  0  0  0  0  0  0  0  0
  -25.7841  -13.1992   20.7711 C   0  0  0  0  0  0  0  0  0  0  0  0
  -17.6600  -27.8336   24.8585 C   0  0  0  0  0  0  0  0  0  0  0  0
  -18.8228  -25.3846   24.2289 C   0  0  0  0  0  0  0  0  0  0  0  0
  -24.6028  -21.8545   21.8951 C   0  0  0  0  0  0  0  0  0  0  0  0
  -27.3229  -10.8737   20.6886 C   0  0  0  0  0  0  0  0  0  0  0  0
  -25.2854  -12.0135   21.3105 C   0  0  0  0  0  0  0  0  0  0  0  0
  -25.0302  -21.0820   20.8161 C   0  0  0  0  0  0  0  0  0  0  0  0
  -23.3294   -9.2014   22.5289 C   0  0  0  0  0  0  0  0  0  0  0  0
  -22.0105   -8.8576   22.2327 C   0  0  0  0  0  0  0  0  0  0  0  0
  -25.4493  -23.0924   19.5505 C   0  0  0  0  0  0  0  0  0  0  0  0
  -29.5446  -23.1131   18.2198 C   0  0  0  0  0  0  0  0  0  0  0  0
  -22.5499   -8.8169   19.8780 C   0  0  0  0  0  0  0  0  0  0  0  0
  -27.9974  -23.3106   16.5959 C   0  0  0  0  0  0  0  0  0  0  0  0
  -27.0521  -13.2223   20.1904 C   0  0  0  0  0  0  0  0  0  0  0  0
  -27.4206  -14.9080   18.3116 C   0  0  0  0  0  0  0  0  0  0  0  0
  -18.4996  -27.7386   23.7375 C   0  0  0  0  0  0  0  0  0  0  0  0
  -24.5851  -23.2539   21.8059 C   0  0  0  0  0  0  0  0  0  0  0  0
  -19.0805  -26.4982   23.4115 C   0  0  0  0  0  0  0  0  0  0  0  0
  -25.0237  -23.8805   20.6307 C   0  0  0  0  0  0  0  0  0  0  0  0
  -29.1989  -23.8171   17.0400 C   0  0  0  0  0  0  0  0  0  0  0  0
  -26.0548  -10.8507   21.2692 C   0  0  0  0  0  0  0  0  0  0  0  0
  -25.4508  -21.7008   19.6425 C   0  0  0  0  0  0  0  0  0  0  0  0
  -24.2586   -9.3531   21.4997 C   0  0  0  0  0  0  0  0  0  0  0  0
  -21.6207   -8.6653   20.9072 C   0  0  0  0  0  0  0  0  0  0  0  0
  -23.8689   -9.1609   20.1743 C   0  0  0  0  0  0  0  0  0  0  0  0
  -27.5669  -14.4476   19.6339 C   0  0  0  0  0  0  0  0  0  0  0  0
  -28.5439  -22.1976   18.4606 C   0  0  0  0  0  0  0  0  0  0  0  0
  -28.0855  -16.1097   18.2910 C   0  0  0  0  0  0  0  0  0  0  0  0
  -26.7441  -14.3037   17.2013 C   0  0  0  0  0  0  0  0  0  0  0  0
  -22.3248  -25.4832   21.9633 C   0  0  0  0  0  0  0  0  0  0  0  0
  -24.8573  -27.5063   21.8368 C   0  0  0  0  0  0  0  0  0  0  0  0
  -28.1031  -28.0314   20.9228 C   0  0  0  0  0  0  0  0  0  0  0  0
  -29.3015  -21.0433   20.5678 C   0  0  0  0  0  0  0  0  0  0  0  0
  -18.6994  -28.9594   22.8746 C   0  0  0  0  0  0  0  0  0  0  0  0
  -24.1466  -24.0737   22.9883 C   0  0  0  0  0  0  0  0  0  0  0  0
  -25.0431  -25.3801   20.4914 C   0  0  0  0  0  0  0  0  0  0  0  0
  -19.8885  -28.8455   21.9242 C   0  0  0  0  0  0  0  0  0  0  0  0
  -31.1642  -18.2297   21.7040 C   0  0  0  0  0  0  0  0  0  0  0  0
  -19.8791  -27.4940   21.2169 C   0  0  0  0  0  0  0  0  0  0  0  0
  -30.3824  -17.0328   21.1580 C   0  0  0  0  0  0  0  0  0  0  0  0
  -30.2362  -19.3619   22.1407 C   0  0  0  0  0  0  0  0  0  0  0  0
  -28.4888  -18.6031   20.5787 C   0  0  0  0  0  0  0  0  0  0  0  0
  -20.0047  -26.3438   22.2232 C   0  0  1  0  0  0  0  0  0  0  0  0
  -23.6836  -25.4758   22.6045 C   0  0  1  0  0  0  0  0  0  0  0  0
  -29.3836  -17.4630   20.0657 C   0  0  2  0  0  0  0  0  0  0  0  0
  -29.8862  -29.7972   20.9140 C   0  0  0  0  0  0  0  0  0  0  0  0
  -31.4081  -24.4072   15.9832 C   0  0  0  0  0  0  0  0  0  0  0  0
  -30.1789  -26.1152   17.3645 C   0  0  0  0  0  0  0  0  0  0  0  0
  -29.3642  -25.5097   15.0949 C   0  0  0  0  0  0  0  0  0  0  0  0
  -23.4855  -28.8762   19.4807 C   0  0  0  0  0  0  0  0  0  0  0  0
  -25.6725  -29.9631   18.9292 C   0  0  0  0  0  0  0  0  0  0  0  0
  -24.5619  -30.4364   21.1121 C   0  0  0  0  0  0  0  0  0  0  0  0
  -26.6776  -20.2675   16.4773 C   0  0  0  0  0  0  0  0  0  0  0  0
  -25.1400  -22.1968   16.6130 C   0  0  0  0  0  0  0  0  0  0  0  0
  -29.8817  -26.4083   22.6437 C   0  0  0  0  0  0  0  0  0  0  0  0
  -25.6341  -28.1788   20.7309 C   0  0  1  0  0  0  0  0  0  0  0  0
  -29.2774  -28.6302   21.6758 C   0  0  2  0  0  0  0  0  0  0  0  0
  -29.9803  -24.8945   16.4036 C   0  0  0  0  0  0  0  0  0  0  0  0
  -24.8364  -29.3353   20.0648 C   0  0  0  0  0  0  0  0  0  0  0  0
  -26.3214  -21.5091   17.3305 C   0  0  0  0  0  0  0  0  0  1  0  0
  -28.2697  -15.2881   20.3978 N   0  0  0  0  0  0  0  0  0  0  0  0
  -27.6089  -22.3265   17.4670 N   0  0  0  0  0  0  0  0  0  0  0  0
  -28.5710  -16.2887   19.5529 N   0  0  0  0  0  0  0  0  0  0  0  0
  -24.5990  -26.1380   21.6729 N   0  0  0  0  0  0  0  0  0  0  0  0
  -29.3216  -19.7190   21.0541 N   0  0  0  0  0  0  0  0  0  0  0  0
  -28.2965  -17.0200   17.3167 N   0  0  0  0  0  0  0  0  0  0  0  0
  -26.1129  -13.0676   17.3960 N   0  0  0  0  0  0  0  0  0  0  0  0
  -28.4156  -21.2566   19.5122 N   0  0  0  0  0  0  0  0  0  0  0  0
  -21.3764  -26.2046   22.6630 N   0  0  0  0  0  0  0  0  0  0  0  0
  -26.9055  -28.5898   21.3167 N   0  0  0  0  0  0  0  0  0  0  0  0
  -30.3361  -27.6027   21.8862 N   0  3  0  0  0  0  0  0  0  0  0  0
  -26.7147  -14.8360   16.0658 O   0  0  0  0  0  0  0  0  0  0  0  0
  -22.1500  -24.8803   20.9109 O   0  0  0  0  0  0  0  0  0  0  0  0
  -24.4992  -28.1689   22.8137 O   0  0  0  0  0  0  0  0  0  0  0  0
  -28.2354  -27.1584   20.0679 O   0  0  0  0  0  0  0  0  0  0  0  0
  -30.0373  -21.9170   21.0340 O   0  0  0  0  0  0  0  0  0  0  0  0
  -25.5678   -9.6938   21.7955 O   0  0  0  0  0  0  0  0  0  0  0  0
  -25.8678  -20.9491   18.5876 O   0  0  0  0  0  0  0  0  0  1  0  0
  -20.3545   -8.3335   20.6230 F   0  0  0  0  0  0  0  0  0  0  0  0
  -24.7574   -9.3040   19.1813 F   0  0  0  0  0  0  0  0  0  0  0  0
  1  2  1  0  0  0  0
  1  5  2  0  0  0  0
  2  6  2  0  0  0  0
  3  8  2  0  0  0  0
  3 17  1  0  0  0  0
  4  9  1  0  0  0  0
  4 17  2  0  0  0  0
  5 19  1  0  0  0  0
  6 21  1  0  0  0  0
  7 10  2  0  0  0  0
  7 20  1  0  0  0  0
  8 24  1  0  0  0  0
  9 24  2  0  0  0  0
 10 25  1  0  0  0  0
 11 12  2  0  0  0  0
 11 26  1  0  0  0  0
 12 27  1  0  0  0  0
 13 22  1  0  0  0  0
 13 25  2  0  0  0  0
 14 23  1  0  0  0  0
 14 30  2  0  0  0  0
 15 27  2  0  0  0  0
 15 28  1  0  0  0  0
 16 23  2  0  0  0  0
 16 65  1  0  0  0  0
 17 29  1  0  0  0  0
 18 29  1  0  0  0  0
 18 31  2  0  0  0  0
 18 32  1  0  0  0  0
 19 21  2  0  0  0  0
 19 37  1  0  0  0  0
 20 22  2  0  0  0  0
 20 38  1  0  0  0  0
 21 46  1  0  0  0  0
 22 39  1  0  0  0  0
 23 61  1  0  0  0  0
 24 80  1  0  0  0  0
 25 81  1  0  0  0  0
 26 28  2  0  0  0  0
 26 80  1  0  0  0  0
 27 82  1  0  0  0  0
 28 83  1  0  0  0  0
 29 64  2  0  0  0  0
 30 65  1  0  0  0  0
 30 71  1  0  0  0  0
 31 66  1  0  0  0  0
 31 69  1  0  0  0  0
 32 70  1  0  0  0  0
 32 75  2  0  0  0  0
 33 47  1  0  0  0  0
 33 72  1  0  0  0  0
 33 76  2  0  0  0  0
 34 59  1  0  0  0  0
 34 67  1  0  0  0  0
 34 77  2  0  0  0  0
 35 60  1  0  0  0  0
 35 73  1  0  0  0  0
 35 78  2  0  0  0  0
 36 68  1  0  0  0  0
 36 71  1  0  0  0  0
 36 79  2  0  0  0  0
 37 40  1  0  0  0  0
 38 47  1  0  0  0  0
 39 67  1  0  0  0  0
 40 42  1  0  0  0  0
 41 43  1  0  0  0  0
 41 44  1  0  0  0  0
 42 46  1  0  0  0  0
 43 48  1  0  0  0  0
 44 68  1  0  0  0  0
 45 48  1  0  0  0  0
 45 68  1  0  0  0  0
 46 72  1  0  0  0  0
 47 67  1  0  0  0  0
 48 66  1  0  0  0  0
 49 60  1  0  0  0  0
 50 61  1  0  0  0  0
 51 61  1  0  0  0  0
 52 61  1  0  0  0  0
 53 62  1  0  0  0  0
 54 62  1  0  0  0  0
 55 62  1  0  0  0  0
 56 63  1  0  0  0  0
 57 63  1  0  0  0  0
 58 74  1  0  0  0  0
 59 62  1  0  0  0  0
 59 73  1  0  0  0  0
 60 74  1  0  0  0  0
 63 65  1  0  0  0  0
 63 81  1  0  0  0  0
 64 66  1  0  0  0  0
M  CHG  1  74   1
M  ISO  4  36 100  63 101  71 100  81 101
M  END
> <Batch ID>
0017

> <Smiles>
CNC(C)C(=O)NC(C(=O)N1Cc2cc([101O:1][101C:1](C)(C)n3cc(C(C)(C)C)cc3[100NH:0][100C:0](=O)N3CCCC(n4nc(-c5ccc(Oc6ccc(F)cc6F)cc5)c(C(N)=O)c4N)C3)ccc2CC1C(=O)NC1CCCc2ccccc21)C(C)(C)C

> <Shape>
0.247

> <Color>
0.057

> <Negative vol penalty>
0.000

$$$$

  -OEChem-04052316013D

 83 91  0     1  0  0  0  0  0999 V2000
  -16.6326  -29.7115   23.8336 C   0  0  0  0  0  0  0  0  0  0  0  0
  -17.7219  -30.3696   24.3956 C   0  0  0  0  0  0  0  0  0  0  0  0
  -30.6338  -18.9395   17.3463 C   0  0  0  0  0  0  0  0  0  0  0  0
  -32.2699  -20.0237   18.7551 C   0  0  0  0  0  0  0  0  0  0  0  0
  -16.8355  -28.5886   23.0326 C   0  0  0  0  0  0  0  0  0  0  0  0
  -19.0148  -29.9044   24.1576 C   0  0  0  0  0  0  0  0  0  0  0  0
  -25.7345  -32.2541   23.3573 C   0  0  0  0  0  0  0  0  0  0  0  0
  -31.4983  -19.0499   16.2573 C   0  0  0  0  0  0  0  0  0  0  0  0
  -33.1345  -20.1341   17.6661 C   0  0  0  0  0  0  0  0  0  0  0  0
  -27.0186  -32.0345   23.8539 C   0  0  0  0  0  0  0  0  0  0  0  0
  -33.4188  -18.7219   13.1882 C   0  0  0  0  0  0  0  0  0  0  0  0
  -33.5744  -17.6046   12.3679 C   0  0  0  0  0  0  0  0  0  0  0  0
  -27.2533  -30.1322   22.3893 C   0  0  0  0  0  0  0  0  0  0  0  0
  -28.5260  -25.6547   26.9808 C   0  0  0  0  0  0  0  0  0  0  0  0
  -34.3892  -16.3334   14.2539 C   0  0  0  0  0  0  0  0  0  0  0  0
  -31.0196  -19.4264   18.5953 C   0  0  0  0  0  0  0  0  0  0  0  0
  -30.0446  -18.2473   20.6365 C   0  0  0  0  0  0  0  0  0  0  0  0
  -18.1320  -28.1151   22.7768 C   0  0  0  0  0  0  0  0  0  0  0  0
  -25.1951  -31.4064   22.3791 C   0  0  0  0  0  0  0  0  0  0  0  0
  -19.2350  -28.7733   23.3534 C   0  0  0  0  0  0  0  0  0  0  0  0
  -25.9631  -30.3446   21.8801 C   0  0  0  0  0  0  0  0  0  0  0  0
  -29.4831  -26.6319   26.7080 C   0  0  0  0  0  0  0  0  0  0  0  0
  -30.0023  -26.7591   25.4196 C   0  0  0  0  0  0  0  0  0  0  0  0
  -28.6072  -24.9318   24.6769 C   0  0  0  0  0  0  0  0  0  0  0  0
  -32.7486  -19.6472   16.4172 C   0  0  0  0  0  0  0  0  0  0  0  0
  -27.7771  -30.9717   23.3720 C   0  0  0  0  0  0  0  0  0  0  0  0
  -33.7484  -18.6450   14.5414 C   0  0  0  0  0  0  0  0  0  0  0  0
  -34.0596  -16.4104   12.9007 C   0  0  0  0  0  0  0  0  0  0  0  0
  -34.2336  -17.4507   15.0743 C   0  0  0  0  0  0  0  0  0  0  0  0
  -28.0880  -24.8046   25.9653 C   0  0  0  0  0  0  0  0  0  0  0  0
  -29.5643  -25.9091   24.4040 C   0  0  0  0  0  0  0  0  0  0  0  0
  -30.1268  -19.3131   19.7205 C   0  0  0  0  0  0  0  0  0  0  0  0
  -29.0496  -18.6191   21.5074 C   0  0  0  0  0  0  0  0  0  0  0  0
  -30.8001  -17.0302   20.6951 C   0  0  0  0  0  0  0  0  0  0  0  0
  -22.6907  -29.4540   22.2364 C   0  0  0  0  0  0  0  0  0  0  0  0
  -23.5773  -29.1762   19.1285 C   0  0  0  0  0  0  0  0  0  0  0  0
  -26.0528  -29.4036   16.7904 C   0  0  0  0  0  0  0  0  0  0  0  0
  -26.8551  -23.9206   23.1756 C   0  0  0  0  0  0  0  0  0  0  0  0
  -18.2986  -26.8694   21.9431 C   0  0  0  0  0  0  0  0  0  0  0  0
  -23.8186  -31.6727   21.8345 C   0  0  0  0  0  0  0  0  0  0  0  0
  -25.4377  -29.4178   20.8154 C   0  0  0  0  0  0  0  0  0  0  0  0
  -19.7230  -26.6629   21.4344 C   0  0  0  0  0  0  0  0  0  0  0  0
  -25.0388  -21.2274   21.7179 C   0  0  0  0  0  0  0  0  0  0  0  0
  -20.7287  -26.8796   22.5605 C   0  0  0  0  0  0  0  0  0  0  0  0
  -26.1303  -20.3308   21.1290 C   0  0  0  0  0  0  0  0  0  0  0  0
  -25.3858  -22.7087   21.5796 C   0  0  0  0  0  0  0  0  0  0  0  0
  -27.7940  -22.1931   21.5173 C   0  0  0  0  0  0  0  0  0  0  0  0
  -20.6542  -28.3137   23.0983 C   0  0  1  0  0  0  0  0  0  0  0  0
  -23.1741  -30.4390   21.2099 C   0  0  1  0  0  0  0  0  0  0  0  0
  -27.5195  -20.6905   21.6915 C   0  0  2  0  0  0  0  0  0  0  0  0
  -29.9347  -27.5280   27.8149 C   0  0  0  0  0  0  0  0  0  0  0  0
  -26.4836  -29.0788   14.3397 C   0  0  0  0  0  0  0  0  0  0  0  0
  -23.6018  -26.1524   19.5360 C   0  0  0  0  0  0  0  0  0  0  0  0
  -24.9230  -25.9479   17.4191 C   0  0  0  0  0  0  0  0  0  0  0  0
  -22.6197  -26.9041   17.3624 C   0  0  0  0  0  0  0  0  0  0  0  0
  -26.8012  -32.2438   16.4273 C   0  0  0  0  0  0  0  0  0  0  0  0
  -31.0368  -27.8222   25.1491 C   0  0  0  0  0  0  0  0  0  0  0  0
  -30.4562  -29.2340   25.0435 C   0  0  0  0  0  0  0  0  0  0  0  0
  -29.4957  -29.4058   23.8724 C   0  0  0  0  0  0  0  0  0  1  0  0
  -24.5029  -28.2658   18.3581 C   0  0  1  0  0  0  0  0  0  0  0  0
  -26.0919  -30.0682   15.4262 C   0  0  2  0  0  0  0  0  0  0  0  0
  -23.9213  -26.8337   18.1903 C   0  0  0  0  0  0  0  0  0  0  0  0
  -29.2535  -20.2887   19.9847 N   0  0  0  0  0  0  0  0  0  0  0  0
  -28.6131  -19.8373   21.0766 N   0  0  0  0  0  0  0  0  0  0  0  0
  -24.0840  -29.7157   20.3193 N   0  0  0  0  0  0  0  0  0  0  0  0
  -26.7133  -22.9755   22.1376 N   0  0  0  0  0  0  0  0  0  0  0  0
  -28.5142  -18.0194   22.5919 N   0  0  0  0  0  0  0  0  0  0  0  0
  -31.7842  -16.8073   19.7224 N   0  0  0  0  0  0  0  0  0  0  0  0
  -28.1588  -24.0663   23.6485 N   0  0  0  0  0  0  0  0  0  0  0  0
  -21.3283  -29.2262   22.1998 N   0  0  0  0  0  0  0  0  0  0  0  0
  -24.7895  -28.9456   17.0995 N   0  0  0  0  0  0  0  0  0  0  0  0
  -27.0782  -31.1854   15.4223 N   0  3  0  0  0  0  0  0  0  0  0  0
  -30.5969  -16.1585   21.5739 O   0  0  0  0  0  0  0  0  0  0  0  0
  -23.4946  -28.9378   23.0039 O   0  0  0  0  0  0  0  0  0  0  0  0
  -22.4489  -29.4059   18.6863 O   0  0  0  0  0  0  0  0  0  0  0  0
  -27.0447  -29.2978   17.5085 O   0  0  0  0  0  0  0  0  0  0  0  0
  -25.8867  -24.5342   23.6313 O   0  0  0  0  0  0  0  0  0  0  0  0
  -33.5926  -19.7549   15.3547 O   0  0  0  0  0  0  0  0  0  0  0  0
  -29.0305  -30.7548   23.8555 O   0  0  0  0  0  0  0  0  0  1  0  0
  -34.2076  -15.3370   12.1132 F   0  0  0  0  0  0  0  0  0  0  0  0
  -34.5508  -17.3704   16.3738 F   0  0  0  0  0  0  0  0  0  0  0  0
  -26.9007  -23.6099   26.3536 Cl  0  0  0  0  0  0  0  0  0  0  0  0
  -30.2157  -26.0739   22.8038 Cl  0  0  0  0  0  0  0  0  0  0  0  0
  1  2  1  0  0  0  0
  1  5  2  0  0  0  0
  2  6  2  0  0  0  0
  3  8  2  0  0  0  0
  3 16  1  0  0  0  0
  4  9  1  0  0  0  0
  4 16  2  0  0  0  0
  5 18  1  0  0  0  0
  6 20  1  0  0  0  0
  7 10  2  0  0  0  0
  7 19  1  0  0  0  0
  8 25  1  0  0  0  0
  9 25  2  0  0  0  0
 10 26  1  0  0  0  0
 11 12  2  0  0  0  0
 11 27  1  0  0  0  0
 12 28  1  0  0  0  0
 13 21  1  0  0  0  0
 13 26  2  0  0  0  0
 14 22  2  0  0  0  0
 14 30  1  0  0  0  0
 15 28  2  0  0  0  0
 15 29  1  0  0  0  0
 16 32  1  0  0  0  0
 17 32  1  0  0  0  0
 17 33  2  0  0  0  0
 17 34  1  0  0  0  0
 18 20  2  0  0  0  0
 18 39  1  0  0  0  0
 19 21  2  0  0  0  0
 19 40  1  0  0  0  0
 20 48  1  0  0  0  0
 21 41  1  0  0  0  0
 22 23  1  0  0  0  0
 22 51  1  0  0  0  0
 23 31  2  0  0  0  0
 23 57  1  0  0  0  0
 24 30  2  0  0  0  0
 24 31  1  0  0  0  0
 24 69  1  0  0  0  0
 25 78  1  0  0  0  0
 26 79  1  0  0  0  0
 27 29  2  0  0  0  0
 27 78  1  0  0  0  0
 28 80  1  0  0  0  0
 29 81  1  0  0  0  0
 30 82  1  0  0  0  0
 31 83  1  0  0  0  0
 32 63  2  0  0  0  0
 33 64  1  0  0  0  0
 33 67  1  0  0  0  0
 34 68  1  0  0  0  0
 34 73  2  0  0  0  0
 35 49  1  0  0  0  0
 35 70  1  0  0  0  0
 35 74  2  0  0  0  0
 36 60  1  0  0  0  0
 36 65  1  0  0  0  0
 36 75  2  0  0  0  0
 37 61  1  0  0  0  0
 37 71  1  0  0  0  0
 37 76  2  0  0  0  0
 38 66  1  0  0  0  0
 38 69  1  0  0  0  0
 38 77  2  0  0  0  0
 39 42  1  0  0  0  0
 40 49  1  0  0  0  0
 41 65  1  0  0  0  0
 42 44  1  0  0  0  0
 43 45  1  0  0  0  0
 43 46  1  0  0  0  0
 44 48  1  0  0  0  0
 45 50  1  0  0  0  0
 46 66  1  0  0  0  0
 47 50  1  0  0  0  0
 47 66  1  0  0  0  0
 48 70  1  0  0  0  0
 49 65  1  0  0  0  0
 50 64  1  0  0  0  0
 52 61  1  0  0  0  0
 53 62  1  0  0  0  0
 54 62  1  0  0  0  0
 55 62  1  0  0  0  0
 56 72  1  0  0  0  0
 57 58  1  0  0  0  0
 58 59  1  0  0  0  0
 59 79  1  0  0  0  0
 60 62  1  0  0  0  0
 60 71  1  0  0  0  0
 61 72  1  0  0  0  0
 63 64  1  0  0  0  0
M  CHG  1  72   1
M  ISO  4  38 100  59 101  69 100  79 101
M  END
> <Batch ID>
0017

> <Smiles>
CNC(C)C(=O)NC(C(=O)N1Cc2cc([101O:1][101CH2:1]CCc3c(C)cc(Cl)c([100NH:0][100C:0](=O)N4CCCC(n5nc(-c6ccc(Oc7ccc(F)cc7F)cc6)c(C(N)=O)c5N)C4)c3Cl)ccc2CC1C(=O)NC1CCCc2ccccc21)C(C)(C)C

> <Shape>
0.204

> <Color>
0.113

> <Negative vol penalty>
0.000

$$$$

  -OEChem-04052316013D

 85 93  0     1  0  0  0  0  0999 V2000
  -39.9205  -29.5060   27.6304 C   0  0  0  0  0  0  0  0  0  0  0  0
  -38.9805  -28.5213   27.3441 C   0  0  0  0  0  0  0  0  0  0  0  0
  -23.0753   -9.8656   19.9393 C   0  0  0  0  0  0  0  0  0  0  0  0
  -23.8370   -9.8685   22.2321 C   0  0  0  0  0  0  0  0  0  0  0  0
  -39.7139  -30.8137   27.1929 C   0  0  0  0  0  0  0  0  0  0  0  0
  -37.8326  -28.8439   26.6210 C   0  0  0  0  0  0  0  0  0  0  0  0
  -36.7922  -25.4480   23.0112 C   0  0  0  0  0  0  0  0  0  0  0  0
  -22.3322   -8.7116   20.1876 C   0  0  0  0  0  0  0  0  0  0  0  0
  -23.0939   -8.7145   22.4805 C   0  0  0  0  0  0  0  0  0  0  0  0
  -36.1948  -24.2542   23.4132 C   0  0  0  0  0  0  0  0  0  0  0  0
  -19.8666   -7.9139   23.0840 C   0  0  0  0  0  0  0  0  0  0  0  0
  -19.1106   -7.8713   24.2554 C   0  0  0  0  0  0  0  0  0  0  0  0
  -34.0462  -25.1023   22.7178 C   0  0  0  0  0  0  0  0  0  0  0  0
  -32.4624  -17.1211   23.9332 C   0  0  0  0  0  0  0  0  0  0  0  0
  -20.3535   -5.9331   24.9871 C   0  0  0  0  0  0  0  0  0  0  0  0
  -23.8278  -10.4440   20.9616 C   0  0  0  0  0  0  0  0  0  0  0  0
  -24.1683  -12.9696   20.8462 C   0  0  0  0  0  0  0  0  0  0  0  0
  -38.5676  -31.1504   26.4558 C   0  0  0  0  0  0  0  0  0  0  0  0
  -36.0183  -26.4839   22.4686 C   0  0  0  0  0  0  0  0  0  0  0  0
  -37.6098  -30.1575   26.1744 C   0  0  0  0  0  0  0  0  0  0  0  0
  -34.6366  -26.3073   22.3073 C   0  0  0  0  0  0  0  0  0  0  0  0
  -31.8576  -18.3469   24.2114 C   0  0  0  0  0  0  0  0  0  0  0  0
  -30.6617  -18.6932   23.5826 C   0  0  0  0  0  0  0  0  0  0  0  0
  -30.6753  -16.5882   22.3971 C   0  0  0  0  0  0  0  0  0  0  0  0
  -22.3415   -8.1360   21.4582 C   0  0  0  0  0  0  0  0  0  0  0  0
  -34.8211  -24.0823   23.2692 C   0  0  0  0  0  0  0  0  0  0  0  0
  -20.8660   -6.9660   22.8641 C   0  0  0  0  0  0  0  0  0  0  0  0
  -19.3540   -6.8810   25.2070 C   0  0  0  0  0  0  0  0  0  0  0  0
  -21.1095   -5.9757   23.8156 C   0  0  0  0  0  0  0  0  0  0  0  0
  -31.8712  -16.2418   23.0259 C   0  0  0  0  0  0  0  0  0  0  0  0
  -30.0705  -17.8139   22.6754 C   0  0  0  0  0  0  0  0  0  0  0  0
  -24.5961  -11.6358   20.7055 C   0  0  0  0  0  0  0  0  0  0  0  0
  -25.2598  -13.7203   20.4835 C   0  0  0  0  0  0  0  0  0  0  0  0
  -22.8979  -13.4839   21.2671 C   0  0  0  0  0  0  0  0  0  0  0  0
  -35.3772  -29.4817   23.3088 C   0  0  0  0  0  0  0  0  0  0  0  0
  -33.8746  -29.5542   20.4350 C   0  0  0  0  0  0  0  0  0  0  0  0
  -32.3430  -27.8261   17.9220 C   0  0  0  0  0  0  0  0  0  0  0  0
  -30.7256  -14.7682   20.6559 C   0  0  0  0  0  0  0  0  0  0  0  0
  -38.3649  -32.5873   26.0450 C   0  0  0  0  0  0  0  0  0  0  0  0
  -36.6818  -27.7553   22.0151 C   0  0  0  0  0  0  0  0  0  0  0  0
  -33.7642  -27.3809   21.7116 C   0  0  0  0  0  0  0  0  0  0  0  0
  -37.3043  -32.7673   24.9619 C   0  0  0  0  0  0  0  0  0  0  0  0
  -29.6105  -12.3584   18.2838 C   0  0  0  0  0  0  0  0  0  0  0  0
  -36.0533  -31.9630   25.3008 C   0  0  0  0  0  0  0  0  0  0  0  0
  -28.1714  -12.0653   18.7140 C   0  0  0  0  0  0  0  0  0  0  0  0
  -30.5265  -12.5854   19.4852 C   0  0  0  0  0  0  0  0  0  0  0  0
  -28.6202  -13.3062   20.8694 C   0  0  0  0  0  0  0  0  0  0  0  0
  -36.3641  -30.4630   25.3713 C   0  0  1  0  0  0  0  0  0  0  0  0
  -35.7225  -28.9398   21.9506 C   0  0  1  0  0  0  0  0  0  0  0  0
  -27.6466  -13.1348   19.6920 C   0  0  2  0  0  0  0  0  0  0  0  0
  -30.0316  -20.0152   23.8965 C   0  0  0  0  0  0  0  0  0  0  0  0
  -31.1825  -28.1626   15.7226 C   0  0  0  0  0  0  0  0  0  0  0  0
  -32.7020  -22.2509   26.0821 C   0  0  0  0  0  0  0  0  0  0  0  0
  -31.3872  -30.5407   21.9011 C   0  0  0  0  0  0  0  0  0  0  0  0
  -30.0431  -29.9521   19.8725 C   0  0  0  0  0  0  0  0  0  0  0  0
  -31.8344  -31.6817   19.7211 C   0  0  0  0  0  0  0  0  0  0  0  0
  -34.3542  -26.2026   16.4805 C   0  0  0  0  0  0  0  0  0  0  0  0
  -32.5161  -19.2735   25.1906 C   0  0  0  0  0  0  0  0  0  0  0  0
  -34.8453  -22.2168   24.7441 C   0  0  0  0  0  0  0  0  0  1  0  0
  -32.4780  -29.2475   19.9508 C   0  0  1  0  0  0  0  0  0  0  0  0
  -32.5079  -27.8835   16.4141 C   0  0  2  0  0  0  0  0  0  0  0  0
  -33.8081  -21.3893   25.4949 C   0  0  2  0  0  0  0  0  0  0  0  0
  -31.4516  -30.3358   20.3744 C   0  0  0  0  0  0  0  0  0  0  0  0
  -25.8607  -11.5414   20.2861 N   0  0  0  0  0  0  0  0  0  0  0  0
  -26.2368  -12.8254   20.1599 N   0  0  0  0  0  0  0  0  0  0  0  0
  -34.4588  -28.6083   21.2892 N   0  0  0  0  0  0  0  0  0  0  0  0
  -29.9677  -13.6142   20.3650 N   0  0  0  0  0  0  0  0  0  0  0  0
  -25.4695  -15.0520   20.4129 N   0  0  0  0  0  0  0  0  0  0  0  0
  -21.8867  -12.5736   21.6034 N   0  0  0  0  0  0  0  0  0  0  0  0
  -30.0784  -15.6914   21.4766 N   0  0  0  0  0  0  0  0  0  0  0  0
  -36.4704  -29.9058   24.0399 N   0  0  0  0  0  0  0  0  0  0  0  0
  -32.5798  -29.0512   18.5087 N   0  0  0  0  0  0  0  0  0  0  0  0
  -33.0420  -26.5899   15.9018 N   0  3  0  0  0  0  0  0  0  0  0  0
  -33.1892  -20.4258   24.5391 N   0  3  0  0  0  0  0  0  0  0  0  0
  -22.6611  -14.7143   21.3270 O   0  0  0  0  0  0  0  0  0  0  0  0
  -34.2056  -29.5141   23.6664 O   0  0  0  0  0  0  0  0  0  0  0  0
  -34.4295  -30.5911   20.0630 O   0  0  0  0  0  0  0  0  0  0  0  0
  -32.0314  -26.7982   18.5194 O   0  0  0  0  0  0  0  0  0  0  0  0
  -31.8543  -14.9384   20.1877 O   0  0  0  0  0  0  0  0  0  0  0  0
  -21.6163   -7.0101   21.7009 O   0  0  0  0  0  0  0  0  0  0  0  0
  -34.2353  -22.9183   23.6614 O   0  0  0  0  0  0  0  0  0  1  0  0
  -18.6290   -6.8411   26.3325 F   0  0  0  0  0  0  0  0  0  0  0  0
  -22.0691   -5.0630   23.6105 F   0  0  0  0  0  0  0  0  0  0  0  0
  -32.6594  -14.7352   22.7147 Cl  0  0  0  0  0  0  0  0  0  0  0  0
  -28.5827  -18.2528   21.8971 Cl  0  0  0  0  0  0  0  0  0  0  0  0
  1  2  1  0  0  0  0
  1  5  2  0  0  0  0
  2  6  2  0  0  0  0
  3  8  2  0  0  0  0
  3 16  1  0  0  0  0
  4  9  1  0  0  0  0
  4 16  2  0  0  0  0
  5 18  1  0  0  0  0
  6 20  1  0  0  0  0
  7 10  2  0  0  0  0
  7 19  1  0  0  0  0
  8 25  1  0  0  0  0
  9 25  2  0  0  0  0
 10 26  1  0  0  0  0
 11 12  2  0  0  0  0
 11 27  1  0  0  0  0
 12 28  1  0  0  0  0
 13 21  1  0  0  0  0
 13 26  2  0  0  0  0
 14 22  1  0  0  0  0
 14 30  2  0  0  0  0
 15 28  2  0  0  0  0
 15 29  1  0  0  0  0
 16 32  1  0  0  0  0
 17 32  1  0  0  0  0
 17 33  2  0  0  0  0
 17 34  1  0  0  0  0
 18 20  2  0  0  0  0
 18 39  1  0  0  0  0
 19 21  2  0  0  0  0
 19 40  1  0  0  0  0
 20 48  1  0  0  0  0
 21 41  1  0  0  0  0
 22 23  2  0  0  0  0
 22 58  1  0  0  0  0
 23 31  1  0  0  0  0
 23 51  1  0  0  0  0
 24 30  1  0  0  0  0
 24 31  2  0  0  0  0
 24 70  1  0  0  0  0
 25 80  1  0  0  0  0
 26 81  1  0  0  0  0
 27 29  2  0  0  0  0
 27 80  1  0  0  0  0
 28 82  1  0  0  0  0
 29 83  1  0  0  0  0
 30 84  1  0  0  0  0
 31 85  1  0  0  0  0
 32 64  2  0  0  0  0
 33 65  1  0  0  0  0
 33 68  1  0  0  0  0
 34 69  1  0  0  0  0
 34 75  2  0  0  0  0
 35 49  1  0  0  0  0
 35 71  1  0  0  0  0
 35 76  2  0  0  0  0
 36 60  1  0  0  0  0
 36 66  1  0  0  0  0
 36 77  2  0  0  0  0
 37 61  1  0  0  0  0
 37 72  1  0  0  0  0
 37 78  2  0  0  0  0
 38 67  1  0  0  0  0
 38 70  1  0  0  0  0
 38 79  2  0  0  0  0
 39 42  1  0  0  0  0
 40 49  1  0  0  0  0
 41 66  1  0  0  0  0
 42 44  1  0  0  0  0
 43 45  1  0  0  0  0
 43 46  1  0  0  0  0
 44 48  1  0  0  0  0
 45 50  1  0  0  0  0
 46 67  1  0  0  0  0
 47 50  1  0  0  0  0
 47 67  1  0  0  0  0
 48 71  1  0  0  0  0
 49 66  1  0  0  0  0
 50 65  1  0  0  0  0
 52 61  1  0  0  0  0
 53 62  1  0  0  0  0
 54 63  1  0  0  0  0
 55 63  1  0  0  0  0
 56 63  1  0  0  0  0
 57 73  1  0  0  0  0
 58 74  1  0  0  0  0
 59 62  1  0  0  0  0
 59 81  1  0  0  0  0
 60 63  1  0  0  0  0
 60 72  1  0  0  0  0
 61 73  1  0  0  0  0
 62 74  1  0  0  0  0
 64 65  1  0  0  0  0
M  CHG  2  73   1  74   1
M  ISO  4  38 100  59 101  70 100  81 101
M  END
> <Batch ID>
0017

> <Smiles>
CNC(C)C(=O)NC(C(=O)N1Cc2cc([101O:1][101CH2:1]C(C)NCc3cc(Cl)c([100NH:0][100C:0](=O)N4CCCC(n5nc(-c6ccc(Oc7ccc(F)cc7F)cc6)c(C(N)=O)c5N)C4)c(Cl)c3C)ccc2CC1C(=O)NC1CCCc2ccccc21)C(C)(C)C

> <Shape>
0.177

> <Color>
0.192

> <Negative vol penalty>
0.000

$$$$

  -OEChem-04052316013D

 84 92  0     1  0  0  0  0  0999 V2000
  -17.4309  -26.0126   22.1502 C   0  0  0  0  0  0  0  0  0  0  0  0
  -18.6986  -25.8560   21.5991 C   0  0  0  0  0  0  0  0  0  0  0  0
  -23.9398  -10.6031   23.6456 C   0  0  0  0  0  0  0  0  0  0  0  0
  -23.2319  -12.4409   25.0451 C   0  0  0  0  0  0  0  0  0  0  0  0
  -17.1780  -27.0681   23.0253 C   0  0  0  0  0  0  0  0  0  0  0  0
  -19.7140  -26.7556   21.9219 C   0  0  0  0  0  0  0  0  0  0  0  0
  -24.1011  -24.4456   22.9523 C   0  0  0  0  0  0  0  0  0  0  0  0
  -23.2397   -9.7132   24.4601 C   0  0  0  0  0  0  0  0  0  0  0  0
  -22.5318  -11.5509   25.8596 C   0  0  0  0  0  0  0  0  0  0  0  0
  -24.8540  -23.9961   21.8684 C   0  0  0  0  0  0  0  0  0  0  0  0
  -20.0335   -8.7330   24.8989 C   0  0  0  0  0  0  0  0  0  0  0  0
  -19.2517   -7.7610   24.2749 C   0  0  0  0  0  0  0  0  0  0  0  0
  -26.2637  -25.9454   22.0468 C   0  0  0  0  0  0  0  0  0  0  0  0
  -28.2825  -21.1735   19.4584 C   0  0  0  0  0  0  0  0  0  0  0  0
  -20.5573   -6.0283   25.3380 C   0  0  0  0  0  0  0  0  0  0  0  0
  -23.9360  -11.9670   23.9381 C   0  0  0  0  0  0  0  0  0  0  0  0
  -24.1735  -13.5638   21.9629 C   0  0  0  0  0  0  0  0  0  0  0  0
  -18.1933  -27.9755   23.3665 C   0  0  0  0  0  0  0  0  0  0  0  0
  -24.4178  -25.6559   23.5858 C   0  0  0  0  0  0  0  0  0  0  0  0
  -19.4740  -27.8251   22.8013 C   0  0  0  0  0  0  0  0  0  0  0  0
  -25.5149  -26.4068   23.1402 C   0  0  0  0  0  0  0  0  0  0  0  0
  -28.1924  -19.9151   20.0534 C   0  0  0  0  0  0  0  0  0  0  0  0
  -28.7777  -22.2554   20.1864 C   0  0  0  0  0  0  0  0  0  0  0  0
  -29.0926  -20.8206   22.1045 C   0  0  0  0  0  0  0  0  0  0  0  0
  -28.5974  -19.7387   21.3765 C   0  0  0  0  0  0  0  0  0  0  0  0
  -22.5357  -10.1871   25.5671 C   0  0  0  0  0  0  0  0  0  0  0  0
  -25.9337  -24.7474   21.4136 C   0  0  0  0  0  0  0  0  0  0  0  0
  -21.0773   -8.3527   25.7425 C   0  0  0  0  0  0  0  0  0  0  0  0
  -19.5136   -6.4086   24.4945 C   0  0  0  0  0  0  0  0  0  0  0  0
  -21.3392   -7.0004   25.9620 C   0  0  0  0  0  0  0  0  0  0  0  0
  -29.1827  -22.0790   21.5095 C   0  0  0  0  0  0  0  0  0  0  0  0
  -24.6595  -12.8868   23.0975 C   0  0  0  0  0  0  0  0  0  0  0  0
  -25.2405  -14.3095   21.5248 C   0  0  0  0  0  0  0  0  0  0  0  0
  -22.8737  -13.5224   21.3591 C   0  0  0  0  0  0  0  0  0  0  0  0
  -22.9084  -28.4181   24.0286 C   0  0  0  0  0  0  0  0  0  0  0  0
  -25.4966  -29.0913   25.8645 C   0  0  0  0  0  0  0  0  0  0  0  0
  -28.7782  -28.4854   26.5795 C   0  0  0  0  0  0  0  0  0  0  0  0
  -29.5463  -17.6993   22.5109 C   0  0  0  0  0  0  0  0  0  0  0  0
  -17.8597  -29.1284   24.2799 C   0  0  0  0  0  0  0  0  0  0  0  0
  -23.6122  -26.1137   24.7707 C   0  0  0  0  0  0  0  0  0  0  0  0
  -25.9088  -27.7029   23.7986 C   0  0  0  0  0  0  0  0  0  0  0  0
  -19.0897  -29.8191   24.8631 C   0  0  0  0  0  0  0  0  0  0  0  0
  -30.1139  -14.2047   22.8889 C   0  0  0  0  0  0  0  0  0  0  0  0
  -20.1234  -30.0794   23.7720 C   0  0  0  0  0  0  0  0  0  0  0  0
  -28.7055  -13.6060   22.8835 C   0  0  0  0  0  0  0  0  0  0  0  0
  -30.1543  -15.5531   23.6059 C   0  0  0  0  0  0  0  0  0  0  0  0
  -27.7703  -15.9418   23.1213 C   0  0  0  0  0  0  0  0  0  0  0  0
  -20.6080  -28.7658   23.1465 C   0  0  1  0  0  0  0  0  0  0  0  0
  -23.7098  -27.6164   25.0150 C   0  0  1  0  0  0  0  0  0  0  0  0
  -27.6667  -14.6138   22.3535 C   0  0  2  0  0  0  0  0  0  0  0  0
  -27.6574  -18.7751   19.2484 C   0  0  0  0  0  0  0  0  0  0  0  0
  -29.5340  -20.6589   23.5234 C   0  0  0  0  0  0  0  0  0  0  0  0
  -30.6289  -29.2172   28.1081 C   0  0  0  0  0  0  0  0  0  0  0  0
  -28.3883  -23.6673   18.0571 C   0  0  0  0  0  0  0  0  0  0  0  0
  -30.3554  -24.0938   19.5152 C   0  0  0  0  0  0  0  0  0  0  0  0
  -25.8437  -31.6384   24.2209 C   0  0  0  0  0  0  0  0  0  0  0  0
  -28.1713  -31.8215   25.1249 C   0  0  0  0  0  0  0  0  0  0  0  0
  -26.2209  -31.9222   26.6768 C   0  0  0  0  0  0  0  0  0  0  0  0
  -29.0448  -25.7772   27.7430 C   0  0  0  0  0  0  0  0  0  0  0  0
  -28.0479  -24.6803   20.3267 C   0  0  0  0  0  0  0  0  0  1  0  0
  -26.8495  -29.7141   25.6178 C   0  0  1  0  0  0  0  0  0  0  0  0
  -29.4920  -28.2299   27.8947 C   0  0  2  0  0  0  0  0  0  0  0  0
  -28.8765  -23.6431   19.5256 C   0  0  0  0  0  0  0  0  0  0  0  0
  -26.7630  -31.2506   25.3962 C   0  0  0  0  0  0  0  0  0  0  0  0
  -25.9359  -13.1765   23.3634 N   0  0  0  0  0  0  0  0  0  0  0  0
  -26.2611  -14.0439   22.3897 N   0  0  0  0  0  0  0  0  0  0  0  0
  -25.0864  -28.1115   24.9493 N   0  0  0  0  0  0  0  0  0  0  0  0
  -29.1464  -16.4574   23.0480 N   0  0  0  0  0  0  0  0  0  0  0  0
  -25.3959  -15.1599   20.4880 N   0  0  0  0  0  0  0  0  0  0  0  0
  -21.8941  -12.7037   21.9374 N   0  0  0  0  0  0  0  0  0  0  0  0
  -28.5052  -18.4599   21.9798 N   0  0  0  0  0  0  0  0  0  0  0  0
  -21.5609  -28.1124   24.0180 N   0  0  0  0  0  0  0  0  0  0  0  0
  -27.6918  -29.3189   26.7415 N   0  0  0  0  0  0  0  0  0  0  0  0
  -30.0565  -26.8509   27.9183 N   0  3  0  0  0  0  0  0  0  0  0  0
  -22.5944  -14.1790   20.3274 O   0  0  0  0  0  0  0  0  0  0  0  0
  -23.4708  -29.2532   23.3301 O   0  0  0  0  0  0  0  0  0  0  0  0
  -24.8316  -29.4554   26.8375 O   0  0  0  0  0  0  0  0  0  0  0  0
  -29.1495  -27.9975   25.5143 O   0  0  0  0  0  0  0  0  0  0  0  0
  -30.7291  -18.0496   22.4968 O   0  0  0  0  0  0  0  0  0  0  0  0
  -21.8522   -9.3190   26.3619 O   0  0  0  0  0  0  0  0  0  0  0  0
  -26.6698  -24.3112   20.3554 O   0  0  0  0  0  0  0  0  0  1  0  0
  -18.7617   -5.4753   23.8963 F   0  0  0  0  0  0  0  0  0  0  0  0
  -22.3399   -6.6289   26.7723 F   0  0  0  0  0  0  0  0  0  0  0  0
  -29.6596  -23.1199   22.2084 F   0  0  0  0  0  0  0  0  0  0  0  0
  1  2  1  0  0  0  0
  1  5  2  0  0  0  0
  2  6  2  0  0  0  0
  3  8  2  0  0  0  0
  3 16  1  0  0  0  0
  4  9  1  0  0  0  0
  4 16  2  0  0  0  0
  5 18  1  0  0  0  0
  6 20  1  0  0  0  0
  7 10  2  0  0  0  0
  7 19  1  0  0  0  0
  8 26  1  0  0  0  0
  9 26  2  0  0  0  0
 10 27  1  0  0  0  0
 11 12  2  0  0  0  0
 11 28  1  0  0  0  0
 12 29  1  0  0  0  0
 13 21  1  0  0  0  0
 13 27  2  0  0  0  0
 14 22  2  0  0  0  0
 14 23  1  0  0  0  0
 15 29  2  0  0  0  0
 15 30  1  0  0  0  0
 16 32  1  0  0  0  0
 17 32  1  0  0  0  0
 17 33  2  0  0  0  0
 17 34  1  0  0  0  0
 18 20  2  0  0  0  0
 18 39  1  0  0  0  0
 19 21  2  0  0  0  0
 19 40  1  0  0  0  0
 20 48  1  0  0  0  0
 21 41  1  0  0  0  0
 22 25  1  0  0  0  0
 22 51  1  0  0  0  0
 23 31  2  0  0  0  0
 23 63  1  0  0  0  0
 24 25  2  0  0  0  0
 24 31  1  0  0  0  0
 24 52  1  0  0  0  0
 25 71  1  0  0  0  0
 26 80  1  0  0  0  0
 27 81  1  0  0  0  0
 28 30  2  0  0  0  0
 28 80  1  0  0  0  0
 29 82  1  0  0  0  0
 30 83  1  0  0  0  0
 31 84  1  0  0  0  0
 32 65  2  0  0  0  0
 33 66  1  0  0  0  0
 33 69  1  0  0  0  0
 34 70  1  0  0  0  0
 34 75  2  0  0  0  0
 35 49  1  0  0  0  0
 35 72  1  0  0  0  0
 35 76  2  0  0  0  0
 36 61  1  0  0  0  0
 36 67  1  0  0  0  0
 36 77  2  0  0  0  0
 37 62  1  0  0  0  0
 37 73  1  0  0  0  0
 37 78  2  0  0  0  0
 38 68  1  0  0  0  0
 38 71  1  0  0  0  0
 38 79  2  0  0  0  0
 39 42  1  0  0  0  0
 40 49  1  0  0  0  0
 41 67  1  0  0  0  0
 42 44  1  0  0  0  0
 43 45  1  0  0  0  0
 43 46  1  0  0  0  0
 44 48  1  0  0  0  0
 45 50  1  0  0  0  0
 46 68  1  0  0  0  0
 47 50  1  0  0  0  0
 47 68  1  0  0  0  0
 48 72  1  0  0  0  0
 49 67  1  0  0  0  0
 50 66  1  0  0  0  0
 53 62  1  0  0  0  0
 54 63  1  0  0  0  0
 55 63  1  0  0  0  0
 56 64  1  0  0  0  0
 57 64  1  0  0  0  0
 58 64  1  0  0  0  0
 59 74  1  0  0  0  0
 60 63  1  0  0  0  0
 60 81  1  0  0  0  0
 61 64  1  0  0  0  0
 61 73  1  0  0  0  0
 62 74  1  0  0  0  0
 65 66  1  0  0  0  0
M  CHG  1  74   1
M  ISO  4  38 100  60 101  71 100  81 101
M  END
> <Batch ID>
0017

> <Smiles>
CNC(C)C(=O)NC(C(=O)N1Cc2cc([101O:1][101CH2:1]C(C)(C)c3cc(C)c([100NH:0][100C:0](=O)N4CCCC(n5nc(-c6ccc(Oc7ccc(F)cc7F)cc6)c(C(N)=O)c5N)C4)c(C)c3F)ccc2CC1C(=O)NC1CCCc2ccccc21)C(C)(C)C

> <Shape>
0.221

> <Color>
0.120

> <Negative vol penalty>
0.000

$$$$

  -OEChem-04052316013D

 83 91  0     1  0  0  0  0  0999 V2000
  -24.6374  -23.3007   24.2906 C   0  0  0  0  0  0  0  0  0  0  0  0
  -25.3412  -22.1038   24.3776 C   0  0  0  0  0  0  0  0  0  0  0  0
  -23.2748   -9.8364   19.9484 C   0  0  0  0  0  0  0  0  0  0  0  0
  -23.8849   -9.9502   22.2833 C   0  0  0  0  0  0  0  0  0  0  0  0
  -24.9377  -24.3494   25.1588 C   0  0  0  0  0  0  0  0  0  0  0  0
  -26.3467  -21.9554   25.3322 C   0  0  0  0  0  0  0  0  0  0  0  0
  -27.8176  -16.8425   28.3654 C   0  0  0  0  0  0  0  0  0  0  0  0
  -22.5759   -8.6534   20.1886 C   0  0  0  0  0  0  0  0  0  0  0  0
  -23.1859   -8.7672   22.5236 C   0  0  0  0  0  0  0  0  0  0  0  0
  -28.8163  -15.8897   28.1689 C   0  0  0  0  0  0  0  0  0  0  0  0
  -19.9705   -7.8183   22.9488 C   0  0  0  0  0  0  0  0  0  0  0  0
  -19.1431   -7.7726   24.0708 C   0  0  0  0  0  0  0  0  0  0  0  0
  -30.2094  -17.0272   29.7765 C   0  0  0  0  0  0  0  0  0  0  0  0
  -20.4314   -5.9255   24.9458 C   0  0  0  0  0  0  0  0  0  0  0  0
  -23.9293  -10.4847   20.9958 C   0  0  0  0  0  0  0  0  0  0  0  0
  -24.1496  -13.0198   20.8156 C   0  0  0  0  0  0  0  0  0  0  0  0
  -25.9408  -24.2104   26.1310 C   0  0  0  0  0  0  0  0  0  0  0  0
  -28.0120  -17.9027   29.2624 C   0  0  0  0  0  0  0  0  0  0  0  0
  -26.6617  -23.0037   26.2134 C   0  0  0  0  0  0  0  0  0  0  0  0
  -29.2107  -17.9907   29.9845 C   0  0  0  0  0  0  0  0  0  0  0  0
  -22.5314   -8.1188   21.4762 C   0  0  0  0  0  0  0  0  0  0  0  0
  -30.0136  -15.9836   28.8723 C   0  0  0  0  0  0  0  0  0  0  0  0
  -21.0283   -6.9175   22.8252 C   0  0  0  0  0  0  0  0  0  0  0  0
  -19.3735   -6.8263   25.0693 C   0  0  0  0  0  0  0  0  0  0  0  0
  -21.2588   -5.9712   23.8237 C   0  0  0  0  0  0  0  0  0  0  0  0
  -24.6519  -11.7065   20.7481 C   0  0  0  0  0  0  0  0  0  0  0  0
  -25.2233  -13.8149   20.4971 C   0  0  0  0  0  0  0  0  0  0  0  0
  -31.8475  -11.8326   27.2533 C   0  0  0  0  0  0  0  0  0  0  0  0
  -22.8303  -13.4800   21.1374 C   0  0  0  0  0  0  0  0  0  0  0  0
  -31.7754  -12.8400   28.1473 C   0  0  0  0  0  0  0  0  0  0  0  0
  -28.1198  -21.0689   29.0033 C   0  0  0  0  0  0  0  0  0  0  0  0
  -28.2876  -20.9383   32.2401 C   0  0  0  0  0  0  0  0  0  0  0  0
  -29.0969  -19.1460   35.0293 C   0  0  0  0  0  0  0  0  0  0  0  0
  -31.0452  -13.2196   20.9015 C   0  0  0  0  0  0  0  0  0  0  0  0
  -26.2621  -25.3884   27.0162 C   0  0  0  0  0  0  0  0  0  0  0  0
  -26.9144  -18.9072   29.4829 C   0  0  0  0  0  0  0  0  0  0  0  0
  -29.4608  -19.0982   30.9741 C   0  0  0  0  0  0  0  0  0  0  0  0
  -27.0868  -25.0188   28.2465 C   0  0  0  0  0  0  0  0  0  0  0  0
  -29.2873  -13.8055   17.9825 C   0  0  0  0  0  0  0  0  0  0  0  0
  -28.2488  -24.1106   27.8571 C   0  0  0  0  0  0  0  0  0  0  0  0
  -27.8438  -13.4669   18.3542 C   0  0  0  0  0  0  0  0  0  0  0  0
  -31.7360  -12.9470   24.5313 C   0  0  0  0  0  0  0  0  0  0  0  0
  -30.2754  -11.0173   23.8298 C   0  0  0  0  0  0  0  0  0  0  0  0
  -30.2580  -12.7999   18.5912 C   0  0  0  0  0  0  0  0  0  0  0  0
  -32.1919  -13.1041   23.0833 C   0  0  0  0  0  0  0  0  0  0  0  0
  -30.7628  -11.2070   22.3972 C   0  0  0  0  0  0  0  0  0  0  0  0
  -28.7090  -12.3389   20.4631 C   0  0  0  0  0  0  0  0  0  0  0  0
  -27.7425  -22.7957   27.2521 C   0  0  1  0  0  0  0  0  0  0  0  0
  -27.4217  -20.2341   30.0393 C   0  0  1  0  0  0  0  0  0  0  0  0
  -31.3215  -11.5030   24.8423 C   0  0  0  0  0  0  0  0  0  0  0  0
  -27.6831  -13.3307   19.8787 C   0  0  2  0  0  0  0  0  0  0  0  0
  -32.9577  -13.1201   29.0439 C   0  0  0  0  0  0  0  0  0  0  0  0
  -30.3771   -9.9422   26.5699 C   0  0  0  0  0  0  0  0  0  0  0  0
  -29.6156  -13.2108   29.3952 C   0  0  0  0  0  0  0  0  0  0  0  0
  -29.1606  -19.3186   37.5320 C   0  0  0  0  0  0  0  0  0  0  0  0
  -30.7968  -22.6644   32.0549 C   0  0  0  0  0  0  0  0  0  0  0  0
  -31.3328  -22.0156   34.4128 C   0  0  0  0  0  0  0  0  0  0  0  0
  -29.2416  -23.2807   33.9139 C   0  0  0  0  0  0  0  0  0  0  0  0
  -27.1840  -16.9104   35.3480 C   0  0  0  0  0  0  0  0  0  0  0  0
  -30.7922  -11.3843   26.2695 C   0  0  1  0  0  0  0  0  0  0  0  0
  -30.5660  -13.7361   28.3249 C   0  0  1  0  0  0  0  0  0  1  0  0
  -29.4060  -20.8467   33.2499 C   0  0  1  0  0  0  0  0  0  0  0  0
  -28.3407  -18.8983   36.3221 C   0  0  2  0  0  0  0  0  0  0  0  0
  -30.1907  -22.1819   33.3878 C   0  0  0  0  0  0  0  0  0  0  0  0
  -25.9442  -11.6653   20.4130 N   0  0  0  0  0  0  0  0  0  0  0  0
  -26.2629  -12.9627   20.2669 N   0  0  0  0  0  0  0  0  0  0  0  0
  -28.3597  -20.0595   31.1500 N   0  0  0  0  0  0  0  0  0  0  0  0
  -30.0707  -12.6963   20.0383 N   0  0  0  0  0  0  0  0  0  0  0  0
  -31.1921  -12.5897   22.1485 N   0  0  0  0  0  0  0  0  0  0  0  0
  -25.3701  -15.1529   20.3943 N   0  0  0  0  0  0  0  0  0  0  0  0
  -21.8463  -12.5289   21.4400 N   0  0  0  0  0  0  0  0  0  0  0  0
  -27.2787  -21.9052   28.2944 N   0  0  0  0  0  0  0  0  0  0  0  0
  -28.7981  -20.3799   34.4912 N   0  0  0  0  0  0  0  0  0  0  0  0
  -28.0084  -17.4520   36.4589 N   0  3  0  0  0  0  0  0  0  0  0  0
  -22.5287  -14.6976   21.1399 O   0  0  0  0  0  0  0  0  0  0  0  0
  -29.3321  -20.9633   28.8589 O   0  0  0  0  0  0  0  0  0  0  0  0
  -27.3794  -21.7544   32.4160 O   0  0  0  0  0  0  0  0  0  0  0  0
  -29.8776  -18.3283   34.5472 O   0  0  0  0  0  0  0  0  0  0  0  0
  -31.7397  -14.1926   20.5823 O   0  0  0  0  0  0  0  0  0  0  0  0
  -21.8494   -6.9646   21.7111 O   0  0  0  0  0  0  0  0  0  0  0  0
  -30.9952  -15.0507   28.6810 O   0  0  0  0  0  0  0  0  0  1  0  0
  -18.5799   -6.7836   26.1474 F   0  0  0  0  0  0  0  0  0  0  0  0
  -22.2743   -5.1040   23.7111 F   0  0  0  0  0  0  0  0  0  0  0  0
  1  2  1  0  0  0  0
  1  5  2  0  0  0  0
  2  6  2  0  0  0  0
  3  8  2  0  0  0  0
  3 15  1  0  0  0  0
  4  9  1  0  0  0  0
  4 15  2  0  0  0  0
  5 17  1  0  0  0  0
  6 19  1  0  0  0  0
  7 10  2  0  0  0  0
  7 18  1  0  0  0  0
  8 21  1  0  0  0  0
  9 21  2  0  0  0  0
 10 22  1  0  0  0  0
 11 12  2  0  0  0  0
 11 23  1  0  0  0  0
 12 24  1  0  0  0  0
 13 20  1  0  0  0  0
 13 22  2  0  0  0  0
 14 24  2  0  0  0  0
 14 25  1  0  0  0  0
 15 26  1  0  0  0  0
 16 26  1  0  0  0  0
 16 27  2  0  0  0  0
 16 29  1  0  0  0  0
 17 19  2  0  0  0  0
 17 35  1  0  0  0  0
 18 20  2  0  0  0  0
 18 36  1  0  0  0  0
 19 48  1  0  0  0  0
 20 37  1  0  0  0  0
 21 80  1  0  0  0  0
 22 81  1  0  0  0  0
 23 25  2  0  0  0  0
 23 80  1  0  0  0  0
 24 82  1  0  0  0  0
 25 83  1  0  0  0  0
 26 65  2  0  0  0  0
 27 66  1  0  0  0  0
 27 70  1  0  0  0  0
 28 30  2  0  0  0  0
 28 60  1  0  0  0  0
 29 71  1  0  0  0  0
 29 75  2  0  0  0  0
 30 52  1  0  0  0  0
 30 61  1  0  0  0  0
 31 49  1  0  0  0  0
 31 72  1  0  0  0  0
 31 76  2  0  0  0  0
 32 62  1  0  0  0  0
 32 67  1  0  0  0  0
 32 77  2  0  0  0  0
 33 63  1  0  0  0  0
 33 73  1  0  0  0  0
 33 78  2  0  0  0  0
 34 68  1  0  0  0  0
 34 69  1  0  0  0  0
 34 79  2  0  0  0  0
 35 38  1  0  0  0  0
 36 49  1  0  0  0  0
 37 67  1  0  0  0  0
 38 40  1  0  0  0  0
 39 41  1  0  0  0  0
 39 44  1  0  0  0  0
 40 48  1  0  0  0  0
 41 51  1  0  0  0  0
 42 45  1  0  0  0  0
 42 50  1  0  0  0  0
 43 46  1  0  0  0  0
 43 50  1  0  0  0  0
 44 68  1  0  0  0  0
 45 69  1  0  0  0  0
 46 69  1  0  0  0  0
 47 51  1  0  0  0  0
 47 68  1  0  0  0  0
 48 72  1  0  0  0  0
 49 67  1  0  0  0  0
 50 60  1  0  0  0  0
 51 66  1  0  0  0  0
 53 60  1  0  0  0  0
 54 61  1  0  0  0  0
 55 63  1  0  0  0  0
 56 64  1  0  0  0  0
 57 64  1  0  0  0  0
 58 64  1  0  0  0  0
 59 74  1  0  0  0  0
 61 81  1  0  0  0  0
 62 64  1  0  0  0  0
 62 73  1  0  0  0  0
 63 74  1  0  0  0  0
 65 66  1  0  0  0  0
M  CHG  1  74   1
M  ISO  4  34 100  61 101  69 100  81 101
M  END
> <Batch ID>
0017

> <Smiles>
CNC(C)C(=O)NC(C(=O)N1Cc2cc([101O:1][101CH:1](C)C(C)=CC(C)C3CC[100N:0]([100C:0](=O)N4CCCC(n5nc(-c6ccc(Oc7ccc(F)cc7F)cc6)c(C(N)=O)c5N)C4)CC3)ccc2CC1C(=O)NC1CCCc2ccccc21)C(C)(C)C

> <Shape>
0.142

> <Color>
0.186

> <Negative vol penalty>
0.000

$$$$

  -OEChem-04052316012D

  0  0  0     0  0  0  0  0  0999 V2000
M  END
$$$$

  -OEChem-04052316013D

 81 89  0     1  0  0  0  0  0999 V2000
  -28.1496  -37.0333   21.2706 C   0  0  0  0  0  0  0  0  0  0  0  0
  -28.5492  -35.7141   21.0823 C   0  0  0  0  0  0  0  0  0  0  0  0
  -26.8721  -12.7094   21.7983 C   0  0  0  0  0  0  0  0  0  0  0  0
  -26.2247  -14.3159   20.1140 C   0  0  0  0  0  0  0  0  0  0  0  0
  -27.0352  -37.3170   22.0589 C   0  0  0  0  0  0  0  0  0  0  0  0
  -27.8352  -34.6779   21.6831 C   0  0  0  0  0  0  0  0  0  0  0  0
  -26.8478  -29.0810   19.4014 C   0  0  0  0  0  0  0  0  0  0  0  0
  -25.5543  -12.2588   21.8751 C   0  0  0  0  0  0  0  0  0  0  0  0
  -24.9068  -13.8653   20.1908 C   0  0  0  0  0  0  0  0  0  0  0  0
  -27.4724  -27.8543   19.6226 C   0  0  0  0  0  0  0  0  0  0  0  0
  -22.4296  -10.4401   22.2541 C   0  0  0  0  0  0  0  0  0  0  0  0
  -22.2157   -9.0619   22.2760 C   0  0  0  0  0  0  0  0  0  0  0  0
  -25.7800  -27.2924   21.2472 C   0  0  0  0  0  0  0  0  0  0  0  0
  -30.3461  -22.6446   21.9249 C   0  0  0  0  0  0  0  0  0  0  0  0
  -23.2894   -8.8611   20.1210 C   0  0  0  0  0  0  0  0  0  0  0  0
  -27.2073  -13.7380   20.9178 C   0  0  0  0  0  0  0  0  0  0  0  0
  -29.5834  -13.7238   19.9897 C   0  0  0  0  0  0  0  0  0  0  0  0
  -26.3014  -36.2832   22.6618 C   0  0  0  0  0  0  0  0  0  0  0  0
  -25.6888  -29.4277   20.1107 C   0  0  0  0  0  0  0  0  0  0  0  0
  -26.7107  -34.9482   22.4813 C   0  0  0  0  0  0  0  0  0  0  0  0
  -25.1412  -28.5230   21.0314 C   0  0  0  0  0  0  0  0  0  0  0  0
  -29.8771  -23.9145   21.5888 C   0  0  0  0  0  0  0  0  0  0  0  0
  -29.2285  -24.1186   20.3708 C   0  0  0  0  0  0  0  0  0  0  0  0
  -29.0490  -23.0528   19.4890 C   0  0  0  0  0  0  0  0  0  0  0  0
  -30.1666  -21.5788   21.0431 C   0  0  0  0  0  0  0  0  0  0  0  0
  -24.5716  -12.8367   21.0713 C   0  0  0  0  0  0  0  0  0  0  0  0
  -26.9402  -26.9610   20.5477 C   0  0  0  0  0  0  0  0  0  0  0  0
  -23.0733  -11.0288   21.1657 C   0  0  0  0  0  0  0  0  0  0  0  0
  -22.6456   -8.2724   21.2095 C   0  0  0  0  0  0  0  0  0  0  0  0
  -23.5033  -10.2393   20.0992 C   0  0  0  0  0  0  0  0  0  0  0  0
  -29.5180  -21.7829   19.8252 C   0  0  0  0  0  0  0  0  0  0  0  0
  -28.5683  -14.2043   20.8385 C   0  0  0  0  0  0  0  0  0  0  0  0
  -30.6804  -14.4905   20.2981 C   0  0  0  0  0  0  0  0  0  0  0  0
  -29.5387  -12.6779   19.0099 C   0  0  0  0  0  0  0  0  0  0  0  0
  -24.9174  -31.7338   22.1577 C   0  0  0  0  0  0  0  0  0  0  0  0
  -21.9500  -30.4533   21.8791 C   0  0  0  0  0  0  0  0  0  0  0  0
  -20.0259  -27.7351   21.1337 C   0  0  0  0  0  0  0  0  0  0  0  0
  -31.3159  -19.9673   22.6015 C   0  0  0  0  0  0  0  0  0  0  0  0
  -25.1318  -36.6420   23.5439 C   0  0  0  0  0  0  0  0  0  0  0  0
  -25.0120  -30.7437   19.8411 C   0  0  0  0  0  0  0  0  0  0  0  0
  -23.8875  -28.8389   21.8038 C   0  0  0  0  0  0  0  0  0  0  0  0
  -24.2078  -35.4634   23.8395 C   0  0  0  0  0  0  0  0  0  0  0  0
  -32.6415  -16.9365   23.9183 C   0  0  0  0  0  0  0  0  0  0  0  0
  -25.0200  -34.2346   24.2357 C   0  0  0  0  0  0  0  0  0  0  0  0
  -31.8440  -15.8481   23.1962 C   0  0  0  0  0  0  0  0  0  0  0  0
  -31.7774  -18.1550   24.2379 C   0  0  0  0  0  0  0  0  0  0  0  0
  -30.2586  -17.6341   22.3694 C   0  0  0  0  0  0  0  0  0  0  0  0
  -25.9473  -33.7952   23.0961 C   0  0  1  0  0  0  0  0  0  0  0  0
  -24.1265  -31.2073   20.9937 C   0  0  1  0  0  0  0  0  0  0  0  0
  -31.1027  -16.4132   21.9687 C   0  0  2  0  0  0  0  0  0  0  0  0
  -30.0829  -25.0391   22.5505 C   0  0  0  0  0  0  0  0  0  0  0  0
  -28.3518  -23.2933   18.1855 C   0  0  0  0  0  0  0  0  0  0  0  0
  -17.6341  -26.9824   21.0338 C   0  0  0  0  0  0  0  0  0  0  0  0
  -21.8924  -30.2406   24.9224 C   0  0  0  0  0  0  0  0  0  0  0  0
  -19.9649  -28.6576   24.7056 C   0  0  0  0  0  0  0  0  0  0  0  0
  -19.7469  -31.0047   23.8892 C   0  0  0  0  0  0  0  0  0  0  0  0
  -20.2023  -27.1740   18.2332 C   0  0  0  0  0  0  0  0  0  0  0  0
  -28.7280  -25.4869   20.0123 C   0  0  0  0  0  0  0  0  0  1  0  0
  -21.1808  -29.3712   22.5978 C   0  0  1  0  0  0  0  0  0  0  0  0
  -18.7962  -27.5813   20.2570 C   0  0  2  0  0  0  0  0  0  0  0  0
  -20.7210  -29.8131   24.0158 C   0  0  0  0  0  0  0  0  0  0  0  0
  -28.9835  -15.1992   21.6270 N   0  0  0  0  0  0  0  0  0  0  0  0
  -30.2718  -15.3500   21.2751 N   0  0  0  0  0  0  0  0  0  0  0  0
  -23.2660  -30.1408   21.5097 N   0  0  0  0  0  0  0  0  0  0  0  0
  -31.1096  -18.6380   23.0272 N   0  0  0  0  0  0  0  0  0  0  0  0
  -31.9452  -14.5066   19.8263 N   0  0  0  0  0  0  0  0  0  0  0  0
  -28.3316  -11.9914   18.8202 N   0  0  0  0  0  0  0  0  0  0  0  0
  -30.6555  -20.3035   21.4202 N   0  0  0  0  0  0  0  0  0  0  0  0
  -25.1993  -33.0844   22.0814 N   0  0  0  0  0  0  0  0  0  0  0  0
  -20.0900  -28.9867   21.7086 N   0  0  0  0  0  0  0  0  0  0  0  0
  -19.0942  -26.6932   19.0979 N   0  3  0  0  0  0  0  0  0  0  0  0
  -30.5439  -12.3505   18.3347 O   0  0  0  0  0  0  0  0  0  0  0  0
  -25.2461  -30.9716   23.0591 O   0  0  0  0  0  0  0  0  0  0  0  0
  -21.4011  -31.5334   21.6476 O   0  0  0  0  0  0  0  0  0  0  0  0
  -20.8455  -26.8336   21.2955 O   0  0  0  0  0  0  0  0  0  0  0  0
  -32.0478  -20.7417   23.2233 O   0  0  0  0  0  0  0  0  0  0  0  0
  -23.2857  -12.3971   21.1458 O   0  0  0  0  0  0  0  0  0  0  0  0
  -27.5482  -25.7633   20.7659 O   0  0  0  0  0  0  0  0  0  1  0  0
  -22.4415   -6.9488   21.2313 F   0  0  0  0  0  0  0  0  0  0  0  0
  -24.1234  -10.7990   19.0513 F   0  0  0  0  0  0  0  0  0  0  0  0
  -29.2928  -20.4585   18.7282 Cl  0  0  0  0  0  0  0  0  0  0  0  0
  1  2  1  0  0  0  0
  1  5  2  0  0  0  0
  2  6  2  0  0  0  0
  3  8  2  0  0  0  0
  3 16  1  0  0  0  0
  4  9  1  0  0  0  0
  4 16  2  0  0  0  0
  5 18  1  0  0  0  0
  6 20  1  0  0  0  0
  7 10  2  0  0  0  0
  7 19  1  0  0  0  0
  8 26  1  0  0  0  0
  9 26  2  0  0  0  0
 10 27  1  0  0  0  0
 11 12  2  0  0  0  0
 11 28  1  0  0  0  0
 12 29  1  0  0  0  0
 13 21  1  0  0  0  0
 13 27  2  0  0  0  0
 14 22  2  0  0  0  0
 14 25  1  0  0  0  0
 15 29  2  0  0  0  0
 15 30  1  0  0  0  0
 16 32  1  0  0  0  0
 17 32  1  0  0  0  0
 17 33  2  0  0  0  0
 17 34  1  0  0  0  0
 18 20  2  0  0  0  0
 18 39  1  0  0  0  0
 19 21  2  0  0  0  0
 19 40  1  0  0  0  0
 20 48  1  0  0  0  0
 21 41  1  0  0  0  0
 22 23  1  0  0  0  0
 22 51  1  0  0  0  0
 23 24  2  0  0  0  0
 23 58  1  0  0  0  0
 24 31  1  0  0  0  0
 24 52  1  0  0  0  0
 25 31  2  0  0  0  0
 25 68  1  0  0  0  0
 26 77  1  0  0  0  0
 27 78  1  0  0  0  0
 28 30  2  0  0  0  0
 28 77  1  0  0  0  0
 29 79  1  0  0  0  0
 30 80  1  0  0  0  0
 31 81  1  0  0  0  0
 32 62  2  0  0  0  0
 33 63  1  0  0  0  0
 33 66  1  0  0  0  0
 34 67  1  0  0  0  0
 34 72  2  0  0  0  0
 35 49  1  0  0  0  0
 35 69  1  0  0  0  0
 35 73  2  0  0  0  0
 36 59  1  0  0  0  0
 36 64  1  0  0  0  0
 36 74  2  0  0  0  0
 37 60  1  0  0  0  0
 37 70  1  0  0  0  0
 37 75  2  0  0  0  0
 38 65  1  0  0  0  0
 38 68  1  0  0  0  0
 38 76  2  0  0  0  0
 39 42  1  0  0  0  0
 40 49  1  0  0  0  0
 41 64  1  0  0  0  0
 42 44  1  0  0  0  0
 43 45  1  0  0  0  0
 43 46  1  0  0  0  0
 44 48  1  0  0  0  0
 45 50  1  0  0  0  0
 46 65  1  0  0  0  0
 47 50  1  0  0  0  0
 47 65  1  0  0  0  0
 48 69  1  0  0  0  0
 49 64  1  0  0  0  0
 50 63  1  0  0  0  0
 53 60  1  0  0  0  0
 54 61  1  0  0  0  0
 55 61  1  0  0  0  0
 56 61  1  0  0  0  0
 57 71  1  0  0  0  0
 58 78  1  0  0  0  0
 59 61  1  0  0  0  0
 59 70  1  0  0  0  0
 60 71  1  0  0  0  0
 62 63  1  0  0  0  0
M  CHG  1  71   1
M  ISO  4  38 100  58 101  68 100  78 101
M  END
> <Batch ID>
0017

> <Smiles>
CNC(C)C(=O)NC(C(=O)N1Cc2cc([101O:1][101CH2:1]c3c(C)cc([100NH:0][100C:0](=O)N4CCCC(n5nc(-c6ccc(Oc7ccc(F)cc7F)cc6)c(C(N)=O)c5N)C4)c(Cl)c3C)ccc2CC1C(=O)NC1CCCc2ccccc21)C(C)(C)C

> <Shape>
0.349

> <Color>
0.081

> <Negative vol penalty>
0.000

$$$$

  -OEChem-04052316013D

 83 91  0     1  0  0  0  0  0999 V2000
  -23.3187  -29.6937   25.6865 C   0  0  0  0  0  0  0  0  0  0  0  0
  -23.8660  -28.4201   25.5696 C   0  0  0  0  0  0  0  0  0  0  0  0
  -23.0064   -9.8918   19.9745 C   0  0  0  0  0  0  0  0  0  0  0  0
  -23.7205   -9.9405   22.2820 C   0  0  0  0  0  0  0  0  0  0  0  0
  -22.7917  -30.3304   24.5636 C   0  0  0  0  0  0  0  0  0  0  0  0
  -23.8855  -27.7819   24.3299 C   0  0  0  0  0  0  0  0  0  0  0  0
  -28.3393  -25.5808   23.3480 C   0  0  0  0  0  0  0  0  0  0  0  0
  -22.2401   -8.7559   20.2356 C   0  0  0  0  0  0  0  0  0  0  0  0
  -22.9542   -8.8046   22.5431 C   0  0  0  0  0  0  0  0  0  0  0  0
  -28.5981  -24.3612   23.9718 C   0  0  0  0  0  0  0  0  0  0  0  0
  -23.2051   -5.4667   22.0678 C   0  0  0  0  0  0  0  0  0  0  0  0
  -23.7904   -4.4492   22.8212 C   0  0  0  0  0  0  0  0  0  0  0  0
  -27.9972  -23.2028   21.9430 C   0  0  0  0  0  0  0  0  0  0  0  0
  -31.8160  -17.4596   21.7245 C   0  0  0  0  0  0  0  0  0  0  0  0
  -22.0582   -4.6875   24.4886 C   0  0  0  0  0  0  0  0  0  0  0  0
  -23.7467  -10.4840   20.9977 C   0  0  0  0  0  0  0  0  0  0  0  0
  -24.1295  -13.0004   20.8270 C   0  0  0  0  0  0  0  0  0  0  0  0
  -22.8135  -29.7037   23.3077 C   0  0  0  0  0  0  0  0  0  0  0  0
  -27.8963  -25.6202   22.0181 C   0  0  0  0  0  0  0  0  0  0  0  0
  -23.3570  -28.4103   23.1895 C   0  0  0  0  0  0  0  0  0  0  0  0
  -27.7360  -24.4243   21.3037 C   0  0  0  0  0  0  0  0  0  0  0  0
  -31.8323  -18.7140   22.3829 C   0  0  0  0  0  0  0  0  0  0  0  0
  -22.2139   -8.2123   21.5199 C   0  0  0  0  0  0  0  0  0  0  0  0
  -28.4243  -23.1718   23.2703 C   0  0  0  0  0  0  0  0  0  0  0  0
  -22.0464   -6.0947   22.5247 C   0  0  0  0  0  0  0  0  0  0  0  0
  -23.2170   -4.0596   24.0316 C   0  0  0  0  0  0  0  0  0  0  0  0
  -21.4730   -5.7051   23.7351 C   0  0  0  0  0  0  0  0  0  0  0  0
  -24.5389  -11.6571   20.7284 C   0  0  0  0  0  0  0  0  0  0  0  0
  -30.6081  -18.8737   22.9939 C   0  0  0  0  0  0  0  0  0  0  0  0
  -30.5823  -16.8911   21.9530 C   0  0  0  0  0  0  0  0  0  0  0  0
  -25.2401  -13.7249   20.4689 C   0  0  0  0  0  0  0  0  0  0  0  0
  -22.8590  -13.5446   21.2082 C   0  0  0  0  0  0  0  0  0  0  0  0
  -25.2712  -26.6597   20.5580 C   0  0  0  0  0  0  0  0  0  0  0  0
  -26.9416  -25.9245   17.8764 C   0  0  0  0  0  0  0  0  0  0  0  0
  -29.4294  -24.0955   16.4229 C   0  0  0  0  0  0  0  0  0  0  0  0
  -30.7171  -14.6927   20.7303 C   0  0  0  0  0  0  0  0  0  0  0  0
  -22.1891  -30.4123   22.1318 C   0  0  0  0  0  0  0  0  0  0  0  0
  -27.6472  -26.9452   21.3511 C   0  0  0  0  0  0  0  0  0  0  0  0
  -27.2819  -24.4132   19.8677 C   0  0  0  0  0  0  0  0  0  0  0  0
  -22.5873  -29.8202   20.7824 C   0  0  0  0  0  0  0  0  0  0  0  0
  -29.6131  -12.2417   18.3955 C   0  0  0  0  0  0  0  0  0  0  0  0
  -22.4731  -28.2993   20.8121 C   0  0  0  0  0  0  0  0  0  0  0  0
  -28.1609  -11.9816   18.8024 C   0  0  0  0  0  0  0  0  0  0  0  0
  -30.5075  -12.4845   19.6099 C   0  0  0  0  0  0  0  0  0  0  0  0
  -28.5848  -13.2690   20.9355 C   0  0  0  0  0  0  0  0  0  0  0  0
  -23.4190  -27.6954   21.8571 C   0  0  1  0  0  0  0  0  0  0  0  0
  -26.7066  -26.8441   20.1542 C   0  0  1  0  0  0  0  0  0  0  0  0
  -27.6331  -13.0831   19.7425 C   0  0  2  0  0  0  0  0  0  0  0  0
  -30.5341  -23.6827   14.2079 C   0  0  0  0  0  0  0  0  0  0  0  0
  -34.1880  -19.1350   21.5962 C   0  0  0  0  0  0  0  0  0  0  0  0
  -33.4564  -19.9440   23.8648 C   0  0  0  0  0  0  0  0  0  0  0  0
  -32.6662  -21.0901   21.8048 C   0  0  0  0  0  0  0  0  0  0  0  0
  -24.5551  -24.2356   17.0035 C   0  0  0  0  0  0  0  0  0  0  0  0
  -26.0433  -23.1262   15.3235 C   0  0  0  0  0  0  0  0  0  0  0  0
  -25.6077  -25.5779   15.1747 C   0  0  0  0  0  0  0  0  0  0  0  0
  -28.5024  -17.5371   23.1892 C   0  0  0  0  0  0  0  0  0  0  0  0
  -32.0510  -25.0352   17.4244 C   0  0  0  0  0  0  0  0  0  0  0  0
  -30.0793  -20.0154   23.8275 C   0  0  0  0  0  0  0  0  0  0  0  0
  -29.1228  -20.9096   23.0460 C   0  0  0  0  0  0  0  0  0  1  0  0
  -27.0960  -24.6930   17.0170 C   0  0  1  0  0  0  0  0  0  0  0  0
  -30.5615  -24.4944   15.4936 C   0  0  2  0  0  0  0  0  0  0  0  0
  -32.9584  -19.6680   22.4061 C   0  0  0  0  0  0  0  0  0  0  0  0
  -25.8322  -24.4080   16.1573 C   0  0  0  0  0  0  0  0  0  0  0  0
  -25.8102  -11.5328   20.3381 N   0  0  0  0  0  0  0  0  0  0  0  0
  -29.8564  -17.7596   22.7255 N   0  0  0  0  0  0  0  0  0  0  0  0
  -26.2093  -12.8073   20.1882 N   0  0  0  0  0  0  0  0  0  0  0  0
  -27.0451  -25.7338   19.2615 N   0  0  0  0  0  0  0  0  0  0  0  0
  -29.9471  -13.5435   20.4521 N   0  0  0  0  0  0  0  0  0  0  0  0
  -25.4723  -15.0510   20.3697 N   0  0  0  0  0  0  0  0  0  0  0  0
  -21.8268  -12.6586   21.5456 N   0  0  0  0  0  0  0  0  0  0  0  0
  -30.0679  -15.6459   21.5142 N   0  0  0  0  0  0  0  0  0  0  0  0
  -24.7768  -27.6731   21.3568 N   0  0  0  0  0  0  0  0  0  0  0  0
  -28.3156  -24.8876   16.2403 N   0  0  0  0  0  0  0  0  0  0  0  0
  -31.8778  -24.2778   16.1581 N   0  3  0  0  0  0  0  0  0  0  0  0
  -22.6406  -14.7796   21.2326 O   0  0  0  0  0  0  0  0  0  0  0  0
  -24.6571  -25.6720   20.1722 O   0  0  0  0  0  0  0  0  0  0  0  0
  -26.7438  -27.0167   17.3381 O   0  0  0  0  0  0  0  0  0  0  0  0
  -29.5224  -23.1711   17.2276 O   0  0  0  0  0  0  0  0  0  0  0  0
  -31.8578  -14.8337   20.2819 O   0  0  0  0  0  0  0  0  0  0  0  0
  -21.4661   -7.1041   21.7751 O   0  0  0  0  0  0  0  0  0  0  0  0
  -28.6755  -21.9799   23.8770 O   0  0  0  0  0  0  0  0  0  1  0  0
  -23.7783   -3.0814   24.7544 F   0  0  0  0  0  0  0  0  0  0  0  0
  -20.3592   -6.3039   24.1786 F   0  0  0  0  0  0  0  0  0  0  0  0
  1  2  1  0  0  0  0
  1  5  2  0  0  0  0
  2  6  2  0  0  0  0
  3  8  2  0  0  0  0
  3 16  1  0  0  0  0
  4  9  1  0  0  0  0
  4 16  2  0  0  0  0
  5 18  1  0  0  0  0
  6 20  1  0  0  0  0
  7 10  2  0  0  0  0
  7 19  1  0  0  0  0
  8 23  1  0  0  0  0
  9 23  2  0  0  0  0
 10 24  1  0  0  0  0
 11 12  2  0  0  0  0
 11 25  1  0  0  0  0
 12 26  1  0  0  0  0
 13 21  1  0  0  0  0
 13 24  2  0  0  0  0
 14 22  1  0  0  0  0
 14 30  2  0  0  0  0
 15 26  2  0  0  0  0
 15 27  1  0  0  0  0
 16 28  1  0  0  0  0
 17 28  1  0  0  0  0
 17 31  2  0  0  0  0
 17 32  1  0  0  0  0
 18 20  2  0  0  0  0
 18 37  1  0  0  0  0
 19 21  2  0  0  0  0
 19 38  1  0  0  0  0
 20 46  1  0  0  0  0
 21 39  1  0  0  0  0
 22 29  2  0  0  0  0
 22 62  1  0  0  0  0
 23 80  1  0  0  0  0
 24 81  1  0  0  0  0
 25 27  2  0  0  0  0
 25 80  1  0  0  0  0
 26 82  1  0  0  0  0
 27 83  1  0  0  0  0
 28 64  2  0  0  0  0
 29 58  1  0  0  0  0
 29 65  1  0  0  0  0
 30 65  1  0  0  0  0
 30 71  1  0  0  0  0
 31 66  1  0  0  0  0
 31 69  1  0  0  0  0
 32 70  1  0  0  0  0
 32 75  2  0  0  0  0
 33 47  1  0  0  0  0
 33 72  1  0  0  0  0
 33 76  2  0  0  0  0
 34 60  1  0  0  0  0
 34 67  1  0  0  0  0
 34 77  2  0  0  0  0
 35 61  1  0  0  0  0
 35 73  1  0  0  0  0
 35 78  2  0  0  0  0
 36 68  1  0  0  0  0
 36 71  1  0  0  0  0
 36 79  2  0  0  0  0
 37 40  1  0  0  0  0
 38 47  1  0  0  0  0
 39 67  1  0  0  0  0
 40 42  1  0  0  0  0
 41 43  1  0  0  0  0
 41 44  1  0  0  0  0
 42 46  1  0  0  0  0
 43 48  1  0  0  0  0
 44 68  1  0  0  0  0
 45 48  1  0  0  0  0
 45 68  1  0  0  0  0
 46 72  1  0  0  0  0
 47 67  1  0  0  0  0
 48 66  1  0  0  0  0
 49 61  1  0  0  0  0
 50 62  1  0  0  0  0
 51 62  1  0  0  0  0
 52 62  1  0  0  0  0
 53 63  1  0  0  0  0
 54 63  1  0  0  0  0
 55 63  1  0  0  0  0
 56 65  1  0  0  0  0
 57 74  1  0  0  0  0
 58 59  1  0  0  0  0
 59 81  1  0  0  0  0
 60 63  1  0  0  0  0
 60 73  1  0  0  0  0
 61 74  1  0  0  0  0
 64 66  1  0  0  0  0
M  CHG  1  74   1
M  ISO  4  36 100  59 101  71 100  81 101
M  END
> <Batch ID>
0017

> <Smiles>
CNC(C)C(=O)NC(C(=O)N1Cc2cc([101O:1][101CH2:1]Cc3c(C(C)(C)C)cc([100NH:0][100C:0](=O)N4CCCC(n5nc(-c6ccc(Oc7ccc(F)cc7F)cc6)c(C(N)=O)c5N)C4)n3C)ccc2CC1C(=O)NC1CCCc2ccccc21)C(C)(C)C

> <Shape>
0.261

> <Color>
0.203

> <Negative vol penalty>
0.000

$$$$

  -OEChem-04052316013D

 83 91  0     1  0  0  0  0  0999 V2000
  -21.6451  -31.4528   19.7855 C   0  0  0  0  0  0  0  0  0  0  0  0
  -22.1593  -30.4864   18.9269 C   0  0  0  0  0  0  0  0  0  0  0  0
  -23.4676   -9.7191   21.8401 C   0  0  0  0  0  0  0  0  0  0  0  0
  -24.0791  -10.9868   23.8038 C   0  0  0  0  0  0  0  0  0  0  0  0
  -22.3845  -31.8632   20.8940 C   0  0  0  0  0  0  0  0  0  0  0  0
  -23.4137  -29.9306   19.1758 C   0  0  0  0  0  0  0  0  0  0  0  0
  -27.0472  -23.7998   18.4495 C   0  0  0  0  0  0  0  0  0  0  0  0
  -22.8466   -8.7668   22.6482 C   0  0  0  0  0  0  0  0  0  0  0  0
  -23.4580  -10.0345   24.6120 C   0  0  0  0  0  0  0  0  0  0  0  0
  -28.2455  -23.3132   17.9289 C   0  0  0  0  0  0  0  0  0  0  0  0
  -19.9252   -8.4413   24.3192 C   0  0  0  0  0  0  0  0  0  0  0  0
  -18.6646   -7.9862   23.9329 C   0  0  0  0  0  0  0  0  0  0  0  0
  -29.3987  -24.0417   19.9185 C   0  0  0  0  0  0  0  0  0  0  0  0
  -19.5233   -5.7327   23.7857 C   0  0  0  0  0  0  0  0  0  0  0  0
  -31.1637  -18.1932   19.3769 C   0  0  0  0  0  0  0  0  0  0  0  0
  -24.0839  -10.8291   22.4179 C   0  0  0  0  0  0  0  0  0  0  0  0
  -24.1413  -12.9641   21.0229 C   0  0  0  0  0  0  0  0  0  0  0  0
  -23.6444  -31.3051   21.1620 C   0  0  0  0  0  0  0  0  0  0  0  0
  -27.0175  -24.4218   19.7059 C   0  0  0  0  0  0  0  0  0  0  0  0
  -24.1712  -30.3348   20.2882 C   0  0  0  0  0  0  0  0  0  0  0  0
  -28.1983  -24.5330   20.4539 C   0  0  0  0  0  0  0  0  0  0  0  0
  -29.9819  -17.7247   19.8969 C   0  0  0  0  0  0  0  0  0  0  0  0
  -22.8418   -8.9245   24.0341 C   0  0  0  0  0  0  0  0  0  0  0  0
  -29.4220  -23.4366   18.6621 C   0  0  0  0  0  0  0  0  0  0  0  0
  -20.9849   -7.5422   24.4386 C   0  0  0  0  0  0  0  0  0  0  0  0
  -18.4636   -6.6319   23.6662 C   0  0  0  0  0  0  0  0  0  0  0  0
  -20.7840   -6.1879   24.1719 C   0  0  0  0  0  0  0  0  0  0  0  0
  -24.7261  -11.8129   21.5837 C   0  0  0  0  0  0  0  0  0  0  0  0
  -29.2114  -18.8820   20.1182 C   0  0  0  0  0  0  0  0  0  0  0  0
  -25.1608  -13.5602   20.3217 C   0  0  0  0  0  0  0  0  0  0  0  0
  -22.7967  -13.4511   21.1266 C   0  0  0  0  0  0  0  0  0  0  0  0
  -26.2675  -27.3278   20.7531 C   0  0  0  0  0  0  0  0  0  0  0  0
  -26.6913  -25.9631   23.6652 C   0  0  0  0  0  0  0  0  0  0  0  0
  -28.1394  -23.4952   25.5251 C   0  0  0  0  0  0  0  0  0  0  0  0
  -30.4501  -15.2494   19.9071 C   0  0  0  0  0  0  0  0  0  0  0  0
  -24.4271  -31.8147   22.3462 C   0  0  0  0  0  0  0  0  0  0  0  0
  -25.7121  -24.9175   20.2650 C   0  0  0  0  0  0  0  0  0  0  0  0
  -28.2164  -25.1744   21.8166 C   0  0  0  0  0  0  0  0  0  0  0  0
  -25.5855  -30.9052   22.7477 C   0  0  0  0  0  0  0  0  0  0  0  0
  -29.7673  -11.8470   19.1107 C   0  0  0  0  0  0  0  0  0  0  0  0
  -26.3867  -30.4872   21.5188 C   0  0  0  0  0  0  0  0  0  0  0  0
  -28.3468  -11.6295   19.6370 C   0  0  0  0  0  0  0  0  0  0  0  0
  -30.5745  -12.7702   20.0217 C   0  0  0  0  0  0  0  0  0  0  0  0
  -28.5157  -13.8404   20.8495 C   0  0  0  0  0  0  0  0  0  0  0  0
  -25.5174  -29.6904   20.5384 C   0  0  1  0  0  0  0  0  0  0  0  0
  -25.8892  -25.9937   21.3317 C   0  0  1  0  0  0  0  0  0  0  0  0
  -27.6435  -12.9691   19.9310 C   0  0  2  0  0  0  0  0  0  0  0  0
  -28.3314  -22.6619   27.8844 C   0  0  0  0  0  0  0  0  0  0  0  0
  -27.7636  -18.3727   22.1157 C   0  0  0  0  0  0  0  0  0  0  0  0
  -26.8133  -18.1823   19.7927 C   0  0  0  0  0  0  0  0  0  0  0  0
  -27.2457  -20.4155   20.7964 C   0  0  0  0  0  0  0  0  0  0  0  0
  -28.6366  -28.2255   24.3034 C   0  0  0  0  0  0  0  0  0  0  0  0
  -29.4895  -26.8581   26.2193 C   0  0  0  0  0  0  0  0  0  0  0  0
  -27.1088  -27.6021   26.1827 C   0  0  0  0  0  0  0  0  0  0  0  0
  -26.9116  -20.8938   24.8292 C   0  0  0  0  0  0  0  0  0  0  0  0
  -31.8027  -21.0332   17.4020 C   0  0  0  0  0  0  0  0  0  0  0  0
  -32.0689  -20.5265   18.8212 C   0  0  0  0  0  0  0  0  0  0  0  0
  -30.5149  -21.8394   17.2800 C   0  0  0  0  0  0  0  0  0  1  0  0
  -27.8626  -25.7803   24.5999 C   0  0  1  0  0  0  0  0  0  0  0  0
  -27.5683  -22.5570   26.5731 C   0  0  2  0  0  0  0  0  0  0  0  0
  -27.8469  -18.9682   20.6691 C   0  0  0  0  0  0  0  0  0  0  0  0
  -28.2747  -27.1061   25.2999 C   0  0  0  0  0  0  0  0  0  0  0  0
  -26.0169  -11.6833   21.2660 N   0  0  0  0  0  0  0  0  0  0  0  0
  -29.8501  -20.0014   19.7676 N   0  0  0  0  0  0  0  0  0  0  0  0
  -31.0344  -19.5498   19.3209 N   0  0  0  0  0  0  0  0  0  0  0  0
  -26.2517  -12.7608   20.4979 N   0  0  0  0  0  0  0  0  0  0  0  0
  -26.9159  -25.6491   22.3173 N   0  0  0  0  0  0  0  0  0  0  0  0
  -29.8482  -14.0209   20.2523 N   0  0  0  0  0  0  0  0  0  0  0  0
  -25.2215  -14.6850   19.5776 N   0  0  0  0  0  0  0  0  0  0  0  0
  -21.8767  -12.7161   21.8866 N   0  0  0  0  0  0  0  0  0  0  0  0
  -29.6520  -16.3686   20.1416 N   0  0  0  0  0  0  0  0  0  0  0  0
  -25.3494  -28.3300   21.0024 N   0  0  0  0  0  0  0  0  0  0  0  0
  -27.4884  -24.7107   25.5188 N   0  0  0  0  0  0  0  0  0  0  0  0
  -27.6400  -21.1459   26.0992 N   0  3  0  0  0  0  0  0  0  0  0  0
  -22.4181  -14.4980   20.5486 O   0  0  0  0  0  0  0  0  0  0  0  0
  -27.3155  -27.4400   20.1280 O   0  0  0  0  0  0  0  0  0  0  0  0
  -25.6147  -26.3627   24.1156 O   0  0  0  0  0  0  0  0  0  0  0  0
  -29.0722  -23.1825   24.7885 O   0  0  0  0  0  0  0  0  0  0  0  0
  -31.5791  -15.3026   19.4126 O   0  0  0  0  0  0  0  0  0  0  0  0
  -22.2357   -7.9955   24.8229 O   0  0  0  0  0  0  0  0  0  0  0  0
  -30.5932  -22.9631   18.1561 O   0  0  0  0  0  0  0  0  0  1  0  0
  -17.2526   -6.1947   23.2968 F   0  0  0  0  0  0  0  0  0  0  0  0
  -21.7979   -5.3192   24.2861 F   0  0  0  0  0  0  0  0  0  0  0  0
  1  2  1  0  0  0  0
  1  5  2  0  0  0  0
  2  6  2  0  0  0  0
  3  8  2  0  0  0  0
  3 16  1  0  0  0  0
  4  9  1  0  0  0  0
  4 16  2  0  0  0  0
  5 18  1  0  0  0  0
  6 20  1  0  0  0  0
  7 10  2  0  0  0  0
  7 19  1  0  0  0  0
  8 23  1  0  0  0  0
  9 23  2  0  0  0  0
 10 24  1  0  0  0  0
 11 12  2  0  0  0  0
 11 25  1  0  0  0  0
 12 26  1  0  0  0  0
 13 21  1  0  0  0  0
 13 24  2  0  0  0  0
 14 26  2  0  0  0  0
 14 27  1  0  0  0  0
 15 22  2  0  0  0  0
 15 65  1  0  0  0  0
 16 28  1  0  0  0  0
 17 28  1  0  0  0  0
 17 30  2  0  0  0  0
 17 31  1  0  0  0  0
 18 20  2  0  0  0  0
 18 36  1  0  0  0  0
 19 21  2  0  0  0  0
 19 37  1  0  0  0  0
 20 45  1  0  0  0  0
 21 38  1  0  0  0  0
 22 29  1  0  0  0  0
 22 71  1  0  0  0  0
 23 80  1  0  0  0  0
 24 81  1  0  0  0  0
 25 27  2  0  0  0  0
 25 80  1  0  0  0  0
 26 82  1  0  0  0  0
 27 83  1  0  0  0  0
 28 63  2  0  0  0  0
 29 61  1  0  0  0  0
 29 64  2  0  0  0  0
 30 66  1  0  0  0  0
 30 69  1  0  0  0  0
 31 70  1  0  0  0  0
 31 75  2  0  0  0  0
 32 46  1  0  0  0  0
 32 72  1  0  0  0  0
 32 76  2  0  0  0  0
 33 59  1  0  0  0  0
 33 67  1  0  0  0  0
 33 77  2  0  0  0  0
 34 60  1  0  0  0  0
 34 73  1  0  0  0  0
 34 78  2  0  0  0  0
 35 68  1  0  0  0  0
 35 71  1  0  0  0  0
 35 79  2  0  0  0  0
 36 39  1  0  0  0  0
 37 46  1  0  0  0  0
 38 67  1  0  0  0  0
 39 41  1  0  0  0  0
 40 42  1  0  0  0  0
 40 43  1  0  0  0  0
 41 45  1  0  0  0  0
 42 47  1  0  0  0  0
 43 68  1  0  0  0  0
 44 47  1  0  0  0  0
 44 68  1  0  0  0  0
 45 72  1  0  0  0  0
 46 67  1  0  0  0  0
 47 66  1  0  0  0  0
 48 60  1  0  0  0  0
 49 61  1  0  0  0  0
 50 61  1  0  0  0  0
 51 61  1  0  0  0  0
 52 62  1  0  0  0  0
 53 62  1  0  0  0  0
 54 62  1  0  0  0  0
 55 74  1  0  0  0  0
 56 57  1  0  0  0  0
 56 58  1  0  0  0  0
 57 65  1  0  0  0  0
 58 81  1  0  0  0  0
 59 62  1  0  0  0  0
 59 73  1  0  0  0  0
 60 74  1  0  0  0  0
 63 66  1  0  0  0  0
 64 65  1  0  0  0  0
M  CHG  1  74   1
M  ISO  4  35 100  58 101  71 100  81 101
M  END
> <Batch ID>
0017

> <Smiles>
CNC(C)C(=O)NC(C(=O)N1Cc2cc([101O:1][101CH2:1]CCn3cc([100NH:0][100C:0](=O)N4CCCC(n5nc(-c6ccc(Oc7ccc(F)cc7F)cc6)c(C(N)=O)c5N)C4)c(C(C)(C)C)n3)ccc2CC1C(=O)NC1CCCc2ccccc21)C(C)(C)C

> <Shape>
0.256

> <Color>
0.141

> <Negative vol penalty>
0.000

$$$$

  -OEChem-04052316013D

 75 82  0     1  0  0  0  0  0999 V2000
  -32.6757  -26.9307   24.1935 C   0  0  0  0  0  0  0  0  0  0  0  0
  -33.2702  -25.6961   23.9527 C   0  0  0  0  0  0  0  0  0  0  0  0
  -23.1714   -9.8811   19.9137 C   0  0  0  0  0  0  0  0  0  0  0  0
  -23.5557  -10.0089   22.2955 C   0  0  0  0  0  0  0  0  0  0  0  0
  -31.2939  -27.0727   24.0744 C   0  0  0  0  0  0  0  0  0  0  0  0
  -32.4830  -24.6026   23.5938 C   0  0  0  0  0  0  0  0  0  0  0  0
  -34.0021  -20.0717   19.7637 C   0  0  0  0  0  0  0  0  0  0  0  0
  -22.3855   -8.7442   20.1014 C   0  0  0  0  0  0  0  0  0  0  0  0
  -22.7697   -8.8720   22.4833 C   0  0  0  0  0  0  0  0  0  0  0  0
  -34.4800  -18.7802   19.9813 C   0  0  0  0  0  0  0  0  0  0  0  0
  -21.1601   -5.7946   23.5550 C   0  0  0  0  0  0  0  0  0  0  0  0
  -21.6407   -4.8094   24.4175 C   0  0  0  0  0  0  0  0  0  0  0  0
  -32.2307  -17.9255   19.8106 C   0  0  0  0  0  0  0  0  0  0  0  0
  -23.5927   -4.5381   23.0199 C   0  0  0  0  0  0  0  0  0  0  0  0
  -23.7566  -10.5135   21.0107 C   0  0  0  0  0  0  0  0  0  0  0  0
  -24.1389  -13.0281   20.8149 C   0  0  0  0  0  0  0  0  0  0  0  0
  -30.4903  -25.9827   23.7044 C   0  0  0  0  0  0  0  0  0  0  0  0
  -32.6312  -20.3016   19.5785 C   0  0  0  0  0  0  0  0  0  0  0  0
  -31.0889  -24.7299   23.4710 C   0  0  0  0  0  0  0  0  0  0  0  0
  -31.7382  -19.2206   19.5883 C   0  0  0  0  0  0  0  0  0  0  0  0
  -22.1846   -8.2396   21.3862 C   0  0  0  0  0  0  0  0  0  0  0  0
  -33.5940  -17.7072   20.0076 C   0  0  0  0  0  0  0  0  0  0  0  0
  -21.8957   -6.1515   22.4248 C   0  0  0  0  0  0  0  0  0  0  0  0
  -22.8571   -4.1812   24.1500 C   0  0  0  0  0  0  0  0  0  0  0  0
  -23.1120   -5.5233   22.1573 C   0  0  0  0  0  0  0  0  0  0  0  0
  -24.5690  -11.6876   20.8173 C   0  0  0  0  0  0  0  0  0  0  0  0
  -25.2825  -13.7553   20.5922 C   0  0  0  0  0  0  0  0  0  0  0  0
  -22.8231  -13.5676   20.9979 C   0  0  0  0  0  0  0  0  0  0  0  0
  -30.4033  -21.9519   21.1331 C   0  0  0  0  0  0  0  0  0  0  0  0
  -28.5643  -21.1105   18.5969 C   0  0  0  0  0  0  0  0  0  0  0  0
  -27.9950  -18.9426   16.0234 C   0  0  0  0  0  0  0  0  0  0  0  0
  -30.8946  -12.8120   21.6977 C   0  0  0  0  0  0  0  0  0  0  0  0
  -28.9959  -26.1732   23.6345 C   0  0  0  0  0  0  0  0  0  0  0  0
  -32.1347  -21.6974   19.3183 C   0  0  0  0  0  0  0  0  0  0  0  0
  -30.2595  -19.4115   19.3746 C   0  0  0  0  0  0  0  0  0  0  0  0
  -28.2739  -25.0566   22.8848 C   0  0  0  0  0  0  0  0  0  0  0  0
  -29.5634  -13.4701   18.4935 C   0  0  0  0  0  0  0  0  0  0  0  0
  -28.7751  -23.6921   23.3473 C   0  0  0  0  0  0  0  0  0  0  0  0
  -28.0758  -13.2078   18.7242 C   0  0  0  0  0  0  0  0  0  0  0  0
  -30.4457  -12.4569   19.2251 C   0  0  0  0  0  0  0  0  0  0  0  0
  -28.6659  -12.0818   20.9026 C   0  0  0  0  0  0  0  0  0  0  0  0
  -30.2714  -23.5261   23.0554 C   0  0  1  0  0  0  0  0  0  0  0  0
  -30.6576  -21.8785   19.6540 C   0  0  1  0  0  0  0  0  0  0  0  0
  -27.7589  -13.1219   20.2273 C   0  0  2  0  0  0  0  0  0  0  0  0
  -26.3932  -18.4922   14.1448 C   0  0  0  0  0  0  0  0  0  0  0  0
  -26.5394  -20.0021   20.5923 C   0  0  0  0  0  0  0  0  0  0  0  0
  -25.4680  -18.7534   18.7052 C   0  0  0  0  0  0  0  0  0  0  0  0
  -25.5353  -21.2467   18.6695 C   0  0  0  0  0  0  0  0  0  0  0  0
  -32.9464  -11.7573   20.6572 C   0  0  0  0  0  0  0  0  0  0  0  0
  -30.1157  -19.2623   13.9840 C   0  0  0  0  0  0  0  0  0  0  0  0
  -34.0098  -14.5134   21.6426 C   0  0  0  0  0  0  0  0  0  0  0  0
  -33.1585  -13.4978   22.3926 C   0  0  0  0  0  0  0  0  0  0  0  0
  -33.1773  -15.5314   20.8726 C   0  0  0  0  0  0  0  0  0  1  0  0
  -27.6645  -19.9435   18.2691 C   0  0  1  0  0  0  0  0  0  0  0  0
  -27.6858  -19.1798   14.5562 C   0  0  2  0  0  0  0  0  0  0  0  0
  -26.3294  -19.9827   19.0650 C   0  0  0  0  0  0  0  0  0  0  0  0
  -25.8833  -11.5675   20.6121 N   0  0  0  0  0  0  0  0  0  0  0  0
  -26.2889  -12.8418   20.4787 N   0  0  0  0  0  0  0  0  0  0  0  0
  -29.8221  -20.7959   19.1303 N   0  0  0  0  0  0  0  0  0  0  0  0
  -30.0786  -12.3718   20.6452 N   0  0  0  0  0  0  0  0  0  0  0  0
  -25.5154  -15.0806   20.4843 N   0  0  0  0  0  0  0  0  0  0  0  0
  -21.7612  -12.6794   21.2161 N   0  0  0  0  0  0  0  0  0  0  0  0
  -30.4832  -23.2289   21.6549 N   0  0  0  0  0  0  0  0  0  0  0  0
  -27.4967  -19.9518   16.8199 N   0  0  0  0  0  0  0  0  0  0  0  0
  -32.2827  -12.7457   21.5051 N   0  0  0  0  0  0  0  0  0  0  0  0
  -28.7893  -18.6552   13.7029 N   0  3  0  0  0  0  0  0  0  0  0  0
  -22.5933  -14.7999   20.9523 O   0  0  0  0  0  0  0  0  0  0  0  0
  -30.1517  -20.9261   21.7545 O   0  0  0  0  0  0  0  0  0  0  0  0
  -28.1685  -22.2586   18.3806 O   0  0  0  0  0  0  0  0  0  0  0  0
  -28.6131  -17.9585   16.4232 O   0  0  0  0  0  0  0  0  0  0  0  0
  -30.4107  -13.2342   22.7559 O   0  0  0  0  0  0  0  0  0  0  0  0
  -21.4176   -7.1304   21.5699 O   0  0  0  0  0  0  0  0  0  0  0  0
  -34.0578  -16.4457   20.2205 O   0  0  0  0  0  0  0  0  0  1  0  0
  -23.3193   -3.2362   24.9792 F   0  0  0  0  0  0  0  0  0  0  0  0
  -23.8238   -5.8629   21.0738 F   0  0  0  0  0  0  0  0  0  0  0  0
  1  2  1  0  0  0  0
  1  5  2  0  0  0  0
  2  6  2  0  0  0  0
  3  8  2  0  0  0  0
  3 15  1  0  0  0  0
  4  9  1  0  0  0  0
  4 15  2  0  0  0  0
  5 17  1  0  0  0  0
  6 19  1  0  0  0  0
  7 10  2  0  0  0  0
  7 18  1  0  0  0  0
  8 21  1  0  0  0  0
  9 21  2  0  0  0  0
 10 22  1  0  0  0  0
 11 12  2  0  0  0  0
 11 23  1  0  0  0  0
 12 24  1  0  0  0  0
 13 20  1  0  0  0  0
 13 22  2  0  0  0  0
 14 24  2  0  0  0  0
 14 25  1  0  0  0  0
 15 26  1  0  0  0  0
 16 26  1  0  0  0  0
 16 27  2  0  0  0  0
 16 28  1  0  0  0  0
 17 19  2  0  0  0  0
 17 33  1  0  0  0  0
 18 20  2  0  0  0  0
 18 34  1  0  0  0  0
 19 42  1  0  0  0  0
 20 35  1  0  0  0  0
 21 72  1  0  0  0  0
 22 73  1  0  0  0  0
 23 25  2  0  0  0  0
 23 72  1  0  0  0  0
 24 74  1  0  0  0  0
 25 75  1  0  0  0  0
 26 57  2  0  0  0  0
 27 58  1  0  0  0  0
 27 61  1  0  0  0  0
 28 62  1  0  0  0  0
 28 67  2  0  0  0  0
 29 43  1  0  0  0  0
 29 63  1  0  0  0  0
 29 68  2  0  0  0  0
 30 54  1  0  0  0  0
 30 59  1  0  0  0  0
 30 69  2  0  0  0  0
 31 55  1  0  0  0  0
 31 64  1  0  0  0  0
 31 70  2  0  0  0  0
 32 60  1  0  0  0  0
 32 65  1  0  0  0  0
 32 71  2  0  0  0  0
 33 36  1  0  0  0  0
 34 43  1  0  0  0  0
 35 59  1  0  0  0  0
 36 38  1  0  0  0  0
 37 39  1  0  0  0  0
 37 40  1  0  0  0  0
 38 42  1  0  0  0  0
 39 44  1  0  0  0  0
 40 60  1  0  0  0  0
 41 44  1  0  0  0  0
 41 60  1  0  0  0  0
 42 63  1  0  0  0  0
 43 59  1  0  0  0  0
 44 58  1  0  0  0  0
 45 55  1  0  0  0  0
 46 56  1  0  0  0  0
 47 56  1  0  0  0  0
 48 56  1  0  0  0  0
 49 65  1  0  0  0  0
 50 66  1  0  0  0  0
 51 52  1  0  0  0  0
 51 53  1  0  0  0  0
 52 65  1  0  0  0  0
 53 73  1  0  0  0  0
 54 56  1  0  0  0  0
 54 64  1  0  0  0  0
 55 66  1  0  0  0  0
 57 58  1  0  0  0  0
M  CHG  1  66   1
M  ISO  4  32 100  53 101  65 100  73 101
M  END
> <Batch ID>
0017

> <Smiles>
CNC(C)C(=O)NC(C(=O)N1Cc2cc([101O:1][101CH2:1]CC[100N:0](C)[100C:0](=O)N3CCCC(n4nc(-c5ccc(Oc6ccc(F)cc6F)cc5)c(C(N)=O)c4N)C3)ccc2CC1C(=O)NC1CCCc2ccccc21)C(C)(C)C

> <Shape>
0.188

> <Color>
0.204

> <Negative vol penalty>
0.000

$$$$

  -OEChem-04052316013D

 86 94  0     1  0  0  0  0  0999 V2000
  -20.2773  -23.0201   23.8823 C   0  0  0  0  0  0  0  0  0  0  0  0
  -21.6203  -22.7585   23.6307 C   0  0  0  0  0  0  0  0  0  0  0  0
  -22.3793  -28.2643   21.0715 C   0  0  0  0  0  0  0  0  0  0  0  0
  -23.7221  -28.1895   23.0786 C   0  0  0  0  0  0  0  0  0  0  0  0
  -19.4057  -21.9703   24.1691 C   0  0  0  0  0  0  0  0  0  0  0  0
  -22.0928  -21.4471   23.6669 C   0  0  0  0  0  0  0  0  0  0  0  0
  -25.1408  -20.3720   19.7683 C   0  0  0  0  0  0  0  0  0  0  0  0
  -21.2278  -28.0720   21.8347 C   0  0  0  0  0  0  0  0  0  0  0  0
  -22.5705  -27.9972   23.8419 C   0  0  0  0  0  0  0  0  0  0  0  0
  -26.4526  -20.8389   19.8381 C   0  0  0  0  0  0  0  0  0  0  0  0
  -19.2015  -29.9344   23.7991 C   0  0  0  0  0  0  0  0  0  0  0  0
  -18.0964  -30.7380   23.5189 C   0  0  0  0  0  0  0  0  0  0  0  0
  -27.1878  -18.6505   20.5378 C   0  0  0  0  0  0  0  0  0  0  0  0
  -33.7275  -24.6303   22.5382 C   0  0  0  0  0  0  0  0  0  0  0  0
  -16.7923  -28.7683   23.0122 C   0  0  0  0  0  0  0  0  0  0  0  0
  -23.6265  -28.3230   21.6934 C   0  0  0  0  0  0  0  0  0  0  0  0
  -25.4093  -29.7488   20.5549 C   0  0  0  0  0  0  0  0  0  0  0  0
  -19.8657  -20.6444   24.1993 C   0  0  0  0  0  0  0  0  0  0  0  0
  -24.8405  -19.0415   20.0938 C   0  0  0  0  0  0  0  0  0  0  0  0
  -21.2268  -20.3787   23.9557 C   0  0  0  0  0  0  0  0  0  0  0  0
  -25.8718  -18.1686   20.4688 C   0  0  0  0  0  0  0  0  0  0  0  0
  -34.4321  -25.7480   22.9852 C   0  0  0  0  0  0  0  0  0  0  0  0
  -32.9138  -27.1882   21.7778 C   0  0  0  0  0  0  0  0  0  0  0  0
  -32.6160  -24.7915   21.7109 C   0  0  0  0  0  0  0  0  0  0  0  0
  -32.2091  -26.0704   21.3308 C   0  0  0  0  0  0  0  0  0  0  0  0
  -21.3233  -27.9385   23.2199 C   0  0  0  0  0  0  0  0  0  0  0  0
  -27.4760  -19.9789   20.2257 C   0  0  0  0  0  0  0  0  0  0  0  0
  -19.1020  -28.5476   23.6857 C   0  0  0  0  0  0  0  0  0  0  0  0
  -16.8918  -30.1550   23.1255 C   0  0  0  0  0  0  0  0  0  0  0  0
  -17.8975  -27.9646   23.2923 C   0  0  0  0  0  0  0  0  0  0  0  0
  -34.0253  -27.0269   22.6050 C   0  0  0  0  0  0  0  0  0  0  0  0
  -24.8165  -28.5210   20.9055 C   0  0  0  0  0  0  0  0  0  0  0  0
  -26.5077  -29.3989   19.8081 C   0  0  0  0  0  0  0  0  0  0  0  0
  -25.0035  -31.0860   20.8757 C   0  0  0  0  0  0  0  0  0  0  0  0
  -23.0495  -17.6220   22.3031 C   0  0  0  0  0  0  0  0  0  0  0  0
  -23.8295  -14.9400   20.6536 C   0  0  0  0  0  0  0  0  0  0  0  0
  -26.0027  -13.3639   18.5465 C   0  0  0  0  0  0  0  0  0  0  0  0
  -30.6164  -25.3500   19.5168 C   0  0  0  0  0  0  0  0  0  0  0  0
  -18.8957  -19.5475   24.5605 C   0  0  0  0  0  0  0  0  0  0  0  0
  -23.4242  -18.5463   19.9876 C   0  0  0  0  0  0  0  0  0  0  0  0
  -25.6050  -16.7258   20.8089 C   0  0  0  0  0  0  0  0  0  0  0  0
  -19.3992  -18.1495   24.2105 C   0  0  0  0  0  0  0  0  0  0  0  0
  -27.8558  -25.3721   17.2683 C   0  0  0  0  0  0  0  0  0  0  0  0
  -20.8435  -17.9722   24.6680 C   0  0  0  0  0  0  0  0  0  0  0  0
  -26.8475  -26.3062   17.9413 C   0  0  0  0  0  0  0  0  0  0  0  0
  -28.6175  -24.5293   18.2896 C   0  0  0  0  0  0  0  0  0  0  0  0
  -28.2550  -26.2258   20.0388 C   0  0  0  0  0  0  0  0  0  0  0  0
  -21.7721  -18.9671   23.9613 C   0  0  1  0  0  0  0  0  0  0  0  0
  -23.1590  -17.3077   20.8378 C   0  0  1  0  0  0  0  0  0  0  0  0
  -27.5093  -27.1417   19.0546 C   0  0  2  0  0  0  0  0  0  0  0  0
  -35.6169  -25.5270   23.8696 C   0  0  0  0  0  0  0  0  0  0  0  0
  -32.4655  -28.5563   21.3611 C   0  0  0  0  0  0  0  0  0  0  0  0
  -26.3949  -11.1626   17.4071 C   0  0  0  0  0  0  0  0  0  0  0  0
  -33.6774  -22.5420   20.0502 C   0  0  0  0  0  0  0  0  0  0  0  0
  -24.7971  -13.7499   23.2913 C   0  0  0  0  0  0  0  0  0  0  0  0
  -26.0151  -12.0024   21.9757 C   0  0  0  0  0  0  0  0  0  0  0  0
  -23.5298  -12.1620   21.8329 C   0  0  0  0  0  0  0  0  0  0  0  0
  -25.8283  -14.5918   15.8593 C   0  0  0  0  0  0  0  0  0  0  0  0
  -30.6558  -20.8157   21.7435 C   0  0  0  0  0  0  0  0  0  0  0  0
  -31.5215  -21.3542   20.5959 C   0  0  0  0  0  0  0  0  0  0  0  0
  -29.6129  -19.8159   21.2567 C   0  0  0  0  0  0  0  0  0  1  0  0
  -24.9514  -13.9321   20.7205 C   0  0  1  0  0  0  0  0  0  0  0  0
  -25.7716  -12.5448   17.2894 C   0  0  2  0  0  0  0  0  0  0  0  0
  -32.5588  -22.3796   21.0745 C   0  0  2  0  0  0  0  0  0  0  0  0
  -24.8284  -12.9892   21.9506 C   0  0  0  0  0  0  0  0  0  0  0  0
  -25.4829  -27.4697   20.4211 N   0  0  0  0  0  0  0  0  0  0  0  0
  -26.5058  -28.0359   19.7584 N   0  0  0  0  0  0  0  0  0  0  0  0
  -24.2030  -16.2908   20.6961 N   0  0  0  0  0  0  0  0  0  0  0  0
  -29.2211  -25.3883   19.3107 N   0  0  0  0  0  0  0  0  0  0  0  0
  -27.4651  -30.1272   19.1956 N   0  0  0  0  0  0  0  0  0  0  0  0
  -23.8510  -31.2663   21.6526 N   0  0  0  0  0  0  0  0  0  0  0  0
  -31.0799  -26.2339   20.4907 N   0  0  0  0  0  0  0  0  0  0  0  0
  -31.9319  -23.6685   21.2815 N   0  0  0  0  0  0  0  0  0  0  0  0
  -22.0514  -18.5265   22.6114 N   0  0  0  0  0  0  0  0  0  0  0  0
  -24.9562  -13.2407   19.4358 N   0  0  0  0  0  0  0  0  0  0  0  0
  -26.3676  -13.2301   16.1078 N   0  3  0  0  0  0  0  0  0  0  0  0
  -25.6348  -32.0917   20.4713 O   0  0  0  0  0  0  0  0  0  0  0  0
  -23.8130  -17.0826   23.0954 O   0  0  0  0  0  0  0  0  0  0  0  0
  -22.6652  -14.5436   20.5596 O   0  0  0  0  0  0  0  0  0  0  0  0
  -27.0123  -14.0419   18.7235 O   0  0  0  0  0  0  0  0  0  0  0  0
  -31.3497  -24.6087   18.8574 O   0  0  0  0  0  0  0  0  0  0  0  0
  -20.1998  -27.7510   23.9650 O   0  0  0  0  0  0  0  0  0  0  0  0
  -28.7572  -20.4322   20.2953 O   0  0  0  0  0  0  0  0  0  1  0  0
  -15.8303  -30.9269   22.8580 F   0  0  0  0  0  0  0  0  0  0  0  0
  -17.7955  -26.6329   23.1828 F   0  0  0  0  0  0  0  0  0  0  0  0
  -34.9049  -28.4119   23.1614 Cl  0  0  0  0  0  0  0  0  0  0  0  0
  1  2  1  0  0  0  0
  1  5  2  0  0  0  0
  2  6  2  0  0  0  0
  3  8  2  0  0  0  0
  3 16  1  0  0  0  0
  4  9  1  0  0  0  0
  4 16  2  0  0  0  0
  5 18  1  0  0  0  0
  6 20  1  0  0  0  0
  7 10  2  0  0  0  0
  7 19  1  0  0  0  0
  8 26  1  0  0  0  0
  9 26  2  0  0  0  0
 10 27  1  0  0  0  0
 11 12  2  0  0  0  0
 11 28  1  0  0  0  0
 12 29  1  0  0  0  0
 13 21  1  0  0  0  0
 13 27  2  0  0  0  0
 14 22  2  0  0  0  0
 14 24  1  0  0  0  0
 15 29  2  0  0  0  0
 15 30  1  0  0  0  0
 16 32  1  0  0  0  0
 17 32  1  0  0  0  0
 17 33  2  0  0  0  0
 17 34  1  0  0  0  0
 18 20  2  0  0  0  0
 18 39  1  0  0  0  0
 19 21  2  0  0  0  0
 19 40  1  0  0  0  0
 20 48  1  0  0  0  0
 21 41  1  0  0  0  0
 22 31  1  0  0  0  0
 22 51  1  0  0  0  0
 23 25  1  0  0  0  0
 23 31  2  0  0  0  0
 23 52  1  0  0  0  0
 24 25  2  0  0  0  0
 24 73  1  0  0  0  0
 25 72  1  0  0  0  0
 26 82  1  0  0  0  0
 27 83  1  0  0  0  0
 28 30  2  0  0  0  0
 28 82  1  0  0  0  0
 29 84  1  0  0  0  0
 30 85  1  0  0  0  0
 31 86  1  0  0  0  0
 32 66  2  0  0  0  0
 33 67  1  0  0  0  0
 33 70  1  0  0  0  0
 34 71  1  0  0  0  0
 34 77  2  0  0  0  0
 35 49  1  0  0  0  0
 35 74  1  0  0  0  0
 35 78  2  0  0  0  0
 36 62  1  0  0  0  0
 36 68  1  0  0  0  0
 36 79  2  0  0  0  0
 37 63  1  0  0  0  0
 37 75  1  0  0  0  0
 37 80  2  0  0  0  0
 38 69  1  0  0  0  0
 38 72  1  0  0  0  0
 38 81  2  0  0  0  0
 39 42  1  0  0  0  0
 40 49  1  0  0  0  0
 41 68  1  0  0  0  0
 42 44  1  0  0  0  0
 43 45  1  0  0  0  0
 43 46  1  0  0  0  0
 44 48  1  0  0  0  0
 45 50  1  0  0  0  0
 46 69  1  0  0  0  0
 47 50  1  0  0  0  0
 47 69  1  0  0  0  0
 48 74  1  0  0  0  0
 49 68  1  0  0  0  0
 50 67  1  0  0  0  0
 53 63  1  0  0  0  0
 54 64  1  0  0  0  0
 55 65  1  0  0  0  0
 56 65  1  0  0  0  0
 57 65  1  0  0  0  0
 58 76  1  0  0  0  0
 59 60  1  0  0  0  0
 59 61  1  0  0  0  0
 60 64  1  0  0  0  0
 61 83  1  0  0  0  0
 62 65  1  0  0  0  0
 62 75  1  0  0  0  0
 63 76  1  0  0  0  0
 64 73  1  0  0  0  0
 66 67  1  0  0  0  0
M  CHG  1  76   1
M  ISO  4  38 100  61 101  72 100  83 101
M  END
> <Batch ID>
0017

> <Smiles>
CNC(C)C(=O)NC(C(=O)N1Cc2cc([101O:1][101CH2:1]CCC(C)Nc3cc(C)c(Cl)c(C)c3[100NH:0][100C:0](=O)N3CCCC(n4nc(-c5ccc(Oc6ccc(F)cc6F)cc5)c(C(N)=O)c4N)C3)ccc2CC1C(=O)NC1CCCc2ccccc21)C(C)(C)C

> <Shape>
0.210

> <Color>
0.070

> <Negative vol penalty>
0.000

$$$$

  -OEChem-04052316013D

 83 91  0     1  0  0  0  0  0999 V2000
  -26.6317  -34.5694   23.0235 C   0  0  0  0  0  0  0  0  0  0  0  0
  -26.8538  -33.3636   22.3662 C   0  0  0  0  0  0  0  0  0  0  0  0
  -26.6443  -12.7761   21.7112 C   0  0  0  0  0  0  0  0  0  0  0  0
  -26.1311  -14.0064   19.6963 C   0  0  0  0  0  0  0  0  0  0  0  0
  -25.6804  -34.6430   24.0402 C   0  0  0  0  0  0  0  0  0  0  0  0
  -26.1254  -32.2303   22.7259 C   0  0  0  0  0  0  0  0  0  0  0  0
  -24.4159  -29.6639   18.7089 C   0  0  0  0  0  0  0  0  0  0  0  0
  -25.3506  -12.2549   21.7225 C   0  0  0  0  0  0  0  0  0  0  0  0
  -24.8373  -13.4852   19.7076 C   0  0  0  0  0  0  0  0  0  0  0  0
  -25.3291  -28.8542   18.0349 C   0  0  0  0  0  0  0  0  0  0  0  0
  -22.2954  -10.3178   22.0809 C   0  0  0  0  0  0  0  0  0  0  0  0
  -22.1478   -8.9542   22.3342 C   0  0  0  0  0  0  0  0  0  0  0  0
  -24.4505  -26.9210   19.1794 C   0  0  0  0  0  0  0  0  0  0  0  0
  -29.5883  -22.7936   20.3786 C   0  0  0  0  0  0  0  0  0  0  0  0
  -23.4864   -8.4478   20.3877 C   0  0  0  0  0  0  0  0  0  0  0  0
  -27.0346  -13.6519   20.6981 C   0  0  0  0  0  0  0  0  0  0  0  0
  -29.5045  -13.6394   20.0601 C   0  0  0  0  0  0  0  0  0  0  0  0
  -24.9332  -33.5123   24.4059 C   0  0  0  0  0  0  0  0  0  0  0  0
  -23.5190  -29.1087   19.6329 C   0  0  0  0  0  0  0  0  0  0  0  0
  -25.1641  -32.2884   23.7493 C   0  0  0  0  0  0  0  0  0  0  0  0
  -23.5252  -27.7254   19.8619 C   0  0  0  0  0  0  0  0  0  0  0  0
  -29.1028  -23.9469   19.7622 C   0  0  0  0  0  0  0  0  0  0  0  0
  -28.5995  -23.8841   18.4629 C   0  0  0  0  0  0  0  0  0  0  0  0
  -28.5817  -22.6680   17.7798 C   0  0  0  0  0  0  0  0  0  0  0  0
  -29.5705  -21.5775   19.6955 C   0  0  0  0  0  0  0  0  0  0  0  0
  -24.4471  -12.6094   20.7207 C   0  0  0  0  0  0  0  0  0  0  0  0
  -25.3484  -27.4829   18.2722 C   0  0  0  0  0  0  0  0  0  0  0  0
  -23.0384  -10.7465   20.9810 C   0  0  0  0  0  0  0  0  0  0  0  0
  -22.7433   -8.0191   21.4876 C   0  0  0  0  0  0  0  0  0  0  0  0
  -23.6340   -9.8115   20.1344 C   0  0  0  0  0  0  0  0  0  0  0  0
  -29.0672  -21.5147   18.3962 C   0  0  0  0  0  0  0  0  0  0  0  0
  -28.3707  -14.1911   20.6861 C   0  0  0  0  0  0  0  0  0  0  0  0
  -30.5167  -14.5241   20.3415 C   0  0  0  0  0  0  0  0  0  0  0  0
  -29.6314  -12.4348   19.2929 C   0  0  0  0  0  0  0  0  0  0  0  0
  -23.0034  -29.4628   22.7494 C   0  0  0  0  0  0  0  0  0  0  0  0
  -20.4701  -27.5260   22.1543 C   0  0  0  0  0  0  0  0  0  0  0  0
  -19.0467  -25.1468   20.1644 C   0  0  0  0  0  0  0  0  0  0  0  0
  -30.5970  -20.3551   21.6445 C   0  0  0  0  0  0  0  0  0  0  0  0
  -23.9493  -33.6291   25.5431 C   0  0  0  0  0  0  0  0  0  0  0  0
  -22.5222  -29.9921   20.3319 C   0  0  0  0  0  0  0  0  0  0  0  0
  -22.5696  -27.0774   20.8290 C   0  0  0  0  0  0  0  0  0  0  0  0
  -22.9547  -32.4729   25.6092 C   0  0  0  0  0  0  0  0  0  0  0  0
  -31.8971  -17.7090   23.6408 C   0  0  0  0  0  0  0  0  0  0  0  0
  -23.6768  -31.1381   25.4553 C   0  0  0  0  0  0  0  0  0  0  0  0
  -31.2483  -16.4558   23.0488 C   0  0  0  0  0  0  0  0  0  0  0  0
  -30.9420  -18.9012   23.6300 C   0  0  0  0  0  0  0  0  0  0  0  0
  -29.6912  -17.9495   21.7329 C   0  0  0  0  0  0  0  0  0  0  0  0
  -24.3765  -31.0431   24.0940 C   0  0  1  0  0  0  0  0  0  0  0  0
  -22.0002  -29.3907   21.6332 C   0  0  1  0  0  0  0  0  0  0  0  0
  -30.6365  -16.7391   21.6627 C   0  0  2  0  0  0  0  0  0  0  0  0
  -29.1340  -25.2367   20.5154 C   0  0  0  0  0  0  0  0  0  0  0  0
  -29.1459  -22.5535   15.3395 C   0  0  0  0  0  0  0  0  0  0  0  0
  -16.9862  -23.7300   19.9540 C   0  0  0  0  0  0  0  0  0  0  0  0
  -21.4921  -25.7126   24.3853 C   0  0  0  0  0  0  0  0  0  0  0  0
  -19.9977  -23.9063   23.5067 C   0  0  0  0  0  0  0  0  0  0  0  0
  -19.0122  -26.0346   24.3562 C   0  0  0  0  0  0  0  0  0  0  0  0
  -18.3498  -26.3440   17.5491 C   0  0  0  0  0  0  0  0  0  0  0  0
  -28.0776  -25.1351   17.7990 C   0  0  0  0  0  0  0  0  0  0  0  0
  -28.0388  -22.6222   16.3847 C   0  0  0  0  0  0  0  0  0  0  0  0
  -26.6869  -25.5172   18.2940 C   0  0  0  0  0  0  0  0  0  1  0  0
  -20.2437  -26.0335   22.1482 C   0  0  1  0  0  0  0  0  0  0  0  0
  -17.6577  -25.0369   19.5619 C   0  0  2  0  0  0  0  0  0  0  0  0
  -20.2059  -25.4339   23.5823 C   0  0  0  0  0  0  0  0  0  0  0  0
  -28.6370  -15.3375   21.3177 N   0  0  0  0  0  0  0  0  0  0  0  0
  -29.9498  -15.5133   21.0901 N   0  0  0  0  0  0  0  0  0  0  0  0
  -21.6182  -27.9841   21.4925 N   0  0  0  0  0  0  0  0  0  0  0  0
  -30.4051  -19.1120   22.2838 N   0  0  0  0  0  0  0  0  0  0  0  0
  -31.8275  -14.5446   20.0193 N   0  0  0  0  0  0  0  0  0  0  0  0
  -28.4916  -11.6423   19.1001 N   0  0  0  0  0  0  0  0  0  0  0  0
  -30.0710  -20.4276   20.3551 N   0  0  0  0  0  0  0  0  0  0  0  0
  -23.4169  -30.7461   23.0522 N   0  0  0  0  0  0  0  0  0  0  0  0
  -19.0278  -25.8083   21.3741 N   0  0  0  0  0  0  0  0  0  0  0  0
  -17.7318  -25.0995   18.0747 N   0  3  0  0  0  0  0  0  0  0  0  0
  -30.7266  -12.0637   18.8068 O   0  0  0  0  0  0  0  0  0  0  0  0
  -23.3737  -28.4307   23.2965 O   0  0  0  0  0  0  0  0  0  0  0  0
  -19.6546  -28.2591   22.7192 O   0  0  0  0  0  0  0  0  0  0  0  0
  -20.0478  -24.6881   19.6185 O   0  0  0  0  0  0  0  0  0  0  0  0
  -31.2084  -21.2777   22.1896 O   0  0  0  0  0  0  0  0  0  0  0  0
  -23.1846  -12.1008   20.7313 O   0  0  0  0  0  0  0  0  0  0  0  0
  -26.2392  -26.6904   17.6162 O   0  0  0  0  0  0  0  0  0  1  0  0
  -22.6028   -6.7096   21.7319 F   0  0  0  0  0  0  0  0  0  0  0  0
  -24.3500  -10.2173   19.0769 F   0  0  0  0  0  0  0  0  0  0  0  0
  -29.0431  -20.0032   17.5459 Cl  0  0  0  0  0  0  0  0  0  0  0  0
  1  2  1  0  0  0  0
  1  5  2  0  0  0  0
  2  6  2  0  0  0  0
  3  8  2  0  0  0  0
  3 16  1  0  0  0  0
  4  9  1  0  0  0  0
  4 16  2  0  0  0  0
  5 18  1  0  0  0  0
  6 20  1  0  0  0  0
  7 10  2  0  0  0  0
  7 19  1  0  0  0  0
  8 26  1  0  0  0  0
  9 26  2  0  0  0  0
 10 27  1  0  0  0  0
 11 12  2  0  0  0  0
 11 28  1  0  0  0  0
 12 29  1  0  0  0  0
 13 21  1  0  0  0  0
 13 27  2  0  0  0  0
 14 22  2  0  0  0  0
 14 25  1  0  0  0  0
 15 29  2  0  0  0  0
 15 30  1  0  0  0  0
 16 32  1  0  0  0  0
 17 32  1  0  0  0  0
 17 33  2  0  0  0  0
 17 34  1  0  0  0  0
 18 20  2  0  0  0  0
 18 39  1  0  0  0  0
 19 21  2  0  0  0  0
 19 40  1  0  0  0  0
 20 48  1  0  0  0  0
 21 41  1  0  0  0  0
 22 23  1  0  0  0  0
 22 51  1  0  0  0  0
 23 24  2  0  0  0  0
 23 58  1  0  0  0  0
 24 31  1  0  0  0  0
 24 59  1  0  0  0  0
 25 31  2  0  0  0  0
 25 70  1  0  0  0  0
 26 79  1  0  0  0  0
 27 80  1  0  0  0  0
 28 30  2  0  0  0  0
 28 79  1  0  0  0  0
 29 81  1  0  0  0  0
 30 82  1  0  0  0  0
 31 83  1  0  0  0  0
 32 64  2  0  0  0  0
 33 65  1  0  0  0  0
 33 68  1  0  0  0  0
 34 69  1  0  0  0  0
 34 74  2  0  0  0  0
 35 49  1  0  0  0  0
 35 71  1  0  0  0  0
 35 75  2  0  0  0  0
 36 61  1  0  0  0  0
 36 66  1  0  0  0  0
 36 76  2  0  0  0  0
 37 62  1  0  0  0  0
 37 72  1  0  0  0  0
 37 77  2  0  0  0  0
 38 67  1  0  0  0  0
 38 70  1  0  0  0  0
 38 78  2  0  0  0  0
 39 42  1  0  0  0  0
 40 49  1  0  0  0  0
 41 66  1  0  0  0  0
 42 44  1  0  0  0  0
 43 45  1  0  0  0  0
 43 46  1  0  0  0  0
 44 48  1  0  0  0  0
 45 50  1  0  0  0  0
 46 67  1  0  0  0  0
 47 50  1  0  0  0  0
 47 67  1  0  0  0  0
 48 71  1  0  0  0  0
 49 66  1  0  0  0  0
 50 65  1  0  0  0  0
 52 59  1  0  0  0  0
 53 62  1  0  0  0  0
 54 63  1  0  0  0  0
 55 63  1  0  0  0  0
 56 63  1  0  0  0  0
 57 73  1  0  0  0  0
 58 60  1  0  0  0  0
 60 80  1  0  0  0  0
 61 63  1  0  0  0  0
 61 72  1  0  0  0  0
 62 73  1  0  0  0  0
 64 65  1  0  0  0  0
M  CHG  1  73   1
M  ISO  4  38 100  60 101  70 100  80 101
M  END
> <Batch ID>
0017

> <Smiles>
CCc1c(Cl)c([100NH:0][100C:0](=O)N2CCCC(n3nc(-c4ccc(Oc5ccc(F)cc5F)cc4)c(C(N)=O)c3N)C2)cc(C)c1C[101CH2:1][101O:1]c1ccc2c(c1)CN(C(=O)C(NC(=O)C(C)NC)C(C)(C)C)C(C(=O)NC1CCCc3ccccc31)C2

> <Shape>
0.331

> <Color>
0.066

> <Negative vol penalty>
0.000

$$$$

  -OEChem-04052316013D

 85 93  0     1  0  0  0  0  0999 V2000
  -29.7524  -24.2296   18.0260 C   0  0  0  0  0  0  0  0  0  0  0  0
  -28.4992  -24.3349   18.6210 C   0  0  0  0  0  0  0  0  0  0  0  0
  -29.8810  -17.4305   21.0674 C   0  0  0  0  0  0  0  0  0  0  0  0
  -28.5266  -16.1460   19.5336 C   0  0  0  0  0  0  0  0  0  0  0  0
  -30.8247  -24.9668   18.5267 C   0  0  0  0  0  0  0  0  0  0  0  0
  -28.3179  -25.1767   19.7177 C   0  0  0  0  0  0  0  0  0  0  0  0
  -24.1050  -27.9629   19.3527 C   0  0  0  0  0  0  0  0  0  0  0  0
  -30.9252  -16.5196   20.9083 C   0  0  0  0  0  0  0  0  0  0  0  0
  -29.5709  -15.2350   19.3744 C   0  0  0  0  0  0  0  0  0  0  0  0
  -22.8969  -27.3319   19.6464 C   0  0  0  0  0  0  0  0  0  0  0  0
  -31.7496  -12.3752   18.8411 C   0  0  0  0  0  0  0  0  0  0  0  0
  -31.4361  -11.0166   18.8780 C   0  0  0  0  0  0  0  0  0  0  0  0
  -22.9200  -28.3245   21.8449 C   0  0  0  0  0  0  0  0  0  0  0  0
  -18.5058  -22.0301   19.3135 C   0  0  0  0  0  0  0  0  0  0  0  0
  -30.5788  -11.2755   21.1219 C   0  0  0  0  0  0  0  0  0  0  0  0
  -28.6816  -17.2437   20.3801 C   0  0  0  0  0  0  0  0  0  0  0  0
  -27.3626  -19.3443   19.7843 C   0  0  0  0  0  0  0  0  0  0  0  0
  -30.6542  -25.8254   19.6241 C   0  0  0  0  0  0  0  0  0  0  0  0
  -24.7362  -28.7720   20.3083 C   0  0  0  0  0  0  0  0  0  0  0  0
  -29.3892  -25.9251   20.2344 C   0  0  0  0  0  0  0  0  0  0  0  0
  -24.1347  -28.9667   21.5599 C   0  0  0  0  0  0  0  0  0  0  0  0
  -18.7719  -23.2749   19.8839 C   0  0  0  0  0  0  0  0  0  0  0  0
  -19.2386  -20.9109   19.7086 C   0  0  0  0  0  0  0  0  0  0  0  0
  -19.7707  -23.4004   20.8494 C   0  0  0  0  0  0  0  0  0  0  0  0
  -20.5036  -22.2812   21.2445 C   0  0  0  0  0  0  0  0  0  0  0  0
  -20.2375  -21.0365   20.6740 C   0  0  0  0  0  0  0  0  0  0  0  0
  -30.7702  -15.4218   20.0618 C   0  0  0  0  0  0  0  0  0  0  0  0
  -22.3057  -27.5104   20.8936 C   0  0  0  0  0  0  0  0  0  0  0  0
  -31.4779  -13.1840   19.9446 C   0  0  0  0  0  0  0  0  0  0  0  0
  -30.8507  -10.4667   20.0184 C   0  0  0  0  0  0  0  0  0  0  0  0
  -30.8924  -12.6342   21.0850 C   0  0  0  0  0  0  0  0  0  0  0  0
  -27.6024  -18.1840   20.5446 C   0  0  0  0  0  0  0  0  0  0  0  0
  -26.2259  -19.8857   20.3333 C   0  0  0  0  0  0  0  0  0  0  0  0
  -28.1012  -19.8844   18.6805 C   0  0  0  0  0  0  0  0  0  0  0  0
  -27.5213  -28.6809   21.8374 C   0  0  0  0  0  0  0  0  0  0  0  0
  -26.5642  -31.5751   22.9463 C   0  0  0  0  0  0  0  0  0  0  0  0
  -23.9897  -33.7066   23.6360 C   0  0  0  0  0  0  0  0  0  0  0  0
  -21.0663  -19.3566   22.3585 C   0  0  0  0  0  0  0  0  0  0  0  0
  -31.8538  -26.5662   20.1595 C   0  0  0  0  0  0  0  0  0  0  0  0
  -26.0255  -29.4671   19.9665 C   0  0  0  0  0  0  0  0  0  0  0  0
  -24.7615  -29.8416   22.6135 C   0  0  0  0  0  0  0  0  0  0  0  0
  -31.4914  -27.7202   21.0908 C   0  0  0  0  0  0  0  0  0  0  0  0
  -23.7605  -18.7372   24.6023 C   0  0  0  0  0  0  0  0  0  0  0  0
  -30.4435  -27.2771   22.1069 C   0  0  0  0  0  0  0  0  0  0  0  0
  -24.9805  -18.6335   23.6841 C   0  0  0  0  0  0  0  0  0  0  0  0
  -22.5147  -18.1283   23.9611 C   0  0  0  0  0  0  0  0  0  0  0  0
  -23.4137  -18.5341   21.7036 C   0  0  0  0  0  0  0  0  0  0  0  0
  -29.1471  -26.8464   21.4103 C   0  0  1  0  0  0  0  0  0  0  0  0
  -26.8389  -29.8564   21.1970 C   0  0  1  0  0  0  0  0  0  0  0  0
  -24.6780  -19.1922   22.2799 C   0  0  2  0  0  0  0  0  0  0  0  0
  -17.9717  -24.4570   19.4443 C   0  0  0  0  0  0  0  0  0  0  0  0
  -21.5746  -22.4215   22.2809 C   0  0  0  0  0  0  0  0  0  0  0  0
  -23.5168  -35.9867   24.5712 C   0  0  0  0  0  0  0  0  0  0  0  0
  -17.7766  -19.7200   18.0382 C   0  0  0  0  0  0  0  0  0  0  0  0
  -18.4846  -18.5481   20.1505 C   0  0  0  0  0  0  0  0  0  0  0  0
  -20.1155  -18.9221   18.3116 C   0  0  0  0  0  0  0  0  0  0  0  0
  -27.0583  -30.5185   25.7658 C   0  0  0  0  0  0  0  0  0  0  0  0
  -25.7022  -32.4306   26.6449 C   0  0  0  0  0  0  0  0  0  0  0  0
  -27.8106  -32.8734   25.3875 C   0  0  0  0  0  0  0  0  0  0  0  0
  -22.7663  -34.6199   21.1007 C   0  0  0  0  0  0  0  0  0  0  0  0
  -20.0561  -24.7489   21.4646 C   0  0  0  0  0  0  0  0  0  0  0  0
  -20.8703  -25.6474   20.5400 C   0  0  0  0  0  0  0  0  0  1  0  0
  -25.7710  -32.0544   24.1380 C   0  0  1  0  0  0  0  0  0  0  0  0
  -23.7841  -35.1755   23.3130 C   0  0  2  0  0  0  0  0  0  0  0  0
  -18.9293  -19.5907   19.0800 C   0  0  0  0  0  0  0  0  0  0  0  0
  -26.5744  -31.9511   25.4651 C   0  0  0  0  0  0  0  0  0  0  0  0
  -26.6914  -17.9985   21.5036 N   0  0  0  0  0  0  0  0  0  0  0  0
  -25.8681  -19.0495   21.3497 N   0  0  0  0  0  0  0  0  0  0  0  0
  -26.0252  -30.4946   22.2337 N   0  0  0  0  0  0  0  0  0  0  0  0
  -22.2885  -18.7083   22.6355 N   0  0  0  0  0  0  0  0  0  0  0  0
  -25.5076  -20.9907   20.0410 N   0  0  0  0  0  0  0  0  0  0  0  0
  -29.2446  -19.2017   18.2437 N   0  0  0  0  0  0  0  0  0  0  0  0
  -20.9782  -19.8974   21.0762 N   0  0  0  0  0  0  0  0  0  0  0  0
  -28.3860  -28.0059   20.9971 N   0  0  0  0  0  0  0  0  0  0  0  0
  -25.3233  -33.4046   23.8140 N   0  0  0  0  0  0  0  0  0  0  0  0
  -22.6269  -35.3457   22.3894 N   0  3  0  0  0  0  0  0  0  0  0  0
  -27.7666  -20.9499   18.1092 O   0  0  0  0  0  0  0  0  0  0  0  0
  -27.2823  -28.4074   23.0078 O   0  0  0  0  0  0  0  0  0  0  0  0
  -27.6194  -32.1432   22.6541 O   0  0  0  0  0  0  0  0  0  0  0  0
  -23.0600  -32.9077   23.7255 O   0  0  0  0  0  0  0  0  0  0  0  0
  -20.1748  -19.4505   23.2061 O   0  0  0  0  0  0  0  0  0  0  0  0
  -31.7890  -14.5329   19.9060 O   0  0  0  0  0  0  0  0  0  0  0  0
  -21.1269  -26.8952   21.1832 O   0  0  0  0  0  0  0  0  0  1  0  0
  -30.5482   -9.1623   20.0532 F   0  0  0  0  0  0  0  0  0  0  0  0
  -30.6279  -13.4064   22.1478 F   0  0  0  0  0  0  0  0  0  0  0  0
  1  2  1  0  0  0  0
  1  5  2  0  0  0  0
  2  6  2  0  0  0  0
  3  8  2  0  0  0  0
  3 16  1  0  0  0  0
  4  9  1  0  0  0  0
  4 16  2  0  0  0  0
  5 18  1  0  0  0  0
  6 20  1  0  0  0  0
  7 10  2  0  0  0  0
  7 19  1  0  0  0  0
  8 27  1  0  0  0  0
  9 27  2  0  0  0  0
 10 28  1  0  0  0  0
 11 12  2  0  0  0  0
 11 29  1  0  0  0  0
 12 30  1  0  0  0  0
 13 21  1  0  0  0  0
 13 28  2  0  0  0  0
 14 22  2  0  0  0  0
 14 23  1  0  0  0  0
 15 30  2  0  0  0  0
 15 31  1  0  0  0  0
 16 32  1  0  0  0  0
 17 32  1  0  0  0  0
 17 33  2  0  0  0  0
 17 34  1  0  0  0  0
 18 20  2  0  0  0  0
 18 39  1  0  0  0  0
 19 21  2  0  0  0  0
 19 40  1  0  0  0  0
 20 48  1  0  0  0  0
 21 41  1  0  0  0  0
 22 24  1  0  0  0  0
 22 51  1  0  0  0  0
 23 26  2  0  0  0  0
 23 65  1  0  0  0  0
 24 25  2  0  0  0  0
 24 61  1  0  0  0  0
 25 26  1  0  0  0  0
 25 52  1  0  0  0  0
 26 73  1  0  0  0  0
 27 82  1  0  0  0  0
 28 83  1  0  0  0  0
 29 31  2  0  0  0  0
 29 82  1  0  0  0  0
 30 84  1  0  0  0  0
 31 85  1  0  0  0  0
 32 67  2  0  0  0  0
 33 68  1  0  0  0  0
 33 71  1  0  0  0  0
 34 72  1  0  0  0  0
 34 77  2  0  0  0  0
 35 49  1  0  0  0  0
 35 74  1  0  0  0  0
 35 78  2  0  0  0  0
 36 63  1  0  0  0  0
 36 69  1  0  0  0  0
 36 79  2  0  0  0  0
 37 64  1  0  0  0  0
 37 75  1  0  0  0  0
 37 80  2  0  0  0  0
 38 70  1  0  0  0  0
 38 73  1  0  0  0  0
 38 81  2  0  0  0  0
 39 42  1  0  0  0  0
 40 49  1  0  0  0  0
 41 69  1  0  0  0  0
 42 44  1  0  0  0  0
 43 45  1  0  0  0  0
 43 46  1  0  0  0  0
 44 48  1  0  0  0  0
 45 50  1  0  0  0  0
 46 70  1  0  0  0  0
 47 50  1  0  0  0  0
 47 70  1  0  0  0  0
 48 74  1  0  0  0  0
 49 69  1  0  0  0  0
 50 68  1  0  0  0  0
 53 64  1  0  0  0  0
 54 65  1  0  0  0  0
 55 65  1  0  0  0  0
 56 65  1  0  0  0  0
 57 66  1  0  0  0  0
 58 66  1  0  0  0  0
 59 66  1  0  0  0  0
 60 76  1  0  0  0  0
 61 62  1  0  0  0  0
 62 83  1  0  0  0  0
 63 66  1  0  0  0  0
 63 75  1  0  0  0  0
 64 76  1  0  0  0  0
 67 68  1  0  0  0  0
M  CHG  1  76   1
M  ISO  4  38 100  62 101  73 100  83 101
M  END
> <Batch ID>
0017

> <Smiles>
CNC(C)C(=O)NC(C(=O)N1Cc2cc([101O:1][101CH2:1]Cc3c(C)cc(C(C)(C)C)c([100NH:0][100C:0](=O)N4CCCC(n5nc(-c6ccc(Oc7ccc(F)cc7F)cc6)c(C(N)=O)c5N)C4)c3C)ccc2CC1C(=O)NC1CCCc2ccccc21)C(C)(C)C

> <Shape>
0.244

> <Color>
0.060

> <Negative vol penalty>
0.000

$$$$

  -OEChem-04052316013D

 79 87  0     1  0  0  0  0  0999 V2000
  -29.9222  -32.0707   19.0935 C   0  0  0  0  0  0  0  0  0  0  0  0
  -30.1344  -30.7839   19.5779 C   0  0  0  0  0  0  0  0  0  0  0  0
  -23.0614   -9.8558   19.8996 C   0  0  0  0  0  0  0  0  0  0  0  0
  -23.8365   -9.7890   22.1870 C   0  0  0  0  0  0  0  0  0  0  0  0
  -28.9510  -32.2960   18.1188 C   0  0  0  0  0  0  0  0  0  0  0  0
  -29.3747  -29.7219   19.0886 C   0  0  0  0  0  0  0  0  0  0  0  0
  -31.2317  -23.9467   18.2488 C   0  0  0  0  0  0  0  0  0  0  0  0
  -22.3283   -8.6886   20.1139 C   0  0  0  0  0  0  0  0  0  0  0  0
  -23.1033   -8.6218   22.4013 C   0  0  0  0  0  0  0  0  0  0  0  0
  -31.0869  -22.7935   19.0188 C   0  0  0  0  0  0  0  0  0  0  0  0
  -19.8857   -7.7773   22.9962 C   0  0  0  0  0  0  0  0  0  0  0  0
  -19.1369   -7.6904   24.1697 C   0  0  0  0  0  0  0  0  0  0  0  0
  -29.1569  -22.1708   17.7124 C   0  0  0  0  0  0  0  0  0  0  0  0
  -20.3984   -5.7386   24.8302 C   0  0  0  0  0  0  0  0  0  0  0  0
  -30.2371  -19.1266   22.5691 C   0  0  0  0  0  0  0  0  0  0  0  0
  -23.8155  -10.4060   20.9362 C   0  0  0  0  0  0  0  0  0  0  0  0
  -24.1366  -12.9364   20.9022 C   0  0  0  0  0  0  0  0  0  0  0  0
  -28.1857  -31.2347   17.6104 C   0  0  0  0  0  0  0  0  0  0  0  0
  -30.3322  -24.2266   17.2101 C   0  0  0  0  0  0  0  0  0  0  0  0
  -28.3914  -29.9335   18.1072 C   0  0  0  0  0  0  0  0  0  0  0  0
  -29.2940  -23.3269   16.9291 C   0  0  0  0  0  0  0  0  0  0  0  0
  -30.5454  -19.2727   21.2346 C   0  0  0  0  0  0  0  0  0  0  0  0
  -22.3493   -8.0717   21.3647 C   0  0  0  0  0  0  0  0  0  0  0  0
  -30.0477  -21.9068   18.7526 C   0  0  0  0  0  0  0  0  0  0  0  0
  -20.8908   -6.8448   22.7395 C   0  0  0  0  0  0  0  0  0  0  0  0
  -19.3932   -6.6711   25.0868 C   0  0  0  0  0  0  0  0  0  0  0  0
  -21.1472   -5.8255   23.6565 C   0  0  0  0  0  0  0  0  0  0  0  0
  -30.5156  -17.9826   20.6498 C   0  0  0  0  0  0  0  0  0  0  0  0
  -24.5735  -11.6113   20.7153 C   0  0  0  0  0  0  0  0  0  0  0  0
  -25.2204  -13.7070   20.5584 C   0  0  0  0  0  0  0  0  0  0  0  0
  -30.1897  -17.0875   21.6448 C   0  0  0  0  0  0  0  0  0  0  0  0
  -22.8649  -13.4270   21.3470 C   0  0  0  0  0  0  0  0  0  0  0  0
  -28.2610  -26.5605   16.6043 C   0  0  0  0  0  0  0  0  0  0  0  0
  -27.9371  -25.0095   13.7737 C   0  0  0  0  0  0  0  0  0  0  0  0
  -28.2143  -22.0961   12.0182 C   0  0  0  0  0  0  0  0  0  0  0  0
  -30.6793  -14.7900   20.7347 C   0  0  0  0  0  0  0  0  0  0  0  0
  -27.1149  -31.5348   16.5915 C   0  0  0  0  0  0  0  0  0  0  0  0
  -30.5179  -25.4614   16.3715 C   0  0  0  0  0  0  0  0  0  0  0  0
  -28.3137  -23.5711   15.8120 C   0  0  0  0  0  0  0  0  0  0  0  0
  -26.6108  -30.2964   15.8550 C   0  0  0  0  0  0  0  0  0  0  0  0
  -29.5681  -12.4515   18.2906 C   0  0  0  0  0  0  0  0  0  0  0  0
  -26.3289  -29.1669   16.8406 C   0  0  0  0  0  0  0  0  0  0  0  0
  -28.1337  -12.1334   18.7189 C   0  0  0  0  0  0  0  0  0  0  0  0
  -30.4894  -12.6455   19.4936 C   0  0  0  0  0  0  0  0  0  0  0  0
  -28.5860  -13.3059   20.9115 C   0  0  0  0  0  0  0  0  0  0  0  0
  -27.6046  -28.7516   17.5834 C   0  0  1  0  0  0  0  0  0  0  0  0
  -29.2381  -25.9051   15.6697 C   0  0  1  0  0  0  0  0  0  0  0  0
  -27.6068  -13.1660   19.7346 C   0  0  2  0  0  0  0  0  0  0  0  0
  -27.8408  -21.1305    9.7322 C   0  0  0  0  0  0  0  0  0  0  0  0
  -24.9306  -24.9539   14.2911 C   0  0  0  0  0  0  0  0  0  0  0  0
  -24.7285  -23.1973   12.5186 C   0  0  0  0  0  0  0  0  0  0  0  0
  -25.5734  -25.4693   11.9298 C   0  0  0  0  0  0  0  0  0  0  0  0
  -29.6744  -17.2413   24.0981 C   0  0  0  0  0  0  0  0  0  0  0  0
  -31.0751  -21.4002   11.7178 C   0  0  0  0  0  0  0  0  0  0  0  0
  -30.8532  -20.5704   20.5473 C   0  0  0  0  0  0  0  0  0  1  0  0
  -27.0498  -23.9032   13.2563 C   0  0  1  0  0  0  0  0  0  0  0  0
  -28.8410  -21.7879   10.6703 C   0  0  2  0  0  0  0  0  0  0  0  0
  -25.5877  -24.3770   13.0213 C   0  0  0  0  0  0  0  0  0  0  0  0
  -25.8362  -11.5404   20.2858 N   0  0  0  0  0  0  0  0  0  0  0  0
  -30.0224  -17.7941   22.8070 N   0  0  0  0  0  0  0  0  0  0  0  0
  -26.2021  -12.8306   20.2000 N   0  0  0  0  0  0  0  0  0  0  0  0
  -28.5334  -24.7955   15.0245 N   0  0  0  0  0  0  0  0  0  0  0  0
  -29.9282  -13.6405   20.4101 N   0  0  0  0  0  0  0  0  0  0  0  0
  -25.4198  -15.0418   20.5306 N   0  0  0  0  0  0  0  0  0  0  0  0
  -21.8625  -12.4985   21.6588 N   0  0  0  0  0  0  0  0  0  0  0  0
  -30.0301  -15.6806   21.5891 N   0  0  0  0  0  0  0  0  0  0  0  0
  -28.4366  -27.9248   16.7357 N   0  0  0  0  0  0  0  0  0  0  0  0
  -27.7063  -23.3771   12.0643 N   0  0  0  0  0  0  0  0  0  0  0  0
  -30.0028  -20.8696   10.8371 N   0  3  0  0  0  0  0  0  0  0  0  0
  -22.6194  -14.6529   21.4488 O   0  0  0  0  0  0  0  0  0  0  0  0
  -27.4098  -25.8790   17.1635 O   0  0  0  0  0  0  0  0  0  0  0  0
  -28.1009  -26.0231   13.0900 O   0  0  0  0  0  0  0  0  0  0  0  0
  -28.1756  -21.2805   12.9368 O   0  0  0  0  0  0  0  0  0  0  0  0
  -31.8038  -14.9841   20.2660 O   0  0  0  0  0  0  0  0  0  0  0  0
  -21.6338   -6.9329   21.5743 O   0  0  0  0  0  0  0  0  0  0  0  0
  -29.9037  -20.7808   19.5031 O   0  0  0  0  0  0  0  0  0  1  0  0
  -18.6751   -6.5887   26.2145 F   0  0  0  0  0  0  0  0  0  0  0  0
  -22.1123   -4.9274   23.4160 F   0  0  0  0  0  0  0  0  0  0  0  0
  -30.8283  -17.6364   19.0133 Cl  0  0  0  0  0  0  0  0  0  0  0  0
  1  2  1  0  0  0  0
  1  5  2  0  0  0  0
  2  6  2  0  0  0  0
  3  8  2  0  0  0  0
  3 16  1  0  0  0  0
  4  9  1  0  0  0  0
  4 16  2  0  0  0  0
  5 18  1  0  0  0  0
  6 20  1  0  0  0  0
  7 10  2  0  0  0  0
  7 19  1  0  0  0  0
  8 23  1  0  0  0  0
  9 23  2  0  0  0  0
 10 24  1  0  0  0  0
 11 12  2  0  0  0  0
 11 25  1  0  0  0  0
 12 26  1  0  0  0  0
 13 21  1  0  0  0  0
 13 24  2  0  0  0  0
 14 26  2  0  0  0  0
 14 27  1  0  0  0  0
 15 22  2  0  0  0  0
 15 60  1  0  0  0  0
 16 29  1  0  0  0  0
 17 29  1  0  0  0  0
 17 30  2  0  0  0  0
 17 32  1  0  0  0  0
 18 20  2  0  0  0  0
 18 37  1  0  0  0  0
 19 21  2  0  0  0  0
 19 38  1  0  0  0  0
 20 46  1  0  0  0  0
 21 39  1  0  0  0  0
 22 28  1  0  0  0  0
 22 55  1  0  0  0  0
 23 75  1  0  0  0  0
 24 76  1  0  0  0  0
 25 27  2  0  0  0  0
 25 75  1  0  0  0  0
 26 77  1  0  0  0  0
 27 78  1  0  0  0  0
 28 31  2  0  0  0  0
 28 79  1  0  0  0  0
 29 59  2  0  0  0  0
 30 61  1  0  0  0  0
 30 64  1  0  0  0  0
 31 60  1  0  0  0  0
 31 66  1  0  0  0  0
 32 65  1  0  0  0  0
 32 70  2  0  0  0  0
 33 47  1  0  0  0  0
 33 67  1  0  0  0  0
 33 71  2  0  0  0  0
 34 56  1  0  0  0  0
 34 62  1  0  0  0  0
 34 72  2  0  0  0  0
 35 57  1  0  0  0  0
 35 68  1  0  0  0  0
 35 73  2  0  0  0  0
 36 63  1  0  0  0  0
 36 66  1  0  0  0  0
 36 74  2  0  0  0  0
 37 40  1  0  0  0  0
 38 47  1  0  0  0  0
 39 62  1  0  0  0  0
 40 42  1  0  0  0  0
 41 43  1  0  0  0  0
 41 44  1  0  0  0  0
 42 46  1  0  0  0  0
 43 48  1  0  0  0  0
 44 63  1  0  0  0  0
 45 48  1  0  0  0  0
 45 63  1  0  0  0  0
 46 67  1  0  0  0  0
 47 62  1  0  0  0  0
 48 61  1  0  0  0  0
 49 57  1  0  0  0  0
 50 58  1  0  0  0  0
 51 58  1  0  0  0  0
 52 58  1  0  0  0  0
 53 60  1  0  0  0  0
 54 69  1  0  0  0  0
 55 76  1  0  0  0  0
 56 58  1  0  0  0  0
 56 68  1  0  0  0  0
 57 69  1  0  0  0  0
 59 61  1  0  0  0  0
M  CHG  1  69   1
M  ISO  4  36 100  55 101  66 100  76 101
M  END
> <Batch ID>
0017

> <Smiles>
CNC(C)C(=O)NC(C(=O)N1Cc2cc([101O:1][101CH2:1]c3cn(C)c([100NH:0][100C:0](=O)N4CCCC(n5nc(-c6ccc(Oc7ccc(F)cc7F)cc6)c(C(N)=O)c5N)C4)c3Cl)ccc2CC1C(=O)NC1CCCc2ccccc21)C(C)(C)C

> <Shape>
0.227

> <Color>
0.212

> <Negative vol penalty>
0.000

$$$$

  -OEChem-04052316013D

 82 90  0     1  0  0  0  0  0999 V2000
  -22.3218  -28.4857   18.4648 C   0  0  0  0  0  0  0  0  0  0  0  0
  -22.9249  -27.4027   19.0961 C   0  0  0  0  0  0  0  0  0  0  0  0
  -22.9944   -9.9033   19.9868 C   0  0  0  0  0  0  0  0  0  0  0  0
  -23.7604   -9.9372   22.2779 C   0  0  0  0  0  0  0  0  0  0  0  0
  -20.9314  -28.5696   18.4033 C   0  0  0  0  0  0  0  0  0  0  0  0
  -22.1380  -26.4033   19.6674 C   0  0  0  0  0  0  0  0  0  0  0  0
  -23.8091  -21.7502   18.5715 C   0  0  0  0  0  0  0  0  0  0  0  0
  -30.0682  -18.6123   23.1501 C   0  0  0  0  0  0  0  0  0  0  0  0
  -22.2352   -8.7650   20.2574 C   0  0  0  0  0  0  0  0  0  0  0  0
  -23.0010   -8.7988   22.5485 C   0  0  0  0  0  0  0  0  0  0  0  0
  -24.9097  -21.2835   19.2889 C   0  0  0  0  0  0  0  0  0  0  0  0
  -21.5476   -5.6927   23.7526 C   0  0  0  0  0  0  0  0  0  0  0  0
  -22.1491   -4.6721   24.4890 C   0  0  0  0  0  0  0  0  0  0  0  0
  -29.2854  -19.6589   23.6372 C   0  0  0  0  0  0  0  0  0  0  0  0
  -23.4345  -20.0166   20.7164 C   0  0  0  0  0  0  0  0  0  0  0  0
  -23.8460   -4.4425   22.7845 C   0  0  0  0  0  0  0  0  0  0  0  0
  -23.7571  -10.4894   20.9970 C   0  0  0  0  0  0  0  0  0  0  0  0
  -24.1340  -13.0072   20.8348 C   0  0  0  0  0  0  0  0  0  0  0  0
  -20.1271  -27.5658   18.9657 C   0  0  0  0  0  0  0  0  0  0  0  0
  -22.5099  -21.3615   18.9286 C   0  0  0  0  0  0  0  0  0  0  0  0
  -20.7355  -26.4745   19.6146 C   0  0  0  0  0  0  0  0  0  0  0  0
  -22.3192  -20.4777   20.0003 C   0  0  0  0  0  0  0  0  0  0  0  0
  -29.8811  -18.1489   21.8478 C   0  0  0  0  0  0  0  0  0  0  0  0
  -28.1282  -19.7789   21.5198 C   0  0  0  0  0  0  0  0  0  0  0  0
  -22.2384   -8.2127   21.5382 C   0  0  0  0  0  0  0  0  0  0  0  0
  -24.7223  -20.4189   20.3633 C   0  0  0  0  0  0  0  0  0  0  0  0
  -22.0953   -6.0882   22.5322 C   0  0  0  0  0  0  0  0  0  0  0  0
  -23.2983   -4.0470   24.0050 C   0  0  0  0  0  0  0  0  0  0  0  0
  -23.2444   -5.4631   22.0482 C   0  0  0  0  0  0  0  0  0  0  0  0
  -28.3154  -20.2422   22.8221 C   0  0  0  0  0  0  0  0  0  0  0  0
  -28.9111  -18.7323   21.0326 C   0  0  0  0  0  0  0  0  0  0  0  0
  -24.5421  -11.6650   20.7180 C   0  0  0  0  0  0  0  0  0  0  0  0
  -25.2356  -13.7352   20.4567 C   0  0  0  0  0  0  0  0  0  0  0  0
  -22.8719  -13.5476   21.2483 C   0  0  0  0  0  0  0  0  0  0  0  0
  -19.9074  -22.8873   19.9299 C   0  0  0  0  0  0  0  0  0  0  0  0
  -30.7537  -14.6149   20.7132 C   0  0  0  0  0  0  0  0  0  0  0  0
  -18.5483  -19.9573   19.6297 C   0  0  0  0  0  0  0  0  0  0  0  0
  -18.9546  -16.5699   19.5458 C   0  0  0  0  0  0  0  0  0  0  0  0
  -18.6280  -27.7239   18.9158 C   0  0  0  0  0  0  0  0  0  0  0  0
  -21.3351  -21.8526   18.1280 C   0  0  0  0  0  0  0  0  0  0  0  0
  -20.9464  -20.0141   20.4114 C   0  0  0  0  0  0  0  0  0  0  0  0
  -17.8692  -26.4342   19.2179 C   0  0  0  0  0  0  0  0  0  0  0  0
  -29.5503  -12.2945   18.2623 C   0  0  0  0  0  0  0  0  0  0  0  0
  -18.4506  -25.7489   20.4504 C   0  0  0  0  0  0  0  0  0  0  0  0
  -28.1168  -12.0110   18.7096 C   0  0  0  0  0  0  0  0  0  0  0  0
  -30.4767  -12.5037   19.4560 C   0  0  0  0  0  0  0  0  0  0  0  0
  -28.5875  -13.2880   20.8480 C   0  0  0  0  0  0  0  0  0  0  0  0
  -19.9161  -25.3579   20.2245 C   0  0  1  0  0  0  0  0  0  0  0  0
  -20.0208  -21.7985   18.9008 C   0  0  1  0  0  0  0  0  0  0  0  0
  -27.6125  -13.1008   19.6722 C   0  0  2  0  0  0  0  0  0  0  0  0
  -30.3945  -15.1880   23.0791 C   0  0  0  0  0  0  0  0  0  0  0  0
  -17.6546  -14.4348   19.3255 C   0  0  0  0  0  0  0  0  0  0  0  0
  -17.6016  -20.2386   22.5166 C   0  0  0  0  0  0  0  0  0  0  0  0
  -17.1672  -17.7731   22.5411 C   0  0  0  0  0  0  0  0  0  0  0  0
  -15.9177  -19.2422   20.9590 C   0  0  0  0  0  0  0  0  0  0  0  0
  -20.3906  -15.8151   17.0705 C   0  0  0  0  0  0  0  0  0  0  0  0
  -30.7433  -17.0252   21.3695 C   0  0  0  0  0  0  0  0  0  0  0  0
  -27.0835  -20.4100   20.6470 C   0  0  0  0  0  0  0  0  0  1  0  0
  -30.1421  -15.6330   21.6424 C   0  0  1  0  0  0  0  0  0  0  0  0
  -18.3647  -18.7657   20.5382 C   0  0  1  0  0  0  0  0  0  0  0  0
  -18.4294  -15.5158   18.5880 C   0  0  2  0  0  0  0  0  0  0  0  0
  -17.2887  -19.0150   21.6324 C   0  0  0  0  0  0  0  0  0  0  0  0
  -25.8044  -11.5445   20.2983 N   0  0  0  0  0  0  0  0  0  0  0  0
  -26.1989  -12.8204   20.1480 N   0  0  0  0  0  0  0  0  0  0  0  0
  -19.8291  -20.5270   19.6014 N   0  0  0  0  0  0  0  0  0  0  0  0
  -29.9514  -13.5305   20.3578 N   0  0  0  0  0  0  0  0  0  0  0  0
  -25.4644  -15.0622   20.3614 N   0  0  0  0  0  0  0  0  0  0  0  0
  -21.8483  -12.6584   21.6028 N   0  0  0  0  0  0  0  0  0  0  0  0
  -20.0010  -24.1644   19.4105 N   0  0  0  0  0  0  0  0  0  0  0  0
  -18.0806  -17.6293   19.6686 N   0  0  0  0  0  0  0  0  0  0  0  0
  -19.5575  -14.8707   17.8585 N   0  3  0  0  0  0  0  0  0  0  0  0
  -22.6531  -14.7822   21.2860 O   0  0  0  0  0  0  0  0  0  0  0  0
  -19.7454  -22.5908   21.1079 O   0  0  0  0  0  0  0  0  0  0  0  0
  -31.9091  -14.7817   20.3139 O   0  0  0  0  0  0  0  0  0  0  0  0
  -17.5923  -20.3631   18.9640 O   0  0  0  0  0  0  0  0  0  0  0  0
  -20.0307  -16.4624   20.1298 O   0  0  0  0  0  0  0  0  0  0  0  0
  -21.4974   -7.1021   21.8027 O   0  0  0  0  0  0  0  0  0  0  0  0
  -25.7948  -19.9624   21.0656 O   0  0  0  0  0  0  0  0  0  1  0  0
  -23.8767   -3.0680   24.7129 F   0  0  0  0  0  0  0  0  0  0  0  0
  -23.7758   -5.8394   20.8770 F   0  0  0  0  0  0  0  0  0  0  0  0
  -27.3691  -21.5353   23.4664 Cl  0  0  0  0  0  0  0  0  0  0  0  0
  -28.6836  -18.1519   19.4159 Cl  0  0  0  0  0  0  0  0  0  0  0  0
  1  2  1  0  0  0  0
  1  5  2  0  0  0  0
  2  6  2  0  0  0  0
  3  9  2  0  0  0  0
  3 17  1  0  0  0  0
  4 10  1  0  0  0  0
  4 17  2  0  0  0  0
  5 19  1  0  0  0  0
  6 21  1  0  0  0  0
  7 11  2  0  0  0  0
  7 20  1  0  0  0  0
  8 14  1  0  0  0  0
  8 23  2  0  0  0  0
  9 25  1  0  0  0  0
 10 25  2  0  0  0  0
 11 26  1  0  0  0  0
 12 13  2  0  0  0  0
 12 27  1  0  0  0  0
 13 28  1  0  0  0  0
 14 30  2  0  0  0  0
 15 22  1  0  0  0  0
 15 26  2  0  0  0  0
 16 28  2  0  0  0  0
 16 29  1  0  0  0  0
 17 32  1  0  0  0  0
 18 32  1  0  0  0  0
 18 33  2  0  0  0  0
 18 34  1  0  0  0  0
 19 21  2  0  0  0  0
 19 39  1  0  0  0  0
 20 22  2  0  0  0  0
 20 40  1  0  0  0  0
 21 48  1  0  0  0  0
 22 41  1  0  0  0  0
 23 31  1  0  0  0  0
 23 57  1  0  0  0  0
 24 30  1  0  0  0  0
 24 31  2  0  0  0  0
 24 58  1  0  0  0  0
 25 77  1  0  0  0  0
 26 78  1  0  0  0  0
 27 29  2  0  0  0  0
 27 77  1  0  0  0  0
 28 79  1  0  0  0  0
 29 80  1  0  0  0  0
 30 81  1  0  0  0  0
 31 82  1  0  0  0  0
 32 63  2  0  0  0  0
 33 64  1  0  0  0  0
 33 67  1  0  0  0  0
 34 68  1  0  0  0  0
 34 72  2  0  0  0  0
 35 49  1  0  0  0  0
 35 69  1  0  0  0  0
 35 73  2  0  0  0  0
 36 59  1  0  0  0  0
 36 66  1  0  0  0  0
 36 74  2  0  0  0  0
 37 60  1  0  0  0  0
 37 65  1  0  0  0  0
 37 75  2  0  0  0  0
 38 61  1  0  0  0  0
 38 70  1  0  0  0  0
 38 76  2  0  0  0  0
 39 42  1  0  0  0  0
 40 49  1  0  0  0  0
 41 65  1  0  0  0  0
 42 44  1  0  0  0  0
 43 45  1  0  0  0  0
 43 46  1  0  0  0  0
 44 48  1  0  0  0  0
 45 50  1  0  0  0  0
 46 66  1  0  0  0  0
 47 50  1  0  0  0  0
 47 66  1  0  0  0  0
 48 69  1  0  0  0  0
 49 65  1  0  0  0  0
 50 64  1  0  0  0  0
 51 59  1  0  0  0  0
 52 61  1  0  0  0  0
 53 62  1  0  0  0  0
 54 62  1  0  0  0  0
 55 62  1  0  0  0  0
 56 71  1  0  0  0  0
 57 59  1  0  0  0  0
 58 78  1  0  0  0  0
 60 62  1  0  0  0  0
 60 70  1  0  0  0  0
 61 71  1  0  0  0  0
 63 64  1  0  0  0  0
M  CHG  1  71   1
M  ISO  4  36 100  58 101  59 100  78 101
M  END
> <Batch ID>
0017

> <Smiles>
CNC(C)C(=O)NC(C(=O)N1Cc2cc([101O:1][101CH2:1]c3c(Cl)ccc(C[100CH:0](C)[100C:0](=O)N4CCCC(n5nc(-c6ccc(Oc7ccc(F)cc7F)cc6)c(C(N)=O)c5N)C4)c3Cl)ccc2CC1C(=O)NC1CCCc2ccccc21)C(C)(C)C

> <Shape>
0.211

> <Color>
0.205

> <Negative vol penalty>
0.000

$$$$

  -OEChem-04052316013D

 84 92  0     1  0  0  0  0  0999 V2000
  -28.4942  -12.5875   36.4668 C   0  0  0  0  0  0  0  0  0  0  0  0
  -28.9807  -13.3218   35.3900 C   0  0  0  0  0  0  0  0  0  0  0  0
  -23.0756   -9.8686   19.9402 C   0  0  0  0  0  0  0  0  0  0  0  0
  -23.8355   -9.8744   22.2336 C   0  0  0  0  0  0  0  0  0  0  0  0
  -27.4719  -11.6598   36.2715 C   0  0  0  0  0  0  0  0  0  0  0  0
  -28.4458  -13.1280   34.1169 C   0  0  0  0  0  0  0  0  0  0  0  0
  -27.6665  -17.3677   29.7668 C   0  0  0  0  0  0  0  0  0  0  0  0
  -22.3314   -8.7155   20.1896 C   0  0  0  0  0  0  0  0  0  0  0  0
  -23.0912   -8.7213   22.4831 C   0  0  0  0  0  0  0  0  0  0  0  0
  -28.4206  -17.7105   28.6453 C   0  0  0  0  0  0  0  0  0  0  0  0
  -21.1054   -5.9843   23.8185 C   0  0  0  0  0  0  0  0  0  0  0  0
  -20.3491   -5.9404   24.9897 C   0  0  0  0  0  0  0  0  0  0  0  0
  -27.0118  -16.3095   27.2772 C   0  0  0  0  0  0  0  0  0  0  0  0
  -31.8597  -18.3542   24.2027 C   0  0  0  0  0  0  0  0  0  0  0  0
  -32.0650  -16.6042   22.5498 C   0  0  0  0  0  0  0  0  0  0  0  0
  -19.1051   -7.8784   24.2589 C   0  0  0  0  0  0  0  0  0  0  0  0
  -23.8277  -10.4480   20.9621 C   0  0  0  0  0  0  0  0  0  0  0  0
  -24.1703  -12.9731   20.8432 C   0  0  0  0  0  0  0  0  0  0  0  0
  -26.9176  -11.4615   34.9971 C   0  0  0  0  0  0  0  0  0  0  0  0
  -26.5843  -16.4831   29.6535 C   0  0  0  0  0  0  0  0  0  0  0  0
  -27.4160  -12.1958   33.9041 C   0  0  0  0  0  0  0  0  0  0  0  0
  -26.2440  -15.9590   28.3983 C   0  0  0  0  0  0  0  0  0  0  0  0
  -32.6553  -17.4869   23.4542 C   0  0  0  0  0  0  0  0  0  0  0  0
  -30.4736  -18.3389   24.0468 C   0  0  0  0  0  0  0  0  0  0  0  0
  -30.6789  -16.5889   22.3938 C   0  0  0  0  0  0  0  0  0  0  0  0
  -22.3392   -8.1419   21.4611 C   0  0  0  0  0  0  0  0  0  0  0  0
  -28.0951  -17.1792   27.4008 C   0  0  0  0  0  0  0  0  0  0  0  0
  -20.8617   -6.9752   22.8675 C   0  0  0  0  0  0  0  0  0  0  0  0
  -19.3490   -6.8874   25.2098 C   0  0  0  0  0  0  0  0  0  0  0  0
  -19.8615   -7.9222   23.0877 C   0  0  0  0  0  0  0  0  0  0  0  0
  -29.8832  -17.4562   23.1424 C   0  0  0  0  0  0  0  0  0  0  0  0
  -24.5971  -11.6387   20.7049 C   0  0  0  0  0  0  0  0  0  0  0  0
  -25.2627  -13.7224   20.4802 C   0  0  0  0  0  0  0  0  0  0  0  0
  -22.9000  -13.4891   21.2623 C   0  0  0  0  0  0  0  0  0  0  0  0
  -25.8868  -13.6261   30.8596 C   0  0  0  0  0  0  0  0  0  0  0  0
  -23.0334  -14.1407   29.4052 C   0  0  0  0  0  0  0  0  0  0  0  0
  -21.2759  -15.7460   26.9595 C   0  0  0  0  0  0  0  0  0  0  0  0
  -30.7292  -14.7663   20.6555 C   0  0  0  0  0  0  0  0  0  0  0  0
  -25.8465  -10.4135   34.8264 C   0  0  0  0  0  0  0  0  0  0  0  0
  -25.7644  -16.1442   30.8682 C   0  0  0  0  0  0  0  0  0  0  0  0
  -25.0792  -15.0210   28.2199 C   0  0  0  0  0  0  0  0  0  0  0  0
  -25.0768  -10.5374   33.5139 C   0  0  0  0  0  0  0  0  0  0  0  0
  -29.6141  -12.3537   18.2862 C   0  0  0  0  0  0  0  0  0  0  0  0
  -26.0393  -10.7373   32.3475 C   0  0  0  0  0  0  0  0  0  0  0  0
  -28.1744  -12.0624   18.7156 C   0  0  0  0  0  0  0  0  0  0  0  0
  -30.5293  -12.5818   19.4880 C   0  0  0  0  0  0  0  0  0  0  0  0
  -28.6225  -13.3063   20.8695 C   0  0  0  0  0  0  0  0  0  0  0  0
  -26.8446  -12.0318   32.5124 C   0  0  1  0  0  0  0  0  0  0  0  0
  -25.0000  -14.8317   30.7259 C   0  0  1  0  0  0  0  0  0  0  0  0
  -27.6496  -13.1338   19.6916 C   0  0  2  0  0  0  0  0  0  0  0  0
  -18.9675  -15.9351   25.9936 C   0  0  0  0  0  0  0  0  0  0  0  0
  -23.3936  -11.4447   28.0226 C   0  0  0  0  0  0  0  0  0  0  0  0
  -21.6017  -12.1126   26.4066 C   0  0  0  0  0  0  0  0  0  0  0  0
  -21.0723  -11.8986   28.8348 C   0  0  0  0  0  0  0  0  0  0  0  0
  -21.1200  -18.6319   27.5969 C   0  0  0  0  0  0  0  0  0  0  0  0
  -29.6158  -19.2789   24.8586 C   0  0  0  0  0  0  0  0  0  0  0  0
  -29.4354  -18.8037   26.2962 C   0  0  0  0  0  0  0  0  0  1  0  0
  -22.4635  -13.8532   28.0371 C   0  0  1  0  0  0  0  0  0  0  0  0
  -19.9605  -16.5028   26.9959 C   0  0  2  0  0  0  0  0  0  0  0  0
  -34.1373  -17.5033   23.6210 C   0  0  0  0  0  0  0  0  0  0  0  0
  -22.1560  -12.3434   27.8286 C   0  0  0  0  0  0  0  0  0  0  0  0
  -25.8620  -11.5427   20.2866 N   0  0  0  0  0  0  0  0  0  0  0  0
  -26.2393  -12.8262   20.1588 N   0  0  0  0  0  0  0  0  0  0  0  0
  -24.3120  -14.7150   29.4386 N   0  0  0  0  0  0  0  0  0  0  0  0
  -29.9706  -13.6124   20.3657 N   0  0  0  0  0  0  0  0  0  0  0  0
  -25.4735  -15.0538   20.4078 N   0  0  0  0  0  0  0  0  0  0  0  0
  -21.8878  -12.5801   21.5991 N   0  0  0  0  0  0  0  0  0  0  0  0
  -30.0820  -15.6912   21.4742 N   0  0  0  0  0  0  0  0  0  0  0  0
  -26.0359  -13.1787   32.1585 N   0  0  0  0  0  0  0  0  0  0  0  0
  -21.3039  -14.7255   27.8864 N   0  0  0  0  0  0  0  0  0  0  0  0
  -20.1814  -17.9413   26.6754 N   0  3  0  0  0  0  0  0  0  0  0  0
  -22.6641  -14.7197   21.3201 O   0  0  0  0  0  0  0  0  0  0  0  0
  -26.3967  -13.1371   29.8584 O   0  0  0  0  0  0  0  0  0  0  0  0
  -22.3656  -13.8725   30.4071 O   0  0  0  0  0  0  0  0  0  0  0  0
  -22.1861  -16.0292   26.1837 O   0  0  0  0  0  0  0  0  0  0  0  0
  -31.8583  -14.9348   20.1880 O   0  0  0  0  0  0  0  0  0  0  0  0
  -21.6129   -7.0169   21.7049 O   0  0  0  0  0  0  0  0  0  0  0  0
  -28.8298  -17.5116   26.3047 O   0  0  0  0  0  0  0  0  0  1  0  0
  -18.6217   -6.8443   26.3339 F   0  0  0  0  0  0  0  0  0  0  0  0
  -19.6219   -8.8759   22.1772 F   0  0  0  0  0  0  0  0  0  0  0  0
  -28.5499  -17.4430   22.9938 F   0  0  0  0  0  0  0  0  0  0  0  0
  -34.5749  -18.4159   24.5384 F   0  0  0  0  0  0  0  0  0  0  0  0
  -34.6544  -16.3082   24.0332 F   0  0  0  0  0  0  0  0  0  0  0  0
  -34.7928  -17.8058   22.4626 F   0  0  0  0  0  0  0  0  0  0  0  0
  1  2  1  0  0  0  0
  1  5  2  0  0  0  0
  2  6  2  0  0  0  0
  3  8  2  0  0  0  0
  3 17  1  0  0  0  0
  4  9  1  0  0  0  0
  4 17  2  0  0  0  0
  5 19  1  0  0  0  0
  6 21  1  0  0  0  0
  7 10  2  0  0  0  0
  7 20  1  0  0  0  0
  8 26  1  0  0  0  0
  9 26  2  0  0  0  0
 10 27  1  0  0  0  0
 11 12  2  0  0  0  0
 11 28  1  0  0  0  0
 12 29  1  0  0  0  0
 13 22  1  0  0  0  0
 13 27  2  0  0  0  0
 14 23  2  0  0  0  0
 14 24  1  0  0  0  0
 15 23  1  0  0  0  0
 15 25  2  0  0  0  0
 16 29  2  0  0  0  0
 16 30  1  0  0  0  0
 17 32  1  0  0  0  0
 18 32  1  0  0  0  0
 18 33  2  0  0  0  0
 18 34  1  0  0  0  0
 19 21  2  0  0  0  0
 19 39  1  0  0  0  0
 20 22  2  0  0  0  0
 20 40  1  0  0  0  0
 21 48  1  0  0  0  0
 22 41  1  0  0  0  0
 23 60  1  0  0  0  0
 24 31  2  0  0  0  0
 24 56  1  0  0  0  0
 25 31  1  0  0  0  0
 25 68  1  0  0  0  0
 26 77  1  0  0  0  0
 27 78  1  0  0  0  0
 28 30  2  0  0  0  0
 28 77  1  0  0  0  0
 29 79  1  0  0  0  0
 30 80  1  0  0  0  0
 31 81  1  0  0  0  0
 32 62  2  0  0  0  0
 33 63  1  0  0  0  0
 33 66  1  0  0  0  0
 34 67  1  0  0  0  0
 34 72  2  0  0  0  0
 35 49  1  0  0  0  0
 35 69  1  0  0  0  0
 35 73  2  0  0  0  0
 36 58  1  0  0  0  0
 36 64  1  0  0  0  0
 36 74  2  0  0  0  0
 37 59  1  0  0  0  0
 37 70  1  0  0  0  0
 37 75  2  0  0  0  0
 38 65  1  0  0  0  0
 38 68  1  0  0  0  0
 38 76  2  0  0  0  0
 39 42  1  0  0  0  0
 40 49  1  0  0  0  0
 41 64  1  0  0  0  0
 42 44  1  0  0  0  0
 43 45  1  0  0  0  0
 43 46  1  0  0  0  0
 44 48  1  0  0  0  0
 45 50  1  0  0  0  0
 46 65  1  0  0  0  0
 47 50  1  0  0  0  0
 47 65  1  0  0  0  0
 48 69  1  0  0  0  0
 49 64  1  0  0  0  0
 50 63  1  0  0  0  0
 51 59  1  0  0  0  0
 52 61  1  0  0  0  0
 53 61  1  0  0  0  0
 54 61  1  0  0  0  0
 55 71  1  0  0  0  0
 56 57  1  0  0  0  0
 57 78  1  0  0  0  0
 58 61  1  0  0  0  0
 58 70  1  0  0  0  0
 59 71  1  0  0  0  0
 60 82  1  0  0  0  0
 60 83  1  0  0  0  0
 60 84  1  0  0  0  0
 62 63  1  0  0  0  0
M  CHG  1  71   1
M  ISO  4  38 100  57 101  68 100  78 101
M  END
> <Batch ID>
0017

> <Smiles>
CNC(C)C(=O)NC(C(=O)N1Cc2cc([101O:1][101CH2:1]Cc3cc(C(F)(F)F)cc([100NH:0][100C:0](=O)N4CCCC(n5nc(-c6ccc(Oc7ccc(F)cc7F)cc6)c(C(N)=O)c5N)C4)c3F)ccc2CC1C(=O)NC1CCCc2ccccc21)C(C)(C)C

> <Shape>
0.162

> <Color>
0.200

> <Negative vol penalty>
0.000

$$$$

  -OEChem-04052316013D

 81 89  0     1  0  0  0  0  0999 V2000
  -28.1496  -37.0333   21.2706 C   0  0  0  0  0  0  0  0  0  0  0  0
  -28.5492  -35.7141   21.0823 C   0  0  0  0  0  0  0  0  0  0  0  0
  -26.8721  -12.7094   21.7983 C   0  0  0  0  0  0  0  0  0  0  0  0
  -26.2247  -14.3159   20.1140 C   0  0  0  0  0  0  0  0  0  0  0  0
  -27.0352  -37.3170   22.0589 C   0  0  0  0  0  0  0  0  0  0  0  0
  -27.8352  -34.6779   21.6831 C   0  0  0  0  0  0  0  0  0  0  0  0
  -26.8478  -29.0810   19.4014 C   0  0  0  0  0  0  0  0  0  0  0  0
  -25.5543  -12.2588   21.8751 C   0  0  0  0  0  0  0  0  0  0  0  0
  -24.9068  -13.8653   20.1908 C   0  0  0  0  0  0  0  0  0  0  0  0
  -27.4724  -27.8543   19.6226 C   0  0  0  0  0  0  0  0  0  0  0  0
  -22.4296  -10.4401   22.2541 C   0  0  0  0  0  0  0  0  0  0  0  0
  -22.2157   -9.0619   22.2760 C   0  0  0  0  0  0  0  0  0  0  0  0
  -25.7800  -27.2924   21.2472 C   0  0  0  0  0  0  0  0  0  0  0  0
  -30.3461  -22.6446   21.9249 C   0  0  0  0  0  0  0  0  0  0  0  0
  -23.2894   -8.8611   20.1210 C   0  0  0  0  0  0  0  0  0  0  0  0
  -27.2073  -13.7380   20.9178 C   0  0  0  0  0  0  0  0  0  0  0  0
  -29.5834  -13.7238   19.9897 C   0  0  0  0  0  0  0  0  0  0  0  0
  -26.3014  -36.2832   22.6618 C   0  0  0  0  0  0  0  0  0  0  0  0
  -25.6888  -29.4277   20.1107 C   0  0  0  0  0  0  0  0  0  0  0  0
  -26.7107  -34.9482   22.4813 C   0  0  0  0  0  0  0  0  0  0  0  0
  -25.1412  -28.5230   21.0314 C   0  0  0  0  0  0  0  0  0  0  0  0
  -29.8771  -23.9145   21.5888 C   0  0  0  0  0  0  0  0  0  0  0  0
  -29.2285  -24.1186   20.3708 C   0  0  0  0  0  0  0  0  0  0  0  0
  -29.0490  -23.0528   19.4890 C   0  0  0  0  0  0  0  0  0  0  0  0
  -30.1666  -21.5788   21.0431 C   0  0  0  0  0  0  0  0  0  0  0  0
  -24.5716  -12.8367   21.0713 C   0  0  0  0  0  0  0  0  0  0  0  0
  -26.9402  -26.9610   20.5477 C   0  0  0  0  0  0  0  0  0  0  0  0
  -23.0733  -11.0288   21.1657 C   0  0  0  0  0  0  0  0  0  0  0  0
  -22.6456   -8.2724   21.2095 C   0  0  0  0  0  0  0  0  0  0  0  0
  -23.5033  -10.2393   20.0992 C   0  0  0  0  0  0  0  0  0  0  0  0
  -29.5180  -21.7829   19.8252 C   0  0  0  0  0  0  0  0  0  0  0  0
  -28.5683  -14.2043   20.8385 C   0  0  0  0  0  0  0  0  0  0  0  0
  -30.6804  -14.4905   20.2981 C   0  0  0  0  0  0  0  0  0  0  0  0
  -29.5387  -12.6779   19.0099 C   0  0  0  0  0  0  0  0  0  0  0  0
  -24.9174  -31.7338   22.1577 C   0  0  0  0  0  0  0  0  0  0  0  0
  -21.9500  -30.4533   21.8791 C   0  0  0  0  0  0  0  0  0  0  0  0
  -20.0259  -27.7351   21.1337 C   0  0  0  0  0  0  0  0  0  0  0  0
  -31.3159  -19.9673   22.6015 C   0  0  0  0  0  0  0  0  0  0  0  0
  -25.1318  -36.6420   23.5439 C   0  0  0  0  0  0  0  0  0  0  0  0
  -25.0120  -30.7437   19.8411 C   0  0  0  0  0  0  0  0  0  0  0  0
  -23.8875  -28.8389   21.8038 C   0  0  0  0  0  0  0  0  0  0  0  0
  -24.2078  -35.4634   23.8395 C   0  0  0  0  0  0  0  0  0  0  0  0
  -32.6415  -16.9365   23.9183 C   0  0  0  0  0  0  0  0  0  0  0  0
  -25.0200  -34.2346   24.2357 C   0  0  0  0  0  0  0  0  0  0  0  0
  -31.8440  -15.8481   23.1962 C   0  0  0  0  0  0  0  0  0  0  0  0
  -31.7774  -18.1550   24.2379 C   0  0  0  0  0  0  0  0  0  0  0  0
  -30.2586  -17.6341   22.3694 C   0  0  0  0  0  0  0  0  0  0  0  0
  -25.9473  -33.7952   23.0961 C   0  0  1  0  0  0  0  0  0  0  0  0
  -24.1265  -31.2073   20.9937 C   0  0  1  0  0  0  0  0  0  0  0  0
  -31.1027  -16.4132   21.9687 C   0  0  2  0  0  0  0  0  0  0  0  0
  -30.0829  -25.0391   22.5505 C   0  0  0  0  0  0  0  0  0  0  0  0
  -28.3518  -23.2933   18.1855 C   0  0  0  0  0  0  0  0  0  0  0  0
  -17.6341  -26.9824   21.0338 C   0  0  0  0  0  0  0  0  0  0  0  0
  -21.8924  -30.2406   24.9224 C   0  0  0  0  0  0  0  0  0  0  0  0
  -19.9649  -28.6576   24.7056 C   0  0  0  0  0  0  0  0  0  0  0  0
  -19.7469  -31.0047   23.8892 C   0  0  0  0  0  0  0  0  0  0  0  0
  -20.2023  -27.1740   18.2332 C   0  0  0  0  0  0  0  0  0  0  0  0
  -28.7280  -25.4869   20.0123 C   0  0  0  0  0  0  0  0  0  1  0  0
  -21.1808  -29.3712   22.5978 C   0  0  1  0  0  0  0  0  0  0  0  0
  -18.7962  -27.5813   20.2570 C   0  0  2  0  0  0  0  0  0  0  0  0
  -20.7210  -29.8131   24.0158 C   0  0  0  0  0  0  0  0  0  0  0  0
  -28.9835  -15.1992   21.6270 N   0  0  0  0  0  0  0  0  0  0  0  0
  -30.2718  -15.3500   21.2751 N   0  0  0  0  0  0  0  0  0  0  0  0
  -23.2660  -30.1408   21.5097 N   0  0  0  0  0  0  0  0  0  0  0  0
  -31.1096  -18.6380   23.0272 N   0  0  0  0  0  0  0  0  0  0  0  0
  -31.9452  -14.5066   19.8263 N   0  0  0  0  0  0  0  0  0  0  0  0
  -28.3316  -11.9914   18.8202 N   0  0  0  0  0  0  0  0  0  0  0  0
  -30.6555  -20.3035   21.4202 N   0  0  0  0  0  0  0  0  0  0  0  0
  -25.1993  -33.0844   22.0814 N   0  0  0  0  0  0  0  0  0  0  0  0
  -20.0900  -28.9867   21.7086 N   0  0  0  0  0  0  0  0  0  0  0  0
  -19.0942  -26.6932   19.0979 N   0  3  0  0  0  0  0  0  0  0  0  0
  -30.5439  -12.3505   18.3347 O   0  0  0  0  0  0  0  0  0  0  0  0
  -25.2461  -30.9716   23.0591 O   0  0  0  0  0  0  0  0  0  0  0  0
  -21.4011  -31.5334   21.6476 O   0  0  0  0  0  0  0  0  0  0  0  0
  -20.8455  -26.8336   21.2955 O   0  0  0  0  0  0  0  0  0  0  0  0
  -32.0478  -20.7417   23.2233 O   0  0  0  0  0  0  0  0  0  0  0  0
  -23.2857  -12.3971   21.1458 O   0  0  0  0  0  0  0  0  0  0  0  0
  -27.5482  -25.7633   20.7659 O   0  0  0  0  0  0  0  0  0  1  0  0
  -22.4415   -6.9488   21.2313 F   0  0  0  0  0  0  0  0  0  0  0  0
  -24.1234  -10.7990   19.0513 F   0  0  0  0  0  0  0  0  0  0  0  0
  -29.2928  -20.4585   18.7282 Cl  0  0  0  0  0  0  0  0  0  0  0  0
  1  2  1  0  0  0  0
  1  5  2  0  0  0  0
  2  6  2  0  0  0  0
  3  8  2  0  0  0  0
  3 16  1  0  0  0  0
  4  9  1  0  0  0  0
  4 16  2  0  0  0  0
  5 18  1  0  0  0  0
  6 20  1  0  0  0  0
  7 10  2  0  0  0  0
  7 19  1  0  0  0  0
  8 26  1  0  0  0  0
  9 26  2  0  0  0  0
 10 27  1  0  0  0  0
 11 12  2  0  0  0  0
 11 28  1  0  0  0  0
 12 29  1  0  0  0  0
 13 21  1  0  0  0  0
 13 27  2  0  0  0  0
 14 22  2  0  0  0  0
 14 25  1  0  0  0  0
 15 29  2  0  0  0  0
 15 30  1  0  0  0  0
 16 32  1  0  0  0  0
 17 32  1  0  0  0  0
 17 33  2  0  0  0  0
 17 34  1  0  0  0  0
 18 20  2  0  0  0  0
 18 39  1  0  0  0  0
 19 21  2  0  0  0  0
 19 40  1  0  0  0  0
 20 48  1  0  0  0  0
 21 41  1  0  0  0  0
 22 23  1  0  0  0  0
 22 51  1  0  0  0  0
 23 24  2  0  0  0  0
 23 58  1  0  0  0  0
 24 31  1  0  0  0  0
 24 52  1  0  0  0  0
 25 31  2  0  0  0  0
 25 68  1  0  0  0  0
 26 77  1  0  0  0  0
 27 78  1  0  0  0  0
 28 30  2  0  0  0  0
 28 77  1  0  0  0  0
 29 79  1  0  0  0  0
 30 80  1  0  0  0  0
 31 81  1  0  0  0  0
 32 62  2  0  0  0  0
 33 63  1  0  0  0  0
 33 66  1  0  0  0  0
 34 67  1  0  0  0  0
 34 72  2  0  0  0  0
 35 49  1  0  0  0  0
 35 69  1  0  0  0  0
 35 73  2  0  0  0  0
 36 59  1  0  0  0  0
 36 64  1  0  0  0  0
 36 74  2  0  0  0  0
 37 60  1  0  0  0  0
 37 70  1  0  0  0  0
 37 75  2  0  0  0  0
 38 65  1  0  0  0  0
 38 68  1  0  0  0  0
 38 76  2  0  0  0  0
 39 42  1  0  0  0  0
 40 49  1  0  0  0  0
 41 64  1  0  0  0  0
 42 44  1  0  0  0  0
 43 45  1  0  0  0  0
 43 46  1  0  0  0  0
 44 48  1  0  0  0  0
 45 50  1  0  0  0  0
 46 65  1  0  0  0  0
 47 50  1  0  0  0  0
 47 65  1  0  0  0  0
 48 69  1  0  0  0  0
 49 64  1  0  0  0  0
 50 63  1  0  0  0  0
 53 60  1  0  0  0  0
 54 61  1  0  0  0  0
 55 61  1  0  0  0  0
 56 61  1  0  0  0  0
 57 71  1  0  0  0  0
 58 78  1  0  0  0  0
 59 61  1  0  0  0  0
 59 70  1  0  0  0  0
 60 71  1  0  0  0  0
 62 63  1  0  0  0  0
M  CHG  1  71   1
M  ISO  4  38 100  58 101  68 100  78 101
M  END
> <Batch ID>
0017

> <Smiles>
CNC(C)C(=O)NC(C(=O)N1Cc2cc([101O:1][101CH2:1]c3c(C)cc([100NH:0][100C:0](=O)N4CCCC(n5nc(-c6ccc(Oc7ccc(F)cc7F)cc6)c(C(N)=O)c5N)C4)c(Cl)c3C)ccc2CC1C(=O)NC1CCCc2ccccc21)C(C)(C)C

> <Shape>
0.349

> <Color>
0.081

> <Negative vol penalty>
0.000

$$$$

  -OEChem-04052316013D

 81 89  0     1  0  0  0  0  0999 V2000
  -29.5410  -31.7225   21.6213 C   0  0  0  0  0  0  0  0  0  0  0  0
  -29.0904  -30.4108   21.7298 C   0  0  0  0  0  0  0  0  0  0  0  0
  -27.1014  -12.0565   21.9202 C   0  0  0  0  0  0  0  0  0  0  0  0
  -26.2423  -14.0234   20.8110 C   0  0  0  0  0  0  0  0  0  0  0  0
  -28.7184  -32.7761   22.0178 C   0  0  0  0  0  0  0  0  0  0  0  0
  -27.8172  -30.1518   22.2360 C   0  0  0  0  0  0  0  0  0  0  0  0
  -25.3048  -26.7061   19.5047 C   0  0  0  0  0  0  0  0  0  0  0  0
  -25.8048  -11.5554   22.0359 C   0  0  0  0  0  0  0  0  0  0  0  0
  -24.9457  -13.5223   20.9266 C   0  0  0  0  0  0  0  0  0  0  0  0
  -25.6460  -25.3682   19.6982 C   0  0  0  0  0  0  0  0  0  0  0  0
  -22.7568   -9.5921   22.3010 C   0  0  0  0  0  0  0  0  0  0  0  0
  -22.5499   -8.2495   21.9848 C   0  0  0  0  0  0  0  0  0  0  0  0
  -23.7250  -25.0918   21.1309 C   0  0  0  0  0  0  0  0  0  0  0  0
  -23.3414   -8.6563   19.7387 C   0  0  0  0  0  0  0  0  0  0  0  0
  -27.3202  -13.2905   21.3078 C   0  0  0  0  0  0  0  0  0  0  0  0
  -29.5591  -13.6028   20.1257 C   0  0  0  0  0  0  0  0  0  0  0  0
  -27.4307  -32.5304   22.5200 C   0  0  0  0  0  0  0  0  0  0  0  0
  -24.1753  -27.2506   20.1327 C   0  0  0  0  0  0  0  0  0  0  0  0
  -26.9770  -31.2030   22.6408 C   0  0  0  0  0  0  0  0  0  0  0  0
  -23.3702  -26.4362   20.9417 C   0  0  0  0  0  0  0  0  0  0  0  0
  -24.7270  -12.2883   21.5391 C   0  0  0  0  0  0  0  0  0  0  0  0
  -24.8577  -24.5616   20.5137 C   0  0  0  0  0  0  0  0  0  0  0  0
  -23.2560  -10.4670   21.3360 C   0  0  0  0  0  0  0  0  0  0  0  0
  -22.8422   -7.7815   20.7037 C   0  0  0  0  0  0  0  0  0  0  0  0
  -23.5483   -9.9991   20.0549 C   0  0  0  0  0  0  0  0  0  0  0  0
  -28.6592  -13.8090   21.1885 C   0  0  0  0  0  0  0  0  0  0  0  0
  -30.6850  -14.3005   20.4889 C   0  0  0  0  0  0  0  0  0  0  0  0
  -29.3920  -12.8482   18.9180 C   0  0  0  0  0  0  0  0  0  0  0  0
  -23.6861  -29.5685   22.2520 C   0  0  0  0  0  0  0  0  0  0  0  0
  -20.5639  -28.9404   21.6359 C   0  0  0  0  0  0  0  0  0  0  0  0
  -18.2157  -26.7139   20.5515 C   0  0  0  0  0  0  0  0  0  0  0  0
  -29.0461  -18.2642   21.7928 C   0  0  0  0  0  0  0  0  0  0  0  0
  -26.5958  -33.6991   22.9801 C   0  0  0  0  0  0  0  0  0  0  0  0
  -23.8058  -28.6887   19.8924 C   0  0  0  0  0  0  0  0  0  0  0  0
  -22.1360  -26.9672   21.6223 C   0  0  0  0  0  0  0  0  0  0  0  0
  -25.1178  -33.3600   23.1558 C   0  0  0  0  0  0  0  0  0  0  0  0
  -30.0018  -16.4644   24.6450 C   0  0  0  0  0  0  0  0  0  0  0  0
  -24.9578  -32.0521   23.9243 C   0  0  0  0  0  0  0  0  0  0  0  0
  -31.1664  -15.6438   24.0821 C   0  0  0  0  0  0  0  0  0  0  0  0
  -29.9829  -17.8966   24.1169 C   0  0  0  0  0  0  0  0  0  0  0  0
  -31.2684  -17.2211   22.1230 C   0  0  0  0  0  0  0  0  0  0  0  0
  -26.7343  -19.1445   21.7955 C   0  0  0  0  0  0  0  0  0  0  0  0
  -28.4416  -20.3908   23.0452 C   0  0  0  0  0  0  0  0  0  0  0  0
  -25.5927  -30.8830   23.1618 C   0  0  1  0  0  0  0  0  0  0  0  0
  -22.9232  -29.2706   20.9923 C   0  0  1  0  0  0  0  0  0  0  0  0
  -26.7960  -21.6883   21.5560 C   0  0  0  0  0  0  0  0  0  0  0  0
  -31.3177  -15.7384   22.5471 C   0  0  2  0  0  0  0  0  0  0  0  0
  -26.3708  -20.3310   20.8744 C   0  0  0  0  0  0  0  0  0  0  0  0
  -28.2232  -21.6917   22.2300 C   0  0  0  0  0  0  0  0  0  0  0  0
  -26.9773  -20.1107   19.4747 C   0  0  0  0  0  0  0  0  0  0  0  0
  -24.8307  -20.2984   20.6945 C   0  0  0  0  0  0  0  0  0  0  0  0
  -28.3205  -22.8690   23.2344 C   0  0  0  0  0  0  0  0  0  0  0  0
  -29.3903  -21.8655   21.2358 C   0  0  0  0  0  0  0  0  0  0  0  0
  -15.7429  -26.4750   20.1971 C   0  0  0  0  0  0  0  0  0  0  0  0
  -20.1679  -28.6031   24.6424 C   0  0  0  0  0  0  0  0  0  0  0  0
  -17.9926  -27.4625   24.1576 C   0  0  0  0  0  0  0  0  0  0  0  0
  -18.3306  -29.8394   23.4805 C   0  0  0  0  0  0  0  0  0  0  0  0
  -18.5583  -26.2639   17.6465 C   0  0  0  0  0  0  0  0  0  0  0  0
  -26.5624  -22.9086   20.6460 C   0  0  0  0  0  0  0  0  0  1  0  0
  -19.5268  -28.0076   22.2133 C   0  0  1  0  0  0  0  0  0  0  0  0
  -17.0718  -26.8574   19.5640 C   0  0  2  0  0  0  0  0  0  0  0  0
  -19.0288  -28.4684   23.6123 C   0  0  0  0  0  0  0  0  0  0  0  0
  -29.1696  -14.5773   22.1545 N   0  0  0  0  0  0  0  0  0  0  0  0
  -30.4023  -14.8600   21.7002 N   0  0  0  0  0  0  0  0  0  0  0  0
  -21.8200  -28.3812   21.3614 N   0  0  0  0  0  0  0  0  0  0  0  0
  -30.0934  -17.9110   22.6547 N   0  0  0  0  0  0  0  0  0  0  0  0
  -28.1117  -19.1951   22.2677 N   0  0  0  0  0  0  0  0  0  0  0  0
  -31.8795  -14.4837   19.8871 N   0  0  0  0  0  0  0  0  0  0  0  0
  -28.1718  -12.1931   18.7029 N   0  0  0  0  0  0  0  0  0  0  0  0
  -24.7304  -30.4570   22.0804 N   0  0  0  0  0  0  0  0  0  0  0  0
  -18.4731  -27.8975   21.2104 N   0  0  0  0  0  0  0  0  0  0  0  0
  -17.2972  -25.9817   18.3794 N   0  3  0  0  0  0  0  0  0  0  0  0
  -30.3038  -12.7441   18.0629 O   0  0  0  0  0  0  0  0  0  0  0  0
  -23.3511  -29.0332   23.3021 O   0  0  0  0  0  0  0  0  0  0  0  0
  -20.2680  -30.1200   21.4290 O   0  0  0  0  0  0  0  0  0  0  0  0
  -18.8181  -25.6566   20.7241 O   0  0  0  0  0  0  0  0  0  0  0  0
  -28.9526  -17.7776   20.6589 O   0  0  0  0  0  0  0  0  0  0  0  0
  -23.4617  -11.7995   21.6516 O   0  0  0  0  0  0  0  0  0  0  0  0
  -25.1923  -23.2418   20.7067 O   0  0  0  0  0  0  0  0  0  1  0  0
  -22.6448   -6.4918   20.4007 F   0  0  0  0  0  0  0  0  0  0  0  0
  -24.0292  -10.8345   19.1239 F   0  0  0  0  0  0  0  0  0  0  0  0
  1  2  1  0  0  0  0
  1  5  2  0  0  0  0
  2  6  2  0  0  0  0
  3  8  2  0  0  0  0
  3 15  1  0  0  0  0
  4  9  1  0  0  0  0
  4 15  2  0  0  0  0
  5 17  1  0  0  0  0
  6 19  1  0  0  0  0
  7 10  2  0  0  0  0
  7 18  1  0  0  0  0
  8 21  1  0  0  0  0
  9 21  2  0  0  0  0
 10 22  1  0  0  0  0
 11 12  2  0  0  0  0
 11 23  1  0  0  0  0
 12 24  1  0  0  0  0
 13 20  1  0  0  0  0
 13 22  2  0  0  0  0
 14 24  2  0  0  0  0
 14 25  1  0  0  0  0
 15 26  1  0  0  0  0
 16 26  1  0  0  0  0
 16 27  2  0  0  0  0
 16 28  1  0  0  0  0
 17 19  2  0  0  0  0
 17 33  1  0  0  0  0
 18 20  2  0  0  0  0
 18 34  1  0  0  0  0
 19 44  1  0  0  0  0
 20 35  1  0  0  0  0
 21 78  1  0  0  0  0
 22 79  1  0  0  0  0
 23 25  2  0  0  0  0
 23 78  1  0  0  0  0
 24 80  1  0  0  0  0
 25 81  1  0  0  0  0
 26 63  2  0  0  0  0
 27 64  1  0  0  0  0
 27 68  1  0  0  0  0
 28 69  1  0  0  0  0
 28 73  2  0  0  0  0
 29 45  1  0  0  0  0
 29 70  1  0  0  0  0
 29 74  2  0  0  0  0
 30 60  1  0  0  0  0
 30 65  1  0  0  0  0
 30 75  2  0  0  0  0
 31 61  1  0  0  0  0
 31 71  1  0  0  0  0
 31 76  2  0  0  0  0
 32 66  1  0  0  0  0
 32 67  1  0  0  0  0
 32 77  2  0  0  0  0
 33 36  1  0  0  0  0
 34 45  1  0  0  0  0
 35 65  1  0  0  0  0
 36 38  1  0  0  0  0
 37 39  1  0  0  0  0
 37 40  1  0  0  0  0
 38 44  1  0  0  0  0
 39 47  1  0  0  0  0
 40 66  1  0  0  0  0
 41 47  1  0  0  0  0
 41 66  1  0  0  0  0
 42 48  1  0  0  0  0
 42 67  1  0  0  0  0
 43 49  1  0  0  0  0
 43 67  1  0  0  0  0
 44 70  1  0  0  0  0
 45 65  1  0  0  0  0
 46 48  1  0  0  0  0
 46 49  1  0  0  0  0
 46 59  1  0  0  0  0
 47 64  1  0  0  0  0
 48 50  1  0  0  0  0
 48 51  1  0  0  0  0
 49 52  1  0  0  0  0
 49 53  1  0  0  0  0
 54 61  1  0  0  0  0
 55 62  1  0  0  0  0
 56 62  1  0  0  0  0
 57 62  1  0  0  0  0
 58 72  1  0  0  0  0
 59 79  1  0  0  0  0
 60 62  1  0  0  0  0
 60 71  1  0  0  0  0
 61 72  1  0  0  0  0
 63 64  1  0  0  0  0
M  CHG  1  72   1
M  ISO  4  32 100  59 101  67 100  79 101
M  END
> <Batch ID>
0017

> <Smiles>
CNC(C)C(=O)NC(C(=O)N1Cc2cc([101O:1][101CH2:1]C3C(C)(C)C[100N:0]([100C:0](=O)N4CCCC(n5nc(-c6ccc(Oc7ccc(F)cc7F)cc6)c(C(N)=O)c5N)C4)CC3(C)C)ccc2CC1C(=O)NC1CCCc2ccccc21)C(C)(C)C

> <Shape>
0.302

> <Color>
0.062

> <Negative vol penalty>
0.000

$$$$

  -OEChem-04052316013D

 81 89  0     1  0  0  0  0  0999 V2000
  -23.9817  -29.2741   20.4955 C   0  0  0  0  0  0  0  0  0  0  0  0
  -24.8939  -28.2238   20.5043 C   0  0  0  0  0  0  0  0  0  0  0  0
  -23.2103   -9.7485   20.7638 C   0  0  0  0  0  0  0  0  0  0  0  0
  -23.8701  -10.3888   22.9980 C   0  0  0  0  0  0  0  0  0  0  0  0
  -24.1484  -30.3481   21.3688 C   0  0  0  0  0  0  0  0  0  0  0  0
  -25.9741  -28.2474   21.3858 C   0  0  0  0  0  0  0  0  0  0  0  0
  -26.6983  -23.7968   23.6908 C   0  0  0  0  0  0  0  0  0  0  0  0
  -22.5037   -8.6639   21.2833 C   0  0  0  0  0  0  0  0  0  0  0  0
  -23.1634   -9.3042   23.5176 C   0  0  0  0  0  0  0  0  0  0  0  0
  -27.3293  -22.7943   22.9557 C   0  0  0  0  0  0  0  0  0  0  0  0
  -19.9473   -8.5290   24.2076 C   0  0  0  0  0  0  0  0  0  0  0  0
  -19.1430   -8.7564   25.3242 C   0  0  0  0  0  0  0  0  0  0  0  0
  -29.4085  -23.2921   24.0731 C   0  0  0  0  0  0  0  0  0  0  0  0
  -30.9324  -17.8545   19.5982 C   0  0  0  0  0  0  0  0  0  0  0  0
  -20.4290   -7.1415   26.5794 C   0  0  0  0  0  0  0  0  0  0  0  0
  -23.8936  -10.6109   21.6212 C   0  0  0  0  0  0  0  0  0  0  0  0
  -24.1378  -13.0322   20.8561 C   0  0  0  0  0  0  0  0  0  0  0  0
  -25.2259  -30.3803   22.2681 C   0  0  0  0  0  0  0  0  0  0  0  0
  -27.4213  -24.5631   24.6163 C   0  0  0  0  0  0  0  0  0  0  0  0
  -26.1562  -29.3235   22.2710 C   0  0  0  0  0  0  0  0  0  0  0  0
  -28.7837  -24.3020   24.8205 C   0  0  0  0  0  0  0  0  0  0  0  0
  -31.0605  -19.1948   19.2342 C   0  0  0  0  0  0  0  0  0  0  0  0
  -30.2706  -20.1641   19.8525 C   0  0  0  0  0  0  0  0  0  0  0  0
  -29.3526  -19.7929   20.8349 C   0  0  0  0  0  0  0  0  0  0  0  0
  -29.2245  -18.4525   21.1990 C   0  0  0  0  0  0  0  0  0  0  0  0
  -30.0143  -17.4833   20.5806 C   0  0  0  0  0  0  0  0  0  0  0  0
  -22.4802   -8.4418   22.6602 C   0  0  0  0  0  0  0  0  0  0  0  0
  -28.6853  -22.5437   23.1446 C   0  0  0  0  0  0  0  0  0  0  0  0
  -20.9924   -7.6078   24.2767 C   0  0  0  0  0  0  0  0  0  0  0  0
  -19.3839   -8.0627   26.5101 C   0  0  0  0  0  0  0  0  0  0  0  0
  -21.2333   -6.9141   25.4627 C   0  0  0  0  0  0  0  0  0  0  0  0
  -24.6242  -11.7312   21.0851 C   0  0  0  0  0  0  0  0  0  0  0  0
  -25.2133  -13.7156   20.3435 C   0  0  0  0  0  0  0  0  0  0  0  0
  -22.8307  -13.5746   21.0862 C   0  0  0  0  0  0  0  0  0  0  0  0
  -28.1310  -27.6479   24.9065 C   0  0  0  0  0  0  0  0  0  0  0  0
  -29.3774  -26.6940   27.7453 C   0  0  0  0  0  0  0  0  0  0  0  0
  -30.6853  -24.1700   29.6335 C   0  0  0  0  0  0  0  0  0  0  0  0
  -30.6202  -15.0441   20.4078 C   0  0  0  0  0  0  0  0  0  0  0  0
  -25.3910  -31.5850   23.1603 C   0  0  0  0  0  0  0  0  0  0  0  0
  -26.7198  -25.6230   25.4207 C   0  0  0  0  0  0  0  0  0  0  0  0
  -29.6002  -25.0828   25.8166 C   0  0  0  0  0  0  0  0  0  0  0  0
  -26.3530  -31.3547   24.3229 C   0  0  0  0  0  0  0  0  0  0  0  0
  -29.7071  -12.0454   18.7193 C   0  0  0  0  0  0  0  0  0  0  0  0
  -27.6294  -30.6777   23.8336 C   0  0  0  0  0  0  0  0  0  0  0  0
  -28.2633  -11.8033   19.1655 C   0  0  0  0  0  0  0  0  0  0  0  0
  -30.5597  -12.6240   19.8471 C   0  0  0  0  0  0  0  0  0  0  0  0
  -28.5675  -13.5854   20.9314 C   0  0  0  0  0  0  0  0  0  0  0  0
  -27.3269  -29.3010   23.2297 C   0  0  1  0  0  0  0  0  0  0  0  0
  -27.6690  -26.6863   25.9646 C   0  0  1  0  0  0  0  0  0  0  0  0
  -27.6539  -13.0636   19.8103 C   0  0  2  0  0  0  0  0  0  0  0  0
  -32.0484  -19.5654   18.1767 C   0  0  0  0  0  0  0  0  0  0  0  0
  -30.4097  -21.6007   19.4587 C   0  0  0  0  0  0  0  0  0  0  0  0
  -28.2374  -18.0564   22.2523 C   0  0  0  0  0  0  0  0  0  0  0  0
  -31.6494  -23.7038   31.9030 C   0  0  0  0  0  0  0  0  0  0  0  0
  -31.9824  -28.0478   26.9140 C   0  0  0  0  0  0  0  0  0  0  0  0
  -33.1449  -26.7650   28.7227 C   0  0  0  0  0  0  0  0  0  0  0  0
  -31.3461  -28.3911   29.3081 C   0  0  0  0  0  0  0  0  0  0  0  0
  -28.5572  -22.2120   30.2632 C   0  0  0  0  0  0  0  0  0  0  0  0
  -28.5031  -20.8360   21.4995 C   0  0  0  0  0  0  0  0  0  1  0  0
  -30.7267  -26.2004   28.2086 C   0  0  1  0  0  0  0  0  0  0  0  0
  -30.3895  -23.7154   31.0513 C   0  0  2  0  0  0  0  0  0  0  0  0
  -31.7853  -27.3375   28.2681 C   0  0  0  0  0  0  0  0  0  0  0  0
  -25.9087  -11.5937   20.7457 N   0  0  0  0  0  0  0  0  0  0  0  0
  -26.2385  -12.8172   20.2981 N   0  0  0  0  0  0  0  0  0  0  0  0
  -28.8705  -26.1129   26.5743 N   0  0  0  0  0  0  0  0  0  0  0  0
  -29.9223  -13.8178   20.4069 N   0  0  0  0  0  0  0  0  0  0  0  0
  -25.3726  -14.9913   19.9316 N   0  0  0  0  0  0  0  0  0  0  0  0
  -21.8428  -12.7345   21.6179 N   0  0  0  0  0  0  0  0  0  0  0  0
  -29.9013  -16.1162   20.9356 N   0  0  0  0  0  0  0  0  0  0  0  0
  -27.1054  -28.3272   24.2771 N   0  0  0  0  0  0  0  0  0  0  0  0
  -30.4997  -25.5280   29.4833 N   0  0  0  0  0  0  0  0  0  0  0  0
  -29.8137  -22.3408   31.0451 N   0  3  0  0  0  0  0  0  0  0  0  0
  -22.5426  -14.7644   20.8126 O   0  0  0  0  0  0  0  0  0  0  0  0
  -29.3293  -27.7659   24.6790 O   0  0  0  0  0  0  0  0  0  0  0  0
  -28.7914  -27.5582   28.4022 O   0  0  0  0  0  0  0  0  0  0  0  0
  -31.0485  -23.3982   28.7487 O   0  0  0  0  0  0  0  0  0  0  0  0
  -31.7605  -15.1422   19.9475 O   0  0  0  0  0  0  0  0  0  0  0  0
  -21.7905   -7.3837   23.1675 O   0  0  0  0  0  0  0  0  0  0  0  0
  -29.3039  -21.5662   22.4279 O   0  0  0  0  0  0  0  0  0  1  0  0
  -18.6124   -8.2823   27.5829 F   0  0  0  0  0  0  0  0  0  0  0  0
  -22.2366   -6.0287   25.5356 F   0  0  0  0  0  0  0  0  0  0  0  0
  1  2  1  0  0  0  0
  1  5  2  0  0  0  0
  2  6  2  0  0  0  0
  3  8  2  0  0  0  0
  3 16  1  0  0  0  0
  4  9  1  0  0  0  0
  4 16  2  0  0  0  0
  5 18  1  0  0  0  0
  6 20  1  0  0  0  0
  7 10  2  0  0  0  0
  7 19  1  0  0  0  0
  8 27  1  0  0  0  0
  9 27  2  0  0  0  0
 10 28  1  0  0  0  0
 11 12  2  0  0  0  0
 11 29  1  0  0  0  0
 12 30  1  0  0  0  0
 13 21  1  0  0  0  0
 13 28  2  0  0  0  0
 14 22  1  0  0  0  0
 14 26  2  0  0  0  0
 15 30  2  0  0  0  0
 15 31  1  0  0  0  0
 16 32  1  0  0  0  0
 17 32  1  0  0  0  0
 17 33  2  0  0  0  0
 17 34  1  0  0  0  0
 18 20  2  0  0  0  0
 18 39  1  0  0  0  0
 19 21  2  0  0  0  0
 19 40  1  0  0  0  0
 20 48  1  0  0  0  0
 21 41  1  0  0  0  0
 22 23  2  0  0  0  0
 22 51  1  0  0  0  0
 23 24  1  0  0  0  0
 23 52  1  0  0  0  0
 24 25  2  0  0  0  0
 24 59  1  0  0  0  0
 25 26  1  0  0  0  0
 25 53  1  0  0  0  0
 26 69  1  0  0  0  0
 27 78  1  0  0  0  0
 28 79  1  0  0  0  0
 29 31  2  0  0  0  0
 29 78  1  0  0  0  0
 30 80  1  0  0  0  0
 31 81  1  0  0  0  0
 32 63  2  0  0  0  0
 33 64  1  0  0  0  0
 33 67  1  0  0  0  0
 34 68  1  0  0  0  0
 34 73  2  0  0  0  0
 35 49  1  0  0  0  0
 35 70  1  0  0  0  0
 35 74  2  0  0  0  0
 36 60  1  0  0  0  0
 36 65  1  0  0  0  0
 36 75  2  0  0  0  0
 37 61  1  0  0  0  0
 37 71  1  0  0  0  0
 37 76  2  0  0  0  0
 38 66  1  0  0  0  0
 38 69  1  0  0  0  0
 38 77  2  0  0  0  0
 39 42  1  0  0  0  0
 40 49  1  0  0  0  0
 41 65  1  0  0  0  0
 42 44  1  0  0  0  0
 43 45  1  0  0  0  0
 43 46  1  0  0  0  0
 44 48  1  0  0  0  0
 45 50  1  0  0  0  0
 46 66  1  0  0  0  0
 47 50  1  0  0  0  0
 47 66  1  0  0  0  0
 48 70  1  0  0  0  0
 49 65  1  0  0  0  0
 50 64  1  0  0  0  0
 54 61  1  0  0  0  0
 55 62  1  0  0  0  0
 56 62  1  0  0  0  0
 57 62  1  0  0  0  0
 58 72  1  0  0  0  0
 59 79  1  0  0  0  0
 60 62  1  0  0  0  0
 60 71  1  0  0  0  0
 61 72  1  0  0  0  0
 63 64  1  0  0  0  0
M  CHG  1  72   1
M  ISO  4  38 100  59 101  69 100  79 101
M  END
> <Batch ID>
0017

> <Smiles>
CNC(C)C(=O)NC(C(=O)N1Cc2cc([101O:1][101CH2:1]c3c(C)c(C)cc([100NH:0][100C:0](=O)N4CCCC(n5nc(-c6ccc(Oc7ccc(F)cc7F)cc6)c(C(N)=O)c5N)C4)c3C)ccc2CC1C(=O)NC1CCCc2ccccc21)C(C)(C)C

> <Shape>
0.242

> <Color>
0.169

> <Negative vol penalty>
0.000

$$$$

  -OEChem-04052316013D

 81 89  0     1  0  0  0  0  0999 V2000
  -35.5981  -32.0721   16.6702 C   0  0  0  0  0  0  0  0  0  0  0  0
  -35.8727  -30.7250   16.8831 C   0  0  0  0  0  0  0  0  0  0  0  0
  -23.0049   -9.8687   19.9774 C   0  0  0  0  0  0  0  0  0  0  0  0
  -23.7287   -9.9247   22.2818 C   0  0  0  0  0  0  0  0  0  0  0  0
  -34.4034  -32.6207   17.1345 C   0  0  0  0  0  0  0  0  0  0  0  0
  -34.9531  -29.9259   17.5614 C   0  0  0  0  0  0  0  0  0  0  0  0
  -32.4789  -23.2064   17.7674 C   0  0  0  0  0  0  0  0  0  0  0  0
  -22.2450   -8.7298   20.2438 C   0  0  0  0  0  0  0  0  0  0  0  0
  -22.9687   -8.7857   22.5482 C   0  0  0  0  0  0  0  0  0  0  0  0
  -32.2605  -22.1662   18.6697 C   0  0  0  0  0  0  0  0  0  0  0  0
  -23.2331   -5.4481   22.0774 C   0  0  0  0  0  0  0  0  0  0  0  0
  -23.8263   -4.4347   22.8301 C   0  0  0  0  0  0  0  0  0  0  0  0
  -30.1943  -23.2042   19.3569 C   0  0  0  0  0  0  0  0  0  0  0  0
  -31.1696  -18.4038   23.7057 C   0  0  0  0  0  0  0  0  0  0  0  0
  -22.1002   -4.6679   24.5044 C   0  0  0  0  0  0  0  0  0  0  0  0
  -23.7468  -10.4661   20.9965 C   0  0  0  0  0  0  0  0  0  0  0  0
  -24.1172  -12.9839   20.8199 C   0  0  0  0  0  0  0  0  0  0  0  0
  -33.4643  -31.8257   17.8103 C   0  0  0  0  0  0  0  0  0  0  0  0
  -31.5604  -24.2606   17.6607 C   0  0  0  0  0  0  0  0  0  0  0  0
  -33.7452  -30.4647   18.0363 C   0  0  0  0  0  0  0  0  0  0  0  0
  -30.4020  -24.2552   18.4507 C   0  0  0  0  0  0  0  0  0  0  0  0
  -31.5675  -19.3603   22.7716 C   0  0  0  0  0  0  0  0  0  0  0  0
  -30.6642  -17.1769   23.2755 C   0  0  0  0  0  0  0  0  0  0  0  0
  -31.4599  -19.0900   21.4075 C   0  0  0  0  0  0  0  0  0  0  0  0
  -30.9544  -17.8631   20.9773 C   0  0  0  0  0  0  0  0  0  0  0  0
  -30.5566  -16.9066   21.9113 C   0  0  0  0  0  0  0  0  0  0  0  0
  -22.2269   -8.1883   21.5291 C   0  0  0  0  0  0  0  0  0  0  0  0
  -31.1195  -22.1665   19.4667 C   0  0  0  0  0  0  0  0  0  0  0  0
  -22.0735   -6.0716   22.5382 C   0  0  0  0  0  0  0  0  0  0  0  0
  -23.2599   -4.0445   24.0436 C   0  0  0  0  0  0  0  0  0  0  0  0
  -21.5070   -5.6814   23.7517 C   0  0  0  0  0  0  0  0  0  0  0  0
  -24.5324  -11.6424   20.7218 C   0  0  0  0  0  0  0  0  0  0  0  0
  -25.2228  -13.7130   20.4557 C   0  0  0  0  0  0  0  0  0  0  0  0
  -22.8459  -13.5229   21.2056 C   0  0  0  0  0  0  0  0  0  0  0  0
  -31.6835  -27.4002   18.1422 C   0  0  0  0  0  0  0  0  0  0  0  0
  -28.6760  -27.3109   16.9301 C   0  0  0  0  0  0  0  0  0  0  0  0
  -25.8424  -25.5026   16.3406 C   0  0  0  0  0  0  0  0  0  0  0  0
  -30.6964  -14.7067   20.6919 C   0  0  0  0  0  0  0  0  0  0  0  0
  -32.2079  -32.4742   18.3352 C   0  0  0  0  0  0  0  0  0  0  0  0
  -31.7972  -25.3615   16.6634 C   0  0  0  0  0  0  0  0  0  0  0  0
  -29.3751  -25.3532   18.3599 C   0  0  0  0  0  0  0  0  0  0  0  0
  -31.1195  -31.4738   18.7159 C   0  0  0  0  0  0  0  0  0  0  0  0
  -29.5938  -12.2465   18.3662 C   0  0  0  0  0  0  0  0  0  0  0  0
  -31.7067  -30.3355   19.5442 C   0  0  0  0  0  0  0  0  0  0  0  0
  -28.1445  -11.9804   18.7798 C   0  0  0  0  0  0  0  0  0  0  0  0
  -30.4923  -12.4956   19.5763 C   0  0  0  0  0  0  0  0  0  0  0  0
  -28.5717  -13.2735   20.9087 C   0  0  0  0  0  0  0  0  0  0  0  0
  -32.7617  -29.5598   18.7461 C   0  0  1  0  0  0  0  0  0  0  0  0
  -31.0518  -26.6479   17.0053 C   0  0  1  0  0  0  0  0  0  0  0  0
  -27.6157  -13.0811   19.7202 C   0  0  2  0  0  0  0  0  0  0  0  0
  -32.1067  -20.6654   23.2587 C   0  0  0  0  0  0  0  0  0  0  0  0
  -30.2475  -16.1721   24.3004 C   0  0  0  0  0  0  0  0  0  0  0  0
  -30.8408  -17.5781   19.5121 C   0  0  0  0  0  0  0  0  0  0  0  0
  -23.5388  -25.7118   15.3676 C   0  0  0  0  0  0  0  0  0  0  0  0
  -27.7598  -28.8061   19.4271 C   0  0  0  0  0  0  0  0  0  0  0  0
  -25.4078  -28.1533   18.8701 C   0  0  0  0  0  0  0  0  0  0  0  0
  -26.7075  -29.5887   17.2976 C   0  0  0  0  0  0  0  0  0  0  0  0
  -26.3993  -23.4497   14.2828 C   0  0  0  0  0  0  0  0  0  0  0  0
  -31.8887  -20.1212   20.4054 C   0  0  0  0  0  0  0  0  0  1  0  0
  -27.2936  -27.1387   17.5118 C   0  0  1  0  0  0  0  0  0  0  0  0
  -24.9892  -25.3446   15.0950 C   0  0  2  0  0  0  0  0  0  0  0  0
  -26.8123  -28.4019   18.2800 C   0  0  0  0  0  0  0  0  0  0  0  0
  -25.8026  -11.5233   20.3263 N   0  0  0  0  0  0  0  0  0  0  0  0
  -26.1951  -12.7994   20.1724 N   0  0  0  0  0  0  0  0  0  0  0  0
  -29.6547  -26.4106   17.3743 N   0  0  0  0  0  0  0  0  0  0  0  0
  -29.9306  -13.5535   20.4191 N   0  0  0  0  0  0  0  0  0  0  0  0
  -25.4485  -15.0400   20.3534 N   0  0  0  0  0  0  0  0  0  0  0  0
  -21.8192  -12.6328   21.5490 N   0  0  0  0  0  0  0  0  0  0  0  0
  -30.0461  -15.6582   21.4769 N   0  0  0  0  0  0  0  0  0  0  0  0
  -32.1252  -28.6650   17.8034 N   0  0  0  0  0  0  0  0  0  0  0  0
  -26.4298  -26.7485   16.4027 N   0  0  0  0  0  0  0  0  0  0  0  0
  -25.0344  -23.9357   14.6114 N   0  3  0  0  0  0  0  0  0  0  0  0
  -22.6218  -14.7569   21.2289 O   0  0  0  0  0  0  0  0  0  0  0  0
  -31.7630  -26.8728   19.2455 O   0  0  0  0  0  0  0  0  0  0  0  0
  -28.8783  -28.2066   16.1064 O   0  0  0  0  0  0  0  0  0  0  0  0
  -25.9717  -24.6112   17.1769 O   0  0  0  0  0  0  0  0  0  0  0  0
  -31.8344  -14.8522   20.2384 O   0  0  0  0  0  0  0  0  0  0  0  0
  -21.4853   -7.0770   21.7894 O   0  0  0  0  0  0  0  0  0  0  0  0
  -30.9043  -21.1528   20.3487 O   0  0  0  0  0  0  0  0  0  1  0  0
  -23.8288   -3.0702   24.7655 F   0  0  0  0  0  0  0  0  0  0  0  0
  -20.3924   -6.2758   24.1991 F   0  0  0  0  0  0  0  0  0  0  0  0
  1  2  1  0  0  0  0
  1  5  2  0  0  0  0
  2  6  2  0  0  0  0
  3  8  2  0  0  0  0
  3 16  1  0  0  0  0
  4  9  1  0  0  0  0
  4 16  2  0  0  0  0
  5 18  1  0  0  0  0
  6 20  1  0  0  0  0
  7 10  2  0  0  0  0
  7 19  1  0  0  0  0
  8 27  1  0  0  0  0
  9 27  2  0  0  0  0
 10 28  1  0  0  0  0
 11 12  2  0  0  0  0
 11 29  1  0  0  0  0
 12 30  1  0  0  0  0
 13 21  1  0  0  0  0
 13 28  2  0  0  0  0
 14 22  2  0  0  0  0
 14 23  1  0  0  0  0
 15 30  2  0  0  0  0
 15 31  1  0  0  0  0
 16 32  1  0  0  0  0
 17 32  1  0  0  0  0
 17 33  2  0  0  0  0
 17 34  1  0  0  0  0
 18 20  2  0  0  0  0
 18 39  1  0  0  0  0
 19 21  2  0  0  0  0
 19 40  1  0  0  0  0
 20 48  1  0  0  0  0
 21 41  1  0  0  0  0
 22 24  1  0  0  0  0
 22 51  1  0  0  0  0
 23 26  2  0  0  0  0
 23 52  1  0  0  0  0
 24 25  2  0  0  0  0
 24 59  1  0  0  0  0
 25 26  1  0  0  0  0
 25 53  1  0  0  0  0
 26 69  1  0  0  0  0
 27 78  1  0  0  0  0
 28 79  1  0  0  0  0
 29 31  2  0  0  0  0
 29 78  1  0  0  0  0
 30 80  1  0  0  0  0
 31 81  1  0  0  0  0
 32 63  2  0  0  0  0
 33 64  1  0  0  0  0
 33 67  1  0  0  0  0
 34 68  1  0  0  0  0
 34 73  2  0  0  0  0
 35 49  1  0  0  0  0
 35 70  1  0  0  0  0
 35 74  2  0  0  0  0
 36 60  1  0  0  0  0
 36 65  1  0  0  0  0
 36 75  2  0  0  0  0
 37 61  1  0  0  0  0
 37 71  1  0  0  0  0
 37 76  2  0  0  0  0
 38 66  1  0  0  0  0
 38 69  1  0  0  0  0
 38 77  2  0  0  0  0
 39 42  1  0  0  0  0
 40 49  1  0  0  0  0
 41 65  1  0  0  0  0
 42 44  1  0  0  0  0
 43 45  1  0  0  0  0
 43 46  1  0  0  0  0
 44 48  1  0  0  0  0
 45 50  1  0  0  0  0
 46 66  1  0  0  0  0
 47 50  1  0  0  0  0
 47 66  1  0  0  0  0
 48 70  1  0  0  0  0
 49 65  1  0  0  0  0
 50 64  1  0  0  0  0
 54 61  1  0  0  0  0
 55 62  1  0  0  0  0
 56 62  1  0  0  0  0
 57 62  1  0  0  0  0
 58 72  1  0  0  0  0
 59 79  1  0  0  0  0
 60 62  1  0  0  0  0
 60 71  1  0  0  0  0
 61 72  1  0  0  0  0
 63 64  1  0  0  0  0
M  CHG  1  72   1
M  ISO  4  38 100  59 101  69 100  79 101
M  END
> <Batch ID>
0017

> <Smiles>
CNC(C)C(=O)NC(C(=O)N1Cc2cc([101O:1][101CH2:1]c3c(C)cc(C)c([100NH:0][100C:0](=O)N4CCCC(n5nc(-c6ccc(Oc7ccc(F)cc7F)cc6)c(C(N)=O)c5N)C4)c3C)ccc2CC1C(=O)NC1CCCc2ccccc21)C(C)(C)C

> <Shape>
0.247

> <Color>
0.208

> <Negative vol penalty>
0.000

$$$$

  -OEChem-04052316013D

 83 91  0     1  0  0  0  0  0999 V2000
  -31.5454  -33.5952   22.3647 C   0  0  0  0  0  0  0  0  0  0  0  0
  -31.1919  -32.6231   21.4344 C   0  0  0  0  0  0  0  0  0  0  0  0
  -23.8660   -9.9412   22.1316 C   0  0  0  0  0  0  0  0  0  0  0  0
  -22.3944  -10.4765   20.2917 C   0  0  0  0  0  0  0  0  0  0  0  0
  -30.9517  -33.5997   23.6263 C   0  0  0  0  0  0  0  0  0  0  0  0
  -30.2453  -31.6543   21.7655 C   0  0  0  0  0  0  0  0  0  0  0  0
  -26.1234  -29.1039   18.0224 C   0  0  0  0  0  0  0  0  0  0  0  0
  -23.3472   -8.6470   22.1701 C   0  0  0  0  0  0  0  0  0  0  0  0
  -21.8757   -9.1822   20.3301 C   0  0  0  0  0  0  0  0  0  0  0  0
  -26.1074  -27.8940   17.3297 C   0  0  0  0  0  0  0  0  0  0  0  0
  -22.1549   -5.3102   22.9870 C   0  0  0  0  0  0  0  0  0  0  0  0
  -21.8343   -4.7751   24.2346 C   0  0  0  0  0  0  0  0  0  0  0  0
  -24.8334  -26.8941   19.1175 C   0  0  0  0  0  0  0  0  0  0  0  0
  -22.4857  -21.0741   19.5039 C   0  0  0  0  0  0  0  0  0  0  0  0
  -20.2583   -6.5696   24.5993 C   0  0  0  0  0  0  0  0  0  0  0  0
  -23.3895  -10.8560   21.1925 C   0  0  0  0  0  0  0  0  0  0  0  0
  -25.0266  -12.6460   20.4028 C   0  0  0  0  0  0  0  0  0  0  0  0
  -29.9903  -32.6362   23.9696 C   0  0  0  0  0  0  0  0  0  0  0  0
  -25.5028  -29.2151   19.2750 C   0  0  0  0  0  0  0  0  0  0  0  0
  -29.6392  -31.6451   23.0333 C   0  0  0  0  0  0  0  0  0  0  0  0
  -24.8407  -28.1072   19.8229 C   0  0  0  0  0  0  0  0  0  0  0  0
  -22.3509  -22.0547   18.5212 C   0  0  0  0  0  0  0  0  0  0  0  0
  -23.8538  -20.8227   17.0857 C   0  0  0  0  0  0  0  0  0  0  0  0
  -23.0349  -21.9290   17.3120 C   0  0  0  0  0  0  0  0  0  0  0  0
  -23.9886  -19.8421   18.0685 C   0  0  0  0  0  0  0  0  0  0  0  0
  -23.3047  -19.9678   19.2777 C   0  0  0  0  0  0  0  0  0  0  0  0
  -22.3521   -8.2675   21.2693 C   0  0  0  0  0  0  0  0  0  0  0  0
  -25.4648  -26.7882   17.8785 C   0  0  0  0  0  0  0  0  0  0  0  0
  -21.5272   -6.4750   22.5455 C   0  0  0  0  0  0  0  0  0  0  0  0
  -20.8860   -5.4047   25.0408 C   0  0  0  0  0  0  0  0  0  0  0  0
  -20.5789   -7.1047   23.3517 C   0  0  0  0  0  0  0  0  0  0  0  0
  -23.9246  -12.1933   21.1527 C   0  0  0  0  0  0  0  0  0  0  0  0
  -25.1261  -13.9809   20.7104 C   0  0  0  0  0  0  0  0  0  0  0  0
  -25.8836  -11.9244   19.5080 C   0  0  0  0  0  0  0  0  0  0  0  0
  -26.4977  -29.8780   22.2202 C   0  0  0  0  0  0  0  0  0  0  0  0
  -23.3234  -29.8233   22.8858 C   0  0  0  0  0  0  0  0  0  0  0  0
  -20.2055  -28.7194   22.0450 C   0  0  0  0  0  0  0  0  0  0  0  0
  -22.8069  -18.9747   21.5387 C   0  0  0  0  0  0  0  0  0  0  0  0
  -29.4108  -32.6531   25.3620 C   0  0  0  0  0  0  0  0  0  0  0  0
  -25.5060  -30.5345   19.9973 C   0  0  0  0  0  0  0  0  0  0  0  0
  -24.1421  -28.1800   21.1552 C   0  0  0  0  0  0  0  0  0  0  0  0
  -28.1416  -31.8168   25.5036 C   0  0  0  0  0  0  0  0  0  0  0  0
  -22.8214  -16.7167   24.2916 C   0  0  0  0  0  0  0  0  0  0  0  0
  -28.3261  -30.4514   24.8489 C   0  0  0  0  0  0  0  0  0  0  0  0
  -23.2004  -15.3758   23.6587 C   0  0  0  0  0  0  0  0  0  0  0  0
  -21.9271  -17.5456   23.3714 C   0  0  0  0  0  0  0  0  0  0  0  0
  -22.8296  -16.4075   21.3816 C   0  0  0  0  0  0  0  0  0  0  0  0
  -28.5983  -30.5922   23.3464 C   0  0  1  0  0  0  0  0  0  0  0  0
  -25.2840  -30.3935   21.5000 C   0  0  1  0  0  0  0  0  0  0  0  0
  -23.7832  -15.5649   22.2444 C   0  0  2  0  0  0  0  0  0  0  0  0
  -21.4707  -23.2313   18.7900 C   0  0  0  0  0  0  0  0  0  0  0  0
  -24.5874  -20.6885   15.7884 C   0  0  0  0  0  0  0  0  0  0  0  0
  -24.8694  -18.6567   17.8240 C   0  0  0  0  0  0  0  0  0  0  0  0
  -17.8141  -28.8083   22.8004 C   0  0  0  0  0  0  0  0  0  0  0  0
  -23.9480  -27.8099   25.0917 C   0  0  0  0  0  0  0  0  0  0  0  0
  -21.5126  -27.2332   25.1589 C   0  0  0  0  0  0  0  0  0  0  0  0
  -22.2602  -29.5477   25.7128 C   0  0  0  0  0  0  0  0  0  0  0  0
  -19.3415  -30.0358   19.5391 C   0  0  0  0  0  0  0  0  0  0  0  0
  -22.8878  -22.9915   16.2523 C   0  0  0  0  0  0  0  0  0  0  0  0
  -24.0912  -23.9313   16.1511 C   0  0  0  0  0  0  0  0  0  0  0  0
  -24.3211  -24.7558   17.4124 C   0  0  0  0  0  0  0  0  0  1  0  0
  -22.3384  -28.7613   23.3112 C   0  0  1  0  0  0  0  0  0  0  0  0
  -18.8787  -29.4466   21.9218 C   0  0  2  0  0  0  0  0  0  0  0  0
  -22.5295  -28.3358   24.7944 C   0  0  0  0  0  0  0  0  0  0  0  0
  -23.3642  -13.1619   21.8820 N   0  0  0  0  0  0  0  0  0  0  0  0
  -24.1172  -14.2365   21.5918 N   0  0  0  0  0  0  0  0  0  0  0  0
  -24.1784  -29.4902   21.8257 N   0  0  0  0  0  0  0  0  0  0  0  0
  -22.5453  -17.6864   22.0512 N   0  0  0  0  0  0  0  0  0  0  0  0
  -25.9774  -14.9491   20.3102 N   0  0  0  0  0  0  0  0  0  0  0  0
  -25.6407  -10.5589   19.3060 N   0  0  0  0  0  0  0  0  0  0  0  0
  -23.4265  -18.9833   20.2894 N   0  0  0  0  0  0  0  0  0  0  0  0
  -27.3691  -30.8675   22.6338 N   0  0  0  0  0  0  0  0  0  0  0  0
  -21.0127  -29.2888   23.0070 N   0  0  0  0  0  0  0  0  0  0  0  0
  -18.4018  -29.4187   20.5102 N   0  3  0  0  0  0  0  0  0  0  0  0
  -26.8465  -12.4705   18.9182 O   0  0  0  0  0  0  0  0  0  0  0  0
  -26.6329  -28.6718   22.3896 O   0  0  0  0  0  0  0  0  0  0  0  0
  -23.3290  -30.9109   23.4677 O   0  0  0  0  0  0  0  0  0  0  0  0
  -20.4953  -27.7415   21.3591 O   0  0  0  0  0  0  0  0  0  0  0  0
  -22.5284  -19.9948   22.1741 O   0  0  0  0  0  0  0  0  0  0  0  0
  -21.8459   -7.0046   21.3063 O   0  0  0  0  0  0  0  0  0  0  0  0
  -25.4483  -25.6059   17.2048 O   0  0  0  0  0  0  0  0  0  1  0  0
  -20.5772   -4.8899   26.2381 F   0  0  0  0  0  0  0  0  0  0  0  0
  -19.9716   -8.2233   22.9325 F   0  0  0  0  0  0  0  0  0  0  0  0
  1  2  1  0  0  0  0
  1  5  2  0  0  0  0
  2  6  2  0  0  0  0
  3  8  2  0  0  0  0
  3 16  1  0  0  0  0
  4  9  1  0  0  0  0
  4 16  2  0  0  0  0
  5 18  1  0  0  0  0
  6 20  1  0  0  0  0
  7 10  2  0  0  0  0
  7 19  1  0  0  0  0
  8 27  1  0  0  0  0
  9 27  2  0  0  0  0
 10 28  1  0  0  0  0
 11 12  2  0  0  0  0
 11 29  1  0  0  0  0
 12 30  1  0  0  0  0
 13 21  1  0  0  0  0
 13 28  2  0  0  0  0
 14 22  2  0  0  0  0
 14 26  1  0  0  0  0
 15 30  2  0  0  0  0
 15 31  1  0  0  0  0
 16 32  1  0  0  0  0
 17 32  1  0  0  0  0
 17 33  2  0  0  0  0
 17 34  1  0  0  0  0
 18 20  2  0  0  0  0
 18 39  1  0  0  0  0
 19 21  2  0  0  0  0
 19 40  1  0  0  0  0
 20 48  1  0  0  0  0
 21 41  1  0  0  0  0
 22 24  1  0  0  0  0
 22 51  1  0  0  0  0
 23 24  2  0  0  0  0
 23 25  1  0  0  0  0
 23 52  1  0  0  0  0
 24 59  1  0  0  0  0
 25 26  2  0  0  0  0
 25 53  1  0  0  0  0
 26 71  1  0  0  0  0
 27 80  1  0  0  0  0
 28 81  1  0  0  0  0
 29 31  2  0  0  0  0
 29 80  1  0  0  0  0
 30 82  1  0  0  0  0
 31 83  1  0  0  0  0
 32 65  2  0  0  0  0
 33 66  1  0  0  0  0
 33 69  1  0  0  0  0
 34 70  1  0  0  0  0
 34 75  2  0  0  0  0
 35 49  1  0  0  0  0
 35 72  1  0  0  0  0
 35 76  2  0  0  0  0
 36 62  1  0  0  0  0
 36 67  1  0  0  0  0
 36 77  2  0  0  0  0
 37 63  1  0  0  0  0
 37 73  1  0  0  0  0
 37 78  2  0  0  0  0
 38 68  1  0  0  0  0
 38 71  1  0  0  0  0
 38 79  2  0  0  0  0
 39 42  1  0  0  0  0
 40 49  1  0  0  0  0
 41 67  1  0  0  0  0
 42 44  1  0  0  0  0
 43 45  1  0  0  0  0
 43 46  1  0  0  0  0
 44 48  1  0  0  0  0
 45 50  1  0  0  0  0
 46 68  1  0  0  0  0
 47 50  1  0  0  0  0
 47 68  1  0  0  0  0
 48 72  1  0  0  0  0
 49 67  1  0  0  0  0
 50 66  1  0  0  0  0
 54 63  1  0  0  0  0
 55 64  1  0  0  0  0
 56 64  1  0  0  0  0
 57 64  1  0  0  0  0
 58 74  1  0  0  0  0
 59 60  1  0  0  0  0
 60 61  1  0  0  0  0
 61 81  1  0  0  0  0
 62 64  1  0  0  0  0
 62 73  1  0  0  0  0
 63 74  1  0  0  0  0
 65 66  1  0  0  0  0
M  CHG  1  74   1
M  ISO  4  38 100  61 101  71 100  81 101
M  END
> <Batch ID>
0017

> <Smiles>
CNC(C)C(=O)NC(C(=O)N1Cc2cc([101O:1][101CH2:1]CCc3c(C)cc([100NH:0][100C:0](=O)N4CCCC(n5nc(-c6ccc(Oc7ccc(F)cc7F)cc6)c(C(N)=O)c5N)C4)c(C)c3C)ccc2CC1C(=O)NC1CCCc2ccccc21)C(C)(C)C

> <Shape>
0.221

> <Color>
0.106

> <Negative vol penalty>
0.000

$$$$

  -OEChem-04052316013D

 81 89  0     1  0  0  0  0  0999 V2000
  -21.4826  -12.4517   20.6055 C   0  0  0  0  0  0  0  0  0  0  0  0
  -21.6312  -13.5859   21.3972 C   0  0  0  0  0  0  0  0  0  0  0  0
  -25.9693  -29.1189   20.8895 C   0  0  0  0  0  0  0  0  0  0  0  0
  -25.1962  -26.8590   21.2526 C   0  0  0  0  0  0  0  0  0  0  0  0
  -22.6064  -11.8274   20.0660 C   0  0  0  0  0  0  0  0  0  0  0  0
  -22.9040  -14.0959   21.6508 C   0  0  0  0  0  0  0  0  0  0  0  0
  -23.1122  -19.1320   21.1615 C   0  0  0  0  0  0  0  0  0  0  0  0
  -27.1658  -28.6260   20.3690 C   0  0  0  0  0  0  0  0  0  0  0  0
  -26.3927  -26.3660   20.7320 C   0  0  0  0  0  0  0  0  0  0  0  0
  -22.6049  -19.8953   22.2122 C   0  0  0  0  0  0  0  0  0  0  0  0
  -30.0606  -27.3494   21.5585 C   0  0  0  0  0  0  0  0  0  0  0  0
  -31.2469  -27.9455   21.9863 C   0  0  0  0  0  0  0  0  0  0  0  0
  -24.8471  -20.2523   23.0273 C   0  0  0  0  0  0  0  0  0  0  0  0
  -31.7587  -28.5624   19.7071 C   0  0  0  0  0  0  0  0  0  0  0  0
  -24.9845  -28.2354   21.3314 C   0  0  0  0  0  0  0  0  0  0  0  0
  -22.8076  -29.5601   21.2136 C   0  0  0  0  0  0  0  0  0  0  0  0
  -23.8930  -12.3356   20.3051 C   0  0  0  0  0  0  0  0  0  0  0  0
  -24.4922  -18.9137   21.0419 C   0  0  0  0  0  0  0  0  0  0  0  0
  -24.0463  -13.4770   21.1151 C   0  0  0  0  0  0  0  0  0  0  0  0
  -25.3695  -19.4880   21.9728 C   0  0  0  0  0  0  0  0  0  0  0  0
  -27.3775  -27.2496   20.2902 C   0  0  0  0  0  0  0  0  0  0  0  0
  -23.4722  -20.4532   23.1469 C   0  0  0  0  0  0  0  0  0  0  0  0
  -29.7233  -27.3597   20.2051 C   0  0  0  0  0  0  0  0  0  0  0  0
  -32.0959  -28.5520   21.0606 C   0  0  0  0  0  0  0  0  0  0  0  0
  -30.5724  -27.9662   19.2794 C   0  0  0  0  0  0  0  0  0  0  0  0
  -23.7485  -28.7440   21.8697 C   0  0  0  0  0  0  0  0  0  0  0  0
  -21.8202  -29.7639   22.1465 C   0  0  0  0  0  0  0  0  0  0  0  0
  -22.8244  -30.0867   19.8802 C   0  0  0  0  0  0  0  0  0  0  0  0
  -26.3702  -16.3496   21.0911 C   0  0  0  0  0  0  0  0  0  0  0  0
  -28.6699  -18.5003   20.3114 C   0  0  0  0  0  0  0  0  0  0  0  0
  -29.7354  -21.7423   20.3435 C   0  0  0  0  0  0  0  0  0  0  0  0
  -20.0132  -26.6351   26.9210 C   0  0  0  0  0  0  0  0  0  0  0  0
  -25.0812  -11.5989   19.7393 C   0  0  0  0  0  0  0  0  0  0  0  0
  -25.0255  -18.1102   19.8876 C   0  0  0  0  0  0  0  0  0  0  0  0
  -26.8609  -19.3004   21.8775 C   0  0  0  0  0  0  0  0  0  0  0  0
  -26.3677  -12.4206   19.7476 C   0  0  0  0  0  0  0  0  0  0  0  0
  -21.1299  -30.0156   26.8741 C   0  0  0  0  0  0  0  0  0  0  0  0
  -26.5572  -13.1020   21.0992 C   0  0  0  0  0  0  0  0  0  0  0  0
  -21.8428  -30.1467   25.5271 C   0  0  0  0  0  0  0  0  0  0  0  0
  -18.1173  -24.1591   24.8890 C   0  0  0  0  0  0  0  0  0  0  0  0
  -19.1488  -23.1875   24.3313 C   0  0  0  0  0  0  0  0  0  0  0  0
  -19.3813  -23.3724   26.7727 C   0  0  0  0  0  0  0  0  0  0  0  0
  -21.3503  -28.6391   27.4977 C   0  0  0  0  0  0  0  0  0  0  0  0
  -21.7170  -27.6325   25.2782 C   0  0  0  0  0  0  0  0  0  0  0  0
  -25.4086  -14.0747   21.3925 C   0  0  1  0  0  0  0  0  0  0  0  0
  -26.4086  -17.5248   20.1556 C   0  0  1  0  0  0  0  0  0  0  0  0
  -21.4779  -28.9843   24.5841 C   0  0  2  0  0  0  0  0  0  0  0  0
  -18.7410  -24.6358   26.1931 C   0  0  1  0  0  0  0  0  0  0  0  0
  -19.7108  -22.4540   25.5681 C   0  0  2  0  0  0  0  0  0  0  0  0
  -31.6733  -23.1857   19.6664 C   0  0  0  0  0  0  0  0  0  0  0  0
  -19.6098  -20.3537   26.9404 C   0  0  0  0  0  0  0  0  0  0  0  0
  -17.5214  -21.2674   25.8881 C   0  0  0  0  0  0  0  0  0  0  0  0
  -30.2713  -17.4632   22.6926 C   0  0  0  0  0  0  0  0  0  0  0  0
  -31.6931  -19.5185   22.5426 C   0  0  0  0  0  0  0  0  0  0  0  0
  -31.6265  -17.9085   20.6384 C   0  0  0  0  0  0  0  0  0  0  0  0
  -28.0508  -23.3467   18.5140 C   0  0  0  0  0  0  0  0  0  0  0  0
  -21.2225  -22.2402   25.4307 C   0  0  0  0  0  0  0  0  0  0  0  0
  -21.5639  -21.3675   24.2325 C   0  0  0  0  0  0  0  0  0  1  0  0
  -29.6198  -19.3790   21.0890 C   0  0  1  0  0  0  0  0  0  0  0  0
  -30.3233  -22.6202   19.2535 C   0  0  2  0  0  0  0  0  0  0  0  0
  -19.0273  -21.0886   25.7392 C   0  0  0  0  0  0  0  0  0  0  0  0
  -30.7745  -18.5694   21.7438 C   0  0  0  0  0  0  0  0  0  0  0  0
  -23.3912  -28.4497   23.1226 N   0  0  0  0  0  0  0  0  0  0  0  0
  -22.2147  -29.0843   23.2612 N   0  0  0  0  0  0  0  0  0  0  0  0
  -27.3332  -18.5014   20.7347 N   0  0  0  0  0  0  0  0  0  0  0  0
  -20.9839  -27.5813   26.5529 N   0  0  0  0  0  0  0  0  0  0  0  0
  -20.6619  -30.4564   22.1137 N   0  0  0  0  0  0  0  0  0  0  0  0
  -22.2432  -29.3282   18.8549 N   0  0  0  0  0  0  0  0  0  0  0  0
  -25.5840  -15.3032   20.6479 N   0  0  0  0  0  0  0  0  0  0  0  0
  -30.0662  -20.4157   20.1647 N   0  0  0  0  0  0  0  0  0  0  0  0
  -19.7202  -25.6706   25.9647 N   0  0  0  0  0  0  0  0  0  0  0  0
  -29.4084  -23.7582   18.9552 N   0  3  0  0  0  0  0  0  0  0  0  0
  -23.3541  -31.1896   19.6033 O   0  0  0  0  0  0  0  0  0  0  0  0
  -27.0078  -16.3887   22.1369 O   0  0  0  0  0  0  0  0  0  0  0  0
  -29.0967  -17.8429   19.3589 O   0  0  0  0  0  0  0  0  0  0  0  0
  -29.0543  -22.1892   21.2638 O   0  0  0  0  0  0  0  0  0  0  0  0
  -19.4455  -26.6521   28.0185 O   0  0  0  0  0  0  0  0  0  0  0  0
  -28.5449  -26.7682   19.7821 O   0  0  0  0  0  0  0  0  0  0  0  0
  -22.9796  -21.1981   24.1737 O   0  0  0  0  0  0  0  0  0  1  0  0
  -33.2343  -29.1258   21.4716 F   0  0  0  0  0  0  0  0  0  0  0  0
  -30.2532  -27.9803   17.9779 F   0  0  0  0  0  0  0  0  0  0  0  0
  1  2  1  0  0  0  0
  1  5  2  0  0  0  0
  2  6  2  0  0  0  0
  3  8  2  0  0  0  0
  3 15  1  0  0  0  0
  4  9  1  0  0  0  0
  4 15  2  0  0  0  0
  5 17  1  0  0  0  0
  6 19  1  0  0  0  0
  7 10  2  0  0  0  0
  7 18  1  0  0  0  0
  8 21  1  0  0  0  0
  9 21  2  0  0  0  0
 10 22  1  0  0  0  0
 11 12  2  0  0  0  0
 11 23  1  0  0  0  0
 12 24  1  0  0  0  0
 13 20  1  0  0  0  0
 13 22  2  0  0  0  0
 14 24  2  0  0  0  0
 14 25  1  0  0  0  0
 15 26  1  0  0  0  0
 16 26  1  0  0  0  0
 16 27  2  0  0  0  0
 16 28  1  0  0  0  0
 17 19  2  0  0  0  0
 17 33  1  0  0  0  0
 18 20  2  0  0  0  0
 18 34  1  0  0  0  0
 19 45  1  0  0  0  0
 20 35  1  0  0  0  0
 21 78  1  0  0  0  0
 22 79  1  0  0  0  0
 23 25  2  0  0  0  0
 23 78  1  0  0  0  0
 24 80  1  0  0  0  0
 25 81  1  0  0  0  0
 26 63  2  0  0  0  0
 27 64  1  0  0  0  0
 27 67  1  0  0  0  0
 28 68  1  0  0  0  0
 28 73  2  0  0  0  0
 29 46  1  0  0  0  0
 29 69  1  0  0  0  0
 29 74  2  0  0  0  0
 30 59  1  0  0  0  0
 30 65  1  0  0  0  0
 30 75  2  0  0  0  0
 31 60  1  0  0  0  0
 31 70  1  0  0  0  0
 31 76  2  0  0  0  0
 32 66  1  0  0  0  0
 32 71  1  0  0  0  0
 32 77  2  0  0  0  0
 33 36  1  0  0  0  0
 34 46  1  0  0  0  0
 35 65  1  0  0  0  0
 36 38  1  0  0  0  0
 37 39  1  0  0  0  0
 37 43  1  0  0  0  0
 38 45  1  0  0  0  0
 39 47  1  0  0  0  0
 40 41  1  0  0  0  0
 40 48  1  0  0  0  0
 41 49  1  0  0  0  0
 42 48  1  0  0  0  0
 42 49  1  0  0  0  0
 43 66  1  0  0  0  0
 44 47  1  0  0  0  0
 44 66  1  0  0  0  0
 45 69  1  0  0  0  0
 46 65  1  0  0  0  0
 47 64  1  0  0  0  0
 48 71  1  0  0  0  0
 49 57  1  0  0  0  0
 49 61  1  0  0  0  0
 50 60  1  0  0  0  0
 51 61  1  0  0  0  0
 52 61  1  0  0  0  0
 53 62  1  0  0  0  0
 54 62  1  0  0  0  0
 55 62  1  0  0  0  0
 56 72  1  0  0  0  0
 57 58  1  0  0  0  0
 58 79  1  0  0  0  0
 59 62  1  0  0  0  0
 59 70  1  0  0  0  0
 60 72  1  0  0  0  0
 63 64  1  0  0  0  0
M  CHG  1  72   1
M  ISO  4  32 100  58 101  71 100  79 101
M  END
> <Batch ID>
0017

> <Smiles>
CNC(C)C(=O)NC(C(=O)N1Cc2cc([101O:1][101CH2:1]CC3(C(C)C)CCC([100NH:0][100C:0](=O)N4CCCC(n5nc(-c6ccc(Oc7ccc(F)cc7F)cc6)c(C(N)=O)c5N)C4)C3)ccc2CC1C(=O)NC1CCCc2ccccc21)C(C)(C)C

> <Shape>
0.215

> <Color>
0.087

> <Negative vol penalty>
0.000

$$$$

  -OEChem-04052316013D

 84 92  0     1  0  0  0  0  0999 V2000
  -22.5322   -7.2705   24.2597 C   0  0  0  0  0  0  0  0  0  0  0  0
  -23.7518   -7.8952   24.4998 C   0  0  0  0  0  0  0  0  0  0  0  0
  -24.7765  -30.1643   22.6028 C   0  0  0  0  0  0  0  0  0  0  0  0
  -26.4121  -31.4451   21.3694 C   0  0  0  0  0  0  0  0  0  0  0  0
  -21.8833   -7.4563   23.0397 C   0  0  0  0  0  0  0  0  0  0  0  0
  -24.3239   -8.7052   23.5194 C   0  0  0  0  0  0  0  0  0  0  0  0
  -28.3617  -14.5767   22.7860 C   0  0  0  0  0  0  0  0  0  0  0  0
  -24.5617  -31.2527   23.4483 C   0  0  0  0  0  0  0  0  0  0  0  0
  -26.1973  -32.5336   22.2148 C   0  0  0  0  0  0  0  0  0  0  0  0
  -29.5210  -15.0137   22.1465 C   0  0  0  0  0  0  0  0  0  0  0  0
  -26.0935  -32.6893   26.0967 C   0  0  0  0  0  0  0  0  0  0  0  0
  -26.0322  -32.4416   27.4679 C   0  0  0  0  0  0  0  0  0  0  0  0
  -28.2711  -15.3253   20.1069 C   0  0  0  0  0  0  0  0  0  0  0  0
  -23.7843  -33.3253   27.5270 C   0  0  0  0  0  0  0  0  0  0  0  0
  -25.7018  -30.2604   21.5634 C   0  0  0  0  0  0  0  0  0  0  0  0
  -25.2483  -28.8448   19.4903 C   0  0  0  0  0  0  0  0  0  0  0  0
  -22.4431   -8.2767   22.0476 C   0  0  0  0  0  0  0  0  0  0  0  0
  -27.1487  -14.5002   22.0866 C   0  0  0  0  0  0  0  0  0  0  0  0
  -23.6826   -8.9010   22.2845 C   0  0  0  0  0  0  0  0  0  0  0  0
  -27.0974  -14.8895   20.7405 C   0  0  0  0  0  0  0  0  0  0  0  0
  -25.2720  -32.4373   23.2543 C   0  0  0  0  0  0  0  0  0  0  0  0
  -29.4764  -15.3853   20.8060 C   0  0  0  0  0  0  0  0  0  0  0  0
  -25.0003  -33.2551   25.4405 C   0  0  0  0  0  0  0  0  0  0  0  0
  -24.8776  -32.7596   28.1831 C   0  0  0  0  0  0  0  0  0  0  0  0
  -23.8457  -33.5731   26.1557 C   0  0  0  0  0  0  0  0  0  0  0  0
  -25.9246  -29.1363   20.6901 C   0  0  0  0  0  0  0  0  0  0  0  0
  -25.8254  -27.6806   19.0450 C   0  0  0  0  0  0  0  0  0  0  0  0
  -24.1930  -29.5622   18.8367 C   0  0  0  0  0  0  0  0  0  0  0  0
  -25.1450  -12.1545   21.3208 C   0  0  0  0  0  0  0  0  0  0  0  0
  -23.3193  -14.5995   20.2201 C   0  0  0  0  0  0  0  0  0  0  0  0
  -23.1652  -17.8025   19.0523 C   0  0  0  0  0  0  0  0  0  0  0  0
  -27.7191  -22.7140   19.7365 C   0  0  0  0  0  0  0  0  0  0  0  0
  -21.7276   -8.4094   20.7265 C   0  0  0  0  0  0  0  0  0  0  0  0
  -25.9015  -14.0522   22.7981 C   0  0  0  0  0  0  0  0  0  0  0  0
  -25.8158  -14.8451   19.9505 C   0  0  0  0  0  0  0  0  0  0  0  0
  -22.2188   -9.5831   19.8831 C   0  0  0  0  0  0  0  0  0  0  0  0
  -29.9735  -25.2476   20.5914 C   0  0  0  0  0  0  0  0  0  0  0  0
  -23.7435   -9.6146   19.8487 C   0  0  0  0  0  0  0  0  0  0  0  0
  -29.0636  -26.4757   20.5964 C   0  0  0  0  0  0  0  0  0  0  0  0
  -30.3153  -20.4289   21.1733 C   0  0  0  0  0  0  0  0  0  0  0  0
  -29.7659  -19.7560   18.8067 C   0  0  0  0  0  0  0  0  0  0  0  0
  -29.2935  -24.0287   21.2174 C   0  0  0  0  0  0  0  0  0  0  0  0
  -28.9604  -21.1239   21.2642 C   0  0  0  0  0  0  0  0  0  0  0  0
  -27.0683  -24.9314   20.6262 C   0  0  0  0  0  0  0  0  0  0  0  0
  -24.3231   -9.8070   21.2554 C   0  0  1  0  0  0  0  0  0  0  0  0
  -24.8292  -13.5250   21.8496 C   0  0  1  0  0  0  0  0  0  0  0  0
  -27.7027  -26.1576   19.9516 C   0  0  1  0  0  0  0  0  0  0  0  0
  -30.2646  -19.2810   20.1696 C   0  0  1  0  0  0  0  0  0  0  0  0
  -28.4151  -20.4837   18.9066 C   0  0  1  0  0  0  0  0  0  0  0  0
  -27.2505  -19.5148   19.1345 C   0  0  0  0  0  0  0  0  0  0  0  0
  -21.5384  -19.5116   18.1979 C   0  0  0  0  0  0  0  0  0  0  0  0
  -33.7307  -18.1982   21.1814 C   0  0  0  0  0  0  0  0  0  0  0  0
  -31.6196  -16.9045   21.6754 C   0  0  0  0  0  0  0  0  0  0  0  0
  -31.7785  -18.2761   17.6062 C   0  0  0  0  0  0  0  0  0  0  0  0
  -23.1770  -13.1266   17.5517 C   0  0  0  0  0  0  0  0  0  0  0  0
  -22.3881  -15.2562   16.4977 C   0  0  0  0  0  0  0  0  0  0  0  0
  -21.0254  -14.1707   18.2830 C   0  0  0  0  0  0  0  0  0  0  0  0
  -23.8051  -19.6795   21.2492 C   0  0  0  0  0  0  0  0  0  0  0  0
  -30.4458  -16.7529   19.1191 C   0  0  0  0  0  0  0  0  0  1  0  0
  -23.1868  -15.3263   18.9036 C   0  0  1  0  0  0  0  0  0  0  0  0
  -22.2620  -18.9661   19.4193 C   0  0  2  0  0  0  0  0  0  0  0  0
  -32.2184  -18.2572   21.3252 C   0  0  0  0  0  0  0  0  0  0  0  0
  -31.6893  -17.6233   18.9760 C   0  0  2  0  0  0  0  0  0  0  0  0
  -22.4690  -14.4691   17.8231 C   0  0  0  0  0  0  0  0  0  0  0  0
  -26.8596  -28.2303   20.9882 N   0  0  0  0  0  0  0  0  0  0  0  0
  -26.7750  -27.3580   19.9693 N   0  0  0  0  0  0  0  0  0  0  0  0
  -24.6246  -14.3940   20.6888 N   0  0  0  0  0  0  0  0  0  0  0  0
  -27.9832  -23.7886   20.5984 N   0  0  0  0  0  0  0  0  0  0  0  0
  -28.4623  -21.5361   19.9402 N   0  0  0  0  0  0  0  0  0  0  0  0
  -25.6081  -26.9117   17.9569 N   0  0  0  0  0  0  0  0  0  0  0  0
  -23.7178  -30.7394   19.4305 N   0  0  0  0  0  0  0  0  0  0  0  0
  -24.2144  -11.1917   21.6618 N   0  0  0  0  0  0  0  0  0  0  0  0
  -22.5234  -16.5912   19.2006 N   0  0  0  0  0  0  0  0  0  0  0  0
  -23.0594  -20.0698   20.0251 N   0  3  0  0  0  0  0  0  0  0  0  0
  -31.6310  -18.7152   20.0142 N   0  3  1  0  0  0  0  0  0  0  0  0
  -23.6751  -29.1621   17.7665 O   0  0  0  0  0  0  0  0  0  0  0  0
  -26.1572  -11.9836   20.6515 O   0  0  0  0  0  0  0  0  0  0  0  0
  -22.3019  -14.2342   20.8143 O   0  0  0  0  0  0  0  0  0  0  0  0
  -24.3231  -17.9533   18.6686 O   0  0  0  0  0  0  0  0  0  0  0  0
  -26.8740  -22.8017   18.8369 O   0  0  0  0  0  0  0  0  0  0  0  0
  -25.0625  -33.4997   24.0789 O   0  0  0  0  0  0  0  0  0  0  0  0
  -30.6142  -15.8145   20.1750 O   0  0  0  0  0  0  0  0  0  1  0  0
  -24.8182  -32.5202   29.4997 F   0  0  0  0  0  0  0  0  0  0  0  0
  -22.7919  -34.1157   25.5306 F   0  0  0  0  0  0  0  0  0  0  0  0
  1  2  1  0  0  0  0
  1  5  2  0  0  0  0
  2  6  2  0  0  0  0
  3  8  2  0  0  0  0
  3 15  1  0  0  0  0
  4  9  1  0  0  0  0
  4 15  2  0  0  0  0
  5 17  1  0  0  0  0
  6 19  1  0  0  0  0
  7 10  2  0  0  0  0
  7 18  1  0  0  0  0
  8 21  1  0  0  0  0
  9 21  2  0  0  0  0
 10 22  1  0  0  0  0
 11 12  2  0  0  0  0
 11 23  1  0  0  0  0
 12 24  1  0  0  0  0
 13 20  1  0  0  0  0
 13 22  2  0  0  0  0
 14 24  2  0  0  0  0
 14 25  1  0  0  0  0
 15 26  1  0  0  0  0
 16 26  1  0  0  0  0
 16 27  2  0  0  0  0
 16 28  1  0  0  0  0
 17 19  2  0  0  0  0
 17 33  1  0  0  0  0
 18 20  2  0  0  0  0
 18 34  1  0  0  0  0
 19 45  1  0  0  0  0
 20 35  1  0  0  0  0
 21 81  1  0  0  0  0
 22 82  1  0  0  0  0
 23 25  2  0  0  0  0
 23 81  1  0  0  0  0
 24 83  1  0  0  0  0
 25 84  1  0  0  0  0
 26 65  2  0  0  0  0
 27 66  1  0  0  0  0
 27 70  1  0  0  0  0
 28 71  1  0  0  0  0
 28 76  2  0  0  0  0
 29 46  1  0  0  0  0
 29 72  1  0  0  0  0
 29 77  2  0  0  0  0
 30 60  1  0  0  0  0
 30 67  1  0  0  0  0
 30 78  2  0  0  0  0
 31 61  1  0  0  0  0
 31 73  1  0  0  0  0
 31 79  2  0  0  0  0
 32 68  1  0  0  0  0
 32 69  1  0  0  0  0
 32 80  2  0  0  0  0
 33 36  1  0  0  0  0
 34 46  1  0  0  0  0
 35 67  1  0  0  0  0
 36 38  1  0  0  0  0
 37 39  1  0  0  0  0
 37 42  1  0  0  0  0
 38 45  1  0  0  0  0
 39 47  1  0  0  0  0
 40 43  1  0  0  0  0
 40 48  1  0  0  0  0
 41 48  1  0  0  0  0
 41 49  1  0  0  0  0
 42 68  1  0  0  0  0
 43 69  1  0  0  0  0
 44 47  1  0  0  0  0
 44 68  1  0  0  0  0
 45 72  1  0  0  0  0
 46 67  1  0  0  0  0
 47 66  1  0  0  0  0
 48 75  1  0  0  0  0
 49 50  1  0  0  0  0
 49 69  1  0  0  0  0
 51 61  1  0  0  0  0
 52 62  1  0  0  0  0
 53 62  1  0  0  0  0
 54 63  1  0  0  0  0
 55 64  1  0  0  0  0
 56 64  1  0  0  0  0
 57 64  1  0  0  0  0
 58 74  1  0  0  0  0
 59 63  1  0  0  0  0
 59 82  1  0  0  0  0
 60 64  1  0  0  0  0
 60 73  1  0  0  0  0
 61 74  1  0  0  0  0
 62 75  1  0  0  0  0
 63 75  1  0  0  0  0
 65 66  1  0  0  0  0
M  CHG  2  74   1  75   1
M  ISO  4  32 100  59 101  69 100  82 101
M  END
> <Batch ID>
0017

> <Smiles>
CNC(C)C(=O)NC(C(=O)N1Cc2cc([101O:1][101CH2:1]C(C)N(C(C)C)C3CC[100N:0]([100C:0](=O)N4CCCC(n5nc(-c6ccc(Oc7ccc(F)cc7F)cc6)c(C(N)=O)c5N)C4)C(C)C3)ccc2CC1C(=O)NC1CCCc2ccccc21)C(C)(C)C

> <Shape>
0.274

> <Color>
0.073

> <Negative vol penalty>
0.000

$$$$

  -OEChem-04052316013D

 82 90  0     1  0  0  0  0  0999 V2000
  -28.1507  -37.0331   21.2735 C   0  0  0  0  0  0  0  0  0  0  0  0
  -28.5503  -35.7140   21.0851 C   0  0  0  0  0  0  0  0  0  0  0  0
  -26.8728  -12.7093   21.7992 C   0  0  0  0  0  0  0  0  0  0  0  0
  -26.2255  -14.3159   20.1150 C   0  0  0  0  0  0  0  0  0  0  0  0
  -27.0363  -37.3169   22.0619 C   0  0  0  0  0  0  0  0  0  0  0  0
  -27.8363  -34.6778   21.6858 C   0  0  0  0  0  0  0  0  0  0  0  0
  -26.8488  -29.0811   19.4037 C   0  0  0  0  0  0  0  0  0  0  0  0
  -25.5550  -12.2587   21.8759 C   0  0  0  0  0  0  0  0  0  0  0  0
  -24.9076  -13.8653   20.1917 C   0  0  0  0  0  0  0  0  0  0  0  0
  -27.4734  -27.8544   19.6247 C   0  0  0  0  0  0  0  0  0  0  0  0
  -22.4303  -10.4400   22.2547 C   0  0  0  0  0  0  0  0  0  0  0  0
  -22.2163   -9.0618   22.2765 C   0  0  0  0  0  0  0  0  0  0  0  0
  -25.7810  -27.2923   21.2493 C   0  0  0  0  0  0  0  0  0  0  0  0
  -30.3470  -22.6444   21.9267 C   0  0  0  0  0  0  0  0  0  0  0  0
  -23.2902   -8.8612   20.1215 C   0  0  0  0  0  0  0  0  0  0  0  0
  -27.2081  -13.7379   20.9188 C   0  0  0  0  0  0  0  0  0  0  0  0
  -29.5842  -13.7237   19.9906 C   0  0  0  0  0  0  0  0  0  0  0  0
  -26.3025  -36.2830   22.6647 C   0  0  0  0  0  0  0  0  0  0  0  0
  -25.6899  -29.4278   20.1129 C   0  0  0  0  0  0  0  0  0  0  0  0
  -26.7118  -34.9480   22.4840 C   0  0  0  0  0  0  0  0  0  0  0  0
  -25.1422  -28.5230   21.0335 C   0  0  0  0  0  0  0  0  0  0  0  0
  -29.8780  -23.9143   21.5906 C   0  0  0  0  0  0  0  0  0  0  0  0
  -29.2295  -24.1186   20.3727 C   0  0  0  0  0  0  0  0  0  0  0  0
  -29.0499  -23.0528   19.4908 C   0  0  0  0  0  0  0  0  0  0  0  0
  -30.1675  -21.5787   21.0448 C   0  0  0  0  0  0  0  0  0  0  0  0
  -24.5724  -12.8367   21.0722 C   0  0  0  0  0  0  0  0  0  0  0  0
  -26.9411  -26.9610   20.5497 C   0  0  0  0  0  0  0  0  0  0  0  0
  -23.0741  -11.0288   21.1663 C   0  0  0  0  0  0  0  0  0  0  0  0
  -22.6463   -8.2724   21.2099 C   0  0  0  0  0  0  0  0  0  0  0  0
  -23.5040  -10.2394   20.0998 C   0  0  0  0  0  0  0  0  0  0  0  0
  -29.5190  -21.7829   19.8269 C   0  0  0  0  0  0  0  0  0  0  0  0
  -28.5691  -14.2042   20.8395 C   0  0  0  0  0  0  0  0  0  0  0  0
  -30.6812  -14.4904   20.2992 C   0  0  0  0  0  0  0  0  0  0  0  0
  -29.5395  -12.6780   19.0108 C   0  0  0  0  0  0  0  0  0  0  0  0
  -24.9184  -31.7337   22.1601 C   0  0  0  0  0  0  0  0  0  0  0  0
  -21.9511  -30.4532   21.8814 C   0  0  0  0  0  0  0  0  0  0  0  0
  -20.0269  -27.7351   21.1357 C   0  0  0  0  0  0  0  0  0  0  0  0
  -31.3167  -19.9671   22.6031 C   0  0  0  0  0  0  0  0  0  0  0  0
  -25.1329  -36.6418   23.5467 C   0  0  0  0  0  0  0  0  0  0  0  0
  -25.0130  -30.7437   19.8435 C   0  0  0  0  0  0  0  0  0  0  0  0
  -23.8884  -28.8388   21.8060 C   0  0  0  0  0  0  0  0  0  0  0  0
  -24.2088  -35.4632   23.8422 C   0  0  0  0  0  0  0  0  0  0  0  0
  -32.6423  -16.9361   23.9196 C   0  0  0  0  0  0  0  0  0  0  0  0
  -25.0210  -34.2342   24.2383 C   0  0  0  0  0  0  0  0  0  0  0  0
  -31.8448  -15.8477   23.1974 C   0  0  0  0  0  0  0  0  0  0  0  0
  -31.7782  -18.1546   24.2393 C   0  0  0  0  0  0  0  0  0  0  0  0
  -30.2594  -17.6339   22.3708 C   0  0  0  0  0  0  0  0  0  0  0  0
  -25.9483  -33.7950   23.0987 C   0  0  1  0  0  0  0  0  0  0  0  0
  -24.1276  -31.2072   20.9960 C   0  0  1  0  0  0  0  0  0  0  0  0
  -31.1035  -16.4130   21.9700 C   0  0  2  0  0  0  0  0  0  0  0  0
  -30.0838  -25.0388   22.5525 C   0  0  0  0  0  0  0  0  0  0  0  0
  -26.8421  -23.4053   18.3560 C   0  0  0  0  0  0  0  0  0  0  0  0
  -17.6350  -26.9824   21.0357 C   0  0  0  0  0  0  0  0  0  0  0  0
  -21.8933  -30.2403   24.9246 C   0  0  0  0  0  0  0  0  0  0  0  0
  -19.9658  -28.6573   24.7077 C   0  0  0  0  0  0  0  0  0  0  0  0
  -19.7478  -31.0044   23.8914 C   0  0  0  0  0  0  0  0  0  0  0  0
  -20.2034  -27.1743   18.2351 C   0  0  0  0  0  0  0  0  0  0  0  0
  -28.3527  -23.2935   18.1873 C   0  0  0  0  0  0  0  0  0  0  0  0
  -28.7290  -25.4869   20.0142 C   0  0  0  0  0  0  0  0  0  1  0  0
  -21.1818  -29.3711   22.5999 C   0  0  1  0  0  0  0  0  0  0  0  0
  -18.7972  -27.5814   20.2589 C   0  0  2  0  0  0  0  0  0  0  0  0
  -20.7219  -29.8129   24.0179 C   0  0  0  0  0  0  0  0  0  0  0  0
  -28.9843  -15.1990   21.6281 N   0  0  0  0  0  0  0  0  0  0  0  0
  -30.2725  -15.3498   21.2762 N   0  0  0  0  0  0  0  0  0  0  0  0
  -23.2670  -30.1407   21.5119 N   0  0  0  0  0  0  0  0  0  0  0  0
  -31.1105  -18.6377   23.0287 N   0  0  0  0  0  0  0  0  0  0  0  0
  -31.9460  -14.5065   19.8274 N   0  0  0  0  0  0  0  0  0  0  0  0
  -28.3324  -11.9915   18.8210 N   0  0  0  0  0  0  0  0  0  0  0  0
  -30.6564  -20.3033   21.4218 N   0  0  0  0  0  0  0  0  0  0  0  0
  -25.2004  -33.0843   22.0839 N   0  0  0  0  0  0  0  0  0  0  0  0
  -20.0910  -28.9867   21.7107 N   0  0  0  0  0  0  0  0  0  0  0  0
  -19.0952  -26.6934   19.0998 N   0  3  0  0  0  0  0  0  0  0  0  0
  -30.5447  -12.3506   18.3356 O   0  0  0  0  0  0  0  0  0  0  0  0
  -25.2470  -30.9713   23.0615 O   0  0  0  0  0  0  0  0  0  0  0  0
  -21.4021  -31.5334   21.6499 O   0  0  0  0  0  0  0  0  0  0  0  0
  -20.8465  -26.8336   21.2975 O   0  0  0  0  0  0  0  0  0  0  0  0
  -32.0486  -20.7414   23.2250 O   0  0  0  0  0  0  0  0  0  0  0  0
  -23.2864  -12.3971   21.1466 O   0  0  0  0  0  0  0  0  0  0  0  0
  -27.5491  -25.7632   20.7679 O   0  0  0  0  0  0  0  0  0  1  0  0
  -22.4422   -6.9488   21.2316 F   0  0  0  0  0  0  0  0  0  0  0  0
  -24.1242  -10.7992   19.0520 F   0  0  0  0  0  0  0  0  0  0  0  0
  -29.2937  -20.4586   18.7297 Cl  0  0  0  0  0  0  0  0  0  0  0  0
  1  2  1  0  0  0  0
  1  5  2  0  0  0  0
  2  6  2  0  0  0  0
  3  8  2  0  0  0  0
  3 16  1  0  0  0  0
  4  9  1  0  0  0  0
  4 16  2  0  0  0  0
  5 18  1  0  0  0  0
  6 20  1  0  0  0  0
  7 10  2  0  0  0  0
  7 19  1  0  0  0  0
  8 26  1  0  0  0  0
  9 26  2  0  0  0  0
 10 27  1  0  0  0  0
 11 12  2  0  0  0  0
 11 28  1  0  0  0  0
 12 29  1  0  0  0  0
 13 21  1  0  0  0  0
 13 27  2  0  0  0  0
 14 22  2  0  0  0  0
 14 25  1  0  0  0  0
 15 29  2  0  0  0  0
 15 30  1  0  0  0  0
 16 32  1  0  0  0  0
 17 32  1  0  0  0  0
 17 33  2  0  0  0  0
 17 34  1  0  0  0  0
 18 20  2  0  0  0  0
 18 39  1  0  0  0  0
 19 21  2  0  0  0  0
 19 40  1  0  0  0  0
 20 48  1  0  0  0  0
 21 41  1  0  0  0  0
 22 23  1  0  0  0  0
 22 51  1  0  0  0  0
 23 24  2  0  0  0  0
 23 59  1  0  0  0  0
 24 31  1  0  0  0  0
 24 58  1  0  0  0  0
 25 31  2  0  0  0  0
 25 69  1  0  0  0  0
 26 78  1  0  0  0  0
 27 79  1  0  0  0  0
 28 30  2  0  0  0  0
 28 78  1  0  0  0  0
 29 80  1  0  0  0  0
 30 81  1  0  0  0  0
 31 82  1  0  0  0  0
 32 63  2  0  0  0  0
 33 64  1  0  0  0  0
 33 67  1  0  0  0  0
 34 68  1  0  0  0  0
 34 73  2  0  0  0  0
 35 49  1  0  0  0  0
 35 70  1  0  0  0  0
 35 74  2  0  0  0  0
 36 60  1  0  0  0  0
 36 65  1  0  0  0  0
 36 75  2  0  0  0  0
 37 61  1  0  0  0  0
 37 71  1  0  0  0  0
 37 76  2  0  0  0  0
 38 66  1  0  0  0  0
 38 69  1  0  0  0  0
 38 77  2  0  0  0  0
 39 42  1  0  0  0  0
 40 49  1  0  0  0  0
 41 65  1  0  0  0  0
 42 44  1  0  0  0  0
 43 45  1  0  0  0  0
 43 46  1  0  0  0  0
 44 48  1  0  0  0  0
 45 50  1  0  0  0  0
 46 66  1  0  0  0  0
 47 50  1  0  0  0  0
 47 66  1  0  0  0  0
 48 70  1  0  0  0  0
 49 65  1  0  0  0  0
 50 64  1  0  0  0  0
 52 58  1  0  0  0  0
 53 61  1  0  0  0  0
 54 62  1  0  0  0  0
 55 62  1  0  0  0  0
 56 62  1  0  0  0  0
 57 72  1  0  0  0  0
 59 79  1  0  0  0  0
 60 62  1  0  0  0  0
 60 71  1  0  0  0  0
 61 72  1  0  0  0  0
 63 64  1  0  0  0  0
M  CHG  1  72   1
M  ISO  4  38 100  59 101  69 100  79 101
M  END
> <Batch ID>
0017

> <Smiles>
CCc1c(Cl)c([100NH:0][100C:0](=O)N2CCCC(n3nc(-c4ccc(Oc5ccc(F)cc5F)cc4)c(C(N)=O)c3N)C2)cc(C)c1[101CH2:1][101O:1]c1ccc2c(c1)CN(C(=O)C(NC(=O)C(C)NC)C(C)(C)C)C(C(=O)NC1CCCc3ccccc31)C2

> <Shape>
0.349

> <Color>
0.079

> <Negative vol penalty>
0.000

$$$$

  -OEChem-04052316013D

 88 96  0     1  0  0  0  0  0999 V2000
  -30.7513  -26.5830   16.6966 C   0  0  0  0  0  0  0  0  0  0  0  0
  -29.3733  -26.4376   16.8211 C   0  0  0  0  0  0  0  0  0  0  0  0
  -26.4648  -13.3212   20.2985 C   0  0  0  0  0  0  0  0  0  0  0  0
  -24.0733  -13.5510   20.5537 C   0  0  0  0  0  0  0  0  0  0  0  0
  -20.9331  -22.7369   24.2196 C   0  0  0  0  0  0  0  0  0  0  0  0
  -31.5039  -27.0365   17.7791 C   0  0  0  0  0  0  0  0  0  0  0  0
  -28.7473  -26.7446   18.0287 C   0  0  0  0  0  0  0  0  0  0  0  0
  -23.1746  -29.1728   18.7736 C   0  0  0  0  0  0  0  0  0  0  0  0
  -22.0273  -22.3253   23.4587 C   0  0  0  0  0  0  0  0  0  0  0  0
  -26.4109  -12.0726   20.9178 C   0  0  0  0  0  0  0  0  0  0  0  0
  -24.0194  -12.3023   21.1730 C   0  0  0  0  0  0  0  0  0  0  0  0
  -21.9360  -28.6052   19.0690 C   0  0  0  0  0  0  0  0  0  0  0  0
  -24.0578   -9.0555   20.2364 C   0  0  0  0  0  0  0  0  0  0  0  0
  -23.0488   -8.1789   19.8375 C   0  0  0  0  0  0  0  0  0  0  0  0
  -22.2687  -29.1093   21.4044 C   0  0  0  0  0  0  0  0  0  0  0  0
  -22.1908   -8.1389   22.0957 C   0  0  0  0  0  0  0  0  0  0  0  0
  -25.2960  -14.0604   20.1164 C   0  0  0  0  0  0  0  0  0  0  0  0
  -19.6821  -22.1551   24.0142 C   0  0  0  0  0  0  0  0  0  0  0  0
  -25.2303  -15.6236   18.1015 C   0  0  0  0  0  0  0  0  0  0  0  0
  -30.8856  -27.3584   18.9976 C   0  0  0  0  0  0  0  0  0  0  0  0
  -23.9758  -29.7040   19.7945 C   0  0  0  0  0  0  0  0  0  0  0  0
  -29.4925  -27.2015   19.1290 C   0  0  0  0  0  0  0  0  0  0  0  0
  -23.5160  -29.6854   21.1190 C   0  0  0  0  0  0  0  0  0  0  0  0
  -21.8704  -21.3318   22.4923 C   0  0  0  0  0  0  0  0  0  0  0  0
  -25.1883  -11.5631   21.3551 C   0  0  0  0  0  0  0  0  0  0  0  0
  -21.4841  -28.5707   20.3849 C   0  0  0  0  0  0  0  0  0  0  0  0
  -24.1334   -9.4737   21.5650 C   0  0  0  0  0  0  0  0  0  0  0  0
  -22.1153   -7.7207   20.7671 C   0  0  0  0  0  0  0  0  0  0  0  0
  -23.1999   -9.0155   22.4946 C   0  0  0  0  0  0  0  0  0  0  0  0
  -19.5253  -21.1616   23.0477 C   0  0  0  0  0  0  0  0  0  0  0  0
  -20.6194  -20.7499   22.2867 C   0  0  0  0  0  0  0  0  0  0  0  0
  -25.3511  -15.3506   19.4773 C   0  0  0  0  0  0  0  0  0  0  0  0
  -25.3509  -16.9887   18.0104 C   0  0  0  0  0  0  0  0  0  0  0  0
  -18.5652  -22.6375   24.8525 C   0  0  0  0  0  0  0  0  0  0  0  0
  -25.0272  -14.7236   17.0040 C   0  0  0  0  0  0  0  0  0  0  0  0
  -17.7820  -23.6755   24.4667 C   0  0  0  0  0  0  0  0  0  0  0  0
  -26.8614  -29.0456   20.9536 C   0  0  0  0  0  0  0  0  0  0  0  0
  -26.3353  -31.7173   22.7164 C   0  0  0  0  0  0  0  0  0  0  0  0
  -24.0860  -33.8790   24.1001 C   0  0  0  0  0  0  0  0  0  0  0  0
  -24.3042  -21.4446   21.8516 C   0  0  0  0  0  0  0  0  0  0  0  0
  -31.7468  -27.7998   20.1544 C   0  0  0  0  0  0  0  0  0  0  0  0
  -25.2977  -30.3368   19.4559 C   0  0  0  0  0  0  0  0  0  0  0  0
  -24.3291  -30.2606   22.2489 C   0  0  0  0  0  0  0  0  0  0  0  0
  -30.9591  -28.4605   21.2828 C   0  0  0  0  0  0  0  0  0  0  0  0
  -27.3825  -20.7239   20.2140 C   0  0  0  0  0  0  0  0  0  0  0  0
  -29.7183  -27.6396   21.6195 C   0  0  0  0  0  0  0  0  0  0  0  0
  -27.1976  -19.2911   19.7087 C   0  0  0  0  0  0  0  0  0  0  0  0
  -26.7206  -20.9353   21.5744 C   0  0  0  0  0  0  0  0  0  0  0  0
  -25.1217  -19.1123   21.1391 C   0  0  0  0  0  0  0  0  0  0  0  0
  -28.7739  -27.5479   20.4149 C   0  0  1  0  0  0  0  0  0  0  0  0
  -26.2578  -30.3854   20.6405 C   0  0  1  0  0  0  0  0  0  0  0  0
  -25.7157  -18.8686   19.7421 C   0  0  2  0  0  0  0  0  0  0  0  0
  -18.4121  -21.8510   26.1293 C   0  0  0  0  0  0  0  0  0  0  0  0
  -15.3289  -23.5071   25.0356 C   0  0  0  0  0  0  0  0  0  0  0  0
  -23.9553  -35.9458   25.5173 C   0  0  0  0  0  0  0  0  0  0  0  0
  -26.9641  -30.0539   25.1959 C   0  0  0  0  0  0  0  0  0  0  0  0
  -25.9135  -31.8532   26.5840 C   0  0  0  0  0  0  0  0  0  0  0  0
  -27.9347  -32.3587   25.2122 C   0  0  0  0  0  0  0  0  0  0  0  0
  -22.7454  -35.4088   21.9503 C   0  0  0  0  0  0  0  0  0  0  0  0
  -16.6488  -24.2078   25.3269 C   0  0  0  0  0  0  0  0  0  0  0  0
  -17.9509  -24.4135   23.1448 C   0  0  0  0  0  0  0  0  0  0  0  0
  -18.9459  -25.5756   23.2469 C   0  0  0  0  0  0  0  0  0  0  0  0
  -19.1217  -26.2716   21.8932 C   0  0  0  0  0  0  0  0  0  0  0  0
  -20.1270  -27.4148   21.9591 C   0  0  0  0  0  0  0  0  0  1  0  0
  -25.7117  -32.0056   24.0607 C   0  0  1  0  0  0  0  0  0  0  0  0
  -24.0156  -35.3954   24.1009 C   0  0  2  0  0  0  0  0  0  0  0  0
  -26.6163  -31.5552   25.2424 C   0  0  0  0  0  0  0  0  0  0  0  0
  -25.5345  -16.4537   20.2076 N   0  0  0  0  0  0  0  0  0  0  0  0
  -25.5300  -17.4331   19.2874 N   0  0  0  0  0  0  0  0  0  0  0  0
  -25.6174  -30.8627   21.8678 N   0  0  0  0  0  0  0  0  0  0  0  0
  -25.3177  -20.5174   21.5292 N   0  0  0  0  0  0  0  0  0  0  0  0
  -25.3203  -17.8403   16.9634 N   0  0  0  0  0  0  0  0  0  0  0  0
  -24.9250  -13.3522   17.2746 N   0  0  0  0  0  0  0  0  0  0  0  0
  -23.0077  -20.9430   21.7417 N   0  0  0  0  0  0  0  0  0  0  0  0
  -28.0279  -28.7786   20.2626 N   0  0  0  0  0  0  0  0  0  0  0  0
  -25.3886  -33.4282   24.0641 N   0  0  0  0  0  0  0  0  0  0  0  0
  -22.8051  -35.8582   23.3650 N   0  3  0  0  0  0  0  0  0  0  0  0
  -24.9553  -15.1221   15.8168 O   0  0  0  0  0  0  0  0  0  0  0  0
  -26.3104  -28.3091   21.7634 O   0  0  0  0  0  0  0  0  0  0  0  0
  -27.4159  -32.2371   22.4270 O   0  0  0  0  0  0  0  0  0  0  0  0
  -23.0856  -33.1657   24.1321 O   0  0  0  0  0  0  0  0  0  0  0  0
  -24.5660  -22.6065   22.1732 O   0  0  0  0  0  0  0  0  0  0  0  0
  -25.1353  -10.3446   21.9592 O   0  0  0  0  0  0  0  0  0  0  0  0
  -20.2666  -28.0125   20.6784 O   0  0  0  0  0  0  0  0  0  1  0  0
  -21.1454   -6.8802   20.3836 F   0  0  0  0  0  0  0  0  0  0  0  0
  -23.2668   -9.4147   23.7721 F   0  0  0  0  0  0  0  0  0  0  0  0
  -17.9572  -20.4479   22.8038 Cl  0  0  0  0  0  0  0  0  0  0  0  0
  -20.4541  -19.5134   21.0755 Cl  0  0  0  0  0  0  0  0  0  0  0  0
  1  2  1  0  0  0  0
  1  6  2  0  0  0  0
  2  7  2  0  0  0  0
  3 10  2  0  0  0  0
  3 17  1  0  0  0  0
  4 11  1  0  0  0  0
  4 17  2  0  0  0  0
  5  9  2  0  0  0  0
  5 18  1  0  0  0  0
  6 20  1  0  0  0  0
  7 22  1  0  0  0  0
  8 12  2  0  0  0  0
  8 21  1  0  0  0  0
  9 24  1  0  0  0  0
 10 25  1  0  0  0  0
 11 25  2  0  0  0  0
 12 26  1  0  0  0  0
 13 14  2  0  0  0  0
 13 27  1  0  0  0  0
 14 28  1  0  0  0  0
 15 23  1  0  0  0  0
 15 26  2  0  0  0  0
 16 28  2  0  0  0  0
 16 29  1  0  0  0  0
 17 32  1  0  0  0  0
 18 30  2  0  0  0  0
 18 34  1  0  0  0  0
 19 32  1  0  0  0  0
 19 33  2  0  0  0  0
 19 35  1  0  0  0  0
 20 22  2  0  0  0  0
 20 41  1  0  0  0  0
 21 23  2  0  0  0  0
 21 42  1  0  0  0  0
 22 50  1  0  0  0  0
 23 43  1  0  0  0  0
 24 31  2  0  0  0  0
 24 74  1  0  0  0  0
 25 83  1  0  0  0  0
 26 84  1  0  0  0  0
 27 29  2  0  0  0  0
 27 83  1  0  0  0  0
 28 85  1  0  0  0  0
 29 86  1  0  0  0  0
 30 31  1  0  0  0  0
 30 87  1  0  0  0  0
 31 88  1  0  0  0  0
 32 68  2  0  0  0  0
 33 69  1  0  0  0  0
 33 72  1  0  0  0  0
 34 36  2  0  0  0  0
 34 53  1  0  0  0  0
 35 73  1  0  0  0  0
 35 78  2  0  0  0  0
 36 60  1  0  0  0  0
 36 61  1  0  0  0  0
 37 51  1  0  0  0  0
 37 75  1  0  0  0  0
 37 79  2  0  0  0  0
 38 65  1  0  0  0  0
 38 70  1  0  0  0  0
 38 80  2  0  0  0  0
 39 66  1  0  0  0  0
 39 76  1  0  0  0  0
 39 81  2  0  0  0  0
 40 71  1  0  0  0  0
 40 74  1  0  0  0  0
 40 82  2  0  0  0  0
 41 44  1  0  0  0  0
 42 51  1  0  0  0  0
 43 70  1  0  0  0  0
 44 46  1  0  0  0  0
 45 47  1  0  0  0  0
 45 48  1  0  0  0  0
 46 50  1  0  0  0  0
 47 52  1  0  0  0  0
 48 71  1  0  0  0  0
 49 52  1  0  0  0  0
 49 71  1  0  0  0  0
 50 75  1  0  0  0  0
 51 70  1  0  0  0  0
 52 69  1  0  0  0  0
 54 60  1  0  0  0  0
 55 66  1  0  0  0  0
 56 67  1  0  0  0  0
 57 67  1  0  0  0  0
 58 67  1  0  0  0  0
 59 77  1  0  0  0  0
 61 62  1  0  0  0  0
 62 63  1  0  0  0  0
 63 64  1  0  0  0  0
 64 84  1  0  0  0  0
 65 67  1  0  0  0  0
 65 76  1  0  0  0  0
 66 77  1  0  0  0  0
 68 69  1  0  0  0  0
M  CHG  1  77   1
M  ISO  4  40 100  64 101  74 100  84 101
M  END
> <Batch ID>
0017

> <Smiles>
CCC(CCC[101CH2:1][101O:1]c1ccc2c(c1)CN(C(=O)C(NC(=O)C(C)NC)C(C)(C)C)C(C(=O)NC1CCCc3ccccc31)C2)=C(C)c1ccc([100NH:0][100C:0](=O)N2CCCC(n3nc(-c4ccc(Oc5ccc(F)cc5F)cc4)c(C(N)=O)c3N)C2)c(Cl)c1Cl

> <Shape>
0.271

> <Color>
0.091

> <Negative vol penalty>
0.000

$$$$

  -OEChem-04052316013D

 81 89  0     1  0  0  0  0  0999 V2000
  -24.0764  -31.3794   23.2534 C   0  0  0  0  0  0  0  0  0  0  0  0
  -24.4659  -30.1246   22.7963 C   0  0  0  0  0  0  0  0  0  0  0  0
  -23.2017   -9.6965   20.4370 C   0  0  0  0  0  0  0  0  0  0  0  0
  -23.8126  -10.1858   22.7227 C   0  0  0  0  0  0  0  0  0  0  0  0
  -24.8769  -32.0678   24.1640 C   0  0  0  0  0  0  0  0  0  0  0  0
  -25.6569  -29.5578   23.2487 C   0  0  0  0  0  0  0  0  0  0  0  0
  -26.7564  -23.6187   24.2606 C   0  0  0  0  0  0  0  0  0  0  0  0
  -22.4795   -8.5838   20.8682 C   0  0  0  0  0  0  0  0  0  0  0  0
  -23.0904   -9.0731   23.1539 C   0  0  0  0  0  0  0  0  0  0  0  0
  -27.3845  -22.6373   23.4950 C   0  0  0  0  0  0  0  0  0  0  0  0
  -19.8566   -8.2706   23.7189 C   0  0  0  0  0  0  0  0  0  0  0  0
  -19.0279   -8.4284   24.8296 C   0  0  0  0  0  0  0  0  0  0  0  0
  -29.4442  -23.0348   24.6863 C   0  0  0  0  0  0  0  0  0  0  0  0
  -30.9817  -17.8064   19.9774 C   0  0  0  0  0  0  0  0  0  0  0  0
  -20.2791   -6.7283   26.0049 C   0  0  0  0  0  0  0  0  0  0  0  0
  -23.8683  -10.4975   21.3643 C   0  0  0  0  0  0  0  0  0  0  0  0
  -24.1385  -12.9625   20.7653 C   0  0  0  0  0  0  0  0  0  0  0  0
  -26.0735  -31.5050   24.6352 C   0  0  0  0  0  0  0  0  0  0  0  0
  -27.4715  -24.3243   25.2390 C   0  0  0  0  0  0  0  0  0  0  0  0
  -26.4749  -30.2398   24.1654 C   0  0  0  0  0  0  0  0  0  0  0  0
  -28.8221  -24.0228   25.4647 C   0  0  0  0  0  0  0  0  0  0  0  0
  -31.1353  -19.1635   19.6942 C   0  0  0  0  0  0  0  0  0  0  0  0
  -30.3429  -20.1066   20.3486 C   0  0  0  0  0  0  0  0  0  0  0  0
  -29.3968  -19.6925   21.2863 C   0  0  0  0  0  0  0  0  0  0  0  0
  -30.0356  -17.3923   20.9150 C   0  0  0  0  0  0  0  0  0  0  0  0
  -22.4238   -8.2721   22.2266 C   0  0  0  0  0  0  0  0  0  0  0  0
  -28.7293  -22.3472   23.7058 C   0  0  0  0  0  0  0  0  0  0  0  0
  -20.8966   -7.3415   23.7511 C   0  0  0  0  0  0  0  0  0  0  0  0
  -19.2391   -7.6573   25.9726 C   0  0  0  0  0  0  0  0  0  0  0  0
  -21.1079   -6.5704   24.8940 C   0  0  0  0  0  0  0  0  0  0  0  0
  -29.2432  -18.3353   21.5695 C   0  0  0  0  0  0  0  0  0  0  0  0
  -24.6149  -11.6468   20.9194 C   0  0  0  0  0  0  0  0  0  0  0  0
  -25.2279  -13.6725   20.3231 C   0  0  0  0  0  0  0  0  0  0  0  0
  -22.8284  -13.4952   21.0010 C   0  0  0  0  0  0  0  0  0  0  0  0
  -28.2401  -27.3751   25.6920 C   0  0  0  0  0  0  0  0  0  0  0  0
  -29.3911  -26.2617   28.5130 C   0  0  0  0  0  0  0  0  0  0  0  0
  -30.5943  -23.6231   30.3121 C   0  0  0  0  0  0  0  0  0  0  0  0
  -30.6365  -14.9666   20.5962 C   0  0  0  0  0  0  0  0  0  0  0  0
  -26.9293  -32.3074   25.5830 C   0  0  0  0  0  0  0  0  0  0  0  0
  -26.7725  -25.3613   26.0747 C   0  0  0  0  0  0  0  0  0  0  0  0
  -29.6291  -24.7375   26.5166 C   0  0  0  0  0  0  0  0  0  0  0  0
  -27.9894  -31.4751   26.2998 C   0  0  0  0  0  0  0  0  0  0  0  0
  -29.7516  -12.0896   18.6945 C   0  0  0  0  0  0  0  0  0  0  0  0
  -28.7168  -30.5703   25.3103 C   0  0  0  0  0  0  0  0  0  0  0  0
  -28.2971  -11.8261   19.0912 C   0  0  0  0  0  0  0  0  0  0  0  0
  -30.5803  -12.5888   19.8768 C   0  0  0  0  0  0  0  0  0  0  0  0
  -28.5672  -13.4871   20.9766 C   0  0  0  0  0  0  0  0  0  0  0  0
  -27.7475  -29.5811   24.6518 C   0  0  1  0  0  0  0  0  0  0  0  0
  -27.7299  -26.3761   26.6917 C   0  0  1  0  0  0  0  0  0  0  0  0
  -27.6777  -13.0445   19.8034 C   0  0  2  0  0  0  0  0  0  0  0  0
  -32.1552  -19.5804   18.6852 C   0  0  0  0  0  0  0  0  0  0  0  0
  -30.5094  -21.5612   20.0398 C   0  0  0  0  0  0  0  0  0  0  0  0
  -31.4886  -23.0298   32.5805 C   0  0  0  0  0  0  0  0  0  0  0  0
  -32.0456  -27.5928   27.8119 C   0  0  0  0  0  0  0  0  0  0  0  0
  -33.1325  -26.2009   29.5866 C   0  0  0  0  0  0  0  0  0  0  0  0
  -31.3547  -27.8386   30.2029 C   0  0  0  0  0  0  0  0  0  0  0  0
  -28.4086  -21.6872   30.7953 C   0  0  0  0  0  0  0  0  0  0  0  0
  -28.5531  -20.7226   21.9779 C   0  0  0  0  0  0  0  0  0  1  0  0
  -30.7168  -25.7162   28.9861 C   0  0  1  0  0  0  0  0  0  0  0  0
  -30.2519  -23.1099   31.6991 C   0  0  2  0  0  0  0  0  0  0  0  0
  -31.7980  -26.8249   29.1256 C   0  0  0  0  0  0  0  0  0  0  0  0
  -25.9064  -11.5254   20.6008 N   0  0  0  0  0  0  0  0  0  0  0  0
  -26.2506  -12.7739   20.2420 N   0  0  0  0  0  0  0  0  0  0  0  0
  -28.9024  -25.7475   27.3036 N   0  0  0  0  0  0  0  0  0  0  0  0
  -29.9346  -13.7466   20.4992 N   0  0  0  0  0  0  0  0  0  0  0  0
  -25.4011  -14.9716   19.9994 N   0  0  0  0  0  0  0  0  0  0  0  0
  -21.8257  -12.6270   21.4540 N   0  0  0  0  0  0  0  0  0  0  0  0
  -29.9097  -16.0054   21.1769 N   0  0  0  0  0  0  0  0  0  0  0  0
  -27.4414  -28.4947   25.5576 N   0  0  0  0  0  0  0  0  0  0  0  0
  -30.4422  -24.9906   30.2216 N   0  0  0  0  0  0  0  0  0  0  0  0
  -29.6468  -21.7506   31.6137 N   0  3  0  0  0  0  0  0  0  0  0  0
  -22.5508  -14.7018   20.7996 O   0  0  0  0  0  0  0  0  0  0  0  0
  -29.2820  -27.1477   25.0884 O   0  0  0  0  0  0  0  0  0  0  0  0
  -28.8071  -27.1075   29.1950 O   0  0  0  0  0  0  0  0  0  0  0  0
  -30.9637  -22.8853   29.4012 O   0  0  0  0  0  0  0  0  0  0  0  0
  -31.7875  -15.0889   20.1691 O   0  0  0  0  0  0  0  0  0  0  0  0
  -21.7190   -7.1865   22.6478 O   0  0  0  0  0  0  0  0  0  0  0  0
  -29.3450  -21.3903   22.9595 O   0  0  0  0  0  0  0  0  0  1  0  0
  -18.4441   -7.8101   27.0398 F   0  0  0  0  0  0  0  0  0  0  0  0
  -22.1061   -5.6772   24.9313 F   0  0  0  0  0  0  0  0  0  0  0  0
  -28.0672  -17.8222   22.7366 Cl  0  0  0  0  0  0  0  0  0  0  0  0
  1  2  1  0  0  0  0
  1  5  2  0  0  0  0
  2  6  2  0  0  0  0
  3  8  2  0  0  0  0
  3 16  1  0  0  0  0
  4  9  1  0  0  0  0
  4 16  2  0  0  0  0
  5 18  1  0  0  0  0
  6 20  1  0  0  0  0
  7 10  2  0  0  0  0
  7 19  1  0  0  0  0
  8 26  1  0  0  0  0
  9 26  2  0  0  0  0
 10 27  1  0  0  0  0
 11 12  2  0  0  0  0
 11 28  1  0  0  0  0
 12 29  1  0  0  0  0
 13 21  1  0  0  0  0
 13 27  2  0  0  0  0
 14 22  1  0  0  0  0
 14 25  2  0  0  0  0
 15 29  2  0  0  0  0
 15 30  1  0  0  0  0
 16 32  1  0  0  0  0
 17 32  1  0  0  0  0
 17 33  2  0  0  0  0
 17 34  1  0  0  0  0
 18 20  2  0  0  0  0
 18 39  1  0  0  0  0
 19 21  2  0  0  0  0
 19 40  1  0  0  0  0
 20 48  1  0  0  0  0
 21 41  1  0  0  0  0
 22 23  2  0  0  0  0
 22 51  1  0  0  0  0
 23 24  1  0  0  0  0
 23 52  1  0  0  0  0
 24 31  2  0  0  0  0
 24 58  1  0  0  0  0
 25 31  1  0  0  0  0
 25 68  1  0  0  0  0
 26 77  1  0  0  0  0
 27 78  1  0  0  0  0
 28 30  2  0  0  0  0
 28 77  1  0  0  0  0
 29 79  1  0  0  0  0
 30 80  1  0  0  0  0
 31 81  1  0  0  0  0
 32 62  2  0  0  0  0
 33 63  1  0  0  0  0
 33 66  1  0  0  0  0
 34 67  1  0  0  0  0
 34 72  2  0  0  0  0
 35 49  1  0  0  0  0
 35 69  1  0  0  0  0
 35 73  2  0  0  0  0
 36 59  1  0  0  0  0
 36 64  1  0  0  0  0
 36 74  2  0  0  0  0
 37 60  1  0  0  0  0
 37 70  1  0  0  0  0
 37 75  2  0  0  0  0
 38 65  1  0  0  0  0
 38 68  1  0  0  0  0
 38 76  2  0  0  0  0
 39 42  1  0  0  0  0
 40 49  1  0  0  0  0
 41 64  1  0  0  0  0
 42 44  1  0  0  0  0
 43 45  1  0  0  0  0
 43 46  1  0  0  0  0
 44 48  1  0  0  0  0
 45 50  1  0  0  0  0
 46 65  1  0  0  0  0
 47 50  1  0  0  0  0
 47 65  1  0  0  0  0
 48 69  1  0  0  0  0
 49 64  1  0  0  0  0
 50 63  1  0  0  0  0
 53 60  1  0  0  0  0
 54 61  1  0  0  0  0
 55 61  1  0  0  0  0
 56 61  1  0  0  0  0
 57 71  1  0  0  0  0
 58 78  1  0  0  0  0
 59 61  1  0  0  0  0
 59 70  1  0  0  0  0
 60 71  1  0  0  0  0
 62 63  1  0  0  0  0
M  CHG  1  71   1
M  ISO  4  38 100  58 101  68 100  78 101
M  END
> <Batch ID>
0017

> <Smiles>
CNC(C)C(=O)NC(C(=O)N1Cc2cc([101O:1][101CH2:1]c3c(C)c(C)cc([100NH:0][100C:0](=O)N4CCCC(n5nc(-c6ccc(Oc7ccc(F)cc7F)cc6)c(C(N)=O)c5N)C4)c3Cl)ccc2CC1C(=O)NC1CCCc2ccccc21)C(C)(C)C

> <Shape>
0.246

> <Color>
0.170

> <Negative vol penalty>
0.000

$$$$

  -OEChem-04052316013D

 84 92  0     1  0  0  0  0  0999 V2000
  -28.6658  -36.9464   22.9111 C   0  0  0  0  0  0  0  0  0  0  0  0
  -29.0917  -35.8696   22.1400 C   0  0  0  0  0  0  0  0  0  0  0  0
  -24.6807  -11.1552   23.9349 C   0  0  0  0  0  0  0  0  0  0  0  0
  -24.2723  -13.1497   25.2358 C   0  0  0  0  0  0  0  0  0  0  0  0
  -27.7965  -36.7358   23.9807 C   0  0  0  0  0  0  0  0  0  0  0  0
  -28.6493  -34.5814   22.4386 C   0  0  0  0  0  0  0  0  0  0  0  0
  -26.9855  -28.3754   19.2709 C   0  0  0  0  0  0  0  0  0  0  0  0
  -24.2289  -10.3706   24.9959 C   0  0  0  0  0  0  0  0  0  0  0  0
  -23.8205  -12.3651   26.2969 C   0  0  0  0  0  0  0  0  0  0  0  0
  -27.2811  -27.0150   19.3454 C   0  0  0  0  0  0  0  0  0  0  0  0
  -22.8440   -7.8593   27.2298 C   0  0  0  0  0  0  0  0  0  0  0  0
  -21.9699   -6.8127   26.9362 C   0  0  0  0  0  0  0  0  0  0  0  0
  -25.7178  -26.7812   21.1677 C   0  0  0  0  0  0  0  0  0  0  0  0
  -26.9381  -22.0755   19.5226 C   0  0  0  0  0  0  0  0  0  0  0  0
  -29.4099  -20.9823   20.2141 C   0  0  0  0  0  0  0  0  0  0  0  0
  -20.3848   -8.3920   26.0250 C   0  0  0  0  0  0  0  0  0  0  0  0
  -24.7024  -12.5448   24.0548 C   0  0  0  0  0  0  0  0  0  0  0  0
  -24.4007  -13.8858   21.9058 C   0  0  0  0  0  0  0  0  0  0  0  0
  -27.3356  -35.4456   24.2866 C   0  0  0  0  0  0  0  0  0  0  0  0
  -26.0604  -28.9521   20.1530 C   0  0  0  0  0  0  0  0  0  0  0  0
  -27.7741  -34.3532   23.5141 C   0  0  0  0  0  0  0  0  0  0  0  0
  -25.4104  -28.1487   21.1007 C   0  0  0  0  0  0  0  0  0  0  0  0
  -28.0512  -22.9036   19.6668 C   0  0  0  0  0  0  0  0  0  0  0  0
  -27.0609  -20.7007   19.7243 C   0  0  0  0  0  0  0  0  0  0  0  0
  -29.2871  -22.3571   20.0125 C   0  0  0  0  0  0  0  0  0  0  0  0
  -28.2967  -20.1541   20.0700 C   0  0  0  0  0  0  0  0  0  0  0  0
  -23.7988  -10.9755   26.1769 C   0  0  0  0  0  0  0  0  0  0  0  0
  -26.6494  -26.2182   20.2957 C   0  0  0  0  0  0  0  0  0  0  0  0
  -22.4885   -9.1723   26.9210 C   0  0  0  0  0  0  0  0  0  0  0  0
  -20.7404   -7.0790   26.3338 C   0  0  0  0  0  0  0  0  0  0  0  0
  -21.2589   -9.4386   26.3186 C   0  0  0  0  0  0  0  0  0  0  0  0
  -25.1695  -13.3558   22.9593 C   0  0  0  0  0  0  0  0  0  0  0  0
  -25.3043  -14.5750   21.1343 C   0  0  0  0  0  0  0  0  0  0  0  0
  -22.9955  -13.7659   21.6476 C   0  0  0  0  0  0  0  0  0  0  0  0
  -26.1985  -31.2053   22.3908 C   0  0  0  0  0  0  0  0  0  0  0  0
  -22.9860  -30.7652   22.4807 C   0  0  0  0  0  0  0  0  0  0  0  0
  -20.3259  -28.7089   21.8956 C   0  0  0  0  0  0  0  0  0  0  0  0
  -29.6052  -18.0744   20.6259 C   0  0  0  0  0  0  0  0  0  0  0  0
  -26.4341  -35.2611   25.4815 C   0  0  0  0  0  0  0  0  0  0  0  0
  -25.7328  -30.4160   20.0422 C   0  0  0  0  0  0  0  0  0  0  0  0
  -24.3944  -28.7153   22.0574 C   0  0  0  0  0  0  0  0  0  0  0  0
  -25.7160  -33.9142   25.5006 C   0  0  0  0  0  0  0  0  0  0  0  0
  -30.3637  -14.6552   21.2672 C   0  0  0  0  0  0  0  0  0  0  0  0
  -26.6929  -32.7840   25.1918 C   0  0  0  0  0  0  0  0  0  0  0  0
  -29.0167  -14.0560   21.6779 C   0  0  0  0  0  0  0  0  0  0  0  0
  -30.5317  -16.0820   21.7866 C   0  0  0  0  0  0  0  0  0  0  0  0
  -28.0897  -16.4002   21.8572 C   0  0  0  0  0  0  0  0  0  0  0  0
  -27.2967  -32.9441   23.7913 C   0  0  1  0  0  0  0  0  0  0  0  0
  -25.1559  -30.9982   21.3289 C   0  0  1  0  0  0  0  0  0  0  0  0
  -27.8475  -14.9872   21.3020 C   0  0  2  0  0  0  0  0  0  0  0  0
  -25.8563  -19.0782   18.2400 C   0  0  0  0  0  0  0  0  0  0  0  0
  -17.8269  -28.6130   22.1038 C   0  0  0  0  0  0  0  0  0  0  0  0
  -31.7458  -22.3808   20.5600 C   0  0  0  0  0  0  0  0  0  0  0  0
  -30.2763  -24.2895   21.2907 C   0  0  0  0  0  0  0  0  0  0  0  0
  -30.9095  -24.0323   18.9003 C   0  0  0  0  0  0  0  0  0  0  0  0
  -23.2558  -30.3285   25.4884 C   0  0  0  0  0  0  0  0  0  0  0  0
  -20.9631  -29.3226   25.4776 C   0  0  0  0  0  0  0  0  0  0  0  0
  -21.2815  -31.7041   24.8070 C   0  0  0  0  0  0  0  0  0  0  0  0
  -19.9801  -28.3587   18.9772 C   0  0  0  0  0  0  0  0  0  0  0  0
  -25.8518  -19.8374   19.5631 C   0  0  0  0  0  0  0  0  0  0  0  0
  -27.8948  -24.3794   19.4452 C   0  0  0  0  0  0  0  0  0  1  0  0
  -22.0514  -29.8651   23.2522 C   0  0  1  0  0  0  0  0  0  0  0  0
  -19.0001  -28.9511   21.1970 C   0  0  2  0  0  0  0  0  0  0  0  0
  -30.4925  -23.2241   20.1726 C   0  0  0  0  0  0  0  0  0  0  0  0
  -21.9085  -30.2945   24.7397 C   0  0  0  0  0  0  0  0  0  0  0  0
  -26.4620  -13.6803   22.8684 N   0  0  0  0  0  0  0  0  0  0  0  0
  -26.5123  -14.4216   21.7486 N   0  0  0  0  0  0  0  0  0  0  0  0
  -24.1128  -30.1532   21.9137 N   0  0  0  0  0  0  0  0  0  0  0  0
  -29.3891  -16.9072   21.3886 N   0  0  0  0  0  0  0  0  0  0  0  0
  -25.1753  -15.2911   19.9972 N   0  0  0  0  0  0  0  0  0  0  0  0
  -22.2131  -13.0219   22.5413 N   0  0  0  0  0  0  0  0  0  0  0  0
  -28.4417  -18.7602   20.2789 N   0  0  0  0  0  0  0  0  0  0  0  0
  -26.3499  -32.5221   22.7814 N   0  0  0  0  0  0  0  0  0  0  0  0
  -20.7947  -29.8502   22.5112 N   0  0  0  0  0  0  0  0  0  0  0  0
  -18.9012  -28.1132   19.9685 N   0  3  0  0  0  0  0  0  0  0  0  0
  -22.4527  -14.2889   20.6450 O   0  0  0  0  0  0  0  0  0  0  0  0
  -26.8187  -30.2416   22.8248 O   0  0  0  0  0  0  0  0  0  0  0  0
  -22.7221  -31.9659   22.3786 O   0  0  0  0  0  0  0  0  0  0  0  0
  -20.8875  -27.6157   21.8982 O   0  0  0  0  0  0  0  0  0  0  0  0
  -30.7370  -18.4241   20.2813 O   0  0  0  0  0  0  0  0  0  0  0  0
  -23.3577  -10.2102   27.2124 O   0  0  0  0  0  0  0  0  0  0  0  0
  -26.9365  -24.8901   20.3709 O   0  0  0  0  0  0  0  0  0  1  0  0
  -19.9017   -6.0737   26.0505 F   0  0  0  0  0  0  0  0  0  0  0  0
  -20.9124  -10.6979   26.0185 F   0  0  0  0  0  0  0  0  0  0  0  0
  1  2  1  0  0  0  0
  1  5  2  0  0  0  0
  2  6  2  0  0  0  0
  3  8  2  0  0  0  0
  3 17  1  0  0  0  0
  4  9  1  0  0  0  0
  4 17  2  0  0  0  0
  5 19  1  0  0  0  0
  6 21  1  0  0  0  0
  7 10  2  0  0  0  0
  7 20  1  0  0  0  0
  8 27  1  0  0  0  0
  9 27  2  0  0  0  0
 10 28  1  0  0  0  0
 11 12  2  0  0  0  0
 11 29  1  0  0  0  0
 12 30  1  0  0  0  0
 13 22  1  0  0  0  0
 13 28  2  0  0  0  0
 14 23  2  0  0  0  0
 14 24  1  0  0  0  0
 15 25  2  0  0  0  0
 15 26  1  0  0  0  0
 16 30  2  0  0  0  0
 16 31  1  0  0  0  0
 17 32  1  0  0  0  0
 18 32  1  0  0  0  0
 18 33  2  0  0  0  0
 18 34  1  0  0  0  0
 19 21  2  0  0  0  0
 19 39  1  0  0  0  0
 20 22  2  0  0  0  0
 20 40  1  0  0  0  0
 21 48  1  0  0  0  0
 22 41  1  0  0  0  0
 23 25  1  0  0  0  0
 23 61  1  0  0  0  0
 24 26  2  0  0  0  0
 24 60  1  0  0  0  0
 25 64  1  0  0  0  0
 26 72  1  0  0  0  0
 27 81  1  0  0  0  0
 28 82  1  0  0  0  0
 29 31  2  0  0  0  0
 29 81  1  0  0  0  0
 30 83  1  0  0  0  0
 31 84  1  0  0  0  0
 32 66  2  0  0  0  0
 33 67  1  0  0  0  0
 33 70  1  0  0  0  0
 34 71  1  0  0  0  0
 34 76  2  0  0  0  0
 35 49  1  0  0  0  0
 35 73  1  0  0  0  0
 35 77  2  0  0  0  0
 36 62  1  0  0  0  0
 36 68  1  0  0  0  0
 36 78  2  0  0  0  0
 37 63  1  0  0  0  0
 37 74  1  0  0  0  0
 37 79  2  0  0  0  0
 38 69  1  0  0  0  0
 38 72  1  0  0  0  0
 38 80  2  0  0  0  0
 39 42  1  0  0  0  0
 40 49  1  0  0  0  0
 41 68  1  0  0  0  0
 42 44  1  0  0  0  0
 43 45  1  0  0  0  0
 43 46  1  0  0  0  0
 44 48  1  0  0  0  0
 45 50  1  0  0  0  0
 46 69  1  0  0  0  0
 47 50  1  0  0  0  0
 47 69  1  0  0  0  0
 48 73  1  0  0  0  0
 49 68  1  0  0  0  0
 50 67  1  0  0  0  0
 51 60  1  0  0  0  0
 52 63  1  0  0  0  0
 53 64  1  0  0  0  0
 54 64  1  0  0  0  0
 55 64  1  0  0  0  0
 56 65  1  0  0  0  0
 57 65  1  0  0  0  0
 58 65  1  0  0  0  0
 59 75  1  0  0  0  0
 61 82  1  0  0  0  0
 62 65  1  0  0  0  0
 62 74  1  0  0  0  0
 63 75  1  0  0  0  0
 66 67  1  0  0  0  0
M  CHG  1  75   1
M  ISO  4  38 100  61 101  72 100  82 101
M  END
> <Batch ID>
0017

> <Smiles>
CCc1cc([101CH2:1][101O:1]c2ccc3c(c2)CN(C(=O)C(NC(=O)C(C)NC)C(C)(C)C)C(C(=O)NC2CCCc4ccccc42)C3)c(C(C)(C)C)cc1[100NH:0][100C:0](=O)N1CCCC(n2nc(-c3ccc(Oc4ccc(F)cc4F)cc3)c(C(N)=O)c2N)C1

> <Shape>
0.274

> <Color>
0.109

> <Negative vol penalty>
0.000

$$$$

  -OEChem-04052316013D

 90 98  0     1  0  0  0  0  0999 V2000
  -17.0328  -30.9481   24.3795 C   0  0  0  0  0  0  0  0  0  0  0  0
  -18.2782  -31.0374   24.9931 C   0  0  0  0  0  0  0  0  0  0  0  0
  -25.0044  -13.4242   21.7065 C   0  0  0  0  0  0  0  0  0  0  0  0
  -25.4484  -13.5857   19.3372 C   0  0  0  0  0  0  0  0  0  0  0  0
  -16.8470  -30.0790   23.3053 C   0  0  0  0  0  0  0  0  0  0  0  0
  -19.3382  -30.2568   24.5335 C   0  0  0  0  0  0  0  0  0  0  0  0
  -26.4600  -30.4022   23.7745 C   0  0  0  0  0  0  0  0  0  0  0  0
  -25.1646  -12.0401   21.6423 C   0  0  0  0  0  0  0  0  0  0  0  0
  -25.6087  -12.2016   19.2729 C   0  0  0  0  0  0  0  0  0  0  0  0
  -27.5919  -29.6500   24.0856 C   0  0  0  0  0  0  0  0  0  0  0  0
  -23.3450   -9.3652   20.6636 C   0  0  0  0  0  0  0  0  0  0  0  0
  -22.4053   -8.5734   21.3236 C   0  0  0  0  0  0  0  0  0  0  0  0
  -27.1750  -28.2422   22.1715 C   0  0  0  0  0  0  0  0  0  0  0  0
  -24.1597   -7.6330   22.6930 C   0  0  0  0  0  0  0  0  0  0  0  0
  -25.1462  -14.1971   20.5540 C   0  0  0  0  0  0  0  0  0  0  0  0
  -25.7275  -16.5348   21.3934 C   0  0  0  0  0  0  0  0  0  0  0  0
  -17.9078  -29.2945   22.8260 C   0  0  0  0  0  0  0  0  0  0  0  0
  -25.6696  -30.0728   22.6640 C   0  0  0  0  0  0  0  0  0  0  0  0
  -19.1661  -29.3754   23.4526 C   0  0  0  0  0  0  0  0  0  0  0  0
  -26.0350  -28.9934   21.8470 C   0  0  0  0  0  0  0  0  0  0  0  0
  -25.4668  -11.4288   20.4255 C   0  0  0  0  0  0  0  0  0  0  0  0
  -27.9479  -28.5680   23.2857 C   0  0  0  0  0  0  0  0  0  0  0  0
  -24.6920   -9.2909   21.0181 C   0  0  0  0  0  0  0  0  0  0  0  0
  -22.8127   -7.7073   22.3383 C   0  0  0  0  0  0  0  0  0  0  0  0
  -25.0993   -8.4249   22.0329 C   0  0  0  0  0  0  0  0  0  0  0  0
  -24.9801  -15.6268   20.6196 C   0  0  0  0  0  0  0  0  0  0  0  0
  -25.1828  -17.7620   21.1043 C   0  0  0  0  0  0  0  0  0  0  0  0
  -22.6138  -22.7964   22.6039 C   0  0  0  0  0  0  0  0  0  0  0  0
  -22.4581  -21.8983   21.4049 C   0  0  0  0  0  0  0  0  0  0  0  0
  -20.5450  -22.1693   22.5387 C   0  0  0  0  0  0  0  0  0  0  0  0
  -26.8169  -16.2907   22.2931 C   0  0  0  0  0  0  0  0  0  0  0  0
  -22.6529  -29.1613   22.2489 C   0  0  0  0  0  0  0  0  0  0  0  0
  -23.4062  -29.4530   19.1072 C   0  0  0  0  0  0  0  0  0  0  0  0
  -25.8225  -29.4762   16.6973 C   0  0  0  0  0  0  0  0  0  0  0  0
  -20.3654  -20.7117   20.5225 C   0  0  0  0  0  0  0  0  0  0  0  0
  -17.6465  -28.3348   21.6923 C   0  0  0  0  0  0  0  0  0  0  0  0
  -24.4668  -30.9105   22.3265 C   0  0  0  0  0  0  0  0  0  0  0  0
  -25.2315  -28.6109   20.6319 C   0  0  0  0  0  0  0  0  0  0  0  0
  -18.9190  -27.8181   21.0259 C   0  0  0  0  0  0  0  0  0  0  0  0
  -21.9095  -19.1815   17.5351 C   0  0  0  0  0  0  0  0  0  0  0  0
  -19.9340  -27.3835   22.0784 C   0  0  0  0  0  0  0  0  0  0  0  0
  -22.8469  -18.1400   18.1437 C   0  0  0  0  0  0  0  0  0  0  0  0
  -20.7097  -19.4570   18.4359 C   0  0  0  0  0  0  0  0  0  0  0  0
  -22.0205  -18.8136   20.4346 C   0  0  0  0  0  0  0  0  0  0  0  0
  -20.3470  -28.5631   22.9669 C   0  0  1  0  0  0  0  0  0  0  0  0
  -23.4455  -30.1710   21.4678 C   0  0  1  0  0  0  0  0  0  0  0  0
  -23.2608  -18.5456   19.5687 C   0  0  1  0  0  0  0  0  0  0  0  0
  -26.1283  -29.6983   14.2165 C   0  0  0  0  0  0  0  0  0  0  0  0
  -22.4042  -26.5957   18.7304 C   0  0  0  0  0  0  0  0  0  0  0  0
  -23.5870  -26.5460   16.5243 C   0  0  0  0  0  0  0  0  0  0  0  0
  -21.7436  -28.1812   16.9125 C   0  0  0  0  0  0  0  0  0  0  0  0
  -24.6132  -21.4146   24.1427 C   0  0  0  0  0  0  0  0  0  0  0  0
  -27.4895  -31.9025   17.0031 C   0  0  0  0  0  0  0  0  0  0  0  0
  -29.2385  -21.5000   25.5238 C   0  0  0  0  0  0  0  0  0  0  0  0
  -29.1540  -25.2309   24.8878 C   0  0  0  0  0  0  0  0  0  0  0  0
  -30.0869  -26.3953   25.2121 C   0  0  0  0  0  0  0  0  0  0  0  0
  -27.4004  -22.0242   23.0072 C   0  0  0  0  0  0  0  0  0  0  0  0
  -26.2684  -22.9622   23.4179 C   0  0  0  0  0  0  0  0  0  0  0  0
  -29.8225  -23.8966   25.1831 C   0  0  0  0  0  0  0  0  0  0  0  0
  -28.7735  -22.5963   23.3366 C   0  0  0  0  0  0  0  0  0  0  0  0
  -29.4168  -27.7390   24.9623 C   0  0  0  0  0  0  0  0  0  1  0  0
  -23.9119  -23.4142   22.9533 C   0  0  1  0  0  0  0  0  0  0  0  0
  -23.9723  -28.5319   18.0536 C   0  0  1  0  0  0  0  0  0  0  0  0
  -26.0900  -30.4316   15.5483 C   0  0  2  0  0  0  0  0  0  0  0  0
  -22.9410  -27.4695   17.5791 C   0  0  0  0  0  0  0  0  0  0  0  0
  -24.0327  -16.2261   19.8935 N   0  0  0  0  0  0  0  0  0  0  0  0
  -21.4765  -22.9246   23.2178 N   0  0  0  0  0  0  0  0  0  0  0  0
  -24.1810  -17.5238   20.2099 N   0  0  0  0  0  0  0  0  0  0  0  0
  -21.0787  -21.5092   21.4867 N   0  0  0  0  0  0  0  0  0  0  0  0
  -24.0606  -29.4568   20.3472 N   0  0  0  0  0  0  0  0  0  0  0  0
  -21.1219  -19.7862   19.7997 N   0  0  0  0  0  0  0  0  0  0  0  0
  -25.4677  -19.0109   21.5304 N   0  0  0  0  0  0  0  0  0  0  0  0
  -27.2512  -14.9704   22.4738 N   0  0  0  0  0  0  0  0  0  0  0  0
  -21.2939  -29.4104   22.2742 N   0  0  0  0  0  0  0  0  0  0  0  0
  -24.4774  -29.3916   16.9886 N   0  0  0  0  0  0  0  0  0  0  0  0
  -24.9579  -22.3812   23.0885 N   0  0  2  0  0  0  0  0  0  0  0  0
  -19.2698  -22.1081   22.9028 N   0  3  0  0  0  0  0  0  0  0  0  0
  -27.3962  -31.1223   15.7423 N   0  3  0  0  0  0  0  0  0  0  0  0
  -28.8824  -22.7782   24.8049 N   0  3  1  0  0  0  0  0  0  0  0  0
  -23.2734  -21.6439   20.5515 O   0  0  0  0  0  0  0  0  0  0  0  0
  -27.3775  -17.2141   22.9308 O   0  0  0  0  0  0  0  0  0  0  0  0
  -23.2313  -28.2247   22.7873 O   0  0  0  0  0  0  0  0  0  0  0  0
  -22.4240  -30.1489   18.8376 O   0  0  0  0  0  0  0  0  0  0  0  0
  -26.7169  -28.8633   17.2759 O   0  0  0  0  0  0  0  0  0  0  0  0
  -19.1600  -20.8986   20.3861 O   0  0  0  0  0  0  0  0  0  0  0  0
  -25.6236  -10.0782   20.3624 O   0  0  0  0  0  0  0  0  0  0  0  0
  -29.0600  -27.8264   23.5897 O   0  0  0  0  0  0  0  0  0  1  0  0
  -21.9100   -6.9481   22.9732 F   0  0  0  0  0  0  0  0  0  0  0  0
  -26.3919   -8.3500   22.3787 F   0  0  0  0  0  0  0  0  0  0  0  0
  -24.2796  -24.4915   21.5763 Cl  0  0  0  0  0  0  0  0  0  0  0  0
  1  2  1  0  0  0  0
  1  5  2  0  0  0  0
  2  6  2  0  0  0  0
  3  8  2  0  0  0  0
  3 15  1  0  0  0  0
  4  9  1  0  0  0  0
  4 15  2  0  0  0  0
  5 17  1  0  0  0  0
  6 19  1  0  0  0  0
  7 10  2  0  0  0  0
  7 18  1  0  0  0  0
  8 21  1  0  0  0  0
  9 21  2  0  0  0  0
 10 22  1  0  0  0  0
 11 12  2  0  0  0  0
 11 23  1  0  0  0  0
 12 24  1  0  0  0  0
 13 20  1  0  0  0  0
 13 22  2  0  0  0  0
 14 24  2  0  0  0  0
 14 25  1  0  0  0  0
 15 26  1  0  0  0  0
 16 26  1  0  0  0  0
 16 27  2  0  0  0  0
 16 31  1  0  0  0  0
 17 19  2  0  0  0  0
 17 36  1  0  0  0  0
 18 20  2  0  0  0  0
 18 37  1  0  0  0  0
 19 45  1  0  0  0  0
 20 38  1  0  0  0  0
 21 86  1  0  0  0  0
 22 87  1  0  0  0  0
 23 25  2  0  0  0  0
 23 86  1  0  0  0  0
 24 88  1  0  0  0  0
 25 89  1  0  0  0  0
 26 66  2  0  0  0  0
 27 68  1  0  0  0  0
 27 72  1  0  0  0  0
 28 29  1  0  0  0  0
 28 62  1  0  0  0  0
 28 67  2  0  0  0  0
 29 69  1  0  0  0  0
 29 80  2  0  0  0  0
 30 67  1  0  0  0  0
 30 69  1  0  0  0  0
 30 77  2  0  0  0  0
 31 73  1  0  0  0  0
 31 81  2  0  0  0  0
 32 46  1  0  0  0  0
 32 74  1  0  0  0  0
 32 82  2  0  0  0  0
 33 63  1  0  0  0  0
 33 70  1  0  0  0  0
 33 83  2  0  0  0  0
 34 64  1  0  0  0  0
 34 75  1  0  0  0  0
 34 84  2  0  0  0  0
 35 69  1  0  0  0  0
 35 71  1  0  0  0  0
 35 85  2  0  0  0  0
 36 39  1  0  0  0  0
 37 46  1  0  0  0  0
 38 70  1  0  0  0  0
 39 41  1  0  0  0  0
 40 42  1  0  0  0  0
 40 43  1  0  0  0  0
 41 45  1  0  0  0  0
 42 47  1  0  0  0  0
 43 71  1  0  0  0  0
 44 47  1  0  0  0  0
 44 71  1  0  0  0  0
 45 74  1  0  0  0  0
 46 70  1  0  0  0  0
 47 68  1  0  0  0  0
 48 64  1  0  0  0  0
 49 65  1  0  0  0  0
 50 65  1  0  0  0  0
 51 65  1  0  0  0  0
 52 76  1  0  0  0  0
 53 78  1  0  0  0  0
 54 79  1  0  0  0  0
 55 56  1  0  0  0  0
 55 59  1  0  0  0  0
 56 61  1  0  0  0  0
 57 58  1  0  0  0  0
 57 60  1  0  0  0  0
 58 76  1  0  0  0  0
 59 79  1  0  0  0  0
 60 79  1  0  0  0  0
 61 87  1  0  0  0  0
 62 76  1  0  0  0  0
 62 90  1  0  0  0  0
 63 65  1  0  0  0  0
 63 75  1  0  0  0  0
 64 78  1  0  0  0  0
 66 68  1  0  0  0  0
M  CHG  3  77   1  78   1  79   1
M  ISO  4  35 100  61 101  69 100  87 101
M  END
> <Batch ID>
0017

> <Smiles>
CNC(C)C(=O)NC(C(=O)N1Cc2cc([101O:1][101CH2:1]CCCN(C)CCCN(C)C(Cl)=C3NC(=N)[100N:0]([100C:0](=O)N4CCCC(n5nc(-c6ccc(Oc7ccc(F)cc7F)cc6)c(C(N)=O)c5N)C4)C3=O)ccc2CC1C(=O)NC1CCCc2ccccc21)C(C)(C)C

> <Shape>
0.194

> <Color>
0.080

> <Negative vol penalty>
0.000

$$$$

  -OEChem-04052316013D

 84 92  0     1  0  0  0  0  0999 V2000
  -17.5429  -26.8294   22.5504 C   0  0  0  0  0  0  0  0  0  0  0  0
  -18.7086  -26.4939   21.8693 C   0  0  0  0  0  0  0  0  0  0  0  0
  -26.8562  -12.6483   21.3480 C   0  0  0  0  0  0  0  0  0  0  0  0
  -25.3785  -14.5371   21.6412 C   0  0  0  0  0  0  0  0  0  0  0  0
  -17.5149  -27.9586   23.3677 C   0  0  0  0  0  0  0  0  0  0  0  0
  -19.8468  -27.2881   22.0043 C   0  0  0  0  0  0  0  0  0  0  0  0
  -25.6729  -25.4007   22.0138 C   0  0  0  0  0  0  0  0  0  0  0  0
  -25.8370  -11.7877   21.7555 C   0  0  0  0  0  0  0  0  0  0  0  0
  -24.3592  -13.6764   22.0487 C   0  0  0  0  0  0  0  0  0  0  0  0
  -26.6516  -25.3731   21.0212 C   0  0  0  0  0  0  0  0  0  0  0  0
  -23.0628  -10.3991   20.4105 C   0  0  0  0  0  0  0  0  0  0  0  0
  -22.8571   -9.2389   19.6642 C   0  0  0  0  0  0  0  0  0  0  0  0
  -27.5210  -27.4735   21.8286 C   0  0  0  0  0  0  0  0  0  0  0  0
  -30.5048  -23.8535   19.1212 C   0  0  0  0  0  0  0  0  0  0  0  0
  -31.6250  -23.1356   21.5733 C   0  0  0  0  0  0  0  0  0  0  0  0
  -23.3064   -7.8988   21.6237 C   0  0  0  0  0  0  0  0  0  0  0  0
  -26.6270  -14.0231   21.2909 C   0  0  0  0  0  0  0  0  0  0  0  0
  -27.9608  -15.3367   19.5580 C   0  0  0  0  0  0  0  0  0  0  0  0
  -18.6561  -28.7616   23.5204 C   0  0  0  0  0  0  0  0  0  0  0  0
  -25.6041  -26.4721   22.9160 C   0  0  0  0  0  0  0  0  0  0  0  0
  -19.8336  -28.4298   22.8234 C   0  0  0  0  0  0  0  0  0  0  0  0
  -26.5422  -27.5110   22.8333 C   0  0  0  0  0  0  0  0  0  0  0  0
  -30.9967  -24.8380   19.9782 C   0  0  0  0  0  0  0  0  0  0  0  0
  -31.5568  -24.4791   21.2042 C   0  0  0  0  0  0  0  0  0  0  0  0
  -30.5730  -22.5100   19.4903 C   0  0  0  0  0  0  0  0  0  0  0  0
  -31.1331  -22.1511   20.7163 C   0  0  0  0  0  0  0  0  0  0  0  0
  -24.5885  -12.3017   22.1058 C   0  0  0  0  0  0  0  0  0  0  0  0
  -27.5740  -26.4110   20.9267 C   0  0  0  0  0  0  0  0  0  0  0  0
  -23.3905  -10.3093   21.7634 C   0  0  0  0  0  0  0  0  0  0  0  0
  -22.9789   -7.9887   20.2707 C   0  0  0  0  0  0  0  0  0  0  0  0
  -23.5122   -9.0591   22.3700 C   0  0  0  0  0  0  0  0  0  0  0  0
  -27.6796  -14.9127   20.8706 C   0  0  0  0  0  0  0  0  0  0  0  0
  -29.0469  -16.1669   19.6906 C   0  0  0  0  0  0  0  0  0  0  0  0
  -27.2993  -15.0094   18.3288 C   0  0  0  0  0  0  0  0  0  0  0  0
  -23.4370  -28.6955   23.5969 C   0  0  0  0  0  0  0  0  0  0  0  0
  -28.8256  -21.1725   18.7002 C   0  0  0  0  0  0  0  0  0  0  0  0
  -25.5162  -29.4394   25.9729 C   0  0  0  0  0  0  0  0  0  0  0  0
  -28.7186  -29.3623   27.1500 C   0  0  0  0  0  0  0  0  0  0  0  0
  -31.7406  -20.2851   22.2960 C   0  0  0  0  0  0  0  0  0  0  0  0
  -18.5637  -29.9990   24.3777 C   0  0  0  0  0  0  0  0  0  0  0  0
  -24.5590  -26.4737   23.9977 C   0  0  0  0  0  0  0  0  0  0  0  0
  -26.5238  -28.6740   23.7902 C   0  0  0  0  0  0  0  0  0  0  0  0
  -19.9234  -30.5771   24.7614 C   0  0  0  0  0  0  0  0  0  0  0  0
  -32.0840  -17.0106   23.6512 C   0  0  0  0  0  0  0  0  0  0  0  0
  -20.8364  -30.6490   23.5415 C   0  0  0  0  0  0  0  0  0  0  0  0
  -30.9919  -16.2077   22.9406 C   0  0  0  0  0  0  0  0  0  0  0  0
  -31.6321  -18.4379   23.9546 C   0  0  0  0  0  0  0  0  0  0  0  0
  -30.0233  -18.3814   22.0897 C   0  0  0  0  0  0  0  0  0  0  0  0
  -21.0961  -29.2524   22.9638 C   0  0  1  0  0  0  0  0  0  0  0  0
  -24.2632  -27.8684   24.5407 C   0  0  1  0  0  0  0  0  0  0  0  0
  -30.4553  -16.9569   21.7052 C   0  0  2  0  0  0  0  0  0  0  0  0
  -32.0891  -25.5157   22.1383 C   0  0  0  0  0  0  0  0  0  0  0  0
  -28.1666  -20.1384   17.8178 C   0  0  0  0  0  0  0  0  0  0  0  0
  -27.9667  -21.8255   19.7537 C   0  0  0  0  0  0  0  0  0  0  0  0
  -30.1165  -30.0832   29.1054 C   0  0  0  0  0  0  0  0  0  0  0  0
  -25.4705  -32.3114   24.9436 C   0  0  0  0  0  0  0  0  0  0  0  0
  -27.5425  -32.7493   26.2790 C   0  0  0  0  0  0  0  0  0  0  0  0
  -25.4308  -32.0954   27.4348 C   0  0  0  0  0  0  0  0  0  0  0  0
  -29.4583  -26.5710   27.7987 C   0  0  0  0  0  0  0  0  0  0  0  0
  -30.9094  -26.2852   19.5586 C   0  0  0  0  0  0  0  0  0  0  0  0
  -29.7719  -27.0235   20.2558 C   0  0  0  0  0  0  0  0  0  1  0  0
  -26.7035  -30.3625   26.1045 C   0  0  1  0  0  0  0  0  0  0  0  0
  -29.2863  -28.9622   28.4999 C   0  0  2  0  0  0  0  0  0  0  0  0
  -26.2862  -31.8588   26.1711 C   0  0  0  0  0  0  0  0  0  0  0  0
  -28.5194  -15.4307   21.7709 N   0  0  0  0  0  0  0  0  0  0  0  0
  -30.0708  -21.5380   18.6149 N   0  0  0  0  0  0  0  0  0  0  0  0
  -29.3391  -16.1886   21.0227 N   0  0  0  0  0  0  0  0  0  0  0  0
  -25.4788  -28.6331   24.8265 N   0  0  0  0  0  0  0  0  0  0  0  0
  -31.1406  -19.0867   22.7371 N   0  0  0  0  0  0  0  0  0  0  0  0
  -29.7710  -16.8731   18.7966 N   0  0  0  0  0  0  0  0  0  0  0  0
  -26.1997  -14.1415   18.3723 N   0  0  0  0  0  0  0  0  0  0  0  0
  -31.2116  -20.7920   21.1095 N   0  0  0  0  0  0  0  0  0  0  0  0
  -22.0734  -28.5476   23.7653 N   0  0  0  0  0  0  0  0  0  0  0  0
  -27.4539  -29.8992   27.2666 N   0  0  0  0  0  0  0  0  0  0  0  0
  -30.1529  -27.7578   28.3610 N   0  3  0  0  0  0  0  0  0  0  0  0
  -27.6824  -15.4600   17.2225 O   0  0  0  0  0  0  0  0  0  0  0  0
  -23.9952  -29.4158   22.7775 O   0  0  0  0  0  0  0  0  0  0  0  0
  -24.6574  -29.4288   26.8583 O   0  0  0  0  0  0  0  0  0  0  0  0
  -29.3368  -29.2168   26.0978 O   0  0  0  0  0  0  0  0  0  0  0  0
  -32.6745  -20.8075   22.9098 O   0  0  0  0  0  0  0  0  0  0  0  0
  -23.5936  -11.4621   22.5032 O   0  0  0  0  0  0  0  0  0  0  0  0
  -28.5299  -26.3869   19.9584 O   0  0  0  0  0  0  0  0  0  1  0  0
  -22.7797   -6.8746   19.5543 F   0  0  0  0  0  0  0  0  0  0  0  0
  -23.8256   -8.9665   23.6696 F   0  0  0  0  0  0  0  0  0  0  0  0
  1  2  1  0  0  0  0
  1  5  2  0  0  0  0
  2  6  2  0  0  0  0
  3  8  2  0  0  0  0
  3 17  1  0  0  0  0
  4  9  1  0  0  0  0
  4 17  2  0  0  0  0
  5 19  1  0  0  0  0
  6 21  1  0  0  0  0
  7 10  2  0  0  0  0
  7 20  1  0  0  0  0
  8 27  1  0  0  0  0
  9 27  2  0  0  0  0
 10 28  1  0  0  0  0
 11 12  2  0  0  0  0
 11 29  1  0  0  0  0
 12 30  1  0  0  0  0
 13 22  1  0  0  0  0
 13 28  2  0  0  0  0
 14 23  2  0  0  0  0
 14 25  1  0  0  0  0
 15 24  2  0  0  0  0
 15 26  1  0  0  0  0
 16 30  2  0  0  0  0
 16 31  1  0  0  0  0
 17 32  1  0  0  0  0
 18 32  1  0  0  0  0
 18 33  2  0  0  0  0
 18 34  1  0  0  0  0
 19 21  2  0  0  0  0
 19 40  1  0  0  0  0
 20 22  2  0  0  0  0
 20 41  1  0  0  0  0
 21 49  1  0  0  0  0
 22 42  1  0  0  0  0
 23 24  1  0  0  0  0
 23 60  1  0  0  0  0
 24 52  1  0  0  0  0
 25 26  2  0  0  0  0
 25 66  1  0  0  0  0
 26 72  1  0  0  0  0
 27 81  1  0  0  0  0
 28 82  1  0  0  0  0
 29 31  2  0  0  0  0
 29 81  1  0  0  0  0
 30 83  1  0  0  0  0
 31 84  1  0  0  0  0
 32 65  2  0  0  0  0
 33 67  1  0  0  0  0
 33 70  1  0  0  0  0
 34 71  1  0  0  0  0
 34 76  2  0  0  0  0
 35 50  1  0  0  0  0
 35 73  1  0  0  0  0
 35 77  2  0  0  0  0
 36 53  1  0  0  0  0
 36 54  1  0  0  0  0
 36 66  2  0  0  0  0
 37 62  1  0  0  0  0
 37 68  1  0  0  0  0
 37 78  2  0  0  0  0
 38 63  1  0  0  0  0
 38 74  1  0  0  0  0
 38 79  2  0  0  0  0
 39 69  1  0  0  0  0
 39 72  1  0  0  0  0
 39 80  2  0  0  0  0
 40 43  1  0  0  0  0
 41 50  1  0  0  0  0
 42 68  1  0  0  0  0
 43 45  1  0  0  0  0
 44 46  1  0  0  0  0
 44 47  1  0  0  0  0
 45 49  1  0  0  0  0
 46 51  1  0  0  0  0
 47 69  1  0  0  0  0
 48 51  1  0  0  0  0
 48 69  1  0  0  0  0
 49 73  1  0  0  0  0
 50 68  1  0  0  0  0
 51 67  1  0  0  0  0
 55 63  1  0  0  0  0
 56 64  1  0  0  0  0
 57 64  1  0  0  0  0
 58 64  1  0  0  0  0
 59 75  1  0  0  0  0
 60 61  1  0  0  0  0
 61 82  1  0  0  0  0
 62 64  1  0  0  0  0
 62 74  1  0  0  0  0
 63 75  1  0  0  0  0
 65 67  1  0  0  0  0
M  CHG  1  75   1
M  ISO  4  39 100  61 101  72 100  82 101
M  END
> <Batch ID>
0017

> <Smiles>
C=C(C)Nc1cc(C[101CH2:1][101O:1]c2ccc3c(c2)CN(C(=O)C(NC(=O)C(C)NC)C(C)(C)C)C(C(=O)NC2CCCc4ccccc42)C3)c(C)cc1[100NH:0][100C:0](=O)N1CCCC(n2nc(-c3ccc(Oc4ccc(F)cc4F)cc3)c(C(N)=O)c2N)C1

> <Shape>
0.273

> <Color>
0.069

> <Negative vol penalty>
0.000

$$$$

  -OEChem-04052316013D

 86 93  0     1  0  0  0  0  0999 V2000
  -23.9394  -38.1388   21.9724 C   0  0  0  0  0  0  0  0  0  0  0  0
  -24.5928  -37.3262   21.0515 C   0  0  0  0  0  0  0  0  0  0  0  0
  -27.6468  -10.8477   21.6955 C   0  0  0  0  0  0  0  0  0  0  0  0
  -25.8707  -11.9050   20.4446 C   0  0  0  0  0  0  0  0  0  0  0  0
  -23.7382  -37.6900   23.2771 C   0  0  0  0  0  0  0  0  0  0  0  0
  -25.0464  -36.0646   21.4350 C   0  0  0  0  0  0  0  0  0  0  0  0
  -26.0566  -29.4666   18.8346 C   0  0  0  0  0  0  0  0  0  0  0  0
  -26.7079  -10.0643   22.3665 C   0  0  0  0  0  0  0  0  0  0  0  0
  -24.9318  -11.1215   21.1156 C   0  0  0  0  0  0  0  0  0  0  0  0
  -27.0446  -28.4881   18.7340 C   0  0  0  0  0  0  0  0  0  0  0  0
  -23.7639   -7.9542   20.9577 C   0  0  0  0  0  0  0  0  0  0  0  0
  -22.7569   -7.3591   20.1978 C   0  0  0  0  0  0  0  0  0  0  0  0
  -26.5709  -27.7862   20.9928 C   0  0  0  0  0  0  0  0  0  0  0  0
  -21.0882   -8.5478   21.4783 C   0  0  0  0  0  0  0  0  0  0  0  0
  -27.2282  -11.7681   20.7345 C   0  0  0  0  0  0  0  0  0  0  0  0
  -28.8601  -12.2682   18.8386 C   0  0  0  0  0  0  0  0  0  0  0  0
  -24.1811  -36.4184   23.6741 C   0  0  0  0  0  0  0  0  0  0  0  0
  -25.3245  -29.6196   20.0208 C   0  0  0  0  0  0  0  0  0  0  0  0
  -24.8522  -35.5989   22.7465 C   0  0  0  0  0  0  0  0  0  0  0  0
  -25.5724  -28.7657   21.1050 C   0  0  0  0  0  0  0  0  0  0  0  0
  -25.3504  -10.2011   22.0765 C   0  0  0  0  0  0  0  0  0  0  0  0
  -27.3039  -27.6496   19.8142 C   0  0  0  0  0  0  0  0  0  0  0  0
  -23.4330   -8.8461   21.9779 C   0  0  0  0  0  0  0  0  0  0  0  0
  -21.4191   -7.6559   20.4581 C   0  0  0  0  0  0  0  0  0  0  0  0
  -22.0952   -9.1429   22.2382 C   0  0  0  0  0  0  0  0  0  0  0  0
  -28.1976  -12.5781   20.0414 C   0  0  0  0  0  0  0  0  0  0  0  0
  -29.6699  -13.3523   18.6034 C   0  0  0  0  0  0  0  0  0  0  0  0
  -28.7529  -11.1044   18.0080 C   0  0  0  0  0  0  0  0  0  0  0  0
  -24.9606  -31.9545   22.1467 C   0  0  0  0  0  0  0  0  0  0  0  0
  -22.7462  -29.9415   23.3981 C   0  0  0  0  0  0  0  0  0  0  0  0
  -21.6065  -26.7436   23.7471 C   0  0  0  0  0  0  0  0  0  0  0  0
  -29.3878  -19.0928   20.2823 C   0  0  0  0  0  0  0  0  0  0  0  0
  -23.9827  -35.9957   25.1082 C   0  0  0  0  0  0  0  0  0  0  0  0
  -24.2437  -30.6624   20.1041 C   0  0  0  0  0  0  0  0  0  0  0  0
  -24.8005  -28.8756   22.3936 C   0  0  0  0  0  0  0  0  0  0  0  0
  -24.1619  -34.4963   25.3316 C   0  0  0  0  0  0  0  0  0  0  0  0
  -32.0531  -16.8123   20.8924 C   0  0  0  0  0  0  0  0  0  0  0  0
  -25.4241  -33.9996   24.6336 C   0  0  0  0  0  0  0  0  0  0  0  0
  -31.4270  -15.4406   20.6349 C   0  0  0  0  0  0  0  0  0  0  0  0
  -31.0607  -17.7722   21.5448 C   0  0  0  0  0  0  0  0  0  0  0  0
  -29.1552  -16.5511   20.5692 C   0  0  0  0  0  0  0  0  0  0  0  0
  -25.3370  -34.2142   23.1178 C   0  0  1  0  0  0  0  0  0  0  0  0
  -23.9127  -31.0667   21.5373 C   0  0  1  0  0  0  0  0  0  0  0  0
  -30.1008  -15.5658   19.8611 C   0  0  2  0  0  0  0  0  0  0  0  0
  -19.7970  -25.4077   24.8599 C   0  0  0  0  0  0  0  0  0  0  0  0
  -26.2890  -23.2089   14.8450 C   0  0  0  0  0  0  0  0  0  0  0  0
  -28.5709  -24.2891   14.8500 C   0  0  0  0  0  0  0  0  0  0  0  0
  -30.2009  -23.3976   17.0620 C   0  0  0  0  0  0  0  0  0  0  0  0
  -26.0091  -22.3443   17.8549 C   0  0  0  0  0  0  0  0  0  0  0  0
  -24.1939  -30.2111   26.0705 C   0  0  0  0  0  0  0  0  0  0  0  0
  -22.9622  -28.1806   26.8633 C   0  0  0  0  0  0  0  0  0  0  0  0
  -21.6981  -30.2354   26.2289 C   0  0  0  0  0  0  0  0  0  0  0  0
  -26.5938  -19.0515   17.0447 C   0  0  0  0  0  0  0  0  0  0  0  0
  -28.9134  -19.9527   16.8614 C   0  0  0  0  0  0  0  0  0  0  0  0
  -20.5550  -25.7882   21.1509 C   0  0  0  0  0  0  0  0  0  0  0  0
  -28.7395  -24.3235   19.7827 C   0  0  0  0  0  0  0  0  0  0  0  0
  -28.1594  -24.0925   18.3811 C   0  0  0  0  0  0  0  0  0  0  0  0
  -27.6382  -20.2752   18.9784 C   0  0  0  0  0  0  0  0  0  0  0  0
  -28.0834  -25.5060   20.4873 C   0  0  0  0  0  0  0  0  0  1  0  0
  -22.7677  -28.8302   24.4197 C   0  0  1  0  0  0  0  0  0  0  0  0
  -20.2183  -26.1473   23.5996 C   0  0  2  0  0  0  0  0  0  0  0  0
  -27.4519  -23.6986   15.6928 C   0  0  0  0  0  0  0  0  0  0  0  0
  -28.8513  -22.9590   17.6151 C   0  0  1  0  0  0  0  0  0  0  0  0
  -26.9102  -21.5806   16.8853 C   0  0  2  0  0  0  0  0  0  0  0  0
  -22.9215  -29.3633   25.8721 C   0  0  0  0  0  0  0  0  0  0  0  0
  -27.5065  -20.2401   17.4310 C   0  0  0  0  0  0  0  0  0  0  0  0
  -28.5557  -13.7660   20.5361 N   0  0  0  0  0  0  0  0  0  0  0  0
  -29.4520  -14.2120   19.6396 N   0  0  0  0  0  0  0  0  0  0  0  0
  -23.7583  -29.9149   22.4282 N   0  0  0  0  0  0  0  0  0  0  0  0
  -29.8254  -17.8468   20.7610 N   0  0  0  0  0  0  0  0  0  0  0  0
  -30.5400  -13.6445   17.6135 N   0  0  0  0  0  0  0  0  0  0  0  0
  -27.8733  -10.0848   18.3967 N   0  0  0  0  0  0  0  0  0  0  0  0
  -24.4965  -33.2039   22.5117 N   0  0  0  0  0  0  0  0  0  0  0  0
  -21.5576  -28.0465   24.1958 N   0  0  0  0  0  0  0  0  0  0  0  0
  -28.2115  -19.0737   19.5430 N   0  0  0  0  0  0  0  0  0  0  0  0
  -20.1847  -25.1889   22.4588 N   0  3  0  0  0  0  0  0  0  0  0  0
  -28.0032  -22.5301   16.4681 N   0  3  1  0  0  0  0  0  0  0  0  0
  -29.4297  -10.9653   16.9610 O   0  0  0  0  0  0  0  0  0  0  0  0
  -26.1051  -31.5365   22.2774 O   0  0  0  0  0  0  0  0  0  0  0  0
  -21.8597  -30.7974   23.4542 O   0  0  0  0  0  0  0  0  0  0  0  0
  -22.6318  -26.1152   23.4934 O   0  0  0  0  0  0  0  0  0  0  0  0
  -30.0029  -20.1435   20.4933 O   0  0  0  0  0  0  0  0  0  0  0  0
  -24.4339   -9.4367   22.7309 O   0  0  0  0  0  0  0  0  0  0  0  0
  -28.2682  -26.6942   19.7189 O   0  0  0  0  0  0  0  0  0  1  0  0
  -20.4522   -7.0855   19.7273 F   0  0  0  0  0  0  0  0  0  0  0  0
  -21.7712   -9.9998   23.2162 F   0  0  0  0  0  0  0  0  0  0  0  0
  1  2  1  0  0  0  0
  1  5  2  0  0  0  0
  2  6  2  0  0  0  0
  3  8  2  0  0  0  0
  3 15  1  0  0  0  0
  4  9  1  0  0  0  0
  4 15  2  0  0  0  0
  5 17  1  0  0  0  0
  6 19  1  0  0  0  0
  7 10  2  0  0  0  0
  7 18  1  0  0  0  0
  8 21  1  0  0  0  0
  9 21  2  0  0  0  0
 10 22  1  0  0  0  0
 11 12  2  0  0  0  0
 11 23  1  0  0  0  0
 12 24  1  0  0  0  0
 13 20  1  0  0  0  0
 13 22  2  0  0  0  0
 14 24  2  0  0  0  0
 14 25  1  0  0  0  0
 15 26  1  0  0  0  0
 16 26  1  0  0  0  0
 16 27  2  0  0  0  0
 16 28  1  0  0  0  0
 17 19  2  0  0  0  0
 17 33  1  0  0  0  0
 18 20  2  0  0  0  0
 18 34  1  0  0  0  0
 19 42  1  0  0  0  0
 20 35  1  0  0  0  0
 21 83  1  0  0  0  0
 22 84  1  0  0  0  0
 23 25  2  0  0  0  0
 23 83  1  0  0  0  0
 24 85  1  0  0  0  0
 25 86  1  0  0  0  0
 26 67  2  0  0  0  0
 27 68  1  0  0  0  0
 27 71  1  0  0  0  0
 28 72  1  0  0  0  0
 28 78  2  0  0  0  0
 29 43  1  0  0  0  0
 29 73  1  0  0  0  0
 29 79  2  0  0  0  0
 30 60  1  0  0  0  0
 30 69  1  0  0  0  0
 30 80  2  0  0  0  0
 31 61  1  0  0  0  0
 31 74  1  0  0  0  0
 31 81  2  0  0  0  0
 32 70  1  0  0  0  0
 32 75  1  0  0  0  0
 32 82  2  0  0  0  0
 33 36  1  0  0  0  0
 34 43  1  0  0  0  0
 35 69  1  0  0  0  0
 36 38  1  0  0  0  0
 37 39  1  0  0  0  0
 37 40  1  0  0  0  0
 38 42  1  0  0  0  0
 39 44  1  0  0  0  0
 40 70  1  0  0  0  0
 41 44  1  0  0  0  0
 41 70  1  0  0  0  0
 42 73  1  0  0  0  0
 43 69  1  0  0  0  0
 44 68  1  0  0  0  0
 45 61  1  0  0  0  0
 46 62  1  0  0  0  0
 47 62  1  0  0  0  0
 48 63  1  0  0  0  0
 49 64  1  0  0  0  0
 50 65  1  0  0  0  0
 51 65  1  0  0  0  0
 52 65  1  0  0  0  0
 53 66  1  0  0  0  0
 54 66  1  0  0  0  0
 55 76  1  0  0  0  0
 56 57  1  0  0  0  0
 56 59  1  0  0  0  0
 57 63  1  0  0  0  0
 58 66  1  0  0  0  0
 58 75  1  0  0  0  0
 59 84  1  0  0  0  0
 60 65  1  0  0  0  0
 60 74  1  0  0  0  0
 61 76  1  0  0  0  0
 62 77  1  0  0  0  0
 63 77  1  0  0  0  0
 64 66  1  0  0  0  0
 64 77  1  0  0  0  0
 67 68  1  0  0  0  0
M  CHG  2  76   1  77   1
M  ISO  4  32 100  59 101  75 100  84 101
M  END
> <Batch ID>
0017

> <Smiles>
CNC(C)C(=O)NC(C(=O)N1Cc2cc([101O:1][101CH2:1]CCC(C)N(C(C)C)C(C)C(C)(C)C[100NH:0][100C:0](=O)N3CCCC(n4nc(-c5ccc(Oc6ccc(F)cc6F)cc5)c(C(N)=O)c4N)C3)ccc2CC1C(=O)NC1CCCc2ccccc21)C(C)(C)C

> <Shape>
0.314

> <Color>
0.076

> <Negative vol penalty>
0.000

$$$$

  -OEChem-04052316013D

 92100  0     1  0  0  0  0  0999 V2000
  -26.9902  -37.8504   19.9075 C   0  0  0  0  0  0  0  0  0  0  0  0
  -27.5645  -36.6016   19.6927 C   0  0  0  0  0  0  0  0  0  0  0  0
  -23.6387  -11.2284   18.1938 C   0  0  0  0  0  0  0  0  0  0  0  0
  -25.0478   -9.3098   17.7811 C   0  0  0  0  0  0  0  0  0  0  0  0
  -26.0664  -38.0238   20.9373 C   0  0  0  0  0  0  0  0  0  0  0  0
  -27.2161  -35.5256   20.5084 C   0  0  0  0  0  0  0  0  0  0  0  0
  -26.7370  -29.6505   18.8474 C   0  0  0  0  0  0  0  0  0  0  0  0
  -24.1271  -11.8360   17.0372 C   0  0  0  0  0  0  0  0  0  0  0  0
  -25.5362   -9.9174   16.6243 C   0  0  0  0  0  0  0  0  0  0  0  0
  -27.6078  -28.5682   18.9662 C   0  0  0  0  0  0  0  0  0  0  0  0
  -25.2702  -14.0459   14.3851 C   0  0  0  0  0  0  0  0  0  0  0  0
  -25.6274  -15.3922   14.4593 C   0  0  0  0  0  0  0  0  0  0  0  0
  -26.4878  -27.8972   20.9946 C   0  0  0  0  0  0  0  0  0  0  0  0
  -27.7840  -14.6270   20.8639 C   0  0  0  0  0  0  0  0  0  0  0  0
  -27.2597  -14.8654   16.1608 C   0  0  0  0  0  0  0  0  0  0  0  0
  -24.0991   -9.9653   18.5658 C   0  0  0  0  0  0  0  0  0  0  0  0
  -22.4755   -8.4913   19.8692 C   0  0  0  0  0  0  0  0  0  0  0  0
  -25.6993  -36.9471   21.7599 C   0  0  0  0  0  0  0  0  0  0  0  0
  -25.7403  -29.8709   19.8089 C   0  0  0  0  0  0  0  0  0  0  0  0
  -26.2875  -35.6851   21.5510 C   0  0  0  0  0  0  0  0  0  0  0  0
  -25.6040  -28.9816   20.8844 C   0  0  0  0  0  0  0  0  0  0  0  0
  -28.6486  -15.5206   21.4960 C   0  0  0  0  0  0  0  0  0  0  0  0
  -27.3121  -13.5087   21.5513 C   0  0  0  0  0  0  0  0  0  0  0  0
  -29.0414  -15.2959   22.8154 C   0  0  0  0  0  0  0  0  0  0  0  0
  -27.7048  -13.2840   22.8707 C   0  0  0  0  0  0  0  0  0  0  0  0
  -25.0758  -11.1805   16.2524 C   0  0  0  0  0  0  0  0  0  0  0  0
  -27.4851  -27.6930   20.0414 C   0  0  0  0  0  0  0  0  0  0  0  0
  -25.9077  -13.1093   15.1989 C   0  0  0  0  0  0  0  0  0  0  0  0
  -26.6221  -15.8019   15.3471 C   0  0  0  0  0  0  0  0  0  0  0  0
  -26.9024  -13.5191   16.0867 C   0  0  0  0  0  0  0  0  0  0  0  0
  -28.5695  -14.1776   23.5028 C   0  0  0  0  0  0  0  0  0  0  0  0
  -23.5954   -9.3374   19.7608 C   0  0  0  0  0  0  0  0  0  0  0  0
  -22.4206   -8.1632   21.2018 C   0  0  0  0  0  0  0  0  0  0  0  0
  -21.5661   -8.0419   18.8558 C   0  0  0  0  0  0  0  0  0  0  0  0
  -25.0812  -32.2064   21.8618 C   0  0  0  0  0  0  0  0  0  0  0  0
  -22.4165  -30.4409   22.4137 C   0  0  0  0  0  0  0  0  0  0  0  0
  -20.8939  -27.3879   22.3244 C   0  0  0  0  0  0  0  0  0  0  0  0
  -26.8599  -10.9140   23.0023 C   0  0  0  0  0  0  0  0  0  0  0  0
  -24.7319  -37.1942   22.8903 C   0  0  0  0  0  0  0  0  0  0  0  0
  -24.7919  -31.0277   19.6521 C   0  0  0  0  0  0  0  0  0  0  0  0
  -24.5377  -29.1624   21.9326 C   0  0  0  0  0  0  0  0  0  0  0  0
  -24.1354  -35.9151   23.4721 C   0  0  0  0  0  0  0  0  0  0  0  0
  -23.9146  -10.2764   25.2990 C   0  0  0  0  0  0  0  0  0  0  0  0
  -25.2277  -34.8778   23.7123 C   0  0  0  0  0  0  0  0  0  0  0  0
  -23.1058   -9.8449   24.0788 C   0  0  0  0  0  0  0  0  0  0  0  0
  -25.2533  -10.8824   24.8771 C   0  0  0  0  0  0  0  0  0  0  0  0
  -25.3901   -8.8562   23.4505 C   0  0  0  0  0  0  0  0  0  0  0  0
  -25.9165  -34.4878   22.3989 C   0  0  1  0  0  0  0  0  0  0  0  0
  -24.1417  -31.4497   20.9661 C   0  0  1  0  0  0  0  0  0  0  0  0
  -23.8622   -8.7796   23.2546 C   0  0  2  0  0  0  0  0  0  0  0  0
  -29.9698  -16.2691   23.4743 C   0  0  0  0  0  0  0  0  0  0  0  0
  -28.2670  -10.9143   20.1179 C   0  0  0  0  0  0  0  0  0  0  0  0
  -19.0431  -27.8882   20.7053 C   0  0  0  0  0  0  0  0  0  0  0  0
  -26.0378  -12.9599   19.3684 C   0  0  0  0  0  0  0  0  0  0  0  0
  -25.0064  -12.5309   21.5810 C   0  0  0  0  0  0  0  0  0  0  0  0
  -23.1339  -30.5138   25.3785 C   0  0  0  0  0  0  0  0  0  0  0  0
  -21.5303  -28.6258   25.7415 C   0  0  0  0  0  0  0  0  0  0  0  0
  -20.7008  -30.8173   24.8862 C   0  0  0  0  0  0  0  0  0  0  0  0
  -18.8815  -26.0486   24.0319 C   0  0  0  0  0  0  0  0  0  0  0  0
  -29.1390  -16.7156   20.7328 C   0  0  0  0  0  0  0  0  0  0  0  0
  -26.9216  -11.0885   20.8168 C   0  0  0  0  0  0  0  0  0  0  0  0
  -28.7558  -21.7320   20.2981 C   0  0  0  0  0  0  0  0  0  0  0  0
  -28.0319  -22.9532   20.8700 C   0  0  0  0  0  0  0  0  0  0  0  0
  -28.2462  -20.4366   20.9364 C   0  0  0  0  0  0  0  0  0  0  0  0
  -28.5147  -24.2441   20.2118 C   0  0  0  0  0  0  0  0  0  0  0  0
  -28.9864  -19.1935   20.4583 C   0  0  0  0  0  0  0  0  0  0  0  0
  -27.8302  -25.4673   20.8050 C   0  0  0  0  0  0  0  0  0  1  0  0
  -22.0522  -29.3222   23.3596 C   0  0  1  0  0  0  0  0  0  0  0  0
  -19.5378  -26.9536   21.7983 C   0  0  2  0  0  0  0  0  0  0  0  0
  -26.3860  -12.5713   20.8454 C   0  0  0  0  0  0  0  0  0  0  0  0
  -21.8757  -29.8172   24.8229 C   0  0  0  0  0  0  0  0  0  0  0  0
  -24.2077   -9.5347   20.9313 N   0  0  0  0  0  0  0  0  0  0  0  0
  -23.4699   -8.8080   21.7879 N   0  0  0  0  0  0  0  0  0  0  0  0
  -23.6386  -30.3120   21.7387 N   0  0  0  0  0  0  0  0  0  0  0  0
  -25.8404  -10.2315   23.7024 N   0  0  0  0  0  0  0  0  0  0  0  0
  -21.5776   -7.3891   21.9177 N   0  0  0  0  0  0  0  0  0  0  0  0
  -21.7676   -8.4744   17.5379 N   0  0  0  0  0  0  0  0  0  0  0  0
  -27.2145  -12.1440   23.5536 N   0  0  0  0  0  0  0  0  0  0  0  0
  -25.0872  -33.5713   21.6461 N   0  0  0  0  0  0  0  0  0  0  0  0
  -20.8672  -28.6826   22.7982 N   0  0  0  0  0  0  0  0  0  0  0  0
  -18.5336  -26.9449   22.8993 N   0  3  0  0  0  0  0  0  0  0  0  0
  -28.4794  -17.9843   21.1485 N   0  3  0  0  0  0  0  0  0  0  0  0
  -20.5938   -7.2927   19.1142 O   0  0  0  0  0  0  0  0  0  0  0  0
  -25.7499  -31.5973   22.6885 O   0  0  0  0  0  0  0  0  0  0  0  0
  -21.6418  -31.3906   22.2733 O   0  0  0  0  0  0  0  0  0  0  0  0
  -21.8776  -26.6510   22.3194 O   0  0  0  0  0  0  0  0  0  0  0  0
  -27.3952  -10.4212   22.0058 O   0  0  0  0  0  0  0  0  0  0  0  0
  -25.5525  -11.7730   15.1235 O   0  0  0  0  0  0  0  0  0  0  0  0
  -28.3342  -26.6362   20.1600 O   0  0  0  0  0  0  0  0  0  1  0  0
  -26.9661  -17.0946   15.4170 F   0  0  0  0  0  0  0  0  0  0  0  0
  -27.5193  -12.6238   16.8701 F   0  0  0  0  0  0  0  0  0  0  0  0
  -29.0631  -13.9035   25.1434 Cl  0  0  0  0  0  0  0  0  0  0  0  0
  1  2  1  0  0  0  0
  1  5  2  0  0  0  0
  2  6  2  0  0  0  0
  3  8  2  0  0  0  0
  3 16  1  0  0  0  0
  4  9  1  0  0  0  0
  4 16  2  0  0  0  0
  5 18  1  0  0  0  0
  6 20  1  0  0  0  0
  7 10  2  0  0  0  0
  7 19  1  0  0  0  0
  8 26  1  0  0  0  0
  9 26  2  0  0  0  0
 10 27  1  0  0  0  0
 11 12  2  0  0  0  0
 11 28  1  0  0  0  0
 12 29  1  0  0  0  0
 13 21  1  0  0  0  0
 13 27  2  0  0  0  0
 14 22  2  0  0  0  0
 14 23  1  0  0  0  0
 15 29  2  0  0  0  0
 15 30  1  0  0  0  0
 16 32  1  0  0  0  0
 17 32  1  0  0  0  0
 17 33  2  0  0  0  0
 17 34  1  0  0  0  0
 18 20  2  0  0  0  0
 18 39  1  0  0  0  0
 19 21  2  0  0  0  0
 19 40  1  0  0  0  0
 20 48  1  0  0  0  0
 21 41  1  0  0  0  0
 22 24  1  0  0  0  0
 22 60  1  0  0  0  0
 23 25  2  0  0  0  0
 23 70  1  0  0  0  0
 24 31  2  0  0  0  0
 24 51  1  0  0  0  0
 25 31  1  0  0  0  0
 25 78  1  0  0  0  0
 26 88  1  0  0  0  0
 27 89  1  0  0  0  0
 28 30  2  0  0  0  0
 28 88  1  0  0  0  0
 29 90  1  0  0  0  0
 30 91  1  0  0  0  0
 31 92  1  0  0  0  0
 32 72  2  0  0  0  0
 33 73  1  0  0  0  0
 33 76  1  0  0  0  0
 34 77  1  0  0  0  0
 34 83  2  0  0  0  0
 35 49  1  0  0  0  0
 35 79  1  0  0  0  0
 35 84  2  0  0  0  0
 36 68  1  0  0  0  0
 36 74  1  0  0  0  0
 36 85  2  0  0  0  0
 37 69  1  0  0  0  0
 37 80  1  0  0  0  0
 37 86  2  0  0  0  0
 38 75  1  0  0  0  0
 38 78  1  0  0  0  0
 38 87  2  0  0  0  0
 39 42  1  0  0  0  0
 40 49  1  0  0  0  0
 41 74  1  0  0  0  0
 42 44  1  0  0  0  0
 43 45  1  0  0  0  0
 43 46  1  0  0  0  0
 44 48  1  0  0  0  0
 45 50  1  0  0  0  0
 46 75  1  0  0  0  0
 47 50  1  0  0  0  0
 47 75  1  0  0  0  0
 48 79  1  0  0  0  0
 49 74  1  0  0  0  0
 50 73  1  0  0  0  0
 52 61  1  0  0  0  0
 53 69  1  0  0  0  0
 54 70  1  0  0  0  0
 55 70  1  0  0  0  0
 56 71  1  0  0  0  0
 57 71  1  0  0  0  0
 58 71  1  0  0  0  0
 59 81  1  0  0  0  0
 60 82  1  0  0  0  0
 61 70  1  0  0  0  0
 62 63  1  0  0  0  0
 62 64  1  0  0  0  0
 63 65  1  0  0  0  0
 64 66  1  0  0  0  0
 65 67  1  0  0  0  0
 66 82  1  0  0  0  0
 67 89  1  0  0  0  0
 68 71  1  0  0  0  0
 68 80  1  0  0  0  0
 69 81  1  0  0  0  0
 72 73  1  0  0  0  0
M  CHG  2  81   1  82   1
M  ISO  4  38 100  67 101  78 100  89 101
M  END
> <Batch ID>
0017

> <Smiles>
CCC(C)(C)c1cc(CNCCCCC[101CH2:1][101O:1]c2ccc3c(c2)CN(C(=O)C(NC(=O)C(C)NC)C(C)(C)C)C(C(=O)NC2CCCc4ccccc42)C3)c(C)c(Cl)c1[100NH:0][100C:0](=O)N1CCCC(n2nc(-c3ccc(Oc4ccc(F)cc4F)cc3)c(C(N)=O)c2N)C1

> <Shape>
0.263

> <Color>
0.077

> <Negative vol penalty>
0.000

$$$$

  -OEChem-04052316013D

 81 89  0     1  0  0  0  0  0999 V2000
  -30.0092  -32.1557   25.5025 C   0  0  0  0  0  0  0  0  0  0  0  0
  -30.2670  -30.8044   25.2950 C   0  0  0  0  0  0  0  0  0  0  0  0
  -23.0804   -9.8489   19.9585 C   0  0  0  0  0  0  0  0  0  0  0  0
  -23.8322   -9.8835   22.2542 C   0  0  0  0  0  0  0  0  0  0  0  0
  -28.8897  -32.7482   24.9197 C   0  0  0  0  0  0  0  0  0  0  0  0
  -29.4047  -30.0445   24.5053 C   0  0  0  0  0  0  0  0  0  0  0  0
  -30.9274  -25.4144   20.7974 C   0  0  0  0  0  0  0  0  0  0  0  0
  -22.3359   -8.6986   20.2196 C   0  0  0  0  0  0  0  0  0  0  0  0
  -23.0876   -8.7333   22.5154 C   0  0  0  0  0  0  0  0  0  0  0  0
  -30.8872  -24.0303   20.9600 C   0  0  0  0  0  0  0  0  0  0  0  0
  -19.8575   -7.9421   23.1161 C   0  0  0  0  0  0  0  0  0  0  0  0
  -19.0964   -7.9161   24.2847 C   0  0  0  0  0  0  0  0  0  0  0  0
  -28.7428  -23.9690   19.8568 C   0  0  0  0  0  0  0  0  0  0  0  0
  -31.1613  -17.6486   20.5345 C   0  0  0  0  0  0  0  0  0  0  0  0
  -20.3355   -5.9879   25.0487 C   0  0  0  0  0  0  0  0  0  0  0  0
  -23.8287  -10.4413   20.9758 C   0  0  0  0  0  0  0  0  0  0  0  0
  -24.1705  -12.9649   20.8266 C   0  0  0  0  0  0  0  0  0  0  0  0
  -28.0186  -31.9974   24.1146 C   0  0  0  0  0  0  0  0  0  0  0  0
  -29.8688  -26.0886   20.1719 C   0  0  0  0  0  0  0  0  0  0  0  0
  -28.2718  -30.6272   23.9123 C   0  0  0  0  0  0  0  0  0  0  0  0
  -28.7731  -25.3614   19.6852 C   0  0  0  0  0  0  0  0  0  0  0  0
  -30.6430  -19.8609   21.3554 C   0  0  0  0  0  0  0  0  0  0  0  0
  -30.2490  -17.1003   21.4360 C   0  0  0  0  0  0  0  0  0  0  0  0
  -22.3394   -8.1409   21.4981 C   0  0  0  0  0  0  0  0  0  0  0  0
  -29.7934  -23.3077   20.4923 C   0  0  0  0  0  0  0  0  0  0  0  0
  -20.8575   -6.9910   22.9137 C   0  0  0  0  0  0  0  0  0  0  0  0
  -19.3354   -6.9390   25.2510 C   0  0  0  0  0  0  0  0  0  0  0  0
  -21.0966   -6.0139   23.8801 C   0  0  0  0  0  0  0  0  0  0  0  0
  -31.3583  -19.0289   20.4942 C   0  0  0  0  0  0  0  0  0  0  0  0
  -29.7307  -19.3126   22.2569 C   0  0  0  0  0  0  0  0  0  0  0  0
  -29.5337  -17.9323   22.2972 C   0  0  0  0  0  0  0  0  0  0  0  0
  -24.5984  -11.6291   20.7065 C   0  0  0  0  0  0  0  0  0  0  0  0
  -25.2638  -13.7102   20.4582 C   0  0  0  0  0  0  0  0  0  0  0  0
  -22.8984  -13.4854   21.2348 C   0  0  0  0  0  0  0  0  0  0  0  0
  -27.7888  -28.3191   21.0676 C   0  0  0  0  0  0  0  0  0  0  0  0
  -26.9344  -28.2251   17.9397 C   0  0  0  0  0  0  0  0  0  0  0  0
  -26.8213  -26.4634   15.0190 C   0  0  0  0  0  0  0  0  0  0  0  0
  -30.7291  -14.7590   20.6397 C   0  0  0  0  0  0  0  0  0  0  0  0
  -26.7955  -32.6708   23.5443 C   0  0  0  0  0  0  0  0  0  0  0  0
  -29.9396  -27.5788   19.9804 C   0  0  0  0  0  0  0  0  0  0  0  0
  -27.6204  -26.0354   18.9885 C   0  0  0  0  0  0  0  0  0  0  0  0
  -26.1369  -31.8824   22.4151 C   0  0  0  0  0  0  0  0  0  0  0  0
  -29.6235  -12.3166   18.2967 C   0  0  0  0  0  0  0  0  0  0  0  0
  -26.0000  -30.4126   22.7995 C   0  0  0  0  0  0  0  0  0  0  0  0
  -28.1824  -12.0299   18.7246 C   0  0  0  0  0  0  0  0  0  0  0  0
  -30.5343  -12.5601   19.4987 C   0  0  0  0  0  0  0  0  0  0  0  0
  -28.6224  -13.3007   20.8644 C   0  0  0  0  0  0  0  0  0  0  0  0
  -27.3736  -29.7754   23.0418 C   0  0  1  0  0  0  0  0  0  0  0  0
  -28.5699  -28.2222   19.7876 C   0  0  1  0  0  0  0  0  0  0  0  0
  -27.6538  -13.1131   19.6853 C   0  0  2  0  0  0  0  0  0  0  0  0
  -26.0290  -26.6356   12.6441 C   0  0  0  0  0  0  0  0  0  0  0  0
  -24.0635  -27.7687   18.8669 C   0  0  0  0  0  0  0  0  0  0  0  0
  -23.5076  -27.0135   16.5455 C   0  0  0  0  0  0  0  0  0  0  0  0
  -24.2993  -29.3459   16.9404 C   0  0  0  0  0  0  0  0  0  0  0  0
  -29.5659  -26.1456   13.9582 C   0  0  0  0  0  0  0  0  0  0  0  0
  -30.8621  -21.3444   21.3044 C   0  0  0  0  0  0  0  0  0  1  0  0
  -25.9404  -27.4316   17.1264 C   0  0  1  0  0  0  0  0  0  0  0  0
  -27.1950  -26.8443   13.5978 C   0  0  2  0  0  0  0  0  0  0  0  0
  -24.4734  -27.8772   17.3846 C   0  0  0  0  0  0  0  0  0  0  0  0
  -25.8648  -11.5286   20.2938 N   0  0  0  0  0  0  0  0  0  0  0  0
  -26.2419  -12.8106   20.1514 N   0  0  0  0  0  0  0  0  0  0  0  0
  -27.7333  -27.4948   18.8310 N   0  0  0  0  0  0  0  0  0  0  0  0
  -29.9721  -13.6012   20.3617 N   0  0  0  0  0  0  0  0  0  0  0  0
  -25.4742  -15.0407   20.3700 N   0  0  0  0  0  0  0  0  0  0  0  0
  -21.8855  -12.5802   21.5794 N   0  0  0  0  0  0  0  0  0  0  0  0
  -30.0787  -15.6936   21.4447 N   0  0  0  0  0  0  0  0  0  0  0  0
  -28.0221  -29.4783   21.7826 N   0  0  0  0  0  0  0  0  0  0  0  0
  -26.3646  -27.5494   15.7355 N   0  0  0  0  0  0  0  0  0  0  0  0
  -28.3424  -26.0190   13.1251 N   0  3  0  0  0  0  0  0  0  0  0  0
  -22.6618  -14.7166   21.2765 O   0  0  0  0  0  0  0  0  0  0  0  0
  -27.0296  -27.4102   21.3823 O   0  0  0  0  0  0  0  0  0  0  0  0
  -27.0045  -29.4468   17.7846 O   0  0  0  0  0  0  0  0  0  0  0  0
  -26.9207  -25.3165   15.4493 O   0  0  0  0  0  0  0  0  0  0  0  0
  -31.8599  -14.9223   20.1741 O   0  0  0  0  0  0  0  0  0  0  0  0
  -21.6128   -7.0186   21.7534 O   0  0  0  0  0  0  0  0  0  0  0  0
  -29.7514  -21.9567   20.6503 O   0  0  0  0  0  0  0  0  0  1  0  0
  -18.6055   -6.9151   26.3739 F   0  0  0  0  0  0  0  0  0  0  0  0
  -22.0568   -5.0982   23.6918 F   0  0  0  0  0  0  0  0  0  0  0  0
  -32.4978  -19.6641   19.3622 Cl  0  0  0  0  0  0  0  0  0  0  0  0
  -28.8529  -20.3717   23.3184 Cl  0  0  0  0  0  0  0  0  0  0  0  0
  -28.4031  -17.2226   23.4107 Cl  0  0  0  0  0  0  0  0  0  0  0  0
  1  2  1  0  0  0  0
  1  5  2  0  0  0  0
  2  6  2  0  0  0  0
  3  8  2  0  0  0  0
  3 16  1  0  0  0  0
  4  9  1  0  0  0  0
  4 16  2  0  0  0  0
  5 18  1  0  0  0  0
  6 20  1  0  0  0  0
  7 10  2  0  0  0  0
  7 19  1  0  0  0  0
  8 24  1  0  0  0  0
  9 24  2  0  0  0  0
 10 25  1  0  0  0  0
 11 12  2  0  0  0  0
 11 26  1  0  0  0  0
 12 27  1  0  0  0  0
 13 21  1  0  0  0  0
 13 25  2  0  0  0  0
 14 23  1  0  0  0  0
 14 29  2  0  0  0  0
 15 27  2  0  0  0  0
 15 28  1  0  0  0  0
 16 32  1  0  0  0  0
 17 32  1  0  0  0  0
 17 33  2  0  0  0  0
 17 34  1  0  0  0  0
 18 20  2  0  0  0  0
 18 39  1  0  0  0  0
 19 21  2  0  0  0  0
 19 40  1  0  0  0  0
 20 48  1  0  0  0  0
 21 41  1  0  0  0  0
 22 29  1  0  0  0  0
 22 30  2  0  0  0  0
 22 56  1  0  0  0  0
 23 31  2  0  0  0  0
 23 66  1  0  0  0  0
 24 75  1  0  0  0  0
 25 76  1  0  0  0  0
 26 28  2  0  0  0  0
 26 75  1  0  0  0  0
 27 77  1  0  0  0  0
 28 78  1  0  0  0  0
 29 79  1  0  0  0  0
 30 31  1  0  0  0  0
 30 80  1  0  0  0  0
 31 81  1  0  0  0  0
 32 60  2  0  0  0  0
 33 61  1  0  0  0  0
 33 64  1  0  0  0  0
 34 65  1  0  0  0  0
 34 70  2  0  0  0  0
 35 49  1  0  0  0  0
 35 67  1  0  0  0  0
 35 71  2  0  0  0  0
 36 57  1  0  0  0  0
 36 62  1  0  0  0  0
 36 72  2  0  0  0  0
 37 58  1  0  0  0  0
 37 68  1  0  0  0  0
 37 73  2  0  0  0  0
 38 63  1  0  0  0  0
 38 66  1  0  0  0  0
 38 74  2  0  0  0  0
 39 42  1  0  0  0  0
 40 49  1  0  0  0  0
 41 62  1  0  0  0  0
 42 44  1  0  0  0  0
 43 45  1  0  0  0  0
 43 46  1  0  0  0  0
 44 48  1  0  0  0  0
 45 50  1  0  0  0  0
 46 63  1  0  0  0  0
 47 50  1  0  0  0  0
 47 63  1  0  0  0  0
 48 67  1  0  0  0  0
 49 62  1  0  0  0  0
 50 61  1  0  0  0  0
 51 58  1  0  0  0  0
 52 59  1  0  0  0  0
 53 59  1  0  0  0  0
 54 59  1  0  0  0  0
 55 69  1  0  0  0  0
 56 76  1  0  0  0  0
 57 59  1  0  0  0  0
 57 68  1  0  0  0  0
 58 69  1  0  0  0  0
 60 61  1  0  0  0  0
M  CHG  1  69   1
M  ISO  4  38 100  56 101  66 100  76 101
M  END
> <Batch ID>
0017

> <Smiles>
CNC(C)C(=O)NC(C(=O)N1Cc2cc([101O:1][101CH2:1]c3c(Cl)cc([100NH:0][100C:0](=O)N4CCCC(n5nc(-c6ccc(Oc7ccc(F)cc7F)cc6)c(C(N)=O)c5N)C4)c(Cl)c3Cl)ccc2CC1C(=O)NC1CCCc2ccccc21)C(C)(C)C

> <Shape>
0.309

> <Color>
0.202

> <Negative vol penalty>
0.000

$$$$

  -OEChem-04052316013D

 87 95  0     1  0  0  0  0  0999 V2000
  -26.7976  -24.1316   16.8696 C   0  0  0  0  0  0  0  0  0  0  0  0
  -25.8102  -25.0548   17.1948 C   0  0  0  0  0  0  0  0  0  0  0  0
  -26.7036  -13.2800   20.6103 C   0  0  0  0  0  0  0  0  0  0  0  0
  -24.3234  -13.6808   20.7150 C   0  0  0  0  0  0  0  0  0  0  0  0
  -27.8984  -23.9696   17.7081 C   0  0  0  0  0  0  0  0  0  0  0  0
  -25.9292  -25.8247   18.3523 C   0  0  0  0  0  0  0  0  0  0  0  0
  -22.5964  -29.3808   19.0235 C   0  0  0  0  0  0  0  0  0  0  0  0
  -26.5105  -11.9980   21.1246 C   0  0  0  0  0  0  0  0  0  0  0  0
  -24.1302  -12.3986   21.2293 C   0  0  0  0  0  0  0  0  0  0  0  0
  -21.2696  -29.1164   19.3603 C   0  0  0  0  0  0  0  0  0  0  0  0
  -23.9980   -9.2359   20.0461 C   0  0  0  0  0  0  0  0  0  0  0  0
  -22.9598   -8.4740   19.5102 C   0  0  0  0  0  0  0  0  0  0  0  0
  -21.7265  -29.7589   21.6401 C   0  0  0  0  0  0  0  0  0  0  0  0
  -20.2630  -22.3313   22.0961 C   0  0  0  0  0  0  0  0  0  0  0  0
  -21.9328   -8.3384   21.6929 C   0  0  0  0  0  0  0  0  0  0  0  0
  -25.6101  -14.1215   20.4055 C   0  0  0  0  0  0  0  0  0  0  0  0
  -25.8134  -15.8273   18.5196 C   0  0  0  0  0  0  0  0  0  0  0  0
  -28.0239  -24.7295   18.8828 C   0  0  0  0  0  0  0  0  0  0  0  0
  -23.5025  -29.8265   19.9966 C   0  0  0  0  0  0  0  0  0  0  0  0
  -27.0446  -25.6929   19.1991 C   0  0  0  0  0  0  0  0  0  0  0  0
  -23.0637  -30.0306   21.3126 C   0  0  0  0  0  0  0  0  0  0  0  0
  -20.4804  -23.5008   21.3677 C   0  0  0  0  0  0  0  0  0  0  0  0
  -21.7739  -23.8516   20.9814 C   0  0  0  0  0  0  0  0  0  0  0  0
  -22.6329  -21.8633   22.0520 C   0  0  0  0  0  0  0  0  0  0  0  0
  -25.2238  -11.5572   21.4341 C   0  0  0  0  0  0  0  0  0  0  0  0
  -20.8351  -29.3027   20.6693 C   0  0  0  0  0  0  0  0  0  0  0  0
  -24.0038   -9.5490   21.4054 C   0  0  0  0  0  0  0  0  0  0  0  0
  -21.9272   -8.0253   20.3336 C   0  0  0  0  0  0  0  0  0  0  0  0
  -22.9711   -9.1003   22.2288 C   0  0  0  0  0  0  0  0  0  0  0  0
  -21.3393  -21.5125   22.4383 C   0  0  0  0  0  0  0  0  0  0  0  0
  -22.8502  -23.0328   21.3235 C   0  0  0  0  0  0  0  0  0  0  0  0
  -25.8091  -15.4462   19.8748 C   0  0  0  0  0  0  0  0  0  0  0  0
  -26.0416  -17.1814   18.5445 C   0  0  0  0  0  0  0  0  0  0  0  0
  -25.6276  -15.0286   17.3435 C   0  0  0  0  0  0  0  0  0  0  0  0
  -26.1983  -28.6902   21.2395 C   0  0  0  0  0  0  0  0  0  0  0  0
  -26.2639  -31.5678   22.7352 C   0  0  0  0  0  0  0  0  0  0  0  0
  -24.5336  -34.2748   23.8863 C   0  0  0  0  0  0  0  0  0  0  0  0
  -25.0410  -21.4153   22.6406 C   0  0  0  0  0  0  0  0  0  0  0  0
  -29.2399  -24.5191   19.7502 C   0  0  0  0  0  0  0  0  0  0  0  0
  -24.9238  -30.1327   19.6114 C   0  0  0  0  0  0  0  0  0  0  0  0
  -23.9917  -30.5269   22.3900 C   0  0  0  0  0  0  0  0  0  0  0  0
  -29.0589  -25.0536   21.1672 C   0  0  0  0  0  0  0  0  0  0  0  0
  -28.1724  -20.5723   21.1705 C   0  0  0  0  0  0  0  0  0  0  0  0
  -28.5251  -26.4775   21.1215 C   0  0  0  0  0  0  0  0  0  0  0  0
  -27.9203  -19.1995   20.5428 C   0  0  0  0  0  0  0  0  0  0  0  0
  -27.4269  -20.7364   22.4938 C   0  0  0  0  0  0  0  0  0  0  0  0
  -25.7347  -19.0833   21.8063 C   0  0  0  0  0  0  0  0  0  0  0  0
  -27.1375  -26.5197   20.4688 C   0  0  1  0  0  0  0  0  0  0  0  0
  -25.8858  -30.0909   20.7948 C   0  0  1  0  0  0  0  0  0  0  0  0
  -26.4129  -18.8953   20.4394 C   0  0  2  0  0  0  0  0  0  0  0  0
  -21.9828  -25.1126   20.2008 C   0  0  0  0  0  0  0  0  0  0  0  0
  -24.8551  -36.4480   25.0992 C   0  0  0  0  0  0  0  0  0  0  0  0
  -26.5571  -30.0526   25.3673 C   0  0  0  0  0  0  0  0  0  0  0  0
  -25.9228  -32.1558   26.5683 C   0  0  0  0  0  0  0  0  0  0  0  0
  -27.9898  -32.0932   25.1732 C   0  0  0  0  0  0  0  0  0  0  0  0
  -17.7817  -27.3126   23.8632 C   0  0  0  0  0  0  0  0  0  0  0  0
  -16.8019  -28.5724   21.9410 C   0  0  0  0  0  0  0  0  0  0  0  0
  -23.5201  -35.8407   21.5885 C   0  0  0  0  0  0  0  0  0  0  0  0
  -19.3044  -24.3630   21.0144 C   0  0  0  0  0  0  0  0  0  0  0  0
  -18.1015  -26.5033   21.4732 C   0  0  0  0  0  0  0  0  0  0  0  0
  -19.2863  -28.6116   22.3365 C   0  0  0  0  0  0  0  0  0  1  0  0
  -25.7296  -32.1068   24.0402 C   0  0  1  0  0  0  0  0  0  0  0  0
  -24.7829  -35.7653   23.7422 C   0  0  2  0  0  0  0  0  0  0  0  0
  -26.5326  -31.5909   25.2676 C   0  0  0  0  0  0  0  0  0  0  0  0
  -18.0150  -27.7364   22.4013 C   0  0  0  0  0  0  0  0  0  0  0  0
  -26.0181  -16.4751   20.7005 N   0  0  0  0  0  0  0  0  0  0  0  0
  -26.1560  -17.5161   19.8617 N   0  0  0  0  0  0  0  0  0  0  0  0
  -25.3734  -30.8063   21.9652 N   0  0  0  0  0  0  0  0  0  0  0  0
  -26.0043  -20.4362   22.3180 N   0  0  0  0  0  0  0  0  0  0  0  0
  -26.1537  -18.1067   17.5678 N   0  0  0  0  0  0  0  0  0  0  0  0
  -25.4037  -13.6537   17.4980 N   0  0  0  0  0  0  0  0  0  0  0  0
  -23.7229  -21.0282   22.4015 N   0  0  0  0  0  0  0  0  0  0  0  0
  -26.7584  -27.8990   20.2547 N   0  0  0  0  0  0  0  0  0  0  0  0
  -25.7122  -33.5594   23.9053 N   0  0  0  0  0  0  0  0  0  0  0  0
  -23.6884  -36.3998   22.9545 N   0  3  0  0  0  0  0  0  0  0  0  0
  -19.2186  -25.5989   21.8394 N   0  3  0  0  0  0  0  0  0  0  0  0
  -25.6755  -15.5169   16.1890 O   0  0  0  0  0  0  0  0  0  0  0  0
  -25.9511  -28.3526   22.3913 O   0  0  0  0  0  0  0  0  0  0  0  0
  -27.4262  -31.8194   22.4076 O   0  0  0  0  0  0  0  0  0  0  0  0
  -23.4063  -33.7937   23.9769 O   0  0  0  0  0  0  0  0  0  0  0  0
  -25.3633  -22.5262   23.0698 O   0  0  0  0  0  0  0  0  0  0  0  0
  -25.0348  -10.3061   21.9357 O   0  0  0  0  0  0  0  0  0  0  0  0
  -19.5407  -29.0448   21.0009 O   0  0  0  0  0  0  0  0  0  1  0  0
  -20.9294   -7.2949   19.8186 F   0  0  0  0  0  0  0  0  0  0  0  0
  -22.9706   -9.3989   23.5352 F   0  0  0  0  0  0  0  0  0  0  0  0
  -21.0183  -20.0742   23.3415 Cl  0  0  0  0  0  0  0  0  0  0  0  0
  -24.4566  -23.4768   20.8392 Cl  0  0  0  0  0  0  0  0  0  0  0  0
  1  2  1  0  0  0  0
  1  5  2  0  0  0  0
  2  6  2  0  0  0  0
  3  8  2  0  0  0  0
  3 16  1  0  0  0  0
  4  9  1  0  0  0  0
  4 16  2  0  0  0  0
  5 18  1  0  0  0  0
  6 20  1  0  0  0  0
  7 10  2  0  0  0  0
  7 19  1  0  0  0  0
  8 25  1  0  0  0  0
  9 25  2  0  0  0  0
 10 26  1  0  0  0  0
 11 12  2  0  0  0  0
 11 27  1  0  0  0  0
 12 28  1  0  0  0  0
 13 21  1  0  0  0  0
 13 26  2  0  0  0  0
 14 22  1  0  0  0  0
 14 30  2  0  0  0  0
 15 28  2  0  0  0  0
 15 29  1  0  0  0  0
 16 32  1  0  0  0  0
 17 32  1  0  0  0  0
 17 33  2  0  0  0  0
 17 34  1  0  0  0  0
 18 20  2  0  0  0  0
 18 39  1  0  0  0  0
 19 21  2  0  0  0  0
 19 40  1  0  0  0  0
 20 48  1  0  0  0  0
 21 41  1  0  0  0  0
 22 23  2  0  0  0  0
 22 59  1  0  0  0  0
 23 31  1  0  0  0  0
 23 51  1  0  0  0  0
 24 30  1  0  0  0  0
 24 31  2  0  0  0  0
 24 72  1  0  0  0  0
 25 82  1  0  0  0  0
 26 83  1  0  0  0  0
 27 29  2  0  0  0  0
 27 82  1  0  0  0  0
 28 84  1  0  0  0  0
 29 85  1  0  0  0  0
 30 86  1  0  0  0  0
 31 87  1  0  0  0  0
 32 66  2  0  0  0  0
 33 67  1  0  0  0  0
 33 70  1  0  0  0  0
 34 71  1  0  0  0  0
 34 77  2  0  0  0  0
 35 49  1  0  0  0  0
 35 73  1  0  0  0  0
 35 78  2  0  0  0  0
 36 62  1  0  0  0  0
 36 68  1  0  0  0  0
 36 79  2  0  0  0  0
 37 63  1  0  0  0  0
 37 74  1  0  0  0  0
 37 80  2  0  0  0  0
 38 69  1  0  0  0  0
 38 72  1  0  0  0  0
 38 81  2  0  0  0  0
 39 42  1  0  0  0  0
 40 49  1  0  0  0  0
 41 68  1  0  0  0  0
 42 44  1  0  0  0  0
 43 45  1  0  0  0  0
 43 46  1  0  0  0  0
 44 48  1  0  0  0  0
 45 50  1  0  0  0  0
 46 69  1  0  0  0  0
 47 50  1  0  0  0  0
 47 69  1  0  0  0  0
 48 73  1  0  0  0  0
 49 68  1  0  0  0  0
 50 67  1  0  0  0  0
 52 63  1  0  0  0  0
 53 64  1  0  0  0  0
 54 64  1  0  0  0  0
 55 64  1  0  0  0  0
 56 65  1  0  0  0  0
 57 65  1  0  0  0  0
 58 75  1  0  0  0  0
 59 76  1  0  0  0  0
 60 65  1  0  0  0  0
 60 76  1  0  0  0  0
 61 65  1  0  0  0  0
 61 83  1  0  0  0  0
 62 64  1  0  0  0  0
 62 74  1  0  0  0  0
 63 75  1  0  0  0  0
 66 67  1  0  0  0  0
M  CHG  2  75   1  76   1
M  ISO  4  38 100  61 101  72 100  83 101
M  END
> <Batch ID>
0017

> <Smiles>
CNC(C)C(=O)NC(C(=O)N1Cc2cc([101O:1][101CH2:1]C(C)(C)CNCc3cc(Cl)c([100NH:0][100C:0](=O)N4CCCC(n5nc(-c6ccc(Oc7ccc(F)cc7F)cc6)c(C(N)=O)c5N)C4)c(Cl)c3C)ccc2CC1C(=O)NC1CCCc2ccccc21)C(C)(C)C

> <Shape>
0.296

> <Color>
0.084

> <Negative vol penalty>
0.000

$$$$

  -OEChem-04052316013D

 90 98  0     1  0  0  0  0  0999 V2000
  -27.4861  -24.8544   16.4112 C   0  0  0  0  0  0  0  0  0  0  0  0
  -26.3294  -25.0975   17.1450 C   0  0  0  0  0  0  0  0  0  0  0  0
  -28.4927  -12.9479   18.4578 C   0  0  0  0  0  0  0  0  0  0  0  0
  -28.8334  -13.2678   20.8281 C   0  0  0  0  0  0  0  0  0  0  0  0
  -28.7235  -25.2634   16.9067 C   0  0  0  0  0  0  0  0  0  0  0  0
  -26.4096  -25.7490   18.3753 C   0  0  0  0  0  0  0  0  0  0  0  0
  -22.8721  -29.3330   18.9100 C   0  0  0  0  0  0  0  0  0  0  0  0
  -29.4982  -11.9812   18.4437 C   0  0  0  0  0  0  0  0  0  0  0  0
  -29.8389  -12.3011   20.8141 C   0  0  0  0  0  0  0  0  0  0  0  0
  -21.5812  -28.9114   19.2255 C   0  0  0  0  0  0  0  0  0  0  0  0
  -31.7278   -9.1712   17.8541 C   0  0  0  0  0  0  0  0  0  0  0  0
  -31.4802   -7.9880   17.1582 C   0  0  0  0  0  0  0  0  0  0  0  0
  -21.9705  -29.4709   21.5395 C   0  0  0  0  0  0  0  0  0  0  0  0
  -20.9631  -21.0370   23.3710 C   0  0  0  0  0  0  0  0  0  0  0  0
  -29.5882   -7.5405   18.5924 C   0  0  0  0  0  0  0  0  0  0  0  0
  -28.1604  -13.5912   19.6500 C   0  0  0  0  0  0  0  0  0  0  0  0
  -25.7479  -14.3848   19.8905 C   0  0  0  0  0  0  0  0  0  0  0  0
  -28.8178  -25.9288   18.1392 C   0  0  0  0  0  0  0  0  0  0  0  0
  -23.7271  -29.8173   19.9104 C   0  0  0  0  0  0  0  0  0  0  0  0
  -27.6495  -26.1661   18.8884 C   0  0  0  0  0  0  0  0  0  0  0  0
  -23.2709  -29.9005   21.2337 C   0  0  0  0  0  0  0  0  0  0  0  0
  -20.3018  -21.7042   22.3400 C   0  0  0  0  0  0  0  0  0  0  0  0
  -22.9431  -20.8748   21.9961 C   0  0  0  0  0  0  0  0  0  0  0  0
  -30.1713  -11.6578   19.6218 C   0  0  0  0  0  0  0  0  0  0  0  0
  -21.1312  -28.9776   20.5409 C   0  0  0  0  0  0  0  0  0  0  0  0
  -30.9057   -9.5391   18.9192 C   0  0  0  0  0  0  0  0  0  0  0  0
  -30.4104   -7.1726   17.5273 C   0  0  0  0  0  0  0  0  0  0  0  0
  -29.8358   -8.7237   19.2883 C   0  0  0  0  0  0  0  0  0  0  0  0
  -22.2817  -21.5419   20.9650 C   0  0  0  0  0  0  0  0  0  0  0  0
  -22.2838  -20.6224   23.1991 C   0  0  0  0  0  0  0  0  0  0  0  0
  -20.9610  -21.9566   21.1369 C   0  0  0  0  0  0  0  0  0  0  0  0
  -27.1222  -14.5903   19.6650 C   0  0  0  0  0  0  0  0  0  0  0  0
  -25.1941  -15.6385   19.8017 C   0  0  0  0  0  0  0  0  0  0  0  0
  -25.0355  -13.1692   20.1565 C   0  0  0  0  0  0  0  0  0  0  0  0
  -26.5298  -28.9055   21.1008 C   0  0  0  0  0  0  0  0  0  0  0  0
  -26.2921  -31.6864   22.7538 C   0  0  0  0  0  0  0  0  0  0  0  0
  -17.3440  -24.0856   23.1125 C   0  0  0  0  0  0  0  0  0  0  0  0
  -24.2863  -34.1269   24.0451 C   0  0  0  0  0  0  0  0  0  0  0  0
  -25.2414  -21.0792   20.9850 C   0  0  0  0  0  0  0  0  0  0  0  0
  -30.1826  -26.3099   18.6558 C   0  0  0  0  0  0  0  0  0  0  0  0
  -25.1075  -30.2932   19.5493 C   0  0  0  0  0  0  0  0  0  0  0  0
  -24.1426  -30.4316   22.3412 C   0  0  0  0  0  0  0  0  0  0  0  0
  -30.1411  -27.3274   19.7930 C   0  0  0  0  0  0  0  0  0  0  0  0
  -27.1781  -20.0095   18.1953 C   0  0  0  0  0  0  0  0  0  0  0  0
  -29.0973  -26.9263   20.8305 C   0  0  0  0  0  0  0  0  0  0  0  0
  -27.2231  -18.4873   18.3475 C   0  0  0  0  0  0  0  0  0  0  0  0
  -27.2362  -20.7167   19.5482 C   0  0  0  0  0  0  0  0  0  0  0  0
  -26.2816  -18.7469   20.6785 C   0  0  0  0  0  0  0  0  0  0  0  0
  -27.6930  -26.8920   20.2155 C   0  0  1  0  0  0  0  0  0  0  0  0
  -26.0701  -30.2878   20.7329 C   0  0  1  0  0  0  0  0  0  0  0  0
  -26.1601  -17.9891   19.3462 C   0  0  2  0  0  0  0  0  0  0  0  0
  -15.4738  -25.9530   25.1054 C   0  0  0  0  0  0  0  0  0  0  0  0
  -24.3774  -36.2512   25.3779 C   0  0  0  0  0  0  0  0  0  0  0  0
  -26.7477  -30.0668   25.2993 C   0  0  0  0  0  0  0  0  0  0  0  0
  -25.8957  -32.0211   26.6120 C   0  0  0  0  0  0  0  0  0  0  0  0
  -27.9558  -32.2553   25.2250 C   0  0  0  0  0  0  0  0  0  0  0  0
  -23.1097  -35.7019   21.8329 C   0  0  0  0  0  0  0  0  0  0  0  0
  -18.8754  -22.1347   22.5665 C   0  0  0  0  0  0  0  0  0  0  0  0
  -18.7772  -23.6321   22.8667 C   0  0  0  0  0  0  0  0  0  0  0  0
  -18.5267  -27.0249   22.1062 C   0  0  0  0  0  0  0  0  0  0  0  0
  -15.8117  -26.0106   23.6545 C   0  0  0  0  0  0  0  0  0  0  0  0
  -18.2389  -26.3836   23.4569 C   0  0  0  0  0  0  0  0  0  0  0  0
  -19.6664  -28.0350   22.1601 C   0  0  0  0  0  0  0  0  0  1  0  0
  -25.7055  -32.0925   24.0842 C   0  0  1  0  0  0  0  0  0  0  0  0
  -24.3761  -35.6411   23.9849 C   0  0  2  0  0  0  0  0  0  0  0  0
  -26.5602  -31.5970   25.2848 C   0  0  0  0  0  0  0  0  0  0  0  0
  -27.4231  -15.8736   19.4491 N   0  0  0  0  0  0  0  0  0  0  0  0
  -26.2300  -16.4857   19.5384 N   0  0  0  0  0  0  0  0  0  0  0  0
  -25.4863  -30.8788   21.9388 N   0  0  0  0  0  0  0  0  0  0  0  0
  -26.1979  -20.1964   20.4404 N   0  0  0  0  0  0  0  0  0  0  0  0
  -23.9270  -16.0879   19.9239 N   0  0  0  0  0  0  0  0  0  0  0  0
  -25.7586  -11.9699   20.2137 N   0  0  0  0  0  0  0  0  0  0  0  0
  -24.2843  -20.4655   21.7924 N   0  0  0  0  0  0  0  0  0  0  0  0
  -27.1692  -28.2339   20.0763 N   0  0  0  0  0  0  0  0  0  0  0  0
  -25.5341  -33.5403   24.0299 N   0  0  0  0  0  0  0  0  0  0  0  0
  -17.1470  -25.4517   23.3982 N   0  0  0  0  0  0  0  0  0  0  0  0
  -23.2195  -36.1989   23.2286 N   0  3  0  0  0  0  0  0  0  0  0  0
  -23.7923  -13.1451   20.3218 O   0  0  0  0  0  0  0  0  0  0  0  0
  -26.3212  -28.4802   22.2310 O   0  0  0  0  0  0  0  0  0  0  0  0
  -27.4209  -32.0773   22.4460 O   0  0  0  0  0  0  0  0  0  0  0  0
  -16.4142  -23.2763   23.0595 O   0  0  0  0  0  0  0  0  0  0  0  0
  -23.2164  -33.5249   24.1037 O   0  0  0  0  0  0  0  0  0  0  0  0
  -25.2532  -22.2862   20.7304 O   0  0  0  0  0  0  0  0  0  0  0  0
  -31.1523  -10.7145   19.6085 O   0  0  0  0  0  0  0  0  0  0  0  0
  -19.8718  -28.5661   20.8517 O   0  0  0  0  0  0  0  0  0  1  0  0
  -30.1718   -6.0372   16.8580 F   0  0  0  0  0  0  0  0  0  0  0  0
  -29.0418   -9.0724   20.3099 F   0  0  0  0  0  0  0  0  0  0  0  0
  -22.9200  -21.7823   19.8088 F   0  0  0  0  0  0  0  0  0  0  0  0
  -23.0653  -19.7985   24.5016 Cl  0  0  0  0  0  0  0  0  0  0  0  0
  -20.1681  -22.7814   19.8440 Cl  0  0  0  0  0  0  0  0  0  0  0  0
  1  2  1  0  0  0  0
  1  5  2  0  0  0  0
  2  6  2  0  0  0  0
  3  8  2  0  0  0  0
  3 16  1  0  0  0  0
  4  9  1  0  0  0  0
  4 16  2  0  0  0  0
  5 18  1  0  0  0  0
  6 20  1  0  0  0  0
  7 10  2  0  0  0  0
  7 19  1  0  0  0  0
  8 24  1  0  0  0  0
  9 24  2  0  0  0  0
 10 25  1  0  0  0  0
 11 12  2  0  0  0  0
 11 26  1  0  0  0  0
 12 27  1  0  0  0  0
 13 21  1  0  0  0  0
 13 25  2  0  0  0  0
 14 22  1  0  0  0  0
 14 30  2  0  0  0  0
 15 27  2  0  0  0  0
 15 28  1  0  0  0  0
 16 32  1  0  0  0  0
 17 32  1  0  0  0  0
 17 33  2  0  0  0  0
 17 34  1  0  0  0  0
 18 20  2  0  0  0  0
 18 40  1  0  0  0  0
 19 21  2  0  0  0  0
 19 41  1  0  0  0  0
 20 49  1  0  0  0  0
 21 42  1  0  0  0  0
 22 31  2  0  0  0  0
 22 58  1  0  0  0  0
 23 29  2  0  0  0  0
 23 30  1  0  0  0  0
 23 73  1  0  0  0  0
 24 84  1  0  0  0  0
 25 85  1  0  0  0  0
 26 28  2  0  0  0  0
 26 84  1  0  0  0  0
 27 86  1  0  0  0  0
 28 87  1  0  0  0  0
 29 31  1  0  0  0  0
 29 88  1  0  0  0  0
 30 89  1  0  0  0  0
 31 90  1  0  0  0  0
 32 67  2  0  0  0  0
 33 68  1  0  0  0  0
 33 71  1  0  0  0  0
 34 72  1  0  0  0  0
 34 78  2  0  0  0  0
 35 50  1  0  0  0  0
 35 74  1  0  0  0  0
 35 79  2  0  0  0  0
 36 64  1  0  0  0  0
 36 69  1  0  0  0  0
 36 80  2  0  0  0  0
 37 59  1  0  0  0  0
 37 76  1  0  0  0  0
 37 81  2  0  0  0  0
 38 65  1  0  0  0  0
 38 75  1  0  0  0  0
 38 82  2  0  0  0  0
 39 70  1  0  0  0  0
 39 73  1  0  0  0  0
 39 83  2  0  0  0  0
 40 43  1  0  0  0  0
 41 50  1  0  0  0  0
 42 69  1  0  0  0  0
 43 45  1  0  0  0  0
 44 46  1  0  0  0  0
 44 47  1  0  0  0  0
 45 49  1  0  0  0  0
 46 51  1  0  0  0  0
 47 70  1  0  0  0  0
 48 51  1  0  0  0  0
 48 70  1  0  0  0  0
 49 74  1  0  0  0  0
 50 69  1  0  0  0  0
 51 68  1  0  0  0  0
 52 61  1  0  0  0  0
 53 65  1  0  0  0  0
 54 66  1  0  0  0  0
 55 66  1  0  0  0  0
 56 66  1  0  0  0  0
 57 77  1  0  0  0  0
 58 59  1  0  0  0  0
 60 62  1  0  0  0  0
 60 63  1  0  0  0  0
 61 76  1  0  0  0  0
 62 76  1  0  0  0  0
 63 85  1  0  0  0  0
 64 66  1  0  0  0  0
 64 75  1  0  0  0  0
 65 77  1  0  0  0  0
 67 68  1  0  0  0  0
M  CHG  1  77   1
M  ISO  4  39 100  63 101  73 100  85 101
M  END
> <Batch ID>
0017

> <Smiles>
CCN(CC[101CH2:1][101O:1]c1ccc2c(c1)CN(C(=O)C(NC(=O)C(C)NC)C(C)(C)C)C(C(=O)NC1CCCc3ccccc31)C2)C(=O)CCc1cc(Cl)c([100NH:0][100C:0](=O)N2CCCC(n3nc(-c4ccc(Oc5ccc(F)cc5F)cc4)c(C(N)=O)c3N)C2)c(F)c1Cl

> <Shape>
0.287

> <Color>
0.077

> <Negative vol penalty>
0.000

$$$$

  -OEChem-04052316013D

 86 93  0     1  0  0  0  0  0999 V2000
  -17.0178  -31.2009   23.3820 C   0  0  0  0  0  0  0  0  0  0  0  0
  -18.3802  -30.9291   23.3092 C   0  0  0  0  0  0  0  0  0  0  0  0
  -26.9402  -13.7710   21.3862 C   0  0  0  0  0  0  0  0  0  0  0  0
  -26.8049  -14.0295   18.9879 C   0  0  0  0  0  0  0  0  0  0  0  0
  -16.1153  -30.1699   23.6397 C   0  0  0  0  0  0  0  0  0  0  0  0
  -18.8410  -29.6262   23.4951 C   0  0  0  0  0  0  0  0  0  0  0  0
  -22.3220  -28.2893   20.0687 C   0  0  0  0  0  0  0  0  0  0  0  0
  -26.0367  -12.7102   21.3229 C   0  0  0  0  0  0  0  0  0  0  0  0
  -25.9014  -12.9687   18.9245 C   0  0  0  0  0  0  0  0  0  0  0  0
  -23.6181  -28.7670   20.2579 C   0  0  0  0  0  0  0  0  0  0  0  0
  -22.6957  -12.2993   21.0172 C   0  0  0  0  0  0  0  0  0  0  0  0
  -21.6610  -12.2736   21.9522 C   0  0  0  0  0  0  0  0  0  0  0  0
  -24.2592  -26.6387   21.1952 C   0  0  0  0  0  0  0  0  0  0  0  0
  -22.4522  -10.1420   22.7691 C   0  0  0  0  0  0  0  0  0  0  0  0
  -27.3242  -14.4307   20.2187 C   0  0  0  0  0  0  0  0  0  0  0  0
  -29.6603  -15.4555   20.1965 C   0  0  0  0  0  0  0  0  0  0  0  0
  -16.5644  -28.8521   23.8193 C   0  0  0  0  0  0  0  0  0  0  0  0
  -21.9815  -26.9841   20.4519 C   0  0  0  0  0  0  0  0  0  0  0  0
  -17.9438  -28.5769   23.7567 C   0  0  0  0  0  0  0  0  0  0  0  0
  -22.9588  -26.1460   21.0073 C   0  0  0  0  0  0  0  0  0  0  0  0
  -25.5174  -12.3090   20.0920 C   0  0  0  0  0  0  0  0  0  0  0  0
  -24.5861  -27.9426   20.8239 C   0  0  0  0  0  0  0  0  0  0  0  0
  -23.6087  -11.2463   20.9581 C   0  0  0  0  0  0  0  0  0  0  0  0
  -21.5392  -11.1949   22.8281 C   0  0  0  0  0  0  0  0  0  0  0  0
  -23.4869  -10.1677   21.8341 C   0  0  0  0  0  0  0  0  0  0  0  0
  -28.2570  -15.5270   20.2836 C   0  0  0  0  0  0  0  0  0  0  0  0
  -30.0784  -16.7586   20.3126 C   0  0  0  0  0  0  0  0  0  0  0  0
  -28.1662  -28.1520   20.5443 C   0  0  0  0  0  0  0  0  0  0  0  0
  -30.5099  -14.3132   20.0259 C   0  0  0  0  0  0  0  0  0  0  0  0
  -29.2082  -27.6351   19.8676 C   0  0  0  0  0  0  0  0  0  0  0  0
  -19.9391  -25.7180   22.5326 C   0  0  0  0  0  0  0  0  0  0  0  0
  -20.8987  -22.9283   21.1839 C   0  0  0  0  0  0  0  0  0  0  0  0
  -23.2991  -21.2160   19.4655 C   0  0  0  0  0  0  0  0  0  0  0  0
  -29.6571  -22.0319   18.9119 C   0  0  0  0  0  0  0  0  0  0  0  0
  -15.5552  -27.7789   24.1425 C   0  0  0  0  0  0  0  0  0  0  0  0
  -20.5858  -26.4750   20.2164 C   0  0  0  0  0  0  0  0  0  0  0  0
  -22.6494  -24.7300   21.4170 C   0  0  0  0  0  0  0  0  0  0  0  0
  -16.0918  -26.3621   23.9558 C   0  0  0  0  0  0  0  0  0  0  0  0
  -27.5362  -20.9294   21.6291 C   0  0  0  0  0  0  0  0  0  0  0  0
  -17.4719  -26.2259   24.5910 C   0  0  0  0  0  0  0  0  0  0  0  0
  -27.6544  -19.4089   21.5096 C   0  0  0  0  0  0  0  0  0  0  0  0
  -27.5134  -21.5918   20.2548 C   0  0  0  0  0  0  0  0  0  0  0  0
  -28.7979  -19.7346   19.2676 C   0  0  0  0  0  0  0  0  0  0  0  0
  -18.4802  -27.1722   23.9282 C   0  0  1  0  0  0  0  0  0  0  0  0
  -20.2187  -25.2995   21.1168 C   0  0  1  0  0  0  0  0  0  0  0  0
  -28.8488  -19.0077   20.6238 C   0  0  2  0  0  0  0  0  0  0  0  0
  -23.8154  -18.9405   18.5419 C   0  0  0  0  0  0  0  0  0  0  0  0
  -29.2705  -29.9577   17.9383 C   0  0  0  0  0  0  0  0  0  0  0  0
  -31.5546  -30.5598   18.7660 C   0  0  0  0  0  0  0  0  0  0  0  0
  -21.5463  -21.9366   23.9958 C   0  0  0  0  0  0  0  0  0  0  0  0
  -22.9048  -20.1053   22.9618 C   0  0  0  0  0  0  0  0  0  0  0  0
  -20.4539  -20.2409   22.5174 C   0  0  0  0  0  0  0  0  0  0  0  0
  -31.5991  -26.5766   21.6601 C   0  0  0  0  0  0  0  0  0  0  0  0
  -29.7248  -24.9391   21.8795 C   0  0  0  0  0  0  0  0  0  0  0  0
  -31.9403  -24.1761   21.0468 C   0  0  0  0  0  0  0  0  0  0  0  0
  -23.4452  -22.2462   16.6949 C   0  0  0  0  0  0  0  0  0  0  0  0
  -28.3844  -26.0933   18.2322 C   0  0  0  0  0  0  0  0  0  0  0  0
  -26.9094  -27.4505   20.9507 C   0  0  0  0  0  0  0  0  0  1  0  0
  -30.4686  -28.3598   19.4666 C   0  0  0  0  0  0  0  0  0  0  0  0
  -30.3939  -24.3855   18.6383 C   0  0  0  0  0  0  0  0  0  0  0  0
  -22.0018  -21.9338   21.4545 C   0  0  1  0  0  0  0  0  0  0  0  0
  -23.2146  -20.3073   18.2524 C   0  0  2  0  0  0  0  0  0  0  0  0
  -30.2466  -29.8443   19.1119 C   0  0  0  0  0  0  0  0  0  0  0  0
  -30.4610  -25.6210   19.5453 C   0  0  2  0  0  0  0  0  0  0  0  0
  -21.7324  -21.0814   22.7266 C   0  0  0  0  0  0  0  0  0  0  0  0
  -30.9341  -25.3479   21.0105 C   0  0  0  0  0  0  0  0  0  0  0  0
  -27.8133  -16.7767   20.4429 N   0  0  0  0  0  0  0  0  0  0  0  0
  -28.9443  -17.5025   20.4569 N   0  0  0  0  0  0  0  0  0  0  0  0
  -21.2689  -24.2806   21.1723 N   0  0  0  0  0  0  0  0  0  0  0  0
  -28.6863  -21.1831   19.4691 N   0  0  0  0  0  0  0  0  0  0  0  0
  -31.3017  -17.3293   20.3044 N   0  0  0  0  0  0  0  0  0  0  0  0
  -29.9157  -13.0479   19.9238 N   0  0  0  0  0  0  0  0  0  0  0  0
  -18.9145  -26.6370   22.6556 N   0  0  0  0  0  0  0  0  0  0  0  0
  -22.1551  -21.1517   20.2325 N   0  0  0  0  0  0  0  0  0  0  0  0
  -29.4746  -23.3898   19.1429 N   0  0  0  0  0  0  0  0  0  0  0  0
  -23.9472  -20.9088   17.1025 N   0  3  0  0  0  0  0  0  0  0  0  0
  -29.1020  -26.2531   19.5383 N   0  3  1  0  0  0  0  0  0  0  0  0
  -31.7598  -14.4098   19.9823 O   0  0  0  0  0  0  0  0  0  0  0  0
  -20.6026  -25.2412   23.4458 O   0  0  0  0  0  0  0  0  0  0  0  0
  -19.7523  -22.5199   20.9829 O   0  0  0  0  0  0  0  0  0  0  0  0
  -24.2832  -21.9104   19.7102 O   0  0  0  0  0  0  0  0  0  0  0  0
  -30.6191  -21.6103   18.2607 O   0  0  0  0  0  0  0  0  0  0  0  0
  -24.6359  -11.2737   20.0298 O   0  0  0  0  0  0  0  0  0  0  0  0
  -25.8518  -28.4066   21.0104 O   0  0  0  0  0  0  0  0  0  1  0  0
  -20.5464  -11.1711   23.7270 F   0  0  0  0  0  0  0  0  0  0  0  0
  -24.3617   -9.1538   21.7829 F   0  0  0  0  0  0  0  0  0  0  0  0
  1  2  1  0  0  0  0
  1  5  2  0  0  0  0
  2  6  2  0  0  0  0
  3  8  2  0  0  0  0
  3 15  1  0  0  0  0
  4  9  1  0  0  0  0
  4 15  2  0  0  0  0
  5 17  1  0  0  0  0
  6 19  1  0  0  0  0
  7 10  2  0  0  0  0
  7 18  1  0  0  0  0
  8 21  1  0  0  0  0
  9 21  2  0  0  0  0
 10 22  1  0  0  0  0
 11 12  2  0  0  0  0
 11 23  1  0  0  0  0
 12 24  1  0  0  0  0
 13 20  1  0  0  0  0
 13 22  2  0  0  0  0
 14 24  2  0  0  0  0
 14 25  1  0  0  0  0
 15 26  1  0  0  0  0
 16 26  1  0  0  0  0
 16 27  2  0  0  0  0
 16 29  1  0  0  0  0
 17 19  2  0  0  0  0
 17 35  1  0  0  0  0
 18 20  2  0  0  0  0
 18 36  1  0  0  0  0
 19 44  1  0  0  0  0
 20 37  1  0  0  0  0
 21 83  1  0  0  0  0
 22 84  1  0  0  0  0
 23 25  2  0  0  0  0
 23 83  1  0  0  0  0
 24 85  1  0  0  0  0
 25 86  1  0  0  0  0
 26 67  2  0  0  0  0
 27 68  1  0  0  0  0
 27 71  1  0  0  0  0
 28 30  2  0  0  0  0
 28 58  1  0  0  0  0
 29 72  1  0  0  0  0
 29 78  2  0  0  0  0
 30 59  1  0  0  0  0
 30 77  1  0  0  0  0
 31 45  1  0  0  0  0
 31 73  1  0  0  0  0
 31 79  2  0  0  0  0
 32 61  1  0  0  0  0
 32 69  1  0  0  0  0
 32 80  2  0  0  0  0
 33 62  1  0  0  0  0
 33 74  1  0  0  0  0
 33 81  2  0  0  0  0
 34 70  1  0  0  0  0
 34 75  1  0  0  0  0
 34 82  2  0  0  0  0
 35 38  1  0  0  0  0
 36 45  1  0  0  0  0
 37 69  1  0  0  0  0
 38 40  1  0  0  0  0
 39 41  1  0  0  0  0
 39 42  1  0  0  0  0
 40 44  1  0  0  0  0
 41 46  1  0  0  0  0
 42 70  1  0  0  0  0
 43 46  1  0  0  0  0
 43 70  1  0  0  0  0
 44 73  1  0  0  0  0
 45 69  1  0  0  0  0
 46 68  1  0  0  0  0
 47 62  1  0  0  0  0
 48 63  1  0  0  0  0
 49 63  1  0  0  0  0
 50 65  1  0  0  0  0
 51 65  1  0  0  0  0
 52 65  1  0  0  0  0
 53 66  1  0  0  0  0
 54 66  1  0  0  0  0
 55 66  1  0  0  0  0
 56 76  1  0  0  0  0
 57 77  1  0  0  0  0
 58 84  1  0  0  0  0
 59 63  1  0  0  0  0
 60 64  1  0  0  0  0
 60 75  1  0  0  0  0
 61 65  1  0  0  0  0
 61 74  1  0  0  0  0
 62 76  1  0  0  0  0
 64 66  1  0  0  0  0
 64 77  1  0  0  0  0
 67 68  1  0  0  0  0
M  CHG  2  76   1  77   1
M  ISO  4  34 100  58 101  75 100  84 101
M  END
> <Batch ID>
0017

> <Smiles>
CNC(C)C(=O)NC(C(=O)N1Cc2cc([101O:1][101CH2:1]C=C(CC(C)C)N(C)C(C[100NH:0][100C:0](=O)N3CCCC(n4nc(-c5ccc(Oc6ccc(F)cc6F)cc5)c(C(N)=O)c4N)C3)C(C)(C)C)ccc2CC1C(=O)NC1CCCc2ccccc21)C(C)(C)C

> <Shape>
0.271

> <Color>
0.040

> <Negative vol penalty>
0.000

$$$$

  -OEChem-04052316013D

 84 92  0     1  0  0  0  0  0999 V2000
  -17.5369  -26.9777   22.6557 C   0  0  0  0  0  0  0  0  0  0  0  0
  -18.6047  -26.6418   21.8297 C   0  0  0  0  0  0  0  0  0  0  0  0
  -28.1508  -11.4698   23.0598 C   0  0  0  0  0  0  0  0  0  0  0  0
  -26.6098  -12.6004   21.5819 C   0  0  0  0  0  0  0  0  0  0  0  0
  -17.4590  -28.2558   23.2073 C   0  0  0  0  0  0  0  0  0  0  0  0
  -19.5947  -27.5842   21.5539 C   0  0  0  0  0  0  0  0  0  0  0  0
  -24.2638  -25.6527   21.8918 C   0  0  0  0  0  0  0  0  0  0  0  0
  -27.1434  -10.5781   23.4281 C   0  0  0  0  0  0  0  0  0  0  0  0
  -25.6024  -11.7086   21.9500 C   0  0  0  0  0  0  0  0  0  0  0  0
  -24.7119  -24.8794   20.8217 C   0  0  0  0  0  0  0  0  0  0  0  0
  -24.6888   -8.5408   21.2080 C   0  0  0  0  0  0  0  0  0  0  0  0
  -23.8989   -8.0024   20.1922 C   0  0  0  0  0  0  0  0  0  0  0  0
  -25.9542  -26.7699   19.9837 C   0  0  0  0  0  0  0  0  0  0  0  0
  -29.3370  -21.9228   20.8060 C   0  0  0  0  0  0  0  0  0  0  0  0
  -21.9320   -8.9683   21.2098 C   0  0  0  0  0  0  0  0  0  0  0  0
  -27.8840  -12.4810   22.1368 C   0  0  0  0  0  0  0  0  0  0  0  0
  -29.8383  -13.2621   20.6953 C   0  0  0  0  0  0  0  0  0  0  0  0
  -18.4536  -29.2114   22.9458 C   0  0  0  0  0  0  0  0  0  0  0  0
  -24.6494  -26.9958   22.0101 C   0  0  0  0  0  0  0  0  0  0  0  0
  -19.5293  -28.8767   22.1014 C   0  0  0  0  0  0  0  0  0  0  0  0
  -25.5117  -27.5573   21.0576 C   0  0  0  0  0  0  0  0  0  0  0  0
  -29.1651  -22.8704   19.7970 C   0  0  0  0  0  0  0  0  0  0  0  0
  -28.1395  -22.7176   18.8641 C   0  0  0  0  0  0  0  0  0  0  0  0
  -27.2857  -21.6172   18.9401 C   0  0  0  0  0  0  0  0  0  0  0  0
  -28.4832  -20.8223   20.8820 C   0  0  0  0  0  0  0  0  0  0  0  0
  -25.8692  -10.6974   22.8732 C   0  0  0  0  0  0  0  0  0  0  0  0
  -25.5550  -25.4388   19.8659 C   0  0  0  0  0  0  0  0  0  0  0  0
  -24.1003   -9.2929   22.2247 C   0  0  0  0  0  0  0  0  0  0  0  0
  -27.4576  -20.6695   19.9491 C   0  0  0  0  0  0  0  0  0  0  0  0
  -22.5205   -8.2162   20.1931 C   0  0  0  0  0  0  0  0  0  0  0  0
  -22.7220   -9.5066   22.2256 C   0  0  0  0  0  0  0  0  0  0  0  0
  -28.9240  -13.4028   21.7564 C   0  0  0  0  0  0  0  0  0  0  0  0
  -30.6112  -14.3960   20.7554 C   0  0  0  0  0  0  0  0  0  0  0  0
  -29.9766  -12.2015   19.7405 C   0  0  0  0  0  0  0  0  0  0  0  0
  -23.1120  -29.7778   22.0267 C   0  0  0  0  0  0  0  0  0  0  0  0
  -26.0520  -30.9547   22.7291 C   0  0  0  0  0  0  0  0  0  0  0  0
  -29.4391  -30.5592   22.5944 C   0  0  0  0  0  0  0  0  0  0  0  0
  -29.6458  -19.8848   22.9108 C   0  0  0  0  0  0  0  0  0  0  0  0
  -18.3016  -30.5949   23.5266 C   0  0  0  0  0  0  0  0  0  0  0  0
  -24.1788  -27.8088   23.1848 C   0  0  0  0  0  0  0  0  0  0  0  0
  -25.9712  -28.9886   21.1500 C   0  0  0  0  0  0  0  0  0  0  0  0
  -19.5873  -31.4169   23.4866 C   0  0  0  0  0  0  0  0  0  0  0  0
  -32.2496  -17.6507   23.8629 C   0  0  0  0  0  0  0  0  0  0  0  0
  -20.2451  -31.3126   22.1144 C   0  0  0  0  0  0  0  0  0  0  0  0
  -31.7783  -16.2961   23.3289 C   0  0  0  0  0  0  0  0  0  0  0  0
  -31.0849  -18.4920   24.3820 C   0  0  0  0  0  0  0  0  0  0  0  0
  -29.5063  -17.3165   22.9002 C   0  0  0  0  0  0  0  0  0  0  0  0
  -20.6358  -29.8637   21.7986 C   0  0  1  0  0  0  0  0  0  0  0  0
  -24.2214  -29.3118   22.9266 C   0  0  1  0  0  0  0  0  0  0  0  0
  -30.6365  -16.4597   22.3067 C   0  0  2  0  0  0  0  0  0  0  0  0
  -30.0924  -24.0398   19.7378 C   0  0  0  0  0  0  0  0  0  0  0  0
  -26.1842  -21.4481   17.9422 C   0  0  0  0  0  0  0  0  0  0  0  0
  -25.9708  -17.3453   19.5198 C   0  0  0  0  0  0  0  0  0  0  0  0
  -31.5826  -31.7058   23.2173 C   0  0  0  0  0  0  0  0  0  0  0  0
  -25.7146  -32.8613   20.3709 C   0  0  0  0  0  0  0  0  0  0  0  0
  -28.1806  -33.2864   20.4515 C   0  0  0  0  0  0  0  0  0  0  0  0
  -26.7485  -33.8885   22.4033 C   0  0  0  0  0  0  0  0  0  0  0  0
  -30.2398  -28.3427   24.3847 C   0  0  0  0  0  0  0  0  0  0  0  0
  -27.9547  -23.7440   17.7729 C   0  0  0  0  0  0  0  0  0  0  0  0
  -27.0101  -18.4246   19.3040 C   0  0  0  0  0  0  0  0  0  0  0  0
  -27.2728  -25.0108   18.2779 C   0  0  0  0  0  0  0  0  0  1  0  0
  -27.2253  -31.4531   21.9203 C   0  0  1  0  0  0  0  0  0  0  0  0
  -30.5144  -30.7155   23.6545 C   0  0  2  0  0  0  0  0  0  0  0  0
  -26.9572  -32.8459   21.2834 C   0  0  0  0  0  0  0  0  0  0  0  0
  -29.0987  -14.5365   22.4407 N   0  0  0  0  0  0  0  0  0  0  0  0
  -30.1318  -15.1185   21.8081 N   0  0  0  0  0  0  0  0  0  0  0  0
  -25.4788  -29.7446   22.3135 N   0  0  0  0  0  0  0  0  0  0  0  0
  -30.0435  -18.6073   23.3586 N   0  0  0  0  0  0  0  0  0  0  0  0
  -31.6474  -14.8353   20.0100 N   0  0  0  0  0  0  0  0  0  0  0  0
  -29.0999  -11.1110   19.8216 N   0  0  0  0  0  0  0  0  0  0  0  0
  -28.6719  -19.8686   21.9129 N   0  0  0  0  0  0  0  0  0  0  0  0
  -21.8456  -29.5010   22.5053 N   0  0  0  0  0  0  0  0  0  0  0  0
  -28.3803  -31.4155   22.8108 N   0  0  0  0  0  0  0  0  0  0  0  0
  -31.1706  -29.4048   23.9239 N   0  3  0  0  0  0  0  0  0  0  0  0
  -30.8622  -12.2124   18.8522 O   0  0  0  0  0  0  0  0  0  0  0  0
  -23.3848  -30.3477   20.9767 O   0  0  0  0  0  0  0  0  0  0  0  0
  -25.6632  -31.6113   23.6983 O   0  0  0  0  0  0  0  0  0  0  0  0
  -29.5310  -29.7601   21.6651 O   0  0  0  0  0  0  0  0  0  0  0  0
  -30.1528  -20.9164   23.3588 O   0  0  0  0  0  0  0  0  0  0  0  0
  -24.8860   -9.8273   23.2320 O   0  0  0  0  0  0  0  0  0  0  0  0
  -25.9933  -24.6864   18.8201 O   0  0  0  0  0  0  0  0  0  1  0  0
  -26.6220  -19.5929   20.0219 O   0  0  0  0  0  0  0  0  0  0  0  0
  -21.7623   -7.7005   19.2168 F   0  0  0  0  0  0  0  0  0  0  0  0
  -22.1511  -10.2293   23.1991 F   0  0  0  0  0  0  0  0  0  0  0  0
  1  2  1  0  0  0  0
  1  5  2  0  0  0  0
  2  6  2  0  0  0  0
  3  8  2  0  0  0  0
  3 16  1  0  0  0  0
  4  9  1  0  0  0  0
  4 16  2  0  0  0  0
  5 18  1  0  0  0  0
  6 20  1  0  0  0  0
  7 10  2  0  0  0  0
  7 19  1  0  0  0  0
  8 26  1  0  0  0  0
  9 26  2  0  0  0  0
 10 27  1  0  0  0  0
 11 12  2  0  0  0  0
 11 28  1  0  0  0  0
 12 30  1  0  0  0  0
 13 21  1  0  0  0  0
 13 27  2  0  0  0  0
 14 22  1  0  0  0  0
 14 25  2  0  0  0  0
 15 30  2  0  0  0  0
 15 31  1  0  0  0  0
 16 32  1  0  0  0  0
 17 32  1  0  0  0  0
 17 33  2  0  0  0  0
 17 34  1  0  0  0  0
 18 20  2  0  0  0  0
 18 39  1  0  0  0  0
 19 21  2  0  0  0  0
 19 40  1  0  0  0  0
 20 48  1  0  0  0  0
 21 41  1  0  0  0  0
 22 23  2  0  0  0  0
 22 51  1  0  0  0  0
 23 24  1  0  0  0  0
 23 59  1  0  0  0  0
 24 29  2  0  0  0  0
 24 52  1  0  0  0  0
 25 29  1  0  0  0  0
 25 71  1  0  0  0  0
 26 80  1  0  0  0  0
 27 81  1  0  0  0  0
 28 31  2  0  0  0  0
 28 80  1  0  0  0  0
 29 82  1  0  0  0  0
 30 83  1  0  0  0  0
 31 84  1  0  0  0  0
 32 65  2  0  0  0  0
 33 66  1  0  0  0  0
 33 69  1  0  0  0  0
 34 70  1  0  0  0  0
 34 75  2  0  0  0  0
 35 49  1  0  0  0  0
 35 72  1  0  0  0  0
 35 76  2  0  0  0  0
 36 62  1  0  0  0  0
 36 67  1  0  0  0  0
 36 77  2  0  0  0  0
 37 63  1  0  0  0  0
 37 73  1  0  0  0  0
 37 78  2  0  0  0  0
 38 68  1  0  0  0  0
 38 71  1  0  0  0  0
 38 79  2  0  0  0  0
 39 42  1  0  0  0  0
 40 49  1  0  0  0  0
 41 67  1  0  0  0  0
 42 44  1  0  0  0  0
 43 45  1  0  0  0  0
 43 46  1  0  0  0  0
 44 48  1  0  0  0  0
 45 50  1  0  0  0  0
 46 68  1  0  0  0  0
 47 50  1  0  0  0  0
 47 68  1  0  0  0  0
 48 72  1  0  0  0  0
 49 67  1  0  0  0  0
 50 66  1  0  0  0  0
 53 60  1  0  0  0  0
 54 63  1  0  0  0  0
 55 64  1  0  0  0  0
 56 64  1  0  0  0  0
 57 64  1  0  0  0  0
 58 74  1  0  0  0  0
 59 61  1  0  0  0  0
 60 82  1  0  0  0  0
 61 81  1  0  0  0  0
 62 64  1  0  0  0  0
 62 73  1  0  0  0  0
 63 74  1  0  0  0  0
 65 66  1  0  0  0  0
M  CHG  1  74   1
M  ISO  4  38 100  61 101  71 100  81 101
M  END
> <Batch ID>
0017

> <Smiles>
CCOc1c([100NH:0][100C:0](=O)N2CCCC(n3nc(-c4ccc(Oc5ccc(F)cc5F)cc4)c(C(N)=O)c3N)C2)cc(C)c(C[101CH2:1][101O:1]c2ccc3c(c2)CN(C(=O)C(NC(=O)C(C)NC)C(C)(C)C)C(C(=O)NC2CCCc4ccccc42)C3)c1C

> <Shape>
0.287

> <Color>
0.059

> <Negative vol penalty>
0.000

$$$$

  -OEChem-04052316013D

 85 93  0     1  0  0  0  0  0999 V2000
  -26.3452  -36.2114   24.9150 C   0  0  0  0  0  0  0  0  0  0  0  0
  -27.0035  -35.0638   24.4849 C   0  0  0  0  0  0  0  0  0  0  0  0
  -23.1036  -10.0107   19.9371 C   0  0  0  0  0  0  0  0  0  0  0  0
  -24.4079   -9.6344   21.9357 C   0  0  0  0  0  0  0  0  0  0  0  0
  -24.9753  -36.1731   25.1716 C   0  0  0  0  0  0  0  0  0  0  0  0
  -26.2924  -33.8768   24.3121 C   0  0  0  0  0  0  0  0  0  0  0  0
  -27.2876  -29.5733   20.0700 C   0  0  0  0  0  0  0  0  0  0  0  0
  -22.6344   -8.6985   19.9963 C   0  0  0  0  0  0  0  0  0  0  0  0
  -23.9386   -8.3222   21.9949 C   0  0  0  0  0  0  0  0  0  0  0  0
  -27.9642  -28.3550   20.1106 C   0  0  0  0  0  0  0  0  0  0  0  0
  -21.1307   -6.7253   22.9879 C   0  0  0  0  0  0  0  0  0  0  0  0
  -20.7097   -6.2445   24.2277 C   0  0  0  0  0  0  0  0  0  0  0  0
  -25.8766  -27.2159   20.5149 C   0  0  0  0  0  0  0  0  0  0  0  0
  -29.7789  -18.9971   21.1163 C   0  0  0  0  0  0  0  0  0  0  0  0
  -22.3807   -4.5029   24.1197 C   0  0  0  0  0  0  0  0  0  0  0  0
  -23.9904  -10.4787   20.9068 C   0  0  0  0  0  0  0  0  0  0  0  0
  -23.8967  -12.9719   21.4384 C   0  0  0  0  0  0  0  0  0  0  0  0
  -24.2452  -34.9875   24.9926 C   0  0  0  0  0  0  0  0  0  0  0  0
  -25.8995  -29.6233   20.2628 C   0  0  0  0  0  0  0  0  0  0  0  0
  -24.9117  -33.8223   24.5678 C   0  0  0  0  0  0  0  0  0  0  0  0
  -25.1843  -28.4358   20.4738 C   0  0  0  0  0  0  0  0  0  0  0  0
  -29.7382  -20.3478   21.4619 C   0  0  0  0  0  0  0  0  0  0  0  0
  -28.6390  -18.4368   23.1715 C   0  0  0  0  0  0  0  0  0  0  0  0
  -28.5983  -19.7876   23.5172 C   0  0  0  0  0  0  0  0  0  0  0  0
  -29.2292  -18.0416   21.9710 C   0  0  0  0  0  0  0  0  0  0  0  0
  -29.1480  -20.7431   22.6623 C   0  0  0  0  0  0  0  0  0  0  0  0
  -23.0518   -7.8543   21.0252 C   0  0  0  0  0  0  0  0  0  0  0  0
  -27.2591  -27.1764   20.3359 C   0  0  0  0  0  0  0  0  0  0  0  0
  -22.1766   -6.0948   22.3139 C   0  0  0  0  0  0  0  0  0  0  0  0
  -21.3348   -5.1333   24.7937 C   0  0  0  0  0  0  0  0  0  0  0  0
  -22.8017   -4.9837   22.8798 C   0  0  0  0  0  0  0  0  0  0  0  0
  -24.4760  -11.8339   20.8459 C   0  0  0  0  0  0  0  0  0  0  0  0
  -24.7323  -14.0042   21.0885 C   0  0  0  0  0  0  0  0  0  0  0  0
  -22.7094  -13.0856   22.2341 C   0  0  0  0  0  0  0  0  0  0  0  0
  -23.9797  -30.9743   22.4059 C   0  0  0  0  0  0  0  0  0  0  0  0
  -21.6501  -29.8969   20.4224 C   0  0  0  0  0  0  0  0  0  0  0  0
  -20.6898  -27.6685   18.0227 C   0  0  0  0  0  0  0  0  0  0  0  0
  -29.8360  -16.1342   20.4413 C   0  0  0  0  0  0  0  0  0  0  0  0
  -22.7748  -34.9828   25.3280 C   0  0  0  0  0  0  0  0  0  0  0  0
  -25.1807  -30.9426   20.1895 C   0  0  0  0  0  0  0  0  0  0  0  0
  -23.6906  -28.4333   20.6665 C   0  0  0  0  0  0  0  0  0  0  0  0
  -22.0245  -33.7806   24.7605 C   0  0  0  0  0  0  0  0  0  0  0  0
  -28.5459  -14.1730   17.7643 C   0  0  0  0  0  0  0  0  0  0  0  0
  -22.7980  -32.4934   25.0285 C   0  0  0  0  0  0  0  0  0  0  0  0
  -27.3244  -13.4832   18.3761 C   0  0  0  0  0  0  0  0  0  0  0  0
  -29.6882  -14.3008   18.7705 C   0  0  0  0  0  0  0  0  0  0  0  0
  -28.1040  -14.2449   20.6563 C   0  0  0  0  0  0  0  0  0  0  0  0
  -24.1703  -32.5220   24.3448 C   0  0  1  0  0  0  0  0  0  0  0  0
  -23.8365  -30.9316   20.9108 C   0  0  1  0  0  0  0  0  0  0  0  0
  -26.9039  -14.1515   19.6998 C   0  0  2  0  0  0  0  0  0  0  0  0
  -30.3354  -21.3480   20.5259 C   0  0  0  0  0  0  0  0  0  0  0  0
  -28.0488  -17.4137   24.0913 C   0  0  0  0  0  0  0  0  0  0  0  0
  -27.9643  -20.2085   24.8063 C   0  0  0  0  0  0  0  0  0  0  0  0
  -18.7137  -27.0109   16.6227 C   0  0  0  0  0  0  0  0  0  0  0  0
  -20.3878  -28.5396   22.8461 C   0  0  0  0  0  0  0  0  0  0  0  0
  -19.0161  -27.1589   21.2712 C   0  0  0  0  0  0  0  0  0  0  0  0
  -18.7585  -29.6400   21.3005 C   0  0  0  0  0  0  0  0  0  0  0  0
  -30.2065  -22.6915   23.7774 C   0  0  0  0  0  0  0  0  0  0  0  0
  -22.1308  -28.2562   15.5053 C   0  0  0  0  0  0  0  0  0  0  0  0
  -28.4938  -24.0659   21.6957 C   0  0  0  0  0  0  0  0  0  0  0  0
  -28.0101  -22.9483   22.6119 C   0  0  0  0  0  0  0  0  0  0  0  0
  -27.3649  -24.9666   21.2087 C   0  0  0  0  0  0  0  0  0  1  0  0
  -20.8490  -28.6226   20.3071 C   0  0  1  0  0  0  0  0  0  0  0  0
  -19.9725  -27.8608   16.6987 C   0  0  2  0  0  0  0  0  0  0  0  0
  -19.7812  -28.4902   21.4296 C   0  0  0  0  0  0  0  0  0  0  0  0
  -25.5932  -12.1164   20.1706 N   0  0  0  0  0  0  0  0  0  0  0  0
  -25.7226  -13.4437   20.3366 N   0  0  0  0  0  0  0  0  0  0  0  0
  -23.0339  -29.7489   20.5924 N   0  0  0  0  0  0  0  0  0  0  0  0
  -29.2169  -14.9465   19.9975 N   0  0  0  0  0  0  0  0  0  0  0  0
  -24.7092  -15.3277   21.3536 N   0  0  0  0  0  0  0  0  0  0  0  0
  -21.9685  -11.9257   22.4983 N   0  0  0  0  0  0  0  0  0  0  0  0
  -29.2816  -16.6748   21.6011 N   0  0  0  0  0  0  0  0  0  0  0  0
  -24.0355  -32.2520   22.9294 N   0  0  0  0  0  0  0  0  0  0  0  0
  -20.3002  -28.6062   18.9555 N   0  0  0  0  0  0  0  0  0  0  0  0
  -29.1090  -22.1014   23.0085 N   0  0  3  0  0  0  0  0  0  0  0  0
  -20.8645  -27.4819   15.5665 N   0  3  0  0  0  0  0  0  0  0  0  0
  -22.3082  -14.1860   22.6833 O   0  0  0  0  0  0  0  0  0  0  0  0
  -24.0340  -29.9259   23.0379 O   0  0  0  0  0  0  0  0  0  0  0  0
  -21.0703  -30.9837   20.3567 O   0  0  0  0  0  0  0  0  0  0  0  0
  -21.5106  -26.7735   18.2117 O   0  0  0  0  0  0  0  0  0  0  0  0
  -30.7702  -16.6496   19.8220 O   0  0  0  0  0  0  0  0  0  0  0  0
  -22.5939   -6.5738   21.0834 O   0  0  0  0  0  0  0  0  0  0  0  0
  -27.9172  -25.9859   20.3766 O   0  0  0  0  0  0  0  0  0  1  0  0
  -20.9314   -4.6727   25.9850 F   0  0  0  0  0  0  0  0  0  0  0  0
  -23.8078   -4.3745   22.2376 F   0  0  0  0  0  0  0  0  0  0  0  0
  1  2  1  0  0  0  0
  1  5  2  0  0  0  0
  2  6  2  0  0  0  0
  3  8  2  0  0  0  0
  3 16  1  0  0  0  0
  4  9  1  0  0  0  0
  4 16  2  0  0  0  0
  5 18  1  0  0  0  0
  6 20  1  0  0  0  0
  7 10  2  0  0  0  0
  7 19  1  0  0  0  0
  8 27  1  0  0  0  0
  9 27  2  0  0  0  0
 10 28  1  0  0  0  0
 11 12  2  0  0  0  0
 11 29  1  0  0  0  0
 12 30  1  0  0  0  0
 13 21  1  0  0  0  0
 13 28  2  0  0  0  0
 14 22  2  0  0  0  0
 14 25  1  0  0  0  0
 15 30  2  0  0  0  0
 15 31  1  0  0  0  0
 16 32  1  0  0  0  0
 17 32  1  0  0  0  0
 17 33  2  0  0  0  0
 17 34  1  0  0  0  0
 18 20  2  0  0  0  0
 18 39  1  0  0  0  0
 19 21  2  0  0  0  0
 19 40  1  0  0  0  0
 20 48  1  0  0  0  0
 21 41  1  0  0  0  0
 22 26  1  0  0  0  0
 22 51  1  0  0  0  0
 23 24  1  0  0  0  0
 23 25  2  0  0  0  0
 23 52  1  0  0  0  0
 24 26  2  0  0  0  0
 24 53  1  0  0  0  0
 25 72  1  0  0  0  0
 26 75  1  0  0  0  0
 27 82  1  0  0  0  0
 28 83  1  0  0  0  0
 29 31  2  0  0  0  0
 29 82  1  0  0  0  0
 30 84  1  0  0  0  0
 31 85  1  0  0  0  0
 32 66  2  0  0  0  0
 33 67  1  0  0  0  0
 33 70  1  0  0  0  0
 34 71  1  0  0  0  0
 34 77  2  0  0  0  0
 35 49  1  0  0  0  0
 35 73  1  0  0  0  0
 35 78  2  0  0  0  0
 36 63  1  0  0  0  0
 36 68  1  0  0  0  0
 36 79  2  0  0  0  0
 37 64  1  0  0  0  0
 37 74  1  0  0  0  0
 37 80  2  0  0  0  0
 38 69  1  0  0  0  0
 38 72  1  0  0  0  0
 38 81  2  0  0  0  0
 39 42  1  0  0  0  0
 40 49  1  0  0  0  0
 41 68  1  0  0  0  0
 42 44  1  0  0  0  0
 43 45  1  0  0  0  0
 43 46  1  0  0  0  0
 44 48  1  0  0  0  0
 45 50  1  0  0  0  0
 46 69  1  0  0  0  0
 47 50  1  0  0  0  0
 47 69  1  0  0  0  0
 48 73  1  0  0  0  0
 49 68  1  0  0  0  0
 50 67  1  0  0  0  0
 54 64  1  0  0  0  0
 55 65  1  0  0  0  0
 56 65  1  0  0  0  0
 57 65  1  0  0  0  0
 58 75  1  0  0  0  0
 59 76  1  0  0  0  0
 60 61  1  0  0  0  0
 60 62  1  0  0  0  0
 61 75  1  0  0  0  0
 62 83  1  0  0  0  0
 63 65  1  0  0  0  0
 63 74  1  0  0  0  0
 64 76  1  0  0  0  0
 66 67  1  0  0  0  0
M  CHG  1  76   1
M  ISO  4  38 100  62 101  72 100  83 101
M  END
> <Batch ID>
0017

> <Smiles>
CNC(C)C(=O)NC(C(=O)N1Cc2cc([101O:1][101CH2:1]CCN(C)c3c(C)cc([100NH:0][100C:0](=O)N4CCCC(n5nc(-c6ccc(Oc7ccc(F)cc7F)cc6)c(C(N)=O)c5N)C4)c(C)c3C)ccc2CC1C(=O)NC1CCCc2ccccc21)C(C)(C)C

> <Shape>
0.328

> <Color>
0.138

> <Negative vol penalty>
0.000

$$$$

  -OEChem-04052316013D

 85 93  0     1  0  0  0  0  0999 V2000
  -40.4304  -21.3042   11.6173 C   0  0  0  0  0  0  0  0  0  0  0  0
  -39.9186  -21.2612   12.9102 C   0  0  0  0  0  0  0  0  0  0  0  0
  -23.0751   -9.8682   19.9402 C   0  0  0  0  0  0  0  0  0  0  0  0
  -23.8350   -9.8744   22.2336 C   0  0  0  0  0  0  0  0  0  0  0  0
  -39.8752  -22.1718   10.6776 C   0  0  0  0  0  0  0  0  0  0  0  0
  -38.8520  -22.0866   13.2645 C   0  0  0  0  0  0  0  0  0  0  0  0
  -34.3160  -20.7710   17.1631 C   0  0  0  0  0  0  0  0  0  0  0  0
  -22.3311   -8.7151   20.1898 C   0  0  0  0  0  0  0  0  0  0  0  0
  -23.0909   -8.7213   22.4832 C   0  0  0  0  0  0  0  0  0  0  0  0
  -34.1102  -21.0898   18.5047 C   0  0  0  0  0  0  0  0  0  0  0  0
  -19.8626   -7.9238   23.0855 C   0  0  0  0  0  0  0  0  0  0  0  0
  -19.1057   -7.8837   24.2564 C   0  0  0  0  0  0  0  0  0  0  0  0
  -32.4521  -18.3234   22.5816 C   0  0  0  0  0  0  0  0  0  0  0  0
  -32.7517  -22.9702   17.8432 C   0  0  0  0  0  0  0  0  0  0  0  0
  -20.3468   -5.9458   24.9923 C   0  0  0  0  0  0  0  0  0  0  0  0
  -23.8272  -10.4478   20.9621 C   0  0  0  0  0  0  0  0  0  0  0  0
  -31.9562  -17.1005   22.1300 C   0  0  0  0  0  0  0  0  0  0  0  0
  -24.1694  -12.9729   20.8428 C   0  0  0  0  0  0  0  0  0  0  0  0
  -38.7950  -23.0013   11.0178 C   0  0  0  0  0  0  0  0  0  0  0  0
  -33.7492  -21.5571   16.1497 C   0  0  0  0  0  0  0  0  0  0  0  0
  -38.2827  -22.9670   12.3289 C   0  0  0  0  0  0  0  0  0  0  0  0
  -32.9497  -22.6578   16.4896 C   0  0  0  0  0  0  0  0  0  0  0  0
  -31.5775  -19.3803   22.8344 C   0  0  0  0  0  0  0  0  0  0  0  0
  -30.2069  -19.2141   22.6354 C   0  0  0  0  0  0  0  0  0  0  0  0
  -29.7110  -17.9912   22.1837 C   0  0  0  0  0  0  0  0  0  0  0  0
  -30.5856  -16.9343   21.9310 C   0  0  0  0  0  0  0  0  0  0  0  0
  -22.3389   -8.1416   21.4613 C   0  0  0  0  0  0  0  0  0  0  0  0
  -33.3303  -22.1912   18.8449 C   0  0  0  0  0  0  0  0  0  0  0  0
  -20.8616   -6.9749   22.8679 C   0  0  0  0  0  0  0  0  0  0  0  0
  -19.3477   -6.8947   25.2098 C   0  0  0  0  0  0  0  0  0  0  0  0
  -21.1037   -5.9859   23.8213 C   0  0  0  0  0  0  0  0  0  0  0  0
  -24.5965  -11.6386   20.7047 C   0  0  0  0  0  0  0  0  0  0  0  0
  -25.2617  -13.7223   20.4798 C   0  0  0  0  0  0  0  0  0  0  0  0
  -32.8985  -16.0170   21.8780 C   0  0  0  0  0  0  0  0  0  0  0  0
  -22.8990  -13.4888   21.2619 C   0  0  0  0  0  0  0  0  0  0  0  0
  -34.9019  -23.3283   13.7752 C   0  0  0  0  0  0  0  0  0  0  0  0
  -31.7699  -23.5964   12.9745 C   0  0  0  0  0  0  0  0  0  0  0  0
  -28.5063  -23.4876   13.9665 C   0  0  0  0  0  0  0  0  0  0  0  0
  -30.7281  -14.7670   20.6548 C   0  0  0  0  0  0  0  0  0  0  0  0
  -38.2588  -23.9567    9.9813 C   0  0  0  0  0  0  0  0  0  0  0  0
  -33.9587  -21.1842   14.7076 C   0  0  0  0  0  0  0  0  0  0  0  0
  -32.3021  -23.5219   15.4396 C   0  0  0  0  0  0  0  0  0  0  0  0
  -36.8872  -24.5281   10.3313 C   0  0  0  0  0  0  0  0  0  0  0  0
  -29.6133  -12.3541   18.2858 C   0  0  0  0  0  0  0  0  0  0  0  0
  -36.8586  -24.9966   11.7827 C   0  0  0  0  0  0  0  0  0  0  0  0
  -28.1736  -12.0626   18.7153 C   0  0  0  0  0  0  0  0  0  0  0  0
  -30.5284  -12.5824   19.4875 C   0  0  0  0  0  0  0  0  0  0  0  0
  -28.6216  -13.3067   20.8690 C   0  0  0  0  0  0  0  0  0  0  0  0
  -37.1103  -23.8290   12.7443 C   0  0  1  0  0  0  0  0  0  0  0  0
  -33.7565  -22.3561   13.7520 C   0  0  1  0  0  0  0  0  0  0  0  0
  -27.6487  -13.1340   19.6911 C   0  0  2  0  0  0  0  0  0  0  0  0
  -29.2722  -20.3506   22.9059 C   0  0  0  0  0  0  0  0  0  0  0  0
  -28.2390  -17.8188   21.9711 C   0  0  0  0  0  0  0  0  0  0  0  0
  -33.9648  -16.2550   20.8510 C   0  0  0  0  0  0  0  0  0  0  0  0
  -26.1717  -23.7858   13.0958 C   0  0  0  0  0  0  0  0  0  0  0  0
  -32.1557  -26.6231   12.9837 C   0  0  0  0  0  0  0  0  0  0  0  0
  -29.6654  -26.8704   13.0573 C   0  0  0  0  0  0  0  0  0  0  0  0
  -30.7493  -25.7565   11.1061 C   0  0  0  0  0  0  0  0  0  0  0  0
  -27.7766  -20.6982   14.6345 C   0  0  0  0  0  0  0  0  0  0  0  0
  -32.1391  -20.6922   23.3212 C   0  0  0  0  0  0  0  0  0  0  0  0
  -32.1990  -21.7750   22.2416 C   0  0  0  0  0  0  0  0  0  0  0  0
  -33.1326  -21.4266   21.0881 C   0  0  0  0  0  0  0  0  0  1  0  0
  -30.6544  -24.5508   13.3264 C   0  0  1  0  0  0  0  0  0  0  0  0
  -27.2942  -22.7966   13.3684 C   0  0  2  0  0  0  0  0  0  0  0  0
  -30.8198  -25.9352   12.6384 C   0  0  0  0  0  0  0  0  0  0  0  0
  -25.8613  -11.5427   20.2864 N   0  0  0  0  0  0  0  0  0  0  0  0
  -26.2384  -12.8263   20.1585 N   0  0  0  0  0  0  0  0  0  0  0  0
  -32.5419  -23.1201   14.0437 N   0  0  0  0  0  0  0  0  0  0  0  0
  -29.9696  -13.6130   20.3652 N   0  0  0  0  0  0  0  0  0  0  0  0
  -25.4723  -15.0538   20.4072 N   0  0  0  0  0  0  0  0  0  0  0  0
  -21.8869  -12.5797   21.5989 N   0  0  0  0  0  0  0  0  0  0  0  0
  -30.0808  -15.6919   21.4735 N   0  0  0  0  0  0  0  0  0  0  0  0
  -35.9156  -23.0248   12.8866 N   0  0  0  0  0  0  0  0  0  0  0  0
  -29.4103  -23.8642   12.9959 N   0  0  0  0  0  0  0  0  0  0  0  0
  -26.7830  -21.7503   14.2984 N   0  3  0  0  0  0  0  0  0  0  0  0
  -32.8792  -14.9232   22.4421 O   0  0  0  0  0  0  0  0  0  0  0  0
  -22.6630  -14.7195   21.3196 O   0  0  0  0  0  0  0  0  0  0  0  0
  -34.8677  -24.2840   14.5415 O   0  0  0  0  0  0  0  0  0  0  0  0
  -31.9451  -23.2794   11.7954 O   0  0  0  0  0  0  0  0  0  0  0  0
  -28.6363  -23.6778   15.1738 O   0  0  0  0  0  0  0  0  0  0  0  0
  -31.8572  -14.9357   20.1872 O   0  0  0  0  0  0  0  0  0  0  0  0
  -21.6128   -7.0166   21.7053 O   0  0  0  0  0  0  0  0  0  0  0  0
  -33.1283  -22.5050   20.1535 O   0  0  0  0  0  0  0  0  0  1  0  0
  -18.6218   -6.8572   26.3348 F   0  0  0  0  0  0  0  0  0  0  0  0
  -22.0629   -5.0723   23.6184 F   0  0  0  0  0  0  0  0  0  0  0  0
  1  2  1  0  0  0  0
  1  5  2  0  0  0  0
  2  6  2  0  0  0  0
  3  8  2  0  0  0  0
  3 16  1  0  0  0  0
  4  9  1  0  0  0  0
  4 16  2  0  0  0  0
  5 19  1  0  0  0  0
  6 21  1  0  0  0  0
  7 10  2  0  0  0  0
  7 20  1  0  0  0  0
  8 27  1  0  0  0  0
  9 27  2  0  0  0  0
 10 28  1  0  0  0  0
 11 12  2  0  0  0  0
 11 29  1  0  0  0  0
 12 30  1  0  0  0  0
 13 17  2  0  0  0  0
 13 23  1  0  0  0  0
 14 22  1  0  0  0  0
 14 28  2  0  0  0  0
 15 30  2  0  0  0  0
 15 31  1  0  0  0  0
 16 32  1  0  0  0  0
 17 26  1  0  0  0  0
 17 34  1  0  0  0  0
 18 32  1  0  0  0  0
 18 33  2  0  0  0  0
 18 35  1  0  0  0  0
 19 21  2  0  0  0  0
 19 40  1  0  0  0  0
 20 22  2  0  0  0  0
 20 41  1  0  0  0  0
 21 49  1  0  0  0  0
 22 42  1  0  0  0  0
 23 24  2  0  0  0  0
 23 60  1  0  0  0  0
 24 25  1  0  0  0  0
 24 52  1  0  0  0  0
 25 26  2  0  0  0  0
 25 53  1  0  0  0  0
 26 72  1  0  0  0  0
 27 82  1  0  0  0  0
 28 83  1  0  0  0  0
 29 31  2  0  0  0  0
 29 82  1  0  0  0  0
 30 84  1  0  0  0  0
 31 85  1  0  0  0  0
 32 66  2  0  0  0  0
 33 67  1  0  0  0  0
 33 70  1  0  0  0  0
 34 54  1  0  0  0  0
 34 76  2  0  0  0  0
 35 71  1  0  0  0  0
 35 77  2  0  0  0  0
 36 50  1  0  0  0  0
 36 73  1  0  0  0  0
 36 78  2  0  0  0  0
 37 63  1  0  0  0  0
 37 68  1  0  0  0  0
 37 79  2  0  0  0  0
 38 64  1  0  0  0  0
 38 74  1  0  0  0  0
 38 80  2  0  0  0  0
 39 69  1  0  0  0  0
 39 72  1  0  0  0  0
 39 81  2  0  0  0  0
 40 43  1  0  0  0  0
 41 50  1  0  0  0  0
 42 68  1  0  0  0  0
 43 45  1  0  0  0  0
 44 46  1  0  0  0  0
 44 47  1  0  0  0  0
 45 49  1  0  0  0  0
 46 51  1  0  0  0  0
 47 69  1  0  0  0  0
 48 51  1  0  0  0  0
 48 69  1  0  0  0  0
 49 73  1  0  0  0  0
 50 68  1  0  0  0  0
 51 67  1  0  0  0  0
 55 64  1  0  0  0  0
 56 65  1  0  0  0  0
 57 65  1  0  0  0  0
 58 65  1  0  0  0  0
 59 75  1  0  0  0  0
 60 61  1  0  0  0  0
 61 62  1  0  0  0  0
 62 83  1  0  0  0  0
 63 65  1  0  0  0  0
 63 74  1  0  0  0  0
 64 75  1  0  0  0  0
 66 67  1  0  0  0  0
M  CHG  1  75   1
M  ISO  4  39 100  62 101  72 100  83 101
M  END
> <Batch ID>
0017

> <Smiles>
CNC(C)C(=O)NC(C(=O)N1Cc2cc([101O:1][101CH2:1]CCc3cc(C(C)=O)c([100NH:0][100C:0](=O)N4CCCC(n5nc(-c6ccc(Oc7ccc(F)cc7F)cc6)c(C(N)=O)c5N)C4)c(C)c3C)ccc2CC1C(=O)NC1CCCc2ccccc21)C(C)(C)C

> <Shape>
0.179

> <Color>
0.196

> <Negative vol penalty>
0.000

$$$$
