
  -OEChem-04052316043D

 81 89  0     1  0  0  0  0  0999 V2000
  -30.0308  -33.4781   25.9897 C   0  0  0  0  0  0  0  0  0  0  0  0
  -30.7775  -32.3613   25.6284 C   0  0  0  0  0  0  0  0  0  0  0  0
  -23.0032   -9.8806   19.9881 C   0  0  0  0  0  0  0  0  0  0  0  0
  -23.7171   -9.9556   22.2950 C   0  0  0  0  0  0  0  0  0  0  0  0
  -28.6402  -33.3966   26.0475 C   0  0  0  0  0  0  0  0  0  0  0  0
  -30.1340  -31.1619   25.3257 C   0  0  0  0  0  0  0  0  0  0  0  0
  -30.7527  -25.4035   21.1097 C   0  0  0  0  0  0  0  0  0  0  0  0
  -22.2373   -8.7475   20.2620 C   0  0  0  0  0  0  0  0  0  0  0  0
  -22.9512   -8.8225   22.5689 C   0  0  0  0  0  0  0  0  0  0  0  0
  -30.7589  -24.0112   21.1822 C   0  0  0  0  0  0  0  0  0  0  0  0
  -23.2035   -5.4795   22.1312 C   0  0  0  0  0  0  0  0  0  0  0  0
  -23.7891   -4.4708   22.8961 C   0  0  0  0  0  0  0  0  0  0  0  0
  -28.3473  -24.0095   21.2387 C   0  0  0  0  0  0  0  0  0  0  0  0
  -30.8226  -19.0715   20.2183 C   0  0  0  0  0  0  0  0  0  0  0  0
  -22.0568   -4.7272   24.5605 C   0  0  0  0  0  0  0  0  0  0  0  0
  -23.7431  -10.4847   21.0046 C   0  0  0  0  0  0  0  0  0  0  0  0
  -24.1250  -12.9991   20.8056 C   0  0  0  0  0  0  0  0  0  0  0  0
  -27.9787  -32.1982   25.7360 C   0  0  0  0  0  0  0  0  0  0  0  0
  -29.5420  -26.1110   21.1122 C   0  0  0  0  0  0  0  0  0  0  0  0
  -28.7333  -31.0638   25.3807 C   0  0  0  0  0  0  0  0  0  0  0  0
  -28.3284  -25.4107   21.1636 C   0  0  0  0  0  0  0  0  0  0  0  0
  -30.6242  -19.8227   21.3767 C   0  0  0  0  0  0  0  0  0  0  0  0
  -30.2406  -19.1917   22.5600 C   0  0  0  0  0  0  0  0  0  0  0  0
  -30.0553  -17.8093   22.5848 C   0  0  0  0  0  0  0  0  0  0  0  0
  -30.2536  -17.0582   21.4264 C   0  0  0  0  0  0  0  0  0  0  0  0
  -22.2113   -8.2184   21.5523 C   0  0  0  0  0  0  0  0  0  0  0  0
  -29.5561  -23.3142   21.2496 C   0  0  0  0  0  0  0  0  0  0  0  0
  -22.0445   -6.1121   22.5809 C   0  0  0  0  0  0  0  0  0  0  0  0
  -23.2158   -4.0946   24.1108 C   0  0  0  0  0  0  0  0  0  0  0  0
  -21.4711   -5.7359   23.7956 C   0  0  0  0  0  0  0  0  0  0  0  0
  -30.6373  -17.6892   20.2431 C   0  0  0  0  0  0  0  0  0  0  0  0
  -24.5349  -11.6549   20.7223 C   0  0  0  0  0  0  0  0  0  0  0  0
  -25.2353  -13.7200   20.4395 C   0  0  0  0  0  0  0  0  0  0  0  0
  -22.8543  -13.5470   21.1806 C   0  0  0  0  0  0  0  0  0  0  0  0
  -28.2026  -28.2580   23.0358 C   0  0  0  0  0  0  0  0  0  0  0  0
  -25.9548  -28.3736   20.6999 C   0  0  0  0  0  0  0  0  0  0  0  0
  -24.4130  -26.8172   18.0832 C   0  0  0  0  0  0  0  0  0  0  0  0
  -30.7119  -14.6929   20.6903 C   0  0  0  0  0  0  0  0  0  0  0  0
  -26.4764  -32.1452   25.8584 C   0  0  0  0  0  0  0  0  0  0  0  0
  -29.5517  -27.6114   21.0065 C   0  0  0  0  0  0  0  0  0  0  0  0
  -27.0010  -26.1221   21.1489 C   0  0  0  0  0  0  0  0  0  0  0  0
  -25.8504  -30.9413   25.1592 C   0  0  0  0  0  0  0  0  0  0  0  0
  -29.6091  -12.2152   18.3833 C   0  0  0  0  0  0  0  0  0  0  0  0
  -26.6164  -29.6674   25.5015 C   0  0  0  0  0  0  0  0  0  0  0  0
  -28.1569  -11.9591   18.7930 C   0  0  0  0  0  0  0  0  0  0  0  0
  -30.5033  -12.4721   19.5950 C   0  0  0  0  0  0  0  0  0  0  0  0
  -28.5802  -13.2708   20.9114 C   0  0  0  0  0  0  0  0  0  0  0  0
  -28.0702  -29.7519   25.0211 C   0  0  1  0  0  0  0  0  0  0  0  0
  -28.2739  -28.2559   21.5349 C   0  0  1  0  0  0  0  0  0  0  0  0
  -27.6286  -13.0710   19.7205 C   0  0  2  0  0  0  0  0  0  0  0  0
  -30.0279  -20.0004   23.8006 C   0  0  0  0  0  0  0  0  0  0  0  0
  -29.6435  -17.1383   23.8584 C   0  0  0  0  0  0  0  0  0  0  0  0
  -22.5867  -27.1469   16.3940 C   0  0  0  0  0  0  0  0  0  0  0  0
  -23.8656  -27.8318   22.8567 C   0  0  0  0  0  0  0  0  0  0  0  0
  -22.2480  -27.2345   21.0415 C   0  0  0  0  0  0  0  0  0  0  0  0
  -23.1930  -29.5401   21.1585 C   0  0  0  0  0  0  0  0  0  0  0  0
  -26.3072  -26.5950   15.8200 C   0  0  0  0  0  0  0  0  0  0  0  0
  -30.8310  -21.3079   21.3227 C   0  0  0  0  0  0  0  0  0  1  0  0
  -24.6725  -27.6306   20.4124 C   0  0  1  0  0  0  0  0  0  0  0  0
  -24.0718  -27.2983   16.6844 C   0  0  2  0  0  0  0  0  0  0  0  0
  -23.5197  -28.0457   21.3696 C   0  0  0  0  0  0  0  0  0  0  0  0
  -25.8063  -11.5267   20.3335 N   0  0  0  0  0  0  0  0  0  0  0  0
  -26.2049  -12.7996   20.1692 N   0  0  0  0  0  0  0  0  0  0  0  0
  -27.0630  -27.5898   21.0509 N   0  0  0  0  0  0  0  0  0  0  0  0
  -29.9424  -13.5404   20.4251 N   0  0  0  0  0  0  0  0  0  0  0  0
  -25.4670  -15.0450   20.3254 N   0  0  0  0  0  0  0  0  0  0  0  0
  -21.8223  -12.6645   21.5279 N   0  0  0  0  0  0  0  0  0  0  0  0
  -30.0622  -15.6547   21.4633 N   0  0  0  0  0  0  0  0  0  0  0  0
  -28.1454  -29.5206   23.5945 N   0  0  0  0  0  0  0  0  0  0  0  0
  -24.3831  -27.8475   18.9991 N   0  0  0  0  0  0  0  0  0  0  0  0
  -24.8314  -26.5167   15.6681 N   0  3  0  0  0  0  0  0  0  0  0  0
  -22.6353  -14.7821   21.1911 O   0  0  0  0  0  0  0  0  0  0  0  0
  -28.1982  -27.1930   23.6419 O   0  0  0  0  0  0  0  0  0  0  0  0
  -25.9742  -29.6037   20.6093 O   0  0  0  0  0  0  0  0  0  0  0  0
  -24.6759  -25.6441   18.3384 O   0  0  0  0  0  0  0  0  0  0  0  0
  -31.8525  -14.8293   20.2404 O   0  0  0  0  0  0  0  0  0  0  0  0
  -21.4639   -7.1128   21.8200 O   0  0  0  0  0  0  0  0  0  0  0  0
  -29.5593  -21.9552   21.3211 O   0  0  0  0  0  0  0  0  0  1  0  0
  -23.7774   -3.1249   24.8445 F   0  0  0  0  0  0  0  0  0  0  0  0
  -20.3571   -6.3393   24.2323 F   0  0  0  0  0  0  0  0  0  0  0  0
  -30.8945  -16.7998   18.7836 Cl  0  0  0  0  0  0  0  0  0  0  0  0
  1  2  1  0  0  0  0
  1  5  2  0  0  0  0
  2  6  2  0  0  0  0
  3  8  2  0  0  0  0
  3 16  1  0  0  0  0
  4  9  1  0  0  0  0
  4 16  2  0  0  0  0
  5 18  1  0  0  0  0
  6 20  1  0  0  0  0
  7 10  2  0  0  0  0
  7 19  1  0  0  0  0
  8 26  1  0  0  0  0
  9 26  2  0  0  0  0
 10 27  1  0  0  0  0
 11 12  2  0  0  0  0
 11 28  1  0  0  0  0
 12 29  1  0  0  0  0
 13 21  1  0  0  0  0
 13 27  2  0  0  0  0
 14 22  1  0  0  0  0
 14 31  2  0  0  0  0
 15 29  2  0  0  0  0
 15 30  1  0  0  0  0
 16 32  1  0  0  0  0
 17 32  1  0  0  0  0
 17 33  2  0  0  0  0
 17 34  1  0  0  0  0
 18 20  2  0  0  0  0
 18 39  1  0  0  0  0
 19 21  2  0  0  0  0
 19 40  1  0  0  0  0
 20 48  1  0  0  0  0
 21 41  1  0  0  0  0
 22 23  2  0  0  0  0
 22 58  1  0  0  0  0
 23 24  1  0  0  0  0
 23 51  1  0  0  0  0
 24 25  2  0  0  0  0
 24 52  1  0  0  0  0
 25 31  1  0  0  0  0
 25 68  1  0  0  0  0
 26 77  1  0  0  0  0
 27 78  1  0  0  0  0
 28 30  2  0  0  0  0
 28 77  1  0  0  0  0
 29 79  1  0  0  0  0
 30 80  1  0  0  0  0
 31 81  1  0  0  0  0
 32 62  2  0  0  0  0
 33 63  1  0  0  0  0
 33 66  1  0  0  0  0
 34 67  1  0  0  0  0
 34 72  2  0  0  0  0
 35 49  1  0  0  0  0
 35 69  1  0  0  0  0
 35 73  2  0  0  0  0
 36 59  1  0  0  0  0
 36 64  1  0  0  0  0
 36 74  2  0  0  0  0
 37 60  1  0  0  0  0
 37 70  1  0  0  0  0
 37 75  2  0  0  0  0
 38 65  1  0  0  0  0
 38 68  1  0  0  0  0
 38 76  2  0  0  0  0
 39 42  1  0  0  0  0
 40 49  1  0  0  0  0
 41 64  1  0  0  0  0
 42 44  1  0  0  0  0
 43 45  1  0  0  0  0
 43 46  1  0  0  0  0
 44 48  1  0  0  0  0
 45 50  1  0  0  0  0
 46 65  1  0  0  0  0
 47 50  1  0  0  0  0
 47 65  1  0  0  0  0
 48 69  1  0  0  0  0
 49 64  1  0  0  0  0
 50 63  1  0  0  0  0
 53 60  1  0  0  0  0
 54 61  1  0  0  0  0
 55 61  1  0  0  0  0
 56 61  1  0  0  0  0
 57 71  1  0  0  0  0
 58 78  1  0  0  0  0
 59 61  1  0  0  0  0
 59 70  1  0  0  0  0
 60 71  1  0  0  0  0
 62 63  1  0  0  0  0
M  CHG  1  71   1
M  ISO  4  38 100  58 101  68 100  78 101
M  END
> <Batch ID>
0018

> <Smiles>
CNC(C)C(=O)NC(C(=O)N1Cc2cc([101O:1][101CH2:1]c3cc(Cl)c([100NH:0][100C:0](=O)N4CCCC(n5nc(-c6ccc(Oc7ccc(F)cc7F)cc6)c(C(N)=O)c5N)C4)c(C)c3C)ccc2CC1C(=O)NC1CCCc2ccccc21)C(C)(C)C

> <Shape>
0.346

> <Color>
0.207

> <Negative vol penalty>
0.000

$$$$

  -OEChem-04052316043D

 88 96  0     1  0  0  0  0  0999 V2000
  -21.9731  -24.8724   14.6551 C   0  0  0  0  0  0  0  0  0  0  0  0
  -22.5225  -23.7421   15.2517 C   0  0  0  0  0  0  0  0  0  0  0  0
  -18.6986  -22.2437   19.4955 C   0  0  0  0  0  0  0  0  0  0  0  0
  -20.0946  -22.2403   21.4673 C   0  0  0  0  0  0  0  0  0  0  0  0
  -22.7695  -25.9928   14.4217 C   0  0  0  0  0  0  0  0  0  0  0  0
  -23.8689  -23.7312   15.6144 C   0  0  0  0  0  0  0  0  0  0  0  0
  -26.3526  -20.9350   20.4640 C   0  0  0  0  0  0  0  0  0  0  0  0
  -18.0876  -23.4199   19.9300 C   0  0  0  0  0  0  0  0  0  0  0  0
  -19.4837  -23.4166   21.9019 C   0  0  0  0  0  0  0  0  0  0  0  0
  -27.0158  -19.7170   20.6066 C   0  0  0  0  0  0  0  0  0  0  0  0
  -18.5427  -26.6143   23.3535 C   0  0  0  0  0  0  0  0  0  0  0  0
  -19.3638  -27.6293   23.8445 C   0  0  0  0  0  0  0  0  0  0  0  0
  -29.1340  -20.8538   20.4059 C   0  0  0  0  0  0  0  0  0  0  0  0
  -20.5013  -27.7389   21.7158 C   0  0  0  0  0  0  0  0  0  0  0  0
  -24.4713  -12.0784   20.8072 C   0  0  0  0  0  0  0  0  0  0  0  0
  -19.7020  -21.6538   20.2642 C   0  0  0  0  0  0  0  0  0  0  0  0
  -21.4783  -20.3242   19.0054 C   0  0  0  0  0  0  0  0  0  0  0  0
  -24.1239  -25.9991   14.7905 C   0  0  0  0  0  0  0  0  0  0  0  0
  -27.0761  -22.1221   20.2801 C   0  0  0  0  0  0  0  0  0  0  0  0
  -24.6844  -24.8522   15.3846 C   0  0  0  0  0  0  0  0  0  0  0  0
  -28.4777  -22.0859   20.2638 C   0  0  0  0  0  0  0  0  0  0  0  0
  -24.3546  -13.4777   20.7075 C   0  0  0  0  0  0  0  0  0  0  0  0
  -18.4802  -24.0064   21.1332 C   0  0  0  0  0  0  0  0  0  0  0  0
  -28.4066  -19.6758   20.5746 C   0  0  0  0  0  0  0  0  0  0  0  0
  -18.7009  -26.1615   22.0436 C   0  0  0  0  0  0  0  0  0  0  0  0
  -20.3431  -28.1916   23.0257 C   0  0  0  0  0  0  0  0  0  0  0  0
  -19.6801  -26.7238   21.2248 C   0  0  0  0  0  0  0  0  0  0  0  0
  -20.3331  -20.4385   19.8161 C   0  0  0  0  0  0  0  0  0  0  0  0
  -25.6385  -13.9148   20.4905 C   0  0  0  0  0  0  0  0  0  0  0  0
  -21.6689  -18.9708   18.8692 C   0  0  0  0  0  0  0  0  0  0  0  0
  -22.2967  -21.3497   18.4272 C   0  0  0  0  0  0  0  0  0  0  0  0
  -27.2631  -24.3004   17.9727 C   0  0  0  0  0  0  0  0  0  0  0  0
  -29.1311  -25.8517   20.1236 C   0  0  0  0  0  0  0  0  0  0  0  0
  -31.1748  -25.6681   22.8506 C   0  0  0  0  0  0  0  0  0  0  0  0
  -21.8817  -13.8406   21.0229 C   0  0  0  0  0  0  0  0  0  0  0  0
  -24.9565  -27.2165   14.4751 C   0  0  0  0  0  0  0  0  0  0  0  0
  -26.3464  -23.4314   20.1546 C   0  0  0  0  0  0  0  0  0  0  0  0
  -29.3013  -23.3347   20.0893 C   0  0  0  0  0  0  0  0  0  0  0  0
  -26.2824  -27.2600   15.2304 C   0  0  0  0  0  0  0  0  0  0  0  0
  -18.6735  -15.0818   20.1042 C   0  0  0  0  0  0  0  0  0  0  0  0
  -26.9827  -25.9069   15.1580 C   0  0  0  0  0  0  0  0  0  0  0  0
  -18.9135  -16.5767   19.8806 C   0  0  0  0  0  0  0  0  0  0  0  0
  -19.5093  -14.5402   21.2625 C   0  0  0  0  0  0  0  0  0  0  0  0
  -21.1879  -16.3163   20.9513 C   0  0  0  0  0  0  0  0  0  0  0  0
  -26.1347  -24.8109   15.8148 C   0  0  1  0  0  0  0  0  0  0  0  0
  -27.1700  -24.5100   19.4577 C   0  0  1  0  0  0  0  0  0  0  0  0
  -20.4165  -16.8932   19.7530 C   0  0  2  0  0  0  0  0  0  0  0  0
  -26.1895  -15.2708   20.3011 C   0  0  0  0  0  0  0  0  0  0  0  0
  -32.5839  -27.0981   24.3561 C   0  0  0  0  0  0  0  0  0  0  0  0
  -28.2875  -13.1248   22.8253 C   0  0  0  0  0  0  0  0  0  0  0  0
  -31.2693  -26.0249   17.9537 C   0  0  0  0  0  0  0  0  0  0  0  0
  -32.9368  -26.5751   19.7383 C   0  0  0  0  0  0  0  0  0  0  0  0
  -31.0053  -28.0989   19.3260 C   0  0  0  0  0  0  0  0  0  0  0  0
  -28.3539  -11.2291   20.3306 C   0  0  0  0  0  0  0  0  0  0  0  0
  -28.3880  -13.2222   18.8625 C   0  0  0  0  0  0  0  0  0  0  0  0
  -29.5716  -24.9448   25.2309 C   0  0  0  0  0  0  0  0  0  0  0  0
  -32.3245  -14.5402   22.1009 C   0  0  0  0  0  0  0  0  0  0  0  0
  -30.5903  -17.1984   22.0309 C   0  0  0  0  0  0  0  0  0  0  0  0
  -30.5588  -15.9889   21.1088 C   0  0  0  0  0  0  0  0  0  0  0  0
  -30.2189  -13.5257   21.2411 C   0  0  0  0  0  0  0  0  0  0  0  0
  -30.3499  -18.5218   21.3147 C   0  0  0  0  0  0  0  0  0  1  0  0
  -30.6063  -25.8667   20.4440 C   0  0  1  0  0  0  0  0  0  0  0  0
  -31.2143  -26.4749   24.1359 C   0  0  2  0  0  0  0  0  0  0  0  0
  -28.6827  -13.5574   21.4004 C   0  0  1  0  0  0  0  0  0  0  0  0
  -31.4391  -26.6174   19.3669 C   0  0  0  0  0  0  0  0  0  0  0  0
  -27.9493  -12.7268   20.2641 C   0  0  0  0  0  0  0  0  0  0  0  0
  -25.7300  -11.6545   20.6650 N   0  0  0  0  0  0  0  0  0  0  0  0
  -19.8313  -19.2523   20.1699 N   0  0  0  0  0  0  0  0  0  0  0  0
  -26.4158  -12.7943   20.4737 N   0  0  0  0  0  0  0  0  0  0  0  0
  -20.6651  -18.3798   19.5786 N   0  0  0  0  0  0  0  0  0  0  0  0
  -28.5416  -24.5896   19.9644 N   0  0  0  0  0  0  0  0  0  0  0  0
  -20.9224  -14.8742   21.0713 N   0  0  0  0  0  0  0  0  0  0  0  0
  -22.5954  -18.2406   18.2129 N   0  0  0  0  0  0  0  0  0  0  0  0
  -21.9593  -22.6886   18.6675 N   0  0  0  0  0  0  0  0  0  0  0  0
  -23.1882  -14.2764   20.8043 N   0  0  0  0  0  0  0  0  0  0  0  0
  -26.2379  -24.8878   17.2563 N   0  0  0  0  0  0  0  0  0  0  0  0
  -30.7266  -26.4229   21.7873 N   0  0  0  0  0  0  0  0  0  0  0  0
  -30.9009  -25.6041   25.3040 N   0  3  0  0  0  0  0  0  0  0  0  0
  -30.8477  -14.7481   21.8655 N   0  3  1  0  0  0  0  0  0  0  0  0
  -23.2880  -21.0865   17.7050 O   0  0  0  0  0  0  0  0  0  0  0  0
  -28.1968  -23.6548   17.5110 O   0  0  0  0  0  0  0  0  0  0  0  0
  -28.5228  -26.9203   20.0254 O   0  0  0  0  0  0  0  0  0  0  0  0
  -31.5115  -24.4874   22.7947 O   0  0  0  0  0  0  0  0  0  0  0  0
  -21.5637  -12.6542   21.1378 O   0  0  0  0  0  0  0  0  0  0  0  0
  -17.8844  -25.1543   21.5574 O   0  0  0  0  0  0  0  0  0  0  0  0
  -29.0565  -18.4882   20.7129 O   0  0  0  0  0  0  0  0  0  1  0  0
  -21.1305  -29.1674   23.4968 F   0  0  0  0  0  0  0  0  0  0  0  0
  -19.8361  -26.2938   19.9652 F   0  0  0  0  0  0  0  0  0  0  0  0
  1  2  1  0  0  0  0
  1  5  2  0  0  0  0
  2  6  2  0  0  0  0
  3  8  2  0  0  0  0
  3 16  1  0  0  0  0
  4  9  1  0  0  0  0
  4 16  2  0  0  0  0
  5 18  1  0  0  0  0
  6 20  1  0  0  0  0
  7 10  2  0  0  0  0
  7 19  1  0  0  0  0
  8 23  1  0  0  0  0
  9 23  2  0  0  0  0
 10 24  1  0  0  0  0
 11 12  2  0  0  0  0
 11 25  1  0  0  0  0
 12 26  1  0  0  0  0
 13 21  1  0  0  0  0
 13 24  2  0  0  0  0
 14 26  2  0  0  0  0
 14 27  1  0  0  0  0
 15 22  1  0  0  0  0
 15 67  2  0  0  0  0
 16 28  1  0  0  0  0
 17 28  1  0  0  0  0
 17 30  2  0  0  0  0
 17 31  1  0  0  0  0
 18 20  2  0  0  0  0
 18 36  1  0  0  0  0
 19 21  2  0  0  0  0
 19 37  1  0  0  0  0
 20 45  1  0  0  0  0
 21 38  1  0  0  0  0
 22 29  2  0  0  0  0
 22 75  1  0  0  0  0
 23 85  1  0  0  0  0
 24 86  1  0  0  0  0
 25 27  2  0  0  0  0
 25 85  1  0  0  0  0
 26 87  1  0  0  0  0
 27 88  1  0  0  0  0
 28 68  2  0  0  0  0
 29 48  1  0  0  0  0
 29 69  1  0  0  0  0
 30 70  1  0  0  0  0
 30 73  1  0  0  0  0
 31 74  1  0  0  0  0
 31 80  2  0  0  0  0
 32 46  1  0  0  0  0
 32 76  1  0  0  0  0
 32 81  2  0  0  0  0
 33 62  1  0  0  0  0
 33 71  1  0  0  0  0
 33 82  2  0  0  0  0
 34 63  1  0  0  0  0
 34 77  1  0  0  0  0
 34 83  2  0  0  0  0
 35 72  1  0  0  0  0
 35 75  1  0  0  0  0
 35 84  2  0  0  0  0
 36 39  1  0  0  0  0
 37 46  1  0  0  0  0
 38 71  1  0  0  0  0
 39 41  1  0  0  0  0
 40 42  1  0  0  0  0
 40 43  1  0  0  0  0
 41 45  1  0  0  0  0
 42 47  1  0  0  0  0
 43 72  1  0  0  0  0
 44 47  1  0  0  0  0
 44 72  1  0  0  0  0
 45 76  1  0  0  0  0
 46 71  1  0  0  0  0
 47 70  1  0  0  0  0
 49 63  1  0  0  0  0
 50 64  1  0  0  0  0
 51 65  1  0  0  0  0
 52 65  1  0  0  0  0
 53 65  1  0  0  0  0
 54 66  1  0  0  0  0
 55 66  1  0  0  0  0
 56 78  1  0  0  0  0
 57 79  1  0  0  0  0
 58 59  1  0  0  0  0
 58 61  1  0  0  0  0
 59 79  1  0  0  0  0
 60 64  1  0  0  0  0
 60 79  1  0  0  0  0
 61 86  1  0  0  0  0
 62 65  1  0  0  0  0
 62 77  1  0  0  0  0
 63 78  1  0  0  0  0
 64 66  1  0  0  0  0
 66 69  1  0  0  0  0
 67 69  1  0  0  0  0
 68 70  1  0  0  0  0
M  CHG  2  78   1  79   1
M  ISO  4  35 100  61 101  75 100  86 101
M  END
> <Batch ID>
0018

> <Smiles>
CNC(C)C(=O)NC(C(=O)N1Cc2cc([101O:1][101CH2:1]CCN(C)CC(C)C(C)(C)n3ncc([100NH:0][100C:0](=O)N4CCCC(n5nc(-c6ccc(Oc7ccc(F)cc7F)cc6)c(C(N)=O)c5N)C4)c3C)ccc2CC1C(=O)NC1CCCc2ccccc21)C(C)(C)C

> <Shape>
0.225

> <Color>
0.069

> <Negative vol penalty>
0.000

$$$$

  -OEChem-04052316043D

 75 82  0     1  0  0  0  0  0999 V2000
  -32.6757  -26.9307   24.1935 C   0  0  0  0  0  0  0  0  0  0  0  0
  -33.2702  -25.6961   23.9527 C   0  0  0  0  0  0  0  0  0  0  0  0
  -23.1714   -9.8811   19.9137 C   0  0  0  0  0  0  0  0  0  0  0  0
  -23.5557  -10.0089   22.2955 C   0  0  0  0  0  0  0  0  0  0  0  0
  -31.2939  -27.0727   24.0744 C   0  0  0  0  0  0  0  0  0  0  0  0
  -32.4830  -24.6026   23.5938 C   0  0  0  0  0  0  0  0  0  0  0  0
  -34.0021  -20.0717   19.7637 C   0  0  0  0  0  0  0  0  0  0  0  0
  -22.3855   -8.7442   20.1014 C   0  0  0  0  0  0  0  0  0  0  0  0
  -22.7697   -8.8720   22.4833 C   0  0  0  0  0  0  0  0  0  0  0  0
  -34.4800  -18.7802   19.9813 C   0  0  0  0  0  0  0  0  0  0  0  0
  -21.1601   -5.7946   23.5550 C   0  0  0  0  0  0  0  0  0  0  0  0
  -21.6407   -4.8094   24.4175 C   0  0  0  0  0  0  0  0  0  0  0  0
  -32.2307  -17.9255   19.8106 C   0  0  0  0  0  0  0  0  0  0  0  0
  -23.5927   -4.5381   23.0199 C   0  0  0  0  0  0  0  0  0  0  0  0
  -23.7566  -10.5135   21.0107 C   0  0  0  0  0  0  0  0  0  0  0  0
  -24.1389  -13.0281   20.8149 C   0  0  0  0  0  0  0  0  0  0  0  0
  -30.4903  -25.9827   23.7044 C   0  0  0  0  0  0  0  0  0  0  0  0
  -32.6312  -20.3016   19.5785 C   0  0  0  0  0  0  0  0  0  0  0  0
  -31.0889  -24.7299   23.4710 C   0  0  0  0  0  0  0  0  0  0  0  0
  -31.7382  -19.2206   19.5883 C   0  0  0  0  0  0  0  0  0  0  0  0
  -22.1846   -8.2396   21.3862 C   0  0  0  0  0  0  0  0  0  0  0  0
  -33.5940  -17.7072   20.0076 C   0  0  0  0  0  0  0  0  0  0  0  0
  -21.8957   -6.1515   22.4248 C   0  0  0  0  0  0  0  0  0  0  0  0
  -22.8571   -4.1812   24.1500 C   0  0  0  0  0  0  0  0  0  0  0  0
  -23.1120   -5.5233   22.1573 C   0  0  0  0  0  0  0  0  0  0  0  0
  -24.5690  -11.6876   20.8173 C   0  0  0  0  0  0  0  0  0  0  0  0
  -25.2825  -13.7553   20.5922 C   0  0  0  0  0  0  0  0  0  0  0  0
  -22.8231  -13.5676   20.9979 C   0  0  0  0  0  0  0  0  0  0  0  0
  -30.4033  -21.9519   21.1331 C   0  0  0  0  0  0  0  0  0  0  0  0
  -28.5643  -21.1105   18.5969 C   0  0  0  0  0  0  0  0  0  0  0  0
  -27.9950  -18.9426   16.0234 C   0  0  0  0  0  0  0  0  0  0  0  0
  -30.8946  -12.8120   21.6977 C   0  0  0  0  0  0  0  0  0  0  0  0
  -28.9959  -26.1732   23.6345 C   0  0  0  0  0  0  0  0  0  0  0  0
  -32.1347  -21.6974   19.3183 C   0  0  0  0  0  0  0  0  0  0  0  0
  -30.2595  -19.4115   19.3746 C   0  0  0  0  0  0  0  0  0  0  0  0
  -28.2739  -25.0566   22.8848 C   0  0  0  0  0  0  0  0  0  0  0  0
  -29.5634  -13.4701   18.4935 C   0  0  0  0  0  0  0  0  0  0  0  0
  -28.7751  -23.6921   23.3473 C   0  0  0  0  0  0  0  0  0  0  0  0
  -28.0758  -13.2078   18.7242 C   0  0  0  0  0  0  0  0  0  0  0  0
  -30.4457  -12.4569   19.2251 C   0  0  0  0  0  0  0  0  0  0  0  0
  -28.6659  -12.0818   20.9026 C   0  0  0  0  0  0  0  0  0  0  0  0
  -30.2714  -23.5261   23.0554 C   0  0  1  0  0  0  0  0  0  0  0  0
  -30.6576  -21.8785   19.6540 C   0  0  1  0  0  0  0  0  0  0  0  0
  -27.7589  -13.1219   20.2273 C   0  0  2  0  0  0  0  0  0  0  0  0
  -26.3932  -18.4922   14.1448 C   0  0  0  0  0  0  0  0  0  0  0  0
  -26.5394  -20.0021   20.5923 C   0  0  0  0  0  0  0  0  0  0  0  0
  -25.4680  -18.7534   18.7052 C   0  0  0  0  0  0  0  0  0  0  0  0
  -25.5353  -21.2467   18.6695 C   0  0  0  0  0  0  0  0  0  0  0  0
  -32.9464  -11.7573   20.6572 C   0  0  0  0  0  0  0  0  0  0  0  0
  -30.1157  -19.2623   13.9840 C   0  0  0  0  0  0  0  0  0  0  0  0
  -34.0098  -14.5134   21.6426 C   0  0  0  0  0  0  0  0  0  0  0  0
  -33.1585  -13.4978   22.3926 C   0  0  0  0  0  0  0  0  0  0  0  0
  -33.1773  -15.5314   20.8726 C   0  0  0  0  0  0  0  0  0  1  0  0
  -27.6645  -19.9435   18.2691 C   0  0  1  0  0  0  0  0  0  0  0  0
  -27.6858  -19.1798   14.5562 C   0  0  2  0  0  0  0  0  0  0  0  0
  -26.3294  -19.9827   19.0650 C   0  0  0  0  0  0  0  0  0  0  0  0
  -25.8833  -11.5675   20.6121 N   0  0  0  0  0  0  0  0  0  0  0  0
  -26.2889  -12.8418   20.4787 N   0  0  0  0  0  0  0  0  0  0  0  0
  -29.8221  -20.7959   19.1303 N   0  0  0  0  0  0  0  0  0  0  0  0
  -30.0786  -12.3718   20.6452 N   0  0  0  0  0  0  0  0  0  0  0  0
  -25.5154  -15.0806   20.4843 N   0  0  0  0  0  0  0  0  0  0  0  0
  -21.7612  -12.6794   21.2161 N   0  0  0  0  0  0  0  0  0  0  0  0
  -30.4832  -23.2289   21.6549 N   0  0  0  0  0  0  0  0  0  0  0  0
  -27.4967  -19.9518   16.8199 N   0  0  0  0  0  0  0  0  0  0  0  0
  -32.2827  -12.7457   21.5051 N   0  0  0  0  0  0  0  0  0  0  0  0
  -28.7893  -18.6552   13.7029 N   0  3  0  0  0  0  0  0  0  0  0  0
  -22.5933  -14.7999   20.9523 O   0  0  0  0  0  0  0  0  0  0  0  0
  -30.1517  -20.9261   21.7545 O   0  0  0  0  0  0  0  0  0  0  0  0
  -28.1685  -22.2586   18.3806 O   0  0  0  0  0  0  0  0  0  0  0  0
  -28.6131  -17.9585   16.4232 O   0  0  0  0  0  0  0  0  0  0  0  0
  -30.4107  -13.2342   22.7559 O   0  0  0  0  0  0  0  0  0  0  0  0
  -21.4176   -7.1304   21.5699 O   0  0  0  0  0  0  0  0  0  0  0  0
  -34.0578  -16.4457   20.2205 O   0  0  0  0  0  0  0  0  0  1  0  0
  -23.3193   -3.2362   24.9792 F   0  0  0  0  0  0  0  0  0  0  0  0
  -23.8238   -5.8629   21.0738 F   0  0  0  0  0  0  0  0  0  0  0  0
  1  2  1  0  0  0  0
  1  5  2  0  0  0  0
  2  6  2  0  0  0  0
  3  8  2  0  0  0  0
  3 15  1  0  0  0  0
  4  9  1  0  0  0  0
  4 15  2  0  0  0  0
  5 17  1  0  0  0  0
  6 19  1  0  0  0  0
  7 10  2  0  0  0  0
  7 18  1  0  0  0  0
  8 21  1  0  0  0  0
  9 21  2  0  0  0  0
 10 22  1  0  0  0  0
 11 12  2  0  0  0  0
 11 23  1  0  0  0  0
 12 24  1  0  0  0  0
 13 20  1  0  0  0  0
 13 22  2  0  0  0  0
 14 24  2  0  0  0  0
 14 25  1  0  0  0  0
 15 26  1  0  0  0  0
 16 26  1  0  0  0  0
 16 27  2  0  0  0  0
 16 28  1  0  0  0  0
 17 19  2  0  0  0  0
 17 33  1  0  0  0  0
 18 20  2  0  0  0  0
 18 34  1  0  0  0  0
 19 42  1  0  0  0  0
 20 35  1  0  0  0  0
 21 72  1  0  0  0  0
 22 73  1  0  0  0  0
 23 25  2  0  0  0  0
 23 72  1  0  0  0  0
 24 74  1  0  0  0  0
 25 75  1  0  0  0  0
 26 57  2  0  0  0  0
 27 58  1  0  0  0  0
 27 61  1  0  0  0  0
 28 62  1  0  0  0  0
 28 67  2  0  0  0  0
 29 43  1  0  0  0  0
 29 63  1  0  0  0  0
 29 68  2  0  0  0  0
 30 54  1  0  0  0  0
 30 59  1  0  0  0  0
 30 69  2  0  0  0  0
 31 55  1  0  0  0  0
 31 64  1  0  0  0  0
 31 70  2  0  0  0  0
 32 60  1  0  0  0  0
 32 65  1  0  0  0  0
 32 71  2  0  0  0  0
 33 36  1  0  0  0  0
 34 43  1  0  0  0  0
 35 59  1  0  0  0  0
 36 38  1  0  0  0  0
 37 39  1  0  0  0  0
 37 40  1  0  0  0  0
 38 42  1  0  0  0  0
 39 44  1  0  0  0  0
 40 60  1  0  0  0  0
 41 44  1  0  0  0  0
 41 60  1  0  0  0  0
 42 63  1  0  0  0  0
 43 59  1  0  0  0  0
 44 58  1  0  0  0  0
 45 55  1  0  0  0  0
 46 56  1  0  0  0  0
 47 56  1  0  0  0  0
 48 56  1  0  0  0  0
 49 65  1  0  0  0  0
 50 66  1  0  0  0  0
 51 52  1  0  0  0  0
 51 53  1  0  0  0  0
 52 65  1  0  0  0  0
 53 73  1  0  0  0  0
 54 56  1  0  0  0  0
 54 64  1  0  0  0  0
 55 66  1  0  0  0  0
 57 58  1  0  0  0  0
M  CHG  1  66   1
M  ISO  4  32 100  53 101  65 100  73 101
M  END
> <Batch ID>
0018

> <Smiles>
CNC(C)C(=O)NC(C(=O)N1Cc2cc([101O:1][101CH2:1]CC[100N:0](C)[100C:0](=O)N3CCCC(n4nc(-c5ccc(Oc6ccc(F)cc6F)cc5)c(C(N)=O)c4N)C3)ccc2CC1C(=O)NC1CCCc2ccccc21)C(C)(C)C

> <Shape>
0.188

> <Color>
0.204

> <Negative vol penalty>
0.000

$$$$

  -OEChem-04052316043D

 85 93  0     1  0  0  0  0  0999 V2000
  -25.0543  -35.2241   23.7616 C   0  0  0  0  0  0  0  0  0  0  0  0
  -25.7798  -34.0879   23.4179 C   0  0  0  0  0  0  0  0  0  0  0  0
  -24.1593  -13.3131   22.5092 C   0  0  0  0  0  0  0  0  0  0  0  0
  -26.2855  -13.4989   21.3771 C   0  0  0  0  0  0  0  0  0  0  0  0
  -23.7630  -35.0972   24.2719 C   0  0  0  0  0  0  0  0  0  0  0  0
  -25.2148  -32.8241   23.5854 C   0  0  0  0  0  0  0  0  0  0  0  0
  -25.9813  -29.8085   19.5899 C   0  0  0  0  0  0  0  0  0  0  0  0
  -23.7836  -12.2922   21.6361 C   0  0  0  0  0  0  0  0  0  0  0  0
  -25.9099  -12.4780   20.5040 C   0  0  0  0  0  0  0  0  0  0  0  0
  -27.2400  -29.2216   19.4673 C   0  0  0  0  0  0  0  0  0  0  0  0
  -22.4074   -9.3905   19.9329 C   0  0  0  0  0  0  0  0  0  0  0  0
  -21.8044   -8.2582   20.4804 C   0  0  0  0  0  0  0  0  0  0  0  0
  -26.3651  -27.1682   20.3824 C   0  0  0  0  0  0  0  0  0  0  0  0
  -31.2965  -22.8630   20.1065 C   0  0  0  0  0  0  0  0  0  0  0  0
  -23.7780   -7.8516   21.8133 C   0  0  0  0  0  0  0  0  0  0  0  0
  -25.4102  -13.9165   22.3796 C   0  0  0  0  0  0  0  0  0  0  0  0
  -26.4666  -14.8346   24.5124 C   0  0  0  0  0  0  0  0  0  0  0  0
  -23.1783  -33.8317   24.4367 C   0  0  0  0  0  0  0  0  0  0  0  0
  -24.9058  -29.0818   20.1207 C   0  0  0  0  0  0  0  0  0  0  0  0
  -23.9150  -32.6802   24.0996 C   0  0  0  0  0  0  0  0  0  0  0  0
  -25.0931  -27.7473   20.5083 C   0  0  0  0  0  0  0  0  0  0  0  0
  -31.4462  -22.0068   21.1974 C   0  0  0  0  0  0  0  0  0  0  0  0
  -30.0361  -23.0605   19.5426 C   0  0  0  0  0  0  0  0  0  0  0  0
  -30.3354  -21.3479   21.7244 C   0  0  0  0  0  0  0  0  0  0  0  0
  -29.0749  -21.5454   21.1605 C   0  0  0  0  0  0  0  0  0  0  0  0
  -24.6589  -11.8746   20.6336 C   0  0  0  0  0  0  0  0  0  0  0  0
  -27.4327  -27.9022   19.8663 C   0  0  0  0  0  0  0  0  0  0  0  0
  -23.6958   -9.7533   20.3255 C   0  0  0  0  0  0  0  0  0  0  0  0
  -22.4896   -7.4887   21.4206 C   0  0  0  0  0  0  0  0  0  0  0  0
  -24.3810   -8.9839   21.2657 C   0  0  0  0  0  0  0  0  0  0  0  0
  -28.9253  -22.4016   20.0696 C   0  0  0  0  0  0  0  0  0  0  0  0
  -25.7986  -14.9716   23.2808 C   0  0  0  0  0  0  0  0  0  0  0  0
  -26.6013  -16.1209   24.9748 C   0  0  0  0  0  0  0  0  0  0  0  0
  -26.9244  -13.6506   25.1789 C   0  0  0  0  0  0  0  0  0  0  0  0
  -23.0278  -29.3921   22.6664 C   0  0  0  0  0  0  0  0  0  0  0  0
  -21.4571  -26.8893   21.3279 C   0  0  0  0  0  0  0  0  0  0  0  0
  -21.5561  -24.1822   19.2521 C   0  0  0  0  0  0  0  0  0  0  0  0
  -26.8077  -21.4365   22.2534 C   0  0  0  0  0  0  0  0  0  0  0  0
  -21.7973  -33.7426   25.0364 C   0  0  0  0  0  0  0  0  0  0  0  0
  -23.5479  -29.7209   20.2215 C   0  0  0  0  0  0  0  0  0  0  0  0
  -23.9662  -26.9177   21.0654 C   0  0  0  0  0  0  0  0  0  0  0  0
  -21.1309  -32.3845   24.8319 C   0  0  0  0  0  0  0  0  0  0  0  0
  -24.4956  -20.4168   24.7616 C   0  0  0  0  0  0  0  0  0  0  0  0
  -22.1028  -31.2572   25.1659 C   0  0  0  0  0  0  0  0  0  0  0  0
  -24.6325  -18.8927   24.7829 C   0  0  0  0  0  0  0  0  0  0  0  0
  -24.6237  -20.9781   23.3466 C   0  0  0  0  0  0  0  0  0  0  0  0
  -25.9669  -19.0370   22.6414 C   0  0  0  0  0  0  0  0  0  0  0  0
  -23.3273  -31.2931   24.2435 C   0  0  1  0  0  0  0  0  0  0  0  0
  -22.6469  -29.0499   21.2537 C   0  0  1  0  0  0  0  0  0  0  0  0
  -25.9095  -18.4314   24.0534 C   0  0  2  0  0  0  0  0  0  0  0  0
  -32.8074  -21.8114   21.7814 C   0  0  0  0  0  0  0  0  0  0  0  0
  -30.5061  -20.4300   22.8947 C   0  0  0  0  0  0  0  0  0  0  0  0
  -20.1275  -22.3083   18.3892 C   0  0  0  0  0  0  0  0  0  0  0  0
  -21.7536  -25.4381   23.9955 C   0  0  0  0  0  0  0  0  0  0  0  0
  -21.1912  -23.3022   22.8167 C   0  0  0  0  0  0  0  0  0  0  0  0
  -19.5247  -25.1567   22.8969 C   0  0  0  0  0  0  0  0  0  0  0  0
  -31.2207  -25.9528   19.3801 C   0  0  0  0  0  0  0  0  0  0  0  0
  -29.8592  -26.2698   17.3176 C   0  0  0  0  0  0  0  0  0  0  0  0
  -21.8371  -25.1021   16.4532 C   0  0  0  0  0  0  0  0  0  0  0  0
  -29.9237  -23.9965   18.3619 C   0  0  0  0  0  0  0  0  0  0  0  0
  -28.6990  -25.9180   19.5268 C   0  0  0  0  0  0  0  0  0  1  0  0
  -21.5646  -25.3864   21.4211 C   0  0  1  0  0  0  0  0  0  0  0  0
  -20.6214  -23.7260   18.1465 C   0  0  2  0  0  0  0  0  0  0  0  0
  -21.0304  -24.8368   22.7739 C   0  0  0  0  0  0  0  0  0  0  0  0
  -29.9227  -25.5230   18.6693 C   0  0  0  0  0  0  0  0  0  0  0  0
  -25.5277  -16.2444   22.9799 N   0  0  0  0  0  0  0  0  0  0  0  0
  -26.0279  -16.9190   24.0291 N   0  0  0  0  0  0  0  0  0  0  0  0
  -22.6589  -27.5894   21.1501 N   0  0  0  0  0  0  0  0  0  0  0  0
  -25.8587  -20.5022   22.7195 N   0  0  0  0  0  0  0  0  0  0  0  0
  -27.1531  -16.6358   26.0941 N   0  0  0  0  0  0  0  0  0  0  0  0
  -26.7045  -12.4104   24.5640 N   0  0  0  0  0  0  0  0  0  0  0  0
  -27.9567  -20.8670   21.7056 N   0  0  0  0  0  0  0  0  0  0  0  0
  -22.9982  -30.7452   22.9451 N   0  0  0  0  0  0  0  0  0  0  0  0
  -20.8796  -24.8547   20.2478 N   0  0  0  0  0  0  0  0  0  0  0  0
  -21.3196  -23.7616   16.8303 N   0  3  0  0  0  0  0  0  0  0  0  0
  -27.4964  -13.6898   26.2946 O   0  0  0  0  0  0  0  0  0  0  0  0
  -23.3250  -28.4947   23.4462 O   0  0  0  0  0  0  0  0  0  0  0  0
  -20.3471  -27.4220   21.4027 O   0  0  0  0  0  0  0  0  0  0  0  0
  -22.7650  -23.9608   19.2361 O   0  0  0  0  0  0  0  0  0  0  0  0
  -26.6273  -22.6524   22.3589 O   0  0  0  0  0  0  0  0  0  0  0  0
  -24.2928  -10.8783   19.7816 O   0  0  0  0  0  0  0  0  0  0  0  0
  -28.6605  -27.3271   19.7483 O   0  0  0  0  0  0  0  0  0  1  0  0
  -21.9098   -6.4022   21.9474 F   0  0  0  0  0  0  0  0  0  0  0  0
  -25.6185   -9.3282   21.6478 F   0  0  0  0  0  0  0  0  0  0  0  0
  -27.3625  -22.6532   19.3608 Cl  0  0  0  0  0  0  0  0  0  0  0  0
  1  2  1  0  0  0  0
  1  5  2  0  0  0  0
  2  6  2  0  0  0  0
  3  8  2  0  0  0  0
  3 16  1  0  0  0  0
  4  9  1  0  0  0  0
  4 16  2  0  0  0  0
  5 18  1  0  0  0  0
  6 20  1  0  0  0  0
  7 10  2  0  0  0  0
  7 19  1  0  0  0  0
  8 26  1  0  0  0  0
  9 26  2  0  0  0  0
 10 27  1  0  0  0  0
 11 12  2  0  0  0  0
 11 28  1  0  0  0  0
 12 29  1  0  0  0  0
 13 21  1  0  0  0  0
 13 27  2  0  0  0  0
 14 22  2  0  0  0  0
 14 23  1  0  0  0  0
 15 29  2  0  0  0  0
 15 30  1  0  0  0  0
 16 32  1  0  0  0  0
 17 32  1  0  0  0  0
 17 33  2  0  0  0  0
 17 34  1  0  0  0  0
 18 20  2  0  0  0  0
 18 39  1  0  0  0  0
 19 21  2  0  0  0  0
 19 40  1  0  0  0  0
 20 48  1  0  0  0  0
 21 41  1  0  0  0  0
 22 24  1  0  0  0  0
 22 51  1  0  0  0  0
 23 31  2  0  0  0  0
 23 60  1  0  0  0  0
 24 25  2  0  0  0  0
 24 52  1  0  0  0  0
 25 31  1  0  0  0  0
 25 72  1  0  0  0  0
 26 81  1  0  0  0  0
 27 82  1  0  0  0  0
 28 30  2  0  0  0  0
 28 81  1  0  0  0  0
 29 83  1  0  0  0  0
 30 84  1  0  0  0  0
 31 85  1  0  0  0  0
 32 66  2  0  0  0  0
 33 67  1  0  0  0  0
 33 70  1  0  0  0  0
 34 71  1  0  0  0  0
 34 76  2  0  0  0  0
 35 49  1  0  0  0  0
 35 73  1  0  0  0  0
 35 77  2  0  0  0  0
 36 62  1  0  0  0  0
 36 68  1  0  0  0  0
 36 78  2  0  0  0  0
 37 63  1  0  0  0  0
 37 74  1  0  0  0  0
 37 79  2  0  0  0  0
 38 69  1  0  0  0  0
 38 72  1  0  0  0  0
 38 80  2  0  0  0  0
 39 42  1  0  0  0  0
 40 49  1  0  0  0  0
 41 68  1  0  0  0  0
 42 44  1  0  0  0  0
 43 45  1  0  0  0  0
 43 46  1  0  0  0  0
 44 48  1  0  0  0  0
 45 50  1  0  0  0  0
 46 69  1  0  0  0  0
 47 50  1  0  0  0  0
 47 69  1  0  0  0  0
 48 73  1  0  0  0  0
 49 68  1  0  0  0  0
 50 67  1  0  0  0  0
 53 63  1  0  0  0  0
 54 64  1  0  0  0  0
 55 64  1  0  0  0  0
 56 64  1  0  0  0  0
 57 65  1  0  0  0  0
 58 65  1  0  0  0  0
 59 75  1  0  0  0  0
 60 65  1  0  0  0  0
 61 65  1  0  0  0  0
 61 82  1  0  0  0  0
 62 64  1  0  0  0  0
 62 74  1  0  0  0  0
 63 75  1  0  0  0  0
 66 67  1  0  0  0  0
M  CHG  1  75   1
M  ISO  4  38 100  61 101  72 100  82 101
M  END
> <Batch ID>
0018

> <Smiles>
CNC(C)C(=O)NC(C(=O)N1Cc2cc([101O:1][101CH2:1]C(C)(C)Cc3cc(C)c(C)c([100NH:0][100C:0](=O)N4CCCC(n5nc(-c6ccc(Oc7ccc(F)cc7F)cc6)c(C(N)=O)c5N)C4)c3Cl)ccc2CC1C(=O)NC1CCCc2ccccc21)C(C)(C)C

> <Shape>
0.239

> <Color>
0.068

> <Negative vol penalty>
0.000

$$$$

  -OEChem-04052316043D

 87 95  0     1  0  0  0  0  0999 V2000
  -30.6003  -16.5989   19.8238 C   0  0  0  0  0  0  0  0  0  0  0  0
  -29.2949  -16.6835   20.2945 C   0  0  0  0  0  0  0  0  0  0  0  0
  -26.9194  -28.6143   22.4805 C   0  0  0  0  0  0  0  0  0  0  0  0
  -28.0438  -29.9589   20.8177 C   0  0  0  0  0  0  0  0  0  0  0  0
  -31.1269  -15.3616   19.4592 C   0  0  0  0  0  0  0  0  0  0  0  0
  -28.5196  -15.5294   20.4122 C   0  0  0  0  0  0  0  0  0  0  0  0
  -24.1311  -15.9969   22.5861 C   0  0  0  0  0  0  0  0  0  0  0  0
  -27.0112  -29.6655   23.3927 C   0  0  0  0  0  0  0  0  0  0  0  0
  -28.1355  -31.0102   21.7299 C   0  0  0  0  0  0  0  0  0  0  0  0
  -23.0520  -16.6350   21.9761 C   0  0  0  0  0  0  0  0  0  0  0  0
  -26.6277  -32.1223   26.0445 C   0  0  0  0  0  0  0  0  0  0  0  0
  -25.4937  -32.4293   26.7964 C   0  0  0  0  0  0  0  0  0  0  0  0
  -22.0625  -14.4883   21.4946 C   0  0  0  0  0  0  0  0  0  0  0  0
  -24.2687  -32.8825   24.7639 C   0  0  0  0  0  0  0  0  0  0  0  0
  -27.4358  -28.7610   21.1930 C   0  0  0  0  0  0  0  0  0  0  0  0
  -26.2958  -27.4265   19.3417 C   0  0  0  0  0  0  0  0  0  0  0  0
  -30.3528  -14.1939   19.5610 C   0  0  0  0  0  0  0  0  0  0  0  0
  -24.1894  -14.5971   22.6454 C   0  0  0  0  0  0  0  0  0  0  0  0
  -29.0411  -14.2681   20.0720 C   0  0  0  0  0  0  0  0  0  0  0  0
  -23.1422  -13.8349   22.1082 C   0  0  0  0  0  0  0  0  0  0  0  0
  -26.4521  -18.7083   17.5215 C   0  0  0  0  0  0  0  0  0  0  0  0
  -27.6192  -30.8635   23.0174 C   0  0  0  0  0  0  0  0  0  0  0  0
  -22.0189  -15.8807   21.4277 C   0  0  0  0  0  0  0  0  0  0  0  0
  -26.5823  -32.1954   24.6523 C   0  0  0  0  0  0  0  0  0  0  0  0
  -24.3142  -32.8094   26.1561 C   0  0  0  0  0  0  0  0  0  0  0  0
  -25.4028  -32.5756   24.0120 C   0  0  0  0  0  0  0  0  0  0  0  0
  -27.3418  -27.6752   20.2505 C   0  0  0  0  0  0  0  0  0  0  0  0
  -25.6704  -17.7662   18.2166 C   0  0  0  0  0  0  0  0  0  0  0  0
  -26.6805  -26.2867   18.6789 C   0  0  0  0  0  0  0  0  0  0  0  0
  -26.7880  -19.6428   18.4704 C   0  0  0  0  0  0  0  0  0  0  0  0
  -25.0847  -28.1602   19.1168 C   0  0  0  0  0  0  0  0  0  0  0  0
  -26.1703  -12.3846   21.5120 C   0  0  0  0  0  0  0  0  0  0  0  0
  -24.3147  -10.3831   23.2651 C   0  0  0  0  0  0  0  0  0  0  0  0
  -21.2983   -9.7779   24.7422 C   0  0  0  0  0  0  0  0  0  0  0  0
  -28.7472  -21.0228   19.1427 C   0  0  0  0  0  0  0  0  0  0  0  0
  -30.9754  -12.8798   19.1600 C   0  0  0  0  0  0  0  0  0  0  0  0
  -25.3473  -13.9246   23.3305 C   0  0  0  0  0  0  0  0  0  0  0  0
  -23.1473  -12.3298   22.1639 C   0  0  0  0  0  0  0  0  0  0  0  0
  -29.9430  -11.7877   18.8998 C   0  0  0  0  0  0  0  0  0  0  0  0
  -31.0882  -23.8246   18.6131 C   0  0  0  0  0  0  0  0  0  0  0  0
  -28.9560  -11.7195   20.0555 C   0  0  0  0  0  0  0  0  0  0  0  0
  -30.2474  -25.0453   18.9831 C   0  0  0  0  0  0  0  0  0  0  0  0
  -30.6560  -22.5828   19.3873 C   0  0  0  0  0  0  0  0  0  0  0  0
  -28.3634  -23.4877   19.6233 C   0  0  0  0  0  0  0  0  0  0  0  0
  -28.1689  -13.0303   20.1796 C   0  0  1  0  0  0  0  0  0  0  0  0
  -25.5532  -12.4822   22.8785 C   0  0  1  0  0  0  0  0  0  0  0  0
  -28.7464  -24.7451   18.8283 C   0  0  1  0  0  0  0  0  0  0  0  0
  -26.8260  -18.6949   16.0960 C   0  0  0  0  0  0  0  0  0  0  0  0
  -20.0688   -8.0397   26.0705 C   0  0  0  0  0  0  0  0  0  0  0  0
  -22.2900  -18.2156   15.4566 C   0  0  0  0  0  0  0  0  0  0  0  0
  -23.9319   -8.7229   20.7338 C   0  0  0  0  0  0  0  0  0  0  0  0
  -21.9949   -7.5955   21.8498 C   0  0  0  0  0  0  0  0  0  0  0  0
  -24.2849   -7.3838   22.8163 C   0  0  0  0  0  0  0  0  0  0  0  0
  -26.2725  -19.8676   20.9213 C   0  0  0  0  0  0  0  0  0  0  0  0
  -27.2838  -21.7908   17.2885 C   0  0  0  0  0  0  0  0  0  0  0  0
  -20.9428  -11.6148   27.0353 C   0  0  0  0  0  0  0  0  0  0  0  0
  -25.0267  -16.5157   17.6707 C   0  0  0  0  0  0  0  0  0  0  0  0
  -24.1086  -16.7816   16.4689 C   0  0  0  0  0  0  0  0  0  0  0  0
  -19.7607  -16.8224   18.7817 C   0  0  0  0  0  0  0  0  0  0  0  0
  -20.8247  -17.7079   18.1508 C   0  0  0  0  0  0  0  0  0  0  0  0
  -20.3172  -15.8031   19.7680 C   0  0  0  0  0  0  0  0  0  1  0  0
  -23.0588   -9.5868   23.0048 C   0  0  1  0  0  0  0  0  0  0  0  0
  -20.9381   -9.2860   26.1324 C   0  0  2  0  0  0  0  0  0  0  0  0
  -22.8907  -17.6729   16.7476 C   0  0  2  0  0  0  0  0  0  0  0  0
  -23.3182   -8.3505   22.0983 C   0  0  0  0  0  0  0  0  0  0  0  0
  -28.3177  -26.7664   20.1747 N   0  0  0  0  0  0  0  0  0  0  0  0
  -25.5188  -18.0740   19.5075 N   0  0  0  0  0  0  0  0  0  0  0  0
  -27.8864  -25.9355   19.2105 N   0  0  0  0  0  0  0  0  0  0  0  0
  -26.2099  -19.2200   19.6310 N   0  0  0  0  0  0  0  0  0  0  0  0
  -24.3043  -11.7187   22.8386 N   0  0  0  0  0  0  0  0  0  0  0  0
  -29.2174  -22.3462   19.2605 N   0  0  0  0  0  0  0  0  0  0  0  0
  -26.1015  -25.5606   17.6992 N   0  0  0  0  0  0  0  0  0  0  0  0
  -24.8464  -29.3080   19.8850 N   0  0  0  0  0  0  0  0  0  0  0  0
  -27.4002  -13.0052   21.4045 N   0  0  0  0  0  0  0  0  0  0  0  0
  -22.5030   -9.2617   24.3140 N   0  0  0  0  0  0  0  0  0  0  0  0
  -27.5763  -20.8487   18.3736 N   0  0  0  0  0  0  0  0  0  0  0  0
  -20.1953  -10.3406   26.8787 N   0  3  0  0  0  0  0  0  0  0  0  0
  -21.8369  -16.8864   17.4464 N   0  3  0  0  0  0  0  0  0  0  0  0
  -24.2312  -27.7992   18.2714 O   0  0  0  0  0  0  0  0  0  0  0  0
  -25.5753  -11.7889   20.6216 O   0  0  0  0  0  0  0  0  0  0  0  0
  -25.2671   -9.8421   23.8325 O   0  0  0  0  0  0  0  0  0  0  0  0
  -20.5807  -10.5406   24.0988 O   0  0  0  0  0  0  0  0  0  0  0  0
  -29.3437  -20.0702   19.6589 O   0  0  0  0  0  0  0  0  0  0  0  0
  -27.7087  -31.8896   23.9072 O   0  0  0  0  0  0  0  0  0  0  0  0
  -20.9647  -16.5009   20.8311 O   0  0  0  0  0  0  0  0  0  1  0  0
  -23.2249  -33.1027   26.8782 F   0  0  0  0  0  0  0  0  0  0  0  0
  -25.3527  -32.6465   22.6747 F   0  0  0  0  0  0  0  0  0  0  0  0
  1  2  1  0  0  0  0
  1  5  2  0  0  0  0
  2  6  2  0  0  0  0
  3  8  2  0  0  0  0
  3 15  1  0  0  0  0
  4  9  1  0  0  0  0
  4 15  2  0  0  0  0
  5 17  1  0  0  0  0
  6 19  1  0  0  0  0
  7 10  2  0  0  0  0
  7 18  1  0  0  0  0
  8 22  1  0  0  0  0
  9 22  2  0  0  0  0
 10 23  1  0  0  0  0
 11 12  2  0  0  0  0
 11 24  1  0  0  0  0
 12 25  1  0  0  0  0
 13 20  1  0  0  0  0
 13 23  2  0  0  0  0
 14 25  2  0  0  0  0
 14 26  1  0  0  0  0
 15 27  1  0  0  0  0
 16 27  1  0  0  0  0
 16 29  2  0  0  0  0
 16 31  1  0  0  0  0
 17 19  2  0  0  0  0
 17 36  1  0  0  0  0
 18 20  2  0  0  0  0
 18 37  1  0  0  0  0
 19 45  1  0  0  0  0
 20 38  1  0  0  0  0
 21 28  1  0  0  0  0
 21 30  2  0  0  0  0
 21 48  1  0  0  0  0
 22 84  1  0  0  0  0
 23 85  1  0  0  0  0
 24 26  2  0  0  0  0
 24 84  1  0  0  0  0
 25 86  1  0  0  0  0
 26 87  1  0  0  0  0
 27 66  2  0  0  0  0
 28 57  1  0  0  0  0
 28 67  2  0  0  0  0
 29 68  1  0  0  0  0
 29 72  1  0  0  0  0
 30 69  1  0  0  0  0
 30 76  1  0  0  0  0
 31 73  1  0  0  0  0
 31 79  2  0  0  0  0
 32 46  1  0  0  0  0
 32 74  1  0  0  0  0
 32 80  2  0  0  0  0
 33 62  1  0  0  0  0
 33 70  1  0  0  0  0
 33 81  2  0  0  0  0
 34 63  1  0  0  0  0
 34 75  1  0  0  0  0
 34 82  2  0  0  0  0
 35 71  1  0  0  0  0
 35 76  1  0  0  0  0
 35 83  2  0  0  0  0
 36 39  1  0  0  0  0
 37 46  1  0  0  0  0
 38 70  1  0  0  0  0
 39 41  1  0  0  0  0
 40 42  1  0  0  0  0
 40 43  1  0  0  0  0
 41 45  1  0  0  0  0
 42 47  1  0  0  0  0
 43 71  1  0  0  0  0
 44 47  1  0  0  0  0
 44 71  1  0  0  0  0
 45 74  1  0  0  0  0
 46 70  1  0  0  0  0
 47 68  1  0  0  0  0
 49 63  1  0  0  0  0
 50 64  1  0  0  0  0
 51 65  1  0  0  0  0
 52 65  1  0  0  0  0
 53 65  1  0  0  0  0
 54 69  1  0  0  0  0
 55 76  1  0  0  0  0
 56 77  1  0  0  0  0
 57 58  1  0  0  0  0
 58 64  1  0  0  0  0
 59 60  1  0  0  0  0
 59 61  1  0  0  0  0
 60 78  1  0  0  0  0
 61 85  1  0  0  0  0
 62 65  1  0  0  0  0
 62 75  1  0  0  0  0
 63 77  1  0  0  0  0
 64 78  1  0  0  0  0
 66 68  1  0  0  0  0
 67 69  1  0  0  0  0
M  CHG  2  77   1  78   1
M  ISO  4  35 100  61 101  76 100  85 101
M  END
> <Batch ID>
0018

> <Smiles>
CNC(C)C(=O)NC(C(=O)N1Cc2cc([101O:1][101CH2:1]CCNC(C)CCc3nn(C)c([100N:0](C)[100C:0](=O)N4CCCC(n5nc(-c6ccc(Oc7ccc(F)cc7F)cc6)c(C(N)=O)c5N)C4)c3C)ccc2CC1C(=O)NC1CCCc2ccccc21)C(C)(C)C

> <Shape>
0.262

> <Color>
0.065

> <Negative vol penalty>
0.000

$$$$

  -OEChem-04052316042D

  0  0  0     0  0  0  0  0  0999 V2000
M  END
$$$$

  -OEChem-04052316043D

 87 95  0     1  0  0  0  0  0999 V2000
  -23.8364  -21.2373   20.4714 C   0  0  0  0  0  0  0  0  0  0  0  0
  -25.2088  -21.2999   20.6909 C   0  0  0  0  0  0  0  0  0  0  0  0
  -22.7316  -10.1530   20.6564 C   0  0  0  0  0  0  0  0  0  0  0  0
  -24.4139   -9.7938   22.3529 C   0  0  0  0  0  0  0  0  0  0  0  0
  -23.1556  -22.3577   19.9972 C   0  0  0  0  0  0  0  0  0  0  0  0
  -25.9013  -22.4829   20.4352 C   0  0  0  0  0  0  0  0  0  0  0  0
  -29.1593  -23.6637   24.1279 C   0  0  0  0  0  0  0  0  0  0  0  0
  -22.0467   -9.0201   21.0957 C   0  0  0  0  0  0  0  0  0  0  0  0
  -23.7289   -8.6609   22.7922 C   0  0  0  0  0  0  0  0  0  0  0  0
  -30.3685  -22.9703   24.1559 C   0  0  0  0  0  0  0  0  0  0  0  0
  -21.0227   -7.9701   24.6947 C   0  0  0  0  0  0  0  0  0  0  0  0
  -20.8555   -7.8085   26.0700 C   0  0  0  0  0  0  0  0  0  0  0  0
  -31.4604  -24.8438   23.0988 C   0  0  0  0  0  0  0  0  0  0  0  0
  -22.0653   -5.7195   25.9717 C   0  0  0  0  0  0  0  0  0  0  0  0
  -23.9152  -10.5399   21.2849 C   0  0  0  0  0  0  0  0  0  0  0  0
  -24.1422  -13.0320   20.7897 C   0  0  0  0  0  0  0  0  0  0  0  0
  -23.8386  -23.5579   19.7447 C   0  0  0  0  0  0  0  0  0  0  0  0
  -29.0892  -24.9502   23.5743 C   0  0  0  0  0  0  0  0  0  0  0  0
  -25.2292  -23.6201   19.9558 C   0  0  0  0  0  0  0  0  0  0  0  0
  -30.2496  -25.5524   23.0673 C   0  0  0  0  0  0  0  0  0  0  0  0
  -22.5453   -8.2741   22.1636 C   0  0  0  0  0  0  0  0  0  0  0  0
  -31.5187  -23.5592   23.6387 C   0  0  0  0  0  0  0  0  0  0  0  0
  -21.7112   -7.0064   23.9579 C   0  0  0  0  0  0  0  0  0  0  0  0
  -21.3767   -6.6832   26.7086 C   0  0  0  0  0  0  0  0  0  0  0  0
  -22.2325   -5.8811   24.5964 C   0  0  0  0  0  0  0  0  0  0  0  0
  -24.6235  -11.7097   20.8313 C   0  0  0  0  0  0  0  0  0  0  0  0
  -25.1895  -13.7629   20.2841 C   0  0  0  0  0  0  0  0  0  0  0  0
  -22.8630  -13.5531   21.1740 C   0  0  0  0  0  0  0  0  0  0  0  0
  -27.5328  -26.2591   21.1313 C   0  0  0  0  0  0  0  0  0  0  0  0
  -28.7968  -29.0070   22.3035 C   0  0  0  0  0  0  0  0  0  0  0  0
  -31.9636  -30.0811   23.6580 C   0  0  0  0  0  0  0  0  0  0  0  0
  -30.7743  -14.7776   20.5963 C   0  0  0  0  0  0  0  0  0  0  0  0
  -23.0677  -24.7285   19.1878 C   0  0  0  0  0  0  0  0  0  0  0  0
  -27.7827  -25.6955   23.5758 C   0  0  0  0  0  0  0  0  0  0  0  0
  -30.2317  -26.9393   22.4804 C   0  0  0  0  0  0  0  0  0  0  0  0
  -23.8127  -26.0563   19.2979 C   0  0  0  0  0  0  0  0  0  0  0  0
  -29.5244  -12.2960   18.1507 C   0  0  0  0  0  0  0  0  0  0  0  0
  -25.2574  -25.8978   18.8347 C   0  0  0  0  0  0  0  0  0  0  0  0
  -33.2920  -17.1217   23.1242 C   0  0  0  0  0  0  0  0  0  0  0  0
  -32.5897  -18.7890   21.3596 C   0  0  0  0  0  0  0  0  0  0  0  0
  -28.1245  -11.9851   18.6775 C   0  0  0  0  0  0  0  0  0  0  0  0
  -32.0474  -16.2526   22.9096 C   0  0  0  0  0  0  0  0  0  0  0  0
  -31.7701  -17.6200   20.8011 C   0  0  0  0  0  0  0  0  0  0  0  0
  -30.4709  -12.7182   19.2704 C   0  0  0  0  0  0  0  0  0  0  0  0
  -28.5673  -13.5440   20.6151 C   0  0  0  0  0  0  0  0  0  0  0  0
  -26.0115  -24.8927   19.7138 C   0  0  1  0  0  0  0  0  0  0  0  0
  -27.7216  -26.7966   22.5217 C   0  0  1  0  0  0  0  0  0  0  0  0
  -33.0241  -18.5978   22.8229 C   0  0  0  0  0  0  0  0  0  0  0  0
  -27.5765  -13.1602   19.5058 C   0  0  2  0  0  0  0  0  0  0  0  0
  -31.0525  -16.8487   21.9051 C   0  0  0  0  0  0  0  0  0  0  0  0
  -36.7592  -19.7480   22.5265 C   0  0  0  0  0  0  0  0  0  0  0  0
  -32.5064  -31.9211   25.2757 C   0  0  0  0  0  0  0  0  0  0  0  0
  -28.2215  -15.9305   22.7984 C   0  0  0  0  0  0  0  0  0  0  0  0
  -28.4837  -17.4920   20.8449 C   0  0  0  0  0  0  0  0  0  0  0  0
  -34.5775  -19.2547   24.6362 C   0  0  0  0  0  0  0  0  0  0  0  0
  -29.2728  -30.6780   19.7953 C   0  0  0  0  0  0  0  0  0  0  0  0
  -31.2087  -31.7532   20.9635 C   0  0  0  0  0  0  0  0  0  0  0  0
  -28.9029  -32.0083   21.8805 C   0  0  0  0  0  0  0  0  0  0  0  0
  -33.3608  -28.2195   25.4860 C   0  0  0  0  0  0  0  0  0  0  0  0
  -35.4632  -18.9763   22.3097 C   0  0  0  0  0  0  0  0  0  0  0  0
  -32.6366  -21.4606   23.5904 C   0  0  0  0  0  0  0  0  0  1  0  0
  -30.0754  -29.7771   22.0779 C   0  0  1  0  0  0  0  0  0  0  0  0
  -32.2617  -30.4299   25.1051 C   0  0  2  0  0  0  0  0  0  0  0  0
  -28.7623  -16.0947   21.3836 C   0  0  0  0  0  0  0  0  0  0  0  0
  -33.8764  -20.9416   22.8708 C   0  0  1  0  0  0  0  0  0  0  0  0
  -34.2441  -19.4591   23.1427 C   0  0  1  0  0  0  0  0  0  0  0  0
  -29.8639  -31.0259   21.1761 C   0  0  0  0  0  0  0  0  0  0  0  0
  -25.8787  -11.6037   20.3872 N   0  0  0  0  0  0  0  0  0  0  0  0
  -26.1950  -12.8687   20.0618 N   0  0  0  0  0  0  0  0  0  0  0  0
  -28.9289  -27.6249   22.4990 N   0  0  0  0  0  0  0  0  0  0  0  0
  -29.9068  -13.8073   20.0683 N   0  0  0  0  0  0  0  0  0  0  0  0
  -25.3390  -15.0767   20.0123 N   0  0  0  0  0  0  0  0  0  0  0  0
  -21.9021  -12.6638   21.6741 N   0  0  0  0  0  0  0  0  0  0  0  0
  -26.3873  -25.5032   20.9710 N   0  0  0  0  0  0  0  0  0  0  0  0
  -30.6088  -30.0795   23.4017 N   0  0  0  0  0  0  0  0  0  0  0  0
  -30.1956  -15.8125   21.3465 N   0  0  0  0  0  0  0  0  0  0  0  0
  -33.4718  -29.6983   25.5755 N   0  3  0  0  0  0  0  0  0  0  0  0
  -22.5747  -14.7687   21.0613 O   0  0  0  0  0  0  0  0  0  0  0  0
  -28.3642  -26.5128   20.2674 O   0  0  0  0  0  0  0  0  0  0  0  0
  -27.7210  -29.6105   22.3133 O   0  0  0  0  0  0  0  0  0  0  0  0
  -32.8447  -29.8382   22.8363 O   0  0  0  0  0  0  0  0  0  0  0  0
  -31.9953  -14.7272   20.4000 O   0  0  0  0  0  0  0  0  0  0  0  0
  -21.8771   -7.1686   22.5927 O   0  0  0  0  0  0  0  0  0  0  0  0
  -32.7001  -22.8843   23.6642 O   0  0  0  0  0  0  0  0  0  1  0  0
  -21.2174   -6.5289   28.0295 F   0  0  0  0  0  0  0  0  0  0  0  0
  -22.8959   -4.9525   23.8940 F   0  0  0  0  0  0  0  0  0  0  0  0
  -33.6410  -21.0796   21.5278 F   0  0  0  0  0  0  0  0  0  0  0  0
  1  2  1  0  0  0  0
  1  5  2  0  0  0  0
  2  6  2  0  0  0  0
  3  8  2  0  0  0  0
  3 15  1  0  0  0  0
  4  9  1  0  0  0  0
  4 15  2  0  0  0  0
  5 17  1  0  0  0  0
  6 19  1  0  0  0  0
  7 10  2  0  0  0  0
  7 18  1  0  0  0  0
  8 21  1  0  0  0  0
  9 21  2  0  0  0  0
 10 22  1  0  0  0  0
 11 12  2  0  0  0  0
 11 23  1  0  0  0  0
 12 24  1  0  0  0  0
 13 20  1  0  0  0  0
 13 22  2  0  0  0  0
 14 24  2  0  0  0  0
 14 25  1  0  0  0  0
 15 26  1  0  0  0  0
 16 26  1  0  0  0  0
 16 27  2  0  0  0  0
 16 28  1  0  0  0  0
 17 19  2  0  0  0  0
 17 33  1  0  0  0  0
 18 20  2  0  0  0  0
 18 34  1  0  0  0  0
 19 46  1  0  0  0  0
 20 35  1  0  0  0  0
 21 83  1  0  0  0  0
 22 84  1  0  0  0  0
 23 25  2  0  0  0  0
 23 83  1  0  0  0  0
 24 85  1  0  0  0  0
 25 86  1  0  0  0  0
 26 68  2  0  0  0  0
 27 69  1  0  0  0  0
 27 72  1  0  0  0  0
 28 73  1  0  0  0  0
 28 78  2  0  0  0  0
 29 47  1  0  0  0  0
 29 74  1  0  0  0  0
 29 79  2  0  0  0  0
 30 62  1  0  0  0  0
 30 70  1  0  0  0  0
 30 80  2  0  0  0  0
 31 63  1  0  0  0  0
 31 75  1  0  0  0  0
 31 81  2  0  0  0  0
 32 71  1  0  0  0  0
 32 76  1  0  0  0  0
 32 82  2  0  0  0  0
 33 36  1  0  0  0  0
 34 47  1  0  0  0  0
 35 70  1  0  0  0  0
 36 38  1  0  0  0  0
 37 41  1  0  0  0  0
 37 44  1  0  0  0  0
 38 46  1  0  0  0  0
 39 42  1  0  0  0  0
 39 48  1  0  0  0  0
 40 43  1  0  0  0  0
 40 48  1  0  0  0  0
 41 49  1  0  0  0  0
 42 50  1  0  0  0  0
 43 50  1  0  0  0  0
 44 71  1  0  0  0  0
 45 49  1  0  0  0  0
 45 71  1  0  0  0  0
 46 74  1  0  0  0  0
 47 70  1  0  0  0  0
 48 66  1  0  0  0  0
 49 69  1  0  0  0  0
 50 76  1  0  0  0  0
 51 60  1  0  0  0  0
 52 63  1  0  0  0  0
 53 64  1  0  0  0  0
 54 64  1  0  0  0  0
 55 66  1  0  0  0  0
 56 67  1  0  0  0  0
 57 67  1  0  0  0  0
 58 67  1  0  0  0  0
 59 77  1  0  0  0  0
 60 66  1  0  0  0  0
 61 65  1  0  0  0  0
 61 84  1  0  0  0  0
 62 67  1  0  0  0  0
 62 75  1  0  0  0  0
 63 77  1  0  0  0  0
 64 76  1  0  0  0  0
 65 66  1  0  0  0  0
 65 87  1  0  0  0  0
 68 69  1  0  0  0  0
M  CHG  1  77   1
M  ISO  4  32 100  61 101  76 100  84 101
M  END
> <Batch ID>
0018

> <Smiles>
CCC(C)(C1CCC([100N:0](C(C)C)[100C:0](=O)N2CCCC(n3nc(-c4ccc(Oc5ccc(F)cc5F)cc4)c(C(N)=O)c3N)C2)CC1)C(F)[101CH2:1][101O:1]c1ccc2c(c1)CN(C(=O)C(NC(=O)C(C)NC)C(C)(C)C)C(C(=O)NC1CCCc3ccccc31)C2

> <Shape>
0.205

> <Color>
0.188

> <Negative vol penalty>
0.000

$$$$

  -OEChem-04052316043D

 86 94  0     1  0  0  0  0  0999 V2000
  -24.3228  -22.3267   16.7566 C   0  0  0  0  0  0  0  0  0  0  0  0
  -24.6501  -21.0466   16.3242 C   0  0  0  0  0  0  0  0  0  0  0  0
  -25.7594  -27.1494   19.3632 C   0  0  0  0  0  0  0  0  0  0  0  0
  -26.9117  -28.8075   20.6899 C   0  0  0  0  0  0  0  0  0  0  0  0
  -24.1894  -22.5852   18.1192 C   0  0  0  0  0  0  0  0  0  0  0  0
  -24.8324  -20.0217   17.2534 C   0  0  0  0  0  0  0  0  0  0  0  0
  -26.5796  -14.2361   16.4778 C   0  0  0  0  0  0  0  0  0  0  0  0
  -24.6520  -27.9924   19.2714 C   0  0  0  0  0  0  0  0  0  0  0  0
  -25.8042  -29.6506   20.5980 C   0  0  0  0  0  0  0  0  0  0  0  0
  -27.7708  -13.5118   16.4797 C   0  0  0  0  0  0  0  0  0  0  0  0
  -22.7677  -29.9426   22.0559 C   0  0  0  0  0  0  0  0  0  0  0  0
  -22.3394  -30.5790   23.2208 C   0  0  0  0  0  0  0  0  0  0  0  0
  -27.3868  -12.8979   18.7808 C   0  0  0  0  0  0  0  0  0  0  0  0
  -32.7530  -18.6665   20.2238 C   0  0  0  0  0  0  0  0  0  0  0  0
  -22.7146  -32.7289   22.1843 C   0  0  0  0  0  0  0  0  0  0  0  0
  -26.8893  -27.5569   20.0725 C   0  0  0  0  0  0  0  0  0  0  0  0
  -29.1317  -26.6262   19.2897 C   0  0  0  0  0  0  0  0  0  0  0  0
  -24.3826  -21.5653   19.0656 C   0  0  0  0  0  0  0  0  0  0  0  0
  -25.7871  -14.3059   17.6326 C   0  0  0  0  0  0  0  0  0  0  0  0
  -24.6786  -20.2571   18.6316 C   0  0  0  0  0  0  0  0  0  0  0  0
  -26.1846  -13.6217   18.7901 C   0  0  0  0  0  0  0  0  0  0  0  0
  -30.7765  -17.3859   18.7284 C   0  0  0  0  0  0  0  0  0  0  0  0
  -32.0708  -16.8669   18.7634 C   0  0  0  0  0  0  0  0  0  0  0  0
  -31.4588  -19.1855   20.1889 C   0  0  0  0  0  0  0  0  0  0  0  0
  -24.6743  -29.2430   19.8887 C   0  0  0  0  0  0  0  0  0  0  0  0
  -28.1761  -12.8450   17.6322 C   0  0  0  0  0  0  0  0  0  0  0  0
  -23.1697  -30.6993   20.9552 C   0  0  0  0  0  0  0  0  0  0  0  0
  -22.3128  -31.9721   23.2850 C   0  0  0  0  0  0  0  0  0  0  0  0
  -23.1430  -32.0924   21.0194 C   0  0  0  0  0  0  0  0  0  0  0  0
  -33.0590  -17.5072   19.5110 C   0  0  0  0  0  0  0  0  0  0  0  0
  -30.4705  -18.5452   19.4412 C   0  0  0  0  0  0  0  0  0  0  0  0
  -28.0334  -26.6863   20.1682 C   0  0  0  0  0  0  0  0  0  0  0  0
  -29.9384  -25.6465   19.8151 C   0  0  0  0  0  0  0  0  0  0  0  0
  -29.3990  -27.3879   18.1048 C   0  0  0  0  0  0  0  0  0  0  0  0
  -24.8099  -16.6498   19.5444 C   0  0  0  0  0  0  0  0  0  0  0  0
  -23.0770  -14.2782   20.9208 C   0  0  0  0  0  0  0  0  0  0  0  0
  -22.6981  -10.9398   21.5196 C   0  0  0  0  0  0  0  0  0  0  0  0
  -30.2121  -20.4031   21.9661 C   0  0  0  0  0  0  0  0  0  0  0  0
  -24.2181  -21.8986   20.5274 C   0  0  0  0  0  0  0  0  0  0  0  0
  -24.4914  -15.0693   17.6062 C   0  0  0  0  0  0  0  0  0  0  0  0
  -25.3595  -13.6483   20.0499 C   0  0  0  0  0  0  0  0  0  0  0  0
  -24.8615  -20.8670   21.4484 C   0  0  0  0  0  0  0  0  0  0  0  0
  -29.7782  -23.2588   24.2611 C   0  0  0  0  0  0  0  0  0  0  0  0
  -24.4281  -19.4662   21.0429 C   0  0  0  0  0  0  0  0  0  0  0  0
  -29.3124  -24.3765   23.3296 C   0  0  0  0  0  0  0  0  0  0  0  0
  -29.3507  -21.8842   23.7552 C   0  0  0  0  0  0  0  0  0  0  0  0
  -29.3148  -22.7171   21.4238 C   0  0  0  0  0  0  0  0  0  0  0  0
  -24.9116  -19.1337   19.6257 C   0  0  1  0  0  0  0  0  0  0  0  0
  -24.0209  -15.4960   18.9932 C   0  0  1  0  0  0  0  0  0  0  0  0
  -29.7672  -24.1112   21.8840 C   0  0  1  0  0  0  0  0  0  0  0  0
  -29.7283  -16.6845   17.9200 C   0  0  0  0  0  0  0  0  0  0  0  0
  -21.2068   -9.3084   22.7078 C   0  0  0  0  0  0  0  0  0  0  0  0
  -24.3190  -15.0886   23.5873 C   0  0  0  0  0  0  0  0  0  0  0  0
  -23.5629  -12.8947   24.5270 C   0  0  0  0  0  0  0  0  0  0  0  0
  -21.8816  -14.5395   23.6959 C   0  0  0  0  0  0  0  0  0  0  0  0
  -32.0873  -21.5306   20.7905 C   0  0  0  0  0  0  0  0  0  0  0  0
  -21.9974   -9.5637   18.9948 C   0  0  0  0  0  0  0  0  0  0  0  0
  -32.3887  -15.6203   17.9913 C   0  0  0  0  0  0  0  0  0  0  0  0
  -31.5283  -11.9385   18.5958 C   0  0  0  0  0  0  0  0  0  0  0  0
  -32.0955  -13.1433   17.8602 C   0  0  0  0  0  0  0  0  0  0  0  0
  -30.0346  -12.0404   18.8790 C   0  0  0  0  0  0  0  0  0  1  0  0
  -23.3166  -13.2866   22.0336 C   0  0  1  0  0  0  0  0  0  0  0  0
  -21.4930  -10.0249   21.3972 C   0  0  2  0  0  0  0  0  0  0  0  0
  -23.2868  -13.9533   23.4380 C   0  0  0  0  0  0  0  0  0  0  0  0
  -28.1302  -25.8141   21.1752 N   0  0  0  0  0  0  0  0  0  0  0  0
  -29.2989  -25.1967   20.9326 N   0  0  0  0  0  0  0  0  0  0  0  0
  -24.1040  -14.4137   19.9760 N   0  0  0  0  0  0  0  0  0  0  0  0
  -29.7555  -21.6756   22.3645 N   0  0  0  0  0  0  0  0  0  0  0  0
  -31.1252  -25.1346   19.4255 N   0  0  0  0  0  0  0  0  0  0  0  0
  -28.4650  -28.3542   17.7069 N   0  0  0  0  0  0  0  0  0  0  0  0
  -24.3076  -17.8903   19.2004 N   0  0  0  0  0  0  0  0  0  0  0  0
  -22.3310  -12.2260   21.8546 N   0  0  0  0  0  0  0  0  0  0  0  0
  -31.1810  -20.3873   20.9395 N   0  0  0  0  0  0  0  0  0  0  0  0
  -21.7265   -8.9989   20.3419 N   0  3  0  0  0  0  0  0  0  0  0  0
  -31.8536  -14.3861   18.6300 N   0  3  0  0  0  0  0  0  0  0  0  0
  -30.4274  -27.2053   17.4101 O   0  0  0  0  0  0  0  0  0  0  0  0
  -25.8003  -16.4308   20.2321 O   0  0  0  0  0  0  0  0  0  0  0  0
  -22.0145  -14.9041   20.8869 O   0  0  0  0  0  0  0  0  0  0  0  0
  -23.8502  -10.5514   21.3398 O   0  0  0  0  0  0  0  0  0  0  0  0
  -29.8078  -19.3664   22.5059 O   0  0  0  0  0  0  0  0  0  0  0  0
  -23.5940  -30.0659   19.7991 O   0  0  0  0  0  0  0  0  0  0  0  0
  -29.3388  -12.1378   17.6370 O   0  0  0  0  0  0  0  0  0  1  0  0
  -21.8999  -32.5831   24.4032 F   0  0  0  0  0  0  0  0  0  0  0  0
  -23.5268  -32.8247   19.9647 F   0  0  0  0  0  0  0  0  0  0  0  0
  -34.6742  -16.9004   19.5762 Cl  0  0  0  0  0  0  0  0  0  0  0  0
  -28.8607  -19.1894   19.3962 Cl  0  0  0  0  0  0  0  0  0  0  0  0
  1  2  1  0  0  0  0
  1  5  2  0  0  0  0
  2  6  2  0  0  0  0
  3  8  2  0  0  0  0
  3 16  1  0  0  0  0
  4  9  1  0  0  0  0
  4 16  2  0  0  0  0
  5 18  1  0  0  0  0
  6 20  1  0  0  0  0
  7 10  2  0  0  0  0
  7 19  1  0  0  0  0
  8 25  1  0  0  0  0
  9 25  2  0  0  0  0
 10 26  1  0  0  0  0
 11 12  2  0  0  0  0
 11 27  1  0  0  0  0
 12 28  1  0  0  0  0
 13 21  1  0  0  0  0
 13 26  2  0  0  0  0
 14 24  1  0  0  0  0
 14 30  2  0  0  0  0
 15 28  2  0  0  0  0
 15 29  1  0  0  0  0
 16 32  1  0  0  0  0
 17 32  1  0  0  0  0
 17 33  2  0  0  0  0
 17 34  1  0  0  0  0
 18 20  2  0  0  0  0
 18 39  1  0  0  0  0
 19 21  2  0  0  0  0
 19 40  1  0  0  0  0
 20 48  1  0  0  0  0
 21 41  1  0  0  0  0
 22 23  2  0  0  0  0
 22 31  1  0  0  0  0
 22 51  1  0  0  0  0
 23 30  1  0  0  0  0
 23 58  1  0  0  0  0
 24 31  2  0  0  0  0
 24 73  1  0  0  0  0
 25 81  1  0  0  0  0
 26 82  1  0  0  0  0
 27 29  2  0  0  0  0
 27 81  1  0  0  0  0
 28 83  1  0  0  0  0
 29 84  1  0  0  0  0
 30 85  1  0  0  0  0
 31 86  1  0  0  0  0
 32 65  2  0  0  0  0
 33 66  1  0  0  0  0
 33 69  1  0  0  0  0
 34 70  1  0  0  0  0
 34 76  2  0  0  0  0
 35 49  1  0  0  0  0
 35 71  1  0  0  0  0
 35 77  2  0  0  0  0
 36 62  1  0  0  0  0
 36 67  1  0  0  0  0
 36 78  2  0  0  0  0
 37 63  1  0  0  0  0
 37 72  1  0  0  0  0
 37 79  2  0  0  0  0
 38 68  1  0  0  0  0
 38 73  1  0  0  0  0
 38 80  2  0  0  0  0
 39 42  1  0  0  0  0
 40 49  1  0  0  0  0
 41 67  1  0  0  0  0
 42 44  1  0  0  0  0
 43 45  1  0  0  0  0
 43 46  1  0  0  0  0
 44 48  1  0  0  0  0
 45 50  1  0  0  0  0
 46 68  1  0  0  0  0
 47 50  1  0  0  0  0
 47 68  1  0  0  0  0
 48 71  1  0  0  0  0
 49 67  1  0  0  0  0
 50 66  1  0  0  0  0
 52 63  1  0  0  0  0
 53 64  1  0  0  0  0
 54 64  1  0  0  0  0
 55 64  1  0  0  0  0
 56 73  1  0  0  0  0
 57 74  1  0  0  0  0
 58 75  1  0  0  0  0
 59 60  1  0  0  0  0
 59 61  1  0  0  0  0
 60 75  1  0  0  0  0
 61 82  1  0  0  0  0
 62 64  1  0  0  0  0
 62 72  1  0  0  0  0
 63 74  1  0  0  0  0
 65 66  1  0  0  0  0
M  CHG  2  74   1  75   1
M  ISO  4  38 100  61 101  73 100  82 101
M  END
> <Batch ID>
0018

> <Smiles>
CNC(C)C(=O)NC(C(=O)N1Cc2cc([101O:1][101CH2:1]CCNCc3c(Cl)cc([100N:0](C)[100C:0](=O)N4CCCC(n5nc(-c6ccc(Oc7ccc(F)cc7F)cc6)c(C(N)=O)c5N)C4)c(Cl)c3C)ccc2CC1C(=O)NC1CCCc2ccccc21)C(C)(C)C

> <Shape>
0.222

> <Color>
0.066

> <Negative vol penalty>
0.000

$$$$

  -OEChem-04052316043D

 85 93  0     1  0  0  0  0  0999 V2000
  -30.8601  -23.4063   24.0814 C   0  0  0  0  0  0  0  0  0  0  0  0
  -29.5078  -23.3822   23.7557 C   0  0  0  0  0  0  0  0  0  0  0  0
  -29.7913  -27.7251   19.0518 C   0  0  0  0  0  0  0  0  0  0  0  0
  -29.2149  -26.2924   20.9098 C   0  0  0  0  0  0  0  0  0  0  0  0
  -31.7450  -22.5370   23.4447 C   0  0  0  0  0  0  0  0  0  0  0  0
  -29.0398  -22.4894   22.7921 C   0  0  0  0  0  0  0  0  0  0  0  0
  -24.7782  -20.1531   24.2155 C   0  0  0  0  0  0  0  0  0  0  0  0
  -31.1247  -27.3306   19.1612 C   0  0  0  0  0  0  0  0  0  0  0  0
  -30.5483  -25.8978   21.0192 C   0  0  0  0  0  0  0  0  0  0  0  0
  -23.5907  -20.8762   24.1121 C   0  0  0  0  0  0  0  0  0  0  0  0
  -34.6179  -26.4260   18.7201 C   0  0  0  0  0  0  0  0  0  0  0  0
  -35.2973  -26.1036   17.5453 C   0  0  0  0  0  0  0  0  0  0  0  0
  -23.0856  -19.7395   22.0452 C   0  0  0  0  0  0  0  0  0  0  0  0
  -18.5588  -25.2477   21.2860 C   0  0  0  0  0  0  0  0  0  0  0  0
  -33.6970  -24.3487   17.1015 C   0  0  0  0  0  0  0  0  0  0  0  0
  -28.8364  -27.2060   19.9261 C   0  0  0  0  0  0  0  0  0  0  0  0
  -26.4540  -27.0084   19.0357 C   0  0  0  0  0  0  0  0  0  0  0  0
  -31.2860  -21.6265   22.4799 C   0  0  0  0  0  0  0  0  0  0  0  0
  -25.1343  -19.2242   23.2273 C   0  0  0  0  0  0  0  0  0  0  0  0
  -29.9195  -21.6081   22.1410 C   0  0  0  0  0  0  0  0  0  0  0  0
  -24.2770  -19.0041   22.1397 C   0  0  0  0  0  0  0  0  0  0  0  0
  -18.2987  -26.3849   20.5214 C   0  0  0  0  0  0  0  0  0  0  0  0
  -18.7286  -27.6360   20.9636 C   0  0  0  0  0  0  0  0  0  0  0  0
  -19.4184  -27.7499   22.1706 C   0  0  0  0  0  0  0  0  0  0  0  0
  -19.6785  -26.6127   22.9353 C   0  0  0  0  0  0  0  0  0  0  0  0
  -19.2487  -25.3616   22.4931 C   0  0  0  0  0  0  0  0  0  0  0  0
  -31.5032  -26.4169   20.1449 C   0  0  0  0  0  0  0  0  0  0  0  0
  -22.7456  -20.6715   23.0254 C   0  0  0  0  0  0  0  0  0  0  0  0
  -33.4781  -25.7097   19.0856 C   0  0  0  0  0  0  0  0  0  0  0  0
  -34.8369  -25.0650   16.7360 C   0  0  0  0  0  0  0  0  0  0  0  0
  -33.0177  -24.6711   18.2763 C   0  0  0  0  0  0  0  0  0  0  0  0
  -27.4589  -27.6136   19.8139 C   0  0  0  0  0  0  0  0  0  0  0  0
  -25.3331  -27.7658   19.2731 C   0  0  0  0  0  0  0  0  0  0  0  0
  -26.5272  -25.8639   18.1753 C   0  0  0  0  0  0  0  0  0  0  0  0
  -27.5482  -18.9430   21.1784 C   0  0  0  0  0  0  0  0  0  0  0  0
  -26.1548  -16.0860   20.5313 C   0  0  0  0  0  0  0  0  0  0  0  0
  -23.3303  -14.1706   20.5463 C   0  0  0  0  0  0  0  0  0  0  0  0
  -21.9395  -30.4687   22.7835 C   0  0  0  0  0  0  0  0  0  0  0  0
  -32.2878  -20.7391   21.7845 C   0  0  0  0  0  0  0  0  0  0  0  0
  -26.4058  -18.4329   23.3672 C   0  0  0  0  0  0  0  0  0  0  0  0
  -24.6036  -18.0036   21.0623 C   0  0  0  0  0  0  0  0  0  0  0  0
  -31.6514  -19.5651   21.0449 C   0  0  0  0  0  0  0  0  0  0  0  0
  -24.8047  -32.2233   21.6051 C   0  0  0  0  0  0  0  0  0  0  0  0
  -30.4580  -20.0372   20.2205 C   0  0  0  0  0  0  0  0  0  0  0  0
  -25.6699  -31.1299   20.9759 C   0  0  0  0  0  0  0  0  0  0  0  0
  -24.0762  -31.7202   22.8494 C   0  0  0  0  0  0  0  0  0  0  0  0
  -24.1467  -29.4008   22.0193 C   0  0  0  0  0  0  0  0  0  0  0  0
  -29.3696  -20.6370   21.1189 C   0  0  1  0  0  0  0  0  0  0  0  0
  -26.9176  -17.8847   22.0387 C   0  0  1  0  0  0  0  0  0  0  0  0
  -24.8575  -29.8444   20.7292 C   0  0  2  0  0  0  0  0  0  0  0  0
  -17.5592  -26.2355   19.2322 C   0  0  0  0  0  0  0  0  0  0  0  0
  -18.4470  -28.8543   20.1422 C   0  0  0  0  0  0  0  0  0  0  0  0
  -20.4216  -26.7357   24.2287 C   0  0  0  0  0  0  0  0  0  0  0  0
  -22.4943  -11.8886   19.9211 C   0  0  0  0  0  0  0  0  0  0  0  0
  -26.1486  -16.8968   17.5898 C   0  0  0  0  0  0  0  0  0  0  0  0
  -24.4920  -15.0691   17.1615 C   0  0  0  0  0  0  0  0  0  0  0  0
  -26.7694  -14.5115   18.0131 C   0  0  0  0  0  0  0  0  0  0  0  0
  -22.5787  -13.5531   23.3414 C   0  0  0  0  0  0  0  0  0  0  0  0
  -19.8789  -29.0924   22.6448 C   0  0  0  0  0  0  0  0  0  0  0  0
  -19.4542  -21.8717   23.9059 C   0  0  0  0  0  0  0  0  0  0  0  0
  -19.0820  -22.8965   22.8412 C   0  0  0  0  0  0  0  0  0  0  0  0
  -20.9573  -21.7751   24.1390 C   0  0  0  0  0  0  0  0  0  1  0  0
  -25.0996  -15.6058   19.5643 C   0  0  1  0  0  0  0  0  0  0  0  0
  -23.0767  -12.7536   21.0280 C   0  0  2  0  0  0  0  0  0  0  0  0
  -25.6219  -15.5411   18.1013 C   0  0  0  0  0  0  0  0  0  0  0  0
  -27.0156  -28.6739   20.4946 N   0  0  0  0  0  0  0  0  0  0  0  0
  -25.7198  -28.7409   20.1448 N   0  0  0  0  0  0  0  0  0  0  0  0
  -25.8612  -17.2592   21.2407 N   0  0  0  0  0  0  0  0  0  0  0  0
  -23.3238  -30.5001   22.5475 N   0  0  0  0  0  0  0  0  0  0  0  0
  -24.0642  -27.6862   18.8190 N   0  0  0  0  0  0  0  0  0  0  0  0
  -27.7562  -25.2028   18.0459 N   0  0  0  0  0  0  0  0  0  0  0  0
  -19.4975  -24.2199   23.2388 N   0  0  0  0  0  0  0  0  0  0  0  0
  -28.6174  -19.5868   21.7714 N   0  0  0  0  0  0  0  0  0  0  0  0
  -24.6197  -14.3300   20.0844 N   0  0  0  0  0  0  0  0  0  0  0  0
  -21.3017  -29.2762   22.4640 N   0  0  0  0  0  0  0  0  0  0  0  0
  -22.1218  -12.7585   22.1722 N   0  3  0  0  0  0  0  0  0  0  0  0
  -25.5361  -25.4498   17.5273 O   0  0  0  0  0  0  0  0  0  0  0  0
  -27.0988  -19.1584   20.0589 O   0  0  0  0  0  0  0  0  0  0  0  0
  -27.1980  -15.4400   20.6579 O   0  0  0  0  0  0  0  0  0  0  0  0
  -22.4694  -15.0474   20.5732 O   0  0  0  0  0  0  0  0  0  0  0  0
  -21.3170  -31.4337   23.2399 O   0  0  0  0  0  0  0  0  0  0  0  0
  -32.8042  -26.0315   20.2518 O   0  0  0  0  0  0  0  0  0  0  0  0
  -21.5861  -21.3764   22.9217 O   0  0  0  0  0  0  0  0  0  1  0  0
  -35.4885  -24.7565   15.6071 F   0  0  0  0  0  0  0  0  0  0  0  0
  -31.9226  -23.9803   18.6216 F   0  0  0  0  0  0  0  0  0  0  0  0
  1  2  1  0  0  0  0
  1  5  2  0  0  0  0
  2  6  2  0  0  0  0
  3  8  2  0  0  0  0
  3 16  1  0  0  0  0
  4  9  1  0  0  0  0
  4 16  2  0  0  0  0
  5 18  1  0  0  0  0
  6 20  1  0  0  0  0
  7 10  2  0  0  0  0
  7 19  1  0  0  0  0
  8 27  1  0  0  0  0
  9 27  2  0  0  0  0
 10 28  1  0  0  0  0
 11 12  2  0  0  0  0
 11 29  1  0  0  0  0
 12 30  1  0  0  0  0
 13 21  1  0  0  0  0
 13 28  2  0  0  0  0
 14 22  2  0  0  0  0
 14 26  1  0  0  0  0
 15 30  2  0  0  0  0
 15 31  1  0  0  0  0
 16 32  1  0  0  0  0
 17 32  1  0  0  0  0
 17 33  2  0  0  0  0
 17 34  1  0  0  0  0
 18 20  2  0  0  0  0
 18 39  1  0  0  0  0
 19 21  2  0  0  0  0
 19 40  1  0  0  0  0
 20 48  1  0  0  0  0
 21 41  1  0  0  0  0
 22 23  1  0  0  0  0
 22 51  1  0  0  0  0
 23 24  2  0  0  0  0
 23 52  1  0  0  0  0
 24 25  1  0  0  0  0
 24 59  1  0  0  0  0
 25 26  2  0  0  0  0
 25 53  1  0  0  0  0
 26 72  1  0  0  0  0
 27 82  1  0  0  0  0
 28 83  1  0  0  0  0
 29 31  2  0  0  0  0
 29 82  1  0  0  0  0
 30 84  1  0  0  0  0
 31 85  1  0  0  0  0
 32 66  2  0  0  0  0
 33 67  1  0  0  0  0
 33 70  1  0  0  0  0
 34 71  1  0  0  0  0
 34 77  2  0  0  0  0
 35 49  1  0  0  0  0
 35 73  1  0  0  0  0
 35 78  2  0  0  0  0
 36 63  1  0  0  0  0
 36 68  1  0  0  0  0
 36 79  2  0  0  0  0
 37 64  1  0  0  0  0
 37 74  1  0  0  0  0
 37 80  2  0  0  0  0
 38 69  1  0  0  0  0
 38 75  1  0  0  0  0
 38 81  2  0  0  0  0
 39 42  1  0  0  0  0
 40 49  1  0  0  0  0
 41 68  1  0  0  0  0
 42 44  1  0  0  0  0
 43 45  1  0  0  0  0
 43 46  1  0  0  0  0
 44 48  1  0  0  0  0
 45 50  1  0  0  0  0
 46 69  1  0  0  0  0
 47 50  1  0  0  0  0
 47 69  1  0  0  0  0
 48 73  1  0  0  0  0
 49 68  1  0  0  0  0
 50 67  1  0  0  0  0
 54 64  1  0  0  0  0
 55 65  1  0  0  0  0
 56 65  1  0  0  0  0
 57 65  1  0  0  0  0
 58 76  1  0  0  0  0
 59 75  1  0  0  0  0
 60 61  1  0  0  0  0
 60 62  1  0  0  0  0
 61 72  1  0  0  0  0
 62 83  1  0  0  0  0
 63 65  1  0  0  0  0
 63 74  1  0  0  0  0
 64 76  1  0  0  0  0
 66 67  1  0  0  0  0
M  CHG  1  76   1
M  ISO  4  38 100  62 101  75 100  83 101
M  END
> <Batch ID>
0018

> <Smiles>
CNC(C)C(=O)NC(C(=O)N1Cc2cc([101O:1][101CH2:1]CCNc3cc(C)c(C)c(C[100NH:0][100C:0](=O)N4CCCC(n5nc(-c6ccc(Oc7ccc(F)cc7F)cc6)c(C(N)=O)c5N)C4)c3C)ccc2CC1C(=O)NC1CCCc2ccccc21)C(C)(C)C

> <Shape>
0.216

> <Color>
0.082

> <Negative vol penalty>
0.000

$$$$

  -OEChem-04052316043D

 81 89  0     1  0  0  0  0  0999 V2000
  -17.0292  -25.5100   24.1815 C   0  0  0  0  0  0  0  0  0  0  0  0
  -18.3310  -25.1410   24.5051 C   0  0  0  0  0  0  0  0  0  0  0  0
  -27.0948  -12.9941   18.6879 C   0  0  0  0  0  0  0  0  0  0  0  0
  -27.2563  -12.6152   21.0686 C   0  0  0  0  0  0  0  0  0  0  0  0
  -16.8022  -26.6194   23.3682 C   0  0  0  0  0  0  0  0  0  0  0  0
  -19.4065  -25.8805   24.0146 C   0  0  0  0  0  0  0  0  0  0  0  0
  -22.9030  -26.8090   27.5582 C   0  0  0  0  0  0  0  0  0  0  0  0
  -26.3278  -11.8367   18.5557 C   0  0  0  0  0  0  0  0  0  0  0  0
  -26.4891  -11.4578   20.9363 C   0  0  0  0  0  0  0  0  0  0  0  0
  -23.7743  -25.7695   27.8808 C   0  0  0  0  0  0  0  0  0  0  0  0
  -23.2241  -10.6628   20.5789 C   0  0  0  0  0  0  0  0  0  0  0  0
  -22.1987  -10.4577   21.5020 C   0  0  0  0  0  0  0  0  0  0  0  0
  -25.4672  -26.7609   26.4772 C   0  0  0  0  0  0  0  0  0  0  0  0
  -23.2424   -8.3946   22.2029 C   0  0  0  0  0  0  0  0  0  0  0  0
  -27.5591  -13.3834   19.9444 C   0  0  0  0  0  0  0  0  0  0  0  0
  -29.5914  -14.8512   19.4721 C   0  0  0  0  0  0  0  0  0  0  0  0
  -17.8751  -27.3787   22.8753 C   0  0  0  0  0  0  0  0  0  0  0  0
  -23.3043  -27.8282   26.6826 C   0  0  0  0  0  0  0  0  0  0  0  0
  -19.1937  -27.0003   23.1927 C   0  0  0  0  0  0  0  0  0  0  0  0
  -24.6001  -27.8135   26.1471 C   0  0  0  0  0  0  0  0  0  0  0  0
  -26.0249  -11.0685   19.6799 C   0  0  0  0  0  0  0  0  0  0  0  0
  -25.0556  -25.7437   27.3380 C   0  0  0  0  0  0  0  0  0  0  0  0
  -24.2586   -9.7337   20.4677 C   0  0  0  0  0  0  0  0  0  0  0  0
  -22.2079   -9.3236   22.3141 C   0  0  0  0  0  0  0  0  0  0  0  0
  -24.2677   -8.5996   21.2797 C   0  0  0  0  0  0  0  0  0  0  0  0
  -28.3520  -14.5786   20.0815 C   0  0  0  0  0  0  0  0  0  0  0  0
  -29.9248  -16.1067   19.9183 C   0  0  0  0  0  0  0  0  0  0  0  0
  -30.3716  -14.0419   18.5821 C   0  0  0  0  0  0  0  0  0  0  0  0
  -22.3143  -28.8677   23.8466 C   0  0  0  0  0  0  0  0  0  0  0  0
  -24.5074  -31.1996   24.3709 C   0  0  0  0  0  0  0  0  0  0  0  0
  -27.8594  -31.4139   25.6884 C   0  0  0  0  0  0  0  0  0  0  0  0
  -26.1990  -20.4156   22.0325 C   0  0  0  0  0  0  0  0  0  0  0  0
  -17.5819  -28.5417   21.9609 C   0  0  0  0  0  0  0  0  0  0  0  0
  -22.3617  -28.9567   26.3657 C   0  0  0  0  0  0  0  0  0  0  0  0
  -25.0864  -28.8947   25.2181 C   0  0  0  0  0  0  0  0  0  0  0  0
  -18.7626  -29.4938   21.7887 C   0  0  0  0  0  0  0  0  0  0  0  0
  -29.3081  -19.0655   23.6145 C   0  0  0  0  0  0  0  0  0  0  0  0
  -20.0446  -28.7116   21.5215 C   0  0  0  0  0  0  0  0  0  0  0  0
  -28.2257  -22.4100   25.7740 C   0  0  0  0  0  0  0  0  0  0  0  0
  -25.9363  -22.0049   26.7651 C   0  0  0  0  0  0  0  0  0  0  0  0
  -29.4670  -17.7442   22.8638 C   0  0  0  0  0  0  0  0  0  0  0  0
  -27.6393  -22.2945   24.3667 C   0  0  0  0  0  0  0  0  0  0  0  0
  -25.3460  -21.8878   25.3594 C   0  0  0  0  0  0  0  0  0  0  0  0
  -27.8434  -19.4764   23.7043 C   0  0  0  0  0  0  0  0  0  0  0  0
  -27.3136  -18.2508   21.6225 C   0  0  0  0  0  0  0  0  0  0  0  0
  -20.3856  -27.7921   22.7003 C   0  0  1  0  0  0  0  0  0  0  0  0
  -22.6991  -29.6678   25.0588 C   0  0  1  0  0  0  0  0  0  0  0  0
  -27.2002  -22.8751   26.8179 C   0  0  0  0  0  0  0  0  0  0  0  0
  -28.7797  -17.8063   21.4892 C   0  0  2  0  0  0  0  0  0  0  0  0
  -26.3919  -21.4084   24.3513 C   0  0  0  0  0  0  0  0  0  0  0  0
  -22.6823  -23.4195   22.2654 C   0  0  0  0  0  0  0  0  0  0  0  0
  -29.0528  -33.3149   26.8107 C   0  0  0  0  0  0  0  0  0  0  0  0
  -25.5405  -31.8243   21.5687 C   0  0  0  0  0  0  0  0  0  0  0  0
  -27.7459  -32.4238   22.5910 C   0  0  0  0  0  0  0  0  0  0  0  0
  -25.7021  -33.7236   23.1877 C   0  0  0  0  0  0  0  0  0  0  0  0
  -28.4934  -29.7662   28.0637 C   0  0  0  0  0  0  0  0  0  0  0  0
  -26.8699  -24.3622   26.6630 C   0  0  0  0  0  0  0  0  0  1  0  0
  -23.5239  -22.2274   22.6994 C   0  0  0  0  0  0  0  0  0  0  0  0
  -25.0207  -22.5014   22.6159 C   0  0  0  0  0  0  0  0  0  0  0  0
  -25.9773  -31.3714   24.0728 C   0  0  1  0  0  0  0  0  0  0  0  0
  -28.2773  -32.0227   27.0147 C   0  0  2  0  0  0  0  0  0  0  0  0
  -26.2300  -32.3101   22.8593 C   0  0  0  0  0  0  0  0  0  0  0  0
  -27.9269  -15.5803   20.8560 N   0  0  0  0  0  0  0  0  0  0  0  0
  -28.9047  -16.4945   20.7363 N   0  0  0  0  0  0  0  0  0  0  0  0
  -24.1257  -29.9734   24.9335 N   0  0  0  0  0  0  0  0  0  0  0  0
  -27.2041  -19.4986   22.3819 N   0  0  0  0  0  0  0  0  0  0  0  0
  -30.9881  -16.9056   19.6869 N   0  0  0  0  0  0  0  0  0  0  0  0
  -29.8819  -12.7779   18.2259 N   0  0  0  0  0  0  0  0  0  0  0  0
  -20.9700  -28.5540   23.7830 N   0  0  0  0  0  0  0  0  0  0  0  0
  -26.5960  -31.8211   25.3151 N   0  0  0  0  0  0  0  0  0  0  0  0
  -25.8179  -21.3482   23.0090 N   0  0  0  0  0  0  0  0  0  0  0  0
  -29.1393  -31.0719   27.7724 N   0  3  0  0  0  0  0  0  0  0  0  0
  -31.4782  -14.4214   18.1294 O   0  0  0  0  0  0  0  0  0  0  0  0
  -23.1731  -28.5592   23.0287 O   0  0  0  0  0  0  0  0  0  0  0  0
  -23.7277  -32.1221   24.1208 O   0  0  0  0  0  0  0  0  0  0  0  0
  -28.5829  -30.6562   25.0458 O   0  0  0  0  0  0  0  0  0  0  0  0
  -25.6801  -20.4080   20.9089 O   0  0  0  0  0  0  0  0  0  0  0  0
  -25.2762   -9.9391   19.5513 O   0  0  0  0  0  0  0  0  0  0  0  0
  -25.9078  -24.7299   27.6507 O   0  0  0  0  0  0  0  0  0  1  0  0
  -21.2240   -9.1276   23.2016 F   0  0  0  0  0  0  0  0  0  0  0  0
  -25.2595   -7.7041   21.1783 F   0  0  0  0  0  0  0  0  0  0  0  0
  1  2  1  0  0  0  0
  1  5  2  0  0  0  0
  2  6  2  0  0  0  0
  3  8  2  0  0  0  0
  3 15  1  0  0  0  0
  4  9  1  0  0  0  0
  4 15  2  0  0  0  0
  5 17  1  0  0  0  0
  6 19  1  0  0  0  0
  7 10  2  0  0  0  0
  7 18  1  0  0  0  0
  8 21  1  0  0  0  0
  9 21  2  0  0  0  0
 10 22  1  0  0  0  0
 11 12  2  0  0  0  0
 11 23  1  0  0  0  0
 12 24  1  0  0  0  0
 13 20  1  0  0  0  0
 13 22  2  0  0  0  0
 14 24  2  0  0  0  0
 14 25  1  0  0  0  0
 15 26  1  0  0  0  0
 16 26  1  0  0  0  0
 16 27  2  0  0  0  0
 16 28  1  0  0  0  0
 17 19  2  0  0  0  0
 17 33  1  0  0  0  0
 18 20  2  0  0  0  0
 18 34  1  0  0  0  0
 19 46  1  0  0  0  0
 20 35  1  0  0  0  0
 21 78  1  0  0  0  0
 22 79  1  0  0  0  0
 23 25  2  0  0  0  0
 23 78  1  0  0  0  0
 24 80  1  0  0  0  0
 25 81  1  0  0  0  0
 26 63  2  0  0  0  0
 27 64  1  0  0  0  0
 27 67  1  0  0  0  0
 28 68  1  0  0  0  0
 28 73  2  0  0  0  0
 29 47  1  0  0  0  0
 29 69  1  0  0  0  0
 29 74  2  0  0  0  0
 30 60  1  0  0  0  0
 30 65  1  0  0  0  0
 30 75  2  0  0  0  0
 31 61  1  0  0  0  0
 31 70  1  0  0  0  0
 31 76  2  0  0  0  0
 32 66  1  0  0  0  0
 32 71  1  0  0  0  0
 32 77  2  0  0  0  0
 33 36  1  0  0  0  0
 34 47  1  0  0  0  0
 35 65  1  0  0  0  0
 36 38  1  0  0  0  0
 37 41  1  0  0  0  0
 37 44  1  0  0  0  0
 38 46  1  0  0  0  0
 39 42  1  0  0  0  0
 39 48  1  0  0  0  0
 40 43  1  0  0  0  0
 40 48  1  0  0  0  0
 41 49  1  0  0  0  0
 42 50  1  0  0  0  0
 43 50  1  0  0  0  0
 44 66  1  0  0  0  0
 45 49  1  0  0  0  0
 45 66  1  0  0  0  0
 46 69  1  0  0  0  0
 47 65  1  0  0  0  0
 48 57  1  0  0  0  0
 49 64  1  0  0  0  0
 50 71  1  0  0  0  0
 51 58  1  0  0  0  0
 52 61  1  0  0  0  0
 53 62  1  0  0  0  0
 54 62  1  0  0  0  0
 55 62  1  0  0  0  0
 56 72  1  0  0  0  0
 57 79  1  0  0  0  0
 58 59  1  0  0  0  0
 59 71  1  0  0  0  0
 60 62  1  0  0  0  0
 60 70  1  0  0  0  0
 61 72  1  0  0  0  0
 63 64  1  0  0  0  0
M  CHG  1  72   1
M  ISO  4  32 100  57 101  71 100  79 101
M  END
> <Batch ID>
0018

> <Smiles>
CCC[100N:0](C1CCC([101CH2:1][101O:1]c2ccc3c(c2)CN(C(=O)C(NC(=O)C(C)NC)C(C)(C)C)C(C(=O)NC2CCCc4ccccc42)C3)CC1)[100C:0](=O)N1CCCC(n2nc(-c3ccc(Oc4ccc(F)cc4F)cc3)c(C(N)=O)c2N)C1

> <Shape>
0.214

> <Color>
0.073

> <Negative vol penalty>
0.000

$$$$

  -OEChem-04052316043D

 85 93  0     1  0  0  0  0  0999 V2000
  -38.0827  -30.4769   23.4056 C   0  0  0  0  0  0  0  0  0  0  0  0
  -37.0641  -29.7742   22.7698 C   0  0  0  0  0  0  0  0  0  0  0  0
  -23.0117   -9.8905   19.9184 C   0  0  0  0  0  0  0  0  0  0  0  0
  -23.6860   -9.8944   22.2383 C   0  0  0  0  0  0  0  0  0  0  0  0
  -39.3594  -29.9237   23.4943 C   0  0  0  0  0  0  0  0  0  0  0  0
  -37.3219  -28.5183   22.2215 C   0  0  0  0  0  0  0  0  0  0  0  0
  -33.4837  -23.7529   21.9691 C   0  0  0  0  0  0  0  0  0  0  0  0
  -30.6250  -19.7755   21.7200 C   0  0  0  0  0  0  0  0  0  0  0  0
  -30.8377  -19.0328   22.8813 C   0  0  0  0  0  0  0  0  0  0  0  0
  -22.2405   -8.7504   20.1444 C   0  0  0  0  0  0  0  0  0  0  0  0
  -22.9147   -8.7544   22.4644 C   0  0  0  0  0  0  0  0  0  0  0  0
  -32.6609  -23.2638   20.9553 C   0  0  0  0  0  0  0  0  0  0  0  0
  -21.4099   -5.6366   23.5712 C   0  0  0  0  0  0  0  0  0  0  0  0
  -21.9800   -4.6058   24.3181 C   0  0  0  0  0  0  0  0  0  0  0  0
  -34.3748  -21.6835   20.3351 C   0  0  0  0  0  0  0  0  0  0  0  0
  -23.7429   -4.3938   22.6797 C   0  0  0  0  0  0  0  0  0  0  0  0
  -23.7345  -10.4625   20.9653 C   0  0  0  0  0  0  0  0  0  0  0  0
  -24.1214  -12.9813   20.8495 C   0  0  0  0  0  0  0  0  0  0  0  0
  -39.6306  -28.6562   22.9553 C   0  0  0  0  0  0  0  0  0  0  0  0
  -34.7645  -23.2174   22.1668 C   0  0  0  0  0  0  0  0  0  0  0  0
  -38.6038  -27.9483   22.3019 C   0  0  0  0  0  0  0  0  0  0  0  0
  -35.2108  -22.1658   21.3537 C   0  0  0  0  0  0  0  0  0  0  0  0
  -30.2202  -19.1367   20.5479 C   0  0  0  0  0  0  0  0  0  0  0  0
  -30.6459  -17.6512   22.8706 C   0  0  0  0  0  0  0  0  0  0  0  0
  -30.0284  -17.7551   20.5372 C   0  0  0  0  0  0  0  0  0  0  0  0
  -30.2412  -17.0123   21.6985 C   0  0  0  0  0  0  0  0  0  0  0  0
  -22.1920   -8.1824   21.4174 C   0  0  0  0  0  0  0  0  0  0  0  0
  -33.1076  -22.2309   20.1363 C   0  0  0  0  0  0  0  0  0  0  0  0
  -22.0062   -6.0460   22.3785 C   0  0  0  0  0  0  0  0  0  0  0  0
  -23.1465   -3.9844   23.8724 C   0  0  0  0  0  0  0  0  0  0  0  0
  -23.1727   -5.4246   21.9328 C   0  0  0  0  0  0  0  0  0  0  0  0
  -24.5318  -11.6398   20.7323 C   0  0  0  0  0  0  0  0  0  0  0  0
  -25.2383  -13.7117   20.5245 C   0  0  0  0  0  0  0  0  0  0  0  0
  -22.8448  -13.5191   21.2191 C   0  0  0  0  0  0  0  0  0  0  0  0
  -37.7236  -24.3701   22.0285 C   0  0  0  0  0  0  0  0  0  0  0  0
  -38.5046  -21.4293   23.1528 C   0  0  0  0  0  0  0  0  0  0  0  0
  -37.6702  -18.1361   23.4776 C   0  0  0  0  0  0  0  0  0  0  0  0
  -30.7105  -14.6700   20.8987 C   0  0  0  0  0  0  0  0  0  0  0  0
  -41.0380  -28.1198   23.0342 C   0  0  0  0  0  0  0  0  0  0  0  0
  -35.6294  -23.7379   23.2819 C   0  0  0  0  0  0  0  0  0  0  0  0
  -36.5696  -21.5427   21.5378 C   0  0  0  0  0  0  0  0  0  0  0  0
  -41.1355  -26.6220   22.7565 C   0  0  0  0  0  0  0  0  0  0  0  0
  -29.6458  -12.2650   18.4989 C   0  0  0  0  0  0  0  0  0  0  0  0
  -40.3251  -26.2550   21.5173 C   0  0  0  0  0  0  0  0  0  0  0  0
  -28.1867  -11.9983   18.8756 C   0  0  0  0  0  0  0  0  0  0  0  0
  -30.5193  -12.4838   19.7330 C   0  0  0  0  0  0  0  0  0  0  0  0
  -28.5743  -13.2444   21.0399 C   0  0  0  0  0  0  0  0  0  0  0  0
  -38.8382  -26.5726   21.7165 C   0  0  1  0  0  0  0  0  0  0  0  0
  -37.1145  -23.4662   23.0628 C   0  0  1  0  0  0  0  0  0  0  0  0
  -27.6432  -13.0820   19.8273 C   0  0  2  0  0  0  0  0  0  0  0  0
  -29.5954  -17.0760   19.2754 C   0  0  0  0  0  0  0  0  0  0  0  0
  -38.5255  -15.9703   24.4130 C   0  0  0  0  0  0  0  0  0  0  0  0
  -31.3258  -17.8265   25.2898 C   0  0  0  0  0  0  0  0  0  0  0  0
  -32.0010  -15.8143   23.9365 C   0  0  0  0  0  0  0  0  0  0  0  0
  -29.6451  -16.0995   24.6779 C   0  0  0  0  0  0  0  0  0  0  0  0
  -40.4444  -21.1864   20.8101 C   0  0  0  0  0  0  0  0  0  0  0  0
  -40.5435  -18.7216   21.2381 C   0  0  0  0  0  0  0  0  0  0  0  0
  -41.3230  -20.3215   22.9860 C   0  0  0  0  0  0  0  0  0  0  0  0
  -35.3640  -17.8852   25.3154 C   0  0  0  0  0  0  0  0  0  0  0  0
  -29.9977  -19.9638   19.3070 C   0  0  0  0  0  0  0  0  0  0  0  0
  -31.1270  -19.8505   18.2806 C   0  0  0  0  0  0  0  0  0  0  0  0
  -32.4625  -20.3786   18.7914 C   0  0  0  0  0  0  0  0  0  1  0  0
  -38.8473  -20.1005   22.5236 C   0  0  1  0  0  0  0  0  0  0  0  0
  -37.6823  -17.2077   24.6785 C   0  0  2  0  0  0  0  0  0  0  0  0
  -30.8825  -16.8829   24.1306 C   0  0  0  0  0  0  0  0  0  0  0  0
  -40.2646  -20.0953   21.8845 C   0  0  0  0  0  0  0  0  0  0  0  0
  -25.8096  -11.5220   20.3616 N   0  0  0  0  0  0  0  0  0  0  0  0
  -26.2118  -12.7988   20.2430 N   0  0  0  0  0  0  0  0  0  0  0  0
  -37.3807  -22.0905   22.6376 N   0  0  0  0  0  0  0  0  0  0  0  0
  -29.9449  -13.5270   20.5854 N   0  0  0  0  0  0  0  0  0  0  0  0
  -25.4728  -15.0393   20.4548 N   0  0  0  0  0  0  0  0  0  0  0  0
  -21.8065  -12.6277   21.5216 N   0  0  0  0  0  0  0  0  0  0  0  0
  -30.0483  -15.6086   21.6894 N   0  0  0  0  0  0  0  0  0  0  0  0
  -38.2104  -25.5592   22.5370 N   0  0  0  0  0  0  0  0  0  0  0  0
  -38.6571  -19.0953   23.5636 N   0  0  0  0  0  0  0  0  0  0  0  0
  -36.2965  -16.7700   25.0089 N   0  3  0  0  0  0  0  0  0  0  0  0
  -22.6266  -14.7536   21.2635 O   0  0  0  0  0  0  0  0  0  0  0  0
  -37.7512  -24.0144   20.8562 O   0  0  0  0  0  0  0  0  0  0  0  0
  -39.2041  -21.8612   24.0725 O   0  0  0  0  0  0  0  0  0  0  0  0
  -36.8681  -18.0197   22.5536 O   0  0  0  0  0  0  0  0  0  0  0  0
  -31.8587  -14.8187   20.4728 O   0  0  0  0  0  0  0  0  0  0  0  0
  -21.4393   -7.0701   21.6385 O   0  0  0  0  0  0  0  0  0  0  0  0
  -32.3068  -21.7521   19.1456 O   0  0  0  0  0  0  0  0  0  1  0  0
  -23.6948   -2.9955   24.5906 F   0  0  0  0  0  0  0  0  0  0  0  0
  -23.7508   -5.8143   20.7883 F   0  0  0  0  0  0  0  0  0  0  0  0
  1  2  1  0  0  0  0
  1  5  2  0  0  0  0
  2  6  2  0  0  0  0
  3 10  2  0  0  0  0
  3 17  1  0  0  0  0
  4 11  1  0  0  0  0
  4 17  2  0  0  0  0
  5 19  1  0  0  0  0
  6 21  1  0  0  0  0
  7 12  2  0  0  0  0
  7 20  1  0  0  0  0
  8  9  2  0  0  0  0
  8 23  1  0  0  0  0
  9 24  1  0  0  0  0
 10 27  1  0  0  0  0
 11 27  2  0  0  0  0
 12 28  1  0  0  0  0
 13 14  2  0  0  0  0
 13 29  1  0  0  0  0
 14 30  1  0  0  0  0
 15 22  1  0  0  0  0
 15 28  2  0  0  0  0
 16 30  2  0  0  0  0
 16 31  1  0  0  0  0
 17 32  1  0  0  0  0
 18 32  1  0  0  0  0
 18 33  2  0  0  0  0
 18 34  1  0  0  0  0
 19 21  2  0  0  0  0
 19 39  1  0  0  0  0
 20 22  2  0  0  0  0
 20 40  1  0  0  0  0
 21 48  1  0  0  0  0
 22 41  1  0  0  0  0
 23 25  2  0  0  0  0
 23 60  1  0  0  0  0
 24 26  2  0  0  0  0
 24 65  1  0  0  0  0
 25 26  1  0  0  0  0
 25 51  1  0  0  0  0
 26 73  1  0  0  0  0
 27 82  1  0  0  0  0
 28 83  1  0  0  0  0
 29 31  2  0  0  0  0
 29 82  1  0  0  0  0
 30 84  1  0  0  0  0
 31 85  1  0  0  0  0
 32 67  2  0  0  0  0
 33 68  1  0  0  0  0
 33 71  1  0  0  0  0
 34 72  1  0  0  0  0
 34 77  2  0  0  0  0
 35 49  1  0  0  0  0
 35 74  1  0  0  0  0
 35 78  2  0  0  0  0
 36 63  1  0  0  0  0
 36 69  1  0  0  0  0
 36 79  2  0  0  0  0
 37 64  1  0  0  0  0
 37 75  1  0  0  0  0
 37 80  2  0  0  0  0
 38 70  1  0  0  0  0
 38 73  1  0  0  0  0
 38 81  2  0  0  0  0
 39 42  1  0  0  0  0
 40 49  1  0  0  0  0
 41 69  1  0  0  0  0
 42 44  1  0  0  0  0
 43 45  1  0  0  0  0
 43 46  1  0  0  0  0
 44 48  1  0  0  0  0
 45 50  1  0  0  0  0
 46 70  1  0  0  0  0
 47 50  1  0  0  0  0
 47 70  1  0  0  0  0
 48 74  1  0  0  0  0
 49 69  1  0  0  0  0
 50 68  1  0  0  0  0
 52 64  1  0  0  0  0
 53 65  1  0  0  0  0
 54 65  1  0  0  0  0
 55 65  1  0  0  0  0
 56 66  1  0  0  0  0
 57 66  1  0  0  0  0
 58 66  1  0  0  0  0
 59 76  1  0  0  0  0
 60 61  1  0  0  0  0
 61 62  1  0  0  0  0
 62 83  1  0  0  0  0
 63 66  1  0  0  0  0
 63 75  1  0  0  0  0
 64 76  1  0  0  0  0
 67 68  1  0  0  0  0
M  CHG  1  76   1
M  ISO  4  38 100  62 101  73 100  83 101
M  END
> <Batch ID>
0018

> <Smiles>
CNC(C)C(=O)NC(C(=O)N1Cc2cc([101O:1][101CH2:1]CCc3ccc(C(C)(C)C)c([100NH:0][100C:0](=O)N4CCCC(n5nc(-c6ccc(Oc7ccc(F)cc7F)cc6)c(C(N)=O)c5N)C4)c3C)ccc2CC1C(=O)NC1CCCc2ccccc21)C(C)(C)C

> <Shape>
0.195

> <Color>
0.199

> <Negative vol penalty>
0.000

$$$$

  -OEChem-04052316043D

 81 89  0     1  0  0  0  0  0999 V2000
  -28.8045  -32.1634   20.5892 C   0  0  0  0  0  0  0  0  0  0  0  0
  -29.1758  -30.8246   20.5174 C   0  0  0  0  0  0  0  0  0  0  0  0
  -23.0793   -9.8628   19.9414 C   0  0  0  0  0  0  0  0  0  0  0  0
  -23.8346   -9.8761   22.2362 C   0  0  0  0  0  0  0  0  0  0  0  0
  -28.1697  -32.6492   21.7316 C   0  0  0  0  0  0  0  0  0  0  0  0
  -28.9136  -29.9710   21.5884 C   0  0  0  0  0  0  0  0  0  0  0  0
  -27.4347  -24.0356   21.2892 C   0  0  0  0  0  0  0  0  0  0  0  0
  -22.3364   -8.7093   20.1926 C   0  0  0  0  0  0  0  0  0  0  0  0
  -23.0916   -8.7227   22.4875 C   0  0  0  0  0  0  0  0  0  0  0  0
  -28.1881  -22.8724   21.4411 C   0  0  0  0  0  0  0  0  0  0  0  0
  -19.8632   -7.9223   23.0854 C   0  0  0  0  0  0  0  0  0  0  0  0
  -19.1040   -7.8842   24.2549 C   0  0  0  0  0  0  0  0  0  0  0  0
  -27.5055  -22.7392   23.7510 C   0  0  0  0  0  0  0  0  0  0  0  0
  -32.2189  -18.2301   23.1471 C   0  0  0  0  0  0  0  0  0  0  0  0
  -20.3463   -5.9500   24.9984 C   0  0  0  0  0  0  0  0  0  0  0  0
  -23.8285  -10.4462   20.9632 C   0  0  0  0  0  0  0  0  0  0  0  0
  -24.1674  -12.9715   20.8379 C   0  0  0  0  0  0  0  0  0  0  0  0
  -27.8909  -31.7990   22.8133 C   0  0  0  0  0  0  0  0  0  0  0  0
  -26.7186  -24.5662   22.3718 C   0  0  0  0  0  0  0  0  0  0  0  0
  -28.2757  -30.4462   22.7469 C   0  0  0  0  0  0  0  0  0  0  0  0
  -26.7417  -23.9078   23.6095 C   0  0  0  0  0  0  0  0  0  0  0  0
  -31.5468  -19.4059   22.8132 C   0  0  0  0  0  0  0  0  0  0  0  0
  -30.3893  -19.3511   22.0368 C   0  0  0  0  0  0  0  0  0  0  0  0
  -29.9038  -18.1205   21.5944 C   0  0  0  0  0  0  0  0  0  0  0  0
  -30.5759  -16.9448   21.9283 C   0  0  0  0  0  0  0  0  0  0  0  0
  -22.3425   -8.1393   21.4656 C   0  0  0  0  0  0  0  0  0  0  0  0
  -28.2260  -22.2256   22.6729 C   0  0  0  0  0  0  0  0  0  0  0  0
  -20.8640   -6.9742   22.8724 C   0  0  0  0  0  0  0  0  0  0  0  0
  -19.3455   -6.8981   25.2114 C   0  0  0  0  0  0  0  0  0  0  0  0
  -21.1055   -5.9881   23.8289 C   0  0  0  0  0  0  0  0  0  0  0  0
  -31.7334  -16.9995   22.7046 C   0  0  0  0  0  0  0  0  0  0  0  0
  -24.5966  -11.6374   20.7042 C   0  0  0  0  0  0  0  0  0  0  0  0
  -25.2594  -13.7214   20.4750 C   0  0  0  0  0  0  0  0  0  0  0  0
  -22.8955  -13.4867   21.2530 C   0  0  0  0  0  0  0  0  0  0  0  0
  -26.8093  -27.2947   24.0000 C   0  0  0  0  0  0  0  0  0  0  0  0
  -24.1728  -26.0708   25.4399 C   0  0  0  0  0  0  0  0  0  0  0  0
  -22.3532  -23.3115   26.2897 C   0  0  0  0  0  0  0  0  0  0  0  0
  -30.7239  -14.7742   20.6582 C   0  0  0  0  0  0  0  0  0  0  0  0
  -27.2453  -32.3805   24.0460 C   0  0  0  0  0  0  0  0  0  0  0  0
  -25.8892  -25.8070   22.1845 C   0  0  0  0  0  0  0  0  0  0  0  0
  -25.9743  -24.4254   24.7976 C   0  0  0  0  0  0  0  0  0  0  0  0
  -26.6670  -31.3258   24.9859 C   0  0  0  0  0  0  0  0  0  0  0  0
  -29.6172  -12.3534   18.2934 C   0  0  0  0  0  0  0  0  0  0  0  0
  -27.6677  -30.1943   25.1989 C   0  0  0  0  0  0  0  0  0  0  0  0
  -28.1771  -12.0611   18.7208 C   0  0  0  0  0  0  0  0  0  0  0  0
  -30.5297  -12.5862   19.4963 C   0  0  0  0  0  0  0  0  0  0  0  0
  -28.6190  -13.3116   20.8720 C   0  0  0  0  0  0  0  0  0  0  0  0
  -27.9861  -29.4835   23.8780 C   0  0  1  0  0  0  0  0  0  0  0  0
  -25.6116  -26.5432   23.4915 C   0  0  1  0  0  0  0  0  0  0  0  0
  -27.6488  -13.1343   19.6927 C   0  0  2  0  0  0  0  0  0  0  0  0
  -32.0876  -20.7104   23.3005 C   0  0  0  0  0  0  0  0  0  0  0  0
  -28.6606  -18.0689   20.7614 C   0  0  0  0  0  0  0  0  0  0  0  0
  -20.2635  -22.6252   27.4978 C   0  0  0  0  0  0  0  0  0  0  0  0
  -25.5639  -26.5491   28.1130 C   0  0  0  0  0  0  0  0  0  0  0  0
  -23.8960  -25.0144   29.1764 C   0  0  0  0  0  0  0  0  0  0  0  0
  -23.1300  -27.1233   28.0862 C   0  0  0  0  0  0  0  0  0  0  0  0
  -21.1967  -22.1082   23.8456 C   0  0  0  0  0  0  0  0  0  0  0  0
  -29.6691  -20.6178   21.6788 C   0  0  0  0  0  0  0  0  0  1  0  0
  -23.9209  -25.2006   26.6475 C   0  0  1  0  0  0  0  0  0  0  0  0
  -20.8734  -23.0003   26.1561 C   0  0  2  0  0  0  0  0  0  0  0  0
  -24.1438  -25.9629   27.9841 C   0  0  0  0  0  0  0  0  0  0  0  0
  -25.8624  -11.5421   20.2887 N   0  0  0  0  0  0  0  0  0  0  0  0
  -26.2380  -12.8259   20.1580 N   0  0  0  0  0  0  0  0  0  0  0  0
  -25.1832  -25.6452   24.5660 N   0  0  0  0  0  0  0  0  0  0  0  0
  -29.9676  -13.6184   20.3701 N   0  0  0  0  0  0  0  0  0  0  0  0
  -25.4683  -15.0530   20.3992 N   0  0  0  0  0  0  0  0  0  0  0  0
  -21.8840  -12.5771   21.5904 N   0  0  0  0  0  0  0  0  0  0  0  0
  -30.0738  -15.7004   21.4731 N   0  0  0  0  0  0  0  0  0  0  0  0
  -26.9111  -28.5849   23.5157 N   0  0  0  0  0  0  0  0  0  0  0  0
  -22.5763  -24.6579   26.4862 N   0  0  0  0  0  0  0  0  0  0  0  0
  -20.6657  -21.8662   25.2118 N   0  3  0  0  0  0  0  0  0  0  0  0
  -22.6576  -14.7172   21.3069 O   0  0  0  0  0  0  0  0  0  0  0  0
  -27.5828  -26.7453   24.7755 O   0  0  0  0  0  0  0  0  0  0  0  0
  -23.4930  -27.0867   25.2741 O   0  0  0  0  0  0  0  0  0  0  0  0
  -23.2239  -22.4461   26.2297 O   0  0  0  0  0  0  0  0  0  0  0  0
  -31.8537  -14.9432   20.1924 O   0  0  0  0  0  0  0  0  0  0  0  0
  -21.6174   -7.0138   21.7112 O   0  0  0  0  0  0  0  0  0  0  0  0
  -28.9611  -21.0904   22.8241 O   0  0  0  0  0  0  0  0  0  1  0  0
  -18.6174   -6.8626   26.3351 F   0  0  0  0  0  0  0  0  0  0  0  0
  -22.0664   -5.0753   23.6304 F   0  0  0  0  0  0  0  0  0  0  0  0
  -32.5994  -15.5694   23.1430 Cl  0  0  0  0  0  0  0  0  0  0  0  0
  1  2  1  0  0  0  0
  1  5  2  0  0  0  0
  2  6  2  0  0  0  0
  3  8  2  0  0  0  0
  3 16  1  0  0  0  0
  4  9  1  0  0  0  0
  4 16  2  0  0  0  0
  5 18  1  0  0  0  0
  6 20  1  0  0  0  0
  7 10  2  0  0  0  0
  7 19  1  0  0  0  0
  8 26  1  0  0  0  0
  9 26  2  0  0  0  0
 10 27  1  0  0  0  0
 11 12  2  0  0  0  0
 11 28  1  0  0  0  0
 12 29  1  0  0  0  0
 13 21  1  0  0  0  0
 13 27  2  0  0  0  0
 14 22  2  0  0  0  0
 14 31  1  0  0  0  0
 15 29  2  0  0  0  0
 15 30  1  0  0  0  0
 16 32  1  0  0  0  0
 17 32  1  0  0  0  0
 17 33  2  0  0  0  0
 17 34  1  0  0  0  0
 18 20  2  0  0  0  0
 18 39  1  0  0  0  0
 19 21  2  0  0  0  0
 19 40  1  0  0  0  0
 20 48  1  0  0  0  0
 21 41  1  0  0  0  0
 22 23  1  0  0  0  0
 22 51  1  0  0  0  0
 23 24  2  0  0  0  0
 23 58  1  0  0  0  0
 24 25  1  0  0  0  0
 24 52  1  0  0  0  0
 25 31  2  0  0  0  0
 25 68  1  0  0  0  0
 26 77  1  0  0  0  0
 27 78  1  0  0  0  0
 28 30  2  0  0  0  0
 28 77  1  0  0  0  0
 29 79  1  0  0  0  0
 30 80  1  0  0  0  0
 31 81  1  0  0  0  0
 32 62  2  0  0  0  0
 33 63  1  0  0  0  0
 33 66  1  0  0  0  0
 34 67  1  0  0  0  0
 34 72  2  0  0  0  0
 35 49  1  0  0  0  0
 35 69  1  0  0  0  0
 35 73  2  0  0  0  0
 36 59  1  0  0  0  0
 36 64  1  0  0  0  0
 36 74  2  0  0  0  0
 37 60  1  0  0  0  0
 37 70  1  0  0  0  0
 37 75  2  0  0  0  0
 38 65  1  0  0  0  0
 38 68  1  0  0  0  0
 38 76  2  0  0  0  0
 39 42  1  0  0  0  0
 40 49  1  0  0  0  0
 41 64  1  0  0  0  0
 42 44  1  0  0  0  0
 43 45  1  0  0  0  0
 43 46  1  0  0  0  0
 44 48  1  0  0  0  0
 45 50  1  0  0  0  0
 46 65  1  0  0  0  0
 47 50  1  0  0  0  0
 47 65  1  0  0  0  0
 48 69  1  0  0  0  0
 49 64  1  0  0  0  0
 50 63  1  0  0  0  0
 53 60  1  0  0  0  0
 54 61  1  0  0  0  0
 55 61  1  0  0  0  0
 56 61  1  0  0  0  0
 57 71  1  0  0  0  0
 58 78  1  0  0  0  0
 59 61  1  0  0  0  0
 59 70  1  0  0  0  0
 60 71  1  0  0  0  0
 62 63  1  0  0  0  0
M  CHG  1  71   1
M  ISO  4  38 100  58 101  68 100  78 101
M  END
> <Batch ID>
0018

> <Smiles>
CNC(C)C(=O)NC(C(=O)N1Cc2cc([101O:1][101CH2:1]c3c(C)cc(Cl)c([100NH:0][100C:0](=O)N4CCCC(n5nc(-c6ccc(Oc7ccc(F)cc7F)cc6)c(C(N)=O)c5N)C4)c3C)ccc2CC1C(=O)NC1CCCc2ccccc21)C(C)(C)C

> <Shape>
0.237

> <Color>
0.200

> <Negative vol penalty>
0.000

$$$$

  -OEChem-04052316043D

 78 85  0     1  0  0  0  0  0999 V2000
  -17.3591  -28.8900   19.7129 C   0  0  0  0  0  0  0  0  0  0  0  0
  -18.4478  -29.7536   19.6461 C   0  0  0  0  0  0  0  0  0  0  0  0
  -27.1894  -17.4835   20.4669 C   0  0  0  0  0  0  0  0  0  0  0  0
  -29.3794  -16.9448   19.6004 C   0  0  0  0  0  0  0  0  0  0  0  0
  -17.2972  -27.9247   20.7170 C   0  0  0  0  0  0  0  0  0  0  0  0
  -19.4746  -29.6532   20.5842 C   0  0  0  0  0  0  0  0  0  0  0  0
  -27.1421  -28.6088   19.5140 C   0  0  0  0  0  0  0  0  0  0  0  0
  -26.7052  -16.2602   20.0037 C   0  0  0  0  0  0  0  0  0  0  0  0
  -28.8952  -15.7214   19.1372 C   0  0  0  0  0  0  0  0  0  0  0  0
  -28.4939  -28.2687   19.4578 C   0  0  0  0  0  0  0  0  0  0  0  0
  -24.9801  -13.1242   19.3674 C   0  0  0  0  0  0  0  0  0  0  0  0
  -24.1722  -12.3793   20.2265 C   0  0  0  0  0  0  0  0  0  0  0  0
  -28.3498  -27.2878   21.6635 C   0  0  0  0  0  0  0  0  0  0  0  0
  -25.9747  -12.2759   21.8320 C   0  0  0  0  0  0  0  0  0  0  0  0
  -28.5265  -17.8259   20.2653 C   0  0  0  0  0  0  0  0  0  0  0  0
  -29.5924  -19.3583   22.0040 C   0  0  0  0  0  0  0  0  0  0  0  0
  -18.3284  -27.8060   21.6621 C   0  0  0  0  0  0  0  0  0  0  0  0
  -26.3844  -28.2756   20.6402 C   0  0  0  0  0  0  0  0  0  0  0  0
  -19.4257  -28.6862   21.6027 C   0  0  0  0  0  0  0  0  0  0  0  0
  -26.9924  -27.6149   21.7203 C   0  0  0  0  0  0  0  0  0  0  0  0
  -27.5580  -15.3791   19.3389 C   0  0  0  0  0  0  0  0  0  0  0  0
  -29.0962  -27.6101   20.5300 C   0  0  0  0  0  0  0  0  0  0  0  0
  -26.2854  -13.4449   19.7406 C   0  0  0  0  0  0  0  0  0  0  0  0
  -24.6695  -11.9551   21.4587 C   0  0  0  0  0  0  0  0  0  0  0  0
  -26.7826  -13.0208   20.9729 C   0  0  0  0  0  0  0  0  0  0  0  0
  -29.0271  -19.0897   20.7430 C   0  0  0  0  0  0  0  0  0  0  0  0
  -29.9056  -20.6949   21.9623 C   0  0  0  0  0  0  0  0  0  0  0  0
  -29.8145  -18.4782   23.1139 C   0  0  0  0  0  0  0  0  0  0  0  0
  -23.0332  -28.3455   22.3256 C   0  0  0  0  0  0  0  0  0  0  0  0
  -32.1046  -25.0484   19.2235 C   0  0  0  0  0  0  0  0  0  0  0  0
  -24.2660  -25.5973   22.9072 C   0  0  0  0  0  0  0  0  0  0  0  0
  -25.7864  -22.5441   22.9637 C   0  0  0  0  0  0  0  0  0  0  0  0
  -18.1944  -26.7780   22.7575 C   0  0  0  0  0  0  0  0  0  0  0  0
  -24.9401  -28.6769   20.7698 C   0  0  0  0  0  0  0  0  0  0  0  0
  -26.1465  -27.3072   22.9257 C   0  0  0  0  0  0  0  0  0  0  0  0
  -19.5040  -26.4919   23.4878 C   0  0  0  0  0  0  0  0  0  0  0  0
  -28.6571  -24.2752   18.6260 C   0  0  0  0  0  0  0  0  0  0  0  0
  -20.2109  -27.7952   23.8466 C   0  0  0  0  0  0  0  0  0  0  0  0
  -28.5002  -22.8676   19.1998 C   0  0  0  0  0  0  0  0  0  0  0  0
  -30.0342  -24.4728   18.0002 C   0  0  0  0  0  0  0  0  0  0  0  0
  -31.0152  -22.7661   19.4991 C   0  0  0  0  0  0  0  0  0  0  0  0
  -20.5712  -28.5922   22.5871 C   0  0  1  0  0  0  0  0  0  0  0  0
  -24.0918  -27.6410   21.5289 C   0  0  1  0  0  0  0  0  0  0  0  0
  -29.6489  -22.5343   20.1683 C   0  0  2  0  0  0  0  0  0  0  0  0
  -34.4253  -23.3105   19.7235 C   0  0  0  0  0  0  0  0  0  0  0  0
  -26.0689  -20.0915   23.4138 C   0  0  0  0  0  0  0  0  0  0  0  0
  -25.0744  -26.5711   25.6824 C   0  0  0  0  0  0  0  0  0  0  0  0
  -25.6896  -24.2123   26.2532 C   0  0  0  0  0  0  0  0  0  0  0  0
  -23.3307  -24.7784   25.6724 C   0  0  0  0  0  0  0  0  0  0  0  0
  -33.1204  -27.5334   20.7122 C   0  0  0  0  0  0  0  0  0  0  0  0
  -24.5362  -21.8083   20.3840 C   0  0  0  0  0  0  0  0  0  0  0  0
  -32.5291  -25.0831   23.3720 C   0  0  0  0  0  0  0  0  0  0  0  0
  -34.2078  -24.6152   20.4825 C   0  0  0  0  0  0  0  0  0  0  0  0
  -30.9694  -26.6048   21.5970 C   0  0  0  0  0  0  0  0  0  1  0  0
  -32.7171  -24.9860   20.6001 C   0  0  1  0  0  0  0  0  0  0  0  0
  -25.0834  -24.7517   23.8506 C   0  0  1  0  0  0  0  0  0  0  0  0
  -25.2567  -21.1494   22.6830 C   0  0  2  0  0  0  0  0  0  0  0  0
  -24.8064  -25.0914   25.3423 C   0  0  0  0  0  0  0  0  0  0  0  0
  -32.4655  -26.3133   21.3707 C   0  0  1  0  0  0  0  0  0  0  0  0
  -28.9824  -20.1691   19.9575 N   0  0  0  0  0  0  0  0  0  0  0  0
  -29.5235  -21.1289   20.7270 N   0  0  0  0  0  0  0  0  0  0  0  0
  -24.8270  -26.8141   22.5009 N   0  0  0  0  0  0  0  0  0  0  0  0
  -31.0976  -24.1243   18.9441 N   0  0  0  0  0  0  0  0  0  0  0  0
  -30.4677  -21.5296   22.8621 N   0  0  0  0  0  0  0  0  0  0  0  0
  -29.4337  -17.1352   22.9883 N   0  0  0  0  0  0  0  0  0  0  0  0
  -21.7419  -28.0284   21.9499 N   0  0  0  0  0  0  0  0  0  0  0  0
  -24.8122  -23.3634   23.4936 N   0  0  0  0  0  0  0  0  0  0  0  0
  -25.3120  -20.8585   21.2225 N   0  3  0  0  0  0  0  0  0  0  0  0
  -30.3203  -18.8747   24.1911 O   0  0  0  0  0  0  0  0  0  0  0  0
  -23.3626  -29.1191   23.2171 O   0  0  0  0  0  0  0  0  0  0  0  0
  -32.5084  -25.8957   18.4227 O   0  0  0  0  0  0  0  0  0  0  0  0
  -23.1574  -25.1951   22.5433 O   0  0  0  0  0  0  0  0  0  0  0  0
  -26.9492  -22.8727   22.7390 O   0  0  0  0  0  0  0  0  0  0  0  0
  -27.0859  -14.1852   18.8870 O   0  0  0  0  0  0  0  0  0  0  0  0
  -30.4153  -27.2769   20.4667 O   0  0  0  0  0  0  0  0  0  1  0  0
  -33.0658  -26.1890   22.6700 O   0  0  0  0  0  0  0  0  0  0  0  0
  -23.8930  -11.2411   22.2842 F   0  0  0  0  0  0  0  0  0  0  0  0
  -28.0353  -13.3269   21.3374 F   0  0  0  0  0  0  0  0  0  0  0  0
  1  2  1  0  0  0  0
  1  5  2  0  0  0  0
  2  6  2  0  0  0  0
  3  8  2  0  0  0  0
  3 15  1  0  0  0  0
  4  9  1  0  0  0  0
  4 15  2  0  0  0  0
  5 17  1  0  0  0  0
  6 19  1  0  0  0  0
  7 10  2  0  0  0  0
  7 18  1  0  0  0  0
  8 21  1  0  0  0  0
  9 21  2  0  0  0  0
 10 22  1  0  0  0  0
 11 12  2  0  0  0  0
 11 23  1  0  0  0  0
 12 24  1  0  0  0  0
 13 20  1  0  0  0  0
 13 22  2  0  0  0  0
 14 24  2  0  0  0  0
 14 25  1  0  0  0  0
 15 26  1  0  0  0  0
 16 26  1  0  0  0  0
 16 27  2  0  0  0  0
 16 28  1  0  0  0  0
 17 19  2  0  0  0  0
 17 33  1  0  0  0  0
 18 20  2  0  0  0  0
 18 34  1  0  0  0  0
 19 42  1  0  0  0  0
 20 35  1  0  0  0  0
 21 74  1  0  0  0  0
 22 75  1  0  0  0  0
 23 25  2  0  0  0  0
 23 74  1  0  0  0  0
 24 77  1  0  0  0  0
 25 78  1  0  0  0  0
 26 60  2  0  0  0  0
 27 61  1  0  0  0  0
 27 64  1  0  0  0  0
 28 65  1  0  0  0  0
 28 69  2  0  0  0  0
 29 43  1  0  0  0  0
 29 66  1  0  0  0  0
 29 70  2  0  0  0  0
 30 55  1  0  0  0  0
 30 63  1  0  0  0  0
 30 71  2  0  0  0  0
 31 56  1  0  0  0  0
 31 62  1  0  0  0  0
 31 72  2  0  0  0  0
 32 57  1  0  0  0  0
 32 67  1  0  0  0  0
 32 73  2  0  0  0  0
 33 36  1  0  0  0  0
 34 43  1  0  0  0  0
 35 62  1  0  0  0  0
 36 38  1  0  0  0  0
 37 39  1  0  0  0  0
 37 40  1  0  0  0  0
 38 42  1  0  0  0  0
 39 44  1  0  0  0  0
 40 63  1  0  0  0  0
 41 44  1  0  0  0  0
 41 63  1  0  0  0  0
 42 66  1  0  0  0  0
 43 62  1  0  0  0  0
 44 61  1  0  0  0  0
 45 53  1  0  0  0  0
 46 57  1  0  0  0  0
 47 58  1  0  0  0  0
 48 58  1  0  0  0  0
 49 58  1  0  0  0  0
 50 59  1  0  0  0  0
 51 68  1  0  0  0  0
 52 76  1  0  0  0  0
 53 55  1  0  0  0  0
 54 59  1  0  0  0  0
 54 75  1  0  0  0  0
 55 59  1  0  0  0  0
 56 58  1  0  0  0  0
 56 67  1  0  0  0  0
 57 68  1  0  0  0  0
 59 76  1  0  0  0  0
 60 61  1  0  0  0  0
M  CHG  1  68   1
M  ISO  4  30 100  54 101  55 100  75 101
M  END
> <Batch ID>
0018

> <Smiles>
CC[100CH:0]([100C:0](=O)N1CCCC(n2nc(-c3ccc(Oc4ccc(F)cc4F)cc3)c(C(N)=O)c2N)C1)C(C)(OC)[101CH2:1][101O:1]c1ccc2c(c1)CN(C(=O)C(NC(=O)C(C)NC)C(C)(C)C)C(C(=O)NC1CCCc3ccccc31)C2

> <Shape>
0.220

> <Color>
0.078

> <Negative vol penalty>
0.000

$$$$

  -OEChem-04052316043D

 82 90  0     1  0  0  0  0  0999 V2000
  -17.1988  -26.2744   21.9306 C   0  0  0  0  0  0  0  0  0  0  0  0
  -18.3270  -26.4982   21.1479 C   0  0  0  0  0  0  0  0  0  0  0  0
  -27.2995  -12.4689   21.3920 C   0  0  0  0  0  0  0  0  0  0  0  0
  -26.9360  -13.5383   19.2562 C   0  0  0  0  0  0  0  0  0  0  0  0
  -17.0846  -26.8863   23.1781 C   0  0  0  0  0  0  0  0  0  0  0  0
  -19.3413  -27.3350   21.6121 C   0  0  0  0  0  0  0  0  0  0  0  0
  -23.9573  -25.3903   20.8671 C   0  0  0  0  0  0  0  0  0  0  0  0
  -26.4816  -11.4091   21.0006 C   0  0  0  0  0  0  0  0  0  0  0  0
  -26.1181  -12.4784   18.8648 C   0  0  0  0  0  0  0  0  0  0  0  0
  -24.4847  -25.4773   19.5795 C   0  0  0  0  0  0  0  0  0  0  0  0
  -24.1992   -8.5943   20.6982 C   0  0  0  0  0  0  0  0  0  0  0  0
  -23.2555   -8.1289   21.6139 C   0  0  0  0  0  0  0  0  0  0  0  0
  -25.8007  -27.3833   20.2537 C   0  0  0  0  0  0  0  0  0  0  0  0
  -27.3726  -24.1759   19.0847 C   0  0  0  0  0  0  0  0  0  0  0  0
  -25.3880  -23.0959   18.2293 C   0  0  0  0  0  0  0  0  0  0  0  0
  -22.2247  -10.3135   21.6617 C   0  0  0  0  0  0  0  0  0  0  0  0
  -27.5267  -13.5336   20.5198 C   0  0  0  0  0  0  0  0  0  0  0  0
  -29.7626  -14.7413   20.7429 C   0  0  0  0  0  0  0  0  0  0  0  0
  -18.1024  -27.7234   23.6619 C   0  0  0  0  0  0  0  0  0  0  0  0
  -24.3401  -26.3074   21.8565 C   0  0  0  0  0  0  0  0  0  0  0  0
  -19.2400  -27.9598   22.8667 C   0  0  0  0  0  0  0  0  0  0  0  0
  -25.2787  -27.3042   21.5538 C   0  0  0  0  0  0  0  0  0  0  0  0
  -26.2745  -24.1728   18.2246 C   0  0  0  0  0  0  0  0  0  0  0  0
  -27.5842  -23.1021   19.9495 C   0  0  0  0  0  0  0  0  0  0  0  0
  -25.5995  -22.0221   19.0941 C   0  0  0  0  0  0  0  0  0  0  0  0
  -26.6976  -22.0252   19.9543 C   0  0  0  0  0  0  0  0  0  0  0  0
  -25.8909  -11.4137   19.7370 C   0  0  0  0  0  0  0  0  0  0  0  0
  -25.4043  -26.4756   19.2718 C   0  0  0  0  0  0  0  0  0  0  0  0
  -24.1557   -9.9193   20.2643 C   0  0  0  0  0  0  0  0  0  0  0  0
  -22.2682   -8.9885   22.0956 C   0  0  0  0  0  0  0  0  0  0  0  0
  -23.1684  -10.7788   20.7460 C   0  0  0  0  0  0  0  0  0  0  0  0
  -28.3711  -14.6290   20.9238 C   0  0  0  0  0  0  0  0  0  0  0  0
  -30.0838  -15.9568   21.2959 C   0  0  0  0  0  0  0  0  0  0  0  0
  -30.6827  -13.8284   20.1298 C   0  0  0  0  0  0  0  0  0  0  0  0
  -22.8225  -28.4879   23.6017 C   0  0  0  0  0  0  0  0  0  0  0  0
  -25.7041  -28.7547   25.0671 C   0  0  0  0  0  0  0  0  0  0  0  0
  -29.0888  -28.3521   24.8979 C   0  0  0  0  0  0  0  0  0  0  0  0
  -26.9677  -20.9698   22.2257 C   0  0  0  0  0  0  0  0  0  0  0  0
  -17.9128  -28.4002   24.9964 C   0  0  0  0  0  0  0  0  0  0  0  0
  -23.7823  -26.1837   23.2479 C   0  0  0  0  0  0  0  0  0  0  0  0
  -25.7377  -28.3009   22.5855 C   0  0  0  0  0  0  0  0  0  0  0  0
  -19.2023  -28.9755   25.5763 C   0  0  0  0  0  0  0  0  0  0  0  0
  -28.6547  -19.0242   24.6845 C   0  0  0  0  0  0  0  0  0  0  0  0
  -19.9667  -29.7536   24.5099 C   0  0  0  0  0  0  0  0  0  0  0  0
  -28.9055  -17.6886   23.9806 C   0  0  0  0  0  0  0  0  0  0  0  0
  -27.3086  -19.6292   24.2901 C   0  0  0  0  0  0  0  0  0  0  0  0
  -27.3378  -18.4259   22.1406 C   0  0  0  0  0  0  0  0  0  0  0  0
  -20.3728  -28.8413   23.3462 C   0  0  1  0  0  0  0  0  0  0  0  0
  -23.8540  -27.4865   24.0384 C   0  0  1  0  0  0  0  0  0  0  0  0
  -28.7103  -17.8095   22.4565 C   0  0  2  0  0  0  0  0  0  0  0  0
  -28.7699  -23.1340   20.8589 C   0  0  0  0  0  0  0  0  0  0  0  0
  -24.6320  -20.8829   19.0765 C   0  0  0  0  0  0  0  0  0  0  0  0
  -31.1825  -28.6927   26.2386 C   0  0  0  0  0  0  0  0  0  0  0  0
  -27.2323  -25.5219   16.3240 C   0  0  0  0  0  0  0  0  0  0  0  0
  -24.7383  -25.1735   16.4891 C   0  0  0  0  0  0  0  0  0  0  0  0
  -25.5665  -31.7526   24.5160 C   0  0  0  0  0  0  0  0  0  0  0  0
  -28.0206  -31.8825   24.9939 C   0  0  0  0  0  0  0  0  0  0  0  0
  -26.4413  -31.1471   26.7793 C   0  0  0  0  0  0  0  0  0  0  0  0
  -29.7316  -25.4637   24.8441 C   0  0  0  0  0  0  0  0  0  0  0  0
  -26.9409  -29.5925   24.8491 C   0  0  1  0  0  0  0  0  0  0  0  0
  -30.0772  -27.7190   25.8604 C   0  0  2  0  0  0  0  0  0  0  0  0
  -26.0431  -25.3479   17.2778 C   0  0  0  0  0  0  0  0  0  1  0  0
  -26.7324  -31.0762   25.2644 C   0  0  0  0  0  0  0  0  0  0  0  0
  -27.8445  -15.6887   21.5434 N   0  0  0  0  0  0  0  0  0  0  0  0
  -28.9109  -16.4783   21.7567 N   0  0  0  0  0  0  0  0  0  0  0  0
  -25.1587  -28.1424   23.9298 N   0  0  0  0  0  0  0  0  0  0  0  0
  -27.1966  -19.7167   22.8325 N   0  0  0  0  0  0  0  0  0  0  0  0
  -31.2524  -16.6197   21.4281 N   0  0  0  0  0  0  0  0  0  0  0  0
  -30.1849  -12.6246   19.6127 N   0  0  0  0  0  0  0  0  0  0  0  0
  -26.9122  -20.9344   20.8328 N   0  0  0  0  0  0  0  0  0  0  0  0
  -21.5204  -28.0382   23.7103 N   0  0  0  0  0  0  0  0  0  0  0  0
  -28.0211  -28.9187   25.5614 N   0  0  0  0  0  0  0  0  0  0  0  0
  -30.7023  -26.5150   25.2436 N   0  3  0  0  0  0  0  0  0  0  0  0
  -31.9123  -14.0656   20.0577 O   0  0  0  0  0  0  0  0  0  0  0  0
  -23.1812  -29.5878   23.1977 O   0  0  0  0  0  0  0  0  0  0  0  0
  -25.2432  -28.6418   26.2057 O   0  0  0  0  0  0  0  0  0  0  0  0
  -29.2497  -28.3480   23.6794 O   0  0  0  0  0  0  0  0  0  0  0  0
  -26.8581  -22.0028   22.8913 O   0  0  0  0  0  0  0  0  0  0  0  0
  -25.0929  -10.3796   19.3546 O   0  0  0  0  0  0  0  0  0  0  0  0
  -25.9201  -26.5632   18.0155 O   0  0  0  0  0  0  0  0  0  1  0  0
  -21.3611   -8.5410   22.9737 F   0  0  0  0  0  0  0  0  0  0  0  0
  -23.1208  -12.0524   20.3320 F   0  0  0  0  0  0  0  0  0  0  0  0
  1  2  1  0  0  0  0
  1  5  2  0  0  0  0
  2  6  2  0  0  0  0
  3  8  2  0  0  0  0
  3 17  1  0  0  0  0
  4  9  1  0  0  0  0
  4 17  2  0  0  0  0
  5 19  1  0  0  0  0
  6 21  1  0  0  0  0
  7 10  2  0  0  0  0
  7 20  1  0  0  0  0
  8 27  1  0  0  0  0
  9 27  2  0  0  0  0
 10 28  1  0  0  0  0
 11 12  2  0  0  0  0
 11 29  1  0  0  0  0
 12 30  1  0  0  0  0
 13 22  1  0  0  0  0
 13 28  2  0  0  0  0
 14 23  1  0  0  0  0
 14 24  2  0  0  0  0
 15 23  2  0  0  0  0
 15 25  1  0  0  0  0
 16 30  2  0  0  0  0
 16 31  1  0  0  0  0
 17 32  1  0  0  0  0
 18 32  1  0  0  0  0
 18 33  2  0  0  0  0
 18 34  1  0  0  0  0
 19 21  2  0  0  0  0
 19 39  1  0  0  0  0
 20 22  2  0  0  0  0
 20 40  1  0  0  0  0
 21 48  1  0  0  0  0
 22 41  1  0  0  0  0
 23 62  1  0  0  0  0
 24 26  1  0  0  0  0
 24 51  1  0  0  0  0
 25 26  2  0  0  0  0
 25 52  1  0  0  0  0
 26 70  1  0  0  0  0
 27 79  1  0  0  0  0
 28 80  1  0  0  0  0
 29 31  2  0  0  0  0
 29 79  1  0  0  0  0
 30 81  1  0  0  0  0
 31 82  1  0  0  0  0
 32 64  2  0  0  0  0
 33 65  1  0  0  0  0
 33 68  1  0  0  0  0
 34 69  1  0  0  0  0
 34 74  2  0  0  0  0
 35 49  1  0  0  0  0
 35 71  1  0  0  0  0
 35 75  2  0  0  0  0
 36 60  1  0  0  0  0
 36 66  1  0  0  0  0
 36 76  2  0  0  0  0
 37 61  1  0  0  0  0
 37 72  1  0  0  0  0
 37 77  2  0  0  0  0
 38 67  1  0  0  0  0
 38 70  1  0  0  0  0
 38 78  2  0  0  0  0
 39 42  1  0  0  0  0
 40 49  1  0  0  0  0
 41 66  1  0  0  0  0
 42 44  1  0  0  0  0
 43 45  1  0  0  0  0
 43 46  1  0  0  0  0
 44 48  1  0  0  0  0
 45 50  1  0  0  0  0
 46 67  1  0  0  0  0
 47 50  1  0  0  0  0
 47 67  1  0  0  0  0
 48 71  1  0  0  0  0
 49 66  1  0  0  0  0
 50 65  1  0  0  0  0
 53 61  1  0  0  0  0
 54 62  1  0  0  0  0
 55 62  1  0  0  0  0
 56 63  1  0  0  0  0
 57 63  1  0  0  0  0
 58 63  1  0  0  0  0
 59 73  1  0  0  0  0
 60 63  1  0  0  0  0
 60 72  1  0  0  0  0
 61 73  1  0  0  0  0
 62 80  1  0  0  0  0
 64 65  1  0  0  0  0
M  CHG  1  73   1
M  ISO  4  38 100  62 101  70 100  80 101
M  END
> <Batch ID>
0018

> <Smiles>
CNC(C)C(=O)NC(C(=O)N1Cc2cc([101O:1][101C:1](C)(C)c3cc(C)c([100NH:0][100C:0](=O)N4CCCC(n5nc(-c6ccc(Oc7ccc(F)cc7F)cc6)c(C(N)=O)c5N)C4)c(C)c3)ccc2CC1C(=O)NC1CCCc2ccccc21)C(C)(C)C

> <Shape>
0.243

> <Color>
0.070

> <Negative vol penalty>
0.000

$$$$

  -OEChem-04052316043D

 81 89  0     1  0  0  0  0  0999 V2000
  -17.5790  -27.4854   20.2624 C   0  0  0  0  0  0  0  0  0  0  0  0
  -18.8904  -27.3623   19.8145 C   0  0  0  0  0  0  0  0  0  0  0  0
  -26.2770  -12.4479   21.7194 C   0  0  0  0  0  0  0  0  0  0  0  0
  -25.8550  -13.5923   19.6339 C   0  0  0  0  0  0  0  0  0  0  0  0
  -17.2768  -28.3711   21.2959 C   0  0  0  0  0  0  0  0  0  0  0  0
  -19.9002  -28.1258   20.3991 C   0  0  0  0  0  0  0  0  0  0  0  0
  -24.0645  -25.4158   21.3788 C   0  0  0  0  0  0  0  0  0  0  0  0
  -25.0734  -11.7562   21.5834 C   0  0  0  0  0  0  0  0  0  0  0  0
  -24.6514  -12.9006   19.4979 C   0  0  0  0  0  0  0  0  0  0  0  0
  -24.9084  -25.1348   20.3052 C   0  0  0  0  0  0  0  0  0  0  0  0
  -23.9090   -9.1013   19.8431 C   0  0  0  0  0  0  0  0  0  0  0  0
  -23.9167   -7.7302   20.0991 C   0  0  0  0  0  0  0  0  0  0  0  0
  -26.3655  -26.9320   20.9880 C   0  0  0  0  0  0  0  0  0  0  0  0
  -22.2932   -8.0497   21.8596 C   0  0  0  0  0  0  0  0  0  0  0  0
  -29.1248  -22.9066   19.9519 C   0  0  0  0  0  0  0  0  0  0  0  0
  -26.6678  -13.3660   20.7447 C   0  0  0  0  0  0  0  0  0  0  0  0
  -29.1766  -13.6866   20.4120 C   0  0  0  0  0  0  0  0  0  0  0  0
  -18.2850  -29.1387   21.9000 C   0  0  0  0  0  0  0  0  0  0  0  0
  -24.3595  -26.4658   22.2602 C   0  0  0  0  0  0  0  0  0  0  0  0
  -19.6110  -29.0236   21.4408 C   0  0  0  0  0  0  0  0  0  0  0  0
  -25.5250  -27.2227   22.0734 C   0  0  0  0  0  0  0  0  0  0  0  0
  -24.2606  -11.9825   20.4727 C   0  0  0  0  0  0  0  0  0  0  0  0
  -26.0576  -25.8947   20.1080 C   0  0  0  0  0  0  0  0  0  0  0  0
  -23.0933   -9.9467   20.5954 C   0  0  0  0  0  0  0  0  0  0  0  0
  -23.1088   -7.2044   21.1073 C   0  0  0  0  0  0  0  0  0  0  0  0
  -22.2854   -9.4208   21.6036 C   0  0  0  0  0  0  0  0  0  0  0  0
  -27.9108  -14.0812   20.8849 C   0  0  0  0  0  0  0  0  0  0  0  0
  -28.9166  -23.5176   18.7009 C   0  0  0  0  0  0  0  0  0  0  0  0
  -28.7832  -21.5912   19.7526 C   0  0  0  0  0  0  0  0  0  0  0  0
  -30.0186  -14.7010   20.7973 C   0  0  0  0  0  0  0  0  0  0  0  0
  -29.5573  -12.5084   19.6890 C   0  0  0  0  0  0  0  0  0  0  0  0
  -22.9189  -29.1781   23.0799 C   0  0  0  0  0  0  0  0  0  0  0  0
  -25.3255  -29.3460   25.2484 C   0  0  0  0  0  0  0  0  0  0  0  0
  -28.4891  -28.4296   26.1422 C   0  0  0  0  0  0  0  0  0  0  0  0
  -29.1550  -20.4923   21.9888 C   0  0  0  0  0  0  0  0  0  0  0  0
  -17.9024  -30.1174   22.9819 C   0  0  0  0  0  0  0  0  0  0  0  0
  -23.4529  -26.7391   23.4289 C   0  0  0  0  0  0  0  0  0  0  0  0
  -25.8973  -28.3478   23.0029 C   0  0  0  0  0  0  0  0  0  0  0  0
  -19.0905  -30.6149   23.8012 C   0  0  0  0  0  0  0  0  0  0  0  0
  -30.5431  -18.0518   24.1783 C   0  0  0  0  0  0  0  0  0  0  0  0
  -20.2414  -31.0152   22.8836 C   0  0  0  0  0  0  0  0  0  0  0  0
  -30.1460  -16.7207   23.5359 C   0  0  0  0  0  0  0  0  0  0  0  0
  -29.4452  -19.1035   24.0289 C   0  0  0  0  0  0  0  0  0  0  0  0
  -28.5762  -17.9863   22.0124 C   0  0  0  0  0  0  0  0  0  0  0  0
  -20.7380  -29.8164   22.0664 C   0  0  1  0  0  0  0  0  0  0  0  0
  -23.5819  -28.1613   23.9654 C   0  0  1  0  0  0  0  0  0  0  0  0
  -29.6768  -16.9150   22.0807 C   0  0  2  0  0  0  0  0  0  0  0  0
  -30.1970  -28.7548   27.9518 C   0  0  0  0  0  0  0  0  0  0  0  0
  -28.8056  -25.3233   16.8553 C   0  0  0  0  0  0  0  0  0  0  0  0
  -30.6249  -25.3556   18.5484 C   0  0  0  0  0  0  0  0  0  0  0  0
  -25.9392  -32.1317   24.1652 C   0  0  0  0  0  0  0  0  0  0  0  0
  -28.1652  -32.0083   25.3046 C   0  0  0  0  0  0  0  0  0  0  0  0
  -26.0689  -31.9283   26.6545 C   0  0  0  0  0  0  0  0  0  0  0  0
  -27.9569  -20.3129   17.7510 C   0  0  0  0  0  0  0  0  0  0  0  0
  -28.5292  -25.5407   26.7838 C   0  0  0  0  0  0  0  0  0  0  0  0
  -28.2695  -25.9111   19.2344 C   0  0  0  0  0  0  0  0  0  1  0  0
  -26.7196  -29.9253   25.2557 C   0  0  1  0  0  0  0  0  0  0  0  0
  -29.0517  -27.8918   27.4456 C   0  0  2  0  0  0  0  0  0  0  0  0
  -29.1368  -24.9966   18.3314 C   0  0  0  0  0  0  0  0  0  0  0  0
  -26.7155  -31.4785   25.3262 C   0  0  0  0  0  0  0  0  0  0  0  0
  -27.9412  -15.2547   21.5221 N   0  0  0  0  0  0  0  0  0  0  0  0
  -28.4770  -22.6609   17.7753 N   0  0  0  0  0  0  0  0  0  0  0  0
  -29.2365  -15.6061   21.4524 N   0  0  0  0  0  0  0  0  0  0  0  0
  -28.4062  -21.4980   18.4452 N   0  0  0  0  0  0  0  0  0  0  0  0
  -24.9757  -28.5801   24.1273 N   0  0  0  0  0  0  0  0  0  0  0  0
  -29.0545  -19.2363   22.6237 N   0  0  0  0  0  0  0  0  0  0  0  0
  -31.3444  -14.8981   20.6364 N   0  0  0  0  0  0  0  0  0  0  0  0
  -28.5667  -11.5683   19.3744 N   0  0  0  0  0  0  0  0  0  0  0  0
  -28.7866  -20.4897   20.6439 N   0  0  0  0  0  0  0  0  0  0  0  0
  -21.5691  -28.9577   22.8827 N   0  0  0  0  0  0  0  0  0  0  0  0
  -27.4244  -29.2790   26.3574 N   0  0  0  0  0  0  0  0  0  0  0  0
  -29.5574  -26.5027   27.2574 N   0  3  0  0  0  0  0  0  0  0  0  0
  -30.7438  -12.2879   19.3468 O   0  0  0  0  0  0  0  0  0  0  0  0
  -23.5825  -30.0957   22.6114 O   0  0  0  0  0  0  0  0  0  0  0  0
  -24.5771  -29.5590   26.2055 O   0  0  0  0  0  0  0  0  0  0  0  0
  -28.9505  -28.1293   25.0434 O   0  0  0  0  0  0  0  0  0  0  0  0
  -29.5655  -21.4905   22.5864 O   0  0  0  0  0  0  0  0  0  0  0  0
  -23.0862  -11.3076   20.3395 O   0  0  0  0  0  0  0  0  0  0  0  0
  -26.8828  -25.6230   19.0606 O   0  0  0  0  0  0  0  0  0  1  0  0
  -23.1152   -5.8874   21.3520 F   0  0  0  0  0  0  0  0  0  0  0  0
  -21.4989  -10.2278   22.3288 F   0  0  0  0  0  0  0  0  0  0  0  0
  1  2  1  0  0  0  0
  1  5  2  0  0  0  0
  2  6  2  0  0  0  0
  3  8  2  0  0  0  0
  3 16  1  0  0  0  0
  4  9  1  0  0  0  0
  4 16  2  0  0  0  0
  5 18  1  0  0  0  0
  6 20  1  0  0  0  0
  7 10  2  0  0  0  0
  7 19  1  0  0  0  0
  8 22  1  0  0  0  0
  9 22  2  0  0  0  0
 10 23  1  0  0  0  0
 11 12  2  0  0  0  0
 11 24  1  0  0  0  0
 12 25  1  0  0  0  0
 13 21  1  0  0  0  0
 13 23  2  0  0  0  0
 14 25  2  0  0  0  0
 14 26  1  0  0  0  0
 15 28  1  0  0  0  0
 15 29  2  0  0  0  0
 16 27  1  0  0  0  0
 17 27  1  0  0  0  0
 17 30  2  0  0  0  0
 17 31  1  0  0  0  0
 18 20  2  0  0  0  0
 18 36  1  0  0  0  0
 19 21  2  0  0  0  0
 19 37  1  0  0  0  0
 20 45  1  0  0  0  0
 21 38  1  0  0  0  0
 22 78  1  0  0  0  0
 23 79  1  0  0  0  0
 24 26  2  0  0  0  0
 24 78  1  0  0  0  0
 25 80  1  0  0  0  0
 26 81  1  0  0  0  0
 27 61  2  0  0  0  0
 28 59  1  0  0  0  0
 28 62  2  0  0  0  0
 29 64  1  0  0  0  0
 29 69  1  0  0  0  0
 30 63  1  0  0  0  0
 30 67  1  0  0  0  0
 31 68  1  0  0  0  0
 31 73  2  0  0  0  0
 32 46  1  0  0  0  0
 32 70  1  0  0  0  0
 32 74  2  0  0  0  0
 33 57  1  0  0  0  0
 33 65  1  0  0  0  0
 33 75  2  0  0  0  0
 34 58  1  0  0  0  0
 34 71  1  0  0  0  0
 34 76  2  0  0  0  0
 35 66  1  0  0  0  0
 35 69  1  0  0  0  0
 35 77  2  0  0  0  0
 36 39  1  0  0  0  0
 37 46  1  0  0  0  0
 38 65  1  0  0  0  0
 39 41  1  0  0  0  0
 40 42  1  0  0  0  0
 40 43  1  0  0  0  0
 41 45  1  0  0  0  0
 42 47  1  0  0  0  0
 43 66  1  0  0  0  0
 44 47  1  0  0  0  0
 44 66  1  0  0  0  0
 45 70  1  0  0  0  0
 46 65  1  0  0  0  0
 47 63  1  0  0  0  0
 48 58  1  0  0  0  0
 49 59  1  0  0  0  0
 50 59  1  0  0  0  0
 51 60  1  0  0  0  0
 52 60  1  0  0  0  0
 53 60  1  0  0  0  0
 54 64  1  0  0  0  0
 55 72  1  0  0  0  0
 56 59  1  0  0  0  0
 56 79  1  0  0  0  0
 57 60  1  0  0  0  0
 57 71  1  0  0  0  0
 58 72  1  0  0  0  0
 61 63  1  0  0  0  0
 62 64  1  0  0  0  0
M  CHG  1  72   1
M  ISO  4  35 100  56 101  69 100  79 101
M  END
> <Batch ID>
0018

> <Smiles>
CNC(C)C(=O)NC(C(=O)N1Cc2cc([101O:1][101CH2:1]C(C)(C)c3cc([100NH:0][100C:0](=O)N4CCCC(n5nc(-c6ccc(Oc7ccc(F)cc7F)cc6)c(C(N)=O)c5N)C4)n(C)n3)ccc2CC1C(=O)NC1CCCc2ccccc21)C(C)(C)C

> <Shape>
0.300

> <Color>
0.076

> <Negative vol penalty>
0.000

$$$$

  -OEChem-04052316043D

 81 89  0     1  0  0  0  0  0999 V2000
  -39.3995  -26.6476   17.5011 C   0  0  0  0  0  0  0  0  0  0  0  0
  -38.5365  -25.8462   18.2416 C   0  0  0  0  0  0  0  0  0  0  0  0
  -22.9442   -9.9851   19.9971 C   0  0  0  0  0  0  0  0  0  0  0  0
  -23.6937   -9.9915   22.2939 C   0  0  0  0  0  0  0  0  0  0  0  0
  -39.1407  -28.0111   17.3678 C   0  0  0  0  0  0  0  0  0  0  0  0
  -37.4149  -26.4081   18.8504 C   0  0  0  0  0  0  0  0  0  0  0  0
  -33.2438  -23.6119   18.1958 C   0  0  0  0  0  0  0  0  0  0  0  0
  -22.1512   -8.8679   20.2590 C   0  0  0  0  0  0  0  0  0  0  0  0
  -22.9006   -8.8743   22.5558 C   0  0  0  0  0  0  0  0  0  0  0  0
  -33.1034  -22.4803   18.9981 C   0  0  0  0  0  0  0  0  0  0  0  0
  -21.3514   -5.8074   23.7407 C   0  0  0  0  0  0  0  0  0  0  0  0
  -21.9184   -4.7684   24.4786 C   0  0  0  0  0  0  0  0  0  0  0  0
  -31.6105  -23.7007   20.4476 C   0  0  0  0  0  0  0  0  0  0  0  0
  -23.6207   -4.4953   22.7861 C   0  0  0  0  0  0  0  0  0  0  0  0
  -32.4730  -18.2618   21.8999 C   0  0  0  0  0  0  0  0  0  0  0  0
  -23.7156  -10.5468   21.0146 C   0  0  0  0  0  0  0  0  0  0  0  0
  -24.1644  -13.0534   20.8620 C   0  0  0  0  0  0  0  0  0  0  0  0
  -38.0101  -28.5883   17.9672 C   0  0  0  0  0  0  0  0  0  0  0  0
  -32.5760  -24.8016   18.5200 C   0  0  0  0  0  0  0  0  0  0  0  0
  -37.1415  -27.7809   18.7261 C   0  0  0  0  0  0  0  0  0  0  0  0
  -31.7421  -24.8452   19.6464 C   0  0  0  0  0  0  0  0  0  0  0  0
  -31.7815  -19.1553   22.7019 C   0  0  0  0  0  0  0  0  0  0  0  0
  -30.4980  -18.8072   23.1076 C   0  0  0  0  0  0  0  0  0  0  0  0
  -29.9528  -17.5933   22.7045 C   0  0  0  0  0  0  0  0  0  0  0  0
  -22.1293   -8.3125   21.5383 C   0  0  0  0  0  0  0  0  0  0  0  0
  -32.2890  -22.5255   20.1258 C   0  0  0  0  0  0  0  0  0  0  0  0
  -21.9190   -6.1903   22.5254 C   0  0  0  0  0  0  0  0  0  0  0  0
  -23.0530   -4.1124   24.0014 C   0  0  0  0  0  0  0  0  0  0  0  0
  -23.0537   -5.5343   22.0482 C   0  0  0  0  0  0  0  0  0  0  0  0
  -24.5354  -11.7005   20.7445 C   0  0  0  0  0  0  0  0  0  0  0  0
  -30.7260  -16.7697   21.9022 C   0  0  0  0  0  0  0  0  0  0  0  0
  -25.2889  -13.7510   20.4940 C   0  0  0  0  0  0  0  0  0  0  0  0
  -22.9151  -13.6281   21.2676 C   0  0  0  0  0  0  0  0  0  0  0  0
  -33.4879  -27.7510   19.2770 C   0  0  0  0  0  0  0  0  0  0  0  0
  -30.3033  -28.3525   19.1393 C   0  0  0  0  0  0  0  0  0  0  0  0
  -27.1162  -27.1480   19.3356 C   0  0  0  0  0  0  0  0  0  0  0  0
  -30.7936  -14.5671   20.6815 C   0  0  0  0  0  0  0  0  0  0  0  0
  -37.7976  -30.0755   17.8346 C   0  0  0  0  0  0  0  0  0  0  0  0
  -32.7169  -26.0055   17.6294 C   0  0  0  0  0  0  0  0  0  0  0  0
  -30.9875  -26.0920   20.0266 C   0  0  0  0  0  0  0  0  0  0  0  0
  -36.3846  -30.5238   18.1988 C   0  0  0  0  0  0  0  0  0  0  0  0
  -29.5884  -12.1702   18.3407 C   0  0  0  0  0  0  0  0  0  0  0  0
  -35.9396  -29.8767   19.5065 C   0  0  0  0  0  0  0  0  0  0  0  0
  -28.1359  -11.9456   18.7671 C   0  0  0  0  0  0  0  0  0  0  0  0
  -30.5071  -12.3766   19.5436 C   0  0  0  0  0  0  0  0  0  0  0  0
  -28.6265  -13.1999   20.9055 C   0  0  0  0  0  0  0  0  0  0  0  0
  -35.9009  -28.3489   19.3808 C   0  0  1  0  0  0  0  0  0  0  0  0
  -32.3958  -27.3161   18.3412 C   0  0  1  0  0  0  0  0  0  0  0  0
  -27.6524  -13.0517   19.7254 C   0  0  2  0  0  0  0  0  0  0  0  0
  -29.7101  -19.7370   23.9740 C   0  0  0  0  0  0  0  0  0  0  0  0
  -28.5760  -17.1999   23.1290 C   0  0  0  0  0  0  0  0  0  0  0  0
  -24.7207  -27.8863   19.2191 C   0  0  0  0  0  0  0  0  0  0  0  0
  -30.5298  -29.5225   21.9481 C   0  0  0  0  0  0  0  0  0  0  0  0
  -28.0390  -29.3589   22.1417 C   0  0  0  0  0  0  0  0  0  0  0  0
  -29.0593  -30.8175   20.3940 C   0  0  0  0  0  0  0  0  0  0  0  0
  -26.5757  -25.4176   16.9963 C   0  0  0  0  0  0  0  0  0  0  0  0
  -32.4243  -20.4591   23.1085 C   0  0  0  0  0  0  0  0  0  0  0  0
  -31.9012  -21.6407   22.2990 C   0  0  0  0  0  0  0  0  0  1  0  0
  -29.1627  -28.3055   20.1271 C   0  0  1  0  0  0  0  0  0  0  0  0
  -25.9079  -27.3449   18.4380 C   0  0  2  0  0  0  0  0  0  0  0  0
  -29.2133  -29.4781   21.1469 C   0  0  0  0  0  0  0  0  0  0  0  0
  -31.9765  -17.0737   21.4881 N   0  0  0  0  0  0  0  0  0  0  0  0
  -25.7969  -11.5456   20.3338 N   0  0  0  0  0  0  0  0  0  0  0  0
  -26.2284  -12.8102   20.1900 N   0  0  0  0  0  0  0  0  0  0  0  0
  -31.1627  -27.2448   19.1278 N   0  0  0  0  0  0  0  0  0  0  0  0
  -29.9884  -13.4421   20.4042 N   0  0  0  0  0  0  0  0  0  0  0  0
  -25.5557  -15.0713   20.4040 N   0  0  0  0  0  0  0  0  0  0  0  0
  -21.8642  -12.7672   21.6122 N   0  0  0  0  0  0  0  0  0  0  0  0
  -30.1824  -15.5298   21.4841 N   0  0  0  0  0  0  0  0  0  0  0  0
  -34.7142  -27.9305   18.6659 N   0  0  0  0  0  0  0  0  0  0  0  0
  -27.9386  -28.2548   19.3351 N   0  0  0  0  0  0  0  0  0  0  0  0
  -25.5097  -26.0513   17.8143 N   0  3  0  0  0  0  0  0  0  0  0  0
  -22.7309  -14.8683   21.3071 O   0  0  0  0  0  0  0  0  0  0  0  0
  -33.2363  -27.9133   20.4653 O   0  0  0  0  0  0  0  0  0  0  0  0
  -30.4230  -29.3327   18.4000 O   0  0  0  0  0  0  0  0  0  0  0  0
  -27.3092  -26.1171   19.9763 O   0  0  0  0  0  0  0  0  0  0  0  0
  -31.9308  -14.6815   20.2172 O   0  0  0  0  0  0  0  0  0  0  0  0
  -21.3554   -7.2226   21.7943 O   0  0  0  0  0  0  0  0  0  0  0  0
  -32.1507  -21.4227   20.9110 O   0  0  0  0  0  0  0  0  0  1  0  0
  -23.5983   -3.1157   24.7109 F   0  0  0  0  0  0  0  0  0  0  0  0
  -23.6041   -5.8985   20.8819 F   0  0  0  0  0  0  0  0  0  0  0  0
  1  2  1  0  0  0  0
  1  5  2  0  0  0  0
  2  6  2  0  0  0  0
  3  8  2  0  0  0  0
  3 16  1  0  0  0  0
  4  9  1  0  0  0  0
  4 16  2  0  0  0  0
  5 18  1  0  0  0  0
  6 20  1  0  0  0  0
  7 10  2  0  0  0  0
  7 19  1  0  0  0  0
  8 25  1  0  0  0  0
  9 25  2  0  0  0  0
 10 26  1  0  0  0  0
 11 12  2  0  0  0  0
 11 27  1  0  0  0  0
 12 28  1  0  0  0  0
 13 21  1  0  0  0  0
 13 26  2  0  0  0  0
 14 28  2  0  0  0  0
 14 29  1  0  0  0  0
 15 22  1  0  0  0  0
 15 62  2  0  0  0  0
 16 30  1  0  0  0  0
 17 30  1  0  0  0  0
 17 32  2  0  0  0  0
 17 33  1  0  0  0  0
 18 20  2  0  0  0  0
 18 38  1  0  0  0  0
 19 21  2  0  0  0  0
 19 39  1  0  0  0  0
 20 47  1  0  0  0  0
 21 40  1  0  0  0  0
 22 23  2  0  0  0  0
 22 57  1  0  0  0  0
 23 24  1  0  0  0  0
 23 50  1  0  0  0  0
 24 31  2  0  0  0  0
 24 51  1  0  0  0  0
 25 78  1  0  0  0  0
 26 79  1  0  0  0  0
 27 29  2  0  0  0  0
 27 78  1  0  0  0  0
 28 80  1  0  0  0  0
 29 81  1  0  0  0  0
 30 63  2  0  0  0  0
 31 62  1  0  0  0  0
 31 69  1  0  0  0  0
 32 64  1  0  0  0  0
 32 67  1  0  0  0  0
 33 68  1  0  0  0  0
 33 73  2  0  0  0  0
 34 48  1  0  0  0  0
 34 70  1  0  0  0  0
 34 74  2  0  0  0  0
 35 59  1  0  0  0  0
 35 65  1  0  0  0  0
 35 75  2  0  0  0  0
 36 60  1  0  0  0  0
 36 71  1  0  0  0  0
 36 76  2  0  0  0  0
 37 66  1  0  0  0  0
 37 69  1  0  0  0  0
 37 77  2  0  0  0  0
 38 41  1  0  0  0  0
 39 48  1  0  0  0  0
 40 65  1  0  0  0  0
 41 43  1  0  0  0  0
 42 44  1  0  0  0  0
 42 45  1  0  0  0  0
 43 47  1  0  0  0  0
 44 49  1  0  0  0  0
 45 66  1  0  0  0  0
 46 49  1  0  0  0  0
 46 66  1  0  0  0  0
 47 70  1  0  0  0  0
 48 65  1  0  0  0  0
 49 64  1  0  0  0  0
 52 60  1  0  0  0  0
 53 61  1  0  0  0  0
 54 61  1  0  0  0  0
 55 61  1  0  0  0  0
 56 72  1  0  0  0  0
 57 58  1  0  0  0  0
 58 79  1  0  0  0  0
 59 61  1  0  0  0  0
 59 71  1  0  0  0  0
 60 72  1  0  0  0  0
 63 64  1  0  0  0  0
M  CHG  1  72   1
M  ISO  4  37 100  58 101  69 100  79 101
M  END
> <Batch ID>
0018

> <Smiles>
CNC(C)C(=O)NC(C(=O)N1Cc2cc([101O:1][101CH2:1]Cc3cnc([100NH:0][100C:0](=O)N4CCCC(n5nc(-c6ccc(Oc7ccc(F)cc7F)cc6)c(C(N)=O)c5N)C4)c(C)c3C)ccc2CC1C(=O)NC1CCCc2ccccc21)C(C)(C)C

> <Shape>
0.250

> <Color>
0.206

> <Negative vol penalty>
0.000

$$$$

  -OEChem-04052316043D

 81 89  0     1  0  0  0  0  0999 V2000
  -23.2758  -26.4751   20.6480 C   0  0  0  0  0  0  0  0  0  0  0  0
  -24.3180  -25.5606   20.7616 C   0  0  0  0  0  0  0  0  0  0  0  0
  -23.0466   -9.7892   19.9796 C   0  0  0  0  0  0  0  0  0  0  0  0
  -23.7406   -9.8969   22.2913 C   0  0  0  0  0  0  0  0  0  0  0  0
  -23.5532  -27.8201   20.4074 C   0  0  0  0  0  0  0  0  0  0  0  0
  -25.6383  -25.9904   20.6336 C   0  0  0  0  0  0  0  0  0  0  0  0
  -28.6717  -24.0324   24.1846 C   0  0  0  0  0  0  0  0  0  0  0  0
  -22.3000   -8.6442   20.2571 C   0  0  0  0  0  0  0  0  0  0  0  0
  -22.9939   -8.7519   22.5688 C   0  0  0  0  0  0  0  0  0  0  0  0
  -29.0912  -22.7147   24.0077 C   0  0  0  0  0  0  0  0  0  0  0  0
  -23.3123   -5.4107   22.1616 C   0  0  0  0  0  0  0  0  0  0  0  0
  -23.9106   -4.4197   22.9397 C   0  0  0  0  0  0  0  0  0  0  0  0
  -31.2070  -23.5079   23.1631 C   0  0  0  0  0  0  0  0  0  0  0  0
  -32.2908  -17.2544   23.9199 C   0  0  0  0  0  0  0  0  0  0  0  0
  -22.1605   -4.6574   24.5883 C   0  0  0  0  0  0  0  0  0  0  0  0
  -23.7670  -10.4156   20.9967 C   0  0  0  0  0  0  0  0  0  0  0  0
  -24.1033  -12.9349   20.7793 C   0  0  0  0  0  0  0  0  0  0  0  0
  -24.8780  -28.2683   20.2860 C   0  0  0  0  0  0  0  0  0  0  0  0
  -29.5140  -25.0997   23.8413 C   0  0  0  0  0  0  0  0  0  0  0  0
  -25.9337  -27.3425   20.3899 C   0  0  0  0  0  0  0  0  0  0  0  0
  -30.7968  -24.8383   23.3390 C   0  0  0  0  0  0  0  0  0  0  0  0
  -31.6745  -18.4887   24.1256 C   0  0  0  0  0  0  0  0  0  0  0  0
  -30.4966  -18.8018   23.4474 C   0  0  0  0  0  0  0  0  0  0  0  0
  -30.5512  -16.6463   22.3574 C   0  0  0  0  0  0  0  0  0  0  0  0
  -22.2736   -8.1255   21.5517 C   0  0  0  0  0  0  0  0  0  0  0  0
  -30.3579  -22.4522   23.4942 C   0  0  0  0  0  0  0  0  0  0  0  0
  -22.1381   -6.0252   22.5969 C   0  0  0  0  0  0  0  0  0  0  0  0
  -23.3347   -4.0430   24.1530 C   0  0  0  0  0  0  0  0  0  0  0  0
  -21.5622   -5.6485   23.8102 C   0  0  0  0  0  0  0  0  0  0  0  0
  -31.7292  -16.3332   23.0357 C   0  0  0  0  0  0  0  0  0  0  0  0
  -29.9349  -17.8806   22.5632 C   0  0  0  0  0  0  0  0  0  0  0  0
  -24.5390  -11.5981   20.7106 C   0  0  0  0  0  0  0  0  0  0  0  0
  -25.2028  -13.6735   20.4156 C   0  0  0  0  0  0  0  0  0  0  0  0
  -22.8196  -13.4621   21.1396 C   0  0  0  0  0  0  0  0  0  0  0  0
  -29.3609  -27.4990   21.7620 C   0  0  0  0  0  0  0  0  0  0  0  0
  -32.0970  -28.4336   23.2324 C   0  0  0  0  0  0  0  0  0  0  0  0
  -34.8421  -27.5680   25.0660 C   0  0  0  0  0  0  0  0  0  0  0  0
  -30.6580  -14.7513   20.7010 C   0  0  0  0  0  0  0  0  0  0  0  0
  -25.1266  -29.7238   19.9790 C   0  0  0  0  0  0  0  0  0  0  0  0
  -29.0568  -26.5153   24.0633 C   0  0  0  0  0  0  0  0  0  0  0  0
  -31.7469  -25.9485   22.9740 C   0  0  0  0  0  0  0  0  0  0  0  0
  -26.5675  -30.1615   20.2291 C   0  0  0  0  0  0  0  0  0  0  0  0
  -29.6202  -12.2341   18.4067 C   0  0  0  0  0  0  0  0  0  0  0  0
  -27.5433  -29.1532   19.6308 C   0  0  0  0  0  0  0  0  0  0  0  0
  -28.1699  -11.9542   18.8072 C   0  0  0  0  0  0  0  0  0  0  0  0
  -30.4998  -12.5179   19.6231 C   0  0  0  0  0  0  0  0  0  0  0  0
  -28.5516  -13.2912   20.9176 C   0  0  0  0  0  0  0  0  0  0  0  0
  -27.3800  -27.7744   20.2817 C   0  0  1  0  0  0  0  0  0  0  0  0
  -29.8023  -27.5267   23.1979 C   0  0  1  0  0  0  0  0  0  0  0  0
  -27.6135  -13.0637   19.7210 C   0  0  2  0  0  0  0  0  0  0  0  0
  -32.2986  -19.4566   25.0776 C   0  0  0  0  0  0  0  0  0  0  0  0
  -36.9191  -28.5423   26.0829 C   0  0  0  0  0  0  0  0  0  0  0  0
  -33.3967  -28.5364   20.4737 C   0  0  0  0  0  0  0  0  0  0  0  0
  -35.6303  -28.5720   21.6041 C   0  0  0  0  0  0  0  0  0  0  0  0
  -34.0107  -30.4301   21.9874 C   0  0  0  0  0  0  0  0  0  0  0  0
  -33.9973  -26.8128   27.8000 C   0  0  0  0  0  0  0  0  0  0  0  0
  -29.8525  -20.1361   23.6841 C   0  0  0  0  0  0  0  0  0  1  0  0
  -33.5681  -28.1667   23.0232 C   0  0  1  0  0  0  0  0  0  0  0  0
  -35.4585  -28.1841   26.3089 C   0  0  2  0  0  0  0  0  0  0  0  0
  -34.1331  -28.9052   21.7771 C   0  0  0  0  0  0  0  0  0  0  0  0
  -25.8156  -11.4905   20.3328 N   0  0  0  0  0  0  0  0  0  0  0  0
  -26.1915  -12.7693   20.1608 N   0  0  0  0  0  0  0  0  0  0  0  0
  -31.2513  -27.3157   23.2033 N   0  0  0  0  0  0  0  0  0  0  0  0
  -29.9124  -13.5823   20.4396 N   0  0  0  0  0  0  0  0  0  0  0  0
  -25.4105  -15.0016   20.2921 N   0  0  0  0  0  0  0  0  0  0  0  0
  -21.8016  -12.5632   21.4863 N   0  0  0  0  0  0  0  0  0  0  0  0
  -29.9843  -15.7071   21.4606 N   0  0  0  0  0  0  0  0  0  0  0  0
  -28.0142  -27.7512   21.5824 N   0  0  0  0  0  0  0  0  0  0  0  0
  -34.2287  -28.5171   24.2759 N   0  0  0  0  0  0  0  0  0  0  0  0
  -35.3796  -27.2320   27.4526 N   0  3  0  0  0  0  0  0  0  0  0  0
  -22.5775  -14.6929   21.1379 O   0  0  0  0  0  0  0  0  0  0  0  0
  -30.1816  -27.2674   20.8819 O   0  0  0  0  0  0  0  0  0  0  0  0
  -31.7133  -29.5906   23.4219 O   0  0  0  0  0  0  0  0  0  0  0  0
  -34.9023  -26.3656   24.8186 O   0  0  0  0  0  0  0  0  0  0  0  0
  -31.7994  -14.9054   20.2589 O   0  0  0  0  0  0  0  0  0  0  0  0
  -21.5449   -7.0084   21.8229 O   0  0  0  0  0  0  0  0  0  0  0  0
  -30.7696  -21.1669   23.3199 O   0  0  0  0  0  0  0  0  0  1  0  0
  -23.9085   -3.0901   24.8993 F   0  0  0  0  0  0  0  0  0  0  0  0
  -20.4336   -6.2344   24.2330 F   0  0  0  0  0  0  0  0  0  0  0  0
  -32.5306  -14.8177   22.8149 Cl  0  0  0  0  0  0  0  0  0  0  0  0
  -28.4693  -18.2783   21.7231 Cl  0  0  0  0  0  0  0  0  0  0  0  0
  1  2  1  0  0  0  0
  1  5  2  0  0  0  0
  2  6  2  0  0  0  0
  3  8  2  0  0  0  0
  3 16  1  0  0  0  0
  4  9  1  0  0  0  0
  4 16  2  0  0  0  0
  5 18  1  0  0  0  0
  6 20  1  0  0  0  0
  7 10  2  0  0  0  0
  7 19  1  0  0  0  0
  8 25  1  0  0  0  0
  9 25  2  0  0  0  0
 10 26  1  0  0  0  0
 11 12  2  0  0  0  0
 11 27  1  0  0  0  0
 12 28  1  0  0  0  0
 13 21  1  0  0  0  0
 13 26  2  0  0  0  0
 14 22  2  0  0  0  0
 14 30  1  0  0  0  0
 15 28  2  0  0  0  0
 15 29  1  0  0  0  0
 16 32  1  0  0  0  0
 17 32  1  0  0  0  0
 17 33  2  0  0  0  0
 17 34  1  0  0  0  0
 18 20  2  0  0  0  0
 18 39  1  0  0  0  0
 19 21  2  0  0  0  0
 19 40  1  0  0  0  0
 20 48  1  0  0  0  0
 21 41  1  0  0  0  0
 22 23  1  0  0  0  0
 22 51  1  0  0  0  0
 23 31  2  0  0  0  0
 23 57  1  0  0  0  0
 24 30  2  0  0  0  0
 24 31  1  0  0  0  0
 24 67  1  0  0  0  0
 25 76  1  0  0  0  0
 26 77  1  0  0  0  0
 27 29  2  0  0  0  0
 27 76  1  0  0  0  0
 28 78  1  0  0  0  0
 29 79  1  0  0  0  0
 30 80  1  0  0  0  0
 31 81  1  0  0  0  0
 32 61  2  0  0  0  0
 33 62  1  0  0  0  0
 33 65  1  0  0  0  0
 34 66  1  0  0  0  0
 34 71  2  0  0  0  0
 35 49  1  0  0  0  0
 35 68  1  0  0  0  0
 35 72  2  0  0  0  0
 36 58  1  0  0  0  0
 36 63  1  0  0  0  0
 36 73  2  0  0  0  0
 37 59  1  0  0  0  0
 37 69  1  0  0  0  0
 37 74  2  0  0  0  0
 38 64  1  0  0  0  0
 38 67  1  0  0  0  0
 38 75  2  0  0  0  0
 39 42  1  0  0  0  0
 40 49  1  0  0  0  0
 41 63  1  0  0  0  0
 42 44  1  0  0  0  0
 43 45  1  0  0  0  0
 43 46  1  0  0  0  0
 44 48  1  0  0  0  0
 45 50  1  0  0  0  0
 46 64  1  0  0  0  0
 47 50  1  0  0  0  0
 47 64  1  0  0  0  0
 48 68  1  0  0  0  0
 49 63  1  0  0  0  0
 50 62  1  0  0  0  0
 52 59  1  0  0  0  0
 53 60  1  0  0  0  0
 54 60  1  0  0  0  0
 55 60  1  0  0  0  0
 56 70  1  0  0  0  0
 57 77  1  0  0  0  0
 58 60  1  0  0  0  0
 58 69  1  0  0  0  0
 59 70  1  0  0  0  0
 61 62  1  0  0  0  0
M  CHG  1  70   1
M  ISO  4  38 100  57 101  67 100  77 101
M  END
> <Batch ID>
0018

> <Smiles>
CNC(C)C(=O)NC(C(=O)N1Cc2cc([101O:1][101CH2:1]c3c(C)cc(Cl)c([100NH:0][100C:0](=O)N4CCCC(n5nc(-c6ccc(Oc7ccc(F)cc7F)cc6)c(C(N)=O)c5N)C4)c3Cl)ccc2CC1C(=O)NC1CCCc2ccccc21)C(C)(C)C

> <Shape>
0.244

> <Color>
0.226

> <Negative vol penalty>
0.000

$$$$

  -OEChem-04052316043D

 79 87  0     1  0  0  0  0  0999 V2000
  -28.4076  -33.9944   25.3144 C   0  0  0  0  0  0  0  0  0  0  0  0
  -28.4560  -32.6974   24.8136 C   0  0  0  0  0  0  0  0  0  0  0  0
  -24.8074  -13.8683   19.7417 C   0  0  0  0  0  0  0  0  0  0  0  0
  -27.1601  -13.3573   19.9437 C   0  0  0  0  0  0  0  0  0  0  0  0
  -27.1806  -34.5663   25.6479 C   0  0  0  0  0  0  0  0  0  0  0  0
  -27.2774  -31.9711   24.6471 C   0  0  0  0  0  0  0  0  0  0  0  0
  -27.0981  -29.5516   20.2020 C   0  0  0  0  0  0  0  0  0  0  0  0
  -24.5125  -12.5051   19.7271 C   0  0  0  0  0  0  0  0  0  0  0  0
  -26.8652  -11.9940   19.9291 C   0  0  0  0  0  0  0  0  0  0  0  0
  -27.8325  -28.3719   20.0891 C   0  0  0  0  0  0  0  0  0  0  0  0
  -24.2341   -9.9926   21.9727 C   0  0  0  0  0  0  0  0  0  0  0  0
  -23.1747   -9.5500   22.7647 C   0  0  0  0  0  0  0  0  0  0  0  0
  -25.8196  -27.0916   20.4474 C   0  0  0  0  0  0  0  0  0  0  0  0
  -22.0493   -8.7187   20.7950 C   0  0  0  0  0  0  0  0  0  0  0  0
  -28.6487  -22.8069   21.1195 C   0  0  0  0  0  0  0  0  0  0  0  0
  -26.1312  -14.2944   19.8499 C   0  0  0  0  0  0  0  0  0  0  0  0
  -26.5223  -16.5422   20.9912 C   0  0  0  0  0  0  0  0  0  0  0  0
  -25.9855  -33.8502   25.4763 C   0  0  0  0  0  0  0  0  0  0  0  0
  -25.7185  -29.5102   20.4497 C   0  0  0  0  0  0  0  0  0  0  0  0
  -26.0333  -32.5335   24.9799 C   0  0  0  0  0  0  0  0  0  0  0  0
  -25.0695  -28.2722   20.5605 C   0  0  0  0  0  0  0  0  0  0  0  0
  -25.5414  -11.5679   19.8208 C   0  0  0  0  0  0  0  0  0  0  0  0
  -27.1938  -27.1417   20.2147 C   0  0  0  0  0  0  0  0  0  0  0  0
  -24.2011   -9.7983   20.5918 C   0  0  0  0  0  0  0  0  0  0  0  0
  -22.0823   -8.9130   22.1759 C   0  0  0  0  0  0  0  0  0  0  0  0
  -23.1088   -9.1614   20.0029 C   0  0  0  0  0  0  0  0  0  0  0  0
  -29.5411  -21.8198   20.6101 C   0  0  0  0  0  0  0  0  0  0  0  0
  -26.4365  -15.7025   19.8645 C   0  0  0  0  0  0  0  0  0  0  0  0
  -28.1497  -23.6168   20.1232 C   0  0  0  0  0  0  0  0  0  0  0  0
  -29.6901  -21.9129   19.2437 C   0  0  0  0  0  0  0  0  0  0  0  0
  -26.8355  -17.7765   20.4765 C   0  0  0  0  0  0  0  0  0  0  0  0
  -26.3357  -16.2339   22.3789 C   0  0  0  0  0  0  0  0  0  0  0  0
  -23.8284  -30.5321   22.7922 C   0  0  0  0  0  0  0  0  0  0  0  0
  -29.8757  -20.9134   16.9828 C   0  0  0  0  0  0  0  0  0  0  0  0
  -21.4713  -29.5477   20.7929 C   0  0  0  0  0  0  0  0  0  0  0  0
  -20.5176  -27.5332   18.2085 C   0  0  0  0  0  0  0  0  0  0  0  0
  -24.6872  -34.4933   25.8953 C   0  0  0  0  0  0  0  0  0  0  0  0
  -24.9359  -30.7914   20.5422 C   0  0  0  0  0  0  0  0  0  0  0  0
  -23.5869  -28.1732   20.8064 C   0  0  0  0  0  0  0  0  0  0  0  0
  -23.4518  -33.7918   25.3367 C   0  0  0  0  0  0  0  0  0  0  0  0
  -26.8567  -19.4586   15.7143 C   0  0  0  0  0  0  0  0  0  0  0  0
  -23.5658  -32.2820   25.5219 C   0  0  0  0  0  0  0  0  0  0  0  0
  -26.5021  -18.4003   16.7581 C   0  0  0  0  0  0  0  0  0  0  0  0
  -28.3667  -19.5876   15.5407 C   0  0  0  0  0  0  0  0  0  0  0  0
  -28.7500  -18.8062   17.8568 C   0  0  0  0  0  0  0  0  0  0  0  0
  -24.7744  -31.7226   24.7617 C   0  0  1  0  0  0  0  0  0  0  0  0
  -23.6250  -30.6369   21.3072 C   0  0  1  0  0  0  0  0  0  0  0  0
  -27.2346  -18.6656   18.0853 C   0  0  2  0  0  0  0  0  0  0  0  0
  -31.9457  -21.6235   18.1390 C   0  0  0  0  0  0  0  0  0  0  0  0
  -18.5179  -26.9235   16.8204 C   0  0  0  0  0  0  0  0  0  0  0  0
  -20.3768  -27.8841   23.1047 C   0  0  0  0  0  0  0  0  0  0  0  0
  -19.0071  -26.6053   21.4444 C   0  0  0  0  0  0  0  0  0  0  0  0
  -18.6343  -29.0535   21.7444 C   0  0  0  0  0  0  0  0  0  0  0  0
  -21.8228  -28.4512   15.7160 C   0  0  0  0  0  0  0  0  0  0  0  0
  -27.1899  -24.7637   20.2449 C   0  0  0  0  0  0  0  0  0  1  0  0
  -30.5172  -21.0852   18.3367 C   0  0  1  0  0  0  0  0  0  0  0  0
  -20.7270  -28.2527   20.5734 C   0  0  1  0  0  0  0  0  0  0  0  0
  -19.7373  -27.8244   16.9394 C   0  0  2  0  0  0  0  0  0  0  0  0
  -19.7146  -27.9504   21.7141 C   0  0  0  0  0  0  0  0  0  0  0  0
  -26.6756  -16.3489   18.7203 N   0  0  0  0  0  0  0  0  0  0  0  0
  -26.9148  -17.6078   19.1254 N   0  0  0  0  0  0  0  0  0  0  0  0
  -22.8664  -29.4540   20.8956 N   0  0  0  0  0  0  0  0  0  0  0  0
  -29.0280  -19.8166   16.8266 N   0  0  0  0  0  0  0  0  0  0  0  0
  -27.0479  -18.9788   21.0524 N   0  0  0  0  0  0  0  0  0  0  0  0
  -26.0182  -14.9157   22.7337 N   0  0  0  0  0  0  0  0  0  0  0  0
  -24.4782  -31.6171   23.3490 N   0  0  0  0  0  0  0  0  0  0  0  0
  -20.1236  -28.3482   19.2486 N   0  0  0  0  0  0  0  0  0  0  0  0
  -20.5980  -27.6108   15.7416 N   0  3  0  0  0  0  0  0  0  0  0  0
  -26.4312  -17.1052   23.2763 O   0  0  0  0  0  0  0  0  0  0  0  0
  -23.4244  -29.5410   23.3889 O   0  0  0  0  0  0  0  0  0  0  0  0
  -30.1197  -21.7323   16.0928 O   0  0  0  0  0  0  0  0  0  0  0  0
  -20.8387  -30.6043   20.8634 O   0  0  0  0  0  0  0  0  0  0  0  0
  -21.3869  -26.6667   18.2720 O   0  0  0  0  0  0  0  0  0  0  0  0
  -25.2540  -10.2376   19.8069 O   0  0  0  0  0  0  0  0  0  0  0  0
  -27.9084  -25.9887   20.1056 O   0  0  0  0  0  0  0  0  0  1  0  0
  -21.0657   -8.4867   22.9368 F   0  0  0  0  0  0  0  0  0  0  0  0
  -23.0720   -8.9708   18.6770 F   0  0  0  0  0  0  0  0  0  0  0  0
  -28.7566  -23.1863   18.5809 S   0  0  0  0  0  0  0  0  0  0  0  0
  -30.3136  -20.6742   21.6189 Cl  0  0  0  0  0  0  0  0  0  0  0  0
  1  2  1  0  0  0  0
  1  5  2  0  0  0  0
  2  6  2  0  0  0  0
  3  8  2  0  0  0  0
  3 16  1  0  0  0  0
  4  9  1  0  0  0  0
  4 16  2  0  0  0  0
  5 18  1  0  0  0  0
  6 20  1  0  0  0  0
  7 10  2  0  0  0  0
  7 19  1  0  0  0  0
  8 22  1  0  0  0  0
  9 22  2  0  0  0  0
 10 23  1  0  0  0  0
 11 12  2  0  0  0  0
 11 24  1  0  0  0  0
 12 25  1  0  0  0  0
 13 21  1  0  0  0  0
 13 23  2  0  0  0  0
 14 25  2  0  0  0  0
 14 26  1  0  0  0  0
 15 27  1  0  0  0  0
 15 29  2  0  0  0  0
 16 28  1  0  0  0  0
 17 28  1  0  0  0  0
 17 31  2  0  0  0  0
 17 32  1  0  0  0  0
 18 20  2  0  0  0  0
 18 37  1  0  0  0  0
 19 21  2  0  0  0  0
 19 38  1  0  0  0  0
 20 46  1  0  0  0  0
 21 39  1  0  0  0  0
 22 74  1  0  0  0  0
 23 75  1  0  0  0  0
 24 26  2  0  0  0  0
 24 74  1  0  0  0  0
 25 76  1  0  0  0  0
 26 77  1  0  0  0  0
 27 30  2  0  0  0  0
 27 79  1  0  0  0  0
 28 60  2  0  0  0  0
 29 55  1  0  0  0  0
 29 78  1  0  0  0  0
 30 56  1  0  0  0  0
 30 78  1  0  0  0  0
 31 61  1  0  0  0  0
 31 64  1  0  0  0  0
 32 65  1  0  0  0  0
 32 69  2  0  0  0  0
 33 47  1  0  0  0  0
 33 66  1  0  0  0  0
 33 70  2  0  0  0  0
 34 56  1  0  0  0  0
 34 63  1  0  0  0  0
 34 71  2  0  0  0  0
 35 57  1  0  0  0  0
 35 62  1  0  0  0  0
 35 72  2  0  0  0  0
 36 58  1  0  0  0  0
 36 67  1  0  0  0  0
 36 73  2  0  0  0  0
 37 40  1  0  0  0  0
 38 47  1  0  0  0  0
 39 62  1  0  0  0  0
 40 42  1  0  0  0  0
 41 43  1  0  0  0  0
 41 44  1  0  0  0  0
 42 46  1  0  0  0  0
 43 48  1  0  0  0  0
 44 63  1  0  0  0  0
 45 48  1  0  0  0  0
 45 63  1  0  0  0  0
 46 66  1  0  0  0  0
 47 62  1  0  0  0  0
 48 61  1  0  0  0  0
 49 56  1  0  0  0  0
 50 58  1  0  0  0  0
 51 59  1  0  0  0  0
 52 59  1  0  0  0  0
 53 59  1  0  0  0  0
 54 68  1  0  0  0  0
 55 75  1  0  0  0  0
 57 59  1  0  0  0  0
 57 67  1  0  0  0  0
 58 68  1  0  0  0  0
 60 61  1  0  0  0  0
M  CHG  1  68   1
M  ISO  4  34 100  55 101  56 100  75 101
M  END
> <Batch ID>
0018

> <Smiles>
CNC(C)C(=O)NC(C(=O)N1Cc2cc([101O:1][101CH2:1]c3cc(Cl)c([100CH:0](C)[100C:0](=O)N4CCCC(n5nc(-c6ccc(Oc7ccc(F)cc7F)cc6)c(C(N)=O)c5N)C4)s3)ccc2CC1C(=O)NC1CCCc2ccccc21)C(C)(C)C

> <Shape>
0.270

> <Color>
0.073

> <Negative vol penalty>
0.000

$$$$

  -OEChem-04052316043D

 85 93  0     1  0  0  0  0  0999 V2000
  -24.8782  -35.1779   23.2409 C   0  0  0  0  0  0  0  0  0  0  0  0
  -25.6205  -34.0266   22.9981 C   0  0  0  0  0  0  0  0  0  0  0  0
  -25.7715  -17.7897   20.7957 C   0  0  0  0  0  0  0  0  0  0  0  0
  -28.1733  -17.7421   21.0527 C   0  0  0  0  0  0  0  0  0  0  0  0
  -23.5801  -35.0768   23.7395 C   0  0  0  0  0  0  0  0  0  0  0  0
  -25.0655  -32.7734   23.2549 C   0  0  0  0  0  0  0  0  0  0  0  0
  -25.9269  -29.4647   19.5192 C   0  0  0  0  0  0  0  0  0  0  0  0
  -25.6948  -16.4799   21.2691 C   0  0  0  0  0  0  0  0  0  0  0  0
  -28.0967  -16.4323   21.5261 C   0  0  0  0  0  0  0  0  0  0  0  0
  -27.1932  -28.8842   19.4622 C   0  0  0  0  0  0  0  0  0  0  0  0
  -24.9017  -13.0228   22.0709 C   0  0  0  0  0  0  0  0  0  0  0  0
  -24.0790  -12.1303   21.3838 C   0  0  0  0  0  0  0  0  0  0  0  0
  -26.3238  -26.8986   20.5210 C   0  0  0  0  0  0  0  0  0  0  0  0
  -32.8241  -26.0796   20.5322 C   0  0  0  0  0  0  0  0  0  0  0  0
  -25.3861  -12.4680   19.3801 C   0  0  0  0  0  0  0  0  0  0  0  0
  -27.0107  -18.4208   20.6875 C   0  0  0  0  0  0  0  0  0  0  0  0
  -27.0329  -20.9574   20.9578 C   0  0  0  0  0  0  0  0  0  0  0  0
  -23.0054  -33.8214   23.9934 C   0  0  0  0  0  0  0  0  0  0  0  0
  -24.8501  -28.7696   20.0883 C   0  0  0  0  0  0  0  0  0  0  0  0
  -23.7589  -32.6555   23.7586 C   0  0  0  0  0  0  0  0  0  0  0  0
  -25.0443  -27.4715   20.5816 C   0  0  0  0  0  0  0  0  0  0  0  0
  -31.6462  -26.8265   20.5238 C   0  0  0  0  0  0  0  0  0  0  0  0
  -33.2964  -25.5086   19.3504 C   0  0  0  0  0  0  0  0  0  0  0  0
  -30.9404  -27.0023   19.3336 C   0  0  0  0  0  0  0  0  0  0  0  0
  -31.4126  -26.4314   18.1518 C   0  0  0  0  0  0  0  0  0  0  0  0
  -26.8574  -15.8012   21.6343 C   0  0  0  0  0  0  0  0  0  0  0  0
  -27.3924  -27.6021   19.9658 C   0  0  0  0  0  0  0  0  0  0  0  0
  -25.9666  -13.6379   21.4127 C   0  0  0  0  0  0  0  0  0  0  0  0
  -32.5906  -25.6845   18.1602 C   0  0  0  0  0  0  0  0  0  0  0  0
  -24.3211  -11.8529   20.0384 C   0  0  0  0  0  0  0  0  0  0  0  0
  -26.2088  -13.3605   20.0673 C   0  0  0  0  0  0  0  0  0  0  0  0
  -27.0905  -19.7737   20.1980 C   0  0  0  0  0  0  0  0  0  0  0  0
  -27.1527  -21.9654   20.0326 C   0  0  0  0  0  0  0  0  0  0  0  0
  -26.8845  -21.1303   22.3733 C   0  0  0  0  0  0  0  0  0  0  0  0
  -22.9279  -29.2561   22.5727 C   0  0  0  0  0  0  0  0  0  0  0  0
  -21.4042  -26.6394   21.4093 C   0  0  0  0  0  0  0  0  0  0  0  0
  -21.5639  -23.7802   19.5528 C   0  0  0  0  0  0  0  0  0  0  0  0
  -29.6026  -22.2210   14.5751 C   0  0  0  0  0  0  0  0  0  0  0  0
  -21.6158  -33.7638   24.5767 C   0  0  0  0  0  0  0  0  0  0  0  0
  -23.4845  -29.3994   20.1180 C   0  0  0  0  0  0  0  0  0  0  0  0
  -23.9168  -26.6753   21.1842 C   0  0  0  0  0  0  0  0  0  0  0  0
  -20.9663  -32.3866   24.4685 C   0  0  0  0  0  0  0  0  0  0  0  0
  -26.2317  -22.9668   15.4457 C   0  0  0  0  0  0  0  0  0  0  0  0
  -21.9438  -31.2997   24.9045 C   0  0  0  0  0  0  0  0  0  0  0  0
  -26.0644  -22.3398   16.8309 C   0  0  0  0  0  0  0  0  0  0  0  0
  -27.1277  -22.1179   14.5464 C   0  0  0  0  0  0  0  0  0  0  0  0
  -28.2790  -21.1618   16.5045 C   0  0  0  0  0  0  0  0  0  0  0  0
  -23.1827  -31.2773   24.0011 C   0  0  1  0  0  0  0  0  0  0  0  0
  -22.5735  -28.8008   21.1853 C   0  0  1  0  0  0  0  0  0  0  0  0
  -27.4288  -22.0101   17.4657 C   0  0  2  0  0  0  0  0  0  0  0  0
  -31.1621  -27.4273   21.8030 C   0  0  0  0  0  0  0  0  0  0  0  0
  -34.5596  -24.7129   19.3796 C   0  0  0  0  0  0  0  0  0  0  0  0
  -30.6608  -26.6169   16.8723 C   0  0  0  0  0  0  0  0  0  0  0  0
  -20.1682  -21.8289   18.8167 C   0  0  0  0  0  0  0  0  0  0  0  0
  -21.6715  -25.4036   24.1862 C   0  0  0  0  0  0  0  0  0  0  0  0
  -21.1496  -23.1763   23.1691 C   0  0  0  0  0  0  0  0  0  0  0  0
  -19.4637  -25.0126   23.0786 C   0  0  0  0  0  0  0  0  0  0  0  0
  -21.8813  -24.4825   16.6954 C   0  0  0  0  0  0  0  0  0  0  0  0
  -29.6739  -27.8069   19.3263 C   0  0  0  0  0  0  0  0  0  1  0  0
  -32.5346  -23.6491   15.1867 C   0  0  0  0  0  0  0  0  0  0  0  0
  -32.0775  -22.2622   14.7550 C   0  0  0  0  0  0  0  0  0  0  0  0
  -32.6014  -23.8067   16.7010 C   0  0  0  0  0  0  0  0  0  0  0  0
  -21.5250  -25.1496   21.6211 C   0  0  1  0  0  0  0  0  0  0  0  0
  -20.6518  -23.2289   18.4718 C   0  0  2  0  0  0  0  0  0  0  0  0
  -20.9743  -24.7010   23.0042 C   0  0  0  0  0  0  0  0  0  0  0  0
  -27.2355  -20.0066   18.8908 N   0  0  0  0  0  0  0  0  0  0  0  0
  -27.2698  -21.3483   18.8220 N   0  0  0  0  0  0  0  0  0  0  0  0
  -22.6016  -27.3368   21.1961 N   0  0  0  0  0  0  0  0  0  0  0  0
  -28.4062  -21.8423   15.2063 N   0  0  0  0  0  0  0  0  0  0  0  0
  -27.1681  -23.3106   20.1446 N   0  0  0  0  0  0  0  0  0  0  0  0
  -26.7750  -19.9881   23.1781 N   0  0  0  0  0  0  0  0  0  0  0  0
  -22.8803  -30.6264   22.7445 N   0  0  0  0  0  0  0  0  0  0  0  0
  -20.8646  -24.5205   20.4824 N   0  0  0  0  0  0  0  0  0  0  0  0
  -30.7688  -21.9286   15.2717 N   0  0  0  0  0  0  0  0  0  0  0  0
  -21.3710  -23.1697   17.1678 N   0  3  0  0  0  0  0  0  0  0  0  0
  -26.8334  -22.2644   22.9069 O   0  0  0  0  0  0  0  0  0  0  0  0
  -23.2212  -28.4256   23.4246 O   0  0  0  0  0  0  0  0  0  0  0  0
  -20.2878  -27.1639   21.4251 O   0  0  0  0  0  0  0  0  0  0  0  0
  -22.7749  -23.5717   19.5728 O   0  0  0  0  0  0  0  0  0  0  0  0
  -29.6292  -22.7831   13.4750 O   0  0  0  0  0  0  0  0  0  0  0  0
  -26.7830  -14.5231   22.0965 O   0  0  0  0  0  0  0  0  0  0  0  0
  -28.6276  -27.0333   19.9120 O   0  0  0  0  0  0  0  0  0  1  0  0
  -33.0529  -25.1239   17.0057 O   0  0  0  0  0  0  0  0  0  0  0  0
  -23.5319  -10.9947   19.3791 F   0  0  0  0  0  0  0  0  0  0  0  0
  -27.2311  -13.9475   19.4299 F   0  0  0  0  0  0  0  0  0  0  0  0
  1  2  1  0  0  0  0
  1  5  2  0  0  0  0
  2  6  2  0  0  0  0
  3  8  2  0  0  0  0
  3 16  1  0  0  0  0
  4  9  1  0  0  0  0
  4 16  2  0  0  0  0
  5 18  1  0  0  0  0
  6 20  1  0  0  0  0
  7 10  2  0  0  0  0
  7 19  1  0  0  0  0
  8 26  1  0  0  0  0
  9 26  2  0  0  0  0
 10 27  1  0  0  0  0
 11 12  2  0  0  0  0
 11 28  1  0  0  0  0
 12 30  1  0  0  0  0
 13 21  1  0  0  0  0
 13 27  2  0  0  0  0
 14 22  2  0  0  0  0
 14 23  1  0  0  0  0
 15 30  2  0  0  0  0
 15 31  1  0  0  0  0
 16 32  1  0  0  0  0
 17 32  1  0  0  0  0
 17 33  2  0  0  0  0
 17 34  1  0  0  0  0
 18 20  2  0  0  0  0
 18 39  1  0  0  0  0
 19 21  2  0  0  0  0
 19 40  1  0  0  0  0
 20 48  1  0  0  0  0
 21 41  1  0  0  0  0
 22 24  1  0  0  0  0
 22 51  1  0  0  0  0
 23 29  2  0  0  0  0
 23 52  1  0  0  0  0
 24 25  2  0  0  0  0
 24 59  1  0  0  0  0
 25 29  1  0  0  0  0
 25 53  1  0  0  0  0
 26 81  1  0  0  0  0
 27 82  1  0  0  0  0
 28 31  2  0  0  0  0
 28 81  1  0  0  0  0
 29 83  1  0  0  0  0
 30 84  1  0  0  0  0
 31 85  1  0  0  0  0
 32 66  2  0  0  0  0
 33 67  1  0  0  0  0
 33 70  1  0  0  0  0
 34 71  1  0  0  0  0
 34 76  2  0  0  0  0
 35 49  1  0  0  0  0
 35 72  1  0  0  0  0
 35 77  2  0  0  0  0
 36 63  1  0  0  0  0
 36 68  1  0  0  0  0
 36 78  2  0  0  0  0
 37 64  1  0  0  0  0
 37 73  1  0  0  0  0
 37 79  2  0  0  0  0
 38 69  1  0  0  0  0
 38 74  1  0  0  0  0
 38 80  2  0  0  0  0
 39 42  1  0  0  0  0
 40 49  1  0  0  0  0
 41 68  1  0  0  0  0
 42 44  1  0  0  0  0
 43 45  1  0  0  0  0
 43 46  1  0  0  0  0
 44 48  1  0  0  0  0
 45 50  1  0  0  0  0
 46 69  1  0  0  0  0
 47 50  1  0  0  0  0
 47 69  1  0  0  0  0
 48 72  1  0  0  0  0
 49 68  1  0  0  0  0
 50 67  1  0  0  0  0
 54 64  1  0  0  0  0
 55 65  1  0  0  0  0
 56 65  1  0  0  0  0
 57 65  1  0  0  0  0
 58 75  1  0  0  0  0
 59 82  1  0  0  0  0
 60 61  1  0  0  0  0
 60 62  1  0  0  0  0
 61 74  1  0  0  0  0
 62 83  1  0  0  0  0
 63 65  1  0  0  0  0
 63 73  1  0  0  0  0
 64 75  1  0  0  0  0
 66 67  1  0  0  0  0
M  CHG  1  75   1
M  ISO  4  38 100  59 101  74 100  82 101
M  END
> <Batch ID>
0018

> <Smiles>
CNC(C)C(=O)NC(C(=O)N1Cc2cc([101O:1][101CH2:1]c3c(C)cc(C)c(OCCC[100NH:0][100C:0](=O)N4CCCC(n5nc(-c6ccc(Oc7ccc(F)cc7F)cc6)c(C(N)=O)c5N)C4)c3C)ccc2CC1C(=O)NC1CCCc2ccccc21)C(C)(C)C

> <Shape>
0.197

> <Color>
0.071

> <Negative vol penalty>
0.000

$$$$

  -OEChem-04052316043D

 81 89  0     1  0  0  0  0  0999 V2000
  -18.0872  -16.1727   23.1386 C   0  0  0  0  0  0  0  0  0  0  0  0
  -19.3081  -16.8183   23.3059 C   0  0  0  0  0  0  0  0  0  0  0  0
  -21.2681  -27.1198   19.7262 C   0  0  0  0  0  0  0  0  0  0  0  0
  -21.8324  -25.9266   21.7498 C   0  0  0  0  0  0  0  0  0  0  0  0
  -18.0340  -14.7797   23.1150 C   0  0  0  0  0  0  0  0  0  0  0  0
  -20.4765  -16.0711   23.4509 C   0  0  0  0  0  0  0  0  0  0  0  0
  -24.2942  -17.8722   20.6534 C   0  0  0  0  0  0  0  0  0  0  0  0
  -28.5321  -21.3430   24.7654 C   0  0  0  0  0  0  0  0  0  0  0  0
  -20.0462  -26.4493   19.6715 C   0  0  0  0  0  0  0  0  0  0  0  0
  -20.6104  -25.2561   21.6951 C   0  0  0  0  0  0  0  0  0  0  0  0
  -24.9620  -18.9968   21.1362 C   0  0  0  0  0  0  0  0  0  0  0  0
  -19.2695  -22.6553   20.0015 C   0  0  0  0  0  0  0  0  0  0  0  0
  -19.2745  -21.2793   20.2299 C   0  0  0  0  0  0  0  0  0  0  0  0
  -29.0269  -22.5560   25.2444 C   0  0  0  0  0  0  0  0  0  0  0  0
  -26.7291  -17.5821   21.9698 C   0  0  0  0  0  0  0  0  0  0  0  0
  -17.7998  -21.5875   22.1187 C   0  0  0  0  0  0  0  0  0  0  0  0
  -22.1612  -26.8584   20.7653 C   0  0  0  0  0  0  0  0  0  0  0  0
  -23.6956  -28.7718   21.4669 C   0  0  0  0  0  0  0  0  0  0  0  0
  -19.2036  -14.0152   23.2501 C   0  0  0  0  0  0  0  0  0  0  0  0
  -24.8344  -16.5910   20.8351 C   0  0  0  0  0  0  0  0  0  0  0  0
  -20.4387  -14.6665   23.4305 C   0  0  0  0  0  0  0  0  0  0  0  0
  -26.0674  -16.4431   21.4862 C   0  0  0  0  0  0  0  0  0  0  0  0
  -28.6194  -21.0422   23.4061 C   0  0  0  0  0  0  0  0  0  0  0  0
  -29.6961  -23.1675   23.0049 C   0  0  0  0  0  0  0  0  0  0  0  0
  -19.7174  -25.5175   20.6560 C   0  0  0  0  0  0  0  0  0  0  0  0
  -26.1782  -18.8516   21.7971 C   0  0  0  0  0  0  0  0  0  0  0  0
  -18.5296  -23.4974   20.8317 C   0  0  0  0  0  0  0  0  0  0  0  0
  -18.5396  -20.7454   21.2885 C   0  0  0  0  0  0  0  0  0  0  0  0
  -17.7948  -22.9635   21.8902 C   0  0  0  0  0  0  0  0  0  0  0  0
  -29.6089  -23.4682   24.3642 C   0  0  0  0  0  0  0  0  0  0  0  0
  -29.2014  -21.9544   22.5259 C   0  0  0  0  0  0  0  0  0  0  0  0
  -23.4239  -27.5503   20.8221 C   0  0  0  0  0  0  0  0  0  0  0  0
  -25.0295  -28.9966   21.2285 C   0  0  0  0  0  0  0  0  0  0  0  0
  -22.8206  -29.6269   22.2145 C   0  0  0  0  0  0  0  0  0  0  0  0
  -23.8990  -13.9560   22.3469 C   0  0  0  0  0  0  0  0  0  0  0  0
  -26.5351  -12.6855   20.9471 C   0  0  0  0  0  0  0  0  0  0  0  0
  -29.6158  -13.1969   19.5705 C   0  0  0  0  0  0  0  0  0  0  0  0
  -29.6238  -25.3556   20.0093 C   0  0  0  0  0  0  0  0  0  0  0  0
  -19.0901  -12.5113   23.2658 C   0  0  0  0  0  0  0  0  0  0  0  0
  -24.1146  -15.3903   20.2848 C   0  0  0  0  0  0  0  0  0  0  0  0
  -26.6999  -15.0913   21.6891 C   0  0  0  0  0  0  0  0  0  0  0  0
  -20.4223  -11.7977   23.0508 C   0  0  0  0  0  0  0  0  0  0  0  0
  -28.4680  -28.0805   18.0304 C   0  0  0  0  0  0  0  0  0  0  0  0
  -21.5071  -12.4173   23.9260 C   0  0  0  0  0  0  0  0  0  0  0  0
  -27.0687  -28.3638   18.5796 C   0  0  0  0  0  0  0  0  0  0  0  0
  -28.7825  -26.5861   18.0307 C   0  0  0  0  0  0  0  0  0  0  0  0
  -27.2011  -26.1985   19.8807 C   0  0  0  0  0  0  0  0  0  0  0  0
  -21.7312  -13.8911   23.5663 C   0  0  1  0  0  0  0  0  0  0  0  0
  -24.5058  -14.0893   20.9788 C   0  0  1  0  0  0  0  0  0  0  0  0
  -26.8595  -27.6967   19.9524 C   0  0  2  0  0  0  0  0  0  0  0  0
  -31.5467  -11.9617   18.5493 C   0  0  0  0  0  0  0  0  0  0  0  0
  -27.4142  -11.7705   23.7220 C   0  0  0  0  0  0  0  0  0  0  0  0
  -29.7143  -11.4143   22.7995 C   0  0  0  0  0  0  0  0  0  0  0  0
  -27.7949  -10.0974   21.9026 C   0  0  0  0  0  0  0  0  0  0  0  0
  -29.3146  -14.6215   16.9940 C   0  0  0  0  0  0  0  0  0  0  0  0
  -30.3225  -24.1510   22.0635 C   0  0  0  0  0  0  0  0  0  0  0  0
  -28.0735  -19.7256   22.9372 C   0  0  0  0  0  0  0  0  0  1  0  0
  -27.9894  -12.5522   21.3294 C   0  0  1  0  0  0  0  0  0  0  0  0
  -30.2397  -12.6919   18.2821 C   0  0  2  0  0  0  0  0  0  0  0  0
  -28.2156  -11.4840   22.4364 C   0  0  0  0  0  0  0  0  0  0  0  0
  -24.4987  -27.0352   20.2192 N   0  0  0  0  0  0  0  0  0  0  0  0
  -25.4587  -27.9375   20.4841 N   0  0  0  0  0  0  0  0  0  0  0  0
  -25.9545  -13.9473   21.1385 N   0  0  0  0  0  0  0  0  0  0  0  0
  -28.5656  -26.0147   19.3620 N   0  0  0  0  0  0  0  0  0  0  0  0
  -25.8652  -29.9950   21.5850 N   0  0  0  0  0  0  0  0  0  0  0  0
  -21.4800  -29.2458   22.3627 N   0  0  0  0  0  0  0  0  0  0  0  0
  -22.5180  -14.0022   22.3568 N   0  0  0  0  0  0  0  0  0  0  0  0
  -28.7149  -12.2919   20.0908 N   0  0  0  0  0  0  0  0  0  0  0  0
  -29.3352  -24.8489   21.2705 N   0  0  0  0  0  0  0  0  0  0  0  0
  -30.5169  -13.8295   17.3601 N   0  3  0  0  0  0  0  0  0  0  0  0
  -23.2120  -30.7053   22.7218 O   0  0  0  0  0  0  0  0  0  0  0  0
  -24.6296  -13.8197   23.3212 O   0  0  0  0  0  0  0  0  0  0  0  0
  -25.9383  -11.7082   20.4886 O   0  0  0  0  0  0  0  0  0  0  0  0
  -29.9018  -14.2838   20.0678 O   0  0  0  0  0  0  0  0  0  0  0  0
  -30.7443  -25.2328   19.5030 O   0  0  0  0  0  0  0  0  0  0  0  0
  -18.5250  -24.8632   20.6030 O   0  0  0  0  0  0  0  0  0  0  0  0
  -26.8318  -19.9475   22.2699 O   0  0  0  0  0  0  0  0  0  1  0  0
  -18.5433  -19.4238   21.5069 F   0  0  0  0  0  0  0  0  0  0  0  0
  -17.0812  -23.7674   22.6904 F   0  0  0  0  0  0  0  0  0  0  0  0
  -30.2081  -24.9576   25.0010 Cl  0  0  0  0  0  0  0  0  0  0  0  0
  -29.3065  -21.5747   20.8386 Cl  0  0  0  0  0  0  0  0  0  0  0  0
  1  2  1  0  0  0  0
  1  5  2  0  0  0  0
  2  6  2  0  0  0  0
  3  9  2  0  0  0  0
  3 17  1  0  0  0  0
  4 10  1  0  0  0  0
  4 17  2  0  0  0  0
  5 19  1  0  0  0  0
  6 21  1  0  0  0  0
  7 11  2  0  0  0  0
  7 20  1  0  0  0  0
  8 14  2  0  0  0  0
  8 23  1  0  0  0  0
  9 25  1  0  0  0  0
 10 25  2  0  0  0  0
 11 26  1  0  0  0  0
 12 13  2  0  0  0  0
 12 27  1  0  0  0  0
 13 28  1  0  0  0  0
 14 30  1  0  0  0  0
 15 22  1  0  0  0  0
 15 26  2  0  0  0  0
 16 28  2  0  0  0  0
 16 29  1  0  0  0  0
 17 32  1  0  0  0  0
 18 32  1  0  0  0  0
 18 33  2  0  0  0  0
 18 34  1  0  0  0  0
 19 21  2  0  0  0  0
 19 39  1  0  0  0  0
 20 22  2  0  0  0  0
 20 40  1  0  0  0  0
 21 48  1  0  0  0  0
 22 41  1  0  0  0  0
 23 31  2  0  0  0  0
 23 57  1  0  0  0  0
 24 30  2  0  0  0  0
 24 31  1  0  0  0  0
 24 56  1  0  0  0  0
 25 76  1  0  0  0  0
 26 77  1  0  0  0  0
 27 29  2  0  0  0  0
 27 76  1  0  0  0  0
 28 78  1  0  0  0  0
 29 79  1  0  0  0  0
 30 80  1  0  0  0  0
 31 81  1  0  0  0  0
 32 61  2  0  0  0  0
 33 62  1  0  0  0  0
 33 65  1  0  0  0  0
 34 66  1  0  0  0  0
 34 71  2  0  0  0  0
 35 49  1  0  0  0  0
 35 67  1  0  0  0  0
 35 72  2  0  0  0  0
 36 58  1  0  0  0  0
 36 63  1  0  0  0  0
 36 73  2  0  0  0  0
 37 59  1  0  0  0  0
 37 68  1  0  0  0  0
 37 74  2  0  0  0  0
 38 64  1  0  0  0  0
 38 69  1  0  0  0  0
 38 75  2  0  0  0  0
 39 42  1  0  0  0  0
 40 49  1  0  0  0  0
 41 63  1  0  0  0  0
 42 44  1  0  0  0  0
 43 45  1  0  0  0  0
 43 46  1  0  0  0  0
 44 48  1  0  0  0  0
 45 50  1  0  0  0  0
 46 64  1  0  0  0  0
 47 50  1  0  0  0  0
 47 64  1  0  0  0  0
 48 67  1  0  0  0  0
 49 63  1  0  0  0  0
 50 62  1  0  0  0  0
 51 59  1  0  0  0  0
 52 60  1  0  0  0  0
 53 60  1  0  0  0  0
 54 60  1  0  0  0  0
 55 70  1  0  0  0  0
 56 69  1  0  0  0  0
 57 77  1  0  0  0  0
 58 60  1  0  0  0  0
 58 68  1  0  0  0  0
 59 70  1  0  0  0  0
 61 62  1  0  0  0  0
M  CHG  1  70   1
M  ISO  4  38 100  57 101  69 100  77 101
M  END
> <Batch ID>
0018

> <Smiles>
CNC(C)C(=O)NC(C(=O)N1Cc2cc([101O:1][101CH2:1]c3ccc(Cl)c(C[100NH:0][100C:0](=O)N4CCCC(n5nc(-c6ccc(Oc7ccc(F)cc7F)cc6)c(C(N)=O)c5N)C4)c3Cl)ccc2CC1C(=O)NC1CCCc2ccccc21)C(C)(C)C

> <Shape>
0.185

> <Color>
0.064

> <Negative vol penalty>
0.000

$$$$

  -OEChem-04052316043D

 82 90  0     1  0  0  0  0  0999 V2000
  -23.3722  -17.3575   33.6861 C   0  0  0  0  0  0  0  0  0  0  0  0
  -24.6043  -16.9307   33.2012 C   0  0  0  0  0  0  0  0  0  0  0  0
  -23.1907   -9.8197   19.9318 C   0  0  0  0  0  0  0  0  0  0  0  0
  -23.5709   -9.9996   22.3109 C   0  0  0  0  0  0  0  0  0  0  0  0
  -22.4677  -16.4298   34.2010 C   0  0  0  0  0  0  0  0  0  0  0  0
  -24.9330  -15.5760   33.2317 C   0  0  0  0  0  0  0  0  0  0  0  0
  -27.0250  -13.9863   28.9026 C   0  0  0  0  0  0  0  0  0  0  0  0
  -22.4251   -8.6726   20.1409 C   0  0  0  0  0  0  0  0  0  0  0  0
  -22.8052   -8.8525   22.5200 C   0  0  0  0  0  0  0  0  0  0  0  0
  -28.3670  -14.2997   28.6912 C   0  0  0  0  0  0  0  0  0  0  0  0
  -23.2076   -5.5061   22.2547 C   0  0  0  0  0  0  0  0  0  0  0  0
  -23.7071   -4.5448   23.1333 C   0  0  0  0  0  0  0  0  0  0  0  0
  -28.9892  -12.0727   29.3787 C   0  0  0  0  0  0  0  0  0  0  0  0
  -31.4920  -15.7372   24.9355 C   0  0  0  0  0  0  0  0  0  0  0  0
  -21.7515   -4.8035   24.5283 C   0  0  0  0  0  0  0  0  0  0  0  0
  -23.7637  -10.4831   21.0169 C   0  0  0  0  0  0  0  0  0  0  0  0
  -24.1011  -13.0000   20.7735 C   0  0  0  0  0  0  0  0  0  0  0  0
  -22.7816  -15.0618   34.2290 C   0  0  0  0  0  0  0  0  0  0  0  0
  -26.6553  -12.7150   29.3648 C   0  0  0  0  0  0  0  0  0  0  0  0
  -24.0324  -14.6292   33.7487 C   0  0  0  0  0  0  0  0  0  0  0  0
  -27.6417  -11.7448   29.5927 C   0  0  0  0  0  0  0  0  0  0  0  0
  -32.0084  -15.1288   26.0795 C   0  0  0  0  0  0  0  0  0  0  0  0
  -31.0195  -14.9544   23.8821 C   0  0  0  0  0  0  0  0  0  0  0  0
  -32.0524  -13.7375   26.1701 C   0  0  0  0  0  0  0  0  0  0  0  0
  -31.0635  -13.5632   23.9727 C   0  0  0  0  0  0  0  0  0  0  0  0
  -22.2324   -8.1891   21.4350 C   0  0  0  0  0  0  0  0  0  0  0  0
  -29.3495  -13.3438   28.9320 C   0  0  0  0  0  0  0  0  0  0  0  0
  -21.9801   -6.1163   22.5130 C   0  0  0  0  0  0  0  0  0  0  0  0
  -22.9791   -4.1934   24.2700 C   0  0  0  0  0  0  0  0  0  0  0  0
  -21.2521   -5.7649   23.6497 C   0  0  0  0  0  0  0  0  0  0  0  0
  -31.5799  -12.9547   25.1167 C   0  0  0  0  0  0  0  0  0  0  0  0
  -24.5551  -11.6678   20.8015 C   0  0  0  0  0  0  0  0  0  0  0  0
  -25.2318  -13.7432   20.5375 C   0  0  0  0  0  0  0  0  0  0  0  0
  -22.7758  -13.5193   20.9455 C   0  0  0  0  0  0  0  0  0  0  0  0
  -25.1927  -11.6103   31.9618 C   0  0  0  0  0  0  0  0  0  0  0  0
  -25.3451   -8.7872   30.3715 C   0  0  0  0  0  0  0  0  0  0  0  0
  -26.8829   -6.8793   27.9962 C   0  0  0  0  0  0  0  0  0  0  0  0
  -31.0375  -12.7849   21.5769 C   0  0  0  0  0  0  0  0  0  0  0  0
  -21.7906  -14.1020   34.8385 C   0  0  0  0  0  0  0  0  0  0  0  0
  -25.2014  -12.3841   29.5624 C   0  0  0  0  0  0  0  0  0  0  0  0
  -27.2955  -10.3589   30.0701 C   0  0  0  0  0  0  0  0  0  0  0  0
  -22.0646  -12.6411   34.4905 C   0  0  0  0  0  0  0  0  0  0  0  0
  -29.5222  -13.4666   18.4279 C   0  0  0  0  0  0  0  0  0  0  0  0
  -23.5436  -12.3166   34.6754 C   0  0  0  0  0  0  0  0  0  0  0  0
  -28.0344  -13.2098   18.6783 C   0  0  0  0  0  0  0  0  0  0  0  0
  -30.4043  -12.4818   19.1931 C   0  0  0  0  0  0  0  0  0  0  0  0
  -28.6460  -12.1391   20.8843 C   0  0  0  0  0  0  0  0  0  0  0  0
  -24.4155  -13.1652   33.7420 C   0  0  1  0  0  0  0  0  0  0  0  0
  -24.9785  -11.2226   30.5260 C   0  0  1  0  0  0  0  0  0  0  0  0
  -27.7192  -13.1474   20.1857 C   0  0  2  0  0  0  0  0  0  0  0  0
  -32.5058  -15.9920   27.1928 C   0  0  0  0  0  0  0  0  0  0  0  0
  -30.4714  -15.6378   22.6708 C   0  0  0  0  0  0  0  0  0  0  0  0
  -26.8084   -4.6004   26.9482 C   0  0  0  0  0  0  0  0  0  0  0  0
  -26.6800   -7.6072   32.8485 C   0  0  0  0  0  0  0  0  0  0  0  0
  -27.4239   -5.6746   31.4414 C   0  0  0  0  0  0  0  0  0  0  0  0
  -24.9901   -6.1164   31.7640 C   0  0  0  0  0  0  0  0  0  0  0  0
  -26.3155   -8.0024   25.3174 C   0  0  0  0  0  0  0  0  0  0  0  0
  -32.6146  -13.1011   27.4179 C   0  0  0  0  0  0  0  0  0  0  0  0
  -31.5225  -12.5768   28.3440 C   0  0  0  0  0  0  0  0  0  1  0  0
  -26.3451   -7.6593   30.2890 C   0  0  1  0  0  0  0  0  0  0  0  0
  -26.3241   -6.0394   26.8619 C   0  0  2  0  0  0  0  0  0  0  0  0
  -26.3668   -6.7910   31.5786 C   0  0  0  0  0  0  0  0  0  0  0  0
  -25.8716  -11.5673   20.5993 N   0  0  0  0  0  0  0  0  0  0  0  0
  -26.2544  -12.8459   20.4418 N   0  0  0  0  0  0  0  0  0  0  0  0
  -25.8606  -10.0858   30.2546 N   0  0  0  0  0  0  0  0  0  0  0  0
  -30.0517  -12.4798   20.6146 N   0  0  0  0  0  0  0  0  0  0  0  0
  -25.4410  -15.0702   20.4044 N   0  0  0  0  0  0  0  0  0  0  0  0
  -21.7297  -12.6165   21.1802 N   0  0  0  0  0  0  0  0  0  0  0  0
  -30.5778  -12.7841   22.8934 N   0  0  0  0  0  0  0  0  0  0  0  0
  -24.3760  -12.6374   32.3950 N   0  0  0  0  0  0  0  0  0  0  0  0
  -26.0243   -6.9174   29.0744 N   0  0  0  0  0  0  0  0  0  0  0  0
  -26.7457   -6.5990   25.5466 N   0  3  0  0  0  0  0  0  0  0  0  0
  -22.5240  -14.7462   20.8764 O   0  0  0  0  0  0  0  0  0  0  0  0
  -26.0353  -11.0203   32.6277 O   0  0  0  0  0  0  0  0  0  0  0  0
  -24.1497   -8.5254   30.5266 O   0  0  0  0  0  0  0  0  0  0  0  0
  -27.9737   -7.4421   27.9336 O   0  0  0  0  0  0  0  0  0  0  0  0
  -32.1972  -13.0555   21.2546 O   0  0  0  0  0  0  0  0  0  0  0  0
  -21.4851   -7.0699   21.6394 O   0  0  0  0  0  0  0  0  0  0  0  0
  -30.6602  -13.6473   28.7271 O   0  0  0  0  0  0  0  0  0  1  0  0
  -23.4582   -3.2691   25.1128 F   0  0  0  0  0  0  0  0  0  0  0  0
  -20.0716   -6.3468   23.9025 F   0  0  0  0  0  0  0  0  0  0  0  0
  -31.6388  -11.2248   25.2354 Cl  0  0  0  0  0  0  0  0  0  0  0  0
  1  2  1  0  0  0  0
  1  5  2  0  0  0  0
  2  6  2  0  0  0  0
  3  8  2  0  0  0  0
  3 16  1  0  0  0  0
  4  9  1  0  0  0  0
  4 16  2  0  0  0  0
  5 18  1  0  0  0  0
  6 20  1  0  0  0  0
  7 10  2  0  0  0  0
  7 19  1  0  0  0  0
  8 26  1  0  0  0  0
  9 26  2  0  0  0  0
 10 27  1  0  0  0  0
 11 12  2  0  0  0  0
 11 28  1  0  0  0  0
 12 29  1  0  0  0  0
 13 21  1  0  0  0  0
 13 27  2  0  0  0  0
 14 22  2  0  0  0  0
 14 23  1  0  0  0  0
 15 29  2  0  0  0  0
 15 30  1  0  0  0  0
 16 32  1  0  0  0  0
 17 32  1  0  0  0  0
 17 33  2  0  0  0  0
 17 34  1  0  0  0  0
 18 20  2  0  0  0  0
 18 39  1  0  0  0  0
 19 21  2  0  0  0  0
 19 40  1  0  0  0  0
 20 48  1  0  0  0  0
 21 41  1  0  0  0  0
 22 24  1  0  0  0  0
 22 51  1  0  0  0  0
 23 25  2  0  0  0  0
 23 52  1  0  0  0  0
 24 31  2  0  0  0  0
 24 58  1  0  0  0  0
 25 31  1  0  0  0  0
 25 69  1  0  0  0  0
 26 78  1  0  0  0  0
 27 79  1  0  0  0  0
 28 30  2  0  0  0  0
 28 78  1  0  0  0  0
 29 80  1  0  0  0  0
 30 81  1  0  0  0  0
 31 82  1  0  0  0  0
 32 63  2  0  0  0  0
 33 64  1  0  0  0  0
 33 67  1  0  0  0  0
 34 68  1  0  0  0  0
 34 73  2  0  0  0  0
 35 49  1  0  0  0  0
 35 70  1  0  0  0  0
 35 74  2  0  0  0  0
 36 60  1  0  0  0  0
 36 65  1  0  0  0  0
 36 75  2  0  0  0  0
 37 61  1  0  0  0  0
 37 71  1  0  0  0  0
 37 76  2  0  0  0  0
 38 66  1  0  0  0  0
 38 69  1  0  0  0  0
 38 77  2  0  0  0  0
 39 42  1  0  0  0  0
 40 49  1  0  0  0  0
 41 65  1  0  0  0  0
 42 44  1  0  0  0  0
 43 45  1  0  0  0  0
 43 46  1  0  0  0  0
 44 48  1  0  0  0  0
 45 50  1  0  0  0  0
 46 66  1  0  0  0  0
 47 50  1  0  0  0  0
 47 66  1  0  0  0  0
 48 70  1  0  0  0  0
 49 65  1  0  0  0  0
 50 64  1  0  0  0  0
 53 61  1  0  0  0  0
 54 62  1  0  0  0  0
 55 62  1  0  0  0  0
 56 62  1  0  0  0  0
 57 72  1  0  0  0  0
 58 59  1  0  0  0  0
 59 79  1  0  0  0  0
 60 62  1  0  0  0  0
 60 71  1  0  0  0  0
 61 72  1  0  0  0  0
 63 64  1  0  0  0  0
M  CHG  1  72   1
M  ISO  4  38 100  59 101  69 100  79 101
M  END
> <Batch ID>
0018

> <Smiles>
CNC(C)C(=O)NC(C(=O)N1Cc2cc([101O:1][101CH2:1]Cc3c(C)cc(C)c([100NH:0][100C:0](=O)N4CCCC(n5nc(-c6ccc(Oc7ccc(F)cc7F)cc6)c(C(N)=O)c5N)C4)c3Cl)ccc2CC1C(=O)NC1CCCc2ccccc21)C(C)(C)C

> <Shape>
0.147

> <Color>
0.190

> <Negative vol penalty>
0.000

$$$$

  -OEChem-04052316043D

 80 88  0     1  0  0  0  0  0999 V2000
  -28.0468  -37.0483   21.1312 C   0  0  0  0  0  0  0  0  0  0  0  0
  -28.4614  -35.7305   20.9672 C   0  0  0  0  0  0  0  0  0  0  0  0
  -26.8777  -12.7324   21.8103 C   0  0  0  0  0  0  0  0  0  0  0  0
  -26.2289  -14.3607   20.1475 C   0  0  0  0  0  0  0  0  0  0  0  0
  -26.9271  -37.3336   21.9115 C   0  0  0  0  0  0  0  0  0  0  0  0
  -27.7571  -34.6973   21.5842 C   0  0  0  0  0  0  0  0  0  0  0  0
  -26.8378  -29.0506   19.3989 C   0  0  0  0  0  0  0  0  0  0  0  0
  -25.5582  -12.2872   21.8893 C   0  0  0  0  0  0  0  0  0  0  0  0
  -24.9093  -13.9154   20.2264 C   0  0  0  0  0  0  0  0  0  0  0  0
  -27.4752  -27.8349   19.6433 C   0  0  0  0  0  0  0  0  0  0  0  0
  -23.4883  -10.3002   20.1003 C   0  0  0  0  0  0  0  0  0  0  0  0
  -23.2681   -8.9229   20.1042 C   0  0  0  0  0  0  0  0  0  0  0  0
  -25.7846  -27.2830   21.2731 C   0  0  0  0  0  0  0  0  0  0  0  0
  -29.0899  -23.0657   19.5815 C   0  0  0  0  0  0  0  0  0  0  0  0
  -30.3909  -22.6609   22.0159 C   0  0  0  0  0  0  0  0  0  0  0  0
  -22.2060   -9.0990   22.2672 C   0  0  0  0  0  0  0  0  0  0  0  0
  -27.2130  -13.7692   20.9394 C   0  0  0  0  0  0  0  0  0  0  0  0
  -29.5840  -13.7540   19.9981 C   0  0  0  0  0  0  0  0  0  0  0  0
  -26.2031  -36.3025   22.5306 C   0  0  0  0  0  0  0  0  0  0  0  0
  -25.6731  -29.3969   20.0989 C   0  0  0  0  0  0  0  0  0  0  0  0
  -26.6275  -34.9691   22.3746 C   0  0  0  0  0  0  0  0  0  0  0  0
  -25.1329  -28.5025   21.0340 C   0  0  0  0  0  0  0  0  0  0  0  0
  -29.2702  -24.1326   20.4617 C   0  0  0  0  0  0  0  0  0  0  0  0
  -29.5600  -21.7964   19.9185 C   0  0  0  0  0  0  0  0  0  0  0  0
  -29.9208  -23.9302   21.6789 C   0  0  0  0  0  0  0  0  0  0  0  0
  -30.2105  -21.5940   21.1356 C   0  0  0  0  0  0  0  0  0  0  0  0
  -24.5740  -12.8787   21.0973 C   0  0  0  0  0  0  0  0  0  0  0  0
  -26.9502  -26.9522   20.5825 C   0  0  0  0  0  0  0  0  0  0  0  0
  -23.0676  -11.0770   21.1798 C   0  0  0  0  0  0  0  0  0  0  0  0
  -22.6269   -8.3223   21.1877 C   0  0  0  0  0  0  0  0  0  0  0  0
  -22.4264  -10.4764   22.2632 C   0  0  0  0  0  0  0  0  0  0  0  0
  -28.5758  -14.2299   20.8578 C   0  0  0  0  0  0  0  0  0  0  0  0
  -30.6863  -14.5121   20.3091 C   0  0  0  0  0  0  0  0  0  0  0  0
  -29.5289  -12.7194   19.0071 C   0  0  0  0  0  0  0  0  0  0  0  0
  -24.8705  -31.7300   22.1030 C   0  0  0  0  0  0  0  0  0  0  0  0
  -21.9183  -30.4120   21.8392 C   0  0  0  0  0  0  0  0  0  0  0  0
  -20.0263  -27.6600   21.1367 C   0  0  0  0  0  0  0  0  0  0  0  0
  -31.3605  -19.9598   22.6697 C   0  0  0  0  0  0  0  0  0  0  0  0
  -25.0271  -36.6638   23.4031 C   0  0  0  0  0  0  0  0  0  0  0  0
  -24.9826  -30.7003   19.8045 C   0  0  0  0  0  0  0  0  0  0  0  0
  -23.8735  -28.8181   21.7975 C   0  0  0  0  0  0  0  0  0  0  0  0
  -24.1153  -35.4805   23.7170 C   0  0  0  0  0  0  0  0  0  0  0  0
  -32.6788  -16.9083   23.9454 C   0  0  0  0  0  0  0  0  0  0  0  0
  -24.9398  -34.2678   24.1369 C   0  0  0  0  0  0  0  0  0  0  0  0
  -31.8721  -15.8317   23.2156 C   0  0  0  0  0  0  0  0  0  0  0  0
  -31.8222  -18.1273   24.2833 C   0  0  0  0  0  0  0  0  0  0  0  0
  -30.2908  -17.6344   22.4175 C   0  0  0  0  0  0  0  0  0  0  0  0
  -25.8751  -33.8188   23.0077 C   0  0  1  0  0  0  0  0  0  0  0  0
  -24.0888  -31.1743   20.9464 C   0  0  1  0  0  0  0  0  0  0  0  0
  -31.1269  -16.4140   21.9986 C   0  0  2  0  0  0  0  0  0  0  0  0
  -29.3530  -20.6719   18.9564 C   0  0  0  0  0  0  0  0  0  0  0  0
  -30.1251  -25.0573   22.6372 C   0  0  0  0  0  0  0  0  0  0  0  0
  -17.6432  -26.8793   21.0438 C   0  0  0  0  0  0  0  0  0  0  0  0
  -21.8544  -30.2523   24.8856 C   0  0  0  0  0  0  0  0  0  0  0  0
  -19.9450  -28.6445   24.6917 C   0  0  0  0  0  0  0  0  0  0  0  0
  -19.7035  -30.9742   23.8335 C   0  0  0  0  0  0  0  0  0  0  0  0
  -20.2170  -27.0501   18.2470 C   0  0  0  0  0  0  0  0  0  0  0  0
  -28.7557  -25.4888   20.0779 C   0  0  0  0  0  0  0  0  0  1  0  0
  -21.1590  -29.3343   22.5748 C   0  0  1  0  0  0  0  0  0  0  0  0
  -18.8008  -27.4773   20.2596 C   0  0  2  0  0  0  0  0  0  0  0  0
  -20.6903  -29.7959   23.9836 C   0  0  0  0  0  0  0  0  0  0  0  0
  -29.0001  -15.2139   21.6551 N   0  0  0  0  0  0  0  0  0  0  0  0
  -30.2871  -15.3625   21.2978 N   0  0  0  0  0  0  0  0  0  0  0  0
  -23.2386  -30.1076   21.4788 N   0  0  0  0  0  0  0  0  0  0  0  0
  -31.1502  -18.6269   23.0817 N   0  0  0  0  0  0  0  0  0  0  0  0
  -31.9486  -14.5274   19.8305 N   0  0  0  0  0  0  0  0  0  0  0  0
  -28.3176  -12.0407   18.8163 N   0  0  0  0  0  0  0  0  0  0  0  0
  -30.6953  -20.3122   21.4958 N   0  0  0  0  0  0  0  0  0  0  0  0
  -25.1378  -33.0820   22.0036 N   0  0  0  0  0  0  0  0  0  0  0  0
  -20.0749  -28.9222   21.6897 N   0  0  0  0  0  0  0  0  0  0  0  0
  -19.1118  -26.5723   19.1172 N   0  3  0  0  0  0  0  0  0  0  0  0
  -30.5289  -12.3948   18.3228 O   0  0  0  0  0  0  0  0  0  0  0  0
  -25.2051  -30.9873   23.0186 O   0  0  0  0  0  0  0  0  0  0  0  0
  -21.3582  -31.4818   21.5873 O   0  0  0  0  0  0  0  0  0  0  0  0
  -20.8553  -26.7707   21.3166 O   0  0  0  0  0  0  0  0  0  0  0  0
  -32.0995  -20.7238   23.2961 O   0  0  0  0  0  0  0  0  0  0  0  0
  -23.2863  -12.4444   21.1740 O   0  0  0  0  0  0  0  0  0  0  0  0
  -27.5708  -25.7653   20.8234 O   0  0  0  0  0  0  0  0  0  1  0  0
  -22.4140   -6.9999   21.1907 F   0  0  0  0  0  0  0  0  0  0  0  0
  -22.0188  -11.2176   23.3026 F   0  0  0  0  0  0  0  0  0  0  0  0
  1  2  1  0  0  0  0
  1  5  2  0  0  0  0
  2  6  2  0  0  0  0
  3  8  2  0  0  0  0
  3 17  1  0  0  0  0
  4  9  1  0  0  0  0
  4 17  2  0  0  0  0
  5 19  1  0  0  0  0
  6 21  1  0  0  0  0
  7 10  2  0  0  0  0
  7 20  1  0  0  0  0
  8 27  1  0  0  0  0
  9 27  2  0  0  0  0
 10 28  1  0  0  0  0
 11 12  2  0  0  0  0
 11 29  1  0  0  0  0
 12 30  1  0  0  0  0
 13 22  1  0  0  0  0
 13 28  2  0  0  0  0
 14 23  1  0  0  0  0
 14 24  2  0  0  0  0
 15 25  1  0  0  0  0
 15 26  2  0  0  0  0
 16 30  2  0  0  0  0
 16 31  1  0  0  0  0
 17 32  1  0  0  0  0
 18 32  1  0  0  0  0
 18 33  2  0  0  0  0
 18 34  1  0  0  0  0
 19 21  2  0  0  0  0
 19 39  1  0  0  0  0
 20 22  2  0  0  0  0
 20 40  1  0  0  0  0
 21 48  1  0  0  0  0
 22 41  1  0  0  0  0
 23 25  2  0  0  0  0
 23 58  1  0  0  0  0
 24 26  1  0  0  0  0
 24 51  1  0  0  0  0
 25 52  1  0  0  0  0
 26 68  1  0  0  0  0
 27 77  1  0  0  0  0
 28 78  1  0  0  0  0
 29 31  2  0  0  0  0
 29 77  1  0  0  0  0
 30 79  1  0  0  0  0
 31 80  1  0  0  0  0
 32 62  2  0  0  0  0
 33 63  1  0  0  0  0
 33 66  1  0  0  0  0
 34 67  1  0  0  0  0
 34 72  2  0  0  0  0
 35 49  1  0  0  0  0
 35 69  1  0  0  0  0
 35 73  2  0  0  0  0
 36 59  1  0  0  0  0
 36 64  1  0  0  0  0
 36 74  2  0  0  0  0
 37 60  1  0  0  0  0
 37 70  1  0  0  0  0
 37 75  2  0  0  0  0
 38 65  1  0  0  0  0
 38 68  1  0  0  0  0
 38 76  2  0  0  0  0
 39 42  1  0  0  0  0
 40 49  1  0  0  0  0
 41 64  1  0  0  0  0
 42 44  1  0  0  0  0
 43 45  1  0  0  0  0
 43 46  1  0  0  0  0
 44 48  1  0  0  0  0
 45 50  1  0  0  0  0
 46 65  1  0  0  0  0
 47 50  1  0  0  0  0
 47 65  1  0  0  0  0
 48 69  1  0  0  0  0
 49 64  1  0  0  0  0
 50 63  1  0  0  0  0
 53 60  1  0  0  0  0
 54 61  1  0  0  0  0
 55 61  1  0  0  0  0
 56 61  1  0  0  0  0
 57 71  1  0  0  0  0
 58 78  1  0  0  0  0
 59 61  1  0  0  0  0
 59 70  1  0  0  0  0
 60 71  1  0  0  0  0
 62 63  1  0  0  0  0
M  CHG  1  71   1
M  ISO  4  38 100  58 101  68 100  78 101
M  END
> <Batch ID>
0018

> <Smiles>
CNC(C)C(=O)NC(C(=O)N1Cc2cc([101O:1][101CH2:1]c3cc(C)c([100NH:0][100C:0](=O)N4CCCC(n5nc(-c6ccc(Oc7ccc(F)cc7F)cc6)c(C(N)=O)c5N)C4)cc3C)ccc2CC1C(=O)NC1CCCc2ccccc21)C(C)(C)C

> <Shape>
0.343

> <Color>
0.078

> <Negative vol penalty>
0.000

$$$$

  -OEChem-04052316043D

 82 90  0     1  0  0  0  0  0999 V2000
  -27.8703  -33.1387   26.8131 C   0  0  0  0  0  0  0  0  0  0  0  0
  -28.0431  -31.9968   26.0374 C   0  0  0  0  0  0  0  0  0  0  0  0
  -23.9881  -13.0749   20.8496 C   0  0  0  0  0  0  0  0  0  0  0  0
  -26.3786  -13.4250   20.8516 C   0  0  0  0  0  0  0  0  0  0  0  0
  -26.5851  -33.5793   27.1262 C   0  0  0  0  0  0  0  0  0  0  0  0
  -26.9307  -31.2943   25.5752 C   0  0  0  0  0  0  0  0  0  0  0  0
  -27.3512  -29.9774   20.7035 C   0  0  0  0  0  0  0  0  0  0  0  0
  -24.1814  -11.7571   20.4351 C   0  0  0  0  0  0  0  0  0  0  0  0
  -26.5719  -12.1072   20.4371 C   0  0  0  0  0  0  0  0  0  0  0  0
  -28.1582  -28.8796   20.4080 C   0  0  0  0  0  0  0  0  0  0  0  0
  -24.0608   -8.1940   19.7247 C   0  0  0  0  0  0  0  0  0  0  0  0
  -23.3225   -7.1982   20.3640 C   0  0  0  0  0  0  0  0  0  0  0  0
  -26.1938  -27.4907   20.2310 C   0  0  0  0  0  0  0  0  0  0  0  0
  -28.3299  -24.0658   23.9552 C   0  0  0  0  0  0  0  0  0  0  0  0
  -24.3235   -7.8116   22.4756 C   0  0  0  0  0  0  0  0  0  0  0  0
  -25.0867  -13.9088   21.0578 C   0  0  0  0  0  0  0  0  0  0  0  0
  -24.8173  -15.7439   22.8092 C   0  0  0  0  0  0  0  0  0  0  0  0
  -25.4563  -32.8873   26.6596 C   0  0  0  0  0  0  0  0  0  0  0  0
  -25.9578  -29.8375   20.7758 C   0  0  0  0  0  0  0  0  0  0  0  0
  -25.6293  -31.7254   25.8835 C   0  0  0  0  0  0  0  0  0  0  0  0
  -25.3711  -28.5888   20.5250 C   0  0  0  0  0  0  0  0  0  0  0  0
  -29.2082  -24.7048   23.0801 C   0  0  0  0  0  0  0  0  0  0  0  0
  -29.1511  -24.4335   21.7131 C   0  0  0  0  0  0  0  0  0  0  0  0
  -27.3374  -22.8841   22.0963 C   0  0  0  0  0  0  0  0  0  0  0  0
  -25.4733  -11.2733   20.2289 C   0  0  0  0  0  0  0  0  0  0  0  0
  -27.5798  -27.6354   20.1746 C   0  0  0  0  0  0  0  0  0  0  0  0
  -24.9306   -8.9987   20.4608 C   0  0  0  0  0  0  0  0  0  0  0  0
  -23.4538   -7.0070   21.7394 C   0  0  0  0  0  0  0  0  0  0  0  0
  -25.0619   -8.8075   21.8362 C   0  0  0  0  0  0  0  0  0  0  0  0
  -28.2157  -23.5231   21.2212 C   0  0  0  0  0  0  0  0  0  0  0  0
  -27.3945  -23.1554   23.4633 C   0  0  0  0  0  0  0  0  0  0  0  0
  -24.8876  -15.2703   21.4854 C   0  0  0  0  0  0  0  0  0  0  0  0
  -24.6201  -17.0970   22.6798 C   0  0  0  0  0  0  0  0  0  0  0  0
  -24.9212  -15.0251   24.0454 C   0  0  0  0  0  0  0  0  0  0  0  0
  -23.7798  -30.2255   23.0582 C   0  0  0  0  0  0  0  0  0  0  0  0
  -21.7025  -29.6651   20.6306 C   0  0  0  0  0  0  0  0  0  0  0  0
  -21.1375  -28.2831   17.5618 C   0  0  0  0  0  0  0  0  0  0  0  0
  -25.8140  -21.9879   20.3013 C   0  0  0  0  0  0  0  0  0  0  0  0
  -24.0875  -33.3751   27.0636 C   0  0  0  0  0  0  0  0  0  0  0  0
  -25.0993  -31.0372   21.0693 C   0  0  0  0  0  0  0  0  0  0  0  0
  -23.8788  -28.3902   20.5705 C   0  0  0  0  0  0  0  0  0  0  0  0
  -22.9583  -32.7866   26.2216 C   0  0  0  0  0  0  0  0  0  0  0  0
  -23.4898  -19.8866   18.6101 C   0  0  0  0  0  0  0  0  0  0  0  0
  -23.1367  -31.2796   26.0678 C   0  0  0  0  0  0  0  0  0  0  0  0
  -23.6405  -18.5373   19.3163 C   0  0  0  0  0  0  0  0  0  0  0  0
  -24.8280  -20.6122   18.4818 C   0  0  0  0  0  0  0  0  0  0  0  0
  -25.7219  -19.4214   20.4446 C   0  0  0  0  0  0  0  0  0  0  0  0
  -24.4473  -30.9503   25.3429 C   0  0  1  0  0  0  0  0  0  0  0  0
  -23.7266  -30.6685   21.6234 C   0  0  1  0  0  0  0  0  0  0  0  0
  -24.3902  -18.6825   20.6551 C   0  0  2  0  0  0  0  0  0  0  0  0
  -30.2016  -25.6747   23.6306 C   0  0  0  0  0  0  0  0  0  0  0  0
  -19.3306  -27.9548   15.8516 C   0  0  0  0  0  0  0  0  0  0  0  0
  -20.4681  -27.4746   22.3590 C   0  0  0  0  0  0  0  0  0  0  0  0
  -19.3525  -26.5788   20.3045 C   0  0  0  0  0  0  0  0  0  0  0  0
  -18.8140  -28.8765   21.1128 C   0  0  0  0  0  0  0  0  0  0  0  0
  -22.6418  -29.7977   15.5119 C   0  0  0  0  0  0  0  0  0  0  0  0
  -30.0938  -25.1133   20.7500 C   0  0  0  0  0  0  0  0  0  0  0  0
  -29.6776  -26.5486   20.4471 C   0  0  0  0  0  0  0  0  0  1  0  0
  -21.0589  -28.4355   20.0366 C   0  0  1  0  0  0  0  0  0  0  0  0
  -20.4786  -28.8394   16.3124 C   0  0  2  0  0  0  0  0  0  0  0  0
  -19.9516  -27.8443   20.9542 C   0  0  0  0  0  0  0  0  0  0  0  0
  -24.7463  -16.2434   20.5814 N   0  0  0  0  0  0  0  0  0  0  0  0
  -24.5852  -17.3420   21.3385 N   0  0  0  0  0  0  0  0  0  0  0  0
  -23.0825  -29.5923   20.8678 N   0  0  0  0  0  0  0  0  0  0  0  0
  -25.4787  -20.7164   19.7897 N   0  0  0  0  0  0  0  0  0  0  0  0
  -24.4748  -18.0892   23.5836 N   0  0  0  0  0  0  0  0  0  0  0  0
  -25.1234  -13.6390   23.9973 N   0  0  0  0  0  0  0  0  0  0  0  0
  -26.3985  -21.9643   21.5671 N   0  0  0  0  0  0  0  0  0  0  0  0
  -24.3063  -31.1693   23.9193 N   0  0  0  0  0  0  0  0  0  0  0  0
  -20.5923  -28.8200   18.7088 N   0  0  0  0  0  0  0  0  0  0  0  0
  -21.4700  -28.9380   15.2041 N   0  3  0  0  0  0  0  0  0  0  0  0
  -24.8206  -15.5925   25.1596 O   0  0  0  0  0  0  0  0  0  0  0  0
  -23.3719  -29.1105   23.3617 O   0  0  0  0  0  0  0  0  0  0  0  0
  -21.0079  -30.6564   20.8684 O   0  0  0  0  0  0  0  0  0  0  0  0
  -22.0426  -27.4525   17.5240 O   0  0  0  0  0  0  0  0  0  0  0  0
  -25.5736  -23.0233   19.6751 O   0  0  0  0  0  0  0  0  0  0  0  0
  -25.6623   -9.9874   19.8247 O   0  0  0  0  0  0  0  0  0  0  0  0
  -28.3653  -26.5621   19.8867 O   0  0  0  0  0  0  0  0  0  1  0  0
  -22.7436   -6.0516   22.3535 F   0  0  0  0  0  0  0  0  0  0  0  0
  -25.8950   -9.5781   22.5489 F   0  0  0  0  0  0  0  0  0  0  0  0
  -28.1629  -23.2637   19.9057 F   0  0  0  0  0  0  0  0  0  0  0  0
  -26.3248  -22.3874   24.5820 Cl  0  0  0  0  0  0  0  0  0  0  0  0
  1  2  1  0  0  0  0
  1  5  2  0  0  0  0
  2  6  2  0  0  0  0
  3  8  2  0  0  0  0
  3 16  1  0  0  0  0
  4  9  1  0  0  0  0
  4 16  2  0  0  0  0
  5 18  1  0  0  0  0
  6 20  1  0  0  0  0
  7 10  2  0  0  0  0
  7 19  1  0  0  0  0
  8 25  1  0  0  0  0
  9 25  2  0  0  0  0
 10 26  1  0  0  0  0
 11 12  2  0  0  0  0
 11 27  1  0  0  0  0
 12 28  1  0  0  0  0
 13 21  1  0  0  0  0
 13 26  2  0  0  0  0
 14 22  2  0  0  0  0
 14 31  1  0  0  0  0
 15 28  2  0  0  0  0
 15 29  1  0  0  0  0
 16 32  1  0  0  0  0
 17 32  1  0  0  0  0
 17 33  2  0  0  0  0
 17 34  1  0  0  0  0
 18 20  2  0  0  0  0
 18 39  1  0  0  0  0
 19 21  2  0  0  0  0
 19 40  1  0  0  0  0
 20 48  1  0  0  0  0
 21 41  1  0  0  0  0
 22 23  1  0  0  0  0
 22 51  1  0  0  0  0
 23 30  2  0  0  0  0
 23 57  1  0  0  0  0
 24 30  1  0  0  0  0
 24 31  2  0  0  0  0
 24 68  1  0  0  0  0
 25 77  1  0  0  0  0
 26 78  1  0  0  0  0
 27 29  2  0  0  0  0
 27 77  1  0  0  0  0
 28 79  1  0  0  0  0
 29 80  1  0  0  0  0
 30 81  1  0  0  0  0
 31 82  1  0  0  0  0
 32 62  2  0  0  0  0
 33 63  1  0  0  0  0
 33 66  1  0  0  0  0
 34 67  1  0  0  0  0
 34 72  2  0  0  0  0
 35 49  1  0  0  0  0
 35 69  1  0  0  0  0
 35 73  2  0  0  0  0
 36 59  1  0  0  0  0
 36 64  1  0  0  0  0
 36 74  2  0  0  0  0
 37 60  1  0  0  0  0
 37 70  1  0  0  0  0
 37 75  2  0  0  0  0
 38 65  1  0  0  0  0
 38 68  1  0  0  0  0
 38 76  2  0  0  0  0
 39 42  1  0  0  0  0
 40 49  1  0  0  0  0
 41 64  1  0  0  0  0
 42 44  1  0  0  0  0
 43 45  1  0  0  0  0
 43 46  1  0  0  0  0
 44 48  1  0  0  0  0
 45 50  1  0  0  0  0
 46 65  1  0  0  0  0
 47 50  1  0  0  0  0
 47 65  1  0  0  0  0
 48 69  1  0  0  0  0
 49 64  1  0  0  0  0
 50 63  1  0  0  0  0
 52 60  1  0  0  0  0
 53 61  1  0  0  0  0
 54 61  1  0  0  0  0
 55 61  1  0  0  0  0
 56 71  1  0  0  0  0
 57 58  1  0  0  0  0
 58 78  1  0  0  0  0
 59 61  1  0  0  0  0
 59 70  1  0  0  0  0
 60 71  1  0  0  0  0
 62 63  1  0  0  0  0
M  CHG  1  71   1
M  ISO  4  38 100  58 101  68 100  78 101
M  END
> <Batch ID>
0018

> <Smiles>
CNC(C)C(=O)NC(C(=O)N1Cc2cc([101O:1][101CH2:1]Cc3c(C)cc(Cl)c([100NH:0][100C:0](=O)N4CCCC(n5nc(-c6ccc(Oc7ccc(F)cc7F)cc6)c(C(N)=O)c5N)C4)c3F)ccc2CC1C(=O)NC1CCCc2ccccc21)C(C)(C)C

> <Shape>
0.230

> <Color>
0.088

> <Negative vol penalty>
0.000

$$$$

  -OEChem-04052316043D

 87 95  0     1  0  0  0  0  0999 V2000
  -27.7178  -37.3121   24.8105 C   0  0  0  0  0  0  0  0  0  0  0  0
  -28.2014  -36.5737   23.7352 C   0  0  0  0  0  0  0  0  0  0  0  0
  -24.6034   -8.7359   20.9281 C   0  0  0  0  0  0  0  0  0  0  0  0
  -23.0878  -10.5605   20.4691 C   0  0  0  0  0  0  0  0  0  0  0  0
  -27.0122  -36.6755   25.8307 C   0  0  0  0  0  0  0  0  0  0  0  0
  -27.9806  -35.1980   23.6800 C   0  0  0  0  0  0  0  0  0  0  0  0
  -26.8600  -29.9075   18.9820 C   0  0  0  0  0  0  0  0  0  0  0  0
  -23.5609   -8.0170   21.5129 C   0  0  0  0  0  0  0  0  0  0  0  0
  -22.0452   -9.8416   21.0539 C   0  0  0  0  0  0  0  0  0  0  0  0
  -27.3501  -28.6474   18.6418 C   0  0  0  0  0  0  0  0  0  0  0  0
  -20.9277   -6.1636   20.4816 C   0  0  0  0  0  0  0  0  0  0  0  0
  -20.7988   -4.8168   20.1423 C   0  0  0  0  0  0  0  0  0  0  0  0
  -26.0497  -27.6676   20.4217 C   0  0  0  0  0  0  0  0  0  0  0  0
  -28.6593  -23.3750   20.0684 C   0  0  0  0  0  0  0  0  0  0  0  0
  -21.0888   -4.2048   22.4615 C   0  0  0  0  0  0  0  0  0  0  0  0
  -24.3669  -10.0077   20.4063 C   0  0  0  0  0  0  0  0  0  0  0  0
  -25.8337  -10.7352   18.4501 C   0  0  0  0  0  0  0  0  0  0  0  0
  -26.7743  -35.2928   25.7832 C   0  0  0  0  0  0  0  0  0  0  0  0
  -25.9679  -30.0587   20.0534 C   0  0  0  0  0  0  0  0  0  0  0  0
  -27.2724  -34.5421   24.7013 C   0  0  0  0  0  0  0  0  0  0  0  0
  -25.5477  -28.9303   20.7719 C   0  0  0  0  0  0  0  0  0  0  0  0
  -27.6260  -23.9381   19.3195 C   0  0  0  0  0  0  0  0  0  0  0  0
  -27.2182  -23.3350   18.1298 C   0  0  0  0  0  0  0  0  0  0  0  0
  -28.8770  -21.6057   18.4378 C   0  0  0  0  0  0  0  0  0  0  0  0
  -22.2818   -8.5699   21.5758 C   0  0  0  0  0  0  0  0  0  0  0  0
  -26.9472  -27.5276   19.3635 C   0  0  0  0  0  0  0  0  0  0  0  0
  -21.1372   -6.5310   21.8108 C   0  0  0  0  0  0  0  0  0  0  0  0
  -27.8437  -22.1687   17.6889 C   0  0  0  0  0  0  0  0  0  0  0  0
  -20.8793   -3.8374   21.1323 C   0  0  0  0  0  0  0  0  0  0  0  0
  -29.2848  -22.2088   19.6275 C   0  0  0  0  0  0  0  0  0  0  0  0
  -21.2177   -5.5516   22.8007 C   0  0  0  0  0  0  0  0  0  0  0  0
  -25.4435  -10.7510   19.8026 C   0  0  0  0  0  0  0  0  0  0  0  0
  -26.8962  -11.6035   18.3891 C   0  0  0  0  0  0  0  0  0  0  0  0
  -25.2848  -10.0013   17.3475 C   0  0  0  0  0  0  0  0  0  0  0  0
  -26.0385  -31.6046   22.8299 C   0  0  0  0  0  0  0  0  0  0  0  0
  -29.1950  -16.5139   19.7650 C   0  0  0  0  0  0  0  0  0  0  0  0
  -22.9501  -30.6285   23.0074 C   0  0  0  0  0  0  0  0  0  0  0  0
  -20.5565  -28.3976   22.0377 C   0  0  0  0  0  0  0  0  0  0  0  0
  -26.0475  -34.6414   26.9330 C   0  0  0  0  0  0  0  0  0  0  0  0
  -25.4277  -31.4213   20.3908 C   0  0  0  0  0  0  0  0  0  0  0  0
  -24.5760  -29.0364   21.9178 C   0  0  0  0  0  0  0  0  0  0  0  0
  -25.5324  -33.2405   26.6127 C   0  0  0  0  0  0  0  0  0  0  0  0
  -29.5866  -13.7910   22.0612 C   0  0  0  0  0  0  0  0  0  0  0  0
  -26.6174  -32.4169   25.9262 C   0  0  0  0  0  0  0  0  0  0  0  0
  -28.5549  -12.7691   21.5855 C   0  0  0  0  0  0  0  0  0  0  0  0
  -29.0872  -15.2196   21.8692 C   0  0  0  0  0  0  0  0  0  0  0  0
  -27.6393  -14.5139   19.9910 C   0  0  0  0  0  0  0  0  0  0  0  0
  -27.0318  -33.0519   24.5933 C   0  0  1  0  0  0  0  0  0  0  0  0
  -24.9228  -31.5252   21.8266 C   0  0  1  0  0  0  0  0  0  0  0  0
  -28.1166  -13.0583   20.1389 C   0  0  2  0  0  0  0  0  0  0  0  0
  -26.1109  -23.9359   17.3238 C   0  0  0  0  0  0  0  0  0  0  0  0
  -27.5378  -21.2193   14.1606 C   0  0  0  0  0  0  0  0  0  0  0  0
  -18.1351  -27.8339   22.3788 C   0  0  0  0  0  0  0  0  0  0  0  0
  -29.2111  -17.8523   16.1677 C   0  0  0  0  0  0  0  0  0  0  0  0
  -23.6144  -29.4373   25.7368 C   0  0  0  0  0  0  0  0  0  0  0  0
  -21.4992  -28.1058   25.5929 C   0  0  0  0  0  0  0  0  0  0  0  0
  -21.4027  -30.5983   25.6156 C   0  0  0  0  0  0  0  0  0  0  0  0
  -19.9380  -28.8060   19.1724 C   0  0  0  0  0  0  0  0  0  0  0  0
  -29.5570  -20.3574   17.9797 C   0  0  0  0  0  0  0  0  0  0  0  0
  -26.9697  -25.1929   19.8157 C   0  0  0  0  0  0  0  0  0  1  0  0
  -28.7088  -16.6824   18.3475 C   0  0  0  0  0  0  0  0  0  0  0  0
  -28.1037  -21.9944   15.3314 C   0  0  0  0  0  0  0  0  0  0  0  0
  -22.2438  -29.4092   23.5490 C   0  0  1  0  0  0  0  0  0  0  0  0
  -19.1399  -28.5973   21.5300 C   0  0  2  0  0  0  0  0  0  0  0  0
  -29.3717  -17.8846   17.6809 C   0  0  2  0  0  0  0  0  0  0  0  0
  -22.2098  -29.3856   25.1033 C   0  0  0  0  0  0  0  0  0  0  0  0
  -26.1968  -11.5648   20.5471 N   0  0  0  0  0  0  0  0  0  0  0  0
  -27.0711  -12.0683   19.6594 N   0  0  0  0  0  0  0  0  0  0  0  0
  -24.0809  -30.3911   22.2132 N   0  0  0  0  0  0  0  0  0  0  0  0
  -28.6595  -15.4477   20.4878 N   0  0  0  0  0  0  0  0  0  0  0  0
  -27.6885  -12.0071   17.3734 N   0  0  0  0  0  0  0  0  0  0  0  0
  -24.1940   -9.1541   17.5855 N   0  0  0  0  0  0  0  0  0  0  0  0
  -26.0463  -32.7706   23.5715 N   0  0  0  0  0  0  0  0  0  0  0  0
  -20.9265  -29.3885   22.9222 N   0  0  0  0  0  0  0  0  0  0  0  0
  -19.0224  -28.1228   20.1222 N   0  3  0  0  0  0  0  0  0  0  0  0
  -28.7372  -19.1319   18.1819 N   0  3  0  0  0  0  0  0  0  0  0  0
  -25.7584  -10.0815   16.1886 O   0  0  0  0  0  0  0  0  0  0  0  0
  -26.8326  -30.6762   22.9252 O   0  0  0  0  0  0  0  0  0  0  0  0
  -30.0282  -17.3055   20.2137 O   0  0  0  0  0  0  0  0  0  0  0  0
  -22.5105  -31.7500   23.2731 O   0  0  0  0  0  0  0  0  0  0  0  0
  -21.2628  -27.4546   21.6876 O   0  0  0  0  0  0  0  0  0  0  0  0
  -21.2642   -7.8686   22.1461 O   0  0  0  0  0  0  0  0  0  0  0  0
  -27.4246  -26.2966   19.0339 O   0  0  0  0  0  0  0  0  0  1  0  0
  -27.4462  -21.5777   16.5254 O   0  0  0  0  0  0  0  0  0  0  0  0
  -20.7539   -2.5442   20.8065 F   0  0  0  0  0  0  0  0  0  0  0  0
  -30.2767  -21.6755   20.3546 F   0  0  0  0  0  0  0  0  0  0  0  0
  -21.4177   -5.8986   24.0796 F   0  0  0  0  0  0  0  0  0  0  0  0
  1  2  1  0  0  0  0
  1  5  2  0  0  0  0
  2  6  2  0  0  0  0
  3  8  2  0  0  0  0
  3 16  1  0  0  0  0
  4  9  1  0  0  0  0
  4 16  2  0  0  0  0
  5 18  1  0  0  0  0
  6 20  1  0  0  0  0
  7 10  2  0  0  0  0
  7 19  1  0  0  0  0
  8 25  1  0  0  0  0
  9 25  2  0  0  0  0
 10 26  1  0  0  0  0
 11 12  2  0  0  0  0
 11 27  1  0  0  0  0
 12 29  1  0  0  0  0
 13 21  1  0  0  0  0
 13 26  2  0  0  0  0
 14 22  1  0  0  0  0
 14 30  2  0  0  0  0
 15 29  2  0  0  0  0
 15 31  1  0  0  0  0
 16 32  1  0  0  0  0
 17 32  1  0  0  0  0
 17 33  2  0  0  0  0
 17 34  1  0  0  0  0
 18 20  2  0  0  0  0
 18 39  1  0  0  0  0
 19 21  2  0  0  0  0
 19 40  1  0  0  0  0
 20 48  1  0  0  0  0
 21 41  1  0  0  0  0
 22 23  2  0  0  0  0
 22 60  1  0  0  0  0
 23 28  1  0  0  0  0
 23 51  1  0  0  0  0
 24 28  2  0  0  0  0
 24 30  1  0  0  0  0
 24 59  1  0  0  0  0
 25 82  1  0  0  0  0
 26 83  1  0  0  0  0
 27 31  2  0  0  0  0
 27 82  1  0  0  0  0
 28 84  1  0  0  0  0
 29 85  1  0  0  0  0
 30 86  1  0  0  0  0
 31 87  1  0  0  0  0
 32 67  2  0  0  0  0
 33 68  1  0  0  0  0
 33 71  1  0  0  0  0
 34 72  1  0  0  0  0
 34 77  2  0  0  0  0
 35 49  1  0  0  0  0
 35 73  1  0  0  0  0
 35 78  2  0  0  0  0
 36 61  1  0  0  0  0
 36 70  1  0  0  0  0
 36 79  2  0  0  0  0
 37 63  1  0  0  0  0
 37 69  1  0  0  0  0
 37 80  2  0  0  0  0
 38 64  1  0  0  0  0
 38 74  1  0  0  0  0
 38 81  2  0  0  0  0
 39 42  1  0  0  0  0
 40 49  1  0  0  0  0
 41 69  1  0  0  0  0
 42 44  1  0  0  0  0
 43 45  1  0  0  0  0
 43 46  1  0  0  0  0
 44 48  1  0  0  0  0
 45 50  1  0  0  0  0
 46 70  1  0  0  0  0
 47 50  1  0  0  0  0
 47 70  1  0  0  0  0
 48 73  1  0  0  0  0
 49 69  1  0  0  0  0
 50 68  1  0  0  0  0
 52 62  1  0  0  0  0
 53 64  1  0  0  0  0
 54 65  1  0  0  0  0
 55 66  1  0  0  0  0
 56 66  1  0  0  0  0
 57 66  1  0  0  0  0
 58 75  1  0  0  0  0
 59 76  1  0  0  0  0
 60 83  1  0  0  0  0
 61 65  1  0  0  0  0
 62 84  1  0  0  0  0
 63 66  1  0  0  0  0
 63 74  1  0  0  0  0
 64 75  1  0  0  0  0
 65 76  1  0  0  0  0
 67 68  1  0  0  0  0
M  CHG  2  75   1  76   1
M  ISO  4  36 100  60 101  61 100  83 101
M  END
> <Batch ID>
0018

> <Smiles>
CCOc1c(C)c([101CH2:1][101O:1]c2ccc3c(c2)CN(C(=O)C(NC(=O)C(C)NC)C(C)(C)C)C(C(=O)NC2CCCc4ccccc42)C3)cc(F)c1CNC(C)[100CH2:0][100C:0](=O)N1CCCC(n2nc(-c3ccc(Oc4ccc(F)cc4F)cc3)c(C(N)=O)c2N)C1

> <Shape>
0.321

> <Color>
0.104

> <Negative vol penalty>
0.000

$$$$

  -OEChem-04052316043D

 88 96  0     1  0  0  0  0  0999 V2000
  -35.2573  -32.1741   19.7138 C   0  0  0  0  0  0  0  0  0  0  0  0
  -35.0024  -31.0270   20.4584 C   0  0  0  0  0  0  0  0  0  0  0  0
  -22.9998   -9.8965   19.9798 C   0  0  0  0  0  0  0  0  0  0  0  0
  -23.7292   -9.9407   22.2826 C   0  0  0  0  0  0  0  0  0  0  0  0
  -34.1977  -32.9546   19.2533 C   0  0  0  0  0  0  0  0  0  0  0  0
  -33.6877  -30.6603   20.7441 C   0  0  0  0  0  0  0  0  0  0  0  0
  -31.4647  -24.9705   21.1806 C   0  0  0  0  0  0  0  0  0  0  0  0
  -22.2334   -8.7615   20.2443 C   0  0  0  0  0  0  0  0  0  0  0  0
  -22.9628   -8.8057   22.5472 C   0  0  0  0  0  0  0  0  0  0  0  0
  -31.2034  -24.1470   22.2748 C   0  0  0  0  0  0  0  0  0  0  0  0
  -23.2051   -5.4681   22.0654 C   0  0  0  0  0  0  0  0  0  0  0  0
  -23.7936   -4.4486   22.8136 C   0  0  0  0  0  0  0  0  0  0  0  0
  -28.8964  -24.8512   22.2464 C   0  0  0  0  0  0  0  0  0  0  0  0
  -31.9010  -18.3175   24.1637 C   0  0  0  0  0  0  0  0  0  0  0  0
  -32.0655  -16.5269   22.5501 C   0  0  0  0  0  0  0  0  0  0  0  0
  -22.0729   -4.6873   24.4926 C   0  0  0  0  0  0  0  0  0  0  0  0
  -23.7478  -10.4861   20.9989 C   0  0  0  0  0  0  0  0  0  0  0  0
  -24.1336  -13.0020   20.8293 C   0  0  0  0  0  0  0  0  0  0  0  0
  -32.8691  -32.5921   19.5252 C   0  0  0  0  0  0  0  0  0  0  0  0
  -30.4445  -25.7502   20.6170 C   0  0  0  0  0  0  0  0  0  0  0  0
  -32.6094  -31.4374   20.2880 C   0  0  0  0  0  0  0  0  0  0  0  0
  -29.1467  -25.6819   21.1435 C   0  0  0  0  0  0  0  0  0  0  0  0
  -32.6759  -17.4131   23.4376 C   0  0  0  0  0  0  0  0  0  0  0  0
  -30.5155  -18.3356   24.0023 C   0  0  0  0  0  0  0  0  0  0  0  0
  -29.9052  -17.4494   23.1148 C   0  0  0  0  0  0  0  0  0  0  0  0
  -30.6801  -16.5450   22.3887 C   0  0  0  0  0  0  0  0  0  0  0  0
  -22.2148   -8.2162   21.5280 C   0  0  0  0  0  0  0  0  0  0  0  0
  -29.9198  -24.0894   22.8097 C   0  0  0  0  0  0  0  0  0  0  0  0
  -22.0504   -6.0973   22.5309 C   0  0  0  0  0  0  0  0  0  0  0  0
  -23.2276   -4.0582   24.0271 C   0  0  0  0  0  0  0  0  0  0  0  0
  -21.4844   -5.7069   23.7445 C   0  0  0  0  0  0  0  0  0  0  0  0
  -24.5402  -11.6582   20.7262 C   0  0  0  0  0  0  0  0  0  0  0  0
  -25.2430  -13.7253   20.4649 C   0  0  0  0  0  0  0  0  0  0  0  0
  -22.8666  -13.5478   21.2197 C   0  0  0  0  0  0  0  0  0  0  0  0
  -29.9550  -28.8676   20.2344 C   0  0  0  0  0  0  0  0  0  0  0  0
  -27.3757  -27.8594   18.5453 C   0  0  0  0  0  0  0  0  0  0  0  0
  -25.0844  -25.4021   17.9471 C   0  0  0  0  0  0  0  0  0  0  0  0
  -30.7232  -14.6838   20.6915 C   0  0  0  0  0  0  0  0  0  0  0  0
  -31.7583  -33.4930   19.0465 C   0  0  0  0  0  0  0  0  0  0  0  0
  -30.7365  -26.6132   19.4202 C   0  0  0  0  0  0  0  0  0  0  0  0
  -28.0119  -26.4836   20.5622 C   0  0  0  0  0  0  0  0  0  0  0  0
  -30.3829  -32.8313   19.0736 C   0  0  0  0  0  0  0  0  0  0  0  0
  -29.5998  -12.2379   18.3607 C   0  0  0  0  0  0  0  0  0  0  0  0
  -30.1637  -32.1097   20.3995 C   0  0  0  0  0  0  0  0  0  0  0  0
  -28.1499  -11.9796   18.7768 C   0  0  0  0  0  0  0  0  0  0  0  0
  -30.5026  -12.4776   19.5695 C   0  0  0  0  0  0  0  0  0  0  0  0
  -28.5900  -13.2633   20.9088 C   0  0  0  0  0  0  0  0  0  0  0  0
  -31.1962  -30.9933   20.5973 C   0  0  1  0  0  0  0  0  0  0  0  0
  -29.7387  -27.7544   19.2486 C   0  0  1  0  0  0  0  0  0  0  0  0
  -27.6301  -13.0807   19.7218 C   0  0  2  0  0  0  0  0  0  0  0  0
  -27.9960  -18.1692   21.6575 C   0  0  0  0  0  0  0  0  0  0  0  0
  -23.0758  -24.8829   16.5351 C   0  0  0  0  0  0  0  0  0  0  0  0
  -26.9809  -20.8219   24.8849 C   0  0  0  0  0  0  0  0  0  0  0  0
  -34.5492  -17.0779   25.0882 C   0  0  0  0  0  0  0  0  0  0  0  0
  -34.7894  -18.7701   23.2402 C   0  0  0  0  0  0  0  0  0  0  0  0
  -34.9203  -16.3374   22.7439 C   0  0  0  0  0  0  0  0  0  0  0  0
  -25.6675  -29.6639   20.3162 C   0  0  0  0  0  0  0  0  0  0  0  0
  -23.6486  -28.4132   19.5235 C   0  0  0  0  0  0  0  0  0  0  0  0
  -25.0441  -29.6865   17.8943 C   0  0  0  0  0  0  0  0  0  0  0  0
  -26.4308  -23.0940   16.6748 C   0  0  0  0  0  0  0  0  0  0  0  0
  -28.4182  -17.4723   22.9460 C   0  0  0  0  0  0  0  0  0  0  0  0
  -29.7053  -19.3170   24.7968 C   0  0  0  0  0  0  0  0  0  0  0  0
  -28.3448  -22.7485   23.9834 C   0  0  0  0  0  0  0  0  0  1  0  0
  -25.9392  -27.5365   18.8786 C   0  0  1  0  0  0  0  0  0  0  0  0
  -24.5885  -24.7804   16.6540 C   0  0  2  0  0  0  0  0  0  0  0  0
  -28.3683  -21.4261   24.7415 C   0  0  2  0  0  0  0  0  0  0  0  0
  -34.1570  -17.3928   23.6113 C   0  0  0  0  0  0  0  0  0  0  0  0
  -25.0965  -28.8113   19.1655 C   0  0  0  0  0  0  0  0  0  0  0  0
  -25.8087  -11.5324   20.3273 N   0  0  0  0  0  0  0  0  0  0  0  0
  -26.2088  -12.8065   20.1765 N   0  0  0  0  0  0  0  0  0  0  0  0
  -28.3490  -27.3172   19.3965 N   0  0  0  0  0  0  0  0  0  0  0  0
  -29.9495  -13.5363   20.4168 N   0  0  0  0  0  0  0  0  0  0  0  0
  -25.4767  -15.0512   20.3662 N   0  0  0  0  0  0  0  0  0  0  0  0
  -21.8351  -12.6630   21.5626 N   0  0  0  0  0  0  0  0  0  0  0  0
  -30.0807  -15.6370   21.4810 N   0  0  0  0  0  0  0  0  0  0  0  0
  -30.8448  -29.8339   19.8056 N   0  0  0  0  0  0  0  0  0  0  0  0
  -25.4370  -26.7240   17.7758 N   0  0  0  0  0  0  0  0  0  0  0  0
  -24.9682  -23.3406   16.5925 N   0  3  0  0  0  0  0  0  0  0  0  0
  -29.2195  -20.4622   23.9857 N   0  3  0  0  0  0  0  0  0  0  0  0
  -22.6503  -14.7831   21.2474 O   0  0  0  0  0  0  0  0  0  0  0  0
  -29.3576  -28.8517   21.3043 O   0  0  0  0  0  0  0  0  0  0  0  0
  -27.6254  -28.5608   17.5618 O   0  0  0  0  0  0  0  0  0  0  0  0
  -25.1487  -24.7785   19.0042 O   0  0  0  0  0  0  0  0  0  0  0  0
  -31.8611  -14.8236   20.2358 O   0  0  0  0  0  0  0  0  0  0  0  0
  -21.4669   -7.1088   21.7866 O   0  0  0  0  0  0  0  0  0  0  0  0
  -29.6622  -23.2868   23.8781 O   0  0  0  0  0  0  0  0  0  1  0  0
  -23.7920   -3.0780   24.7447 F   0  0  0  0  0  0  0  0  0  0  0  0
  -20.3745   -6.3069   24.1962 F   0  0  0  0  0  0  0  0  0  0  0  0
  1  2  1  0  0  0  0
  1  5  2  0  0  0  0
  2  6  2  0  0  0  0
  3  8  2  0  0  0  0
  3 17  1  0  0  0  0
  4  9  1  0  0  0  0
  4 17  2  0  0  0  0
  5 19  1  0  0  0  0
  6 21  1  0  0  0  0
  7 10  2  0  0  0  0
  7 20  1  0  0  0  0
  8 27  1  0  0  0  0
  9 27  2  0  0  0  0
 10 28  1  0  0  0  0
 11 12  2  0  0  0  0
 11 29  1  0  0  0  0
 12 30  1  0  0  0  0
 13 22  1  0  0  0  0
 13 28  2  0  0  0  0
 14 23  1  0  0  0  0
 14 24  2  0  0  0  0
 15 23  2  0  0  0  0
 15 26  1  0  0  0  0
 16 30  2  0  0  0  0
 16 31  1  0  0  0  0
 17 32  1  0  0  0  0
 18 32  1  0  0  0  0
 18 33  2  0  0  0  0
 18 34  1  0  0  0  0
 19 21  2  0  0  0  0
 19 39  1  0  0  0  0
 20 22  2  0  0  0  0
 20 40  1  0  0  0  0
 21 48  1  0  0  0  0
 22 41  1  0  0  0  0
 23 67  1  0  0  0  0
 24 25  1  0  0  0  0
 24 62  1  0  0  0  0
 25 26  2  0  0  0  0
 25 61  1  0  0  0  0
 26 75  1  0  0  0  0
 27 85  1  0  0  0  0
 28 86  1  0  0  0  0
 29 31  2  0  0  0  0
 29 85  1  0  0  0  0
 30 87  1  0  0  0  0
 31 88  1  0  0  0  0
 32 69  2  0  0  0  0
 33 70  1  0  0  0  0
 33 73  1  0  0  0  0
 34 74  1  0  0  0  0
 34 80  2  0  0  0  0
 35 49  1  0  0  0  0
 35 76  1  0  0  0  0
 35 81  2  0  0  0  0
 36 64  1  0  0  0  0
 36 71  1  0  0  0  0
 36 82  2  0  0  0  0
 37 65  1  0  0  0  0
 37 77  1  0  0  0  0
 37 83  2  0  0  0  0
 38 72  1  0  0  0  0
 38 75  1  0  0  0  0
 38 84  2  0  0  0  0
 39 42  1  0  0  0  0
 40 49  1  0  0  0  0
 41 71  1  0  0  0  0
 42 44  1  0  0  0  0
 43 45  1  0  0  0  0
 43 46  1  0  0  0  0
 44 48  1  0  0  0  0
 45 50  1  0  0  0  0
 46 72  1  0  0  0  0
 47 50  1  0  0  0  0
 47 72  1  0  0  0  0
 48 76  1  0  0  0  0
 49 71  1  0  0  0  0
 50 70  1  0  0  0  0
 51 61  1  0  0  0  0
 52 65  1  0  0  0  0
 53 66  1  0  0  0  0
 54 67  1  0  0  0  0
 55 67  1  0  0  0  0
 56 67  1  0  0  0  0
 57 68  1  0  0  0  0
 58 68  1  0  0  0  0
 59 68  1  0  0  0  0
 60 78  1  0  0  0  0
 62 79  1  0  0  0  0
 63 66  1  0  0  0  0
 63 86  1  0  0  0  0
 64 68  1  0  0  0  0
 64 77  1  0  0  0  0
 65 78  1  0  0  0  0
 66 79  1  0  0  0  0
 69 70  1  0  0  0  0
M  CHG  2  78   1  79   1
M  ISO  4  38 100  63 101  75 100  86 101
M  END
> <Batch ID>
0018

> <Smiles>
CCc1c(CNC(C)[101CH2:1][101O:1]c2ccc3c(c2)CN(C(=O)C(NC(=O)C(C)NC)C(C)(C)C)C(C(=O)NC2CCCc4ccccc42)C3)cc(C(C)(C)C)cc1[100NH:0][100C:0](=O)N1CCCC(n2nc(-c3ccc(Oc4ccc(F)cc4F)cc3)c(C(N)=O)c2N)C1

> <Shape>
0.251

> <Color>
0.190

> <Negative vol penalty>
0.000

$$$$

  -OEChem-04052316043D

 84 92  0     1  0  0  0  0  0999 V2000
  -18.9572  -16.6066   23.1491 C   0  0  0  0  0  0  0  0  0  0  0  0
  -19.9844  -17.4895   22.8319 C   0  0  0  0  0  0  0  0  0  0  0  0
  -25.8293  -25.8148   22.1197 C   0  0  0  0  0  0  0  0  0  0  0  0
  -24.9186  -27.2516   20.4041 C   0  0  0  0  0  0  0  0  0  0  0  0
  -19.2580  -15.3271   23.6141 C   0  0  0  0  0  0  0  0  0  0  0  0
  -21.3132  -17.0937   22.9806 C   0  0  0  0  0  0  0  0  0  0  0  0
  -26.0537  -18.7153   19.4587 C   0  0  0  0  0  0  0  0  0  0  0  0
  -24.8162  -26.2136   22.9915 C   0  0  0  0  0  0  0  0  0  0  0  0
  -23.9054  -27.6504   21.2759 C   0  0  0  0  0  0  0  0  0  0  0  0
  -27.0461  -19.6830   19.6089 C   0  0  0  0  0  0  0  0  0  0  0  0
  -20.9769  -26.4125   22.4214 C   0  0  0  0  0  0  0  0  0  0  0  0
  -19.6755  -26.4595   21.9218 C   0  0  0  0  0  0  0  0  0  0  0  0
  -28.5286  -18.0125   20.5204 C   0  0  0  0  0  0  0  0  0  0  0  0
  -30.8877  -22.8735   18.9875 C   0  0  0  0  0  0  0  0  0  0  0  0
  -19.5658  -28.8190   22.4297 C   0  0  0  0  0  0  0  0  0  0  0  0
  -25.8806  -26.3338   20.8259 C   0  0  0  0  0  0  0  0  0  0  0  0
  -26.9002  -24.8368   19.0296 C   0  0  0  0  0  0  0  0  0  0  0  0
  -20.5911  -14.9121   23.7594 C   0  0  0  0  0  0  0  0  0  0  0  0
  -26.2881  -17.3889   19.8490 C   0  0  0  0  0  0  0  0  0  0  0  0
  -21.6321  -15.8079   23.4493 C   0  0  0  0  0  0  0  0  0  0  0  0
  -27.5385  -17.0293   20.3717 C   0  0  0  0  0  0  0  0  0  0  0  0
  -30.1333  -22.4819   20.0934 C   0  0  0  0  0  0  0  0  0  0  0  0
  -30.4974  -22.9057   21.3715 C   0  0  0  0  0  0  0  0  0  0  0  0
  -32.3705  -24.1126   20.4377 C   0  0  0  0  0  0  0  0  0  0  0  0
  -23.8542  -27.1313   22.5696 C   0  0  0  0  0  0  0  0  0  0  0  0
  -28.2828  -19.3323   20.1425 C   0  0  0  0  0  0  0  0  0  0  0  0
  -21.5729  -27.5687   22.9251 C   0  0  0  0  0  0  0  0  0  0  0  0
  -18.9699  -27.6627   21.9259 C   0  0  0  0  0  0  0  0  0  0  0  0
  -20.8673  -28.7719   22.9293 C   0  0  0  0  0  0  0  0  0  0  0  0
  -32.0064  -23.6888   19.1596 C   0  0  0  0  0  0  0  0  0  0  0  0
  -31.6160  -23.7211   21.5437 C   0  0  0  0  0  0  0  0  0  0  0  0
  -26.9272  -25.9227   19.9251 C   0  0  0  0  0  0  0  0  0  0  0  0
  -28.1249  -24.8731   18.4088 C   0  0  0  0  0  0  0  0  0  0  0  0
  -25.8610  -23.8807   18.7812 C   0  0  0  0  0  0  0  0  0  0  0  0
  -25.0040  -15.4201   21.9888 C   0  0  0  0  0  0  0  0  0  0  0  0
  -26.9805  -13.2527   20.6038 C   0  0  0  0  0  0  0  0  0  0  0  0
  -29.8196  -12.6536   18.8074 C   0  0  0  0  0  0  0  0  0  0  0  0
  -33.6543  -26.2255   20.0149 C   0  0  0  0  0  0  0  0  0  0  0  0
  -20.8669  -13.5356   24.3106 C   0  0  0  0  0  0  0  0  0  0  0  0
  -25.2164  -16.3514   19.6556 C   0  0  0  0  0  0  0  0  0  0  0  0
  -27.8473  -15.6150   20.7872 C   0  0  0  0  0  0  0  0  0  0  0  0
  -22.3013  -13.0649   24.0841 C   0  0  0  0  0  0  0  0  0  0  0  0
  -31.6169  -28.2900   17.7171 C   0  0  0  0  0  0  0  0  0  0  0  0
  -23.2893  -14.1671   24.4529 C   0  0  0  0  0  0  0  0  0  0  0  0
  -30.1907  -27.8447   18.0351 C   0  0  0  0  0  0  0  0  0  0  0  0
  -32.5380  -28.1453   18.9247 C   0  0  0  0  0  0  0  0  0  0  0  0
  -31.1215  -26.3203   19.8216 C   0  0  0  0  0  0  0  0  0  0  0  0
  -23.0860  -15.4070   23.5738 C   0  0  1  0  0  0  0  0  0  0  0  0
  -25.3887  -15.1379   20.5640 C   0  0  1  0  0  0  0  0  0  0  0  0
  -30.1832  -26.4184   18.6094 C   0  0  1  0  0  0  0  0  0  0  0  0
  -29.6726  -22.4716   22.5439 C   0  0  0  0  0  0  0  0  0  0  0  0
  -36.7457  -22.8818   20.8458 C   0  0  0  0  0  0  0  0  0  0  0  0
  -31.1939  -10.7785   17.8624 C   0  0  0  0  0  0  0  0  0  0  0  0
  -28.0592  -12.6415   23.3918 C   0  0  0  0  0  0  0  0  0  0  0  0
  -30.0167  -11.5149   22.3115 C   0  0  0  0  0  0  0  0  0  0  0  0
  -27.7127  -10.6322   21.9436 C   0  0  0  0  0  0  0  0  0  0  0  0
  -29.4503  -13.6247   16.0363 C   0  0  0  0  0  0  0  0  0  0  0  0
  -28.9356  -21.6039   19.8790 C   0  0  0  0  0  0  0  0  0  1  0  0
  -35.5141  -23.5222   20.2208 C   0  0  0  0  0  0  0  0  0  0  0  0
  -34.7214  -24.3656   21.2122 C   0  0  0  0  0  0  0  0  0  0  0  0
  -28.4012  -12.7989   20.8375 C   0  0  1  0  0  0  0  0  0  0  0  0
  -30.0785  -11.7771   17.5953 C   0  0  2  0  0  0  0  0  0  0  0  0
  -28.5413  -11.9240   22.1152 C   0  0  0  0  0  0  0  0  0  0  0  0
  -28.0779  -26.5994   19.8803 N   0  0  0  0  0  0  0  0  0  0  0  0
  -28.7854  -25.9370   18.9493 N   0  0  0  0  0  0  0  0  0  0  0  0
  -26.7648  -14.6379   20.5843 N   0  0  0  0  0  0  0  0  0  0  0  0
  -32.4750  -26.7996   19.4973 N   0  0  0  0  0  0  0  0  0  0  0  0
  -28.6904  -24.0985   17.4588 N   0  0  0  0  0  0  0  0  0  0  0  0
  -24.6667  -23.9885   19.5066 N   0  0  0  0  0  0  0  0  0  0  0  0
  -23.6681  -15.1996   22.2651 N   0  0  0  0  0  0  0  0  0  0  0  0
  -28.8249  -12.1352   19.6094 N   0  0  0  0  0  0  0  0  0  0  0  0
  -33.5279  -24.9560   20.6105 N   0  0  0  0  0  0  0  0  0  0  0  0
  -30.4671  -12.6137   16.4247 N   0  3  0  0  0  0  0  0  0  0  0  0
  -25.9941  -22.9483   17.9527 O   0  0  0  0  0  0  0  0  0  0  0  0
  -25.8563  -15.8078   22.7793 O   0  0  0  0  0  0  0  0  0  0  0  0
  -26.0958  -12.4092   20.4374 O   0  0  0  0  0  0  0  0  0  0  0  0
  -30.4404  -13.6921   19.0233 O   0  0  0  0  0  0  0  0  0  0  0  0
  -34.7361  -26.8255   19.9983 O   0  0  0  0  0  0  0  0  0  0  0  0
  -22.8653  -27.5205   23.4200 O   0  0  0  0  0  0  0  0  0  0  0  0
  -29.2529  -20.2750   20.2908 O   0  0  0  0  0  0  0  0  0  1  0  0
  -17.7207  -27.7081   21.4448 F   0  0  0  0  0  0  0  0  0  0  0  0
  -21.4350  -29.8862   23.4108 F   0  0  0  0  0  0  0  0  0  0  0  0
  -32.9085  -24.1467   17.7581 Cl  0  0  0  0  0  0  0  0  0  0  0  0
  -32.0623  -24.2436   23.1374 Cl  0  0  0  0  0  0  0  0  0  0  0  0
  1  2  1  0  0  0  0
  1  5  2  0  0  0  0
  2  6  2  0  0  0  0
  3  8  2  0  0  0  0
  3 16  1  0  0  0  0
  4  9  1  0  0  0  0
  4 16  2  0  0  0  0
  5 18  1  0  0  0  0
  6 20  1  0  0  0  0
  7 10  2  0  0  0  0
  7 19  1  0  0  0  0
  8 25  1  0  0  0  0
  9 25  2  0  0  0  0
 10 26  1  0  0  0  0
 11 12  2  0  0  0  0
 11 27  1  0  0  0  0
 12 28  1  0  0  0  0
 13 21  1  0  0  0  0
 13 26  2  0  0  0  0
 14 22  1  0  0  0  0
 14 30  2  0  0  0  0
 15 28  2  0  0  0  0
 15 29  1  0  0  0  0
 16 32  1  0  0  0  0
 17 32  1  0  0  0  0
 17 33  2  0  0  0  0
 17 34  1  0  0  0  0
 18 20  2  0  0  0  0
 18 39  1  0  0  0  0
 19 21  2  0  0  0  0
 19 40  1  0  0  0  0
 20 48  1  0  0  0  0
 21 41  1  0  0  0  0
 22 23  2  0  0  0  0
 22 58  1  0  0  0  0
 23 31  1  0  0  0  0
 23 51  1  0  0  0  0
 24 30  1  0  0  0  0
 24 31  2  0  0  0  0
 24 72  1  0  0  0  0
 25 79  1  0  0  0  0
 26 80  1  0  0  0  0
 27 29  2  0  0  0  0
 27 79  1  0  0  0  0
 28 81  1  0  0  0  0
 29 82  1  0  0  0  0
 30 83  1  0  0  0  0
 31 84  1  0  0  0  0
 32 64  2  0  0  0  0
 33 65  1  0  0  0  0
 33 68  1  0  0  0  0
 34 69  1  0  0  0  0
 34 74  2  0  0  0  0
 35 49  1  0  0  0  0
 35 70  1  0  0  0  0
 35 75  2  0  0  0  0
 36 61  1  0  0  0  0
 36 66  1  0  0  0  0
 36 76  2  0  0  0  0
 37 62  1  0  0  0  0
 37 71  1  0  0  0  0
 37 77  2  0  0  0  0
 38 67  1  0  0  0  0
 38 72  1  0  0  0  0
 38 78  2  0  0  0  0
 39 42  1  0  0  0  0
 40 49  1  0  0  0  0
 41 66  1  0  0  0  0
 42 44  1  0  0  0  0
 43 45  1  0  0  0  0
 43 46  1  0  0  0  0
 44 48  1  0  0  0  0
 45 50  1  0  0  0  0
 46 67  1  0  0  0  0
 47 50  1  0  0  0  0
 47 67  1  0  0  0  0
 48 70  1  0  0  0  0
 49 66  1  0  0  0  0
 50 65  1  0  0  0  0
 52 59  1  0  0  0  0
 53 62  1  0  0  0  0
 54 63  1  0  0  0  0
 55 63  1  0  0  0  0
 56 63  1  0  0  0  0
 57 73  1  0  0  0  0
 58 80  1  0  0  0  0
 59 60  1  0  0  0  0
 60 72  1  0  0  0  0
 61 63  1  0  0  0  0
 61 71  1  0  0  0  0
 62 73  1  0  0  0  0
 64 65  1  0  0  0  0
M  CHG  1  73   1
M  ISO  4  38 100  58 101  72 100  80 101
M  END
> <Batch ID>
0018

> <Smiles>
CCC[100N:0](c1c(Cl)cc([101CH2:1][101O:1]c2ccc3c(c2)CN(C(=O)C(NC(=O)C(C)NC)C(C)(C)C)C(C(=O)NC2CCCc4ccccc42)C3)c(C)c1Cl)[100C:0](=O)N1CCCC(n2nc(-c3ccc(Oc4ccc(F)cc4F)cc3)c(C(N)=O)c2N)C1

> <Shape>
0.221

> <Color>
0.057

> <Negative vol penalty>
0.000

$$$$

  -OEChem-04052316043D

 85 93  0     1  0  0  0  0  0999 V2000
  -23.9884  -26.3314   28.3904 C   0  0  0  0  0  0  0  0  0  0  0  0
  -24.8046  -26.1373   27.2807 C   0  0  0  0  0  0  0  0  0  0  0  0
  -24.5407   -9.7745   21.6028 C   0  0  0  0  0  0  0  0  0  0  0  0
  -24.8023  -10.9444   23.7004 C   0  0  0  0  0  0  0  0  0  0  0  0
  -22.6410  -25.9774   28.3338 C   0  0  0  0  0  0  0  0  0  0  0  0
  -24.2741  -25.5879   26.1140 C   0  0  0  0  0  0  0  0  0  0  0  0
  -25.7640  -28.0578   21.9517 C   0  0  0  0  0  0  0  0  0  0  0  0
  -24.2184   -8.6068   22.2942 C   0  0  0  0  0  0  0  0  0  0  0  0
  -24.4800   -9.7766   24.3919 C   0  0  0  0  0  0  0  0  0  0  0  0
  -27.0501  -27.7956   21.4818 C   0  0  0  0  0  0  0  0  0  0  0  0
  -22.9744   -5.4105   23.4991 C   0  0  0  0  0  0  0  0  0  0  0  0
  -21.8867   -4.6660   23.0430 C   0  0  0  0  0  0  0  0  0  0  0  0
  -26.1330  -26.3056   19.8210 C   0  0  0  0  0  0  0  0  0  0  0  0
  -29.8332  -21.0899   22.4162 C   0  0  0  0  0  0  0  0  0  0  0  0
  -20.4346   -6.5613   23.4122 C   0  0  0  0  0  0  0  0  0  0  0  0
  -24.8327  -10.9433   22.3059 C   0  0  0  0  0  0  0  0  0  0  0  0
  -24.2781  -13.1472   21.1470 C   0  0  0  0  0  0  0  0  0  0  0  0
  -22.0915  -25.4324   27.1626 C   0  0  0  0  0  0  0  0  0  0  0  0
  -24.6517  -27.4365   21.3659 C   0  0  0  0  0  0  0  0  0  0  0  0
  -22.9184  -25.2250   26.0421 C   0  0  0  0  0  0  0  0  0  0  0  0
  -24.8336  -26.5636   20.2837 C   0  0  0  0  0  0  0  0  0  0  0  0
  -28.7948  -21.9782   22.1366 C   0  0  0  0  0  0  0  0  0  0  0  0
  -27.6962  -21.5538   21.3891 C   0  0  0  0  0  0  0  0  0  0  0  0
  -28.6746  -19.3528   21.2009 C   0  0  0  0  0  0  0  0  0  0  0  0
  -24.1880   -8.6078   23.6888 C   0  0  0  0  0  0  0  0  0  0  0  0
  -27.2350  -26.9171   20.4182 C   0  0  0  0  0  0  0  0  0  0  0  0
  -22.7923   -6.7305   23.9119 C   0  0  0  0  0  0  0  0  0  0  0  0
  -20.6168   -5.2414   22.9995 C   0  0  0  0  0  0  0  0  0  0  0  0
  -21.5224   -7.3059   23.8684 C   0  0  0  0  0  0  0  0  0  0  0  0
  -29.7731  -19.7771   21.9483 C   0  0  0  0  0  0  0  0  0  0  0  0
  -27.6361  -20.2410   20.9212 C   0  0  0  0  0  0  0  0  0  0  0  0
  -25.1662  -12.1498   21.5923 C   0  0  0  0  0  0  0  0  0  0  0  0
  -25.0833  -14.0737   20.5308 C   0  0  0  0  0  0  0  0  0  0  0  0
  -22.8527  -13.2289   21.2787 C   0  0  0  0  0  0  0  0  0  0  0  0
  -22.3975  -25.4434   22.3905 C   0  0  0  0  0  0  0  0  0  0  0  0
  -21.1544  -25.9504   19.4376 C   0  0  0  0  0  0  0  0  0  0  0  0
  -21.6807  -26.8505   16.1880 C   0  0  0  0  0  0  0  0  0  0  0  0
  -29.6917  -17.1955   20.3897 C   0  0  0  0  0  0  0  0  0  0  0  0
  -20.6404  -25.0213   27.1646 C   0  0  0  0  0  0  0  0  0  0  0  0
  -23.2687  -27.7505   21.8671 C   0  0  0  0  0  0  0  0  0  0  0  0
  -23.6709  -25.8865   19.6069 C   0  0  0  0  0  0  0  0  0  0  0  0
  -20.0702  -24.7925   25.7672 C   0  0  0  0  0  0  0  0  0  0  0  0
  -29.9681  -13.8425   19.2242 C   0  0  0  0  0  0  0  0  0  0  0  0
  -21.0264  -23.9465   24.9325 C   0  0  0  0  0  0  0  0  0  0  0  0
  -28.6704  -13.1853   19.6998 C   0  0  0  0  0  0  0  0  0  0  0  0
  -30.4996  -14.8502   20.2420 C   0  0  0  0  0  0  0  0  0  0  0  0
  -28.2358  -15.2136   21.1434 C   0  0  0  0  0  0  0  0  0  0  0  0
  -22.3742  -24.6548   24.7503 C   0  0  1  0  0  0  0  0  0  0  0  0
  -22.2502  -26.6660   21.5296 C   0  0  1  0  0  0  0  0  0  0  0  0
  -27.6274  -14.2384   20.1224 C   0  0  2  0  0  0  0  0  0  0  0  0
  -26.5939  -22.5258   21.1006 C   0  0  0  0  0  0  0  0  0  0  0  0
  -20.4793  -27.1337   14.0031 C   0  0  0  0  0  0  0  0  0  0  0  0
  -30.8802  -26.4659   20.1994 C   0  0  0  0  0  0  0  0  0  0  0  0
  -21.1027  -22.9211   19.0761 C   0  0  0  0  0  0  0  0  0  0  0  0
  -20.8157  -23.2894   16.6164 C   0  0  0  0  0  0  0  0  0  0  0  0
  -19.0802  -24.1097   18.2095 C   0  0  0  0  0  0  0  0  0  0  0  0
  -22.3448  -29.7319   16.0635 C   0  0  0  0  0  0  0  0  0  0  0  0
  -28.8863  -23.3843   22.6516 C   0  0  0  0  0  0  0  0  0  0  0  0
  -29.2608  -25.7814   22.0576 C   0  0  0  0  0  0  0  0  0  0  0  0
  -21.3092  -25.2965   18.0857 C   0  0  1  0  0  0  0  0  0  0  0  0
  -20.9446  -27.8181   15.2789 C   0  0  2  0  0  0  0  0  0  0  0  0
  -29.5560  -26.7332   20.9030 C   0  0  2  0  0  0  0  0  0  1  0  0
  -20.5992  -23.9153   18.0107 C   0  0  0  0  0  0  0  0  0  0  0  0
  -26.4382  -12.4174   21.2849 N   0  0  0  0  0  0  0  0  0  0  0  0
  -26.3552  -13.5935   20.6399 N   0  0  0  0  0  0  0  0  0  0  0  0
  -22.3388  -26.2210   20.1373 N   0  0  0  0  0  0  0  0  0  0  0  0
  -29.4583  -15.8188   20.5919 N   0  0  0  0  0  0  0  0  0  0  0  0
  -24.8204  -15.2441   19.9116 N   0  0  0  0  0  0  0  0  0  0  0  0
  -22.1823  -12.1910   21.9402 N   0  0  0  0  0  0  0  0  0  0  0  0
  -28.6178  -18.0182   20.7282 N   0  0  0  0  0  0  0  0  0  0  0  0
  -22.2693  -25.6898   23.7442 N   0  0  0  0  0  0  0  0  0  0  0  0
  -20.8332  -26.2670   17.1059 N   0  0  0  0  0  0  0  0  0  0  0  0
  -21.8325  -28.9553   14.9054 N   0  3  0  0  0  0  0  0  0  0  0  0
  -29.2223  -24.3729   21.5913 N   0  3  0  0  0  0  0  0  0  0  0  0
  -22.1914  -14.1856   20.8087 O   0  0  0  0  0  0  0  0  0  0  0  0
  -22.6101  -24.3567   21.8655 O   0  0  0  0  0  0  0  0  0  0  0  0
  -20.0245  -26.2180   19.8541 O   0  0  0  0  0  0  0  0  0  0  0  0
  -22.8861  -26.6313   16.0909 O   0  0  0  0  0  0  0  0  0  0  0  0
  -30.7553  -17.6118   19.9233 O   0  0  0  0  0  0  0  0  0  0  0  0
  -23.8733   -7.4686   24.3638 O   0  0  0  0  0  0  0  0  0  0  0  0
  -28.4894  -26.6589   19.9580 O   0  0  0  0  0  0  0  0  0  1  0  0
  -19.5726   -4.5268   22.5599 F   0  0  0  0  0  0  0  0  0  0  0  0
  -21.3414   -8.5738   24.2625 F   0  0  0  0  0  0  0  0  0  0  0  0
  -31.0847  -18.7148   22.3212 Cl  0  0  0  0  0  0  0  0  0  0  0  0
  -26.2658  -19.7212   19.9917 Cl  0  0  0  0  0  0  0  0  0  0  0  0
  1  2  1  0  0  0  0
  1  5  2  0  0  0  0
  2  6  2  0  0  0  0
  3  8  2  0  0  0  0
  3 16  1  0  0  0  0
  4  9  1  0  0  0  0
  4 16  2  0  0  0  0
  5 18  1  0  0  0  0
  6 20  1  0  0  0  0
  7 10  2  0  0  0  0
  7 19  1  0  0  0  0
  8 25  1  0  0  0  0
  9 25  2  0  0  0  0
 10 26  1  0  0  0  0
 11 12  2  0  0  0  0
 11 27  1  0  0  0  0
 12 28  1  0  0  0  0
 13 21  1  0  0  0  0
 13 26  2  0  0  0  0
 14 22  1  0  0  0  0
 14 30  2  0  0  0  0
 15 28  2  0  0  0  0
 15 29  1  0  0  0  0
 16 32  1  0  0  0  0
 17 32  1  0  0  0  0
 17 33  2  0  0  0  0
 17 34  1  0  0  0  0
 18 20  2  0  0  0  0
 18 39  1  0  0  0  0
 19 21  2  0  0  0  0
 19 40  1  0  0  0  0
 20 48  1  0  0  0  0
 21 41  1  0  0  0  0
 22 23  2  0  0  0  0
 22 58  1  0  0  0  0
 23 31  1  0  0  0  0
 23 51  1  0  0  0  0
 24 30  1  0  0  0  0
 24 31  2  0  0  0  0
 24 70  1  0  0  0  0
 25 80  1  0  0  0  0
 26 81  1  0  0  0  0
 27 29  2  0  0  0  0
 27 80  1  0  0  0  0
 28 82  1  0  0  0  0
 29 83  1  0  0  0  0
 30 84  1  0  0  0  0
 31 85  1  0  0  0  0
 32 64  2  0  0  0  0
 33 65  1  0  0  0  0
 33 68  1  0  0  0  0
 34 69  1  0  0  0  0
 34 75  2  0  0  0  0
 35 49  1  0  0  0  0
 35 71  1  0  0  0  0
 35 76  2  0  0  0  0
 36 60  1  0  0  0  0
 36 66  1  0  0  0  0
 36 77  2  0  0  0  0
 37 61  1  0  0  0  0
 37 72  1  0  0  0  0
 37 78  2  0  0  0  0
 38 67  1  0  0  0  0
 38 70  1  0  0  0  0
 38 79  2  0  0  0  0
 39 42  1  0  0  0  0
 40 49  1  0  0  0  0
 41 66  1  0  0  0  0
 42 44  1  0  0  0  0
 43 45  1  0  0  0  0
 43 46  1  0  0  0  0
 44 48  1  0  0  0  0
 45 50  1  0  0  0  0
 46 67  1  0  0  0  0
 47 50  1  0  0  0  0
 47 67  1  0  0  0  0
 48 71  1  0  0  0  0
 49 66  1  0  0  0  0
 50 65  1  0  0  0  0
 52 61  1  0  0  0  0
 53 62  1  0  0  0  0
 54 63  1  0  0  0  0
 55 63  1  0  0  0  0
 56 63  1  0  0  0  0
 57 73  1  0  0  0  0
 58 74  1  0  0  0  0
 59 62  1  0  0  0  0
 59 74  1  0  0  0  0
 60 63  1  0  0  0  0
 60 72  1  0  0  0  0
 61 73  1  0  0  0  0
 62 81  1  0  0  0  0
 64 65  1  0  0  0  0
M  CHG  2  73   1  74   1
M  ISO  4  38 100  62 101  70 100  81 101
M  END
> <Batch ID>
0018

> <Smiles>
CNC(C)C(=O)NC(C(=O)N1Cc2cc([101O:1][101CH:1](C)CNCc3cc(Cl)c([100NH:0][100C:0](=O)N4CCCC(n5nc(-c6ccc(Oc7ccc(F)cc7F)cc6)c(C(N)=O)c5N)C4)c(Cl)c3C)ccc2CC1C(=O)NC1CCCc2ccccc21)C(C)(C)C

> <Shape>
0.213

> <Color>
0.122

> <Negative vol penalty>
0.000

$$$$

  -OEChem-04052316043D

 87 95  0     1  0  0  0  0  0999 V2000
  -26.0513  -20.5849   15.7986 C   0  0  0  0  0  0  0  0  0  0  0  0
  -26.3678  -20.6769   17.1502 C   0  0  0  0  0  0  0  0  0  0  0  0
  -23.0350   -9.9958   19.9062 C   0  0  0  0  0  0  0  0  0  0  0  0
  -23.8285   -9.8937   22.1859 C   0  0  0  0  0  0  0  0  0  0  0  0
  -26.7226  -21.3805   14.8710 C   0  0  0  0  0  0  0  0  0  0  0  0
  -27.3565  -21.5637   17.5749 C   0  0  0  0  0  0  0  0  0  0  0  0
  -25.9790  -24.1876   21.6813 C   0  0  0  0  0  0  0  0  0  0  0  0
  -22.2610   -8.8562   20.1246 C   0  0  0  0  0  0  0  0  0  0  0  0
  -23.0544   -8.7541   22.4043 C   0  0  0  0  0  0  0  0  0  0  0  0
  -26.0500  -23.5316   22.9094 C   0  0  0  0  0  0  0  0  0  0  0  0
  -19.8132   -8.0284   23.0276 C   0  0  0  0  0  0  0  0  0  0  0  0
  -19.0728   -7.9662   24.2080 C   0  0  0  0  0  0  0  0  0  0  0  0
  -28.1492  -24.6285   23.3671 C   0  0  0  0  0  0  0  0  0  0  0  0
  -30.8821  -19.7068   21.6450 C   0  0  0  0  0  0  0  0  0  0  0  0
  -20.2668   -5.9669   24.8517 C   0  0  0  0  0  0  0  0  0  0  0  0
  -23.8189  -10.5145   20.9369 C   0  0  0  0  0  0  0  0  0  0  0  0
  -24.2338  -13.0314   20.9061 C   0  0  0  0  0  0  0  0  0  0  0  0
  -27.7133  -22.2845   15.2856 C   0  0  0  0  0  0  0  0  0  0  0  0
  -26.9997  -25.0621   21.2814 C   0  0  0  0  0  0  0  0  0  0  0  0
  -28.0426  -22.3712   16.6518 C   0  0  0  0  0  0  0  0  0  0  0  0
  -28.0875  -25.2963   22.1345 C   0  0  0  0  0  0  0  0  0  0  0  0
  -31.0150  -18.9984   20.4508 C   0  0  0  0  0  0  0  0  0  0  0  0
  -30.5302  -19.0377   22.8173 C   0  0  0  0  0  0  0  0  0  0  0  0
  -30.4441  -16.9520   21.6011 C   0  0  0  0  0  0  0  0  0  0  0  0
  -22.2707   -8.2353   21.3736 C   0  0  0  0  0  0  0  0  0  0  0  0
  -27.1366  -23.7498   23.7513 C   0  0  0  0  0  0  0  0  0  0  0  0
  -20.7804   -7.0598   22.7591 C   0  0  0  0  0  0  0  0  0  0  0  0
  -19.2995   -6.9355   25.1201 C   0  0  0  0  0  0  0  0  0  0  0  0
  -21.0072   -6.0291   23.6712 C   0  0  0  0  0  0  0  0  0  0  0  0
  -30.7960  -17.6210   20.4288 C   0  0  0  0  0  0  0  0  0  0  0  0
  -30.3112  -17.6603   22.7953 C   0  0  0  0  0  0  0  0  0  0  0  0
  -24.6191  -11.6914   20.7117 C   0  0  0  0  0  0  0  0  0  0  0  0
  -25.3423  -13.7619   20.5538 C   0  0  0  0  0  0  0  0  0  0  0  0
  -22.9855  -13.5678   21.3641 C   0  0  0  0  0  0  0  0  0  0  0  0
  -29.0743  -25.1368   18.8743 C   0  0  0  0  0  0  0  0  0  0  0  0
  -29.8043  -28.0474   20.1065 C   0  0  0  0  0  0  0  0  0  0  0  0
  -29.8312  -30.1226   22.8156 C   0  0  0  0  0  0  0  0  0  0  0  0
  -30.8391  -14.6404   20.6809 C   0  0  0  0  0  0  0  0  0  0  0  0
  -28.4446  -23.0896   14.2407 C   0  0  0  0  0  0  0  0  0  0  0  0
  -26.8951  -25.7825   19.9651 C   0  0  0  0  0  0  0  0  0  0  0  0
  -29.1994  -26.2410   21.7607 C   0  0  0  0  0  0  0  0  0  0  0  0
  -29.2175  -24.2740   14.8151 C   0  0  0  0  0  0  0  0  0  0  0  0
  -29.6187  -12.3515   18.2419 C   0  0  0  0  0  0  0  0  0  0  0  0
  -30.0173  -23.8455   16.0414 C   0  0  0  0  0  0  0  0  0  0  0  0
  -28.1775  -12.0860   18.6830 C   0  0  0  0  0  0  0  0  0  0  0  0
  -30.5578  -12.5079   19.4366 C   0  0  0  0  0  0  0  0  0  0  0  0
  -28.6938  -13.2347   20.8741 C   0  0  0  0  0  0  0  0  0  0  0  0
  -29.0918  -23.3391   17.1542 C   0  0  1  0  0  0  0  0  0  0  0  0
  -28.2445  -26.2570   19.4347 C   0  0  1  0  0  0  0  0  0  0  0  0
  -27.6990  -13.1347   19.7061 C   0  0  2  0  0  0  0  0  0  0  0  0
  -30.2988  -19.6288   18.1177 C   0  0  0  0  0  0  0  0  0  0  0  0
  -32.7363  -19.2326   18.6243 C   0  0  0  0  0  0  0  0  0  0  0  0
  -30.5245  -32.4280   23.5243 C   0  0  0  0  0  0  0  0  0  0  0  0
  -32.7176  -27.1439   20.1865 C   0  0  0  0  0  0  0  0  0  0  0  0
  -33.1932  -29.0498   21.7389 C   0  0  0  0  0  0  0  0  0  0  0  0
  -32.3771  -29.5017   19.4253 C   0  0  0  0  0  0  0  0  0  0  0  0
  -27.0523  -30.8725   23.5045 C   0  0  0  0  0  0  0  0  0  0  0  0
  -30.3982  -19.8412   24.0774 C   0  0  0  0  0  0  0  0  0  0  0  0
  -27.3429  -20.9962   26.0755 C   0  0  0  0  0  0  0  0  0  0  0  0
  -28.8175  -20.8025   25.7555 C   0  0  0  0  0  0  0  0  0  0  0  0
  -26.5944  -21.8254   25.0391 C   0  0  0  0  0  0  0  0  0  1  0  0
  -31.3920  -19.7172   19.1993 C   0  0  0  0  0  0  0  0  0  0  0  0
  -30.7786  -28.5565   21.1411 C   0  0  1  0  0  0  0  0  0  0  0  0
  -29.3942  -31.5668   22.9826 C   0  0  2  0  0  0  0  0  0  0  0  0
  -32.2468  -28.5436   20.6294 C   0  0  0  0  0  0  0  0  0  0  0  0
  -25.8743  -11.5746   20.2702 N   0  0  0  0  0  0  0  0  0  0  0  0
  -26.2872  -12.8506   20.1840 N   0  0  0  0  0  0  0  0  0  0  0  0
  -29.0547  -26.9167   20.4607 N   0  0  0  0  0  0  0  0  0  0  0  0
  -30.0427  -13.5206   20.3607 N   0  0  0  0  0  0  0  0  0  0  0  0
  -25.5911  -15.0885   20.5274 N   0  0  0  0  0  0  0  0  0  0  0  0
  -21.9521  -12.6763   21.6831 N   0  0  0  0  0  0  0  0  0  0  0  0
  -30.2317  -15.5522   21.5435 N   0  0  0  0  0  0  0  0  0  0  0  0
  -28.4684  -24.4516   17.8385 N   0  0  0  0  0  0  0  0  0  0  0  0
  -30.2971  -29.8740   21.5418 N   0  0  0  0  0  0  0  0  0  0  0  0
  -28.2435  -31.6540   23.9256 N   0  3  0  0  0  0  0  0  0  0  0  0
  -28.9824  -20.0661   24.4804 N   0  3  0  0  0  0  0  0  0  0  0  0
  -22.7868  -14.8017   21.4712 O   0  0  0  0  0  0  0  0  0  0  0  0
  -30.1829  -24.9119   19.3456 O   0  0  0  0  0  0  0  0  0  0  0  0
  -29.7065  -28.6356   19.0266 O   0  0  0  0  0  0  0  0  0  0  0  0
  -29.7693  -29.2985   23.7253 O   0  0  0  0  0  0  0  0  0  0  0  0
  -31.9657  -14.7937   20.2021 O   0  0  0  0  0  0  0  0  0  0  0  0
  -21.5153   -7.1234   21.5871 O   0  0  0  0  0  0  0  0  0  0  0  0
  -27.2087  -23.1103   24.9504 O   0  0  0  0  0  0  0  0  0  1  0  0
  -18.5895   -6.8768   26.2543 F   0  0  0  0  0  0  0  0  0  0  0  0
  -21.9358   -5.0964   23.4193 F   0  0  0  0  0  0  0  0  0  0  0  0
  -30.9279  -16.9425   19.2787 F   0  0  0  0  0  0  0  0  0  0  0  0
  -29.8733  -16.8343   24.2555 Cl  0  0  0  0  0  0  0  0  0  0  0  0
  1  2  1  0  0  0  0
  1  5  2  0  0  0  0
  2  6  2  0  0  0  0
  3  8  2  0  0  0  0
  3 16  1  0  0  0  0
  4  9  1  0  0  0  0
  4 16  2  0  0  0  0
  5 18  1  0  0  0  0
  6 20  1  0  0  0  0
  7 10  2  0  0  0  0
  7 19  1  0  0  0  0
  8 25  1  0  0  0  0
  9 25  2  0  0  0  0
 10 26  1  0  0  0  0
 11 12  2  0  0  0  0
 11 27  1  0  0  0  0
 12 28  1  0  0  0  0
 13 21  1  0  0  0  0
 13 26  2  0  0  0  0
 14 22  2  0  0  0  0
 14 23  1  0  0  0  0
 15 28  2  0  0  0  0
 15 29  1  0  0  0  0
 16 32  1  0  0  0  0
 17 32  1  0  0  0  0
 17 33  2  0  0  0  0
 17 34  1  0  0  0  0
 18 20  2  0  0  0  0
 18 39  1  0  0  0  0
 19 21  2  0  0  0  0
 19 40  1  0  0  0  0
 20 48  1  0  0  0  0
 21 41  1  0  0  0  0
 22 30  1  0  0  0  0
 22 62  1  0  0  0  0
 23 31  2  0  0  0  0
 23 58  1  0  0  0  0
 24 30  2  0  0  0  0
 24 31  1  0  0  0  0
 24 72  1  0  0  0  0
 25 82  1  0  0  0  0
 26 83  1  0  0  0  0
 27 29  2  0  0  0  0
 27 82  1  0  0  0  0
 28 84  1  0  0  0  0
 29 85  1  0  0  0  0
 30 86  1  0  0  0  0
 31 87  1  0  0  0  0
 32 66  2  0  0  0  0
 33 67  1  0  0  0  0
 33 70  1  0  0  0  0
 34 71  1  0  0  0  0
 34 77  2  0  0  0  0
 35 49  1  0  0  0  0
 35 73  1  0  0  0  0
 35 78  2  0  0  0  0
 36 63  1  0  0  0  0
 36 68  1  0  0  0  0
 36 79  2  0  0  0  0
 37 64  1  0  0  0  0
 37 74  1  0  0  0  0
 37 80  2  0  0  0  0
 38 69  1  0  0  0  0
 38 72  1  0  0  0  0
 38 81  2  0  0  0  0
 39 42  1  0  0  0  0
 40 49  1  0  0  0  0
 41 68  1  0  0  0  0
 42 44  1  0  0  0  0
 43 45  1  0  0  0  0
 43 46  1  0  0  0  0
 44 48  1  0  0  0  0
 45 50  1  0  0  0  0
 46 69  1  0  0  0  0
 47 50  1  0  0  0  0
 47 69  1  0  0  0  0
 48 73  1  0  0  0  0
 49 68  1  0  0  0  0
 50 67  1  0  0  0  0
 51 62  1  0  0  0  0
 52 62  1  0  0  0  0
 53 64  1  0  0  0  0
 54 65  1  0  0  0  0
 55 65  1  0  0  0  0
 56 65  1  0  0  0  0
 57 75  1  0  0  0  0
 58 76  1  0  0  0  0
 59 60  1  0  0  0  0
 59 61  1  0  0  0  0
 60 76  1  0  0  0  0
 61 83  1  0  0  0  0
 63 65  1  0  0  0  0
 63 74  1  0  0  0  0
 64 75  1  0  0  0  0
 66 67  1  0  0  0  0
M  CHG  2  75   1  76   1
M  ISO  4  38 100  61 101  72 100  83 101
M  END
> <Batch ID>
0018

> <Smiles>
CNC(C)C(=O)NC(C(=O)N1Cc2cc([101O:1][101CH2:1]CCNCc3cc(C(C)C)c(F)c([100NH:0][100C:0](=O)N4CCCC(n5nc(-c6ccc(Oc7ccc(F)cc7F)cc6)c(C(N)=O)c5N)C4)c3Cl)ccc2CC1C(=O)NC1CCCc2ccccc21)C(C)(C)C

> <Shape>
0.257

> <Color>
0.199

> <Negative vol penalty>
0.000

$$$$

  -OEChem-04052316043D

 81 89  0     1  0  0  0  0  0999 V2000
  -28.1571  -37.0253   21.3014 C   0  0  0  0  0  0  0  0  0  0  0  0
  -28.5557  -35.7064   21.1085 C   0  0  0  0  0  0  0  0  0  0  0  0
  -26.8726  -12.7132   21.8001 C   0  0  0  0  0  0  0  0  0  0  0  0
  -26.2255  -14.3215   20.1173 C   0  0  0  0  0  0  0  0  0  0  0  0
  -27.0426  -37.3073   22.0902 C   0  0  0  0  0  0  0  0  0  0  0  0
  -27.8405  -34.6688   21.7053 C   0  0  0  0  0  0  0  0  0  0  0  0
  -26.8491  -29.0809   19.4034 C   0  0  0  0  0  0  0  0  0  0  0  0
  -25.5546  -12.2630   21.8766 C   0  0  0  0  0  0  0  0  0  0  0  0
  -24.9075  -13.8713   20.1938 C   0  0  0  0  0  0  0  0  0  0  0  0
  -27.4725  -27.8529   19.6205 C   0  0  0  0  0  0  0  0  0  0  0  0
  -22.4294  -10.4449   22.2543 C   0  0  0  0  0  0  0  0  0  0  0  0
  -22.2150   -9.0668   22.2748 C   0  0  0  0  0  0  0  0  0  0  0  0
  -25.7789  -27.2867   21.2424 C   0  0  0  0  0  0  0  0  0  0  0  0
  -30.3430  -22.6561   21.9260 C   0  0  0  0  0  0  0  0  0  0  0  0
  -23.2885   -8.8677   20.1196 C   0  0  0  0  0  0  0  0  0  0  0  0
  -27.2080  -13.7425   20.9205 C   0  0  0  0  0  0  0  0  0  0  0  0
  -29.5840  -13.7284   19.9920 C   0  0  0  0  0  0  0  0  0  0  0  0
  -26.3077  -36.2720   22.6891 C   0  0  0  0  0  0  0  0  0  0  0  0
  -25.6901  -29.4261   20.1134 C   0  0  0  0  0  0  0  0  0  0  0  0
  -26.7159  -34.9372   22.5040 C   0  0  0  0  0  0  0  0  0  0  0  0
  -25.1413  -28.5186   21.0306 C   0  0  0  0  0  0  0  0  0  0  0  0
  -29.8706  -23.9214   21.5778 C   0  0  0  0  0  0  0  0  0  0  0  0
  -29.2250  -24.1130   20.3562 C   0  0  0  0  0  0  0  0  0  0  0  0
  -29.5243  -21.7738   19.8313 C   0  0  0  0  0  0  0  0  0  0  0  0
  -30.1699  -21.5823   21.0528 C   0  0  0  0  0  0  0  0  0  0  0  0
  -24.5721  -12.8420   21.0735 C   0  0  0  0  0  0  0  0  0  0  0  0
  -26.9390  -26.9567   20.5422 C   0  0  0  0  0  0  0  0  0  0  0  0
  -23.0732  -11.0345   21.1663 C   0  0  0  0  0  0  0  0  0  0  0  0
  -22.6446   -8.2782   21.2075 C   0  0  0  0  0  0  0  0  0  0  0  0
  -23.5028  -10.2458   20.0990 C   0  0  0  0  0  0  0  0  0  0  0  0
  -29.0518  -23.0391   19.4830 C   0  0  0  0  0  0  0  0  0  0  0  0
  -28.5692  -14.2085   20.8414 C   0  0  0  0  0  0  0  0  0  0  0  0
  -30.6813  -14.4945   20.3010 C   0  0  0  0  0  0  0  0  0  0  0  0
  -29.5388  -12.6835   19.0113 C   0  0  0  0  0  0  0  0  0  0  0  0
  -24.9198  -31.7256   22.1683 C   0  0  0  0  0  0  0  0  0  0  0  0
  -21.9515  -30.4487   21.8838 C   0  0  0  0  0  0  0  0  0  0  0  0
  -20.0252  -27.7349   21.1279 C   0  0  0  0  0  0  0  0  0  0  0  0
  -31.3189  -19.9689   22.6095 C   0  0  0  0  0  0  0  0  0  0  0  0
  -25.1380  -36.6287   23.5719 C   0  0  0  0  0  0  0  0  0  0  0  0
  -25.0146  -30.7436   19.8482 C   0  0  0  0  0  0  0  0  0  0  0  0
  -23.8875  -28.8329   21.8037 C   0  0  0  0  0  0  0  0  0  0  0  0
  -24.2128  -35.4499   23.8629 C   0  0  0  0  0  0  0  0  0  0  0  0
  -32.6437  -16.9364   23.9232 C   0  0  0  0  0  0  0  0  0  0  0  0
  -25.0237  -34.2189   24.2551 C   0  0  0  0  0  0  0  0  0  0  0  0
  -31.8457  -15.8489   23.2002 C   0  0  0  0  0  0  0  0  0  0  0  0
  -31.7800  -18.1549   24.2441 C   0  0  0  0  0  0  0  0  0  0  0  0
  -30.2608  -17.6363   22.3754 C   0  0  0  0  0  0  0  0  0  0  0  0
  -25.9512  -33.7828   23.1144 C   0  0  1  0  0  0  0  0  0  0  0  0
  -24.1290  -31.2039   21.0020 C   0  0  1  0  0  0  0  0  0  0  0  0
  -31.1044  -16.4154   21.9734 C   0  0  2  0  0  0  0  0  0  0  0  0
  -30.0708  -25.0534   22.5320 C   0  0  0  0  0  0  0  0  0  0  0  0
  -29.3478  -20.6097   18.9041 C   0  0  0  0  0  0  0  0  0  0  0  0
  -17.6328  -26.9847   21.0243 C   0  0  0  0  0  0  0  0  0  0  0  0
  -21.8922  -30.2253   24.9263 C   0  0  0  0  0  0  0  0  0  0  0  0
  -19.9634  -28.6448   24.7031 C   0  0  0  0  0  0  0  0  0  0  0  0
  -19.7479  -30.9949   23.8949 C   0  0  0  0  0  0  0  0  0  0  0  0
  -20.2025  -27.1840   18.2255 C   0  0  0  0  0  0  0  0  0  0  0  0
  -28.7258  -25.4830   20.0023 C   0  0  0  0  0  0  0  0  0  1  0  0
  -21.1810  -29.3648   22.5983 C   0  0  1  0  0  0  0  0  0  0  0  0
  -18.7958  -27.5853   20.2501 C   0  0  2  0  0  0  0  0  0  0  0  0
  -20.7209  -29.8021   24.0176 C   0  0  0  0  0  0  0  0  0  0  0  0
  -28.9848  -15.2024   21.6308 N   0  0  0  0  0  0  0  0  0  0  0  0
  -30.2730  -15.3532   21.2788 N   0  0  0  0  0  0  0  0  0  0  0  0
  -23.2673  -30.1363   21.5138 N   0  0  0  0  0  0  0  0  0  0  0  0
  -31.1122  -18.6393   23.0340 N   0  0  0  0  0  0  0  0  0  0  0  0
  -31.9460  -14.5106   19.8290 N   0  0  0  0  0  0  0  0  0  0  0  0
  -28.3315  -11.9975   18.8210 N   0  0  0  0  0  0  0  0  0  0  0  0
  -30.6584  -20.3064   21.4286 N   0  0  0  0  0  0  0  0  0  0  0  0
  -25.2030  -33.0763   22.0968 N   0  0  0  0  0  0  0  0  0  0  0  0
  -20.0902  -28.9844   21.7073 N   0  0  0  0  0  0  0  0  0  0  0  0
  -19.0935  -26.7010   19.0880 N   0  3  0  0  0  0  0  0  0  0  0  0
  -30.5438  -12.3564   18.3356 O   0  0  0  0  0  0  0  0  0  0  0  0
  -25.2474  -30.9599   23.0671 O   0  0  0  0  0  0  0  0  0  0  0  0
  -21.4036  -31.5302   21.6559 O   0  0  0  0  0  0  0  0  0  0  0  0
  -20.8440  -26.8322   21.2869 O   0  0  0  0  0  0  0  0  0  0  0  0
  -32.0511  -20.7425   23.2320 O   0  0  0  0  0  0  0  0  0  0  0  0
  -23.2860  -12.4027   21.1477 O   0  0  0  0  0  0  0  0  0  0  0  0
  -27.5459  -25.7577   20.7564 O   0  0  0  0  0  0  0  0  0  1  0  0
  -22.4400   -6.9546   21.2281 F   0  0  0  0  0  0  0  0  0  0  0  0
  -24.1229  -10.8063   19.0516 F   0  0  0  0  0  0  0  0  0  0  0  0
  -28.2485  -23.2779   17.9658 Cl  0  0  0  0  0  0  0  0  0  0  0  0
  1  2  1  0  0  0  0
  1  5  2  0  0  0  0
  2  6  2  0  0  0  0
  3  8  2  0  0  0  0
  3 16  1  0  0  0  0
  4  9  1  0  0  0  0
  4 16  2  0  0  0  0
  5 18  1  0  0  0  0
  6 20  1  0  0  0  0
  7 10  2  0  0  0  0
  7 19  1  0  0  0  0
  8 26  1  0  0  0  0
  9 26  2  0  0  0  0
 10 27  1  0  0  0  0
 11 12  2  0  0  0  0
 11 28  1  0  0  0  0
 12 29  1  0  0  0  0
 13 21  1  0  0  0  0
 13 27  2  0  0  0  0
 14 22  2  0  0  0  0
 14 25  1  0  0  0  0
 15 29  2  0  0  0  0
 15 30  1  0  0  0  0
 16 32  1  0  0  0  0
 17 32  1  0  0  0  0
 17 33  2  0  0  0  0
 17 34  1  0  0  0  0
 18 20  2  0  0  0  0
 18 39  1  0  0  0  0
 19 21  2  0  0  0  0
 19 40  1  0  0  0  0
 20 48  1  0  0  0  0
 21 41  1  0  0  0  0
 22 23  1  0  0  0  0
 22 51  1  0  0  0  0
 23 31  2  0  0  0  0
 23 58  1  0  0  0  0
 24 25  2  0  0  0  0
 24 31  1  0  0  0  0
 24 52  1  0  0  0  0
 25 68  1  0  0  0  0
 26 77  1  0  0  0  0
 27 78  1  0  0  0  0
 28 30  2  0  0  0  0
 28 77  1  0  0  0  0
 29 79  1  0  0  0  0
 30 80  1  0  0  0  0
 31 81  1  0  0  0  0
 32 62  2  0  0  0  0
 33 63  1  0  0  0  0
 33 66  1  0  0  0  0
 34 67  1  0  0  0  0
 34 72  2  0  0  0  0
 35 49  1  0  0  0  0
 35 69  1  0  0  0  0
 35 73  2  0  0  0  0
 36 59  1  0  0  0  0
 36 64  1  0  0  0  0
 36 74  2  0  0  0  0
 37 60  1  0  0  0  0
 37 70  1  0  0  0  0
 37 75  2  0  0  0  0
 38 65  1  0  0  0  0
 38 68  1  0  0  0  0
 38 76  2  0  0  0  0
 39 42  1  0  0  0  0
 40 49  1  0  0  0  0
 41 64  1  0  0  0  0
 42 44  1  0  0  0  0
 43 45  1  0  0  0  0
 43 46  1  0  0  0  0
 44 48  1  0  0  0  0
 45 50  1  0  0  0  0
 46 65  1  0  0  0  0
 47 50  1  0  0  0  0
 47 65  1  0  0  0  0
 48 69  1  0  0  0  0
 49 64  1  0  0  0  0
 50 63  1  0  0  0  0
 53 60  1  0  0  0  0
 54 61  1  0  0  0  0
 55 61  1  0  0  0  0
 56 61  1  0  0  0  0
 57 71  1  0  0  0  0
 58 78  1  0  0  0  0
 59 61  1  0  0  0  0
 59 70  1  0  0  0  0
 60 71  1  0  0  0  0
 62 63  1  0  0  0  0
M  CHG  1  71   1
M  ISO  4  38 100  58 101  68 100  78 101
M  END
> <Batch ID>
0018

> <Smiles>
CNC(C)C(=O)NC(C(=O)N1Cc2cc([101O:1][101CH2:1]c3c(C)cc([100NH:0][100C:0](=O)N4CCCC(n5nc(-c6ccc(Oc7ccc(F)cc7F)cc6)c(C(N)=O)c5N)C4)c(C)c3Cl)ccc2CC1C(=O)NC1CCCc2ccccc21)C(C)(C)C

> <Shape>
0.349

> <Color>
0.081

> <Negative vol penalty>
0.000

$$$$

  -OEChem-04052316043D

 83 91  0     1  0  0  0  0  0999 V2000
  -16.6961  -28.7176   23.6264 C   0  0  0  0  0  0  0  0  0  0  0  0
  -17.5621  -27.9965   22.8106 C   0  0  0  0  0  0  0  0  0  0  0  0
  -26.5147  -12.3919   21.7054 C   0  0  0  0  0  0  0  0  0  0  0  0
  -25.7597  -13.6503   19.7861 C   0  0  0  0  0  0  0  0  0  0  0  0
  -16.9870  -30.0419   23.9513 C   0  0  0  0  0  0  0  0  0  0  0  0
  -18.7189  -28.5997   22.3183 C   0  0  0  0  0  0  0  0  0  0  0  0
  -24.1397  -25.9209   21.3466 C   0  0  0  0  0  0  0  0  0  0  0  0
  -25.2970  -11.7125   21.7389 C   0  0  0  0  0  0  0  0  0  0  0  0
  -24.5420  -12.9709   19.8196 C   0  0  0  0  0  0  0  0  0  0  0  0
  -24.7427  -25.4138   20.1964 C   0  0  0  0  0  0  0  0  0  0  0  0
  -23.8219   -9.1607   20.0821 C   0  0  0  0  0  0  0  0  0  0  0  0
  -23.8560   -7.7776   20.2592 C   0  0  0  0  0  0  0  0  0  0  0  0
  -25.9243  -27.4966   19.9049 C   0  0  0  0  0  0  0  0  0  0  0  0
  -29.5685  -23.7782   19.0990 C   0  0  0  0  0  0  0  0  0  0  0  0
  -27.5446  -22.8575   18.1540 C   0  0  0  0  0  0  0  0  0  0  0  0
  -22.5581   -8.0050   22.2843 C   0  0  0  0  0  0  0  0  0  0  0  0
  -26.7461  -13.3609   20.7290 C   0  0  0  0  0  0  0  0  0  0  0  0
  -29.1660  -13.6916   19.9928 C   0  0  0  0  0  0  0  0  0  0  0  0
  -18.1528  -30.6586   23.4706 C   0  0  0  0  0  0  0  0  0  0  0  0
  -24.4167  -27.2257   21.7793 C   0  0  0  0  0  0  0  0  0  0  0  0
  -19.0249  -29.9339   22.6359 C   0  0  0  0  0  0  0  0  0  0  0  0
  -25.3255  -28.0170   21.0624 C   0  0  0  0  0  0  0  0  0  0  0  0
  -28.4872  -23.8833   18.2241 C   0  0  0  0  0  0  0  0  0  0  0  0
  -29.7072  -22.6474   19.9038 C   0  0  0  0  0  0  0  0  0  0  0  0
  -27.6832  -21.7267   18.9589 C   0  0  0  0  0  0  0  0  0  0  0  0
  -28.7646  -21.6216   19.8337 C   0  0  0  0  0  0  0  0  0  0  0  0
  -24.3106  -12.0019   20.7961 C   0  0  0  0  0  0  0  0  0  0  0  0
  -25.6329  -26.2027   19.4737 C   0  0  0  0  0  0  0  0  0  0  0  0
  -23.1560   -9.9660   21.0061 C   0  0  0  0  0  0  0  0  0  0  0  0
  -23.2241   -7.1997   21.3603 C   0  0  0  0  0  0  0  0  0  0  0  0
  -22.5241   -9.3882   22.1072 C   0  0  0  0  0  0  0  0  0  0  0  0
  -28.0035  -14.0635   20.6942 C   0  0  0  0  0  0  0  0  0  0  0  0
  -30.0736  -14.6807   20.2833 C   0  0  0  0  0  0  0  0  0  0  0  0
  -29.4042  -12.5537   19.1536 C   0  0  0  0  0  0  0  0  0  0  0  0
  -22.6931  -29.8635   22.1978 C   0  0  0  0  0  0  0  0  0  0  0  0
  -25.4613  -31.0067   23.4439 C   0  0  0  0  0  0  0  0  0  0  0  0
  -28.8648  -30.8133   23.6024 C   0  0  0  0  0  0  0  0  0  0  0  0
  -29.4960  -20.4006   21.9123 C   0  0  0  0  0  0  0  0  0  0  0  0
  -18.4008  -32.1070   23.8101 C   0  0  0  0  0  0  0  0  0  0  0  0
  -23.7785  -27.7484   23.0371 C   0  0  0  0  0  0  0  0  0  0  0  0
  -25.6722  -29.4170   21.4961 C   0  0  0  0  0  0  0  0  0  0  0  0
  -19.8371  -32.5556   23.5533 C   0  0  0  0  0  0  0  0  0  0  0  0
  -31.2044  -17.8394   23.7006 C   0  0  0  0  0  0  0  0  0  0  0  0
  -20.3092  -32.0768   22.1841 C   0  0  0  0  0  0  0  0  0  0  0  0
  -30.6879  -16.5467   23.0647 C   0  0  0  0  0  0  0  0  0  0  0  0
  -30.1102  -18.9011   23.7962 C   0  0  0  0  0  0  0  0  0  0  0  0
  -28.8986  -17.8989   21.8997 C   0  0  0  0  0  0  0  0  0  0  0  0
  -20.3022  -30.5455   22.1025 C   0  0  1  0  0  0  0  0  0  0  0  0
  -23.7401  -29.2723   23.0988 C   0  0  1  0  0  0  0  0  0  0  0  0
  -29.9815  -16.8221   21.7227 C   0  0  2  0  0  0  0  0  0  0  0  0
  -30.8766  -22.5636   20.8308 C   0  0  0  0  0  0  0  0  0  0  0  0
  -30.8520  -31.9050   24.6779 C   0  0  0  0  0  0  0  0  0  0  0  0
  -25.2207  -33.3498   21.5043 C   0  0  0  0  0  0  0  0  0  0  0  0
  -27.6312  -33.8674   21.9398 C   0  0  0  0  0  0  0  0  0  0  0  0
  -25.9780  -33.9733   23.8048 C   0  0  0  0  0  0  0  0  0  0  0  0
  -29.6422  -28.3101   24.9768 C   0  0  0  0  0  0  0  0  0  0  0  0
  -28.3373  -25.1068   17.3530 C   0  0  0  0  0  0  0  0  0  0  0  0
  -27.5223  -26.2038   18.0294 C   0  0  0  0  0  0  0  0  0  1  0  0
  -26.6569  -20.6444   18.8617 C   0  0  0  0  0  0  0  0  0  0  0  0
  -26.6694  -31.7209   22.8878 C   0  0  1  0  0  0  0  0  0  0  0  0
  -29.8188  -30.7941   24.7831 C   0  0  2  0  0  0  0  0  0  0  0  0
  -26.3670  -33.2022   22.5247 C   0  0  0  0  0  0  0  0  0  0  0  0
  -28.1559  -15.2002   21.3789 N   0  0  0  0  0  0  0  0  0  0  0  0
  -29.4249  -15.5509   21.1091 N   0  0  0  0  0  0  0  0  0  0  0  0
  -25.0175  -29.8853   22.7288 N   0  0  0  0  0  0  0  0  0  0  0  0
  -29.4889  -19.1120   22.4869 N   0  0  0  0  0  0  0  0  0  0  0  0
  -31.3553  -14.8822   19.9103 N   0  0  0  0  0  0  0  0  0  0  0  0
  -28.3630  -11.6353   18.9619 N   0  0  0  0  0  0  0  0  0  0  0  0
  -28.9051  -20.4729   20.6512 N   0  0  0  0  0  0  0  0  0  0  0  0
  -21.4518  -29.9975   22.7899 N   0  0  0  0  0  0  0  0  0  0  0  0
  -27.7325  -31.5522   23.8726 N   0  0  0  0  0  0  0  0  0  0  0  0
  -30.5363  -29.4895   24.8482 N   0  3  0  0  0  0  0  0  0  0  0  0
  -30.5128  -12.3486   18.6036 O   0  0  0  0  0  0  0  0  0  0  0  0
  -22.9899  -30.1763   21.0507 O   0  0  0  0  0  0  0  0  0  0  0  0
  -24.9352  -31.4239   24.4787 O   0  0  0  0  0  0  0  0  0  0  0  0
  -29.1023  -30.2340   22.5448 O   0  0  0  0  0  0  0  0  0  0  0  0
  -30.0140  -21.3633   22.4841 O   0  0  0  0  0  0  0  0  0  0  0  0
  -23.1224  -11.3390   20.8283 O   0  0  0  0  0  0  0  0  0  0  0  0
  -26.2223  -25.7104   18.3502 O   0  0  0  0  0  0  0  0  0  1  0  0
  -23.2556   -5.8714   21.5295 F   0  0  0  0  0  0  0  0  0  0  0  0
  -21.8818  -10.1566   22.9975 F   0  0  0  0  0  0  0  0  0  0  0  0
  -26.0639  -20.4353   20.0652 F   0  0  0  0  0  0  0  0  0  0  0  0
  -27.2326  -19.4681   18.5036 F   0  0  0  0  0  0  0  0  0  0  0  0
  1  2  1  0  0  0  0
  1  5  2  0  0  0  0
  2  6  2  0  0  0  0
  3  8  2  0  0  0  0
  3 17  1  0  0  0  0
  4  9  1  0  0  0  0
  4 17  2  0  0  0  0
  5 19  1  0  0  0  0
  6 21  1  0  0  0  0
  7 10  2  0  0  0  0
  7 20  1  0  0  0  0
  8 27  1  0  0  0  0
  9 27  2  0  0  0  0
 10 28  1  0  0  0  0
 11 12  2  0  0  0  0
 11 29  1  0  0  0  0
 12 30  1  0  0  0  0
 13 22  1  0  0  0  0
 13 28  2  0  0  0  0
 14 23  1  0  0  0  0
 14 24  2  0  0  0  0
 15 23  2  0  0  0  0
 15 25  1  0  0  0  0
 16 30  2  0  0  0  0
 16 31  1  0  0  0  0
 17 32  1  0  0  0  0
 18 32  1  0  0  0  0
 18 33  2  0  0  0  0
 18 34  1  0  0  0  0
 19 21  2  0  0  0  0
 19 39  1  0  0  0  0
 20 22  2  0  0  0  0
 20 40  1  0  0  0  0
 21 48  1  0  0  0  0
 22 41  1  0  0  0  0
 23 57  1  0  0  0  0
 24 26  1  0  0  0  0
 24 51  1  0  0  0  0
 25 26  2  0  0  0  0
 25 59  1  0  0  0  0
 26 69  1  0  0  0  0
 27 78  1  0  0  0  0
 28 79  1  0  0  0  0
 29 31  2  0  0  0  0
 29 78  1  0  0  0  0
 30 80  1  0  0  0  0
 31 81  1  0  0  0  0
 32 63  2  0  0  0  0
 33 64  1  0  0  0  0
 33 67  1  0  0  0  0
 34 68  1  0  0  0  0
 34 73  2  0  0  0  0
 35 49  1  0  0  0  0
 35 70  1  0  0  0  0
 35 74  2  0  0  0  0
 36 60  1  0  0  0  0
 36 65  1  0  0  0  0
 36 75  2  0  0  0  0
 37 61  1  0  0  0  0
 37 71  1  0  0  0  0
 37 76  2  0  0  0  0
 38 66  1  0  0  0  0
 38 69  1  0  0  0  0
 38 77  2  0  0  0  0
 39 42  1  0  0  0  0
 40 49  1  0  0  0  0
 41 65  1  0  0  0  0
 42 44  1  0  0  0  0
 43 45  1  0  0  0  0
 43 46  1  0  0  0  0
 44 48  1  0  0  0  0
 45 50  1  0  0  0  0
 46 66  1  0  0  0  0
 47 50  1  0  0  0  0
 47 66  1  0  0  0  0
 48 70  1  0  0  0  0
 49 65  1  0  0  0  0
 50 64  1  0  0  0  0
 52 61  1  0  0  0  0
 53 62  1  0  0  0  0
 54 62  1  0  0  0  0
 55 62  1  0  0  0  0
 56 72  1  0  0  0  0
 57 58  1  0  0  0  0
 58 79  1  0  0  0  0
 59 82  1  0  0  0  0
 59 83  1  0  0  0  0
 60 62  1  0  0  0  0
 60 71  1  0  0  0  0
 61 72  1  0  0  0  0
 63 64  1  0  0  0  0
M  CHG  1  72   1
M  ISO  4  38 100  58 101  69 100  79 101
M  END
> <Batch ID>
0018

> <Smiles>
CNC(C)C(=O)NC(C(=O)N1Cc2cc([101O:1][101CH2:1]Cc3cc(C)c([100NH:0][100C:0](=O)N4CCCC(n5nc(-c6ccc(Oc7ccc(F)cc7F)cc6)c(C(N)=O)c5N)C4)c(C(F)F)c3)ccc2CC1C(=O)NC1CCCc2ccccc21)C(C)(C)C

> <Shape>
0.332

> <Color>
0.078

> <Negative vol penalty>
0.000

$$$$

  -OEChem-04052316043D

 82 90  0     1  0  0  0  0  0999 V2000
  -29.2899   -8.8551   26.7547 C   0  0  0  0  0  0  0  0  0  0  0  0
  -30.2038   -9.7912   26.2815 C   0  0  0  0  0  0  0  0  0  0  0  0
  -23.0000   -9.8944   19.9811 C   0  0  0  0  0  0  0  0  0  0  0  0
  -23.7252   -9.9450   22.2852 C   0  0  0  0  0  0  0  0  0  0  0  0
  -27.9397   -9.1887   26.8527 C   0  0  0  0  0  0  0  0  0  0  0  0
  -29.7679  -11.0611   25.9050 C   0  0  0  0  0  0  0  0  0  0  0  0
  -32.8111  -16.3373   26.5424 C   0  0  0  0  0  0  0  0  0  0  0  0
  -22.2331   -8.7601   20.2474 C   0  0  0  0  0  0  0  0  0  0  0  0
  -22.9582   -8.8108   22.5515 C   0  0  0  0  0  0  0  0  0  0  0  0
  -33.5771  -17.0914   25.6546 C   0  0  0  0  0  0  0  0  0  0  0  0
  -23.2015   -5.4718   22.0794 C   0  0  0  0  0  0  0  0  0  0  0  0
  -23.7887   -4.4544   22.8315 C   0  0  0  0  0  0  0  0  0  0  0  0
  -31.6552  -18.4681   25.1751 C   0  0  0  0  0  0  0  0  0  0  0  0
  -22.0649   -4.6978   24.5067 C   0  0  0  0  0  0  0  0  0  0  0  0
  -30.5559  -19.0319   22.5468 C   0  0  0  0  0  0  0  0  0  0  0  0
  -23.7461  -10.4868   21.0000 C   0  0  0  0  0  0  0  0  0  0  0  0
  -24.1322  -13.0023   20.8241 C   0  0  0  0  0  0  0  0  0  0  0  0
  -27.4884  -10.4665   26.4864 C   0  0  0  0  0  0  0  0  0  0  0  0
  -31.4562  -16.6366   26.7453 C   0  0  0  0  0  0  0  0  0  0  0  0
  -28.4102  -11.4116   25.9970 C   0  0  0  0  0  0  0  0  0  0  0  0
  -30.8748  -17.7179   26.0679 C   0  0  0  0  0  0  0  0  0  0  0  0
  -31.8683  -18.6158   22.5879 C   0  0  0  0  0  0  0  0  0  0  0  0
  -22.2122   -8.2183   21.5325 C   0  0  0  0  0  0  0  0  0  0  0  0
  -32.9985  -18.1552   24.9686 C   0  0  0  0  0  0  0  0  0  0  0  0
  -22.0460   -6.1023   22.5410 C   0  0  0  0  0  0  0  0  0  0  0  0
  -23.2204   -4.0673   24.0451 C   0  0  0  0  0  0  0  0  0  0  0  0
  -21.4777   -5.7152   23.7546 C   0  0  0  0  0  0  0  0  0  0  0  0
  -31.8940  -17.2570   22.1879 C   0  0  0  0  0  0  0  0  0  0  0  0
  -24.5389  -11.6582   20.7254 C   0  0  0  0  0  0  0  0  0  0  0  0
  -25.2422  -13.7246   20.4597 C   0  0  0  0  0  0  0  0  0  0  0  0
  -30.5965  -16.8841   21.9143 C   0  0  0  0  0  0  0  0  0  0  0  0
  -22.8644  -13.5491   21.2106 C   0  0  0  0  0  0  0  0  0  0  0  0
  -28.7221  -15.0821   26.2849 C   0  0  0  0  0  0  0  0  0  0  0  0
  -27.4520  -17.6690   27.7739 C   0  0  0  0  0  0  0  0  0  0  0  0
  -27.7452  -20.9647   28.6100 C   0  0  0  0  0  0  0  0  0  0  0  0
  -30.7220  -14.6838   20.6939 C   0  0  0  0  0  0  0  0  0  0  0  0
  -26.0122  -10.7652   26.5652 C   0  0  0  0  0  0  0  0  0  0  0  0
  -30.6504  -15.8302   27.7265 C   0  0  0  0  0  0  0  0  0  0  0  0
  -29.4296  -18.0930   26.2657 C   0  0  0  0  0  0  0  0  0  0  0  0
  -25.6880  -12.2555   26.4994 C   0  0  0  0  0  0  0  0  0  0  0  0
  -29.6029  -12.2315   18.3677 C   0  0  0  0  0  0  0  0  0  0  0  0
  -26.4681  -12.9221   25.3707 C   0  0  0  0  0  0  0  0  0  0  0  0
  -28.1522  -11.9743   18.7819 C   0  0  0  0  0  0  0  0  0  0  0  0
  -30.5035  -12.4745   19.5776 C   0  0  0  0  0  0  0  0  0  0  0  0
  -28.5884  -13.2639   20.9111 C   0  0  0  0  0  0  0  0  0  0  0  0
  -27.9796  -12.8076   25.6022 C   0  0  1  0  0  0  0  0  0  0  0  0
  -29.1485  -15.9031   27.4689 C   0  0  1  0  0  0  0  0  0  0  0  0
  -27.6307  -13.0780   19.7229 C   0  0  2  0  0  0  0  0  0  0  0  0
  -27.9485  -18.1230   20.5095 C   0  0  0  0  0  0  0  0  0  0  0  0
  -26.5301  -22.8114   29.7976 C   0  0  0  0  0  0  0  0  0  0  0  0
  -34.0744  -19.5816   21.8463 C   0  0  0  0  0  0  0  0  0  0  0  0
  -32.6063  -20.8744   23.4407 C   0  0  0  0  0  0  0  0  0  0  0  0
  -25.5715  -17.9620   25.3890 C   0  0  0  0  0  0  0  0  0  0  0  0
  -25.0711  -20.2913   26.1586 C   0  0  0  0  0  0  0  0  0  0  0  0
  -24.5005  -18.3487   27.6157 C   0  0  0  0  0  0  0  0  0  0  0  0
  -29.9249  -21.2852   30.5861 C   0  0  0  0  0  0  0  0  0  0  0  0
  -28.3551  -18.0160   21.9692 C   0  0  0  0  0  0  0  0  0  0  0  0
  -26.9233  -19.0093   27.3234 C   0  0  1  0  0  0  0  0  0  0  0  0
  -27.5496  -21.6906   29.9288 C   0  0  2  0  0  0  0  0  0  0  0  0
  -33.0607  -19.4786   22.9935 C   0  0  0  0  0  0  0  0  0  1  0  0
  -25.5434  -18.8948   26.6162 C   0  0  0  0  0  0  0  0  0  0  0  0
  -25.8082  -11.5313   20.3293 N   0  0  0  0  0  0  0  0  0  0  0  0
  -29.7917  -17.9711   22.1356 N   0  0  0  0  0  0  0  0  0  0  0  0
  -26.2085  -12.8050   20.1757 N   0  0  0  0  0  0  0  0  0  0  0  0
  -28.6816  -17.2704   27.2308 N   0  0  0  0  0  0  0  0  0  0  0  0
  -29.9488  -13.5356   20.4210 N   0  0  0  0  0  0  0  0  0  0  0  0
  -25.4761  -15.0502   20.3577 N   0  0  0  0  0  0  0  0  0  0  0  0
  -21.8323  -12.6653   21.5541 N   0  0  0  0  0  0  0  0  0  0  0  0
  -30.0780  -15.6391   21.4796 N   0  0  0  0  0  0  0  0  0  0  0  0
  -28.4138  -13.7704   26.5915 N   0  0  0  0  0  0  0  0  0  0  0  0
  -26.9201  -19.8650   28.5050 N   0  0  0  0  0  0  0  0  0  0  0  0
  -28.8379  -22.2791   30.3922 N   0  3  0  0  0  0  0  0  0  0  0  0
  -22.6481  -14.7845   21.2344 O   0  0  0  0  0  0  0  0  0  0  0  0
  -28.6749  -15.6006   25.1756 O   0  0  0  0  0  0  0  0  0  0  0  0
  -26.8014  -17.0034   28.5836 O   0  0  0  0  0  0  0  0  0  0  0  0
  -28.5470  -21.3382   27.7566 O   0  0  0  0  0  0  0  0  0  0  0  0
  -31.8607  -14.8224   20.2399 O   0  0  0  0  0  0  0  0  0  0  0  0
  -21.4638   -7.1117   21.7928 O   0  0  0  0  0  0  0  0  0  0  0  0
  -33.7438  -18.8925   24.1009 O   0  0  0  0  0  0  0  0  0  1  0  0
  -23.7836   -3.0893   24.7665 F   0  0  0  0  0  0  0  0  0  0  0  0
  -20.3670   -6.3164   24.2026 F   0  0  0  0  0  0  0  0  0  0  0  0
  -33.2902  -16.2905   22.0748 Cl  0  0  0  0  0  0  0  0  0  0  0  0
  1  2  1  0  0  0  0
  1  5  2  0  0  0  0
  2  6  2  0  0  0  0
  3  8  2  0  0  0  0
  3 16  1  0  0  0  0
  4  9  1  0  0  0  0
  4 16  2  0  0  0  0
  5 18  1  0  0  0  0
  6 20  1  0  0  0  0
  7 10  2  0  0  0  0
  7 19  1  0  0  0  0
  8 23  1  0  0  0  0
  9 23  2  0  0  0  0
 10 24  1  0  0  0  0
 11 12  2  0  0  0  0
 11 25  1  0  0  0  0
 12 26  1  0  0  0  0
 13 21  1  0  0  0  0
 13 24  2  0  0  0  0
 14 26  2  0  0  0  0
 14 27  1  0  0  0  0
 15 22  2  0  0  0  0
 15 63  1  0  0  0  0
 16 29  1  0  0  0  0
 17 29  1  0  0  0  0
 17 30  2  0  0  0  0
 17 32  1  0  0  0  0
 18 20  2  0  0  0  0
 18 37  1  0  0  0  0
 19 21  2  0  0  0  0
 19 38  1  0  0  0  0
 20 46  1  0  0  0  0
 21 39  1  0  0  0  0
 22 28  1  0  0  0  0
 22 60  1  0  0  0  0
 23 78  1  0  0  0  0
 24 79  1  0  0  0  0
 25 27  2  0  0  0  0
 25 78  1  0  0  0  0
 26 80  1  0  0  0  0
 27 81  1  0  0  0  0
 28 31  2  0  0  0  0
 28 82  1  0  0  0  0
 29 62  2  0  0  0  0
 30 64  1  0  0  0  0
 30 67  1  0  0  0  0
 31 63  1  0  0  0  0
 31 69  1  0  0  0  0
 32 68  1  0  0  0  0
 32 73  2  0  0  0  0
 33 47  1  0  0  0  0
 33 70  1  0  0  0  0
 33 74  2  0  0  0  0
 34 58  1  0  0  0  0
 34 65  1  0  0  0  0
 34 75  2  0  0  0  0
 35 59  1  0  0  0  0
 35 71  1  0  0  0  0
 35 76  2  0  0  0  0
 36 66  1  0  0  0  0
 36 69  1  0  0  0  0
 36 77  2  0  0  0  0
 37 40  1  0  0  0  0
 38 47  1  0  0  0  0
 39 65  1  0  0  0  0
 40 42  1  0  0  0  0
 41 43  1  0  0  0  0
 41 44  1  0  0  0  0
 42 46  1  0  0  0  0
 43 48  1  0  0  0  0
 44 66  1  0  0  0  0
 45 48  1  0  0  0  0
 45 66  1  0  0  0  0
 46 70  1  0  0  0  0
 47 65  1  0  0  0  0
 48 64  1  0  0  0  0
 49 57  1  0  0  0  0
 50 59  1  0  0  0  0
 51 60  1  0  0  0  0
 52 60  1  0  0  0  0
 53 61  1  0  0  0  0
 54 61  1  0  0  0  0
 55 61  1  0  0  0  0
 56 72  1  0  0  0  0
 57 63  1  0  0  0  0
 58 61  1  0  0  0  0
 58 71  1  0  0  0  0
 59 72  1  0  0  0  0
 60 79  1  0  0  0  0
 62 64  1  0  0  0  0
M  CHG  1  72   1
M  ISO  4  36 100  60 101  69 100  79 101
M  END
> <Batch ID>
0018

> <Smiles>
CCn1cc([101C:1](C)(C)[101O:1]c2ccc3c(c2)CN(C(=O)C(NC(=O)C(C)NC)C(C)(C)C)C(C(=O)NC2CCCc4ccccc42)C3)c(Cl)c1[100NH:0][100C:0](=O)N1CCCC(n2nc(-c3ccc(Oc4ccc(F)cc4F)cc3)c(C(N)=O)c2N)C1

> <Shape>
0.187

> <Color>
0.202

> <Negative vol penalty>
0.000

$$$$

  -OEChem-04052316043D

 87 94  0     1  0  0  0  0  0999 V2000
  -24.1784  -31.5367   21.7839 C   0  0  0  0  0  0  0  0  0  0  0  0
  -23.7261  -30.2467   21.5258 C   0  0  0  0  0  0  0  0  0  0  0  0
  -27.4502  -13.1694   21.0855 C   0  0  0  0  0  0  0  0  0  0  0  0
  -25.1591  -13.8328   21.4700 C   0  0  0  0  0  0  0  0  0  0  0  0
  -25.3826  -31.9749   21.2344 C   0  0  0  0  0  0  0  0  0  0  0  0
  -24.4771  -29.3945   20.7171 C   0  0  0  0  0  0  0  0  0  0  0  0
  -24.8563  -24.7252   22.6404 C   0  0  0  0  0  0  0  0  0  0  0  0
  -27.0086  -11.9782   20.5095 C   0  0  0  0  0  0  0  0  0  0  0  0
  -24.7175  -12.6416   20.8939 C   0  0  0  0  0  0  0  0  0  0  0  0
  -23.7546  -23.8838   22.4915 C   0  0  0  0  0  0  0  0  0  0  0  0
  -24.4033   -9.4006   21.8040 C   0  0  0  0  0  0  0  0  0  0  0  0
  -23.3908   -8.7001   22.4595 C   0  0  0  0  0  0  0  0  0  0  0  0
  -24.8388  -22.8041   20.6265 C   0  0  0  0  0  0  0  0  0  0  0  0
  -21.9808   -8.9133   20.5092 C   0  0  0  0  0  0  0  0  0  0  0  0
  -26.5254  -14.0966   21.5658 C   0  0  0  0  0  0  0  0  0  0  0  0
  -27.2247  -16.5492   21.5068 C   0  0  0  0  0  0  0  0  0  0  0  0
  -26.1536  -31.1244   20.4265 C   0  0  0  0  0  0  0  0  0  0  0  0
  -25.9548  -24.6194   21.7751 C   0  0  0  0  0  0  0  0  0  0  0  0
  -25.6921  -29.8221   20.1552 C   0  0  0  0  0  0  0  0  0  0  0  0
  -25.9543  -23.6436   20.7682 C   0  0  0  0  0  0  0  0  0  0  0  0
  -25.6423  -11.7143   20.4137 C   0  0  0  0  0  0  0  0  0  0  0  0
  -23.7445  -22.9250   21.4826 C   0  0  0  0  0  0  0  0  0  0  0  0
  -24.2046   -9.8576   20.5011 C   0  0  0  0  0  0  0  0  0  0  0  0
  -22.1796   -8.4564   21.8121 C   0  0  0  0  0  0  0  0  0  0  0  0
  -22.9934   -9.6139   19.8537 C   0  0  0  0  0  0  0  0  0  0  0  0
  -26.9809  -15.3270   22.1614 C   0  0  0  0  0  0  0  0  0  0  0  0
  -27.6369  -17.3974   22.5053 C   0  0  0  0  0  0  0  0  0  0  0  0
  -27.0904  -16.8876   20.1200 C   0  0  0  0  0  0  0  0  0  0  0  0
  -27.3532  -26.5563   19.6783 C   0  0  0  0  0  0  0  0  0  0  0  0
  -29.5250  -24.1537   19.4961 C   0  0  0  0  0  0  0  0  0  0  0  0
  -26.9817  -19.4426   27.6703 C   0  0  0  0  0  0  0  0  0  0  0  0
  -23.1905  -20.1003   23.5230 C   0  0  0  0  0  0  0  0  0  0  0  0
  -30.2170  -20.8367   19.9030 C   0  0  0  0  0  0  0  0  0  0  0  0
  -24.9892  -20.0740   26.2576 C   0  0  0  0  0  0  0  0  0  0  0  0
  -27.4251  -31.6586   19.8162 C   0  0  0  0  0  0  0  0  0  0  0  0
  -27.1468  -25.5166   21.9658 C   0  0  0  0  0  0  0  0  0  0  0  0
  -27.1173  -23.4758   19.8260 C   0  0  0  0  0  0  0  0  0  0  0  0
  -28.3463  -30.5679   19.2755 C   0  0  0  0  0  0  0  0  0  0  0  0
  -28.9450  -16.4688   27.2944 C   0  0  0  0  0  0  0  0  0  0  0  0
  -27.5532  -29.5611   18.4483 C   0  0  0  0  0  0  0  0  0  0  0  0
  -28.6059  -15.9907   25.8831 C   0  0  0  0  0  0  0  0  0  0  0  0
  -27.7373  -17.1077   27.9728 C   0  0  0  0  0  0  0  0  0  0  0  0
  -26.7835  -17.7496   25.7820 C   0  0  0  0  0  0  0  0  0  0  0  0
  -26.4908  -28.8598   19.3031 C   0  0  1  0  0  0  0  0  0  0  0  0
  -27.9920  -25.6635   20.7043 C   0  0  1  0  0  0  0  0  0  0  0  0
  -27.9844  -17.1253   25.0496 C   0  0  2  0  0  0  0  0  0  0  0  0
  -31.5920  -18.7397   19.9996 C   0  0  0  0  0  0  0  0  0  0  0  0
  -26.3045  -21.7841   27.5552 C   0  0  0  0  0  0  0  0  0  0  0  0
  -27.3246  -20.6831   25.5532 C   0  0  0  0  0  0  0  0  0  0  0  0
  -29.1049  -24.1715   16.4739 C   0  0  0  0  0  0  0  0  0  0  0  0
  -30.2068  -21.9254   16.3776 C   0  0  0  0  0  0  0  0  0  0  0  0
  -31.4849  -23.9057   17.1948 C   0  0  0  0  0  0  0  0  0  0  0  0
  -21.7997  -18.3136   19.3476 C   0  0  0  0  0  0  0  0  0  0  0  0
  -23.4485  -17.8084   21.1416 C   0  0  0  0  0  0  0  0  0  0  0  0
  -21.0149  -17.3986   21.5432 C   0  0  0  0  0  0  0  0  0  0  0  0
  -20.7136  -19.6971   23.5574 C   0  0  0  0  0  0  0  0  0  0  0  0
  -30.8823  -21.2660   22.7546 C   0  0  0  0  0  0  0  0  0  0  0  0
  -23.0888  -20.8235   24.8544 C   0  0  0  0  0  0  0  0  0  0  0  0
  -22.9170  -20.8000   20.8077 C   0  0  0  0  0  0  0  0  0  1  0  0
  -29.6755  -22.9102   18.6533 C   0  0  1  0  0  0  0  0  0  0  0  0
  -31.3701  -20.1248   20.5871 C   0  0  2  0  0  0  0  0  0  0  0  0
  -21.9005  -19.8165   21.4006 C   0  0  1  0  0  0  0  0  0  0  0  0
  -26.3878  -20.4795   26.7505 C   0  0  0  0  0  0  0  0  0  0  0  0
  -30.0951  -23.2324   17.1913 C   0  0  0  0  0  0  0  0  0  0  0  0
  -22.0273  -18.3480   20.8753 C   0  0  0  0  0  0  0  0  0  0  0  0
  -27.2186  -15.3889   23.4743 N   0  0  0  0  0  0  0  0  0  0  0  0
  -27.6162  -16.6602   23.6527 N   0  0  0  0  0  0  0  0  0  0  0  0
  -28.2568  -24.3811   20.0489 N   0  0  0  0  0  0  0  0  0  0  0  0
  -27.1624  -18.1652   27.1396 N   0  0  0  0  0  0  0  0  0  0  0  0
  -28.0117  -18.6943   22.5051 N   0  0  0  0  0  0  0  0  0  0  0  0
  -26.6549  -15.8967   19.2296 N   0  0  0  0  0  0  0  0  0  0  0  0
  -27.0993  -27.8380   20.1279 N   0  0  0  0  0  0  0  0  0  0  0  0
  -24.3974  -21.0098   25.4128 N   0  0  0  0  0  0  0  0  0  0  0  0
  -30.6090  -22.0446   19.3659 N   0  0  0  0  0  0  0  0  0  0  0  0
  -21.9809  -19.8796   22.8491 N   0  0  0  0  0  0  0  0  0  0  0  0
  -31.0970  -19.9788   22.0448 N   0  3  0  0  0  0  0  0  0  0  0  0
  -27.3647  -18.0301   19.6807 O   0  0  0  0  0  0  0  0  0  0  0  0
  -27.1102  -26.1153   18.5611 O   0  0  0  0  0  0  0  0  0  0  0  0
  -30.4988  -24.8921   19.6637 O   0  0  0  0  0  0  0  0  0  0  0  0
  -27.2782  -19.7611   28.8248 O   0  0  0  0  0  0  0  0  0  0  0  0
  -24.2852  -19.7405   23.0819 O   0  0  0  0  0  0  0  0  0  0  0  0
  -29.0829  -20.3664   19.8471 O   0  0  0  0  0  0  0  0  0  0  0  0
  -24.4482  -19.0210   26.5935 O   0  0  0  0  0  0  0  0  0  0  0  0
  -25.2111  -10.5522   19.8515 O   0  0  0  0  0  0  0  0  0  0  0  0
  -22.6702  -22.1030   21.3347 O   0  0  0  0  0  0  0  0  0  1  0  0
  -21.2079   -7.7823   22.4411 F   0  0  0  0  0  0  0  0  0  0  0  0
  -22.7970  -10.0493   18.6017 F   0  0  0  0  0  0  0  0  0  0  0  0
  1  2  1  0  0  0  0
  1  5  2  0  0  0  0
  2  6  2  0  0  0  0
  3  8  2  0  0  0  0
  3 15  1  0  0  0  0
  4  9  1  0  0  0  0
  4 15  2  0  0  0  0
  5 17  1  0  0  0  0
  6 19  1  0  0  0  0
  7 10  2  0  0  0  0
  7 18  1  0  0  0  0
  8 21  1  0  0  0  0
  9 21  2  0  0  0  0
 10 22  1  0  0  0  0
 11 12  2  0  0  0  0
 11 23  1  0  0  0  0
 12 24  1  0  0  0  0
 13 20  1  0  0  0  0
 13 22  2  0  0  0  0
 14 24  2  0  0  0  0
 14 25  1  0  0  0  0
 15 26  1  0  0  0  0
 16 26  1  0  0  0  0
 16 27  2  0  0  0  0
 16 28  1  0  0  0  0
 17 19  2  0  0  0  0
 17 35  1  0  0  0  0
 18 20  2  0  0  0  0
 18 36  1  0  0  0  0
 19 44  1  0  0  0  0
 20 37  1  0  0  0  0
 21 84  1  0  0  0  0
 22 85  1  0  0  0  0
 23 25  2  0  0  0  0
 23 84  1  0  0  0  0
 24 86  1  0  0  0  0
 25 87  1  0  0  0  0
 26 66  2  0  0  0  0
 27 67  1  0  0  0  0
 27 70  1  0  0  0  0
 28 71  1  0  0  0  0
 28 77  2  0  0  0  0
 29 45  1  0  0  0  0
 29 72  1  0  0  0  0
 29 78  2  0  0  0  0
 30 60  1  0  0  0  0
 30 68  1  0  0  0  0
 30 79  2  0  0  0  0
 31 63  1  0  0  0  0
 31 69  1  0  0  0  0
 31 80  2  0  0  0  0
 32 58  1  0  0  0  0
 32 75  1  0  0  0  0
 32 81  2  0  0  0  0
 33 61  1  0  0  0  0
 33 74  1  0  0  0  0
 33 82  2  0  0  0  0
 34 63  1  0  0  0  0
 34 73  1  0  0  0  0
 34 83  2  0  0  0  0
 35 38  1  0  0  0  0
 36 45  1  0  0  0  0
 37 68  1  0  0  0  0
 38 40  1  0  0  0  0
 39 41  1  0  0  0  0
 39 42  1  0  0  0  0
 40 44  1  0  0  0  0
 41 46  1  0  0  0  0
 42 69  1  0  0  0  0
 43 46  1  0  0  0  0
 43 69  1  0  0  0  0
 44 72  1  0  0  0  0
 45 68  1  0  0  0  0
 46 67  1  0  0  0  0
 47 61  1  0  0  0  0
 48 63  1  0  0  0  0
 49 63  1  0  0  0  0
 50 64  1  0  0  0  0
 51 64  1  0  0  0  0
 52 64  1  0  0  0  0
 53 65  1  0  0  0  0
 54 65  1  0  0  0  0
 55 65  1  0  0  0  0
 56 75  1  0  0  0  0
 57 76  1  0  0  0  0
 58 73  1  0  0  0  0
 59 62  1  0  0  0  0
 59 85  1  0  0  0  0
 60 64  1  0  0  0  0
 60 74  1  0  0  0  0
 61 76  1  0  0  0  0
 62 65  1  0  0  0  0
 62 75  1  0  0  0  0
 66 67  1  0  0  0  0
M  CHG  1  76   1
M  ISO  4  31 100  59 101  63 100  85 101
M  END
> <Batch ID>
0018

> <Smiles>
CNC(C)C(=O)NC(C(=O)N1Cc2cc([101O:1][101CH2:1]C(N(C)C(=O)CNC(=O)[100C:0](C)(C)[100C:0](=O)N3CCCC(n4nc(-c5ccc(Oc6ccc(F)cc6F)cc5)c(C(N)=O)c4N)C3)C(C)(C)C)ccc2CC1C(=O)NC1CCCc2ccccc21)C(C)(C)C

> <Shape>
0.177

> <Color>
0.074

> <Negative vol penalty>
0.000

$$$$

  -OEChem-04052316043D

 92100  0     1  0  0  0  0  0999 V2000
  -24.1228  -28.4750   24.3057 C   0  0  0  0  0  0  0  0  0  0  0  0
  -24.9328  -27.6697   23.5115 C   0  0  0  0  0  0  0  0  0  0  0  0
  -23.1436   -9.7643   20.0345 C   0  0  0  0  0  0  0  0  0  0  0  0
  -23.8446   -9.9526   22.3389 C   0  0  0  0  0  0  0  0  0  0  0  0
  -23.7144  -29.7245   23.8411 C   0  0  0  0  0  0  0  0  0  0  0  0
  -25.3341  -28.1130   22.2518 C   0  0  0  0  0  0  0  0  0  0  0  0
  -30.2504  -27.2751   21.3725 C   0  0  0  0  0  0  0  0  0  0  0  0
  -22.4213   -8.6131   20.3483 C   0  0  0  0  0  0  0  0  0  0  0  0
  -23.1222   -8.8014   22.6527 C   0  0  0  0  0  0  0  0  0  0  0  0
  -30.6231  -25.9770   21.0264 C   0  0  0  0  0  0  0  0  0  0  0  0
  -19.4569   -7.8459   21.7824 C   0  0  0  0  0  0  0  0  0  0  0  0
  -18.1642   -7.7322   21.2709 C   0  0  0  0  0  0  0  0  0  0  0  0
  -30.6974  -26.6241   18.7037 C   0  0  0  0  0  0  0  0  0  0  0  0
  -33.0992  -21.7153   20.0043 C   0  0  0  0  0  0  0  0  0  0  0  0
  -18.8035   -5.7155   20.1040 C   0  0  0  0  0  0  0  0  0  0  0  0
  -23.8553  -10.4341   21.0298 C   0  0  0  0  0  0  0  0  0  0  0  0
  -24.1399  -12.9524   20.7383 C   0  0  0  0  0  0  0  0  0  0  0  0
  -24.1188  -30.1875   22.5791 C   0  0  0  0  0  0  0  0  0  0  0  0
  -30.0875  -28.2563   20.3840 C   0  0  0  0  0  0  0  0  0  0  0  0
  -24.9296  -29.3694   21.7694 C   0  0  0  0  0  0  0  0  0  0  0  0
  -30.3251  -27.9345   19.0401 C   0  0  0  0  0  0  0  0  0  0  0  0
  -31.7747  -22.1209   19.8414 C   0  0  0  0  0  0  0  0  0  0  0  0
  -33.5236  -20.4932   19.4828 C   0  0  0  0  0  0  0  0  0  0  0  0
  -30.8744  -21.3044   19.1570 C   0  0  0  0  0  0  0  0  0  0  0  0
  -31.2987  -20.0822   18.6355 C   0  0  0  0  0  0  0  0  0  0  0  0
  -32.6233  -19.6766   18.7984 C   0  0  0  0  0  0  0  0  0  0  0  0
  -22.4105   -8.1316   21.6574 C   0  0  0  0  0  0  0  0  0  0  0  0
  -30.8438  -25.6506   19.6915 C   0  0  0  0  0  0  0  0  0  0  0  0
  -20.4229   -6.8945   21.4547 C   0  0  0  0  0  0  0  0  0  0  0  0
  -17.8375   -6.6669   20.4317 C   0  0  0  0  0  0  0  0  0  0  0  0
  -20.0962   -5.8293   20.6155 C   0  0  0  0  0  0  0  0  0  0  0  0
  -24.6021  -11.6230   20.7062 C   0  0  0  0  0  0  0  0  0  0  0  0
  -25.2228  -13.7020   20.3486 C   0  0  0  0  0  0  0  0  0  0  0  0
  -22.8473  -13.4639   21.0893 C   0  0  0  0  0  0  0  0  0  0  0  0
  -27.6558  -30.0316   19.3648 C   0  0  0  0  0  0  0  0  0  0  0  0
  -30.6941  -14.8126   20.6956 C   0  0  0  0  0  0  0  0  0  0  0  0
  -29.9496  -31.4383   17.5531 C   0  0  0  0  0  0  0  0  0  0  0  0
  -33.0025  -31.2006   16.0465 C   0  0  0  0  0  0  0  0  0  0  0  0
  -23.6132  -31.5254   22.1004 C   0  0  0  0  0  0  0  0  0  0  0  0
  -29.7111  -29.6587   20.7764 C   0  0  0  0  0  0  0  0  0  0  0  0
  -30.1835  -28.9566   17.9429 C   0  0  0  0  0  0  0  0  0  0  0  0
  -24.3897  -32.0790   20.9084 C   0  0  0  0  0  0  0  0  0  0  0  0
  -29.6480  -12.3168   18.3469 C   0  0  0  0  0  0  0  0  0  0  0  0
  -24.5877  -30.9972   19.8513 C   0  0  0  0  0  0  0  0  0  0  0  0
  -28.2147  -12.0014   18.7728 C   0  0  0  0  0  0  0  0  0  0  0  0
  -30.5326  -12.6271   19.5503 C   0  0  0  0  0  0  0  0  0  0  0  0
  -28.5774  -13.4100   20.8486 C   0  0  0  0  0  0  0  0  0  0  0  0
  -25.4061  -29.8256   20.4075 C   0  0  1  0  0  0  0  0  0  0  0  0
  -29.0738  -30.4475   19.6366 C   0  0  1  0  0  0  0  0  0  0  0  0
  -27.6429  -13.1208   19.6606 C   0  0  2  0  0  0  0  0  0  0  0  0
  -29.4543  -21.7423   18.9843 C   0  0  0  0  0  0  0  0  0  0  0  0
  -31.0458  -16.5367   22.4469 C   0  0  0  0  0  0  0  0  0  0  0  0
  -34.5938  -32.4986   14.6041 C   0  0  0  0  0  0  0  0  0  0  0  0
  -32.9662  -19.3664   16.0554 C   0  0  0  0  0  0  0  0  0  0  0  0
  -33.2854  -16.8979   16.4437 C   0  0  0  0  0  0  0  0  0  0  0  0
  -35.5307  -20.6747   20.9941 C   0  0  0  0  0  0  0  0  0  0  0  0
  -35.8402  -20.5902   18.4975 C   0  0  0  0  0  0  0  0  0  0  0  0
  -35.1980  -18.5444   19.7560 C   0  0  0  0  0  0  0  0  0  0  0  0
  -28.1896  -30.8896   15.1218 C   0  0  0  0  0  0  0  0  0  0  0  0
  -30.1833  -31.3177   13.6691 C   0  0  0  0  0  0  0  0  0  0  0  0
  -29.2912  -33.1348   15.1269 C   0  0  0  0  0  0  0  0  0  0  0  0
  -35.1159  -31.1343   18.1173 C   0  0  0  0  0  0  0  0  0  0  0  0
  -30.3294  -19.2086   17.9020 C   0  0  0  0  0  0  0  0  0  0  0  0
  -31.3438  -23.4400   20.4122 C   0  0  0  0  0  0  0  0  0  1  0  0
  -29.3499  -18.4685   18.8103 C   0  0  0  0  0  0  0  0  0  0  0  0
  -29.2146  -16.8184   20.6805 C   0  0  0  0  0  0  0  0  0  0  0  0
  -30.0188  -15.8545   21.5514 C   0  0  1  0  0  0  0  0  0  0  0  0
  -30.5253  -31.1951   16.1789 C   0  0  1  0  0  0  0  0  0  0  0  0
  -34.1924  -32.1431   16.0272 C   0  0  2  0  0  0  0  0  0  0  0  0
  -33.5828  -18.3014   16.9507 C   0  0  0  0  0  0  0  0  0  0  0  0
  -34.9487  -20.0858   19.6730 C   0  0  0  0  0  0  0  0  0  0  0  0
  -29.5482  -31.6143   15.0444 C   0  0  0  0  0  0  0  0  0  0  0  0
  -25.8792  -11.5302   20.3259 N   0  0  0  0  0  0  0  0  0  0  0  0
  -26.2286  -12.8108   20.1154 N   0  0  0  0  0  0  0  0  0  0  0  0
  -29.8074  -30.3124   18.3765 N   0  0  0  0  0  0  0  0  0  0  0  0
  -29.9440  -13.6795   20.3804 N   0  0  0  0  0  0  0  0  0  0  0  0
  -25.4032  -15.0299   20.1859 N   0  0  0  0  0  0  0  0  0  0  0  0
  -21.8490  -12.5552   21.4664 N   0  0  0  0  0  0  0  0  0  0  0  0
  -33.0554  -18.4376   18.2708 N   0  0  0  0  0  0  0  0  0  0  0  0
  -26.8119  -30.1666   20.4506 N   0  0  0  0  0  0  0  0  0  0  0  0
  -31.8100  -31.8856   16.1465 N   0  0  0  0  0  0  0  0  0  0  0  0
  -35.3626  -31.5138   16.7023 N   0  3  0  0  0  0  0  0  0  0  0  0
  -30.0811  -17.5463   19.7140 N   0  3  0  0  0  0  0  0  0  0  0  0
  -22.5804  -14.6890   21.0532 O   0  0  0  0  0  0  0  0  0  0  0  0
  -27.3496  -29.6202   18.2518 O   0  0  0  0  0  0  0  0  0  0  0  0
  -31.8528  -15.0033   20.3170 O   0  0  0  0  0  0  0  0  0  0  0  0
  -29.6442  -32.5860   17.8864 O   0  0  0  0  0  0  0  0  0  0  0  0
  -33.1191  -29.9791   15.9758 O   0  0  0  0  0  0  0  0  0  0  0  0
  -21.7056   -7.0084   21.9640 O   0  0  0  0  0  0  0  0  0  0  0  0
  -31.2071  -24.3841   19.3509 O   0  0  0  0  0  0  0  0  0  1  0  0
  -16.5957   -6.5570   19.9418 F   0  0  0  0  0  0  0  0  0  0  0  0
  -21.0196   -4.9115   20.2981 F   0  0  0  0  0  0  0  0  0  0  0  0
  1  2  1  0  0  0  0
  1  5  2  0  0  0  0
  2  6  2  0  0  0  0
  3  8  2  0  0  0  0
  3 16  1  0  0  0  0
  4  9  1  0  0  0  0
  4 16  2  0  0  0  0
  5 18  1  0  0  0  0
  6 20  1  0  0  0  0
  7 10  2  0  0  0  0
  7 19  1  0  0  0  0
  8 27  1  0  0  0  0
  9 27  2  0  0  0  0
 10 28  1  0  0  0  0
 11 12  2  0  0  0  0
 11 29  1  0  0  0  0
 12 30  1  0  0  0  0
 13 21  1  0  0  0  0
 13 28  2  0  0  0  0
 14 22  1  0  0  0  0
 14 23  2  0  0  0  0
 15 30  2  0  0  0  0
 15 31  1  0  0  0  0
 16 32  1  0  0  0  0
 17 32  1  0  0  0  0
 17 33  2  0  0  0  0
 17 34  1  0  0  0  0
 18 20  2  0  0  0  0
 18 39  1  0  0  0  0
 19 21  2  0  0  0  0
 19 40  1  0  0  0  0
 20 48  1  0  0  0  0
 21 41  1  0  0  0  0
 22 24  2  0  0  0  0
 22 64  1  0  0  0  0
 23 26  1  0  0  0  0
 23 71  1  0  0  0  0
 24 25  1  0  0  0  0
 24 51  1  0  0  0  0
 25 26  2  0  0  0  0
 25 63  1  0  0  0  0
 26 79  1  0  0  0  0
 27 89  1  0  0  0  0
 28 90  1  0  0  0  0
 29 31  2  0  0  0  0
 29 89  1  0  0  0  0
 30 91  1  0  0  0  0
 31 92  1  0  0  0  0
 32 73  2  0  0  0  0
 33 74  1  0  0  0  0
 33 77  1  0  0  0  0
 34 78  1  0  0  0  0
 34 84  2  0  0  0  0
 35 49  1  0  0  0  0
 35 80  1  0  0  0  0
 35 85  2  0  0  0  0
 36 67  1  0  0  0  0
 36 76  1  0  0  0  0
 36 86  2  0  0  0  0
 37 68  1  0  0  0  0
 37 75  1  0  0  0  0
 37 87  2  0  0  0  0
 38 69  1  0  0  0  0
 38 81  1  0  0  0  0
 38 88  2  0  0  0  0
 39 42  1  0  0  0  0
 40 49  1  0  0  0  0
 41 75  1  0  0  0  0
 42 44  1  0  0  0  0
 43 45  1  0  0  0  0
 43 46  1  0  0  0  0
 44 48  1  0  0  0  0
 45 50  1  0  0  0  0
 46 76  1  0  0  0  0
 47 50  1  0  0  0  0
 47 76  1  0  0  0  0
 48 80  1  0  0  0  0
 49 75  1  0  0  0  0
 50 74  1  0  0  0  0
 52 67  1  0  0  0  0
 53 69  1  0  0  0  0
 54 70  1  0  0  0  0
 55 70  1  0  0  0  0
 56 71  1  0  0  0  0
 57 71  1  0  0  0  0
 58 71  1  0  0  0  0
 59 72  1  0  0  0  0
 60 72  1  0  0  0  0
 61 72  1  0  0  0  0
 62 82  1  0  0  0  0
 63 65  1  0  0  0  0
 64 90  1  0  0  0  0
 65 83  1  0  0  0  0
 66 67  1  0  0  0  0
 66 83  1  0  0  0  0
 68 72  1  0  0  0  0
 68 81  1  0  0  0  0
 69 82  1  0  0  0  0
 70 79  1  0  0  0  0
 73 74  1  0  0  0  0
M  CHG  2  82   1  83   1
M  ISO  4  36 100  64 101  67 100  90 101
M  END
> <Batch ID>
0018

> <Smiles>
CNC(C)C(=O)NC(C(=O)N1Cc2cc([101O:1][101CH2:1]c3cc(C(C)(C)C)c(NC(C)C)c(CCNC[100CH:0](C)[100C:0](=O)N4CCCC(n5nc(-c6ccc(Oc7ccc(F)cc7F)cc6)c(C(N)=O)c5N)C4)c3C)ccc2CC1C(=O)NC1CCCc2ccccc21)C(C)(C)C

> <Shape>
0.255

> <Color>
0.198

> <Negative vol penalty>
0.000

$$$$

  -OEChem-04052316043D

 82 90  0     1  0  0  0  0  0999 V2000
  -26.4490  -17.2633   34.0264 C   0  0  0  0  0  0  0  0  0  0  0  0
  -26.6668  -17.2215   32.6530 C   0  0  0  0  0  0  0  0  0  0  0  0
  -23.0722   -9.8693   19.9448 C   0  0  0  0  0  0  0  0  0  0  0  0
  -23.8344   -9.8794   22.2374 C   0  0  0  0  0  0  0  0  0  0  0  0
  -25.3692  -16.5773   34.5810 C   0  0  0  0  0  0  0  0  0  0  0  0
  -25.8055  -16.4928   31.8334 C   0  0  0  0  0  0  0  0  0  0  0  0
  -24.4969  -19.0276   27.6493 C   0  0  0  0  0  0  0  0  0  0  0  0
  -22.3288   -8.7164   20.1970 C   0  0  0  0  0  0  0  0  0  0  0  0
  -23.0909   -8.7264   22.4897 C   0  0  0  0  0  0  0  0  0  0  0  0
  -25.4304  -19.0740   26.6148 C   0  0  0  0  0  0  0  0  0  0  0  0
  -22.9019   -5.3984   20.4917 C   0  0  0  0  0  0  0  0  0  0  0  0
  -22.9679   -4.3676   19.5543 C   0  0  0  0  0  0  0  0  0  0  0  0
  -24.2432  -17.3118   25.4726 C   0  0  0  0  0  0  0  0  0  0  0  0
  -20.5830   -4.5326   19.2048 C   0  0  0  0  0  0  0  0  0  0  0  0
  -28.8392  -20.0823   21.3133 C   0  0  0  0  0  0  0  0  0  0  0  0
  -23.8251  -10.4508   20.9650 C   0  0  0  0  0  0  0  0  0  0  0  0
  -24.1664  -12.9759   20.8414 C   0  0  0  0  0  0  0  0  0  0  0  0
  -24.4887  -15.8478   33.7667 C   0  0  0  0  0  0  0  0  0  0  0  0
  -23.4339  -18.1140   27.6084 C   0  0  0  0  0  0  0  0  0  0  0  0
  -24.7138  -15.7953   32.3778 C   0  0  0  0  0  0  0  0  0  0  0  0
  -23.2961  -17.2576   26.5066 C   0  0  0  0  0  0  0  0  0  0  0  0
  -28.1475  -19.1204   23.4188 C   0  0  0  0  0  0  0  0  0  0  0  0
  -29.8422  -18.0259   22.0894 C   0  0  0  0  0  0  0  0  0  0  0  0
  -22.3381   -8.1450   21.4694 C   0  0  0  0  0  0  0  0  0  0  0  0
  -25.3053  -18.2140   25.5276 C   0  0  0  0  0  0  0  0  0  0  0  0
  -21.6764   -5.9963   20.7857 C   0  0  0  0  0  0  0  0  0  0  0  0
  -21.8085   -3.9347   18.9108 C   0  0  0  0  0  0  0  0  0  0  0  0
  -20.5170   -5.5634   20.1422 C   0  0  0  0  0  0  0  0  0  0  0  0
  -28.0438  -20.1265   22.4582 C   0  0  0  0  0  0  0  0  0  0  0  0
  -29.0468  -18.0701   23.2344 C   0  0  0  0  0  0  0  0  0  0  0  0
  -29.7384  -19.0320   21.1288 C   0  0  0  0  0  0  0  0  0  0  0  0
  -24.5937  -11.6415   20.7050 C   0  0  0  0  0  0  0  0  0  0  0  0
  -25.2581  -13.7250   20.4761 C   0  0  0  0  0  0  0  0  0  0  0  0
  -22.8963  -13.4920   21.2610 C   0  0  0  0  0  0  0  0  0  0  0  0
  -22.5017  -15.6746   29.4206 C   0  0  0  0  0  0  0  0  0  0  0  0
  -19.9348  -15.6882   27.4374 C   0  0  0  0  0  0  0  0  0  0  0  0
  -18.6292  -16.5129   24.3941 C   0  0  0  0  0  0  0  0  0  0  0  0
  -30.7419  -14.7451   20.6576 C   0  0  0  0  0  0  0  0  0  0  0  0
  -23.3628  -15.0837   34.4173 C   0  0  0  0  0  0  0  0  0  0  0  0
  -22.4202  -18.0949   28.7194 C   0  0  0  0  0  0  0  0  0  0  0  0
  -22.1615  -16.2724   26.4051 C   0  0  0  0  0  0  0  0  0  0  0  0
  -22.2799  -14.6419   33.4363 C   0  0  0  0  0  0  0  0  0  0  0  0
  -29.6022  -12.3574   18.2751 C   0  0  0  0  0  0  0  0  0  0  0  0
  -22.9074  -14.0209   32.1924 C   0  0  0  0  0  0  0  0  0  0  0  0
  -28.1653  -12.0640   18.7098 C   0  0  0  0  0  0  0  0  0  0  0  0
  -30.5205  -12.5799   19.4747 C   0  0  0  0  0  0  0  0  0  0  0  0
  -28.6201  -13.3125   20.8623 C   0  0  0  0  0  0  0  0  0  0  0  0
  -23.7873  -15.0361   31.4530 C   0  0  1  0  0  0  0  0  0  0  0  0
  -21.6685  -16.7712   28.8197 C   0  0  1  0  0  0  0  0  0  0  0  0
  -27.6447  -13.1362   19.6859 C   0  0  2  0  0  0  0  0  0  0  0  0
  -16.5143  -16.3629   23.0517 C   0  0  0  0  0  0  0  0  0  0  0  0
  -20.4738  -12.7293   26.9234 C   0  0  0  0  0  0  0  0  0  0  0  0
  -18.9828  -12.8777   24.9175 C   0  0  0  0  0  0  0  0  0  0  0  0
  -18.0581  -13.3183   27.1921 C   0  0  0  0  0  0  0  0  0  0  0  0
  -18.4172  -19.4573   24.1829 C   0  0  0  0  0  0  0  0  0  0  0  0
  -30.8086  -16.8973   21.8916 C   0  0  0  0  0  0  0  0  0  0  0  0
  -27.2733  -19.2072   24.6351 C   0  0  0  0  0  0  0  0  0  1  0  0
  -19.5929  -15.0217   26.1267 C   0  0  1  0  0  0  0  0  0  0  0  0
  -17.3380  -17.2115   24.0077 C   0  0  2  0  0  0  0  0  0  0  0  0
  -19.2995  -13.5039   26.2925 C   0  0  0  0  0  0  0  0  0  0  0  0
  -25.8582  -11.5453   20.2856 N   0  0  0  0  0  0  0  0  0  0  0  0
  -26.2348  -12.8287   20.1552 N   0  0  0  0  0  0  0  0  0  0  0  0
  -21.1996  -16.2875   27.5196 N   0  0  0  0  0  0  0  0  0  0  0  0
  -29.9707  -13.6095   20.3599 N   0  0  0  0  0  0  0  0  0  0  0  0
  -25.4682  -15.0564   20.4011 N   0  0  0  0  0  0  0  0  0  0  0  0
  -21.8848  -12.5831   21.6004 N   0  0  0  0  0  0  0  0  0  0  0  0
  -22.9683  -15.9542   30.6909 N   0  0  0  0  0  0  0  0  0  0  0  0
  -18.4880  -15.7851   25.5566 N   0  0  0  0  0  0  0  0  0  0  0  0
  -30.1434  -15.6750   21.4990 N   0  0  0  0  0  0  0  0  0  0  0  0
  -17.6318  -18.5141   23.3459 N   0  3  0  0  0  0  0  0  0  0  0  0
  -22.6599  -14.7227   21.3169 O   0  0  0  0  0  0  0  0  0  0  0  0
  -22.7049  -14.6500   28.7798 O   0  0  0  0  0  0  0  0  0  0  0  0
  -19.1072  -15.6836   28.3522 O   0  0  0  0  0  0  0  0  0  0  0  0
  -19.6589  -16.6008   23.7289 O   0  0  0  0  0  0  0  0  0  0  0  0
  -31.8773  -14.9202   20.2026 O   0  0  0  0  0  0  0  0  0  0  0  0
  -21.6126   -7.0201   21.7160 O   0  0  0  0  0  0  0  0  0  0  0  0
  -26.2155  -18.2568   24.5169 O   0  0  0  0  0  0  0  0  0  1  0  0
  -21.8724   -2.9459   18.0096 F   0  0  0  0  0  0  0  0  0  0  0  0
  -19.3370   -6.1347   20.4196 F   0  0  0  0  0  0  0  0  0  0  0  0
  -27.1833  -21.1408   22.6250 F   0  0  0  0  0  0  0  0  0  0  0  0
  -29.1699  -16.8233   24.4323 Cl  0  0  0  0  0  0  0  0  0  0  0  0
  -30.7945  -19.0240   19.5522 Br  0  0  0  0  0  0  0  0  0  0  0  0
  1  2  1  0  0  0  0
  1  5  2  0  0  0  0
  2  6  2  0  0  0  0
  3  8  2  0  0  0  0
  3 16  1  0  0  0  0
  4  9  1  0  0  0  0
  4 16  2  0  0  0  0
  5 18  1  0  0  0  0
  6 20  1  0  0  0  0
  7 10  2  0  0  0  0
  7 19  1  0  0  0  0
  8 24  1  0  0  0  0
  9 24  2  0  0  0  0
 10 25  1  0  0  0  0
 11 12  2  0  0  0  0
 11 26  1  0  0  0  0
 12 27  1  0  0  0  0
 13 21  1  0  0  0  0
 13 25  2  0  0  0  0
 14 27  2  0  0  0  0
 14 28  1  0  0  0  0
 15 29  2  0  0  0  0
 15 31  1  0  0  0  0
 16 32  1  0  0  0  0
 17 32  1  0  0  0  0
 17 33  2  0  0  0  0
 17 34  1  0  0  0  0
 18 20  2  0  0  0  0
 18 39  1  0  0  0  0
 19 21  2  0  0  0  0
 19 40  1  0  0  0  0
 20 48  1  0  0  0  0
 21 41  1  0  0  0  0
 22 29  1  0  0  0  0
 22 30  2  0  0  0  0
 22 57  1  0  0  0  0
 23 30  1  0  0  0  0
 23 31  2  0  0  0  0
 23 56  1  0  0  0  0
 24 76  1  0  0  0  0
 25 77  1  0  0  0  0
 26 28  2  0  0  0  0
 26 76  1  0  0  0  0
 27 78  1  0  0  0  0
 28 79  1  0  0  0  0
 29 80  1  0  0  0  0
 30 81  1  0  0  0  0
 31 82  1  0  0  0  0
 32 61  2  0  0  0  0
 33 62  1  0  0  0  0
 33 65  1  0  0  0  0
 34 66  1  0  0  0  0
 34 71  2  0  0  0  0
 35 49  1  0  0  0  0
 35 67  1  0  0  0  0
 35 72  2  0  0  0  0
 36 58  1  0  0  0  0
 36 63  1  0  0  0  0
 36 73  2  0  0  0  0
 37 59  1  0  0  0  0
 37 68  1  0  0  0  0
 37 74  2  0  0  0  0
 38 64  1  0  0  0  0
 38 69  1  0  0  0  0
 38 75  2  0  0  0  0
 39 42  1  0  0  0  0
 40 49  1  0  0  0  0
 41 63  1  0  0  0  0
 42 44  1  0  0  0  0
 43 45  1  0  0  0  0
 43 46  1  0  0  0  0
 44 48  1  0  0  0  0
 45 50  1  0  0  0  0
 46 64  1  0  0  0  0
 47 50  1  0  0  0  0
 47 64  1  0  0  0  0
 48 67  1  0  0  0  0
 49 63  1  0  0  0  0
 50 62  1  0  0  0  0
 51 59  1  0  0  0  0
 52 60  1  0  0  0  0
 53 60  1  0  0  0  0
 54 60  1  0  0  0  0
 55 70  1  0  0  0  0
 56 69  1  0  0  0  0
 57 77  1  0  0  0  0
 58 60  1  0  0  0  0
 58 68  1  0  0  0  0
 59 70  1  0  0  0  0
 61 62  1  0  0  0  0
M  CHG  1  70   1
M  ISO  4  38 100  57 101  69 100  77 101
M  END
> <Batch ID>
0018

> <Smiles>
CNC(C)C(=O)NC(C(=O)N1Cc2cc([101O:1][101CH2:1]c3c(F)cc(Br)c(C[100NH:0][100C:0](=O)N4CCCC(n5nc(-c6ccc(Oc7ccc(F)cc7F)cc6)c(C(N)=O)c5N)C4)c3Cl)ccc2CC1C(=O)NC1CCCc2ccccc21)C(C)(C)C

> <Shape>
0.166

> <Color>
0.196

> <Negative vol penalty>
0.000

$$$$

  -OEChem-04052316043D

 94102  0     1  0  0  0  0  0999 V2000
  -24.3852   -8.8400   21.1689 C   0  0  0  0  0  0  0  0  0  0  0  0
  -24.4099   -9.9727   20.3616 C   0  0  0  0  0  0  0  0  0  0  0  0
  -27.0096  -28.5222   21.1085 C   0  0  0  0  0  0  0  0  0  0  0  0
  -25.5246  -27.0819   19.8604 C   0  0  0  0  0  0  0  0  0  0  0  0
  -23.3474   -8.6588   22.0822 C   0  0  0  0  0  0  0  0  0  0  0  0
  -23.3962  -10.9244   20.4663 C   0  0  0  0  0  0  0  0  0  0  0  0
  -26.0698  -13.5238   23.7222 C   0  0  0  0  0  0  0  0  0  0  0  0
  -26.0650  -29.5469   21.0499 C   0  0  0  0  0  0  0  0  0  0  0  0
  -24.5801  -28.1066   19.8018 C   0  0  0  0  0  0  0  0  0  0  0  0
  -27.3668  -13.2350   23.3000 C   0  0  0  0  0  0  0  0  0  0  0  0
  -23.1957  -30.3832   22.6312 C   0  0  0  0  0  0  0  0  0  0  0  0
  -22.9387  -31.0957   23.8024 C   0  0  0  0  0  0  0  0  0  0  0  0
  -27.0402  -14.6320   21.3607 C   0  0  0  0  0  0  0  0  0  0  0  0
  -30.9144  -17.2711   19.0094 C   0  0  0  0  0  0  0  0  0  0  0  0
  -32.4422  -18.9281   17.3654 C   0  0  0  0  0  0  0  0  0  0  0  0
  -23.6385  -33.1364   22.7148 C   0  0  0  0  0  0  0  0  0  0  0  0
  -26.7394  -27.2897   20.5137 C   0  0  0  0  0  0  0  0  0  0  0  0
  -27.8369  -25.2426   21.5684 C   0  0  0  0  0  0  0  0  0  0  0  0
  -22.3256   -9.6135   22.2050 C   0  0  0  0  0  0  0  0  0  0  0  0
  -25.2431  -14.3616   22.9599 C   0  0  0  0  0  0  0  0  0  0  0  0
  -22.3430  -10.7552   21.3812 C   0  0  0  0  0  0  0  0  0  0  0  0
  -25.7340  -14.9319   21.7767 C   0  0  0  0  0  0  0  0  0  0  0  0
  -31.9750  -16.7395   18.2759 C   0  0  0  0  0  0  0  0  0  0  0  0
  -30.6176  -18.6312   18.9209 C   0  0  0  0  0  0  0  0  0  0  0  0
  -32.7389  -17.5680   17.4539 C   0  0  0  0  0  0  0  0  0  0  0  0
  -31.3815  -19.4597   18.0989 C   0  0  0  0  0  0  0  0  0  0  0  0
  -24.8503  -29.3391   20.3965 C   0  0  0  0  0  0  0  0  0  0  0  0
  -27.8512  -13.7868   22.1176 C   0  0  0  0  0  0  0  0  0  0  0  0
  -23.6743  -31.0473   21.5017 C   0  0  0  0  0  0  0  0  0  0  0  0
  -23.1600  -32.4723   23.8443 C   0  0  0  0  0  0  0  0  0  0  0  0
  -23.8956  -32.4239   21.5435 C   0  0  0  0  0  0  0  0  0  0  0  0
  -27.7149  -26.2310   20.5735 C   0  0  0  0  0  0  0  0  0  0  0  0
  -28.9089  -24.4829   21.1681 C   0  0  0  0  0  0  0  0  0  0  0  0
  -27.0515  -25.0302   22.7489 C   0  0  0  0  0  0  0  0  0  0  0  0
  -22.4687  -14.0048   21.4503 C   0  0  0  0  0  0  0  0  0  0  0  0
  -22.7606  -17.2005   20.9761 C   0  0  0  0  0  0  0  0  0  0  0  0
  -24.8092  -19.9204   20.7481 C   0  0  0  0  0  0  0  0  0  0  0  0
  -31.7670  -21.7893   17.2211 C   0  0  0  0  0  0  0  0  0  0  0  0
  -21.1994   -9.3509   23.1732 C   0  0  0  0  0  0  0  0  0  0  0  0
  -23.8557  -14.6846   23.4428 C   0  0  0  0  0  0  0  0  0  0  0  0
  -24.8936  -15.8537   20.9326 C   0  0  0  0  0  0  0  0  0  0  0  0
  -20.3640  -10.5897   23.4861 C   0  0  0  0  0  0  0  0  0  0  0  0
  -32.3451  -25.2881   17.5396 C   0  0  0  0  0  0  0  0  0  0  0  0
  -20.0114  -11.3341   22.2023 C   0  0  0  0  0  0  0  0  0  0  0  0
  -31.2020  -25.7640   18.4392 C   0  0  0  0  0  0  0  0  0  0  0  0
  -31.8924  -24.1874   16.5819 C   0  0  0  0  0  0  0  0  0  0  0  0
  -30.0880  -23.5181   18.1199 C   0  0  0  0  0  0  0  0  0  0  0  0
  -21.2747  -11.8221   21.4829 C   0  0  1  0  0  0  0  0  0  0  0  0
  -22.9243  -15.1396   22.3235 C   0  0  1  0  0  0  0  0  0  0  0  0
  -30.5117  -24.5813   19.1464 C   0  0  2  0  0  0  0  0  0  0  0  0
  -29.9440  -19.9279   20.9584 C   0  0  0  0  0  0  0  0  0  0  0  0
  -24.7615  -22.3917   20.3148 C   0  0  0  0  0  0  0  0  0  0  0  0
  -30.6615  -12.2092   16.1708 C   0  0  0  0  0  0  0  0  0  0  0  0
  -30.3675  -10.6811   18.1129 C   0  0  0  0  0  0  0  0  0  0  0  0
  -34.5720  -18.1410   15.8237 C   0  0  0  0  0  0  0  0  0  0  0  0
  -33.3967  -15.9207   15.6649 C   0  0  0  0  0  0  0  0  0  0  0  0
  -35.0208  -16.3568   17.4962 C   0  0  0  0  0  0  0  0  0  0  0  0
  -22.3649  -16.6682   17.9979 C   0  0  0  0  0  0  0  0  0  0  0  0
  -23.2586  -18.9617   17.5403 C   0  0  0  0  0  0  0  0  0  0  0  0
  -21.1641  -18.6828   18.8661 C   0  0  0  0  0  0  0  0  0  0  0  0
  -32.7558  -12.7015   18.4597 C   0  0  0  0  0  0  0  0  0  0  0  0
  -25.9343  -20.5275   23.4173 C   0  0  0  0  0  0  0  0  0  0  0  0
  -29.4759  -19.1735   19.7180 C   0  0  0  0  0  0  0  0  0  0  0  0
  -32.2753  -15.2727   18.3869 C   0  0  0  0  0  0  0  0  0  0  0  0
  -29.3537  -13.5055   20.2958 C   0  0  0  0  0  0  0  0  0  1  0  0
  -23.3833  -18.0708   19.9114 C   0  0  1  0  0  0  0  0  0  0  0  0
  -24.7240  -21.3009   21.3738 C   0  0  2  0  0  0  0  0  0  0  0  0
  -30.3551  -12.1536   17.6790 C   0  0  0  0  0  0  0  0  0  0  0  0
  -33.8790  -17.0212   16.6590 C   0  0  0  0  0  0  0  0  0  0  0  0
  -22.5581  -18.0770   18.5936 C   0  0  0  0  0  0  0  0  0  0  0  0
  -31.2701  -13.0991   18.5468 C   0  0  1  0  0  0  0  0  0  0  0  0
  -30.8080  -13.1279   20.0326 C   0  0  0  0  0  0  0  0  0  0  0  0
  -28.6359  -26.1126   19.6134 N   0  0  0  0  0  0  0  0  0  0  0  0
  -29.3469  -25.0409   20.0033 N   0  0  0  0  0  0  0  0  0  0  0  0
  -23.5416  -16.1341   21.4436 N   0  0  0  0  0  0  0  0  0  0  0  0
  -31.2515  -23.0988   17.3229 N   0  0  0  0  0  0  0  0  0  0  0  0
  -29.5101  -23.3987   21.7025 N   0  0  0  0  0  0  0  0  0  0  0  0
  -25.9867  -25.9036   23.0092 N   0  0  0  0  0  0  0  0  0  0  0  0
  -31.0959  -20.8437   17.9958 N   0  0  0  0  0  0  0  0  0  0  0  0
  -21.8001  -13.0049   22.1305 N   0  0  0  0  0  0  0  0  0  0  0  0
  -23.5591  -19.3885   20.5125 N   0  0  0  0  0  0  0  0  0  0  0  0
  -31.1480  -14.4557   17.9808 N   0  0  0  0  0  0  0  0  0  0  0  0
  -25.8628  -21.5161   22.3107 N   0  3  0  0  0  0  0  0  0  0  0  0
  -27.2970  -24.1034   23.5578 O   0  0  0  0  0  0  0  0  0  0  0  0
  -22.7049  -14.0350   20.2482 O   0  0  0  0  0  0  0  0  0  0  0  0
  -21.6258  -17.4616   21.3833 O   0  0  0  0  0  0  0  0  0  0  0  0
  -25.8778  -19.3706   20.4905 O   0  0  0  0  0  0  0  0  0  0  0  0
  -32.7494  -21.5312   16.5210 O   0  0  0  0  0  0  0  0  0  0  0  0
  -23.9283  -30.3387   20.3393 O   0  0  0  0  0  0  0  0  0  0  0  0
  -29.1165  -13.5061   21.7029 O   0  0  0  0  0  0  0  0  0  1  0  0
  -22.9117  -33.1565   24.9686 F   0  0  0  0  0  0  0  0  0  0  0  0
  -24.3541  -33.0675   20.4612 F   0  0  0  0  0  0  0  0  0  0  0  0
  -31.0288  -11.9024   20.5872 F   0  0  0  0  0  0  0  0  0  0  0  0
  -31.5835  -14.0059   20.7285 F   0  0  0  0  0  0  0  0  0  0  0  0
  1  2  1  0  0  0  0
  1  5  2  0  0  0  0
  2  6  2  0  0  0  0
  3  8  2  0  0  0  0
  3 17  1  0  0  0  0
  4  9  1  0  0  0  0
  4 17  2  0  0  0  0
  5 19  1  0  0  0  0
  6 21  1  0  0  0  0
  7 10  2  0  0  0  0
  7 20  1  0  0  0  0
  8 27  1  0  0  0  0
  9 27  2  0  0  0  0
 10 28  1  0  0  0  0
 11 12  2  0  0  0  0
 11 29  1  0  0  0  0
 12 30  1  0  0  0  0
 13 22  1  0  0  0  0
 13 28  2  0  0  0  0
 14 23  2  0  0  0  0
 14 24  1  0  0  0  0
 15 25  2  0  0  0  0
 15 26  1  0  0  0  0
 16 30  2  0  0  0  0
 16 31  1  0  0  0  0
 17 32  1  0  0  0  0
 18 32  1  0  0  0  0
 18 33  2  0  0  0  0
 18 34  1  0  0  0  0
 19 21  2  0  0  0  0
 19 39  1  0  0  0  0
 20 22  2  0  0  0  0
 20 40  1  0  0  0  0
 21 48  1  0  0  0  0
 22 41  1  0  0  0  0
 23 25  1  0  0  0  0
 23 64  1  0  0  0  0
 24 26  2  0  0  0  0
 24 63  1  0  0  0  0
 25 69  1  0  0  0  0
 26 79  1  0  0  0  0
 27 89  1  0  0  0  0
 28 90  1  0  0  0  0
 29 31  2  0  0  0  0
 29 89  1  0  0  0  0
 30 91  1  0  0  0  0
 31 92  1  0  0  0  0
 32 73  2  0  0  0  0
 33 74  1  0  0  0  0
 33 77  1  0  0  0  0
 34 78  1  0  0  0  0
 34 84  2  0  0  0  0
 35 49  1  0  0  0  0
 35 80  1  0  0  0  0
 35 85  2  0  0  0  0
 36 66  1  0  0  0  0
 36 75  1  0  0  0  0
 36 86  2  0  0  0  0
 37 67  1  0  0  0  0
 37 81  1  0  0  0  0
 37 87  2  0  0  0  0
 38 76  1  0  0  0  0
 38 79  1  0  0  0  0
 38 88  2  0  0  0  0
 39 42  1  0  0  0  0
 40 49  1  0  0  0  0
 41 75  1  0  0  0  0
 42 44  1  0  0  0  0
 43 45  1  0  0  0  0
 43 46  1  0  0  0  0
 44 48  1  0  0  0  0
 45 50  1  0  0  0  0
 46 76  1  0  0  0  0
 47 50  1  0  0  0  0
 47 76  1  0  0  0  0
 48 80  1  0  0  0  0
 49 75  1  0  0  0  0
 50 74  1  0  0  0  0
 51 63  1  0  0  0  0
 52 67  1  0  0  0  0
 53 68  1  0  0  0  0
 54 68  1  0  0  0  0
 55 69  1  0  0  0  0
 56 69  1  0  0  0  0
 57 69  1  0  0  0  0
 58 70  1  0  0  0  0
 59 70  1  0  0  0  0
 60 70  1  0  0  0  0
 61 71  1  0  0  0  0
 62 83  1  0  0  0  0
 64 82  1  0  0  0  0
 65 72  1  0  0  0  0
 65 90  1  0  0  0  0
 66 70  1  0  0  0  0
 66 81  1  0  0  0  0
 67 83  1  0  0  0  0
 68 71  1  0  0  0  0
 71 72  1  0  0  0  0
 71 82  1  0  0  0  0
 72 93  1  0  0  0  0
 72 94  1  0  0  0  0
 73 74  1  0  0  0  0
M  CHG  1  83   1
M  ISO  4  38 100  65 101  79 100  90 101
M  END
> <Batch ID>
0018

> <Smiles>
CCc1cc(CNC(C)(C(C)C)C(F)(F)[101CH2:1][101O:1]c2ccc3c(c2)CN(C(=O)C(NC(=O)C(C)NC)C(C)(C)C)C(C(=O)NC2CCCc4ccccc42)C3)c(C(C)(C)C)cc1[100NH:0][100C:0](=O)N1CCCC(n2nc(-c3ccc(Oc4ccc(F)cc4F)cc3)c(C(N)=O)c2N)C1

> <Shape>
0.225

> <Color>
0.064

> <Negative vol penalty>
0.000

$$$$

  -OEChem-04052316043D

 86 94  0     1  0  0  0  0  0999 V2000
  -34.9940  -30.7968   24.8099 C   0  0  0  0  0  0  0  0  0  0  0  0
  -34.2892  -29.8953   24.0186 C   0  0  0  0  0  0  0  0  0  0  0  0
  -23.0729   -9.8681   19.9464 C   0  0  0  0  0  0  0  0  0  0  0  0
  -23.8346   -9.8813   22.2391 C   0  0  0  0  0  0  0  0  0  0  0  0
  -36.3079  -30.5163   25.1827 C   0  0  0  0  0  0  0  0  0  0  0  0
  -34.8983  -28.7133   23.5988 C   0  0  0  0  0  0  0  0  0  0  0  0
  -31.8774  -24.6818   24.1142 C   0  0  0  0  0  0  0  0  0  0  0  0
  -22.3293   -8.7155   20.2000 C   0  0  0  0  0  0  0  0  0  0  0  0
  -23.0910   -8.7287   22.4928 C   0  0  0  0  0  0  0  0  0  0  0  0
  -30.8842  -24.5032   23.1521 C   0  0  0  0  0  0  0  0  0  0  0  0
  -19.9446   -5.9753   20.3376 C   0  0  0  0  0  0  0  0  0  0  0  0
  -18.6385   -5.9258   19.8505 C   0  0  0  0  0  0  0  0  0  0  0  0
  -32.2632  -22.8651   22.0412 C   0  0  0  0  0  0  0  0  0  0  0  0
  -29.3601  -18.9007   22.1671 C   0  0  0  0  0  0  0  0  0  0  0  0
  -18.0742   -7.8721   21.1660 C   0  0  0  0  0  0  0  0  0  0  0  0
  -23.8256  -10.4509   20.9659 C   0  0  0  0  0  0  0  0  0  0  0  0
  -24.1670  -12.9758   20.8389 C   0  0  0  0  0  0  0  0  0  0  0  0
  -36.9301  -29.3257   24.7752 C   0  0  0  0  0  0  0  0  0  0  0  0
  -33.0774  -23.9601   24.0407 C   0  0  0  0  0  0  0  0  0  0  0  0
  -36.2222  -28.4173   23.9654 C   0  0  0  0  0  0  0  0  0  0  0  0
  -33.2690  -23.0344   23.0050 C   0  0  0  0  0  0  0  0  0  0  0  0
  -29.9414  -17.7674   22.7357 C   0  0  0  0  0  0  0  0  0  0  0  0
  -29.7089  -17.4627   24.0769 C   0  0  0  0  0  0  0  0  0  0  0  0
  -28.3140  -19.4248   24.2808 C   0  0  0  0  0  0  0  0  0  0  0  0
  -28.5465  -19.7295   22.9397 C   0  0  0  0  0  0  0  0  0  0  0  0
  -22.3384   -8.1458   21.4732 C   0  0  0  0  0  0  0  0  0  0  0  0
  -31.0782  -23.5969   22.1139 C   0  0  0  0  0  0  0  0  0  0  0  0
  -20.3155   -6.9731   21.2390 C   0  0  0  0  0  0  0  0  0  0  0  0
  -17.7033   -6.8742   20.2646 C   0  0  0  0  0  0  0  0  0  0  0  0
  -19.3803   -7.9216   21.6531 C   0  0  0  0  0  0  0  0  0  0  0  0
  -28.8952  -18.2914   24.8495 C   0  0  0  0  0  0  0  0  0  0  0  0
  -24.5943  -11.6412   20.7044 C   0  0  0  0  0  0  0  0  0  0  0  0
  -25.2588  -13.7244   20.4727 C   0  0  0  0  0  0  0  0  0  0  0  0
  -22.8968  -13.4926   21.2574 C   0  0  0  0  0  0  0  0  0  0  0  0
  -36.1424  -24.7324   23.7040 C   0  0  0  0  0  0  0  0  0  0  0  0
  -36.5930  -21.5564   24.1860 C   0  0  0  0  0  0  0  0  0  0  0  0
  -35.3155  -18.3949   24.0461 C   0  0  0  0  0  0  0  0  0  0  0  0
  -30.7426  -14.7446   20.6540 C   0  0  0  0  0  0  0  0  0  0  0  0
  -38.3679  -29.0883   25.1638 C   0  0  0  0  0  0  0  0  0  0  0  0
  -34.1279  -24.1446   25.1013 C   0  0  0  0  0  0  0  0  0  0  0  0
  -34.5310  -22.2202   22.8925 C   0  0  0  0  0  0  0  0  0  0  0  0
  -38.8148  -27.6391   24.9888 C   0  0  0  0  0  0  0  0  0  0  0  0
  -29.6033  -12.3536   18.2745 C   0  0  0  0  0  0  0  0  0  0  0  0
  -38.3687  -27.1031   23.6321 C   0  0  0  0  0  0  0  0  0  0  0  0
  -28.1663  -12.0608   18.7094 C   0  0  0  0  0  0  0  0  0  0  0  0
  -30.5214  -12.5777   19.4741 C   0  0  0  0  0  0  0  0  0  0  0  0
  -28.6207  -13.3123   20.8602 C   0  0  0  0  0  0  0  0  0  0  0  0
  -36.8401  -27.1129   23.5106 C   0  0  1  0  0  0  0  0  0  0  0  0
  -35.5223  -23.7331   24.6392 C   0  0  1  0  0  0  0  0  0  0  0  0
  -27.6456  -13.1344   19.6838 C   0  0  2  0  0  0  0  0  0  0  0  0
  -30.3424  -16.2406   24.6663 C   0  0  0  0  0  0  0  0  0  0  0  0
  -27.4377  -20.3265   25.0958 C   0  0  0  0  0  0  0  0  0  0  0  0
  -35.2136  -15.9083   24.3686 C   0  0  0  0  0  0  0  0  0  0  0  0
  -27.2957  -20.3421   20.0920 C   0  0  0  0  0  0  0  0  0  0  0  0
  -38.2048  -21.5193   21.5955 C   0  0  0  0  0  0  0  0  0  0  0  0
  -37.9800  -19.0259   21.5731 C   0  0  0  0  0  0  0  0  0  0  0  0
  -39.1780  -20.1516   23.4494 C   0  0  0  0  0  0  0  0  0  0  0  0
  -34.1664  -18.6771   26.7589 C   0  0  0  0  0  0  0  0  0  0  0  0
  -30.8092  -16.8984   21.8851 C   0  0  0  0  0  0  0  0  0  0  0  0
  -27.8557  -22.7021   20.7719 C   0  0  0  0  0  0  0  0  0  0  0  0
  -28.7595  -23.6229   21.5856 C   0  0  0  0  0  0  0  0  0  1  0  0
  -36.6614  -20.3391   23.2958 C   0  0  1  0  0  0  0  0  0  0  0  0
  -35.3204  -17.2609   25.0554 C   0  0  2  0  0  0  0  0  0  0  0  0
  -28.1822  -21.2187   20.9711 C   0  0  1  0  0  0  0  0  0  0  0  0
  -37.9830  -20.2756   22.4792 C   0  0  0  0  0  0  0  0  0  0  0  0
  -25.8588  -11.5444   20.2853 N   0  0  0  0  0  0  0  0  0  0  0  0
  -26.2355  -12.8277   20.1533 N   0  0  0  0  0  0  0  0  0  0  0  0
  -35.5310  -22.4410   23.9502 N   0  0  0  0  0  0  0  0  0  0  0  0
  -29.9714  -13.6085   20.3577 N   0  0  0  0  0  0  0  0  0  0  0  0
  -25.4690  -15.0557   20.3960 N   0  0  0  0  0  0  0  0  0  0  0  0
  -21.8853  -12.5842   21.5979 N   0  0  0  0  0  0  0  0  0  0  0  0
  -27.9796  -20.8484   22.3563 N   0  0  0  0  0  0  0  0  0  0  0  0
  -36.2682  -26.0005   24.2385 N   0  0  0  0  0  0  0  0  0  0  0  0
  -36.4383  -19.1867   24.1622 N   0  0  0  0  0  0  0  0  0  0  0  0
  -30.1440  -15.6756   21.4940 N   0  0  0  0  0  0  0  0  0  0  0  0
  -34.1744  -17.4013   25.9977 N   0  3  0  0  0  0  0  0  0  0  0  0
  -22.6605  -14.7233   21.3117 O   0  0  0  0  0  0  0  0  0  0  0  0
  -36.4829  -24.3788   22.5812 O   0  0  0  0  0  0  0  0  0  0  0  0
  -37.4461  -21.7129   25.0631 O   0  0  0  0  0  0  0  0  0  0  0  0
  -34.4083  -18.5594   23.2334 O   0  0  0  0  0  0  0  0  0  0  0  0
  -31.8782  -14.9189   20.1990 O   0  0  0  0  0  0  0  0  0  0  0  0
  -21.6127   -7.0213   21.7211 O   0  0  0  0  0  0  0  0  0  0  0  0
  -30.1107  -23.4212   21.1732 O   0  0  0  0  0  0  0  0  0  1  0  0
  -16.4495   -6.8276   19.7956 F   0  0  0  0  0  0  0  0  0  0  0  0
  -19.7310   -8.8833   22.5180 F   0  0  0  0  0  0  0  0  0  0  0  0
  -28.6044  -17.9104   26.5148 Cl  0  0  0  0  0  0  0  0  0  0  0  0
  1  2  1  0  0  0  0
  1  5  2  0  0  0  0
  2  6  2  0  0  0  0
  3  8  2  0  0  0  0
  3 16  1  0  0  0  0
  4  9  1  0  0  0  0
  4 16  2  0  0  0  0
  5 18  1  0  0  0  0
  6 20  1  0  0  0  0
  7 10  2  0  0  0  0
  7 19  1  0  0  0  0
  8 26  1  0  0  0  0
  9 26  2  0  0  0  0
 10 27  1  0  0  0  0
 11 12  2  0  0  0  0
 11 28  1  0  0  0  0
 12 29  1  0  0  0  0
 13 21  1  0  0  0  0
 13 27  2  0  0  0  0
 14 22  2  0  0  0  0
 14 25  1  0  0  0  0
 15 29  2  0  0  0  0
 15 30  1  0  0  0  0
 16 32  1  0  0  0  0
 17 32  1  0  0  0  0
 17 33  2  0  0  0  0
 17 34  1  0  0  0  0
 18 20  2  0  0  0  0
 18 39  1  0  0  0  0
 19 21  2  0  0  0  0
 19 40  1  0  0  0  0
 20 48  1  0  0  0  0
 21 41  1  0  0  0  0
 22 23  1  0  0  0  0
 22 59  1  0  0  0  0
 23 31  2  0  0  0  0
 23 51  1  0  0  0  0
 24 25  2  0  0  0  0
 24 31  1  0  0  0  0
 24 52  1  0  0  0  0
 25 72  1  0  0  0  0
 26 82  1  0  0  0  0
 27 83  1  0  0  0  0
 28 30  2  0  0  0  0
 28 82  1  0  0  0  0
 29 84  1  0  0  0  0
 30 85  1  0  0  0  0
 31 86  1  0  0  0  0
 32 66  2  0  0  0  0
 33 67  1  0  0  0  0
 33 70  1  0  0  0  0
 34 71  1  0  0  0  0
 34 77  2  0  0  0  0
 35 49  1  0  0  0  0
 35 73  1  0  0  0  0
 35 78  2  0  0  0  0
 36 62  1  0  0  0  0
 36 68  1  0  0  0  0
 36 79  2  0  0  0  0
 37 63  1  0  0  0  0
 37 74  1  0  0  0  0
 37 80  2  0  0  0  0
 38 69  1  0  0  0  0
 38 75  1  0  0  0  0
 38 81  2  0  0  0  0
 39 42  1  0  0  0  0
 40 49  1  0  0  0  0
 41 68  1  0  0  0  0
 42 44  1  0  0  0  0
 43 45  1  0  0  0  0
 43 46  1  0  0  0  0
 44 48  1  0  0  0  0
 45 50  1  0  0  0  0
 46 69  1  0  0  0  0
 47 50  1  0  0  0  0
 47 69  1  0  0  0  0
 48 73  1  0  0  0  0
 49 68  1  0  0  0  0
 50 67  1  0  0  0  0
 53 63  1  0  0  0  0
 54 64  1  0  0  0  0
 55 65  1  0  0  0  0
 56 65  1  0  0  0  0
 57 65  1  0  0  0  0
 58 76  1  0  0  0  0
 59 75  1  0  0  0  0
 60 61  1  0  0  0  0
 60 64  1  0  0  0  0
 61 83  1  0  0  0  0
 62 65  1  0  0  0  0
 62 74  1  0  0  0  0
 63 76  1  0  0  0  0
 64 72  1  0  0  0  0
 66 67  1  0  0  0  0
M  CHG  1  76   1
M  ISO  4  38 100  61 101  75 100  83 101
M  END
> <Batch ID>
0018

> <Smiles>
CNC(C)C(=O)NC(C(=O)N1Cc2cc([101O:1][101CH2:1]CC(C)Nc3cc(C[100NH:0][100C:0](=O)N4CCCC(n5nc(-c6ccc(Oc7ccc(F)cc7F)cc6)c(C(N)=O)c5N)C4)c(C)c(Cl)c3C)ccc2CC1C(=O)NC1CCCc2ccccc21)C(C)(C)C

> <Shape>
0.173

> <Color>
0.196

> <Negative vol penalty>
0.000

$$$$

  -OEChem-04052316043D

 85 93  0     1  0  0  0  0  0999 V2000
  -22.1924  -29.6390   23.6509 C   0  0  0  0  0  0  0  0  0  0  0  0
  -22.4303  -28.2936   23.3886 C   0  0  0  0  0  0  0  0  0  0  0  0
  -29.1498  -17.7042   24.4680 C   0  0  0  0  0  0  0  0  0  0  0  0
  -31.5129  -17.6171   23.9731 C   0  0  0  0  0  0  0  0  0  0  0  0
  -22.8931  -30.6193   22.9496 C   0  0  0  0  0  0  0  0  0  0  0  0
  -23.3683  -27.9277   22.4239 C   0  0  0  0  0  0  0  0  0  0  0  0
  -26.3956  -24.1787   23.9812 C   0  0  0  0  0  0  0  0  0  0  0  0
  -29.4392  -18.0349   25.7917 C   0  0  0  0  0  0  0  0  0  0  0  0
  -31.8024  -17.9479   25.2969 C   0  0  0  0  0  0  0  0  0  0  0  0
  -25.8739  -22.8860   23.9538 C   0  0  0  0  0  0  0  0  0  0  0  0
  -29.5504  -19.2560   29.2140 C   0  0  0  0  0  0  0  0  0  0  0  0
  -28.8173  -20.2879   29.7998 C   0  0  0  0  0  0  0  0  0  0  0  0
  -27.0370  -22.4671   21.8824 C   0  0  0  0  0  0  0  0  0  0  0  0
  -23.7403  -13.3370   21.3787 C   0  0  0  0  0  0  0  0  0  0  0  0
  -29.6261  -21.8190   28.1149 C   0  0  0  0  0  0  0  0  0  0  0  0
  -30.1867  -17.4952   23.5586 C   0  0  0  0  0  0  0  0  0  0  0  0
  -26.0331  -12.2571   20.2127 C   0  0  0  0  0  0  0  0  0  0  0  0
  -29.6960  -18.0403   21.1153 C   0  0  0  0  0  0  0  0  0  0  0  0
  -23.8472  -30.2651   21.9826 C   0  0  0  0  0  0  0  0  0  0  0  0
  -27.2345  -24.6296   22.9520 C   0  0  0  0  0  0  0  0  0  0  0  0
  -24.0815  -28.9042   21.7080 C   0  0  0  0  0  0  0  0  0  0  0  0
  -27.5701  -23.7650   21.9004 C   0  0  0  0  0  0  0  0  0  0  0  0
  -24.1133  -13.7187   20.0900 C   0  0  0  0  0  0  0  0  0  0  0  0
  -25.6601  -11.8754   21.5014 C   0  0  0  0  0  0  0  0  0  0  0  0
  -30.7655  -18.1568   26.2062 C   0  0  0  0  0  0  0  0  0  0  0  0
  -26.1923  -22.0310   22.9028 C   0  0  0  0  0  0  0  0  0  0  0  0
  -30.3215  -19.5055   28.0787 C   0  0  0  0  0  0  0  0  0  0  0  0
  -28.8551  -21.5694   29.2502 C   0  0  0  0  0  0  0  0  0  0  0  0
  -24.5137  -12.4153   22.0844 C   0  0  0  0  0  0  0  0  0  0  0  0
  -30.3593  -20.7870   27.5291 C   0  0  0  0  0  0  0  0  0  0  0  0
  -25.2597  -13.1787   19.5070 C   0  0  0  0  0  0  0  0  0  0  0  0
  -29.8884  -17.1530   22.1911 C   0  0  0  0  0  0  0  0  0  0  0  0
  -29.4415  -17.2254   20.0394 C   0  0  0  0  0  0  0  0  0  0  0  0
  -27.2447  -11.6756   19.6203 C   0  0  0  0  0  0  0  0  0  0  0  0
  -29.7432  -19.4731   21.0907 C   0  0  0  0  0  0  0  0  0  0  0  0
  -27.0782  -26.9497   20.7849 C   0  0  0  0  0  0  0  0  0  0  0  0
  -30.1109  -26.0060   20.1254 C   0  0  0  0  0  0  0  0  0  0  0  0
  -32.4610  -23.5333   20.2203 C   0  0  0  0  0  0  0  0  0  0  0  0
  -24.5456  -31.3607   21.2166 C   0  0  0  0  0  0  0  0  0  0  0  0
  -27.8105  -26.0179   23.0101 C   0  0  0  0  0  0  0  0  0  0  0  0
  -28.4826  -24.1939   20.7816 C   0  0  0  0  0  0  0  0  0  0  0  0
  -25.7929  -30.8859   20.4756 C   0  0  0  0  0  0  0  0  0  0  0  0
  -30.3665  -12.8459   18.3451 C   0  0  0  0  0  0  0  0  0  0  0  0
  -25.5056  -29.5914   19.7217 C   0  0  0  0  0  0  0  0  0  0  0  0
  -30.5914  -14.1575   19.0995 C   0  0  0  0  0  0  0  0  0  0  0  0
  -29.6810  -11.8015   19.2226 C   0  0  0  0  0  0  0  0  0  0  0  0
  -28.6411  -13.5697   20.5999 C   0  0  0  0  0  0  0  0  0  0  0  0
  -25.1090  -28.4674   20.6865 C   0  0  1  0  0  0  0  0  0  0  0  0
  -28.2418  -26.5434   21.6443 C   0  0  1  0  0  0  0  0  0  0  0  0
  -29.2841  -14.6665   19.7353 C   0  0  1  0  0  0  0  0  0  0  0  0
  -26.4691  -10.8903   22.2821 C   0  0  0  0  0  0  0  0  0  0  0  0
  -34.8361  -23.0470   19.5723 C   0  0  0  0  0  0  0  0  0  0  0  0
  -29.2544  -25.7189   17.2109 C   0  0  0  0  0  0  0  0  0  0  0  0
  -31.3190  -24.3603   16.8107 C   0  0  0  0  0  0  0  0  0  0  0  0
  -31.5144  -26.7383   17.5385 C   0  0  0  0  0  0  0  0  0  0  0  0
  -33.2476  -23.0349   23.0296 C   0  0  0  0  0  0  0  0  0  0  0  0
  -23.2506  -14.7132   19.3704 C   0  0  0  0  0  0  0  0  0  0  0  0
  -24.6453  -18.0991   20.4338 C   0  0  0  0  0  0  0  0  0  0  0  0
  -24.9179  -18.7785   21.7737 C   0  0  0  0  0  0  0  0  0  0  0  0
  -24.0583  -16.7100   20.6349 C   0  0  0  0  0  0  0  0  0  0  0  0
  -25.4657  -20.1866   21.5890 C   0  0  0  0  0  0  0  0  0  1  0  0
  -30.7376  -24.9946   19.1963 C   0  0  1  0  0  0  0  0  0  0  0  0
  -33.9096  -23.5373   20.6742 C   0  0  2  0  0  0  0  0  0  0  0  0
  -30.6876  -25.4453   17.7090 C   0  0  0  0  0  0  0  0  0  0  0  0
  -29.7663  -15.8725   21.8315 N   0  0  0  0  0  0  0  0  0  0  0  0
  -29.4945  -15.9492   20.5176 N   0  0  0  0  0  0  0  0  0  0  0  0
  -28.4568  -12.3433   19.8112 N   0  0  0  0  0  0  0  0  0  0  0  0
  -29.0154  -25.5629   20.8800 N   0  0  0  0  0  0  0  0  0  0  0  0
  -29.1797  -17.4832   18.7404 N   0  0  0  0  0  0  0  0  0  0  0  0
  -30.0176  -20.1532   22.2851 N   0  0  0  0  0  0  0  0  0  0  0  0
  -26.2804  -27.9294   21.3444 N   0  0  0  0  0  0  0  0  0  0  0  0
  -32.0845  -24.7546   19.7029 N   0  0  0  0  0  0  0  0  0  0  0  0
  -34.0829  -22.6537   21.8617 N   0  3  0  0  0  0  0  0  0  0  0  0
  -23.8531  -16.0732   19.3117 N   0  3  0  0  0  0  0  0  0  0  0  0
  -27.0921  -10.6353   18.9819 O   0  0  0  0  0  0  0  0  0  0  0  0
  -29.5316  -20.1314   20.0441 O   0  0  0  0  0  0  0  0  0  0  0  0
  -26.9170  -26.4150   19.6941 O   0  0  0  0  0  0  0  0  0  0  0  0
  -30.5805  -27.1451   20.1848 O   0  0  0  0  0  0  0  0  0  0  0  0
  -31.7370  -22.5444   20.3120 O   0  0  0  0  0  0  0  0  0  0  0  0
  -31.0482  -18.4798   27.4978 O   0  0  0  0  0  0  0  0  0  0  0  0
  -25.6840  -20.7690   22.8733 O   0  0  0  0  0  0  0  0  0  1  0  0
  -28.1498  -22.5599   29.8119 F   0  0  0  0  0  0  0  0  0  0  0  0
  -24.1459  -12.0548   23.3219 F   0  0  0  0  0  0  0  0  0  0  0  0
  -31.0973  -21.0325   26.4378 F   0  0  0  0  0  0  0  0  0  0  0  0
  -25.7164  -13.6601   17.9052 Cl  0  0  0  0  0  0  0  0  0  0  0  0
  1  2  1  0  0  0  0
  1  5  2  0  0  0  0
  2  6  2  0  0  0  0
  3  8  2  0  0  0  0
  3 16  1  0  0  0  0
  4  9  1  0  0  0  0
  4 16  2  0  0  0  0
  5 19  1  0  0  0  0
  6 21  1  0  0  0  0
  7 10  2  0  0  0  0
  7 20  1  0  0  0  0
  8 25  1  0  0  0  0
  9 25  2  0  0  0  0
 10 26  1  0  0  0  0
 11 12  2  0  0  0  0
 11 27  1  0  0  0  0
 12 28  1  0  0  0  0
 13 22  1  0  0  0  0
 13 26  2  0  0  0  0
 14 23  1  0  0  0  0
 14 29  2  0  0  0  0
 15 28  2  0  0  0  0
 15 30  1  0  0  0  0
 16 32  1  0  0  0  0
 17 24  2  0  0  0  0
 17 31  1  0  0  0  0
 17 34  1  0  0  0  0
 18 32  1  0  0  0  0
 18 33  2  0  0  0  0
 18 35  1  0  0  0  0
 19 21  2  0  0  0  0
 19 39  1  0  0  0  0
 20 22  2  0  0  0  0
 20 40  1  0  0  0  0
 21 48  1  0  0  0  0
 22 41  1  0  0  0  0
 23 31  2  0  0  0  0
 23 57  1  0  0  0  0
 24 29  1  0  0  0  0
 24 51  1  0  0  0  0
 25 80  1  0  0  0  0
 26 81  1  0  0  0  0
 27 30  2  0  0  0  0
 27 80  1  0  0  0  0
 28 82  1  0  0  0  0
 29 83  1  0  0  0  0
 30 84  1  0  0  0  0
 31 85  1  0  0  0  0
 32 65  2  0  0  0  0
 33 66  1  0  0  0  0
 33 69  1  0  0  0  0
 34 67  1  0  0  0  0
 34 75  2  0  0  0  0
 35 70  1  0  0  0  0
 35 76  2  0  0  0  0
 36 49  1  0  0  0  0
 36 71  1  0  0  0  0
 36 77  2  0  0  0  0
 37 62  1  0  0  0  0
 37 68  1  0  0  0  0
 37 78  2  0  0  0  0
 38 63  1  0  0  0  0
 38 72  1  0  0  0  0
 38 79  2  0  0  0  0
 39 42  1  0  0  0  0
 40 49  1  0  0  0  0
 41 68  1  0  0  0  0
 42 44  1  0  0  0  0
 43 45  1  0  0  0  0
 43 46  1  0  0  0  0
 44 48  1  0  0  0  0
 45 50  1  0  0  0  0
 46 67  1  0  0  0  0
 47 50  1  0  0  0  0
 47 67  1  0  0  0  0
 48 71  1  0  0  0  0
 49 68  1  0  0  0  0
 50 66  1  0  0  0  0
 52 63  1  0  0  0  0
 53 64  1  0  0  0  0
 54 64  1  0  0  0  0
 55 64  1  0  0  0  0
 56 73  1  0  0  0  0
 57 74  1  0  0  0  0
 58 59  1  0  0  0  0
 58 60  1  0  0  0  0
 59 61  1  0  0  0  0
 60 74  1  0  0  0  0
 61 81  1  0  0  0  0
 62 64  1  0  0  0  0
 62 72  1  0  0  0  0
 63 73  1  0  0  0  0
 65 66  1  0  0  0  0
M  CHG  2  73   1  74   1
M  ISO  4  17 100  34 100  61 101  81 101
M  END
> <Batch ID>
0018

> <Smiles>
CNC(C)C(=O)NC(C(=O)N1Cc2cc([101O:1][101CH2:1]CCCNCc3cc(F)c(C)[100c:0]([100C:0](=O)N4CCCC(n5nc(-c6ccc(Oc7ccc(F)cc7F)cc6)c(C(N)=O)c5N)C4)c3Cl)ccc2CC1C(=O)NC1CCCc2ccccc21)C(C)(C)C

> <Shape>
0.231

> <Color>
0.068

> <Negative vol penalty>
0.000

$$$$

  -OEChem-04052316043D

 92100  0     1  0  0  0  0  0999 V2000
  -27.0570  -31.2928   18.8514 C   0  0  0  0  0  0  0  0  0  0  0  0
  -27.0029  -29.9080   18.7292 C   0  0  0  0  0  0  0  0  0  0  0  0
  -23.2821   -9.7940   19.9232 C   0  0  0  0  0  0  0  0  0  0  0  0
  -23.7268   -9.9508   22.2928 C   0  0  0  0  0  0  0  0  0  0  0  0
  -27.9769  -31.8794   19.7195 C   0  0  0  0  0  0  0  0  0  0  0  0
  -27.8696  -29.1091   19.4741 C   0  0  0  0  0  0  0  0  0  0  0  0
  -26.6701  -23.5896   21.8411 C   0  0  0  0  0  0  0  0  0  0  0  0
  -22.5484   -8.6274   20.1380 C   0  0  0  0  0  0  0  0  0  0  0  0
  -22.9930   -8.7841   22.5076 C   0  0  0  0  0  0  0  0  0  0  0  0
  -26.9608  -22.2981   21.4037 C   0  0  0  0  0  0  0  0  0  0  0  0
  -19.7402   -7.8934   22.7225 C   0  0  0  0  0  0  0  0  0  0  0  0
  -18.8346   -7.8853   23.7833 C   0  0  0  0  0  0  0  0  0  0  0  0
  -28.9238  -22.2717   22.8056 C   0  0  0  0  0  0  0  0  0  0  0  0
  -31.6849  -16.4775   22.1421 C   0  0  0  0  0  0  0  0  0  0  0  0
  -33.0685  -17.9208   24.0876 C   0  0  0  0  0  0  0  0  0  0  0  0
  -20.0268   -6.0391   24.7869 C   0  0  0  0  0  0  0  0  0  0  0  0
  -23.8714  -10.4557   21.0006 C   0  0  0  0  0  0  0  0  0  0  0  0
  -24.1459  -12.9826   20.7828 C   0  0  0  0  0  0  0  0  0  0  0  0
  -28.8487  -31.0868   20.4826 C   0  0  0  0  0  0  0  0  0  0  0  0
  -27.5115  -24.2371   22.7573 C   0  0  0  0  0  0  0  0  0  0  0  0
  -28.8030  -29.6857   20.3522 C   0  0  0  0  0  0  0  0  0  0  0  0
  -28.6402  -23.5704   23.2549 C   0  0  0  0  0  0  0  0  0  0  0  0
  -33.0792  -16.5097   22.1265 C   0  0  0  0  0  0  0  0  0  0  0  0
  -30.9823  -17.1669   23.1304 C   0  0  0  0  0  0  0  0  0  0  0  0
  -33.7711  -17.2314   23.0993 C   0  0  0  0  0  0  0  0  0  0  0  0
  -31.6741  -17.8886   24.1031 C   0  0  0  0  0  0  0  0  0  0  0  0
  -22.4038   -8.1224   21.4302 C   0  0  0  0  0  0  0  0  0  0  0  0
  -28.0894  -21.6400   21.8837 C   0  0  0  0  0  0  0  0  0  0  0  0
  -20.7891   -6.9743   22.6938 C   0  0  0  0  0  0  0  0  0  0  0  0
  -18.9779   -6.9582   24.8156 C   0  0  0  0  0  0  0  0  0  0  0  0
  -20.9324   -6.0472   23.7260 C   0  0  0  0  0  0  0  0  0  0  0  0
  -24.6299  -11.6606   20.7792 C   0  0  0  0  0  0  0  0  0  0  0  0
  -25.2526  -13.7541   20.5249 C   0  0  0  0  0  0  0  0  0  0  0  0
  -22.8150  -13.4696   20.9998 C   0  0  0  0  0  0  0  0  0  0  0  0
  -29.2897  -26.8710   22.6961 C   0  0  0  0  0  0  0  0  0  0  0  0
  -29.7344  -26.1752   25.8330 C   0  0  0  0  0  0  0  0  0  0  0  0
  -29.7587  -23.8204   28.3031 C   0  0  0  0  0  0  0  0  0  0  0  0
  -31.0037  -12.8277   21.4850 C   0  0  0  0  0  0  0  0  0  0  0  0
  -29.8583  -31.7682   21.3722 C   0  0  0  0  0  0  0  0  0  0  0  0
  -27.1694  -25.6201   23.2395 C   0  0  0  0  0  0  0  0  0  0  0  0
  -29.5644  -24.2139   24.2551 C   0  0  0  0  0  0  0  0  0  0  0  0
  -30.4865  -30.8365   22.4054 C   0  0  0  0  0  0  0  0  0  0  0  0
  -29.4842  -13.6051   18.2937 C   0  0  0  0  0  0  0  0  0  0  0  0
  -30.9149  -29.5263   21.7523 C   0  0  0  0  0  0  0  0  0  0  0  0
  -28.0097  -13.3156   18.5803 C   0  0  0  0  0  0  0  0  0  0  0  0
  -30.3919  -12.6034   19.0014 C   0  0  0  0  0  0  0  0  0  0  0  0
  -28.7101  -12.2271   20.7631 C   0  0  0  0  0  0  0  0  0  0  0  0
  -29.7097  -28.7843   21.1619 C   0  0  1  0  0  0  0  0  0  0  0  0
  -28.3762  -26.3790   23.7828 C   0  0  1  0  0  0  0  0  0  0  0  0
  -27.7416  -13.2191   20.0939 C   0  0  2  0  0  0  0  0  0  0  0  0
  -35.2636  -17.2809   23.1019 C   0  0  0  0  0  0  0  0  0  0  0  0
  -26.5518  -18.0611   23.5445 C   0  0  0  0  0  0  0  0  0  0  0  0
  -30.1961  -23.5461   30.7589 C   0  0  0  0  0  0  0  0  0  0  0  0
  -32.7369  -26.3319   25.3133 C   0  0  0  0  0  0  0  0  0  0  0  0
  -33.1045  -25.1443   27.4865 C   0  0  0  0  0  0  0  0  0  0  0  0
  -31.9938  -27.3777   27.4600 C   0  0  0  0  0  0  0  0  0  0  0  0
  -29.1512  -17.6910   20.6528 C   0  0  0  0  0  0  0  0  0  0  0  0
  -29.8391  -18.6346   27.2412 C   0  0  0  0  0  0  0  0  0  0  0  0
  -31.4982  -16.8388   26.6836 C   0  0  0  0  0  0  0  0  0  0  0  0
  -32.2743  -19.1934   27.0608 C   0  0  0  0  0  0  0  0  0  0  0  0
  -26.9911  -22.9037   28.8118 C   0  0  0  0  0  0  0  0  0  0  0  0
  -33.8099  -15.7642   21.0582 C   0  0  0  0  0  0  0  0  0  0  0  0
  -29.4709  -17.1168   23.1216 C   0  0  0  0  0  0  0  0  0  0  0  0
  -27.1963  -17.7824   22.1916 C   0  0  0  0  0  0  0  0  0  0  0  0
  -34.3834  -14.4071   21.5086 C   0  0  0  0  0  0  0  0  0  0  0  0
  -33.3413  -13.4339   22.0554 C   0  0  0  0  0  0  0  0  0  0  0  0
  -29.0663  -19.5271   22.3705 C   0  0  0  0  0  0  0  0  0  1  0  0
  -30.7323  -25.3560   26.6154 C   0  0  1  0  0  0  0  0  0  0  0  0
  -29.1455  -23.8109   29.6918 C   0  0  2  0  0  0  0  0  0  0  0  0
  -32.1257  -26.0408   26.6985 C   0  0  0  0  0  0  0  0  0  0  0  0
  -28.7345  -18.0398   22.1012 C   0  0  2  0  0  0  0  0  0  0  0  0
  -31.1452  -18.3189   26.5033 C   0  0  0  0  0  0  0  0  0  0  0  0
  -25.9418  -11.5925   20.5381 N   0  0  0  0  0  0  0  0  0  0  0  0
  -26.2916  -12.8813   20.3876 N   0  0  0  0  0  0  0  0  0  0  0  0
  -29.1907  -25.5695   24.6913 N   0  0  0  0  0  0  0  0  0  0  0  0
  -30.0985  -12.5737   20.4412 N   0  0  0  0  0  0  0  0  0  0  0  0
  -25.4285  -15.0871   20.4045 N   0  0  0  0  0  0  0  0  0  0  0  0
  -21.7963  -12.5405   21.2517 N   0  0  0  0  0  0  0  0  0  0  0  0
  -30.9791  -18.5932   25.1106 N   0  0  0  0  0  0  0  0  0  0  0  0
  -28.9616  -28.1218   22.2087 N   0  0  0  0  0  0  0  0  0  0  0  0
  -30.1175  -25.0931   27.9120 N   0  0  0  0  0  0  0  0  0  0  0  0
  -32.3000  -13.1419   21.0955 N   0  0  0  0  0  0  0  0  0  0  0  0
  -28.0999  -22.7534   29.7890 N   0  3  0  0  0  0  0  0  0  0  0  0
  -22.5342  -14.6913   20.9551 O   0  0  0  0  0  0  0  0  0  0  0  0
  -30.2240  -26.1686   22.3280 O   0  0  0  0  0  0  0  0  0  0  0  0
  -29.4424  -27.3079   26.2245 O   0  0  0  0  0  0  0  0  0  0  0  0
  -29.9083  -22.8005   27.6340 O   0  0  0  0  0  0  0  0  0  0  0  0
  -30.6794  -12.7831   22.6766 O   0  0  0  0  0  0  0  0  0  0  0  0
  -21.6877   -6.9842   21.6403 O   0  0  0  0  0  0  0  0  0  0  0  0
  -28.3758  -20.3797   21.4580 O   0  0  0  0  0  0  0  0  0  1  0  0
  -18.1091   -6.9515   25.8350 F   0  0  0  0  0  0  0  0  0  0  0  0
  -21.9387   -5.1625   23.7046 F   0  0  0  0  0  0  0  0  0  0  0  0
  1  2  1  0  0  0  0
  1  5  2  0  0  0  0
  2  6  2  0  0  0  0
  3  8  2  0  0  0  0
  3 17  1  0  0  0  0
  4  9  1  0  0  0  0
  4 17  2  0  0  0  0
  5 19  1  0  0  0  0
  6 21  1  0  0  0  0
  7 10  2  0  0  0  0
  7 20  1  0  0  0  0
  8 27  1  0  0  0  0
  9 27  2  0  0  0  0
 10 28  1  0  0  0  0
 11 12  2  0  0  0  0
 11 29  1  0  0  0  0
 12 30  1  0  0  0  0
 13 22  1  0  0  0  0
 13 28  2  0  0  0  0
 14 23  2  0  0  0  0
 14 24  1  0  0  0  0
 15 25  2  0  0  0  0
 15 26  1  0  0  0  0
 16 30  2  0  0  0  0
 16 31  1  0  0  0  0
 17 32  1  0  0  0  0
 18 32  1  0  0  0  0
 18 33  2  0  0  0  0
 18 34  1  0  0  0  0
 19 21  2  0  0  0  0
 19 39  1  0  0  0  0
 20 22  2  0  0  0  0
 20 40  1  0  0  0  0
 21 48  1  0  0  0  0
 22 41  1  0  0  0  0
 23 25  1  0  0  0  0
 23 62  1  0  0  0  0
 24 26  2  0  0  0  0
 24 63  1  0  0  0  0
 25 51  1  0  0  0  0
 26 79  1  0  0  0  0
 27 89  1  0  0  0  0
 28 90  1  0  0  0  0
 29 31  2  0  0  0  0
 29 89  1  0  0  0  0
 30 91  1  0  0  0  0
 31 92  1  0  0  0  0
 32 73  2  0  0  0  0
 33 74  1  0  0  0  0
 33 77  1  0  0  0  0
 34 78  1  0  0  0  0
 34 84  2  0  0  0  0
 35 49  1  0  0  0  0
 35 80  1  0  0  0  0
 35 85  2  0  0  0  0
 36 68  1  0  0  0  0
 36 75  1  0  0  0  0
 36 86  2  0  0  0  0
 37 69  1  0  0  0  0
 37 81  1  0  0  0  0
 37 87  2  0  0  0  0
 38 76  1  0  0  0  0
 38 82  1  0  0  0  0
 38 88  2  0  0  0  0
 39 42  1  0  0  0  0
 40 49  1  0  0  0  0
 41 75  1  0  0  0  0
 42 44  1  0  0  0  0
 43 45  1  0  0  0  0
 43 46  1  0  0  0  0
 44 48  1  0  0  0  0
 45 50  1  0  0  0  0
 46 76  1  0  0  0  0
 47 50  1  0  0  0  0
 47 76  1  0  0  0  0
 48 80  1  0  0  0  0
 49 75  1  0  0  0  0
 50 74  1  0  0  0  0
 52 64  1  0  0  0  0
 53 69  1  0  0  0  0
 54 70  1  0  0  0  0
 55 70  1  0  0  0  0
 56 70  1  0  0  0  0
 57 71  1  0  0  0  0
 58 72  1  0  0  0  0
 59 72  1  0  0  0  0
 60 72  1  0  0  0  0
 61 83  1  0  0  0  0
 62 65  1  0  0  0  0
 63 71  1  0  0  0  0
 64 71  1  0  0  0  0
 65 66  1  0  0  0  0
 66 82  1  0  0  0  0
 67 71  1  0  0  0  0
 67 90  1  0  0  0  0
 68 70  1  0  0  0  0
 68 81  1  0  0  0  0
 69 83  1  0  0  0  0
 72 79  1  0  0  0  0
 73 74  1  0  0  0  0
M  CHG  1  83   1
M  ISO  4  38 100  67 101  82 100  90 101
M  END
> <Batch ID>
0018

> <Smiles>
CCC(C)(Cc1cc(CCC[100NH:0][100C:0](=O)N2CCCC(n3nc(-c4ccc(Oc5ccc(F)cc5F)cc4)c(C(N)=O)c3N)C2)c(C)cc1NC(C)(C)C)[101CH2:1][101O:1]c1ccc2c(c1)CN(C(=O)C(NC(=O)C(C)NC)C(C)(C)C)C(C(=O)NC1CCCc3ccccc31)C2

> <Shape>
0.190

> <Color>
0.167

> <Negative vol penalty>
0.000

$$$$

  -OEChem-04052316043D

 89 97  0     1  0  0  0  0  0999 V2000
  -17.0760  -25.7914   24.9521 C   0  0  0  0  0  0  0  0  0  0  0  0
  -17.6460  -24.6454   24.4069 C   0  0  0  0  0  0  0  0  0  0  0  0
  -25.5823  -16.1604   21.7484 C   0  0  0  0  0  0  0  0  0  0  0  0
  -24.8677  -16.9348   19.5742 C   0  0  0  0  0  0  0  0  0  0  0  0
  -17.4151  -27.0456   24.4461 C   0  0  0  0  0  0  0  0  0  0  0  0
  -18.5546  -24.7529   23.3547 C   0  0  0  0  0  0  0  0  0  0  0  0
  -24.3973  -21.5878   20.6784 C   0  0  0  0  0  0  0  0  0  0  0  0
  -24.3449  -15.5446   21.9358 C   0  0  0  0  0  0  0  0  0  0  0  0
  -23.6303  -16.3189   19.7616 C   0  0  0  0  0  0  0  0  0  0  0  0
  -24.8849  -21.0609   19.4833 C   0  0  0  0  0  0  0  0  0  0  0  0
  -21.5035  -13.4632   22.8354 C   0  0  0  0  0  0  0  0  0  0  0  0
  -21.4957  -12.1658   23.3475 C   0  0  0  0  0  0  0  0  0  0  0  0
  -25.4559  -23.2846   18.7429 C   0  0  0  0  0  0  0  0  0  0  0  0
  -22.7889  -11.4099   21.4518 C   0  0  0  0  0  0  0  0  0  0  0  0
  -30.3156  -21.2386   12.0973 C   0  0  0  0  0  0  0  0  0  0  0  0
  -25.8437  -16.8556   20.5676 C   0  0  0  0  0  0  0  0  0  0  0  0
  -28.2734  -16.9279   19.7938 C   0  0  0  0  0  0  0  0  0  0  0  0
  -18.3356  -27.1691   23.3935 C   0  0  0  0  0  0  0  0  0  0  0  0
  -24.4253  -22.9705   20.9106 C   0  0  0  0  0  0  0  0  0  0  0  0
  -18.9053  -26.0098   22.8333 C   0  0  0  0  0  0  0  0  0  0  0  0
  -24.9703  -23.8263   19.9428 C   0  0  0  0  0  0  0  0  0  0  0  0
  -28.5635  -22.6071   13.7827 C   0  0  0  0  0  0  0  0  0  0  0  0
  -29.8308  -23.1286   13.5220 C   0  0  0  0  0  0  0  0  0  0  0  0
  -28.1724  -21.4013   13.2006 C   0  0  0  0  0  0  0  0  0  0  0  0
  -23.3689  -15.6238   20.9424 C   0  0  0  0  0  0  0  0  0  0  0  0
  -25.4117  -21.9096   18.5141 C   0  0  0  0  0  0  0  0  0  0  0  0
  -22.1539  -13.7340   21.6315 C   0  0  0  0  0  0  0  0  0  0  0  0
  -22.1384  -11.1392   22.6557 C   0  0  0  0  0  0  0  0  0  0  0  0
  -22.7966  -12.7074   20.9398 C   0  0  0  0  0  0  0  0  0  0  0  0
  -30.7067  -22.4444   12.6793 C   0  0  0  0  0  0  0  0  0  0  0  0
  -29.0483  -20.7171   12.3579 C   0  0  0  0  0  0  0  0  0  0  0  0
  -27.1216  -17.4924   20.3737 C   0  0  0  0  0  0  0  0  0  0  0  0
  -29.2096  -17.9317   19.8426 C   0  0  0  0  0  0  0  0  0  0  0  0
  -28.4788  -15.6136   19.2587 C   0  0  0  0  0  0  0  0  0  0  0  0
  -22.2222  -25.2049   21.4178 C   0  0  0  0  0  0  0  0  0  0  0  0
  -24.8120  -27.0894   21.9317 C   0  0  0  0  0  0  0  0  0  0  0  0
  -28.1319  -27.6623   21.3873 C   0  0  0  0  0  0  0  0  0  0  0  0
  -30.6525  -23.2786   19.1542 C   0  0  0  0  0  0  0  0  0  0  0  0
  -18.6351  -28.5431   22.8486 C   0  0  0  0  0  0  0  0  0  0  0  0
  -23.9198  -23.5206   22.2160 C   0  0  0  0  0  0  0  0  0  0  0  0
  -25.0419  -25.3162   20.1518 C   0  0  0  0  0  0  0  0  0  0  0  0
  -19.8904  -28.5941   21.9813 C   0  0  0  0  0  0  0  0  0  0  0  0
  -29.1456  -22.3788   22.2520 C   0  0  0  0  0  0  0  0  0  0  0  0
  -19.8980  -27.4393   20.9847 C   0  0  0  0  0  0  0  0  0  0  0  0
  -28.5746  -20.9842   21.9896 C   0  0  0  0  0  0  0  0  0  0  0  0
  -29.0267  -23.2777   21.0232 C   0  0  0  0  0  0  0  0  0  0  0  0
  -29.0313  -21.3212   19.5245 C   0  0  0  0  0  0  0  0  0  0  0  0
  -19.9137  -26.0870   21.7075 C   0  0  1  0  0  0  0  0  0  0  0  0
  -23.5269  -24.9923   22.1322 C   0  0  1  0  0  0  0  0  0  0  0  0
  -29.1794  -20.3610   20.7171 C   0  0  2  0  0  0  0  0  0  0  0  0
  -27.6239  -23.3409   14.6869 C   0  0  0  0  0  0  0  0  0  0  0  0
  -30.3716  -28.7709   21.6158 C   0  0  0  0  0  0  0  0  0  0  0  0
  -23.6644  -29.0161   19.8627 C   0  0  0  0  0  0  0  0  0  0  0  0
  -25.9167  -30.1009   19.7261 C   0  0  0  0  0  0  0  0  0  0  0  0
  -24.6547  -30.1177   21.8777 C   0  0  0  0  0  0  0  0  0  0  0  0
  -28.8629  -25.9700   23.7026 C   0  0  0  0  0  0  0  0  0  0  0  0
  -27.3793  -18.9095   14.9384 C   0  0  0  0  0  0  0  0  0  0  0  0
  -30.2378  -24.4240   14.1535 C   0  0  0  0  0  0  0  0  0  0  0  0
  -26.8065  -20.8520   13.4896 C   0  0  0  0  0  0  0  0  0  0  0  0
  -30.6224  -24.2494   15.6286 C   0  0  0  0  0  0  0  0  0  0  0  0
  -31.8203  -23.3087   15.7891 C   0  0  0  0  0  0  0  0  0  0  0  0
  -32.2326  -23.1275   17.2464 C   0  0  0  0  0  0  0  0  0  0  0  0
  -25.2880  -20.1970   15.3513 C   0  0  0  0  0  0  0  0  0  0  0  0
  -25.2804  -20.1989   16.8672 C   0  0  0  0  0  0  0  0  0  1  0  0
  -25.6901  -27.9592   21.0650 C   0  0  1  0  0  0  0  0  0  0  0  0
  -29.2608  -28.0226   22.3362 C   0  0  2  0  0  0  0  0  0  0  0  0
  -24.9785  -29.2706   20.6278 C   0  0  0  0  0  0  0  0  0  0  0  0
  -27.3068  -18.7567   20.7625 N   0  0  0  0  0  0  0  0  0  0  0  0
  -28.5860  -18.9949   20.4264 N   0  0  0  0  0  0  0  0  0  0  0  0
  -24.5293  -25.8064   21.4418 N   0  0  0  0  0  0  0  0  0  0  0  0
  -29.6205  -22.6292   19.8516 N   0  0  0  0  0  0  0  0  0  0  0  0
  -30.4972  -17.9997   19.4429 N   0  0  0  0  0  0  0  0  0  0  0  0
  -27.4110  -14.7062   19.2873 N   0  0  0  0  0  0  0  0  0  0  0  0
  -21.2431  -25.7911   22.1971 N   0  0  0  0  0  0  0  0  0  0  0  0
  -26.9235  -28.1701   21.8152 N   0  0  0  0  0  0  0  0  0  0  0  0
  -31.1638  -22.5919   18.0598 N   0  0  0  0  0  0  0  0  0  0  0  0
  -29.8405  -26.7910   22.9428 N   0  3  0  0  0  0  0  0  0  0  0  0
  -26.6909  -20.2501   14.8682 N   0  3  1  0  0  0  0  0  0  0  0  0
  -29.5815  -15.2493   18.7846 O   0  0  0  0  0  0  0  0  0  0  0  0
  -22.1124  -24.8639   20.2460 O   0  0  0  0  0  0  0  0  0  0  0  0
  -24.3982  -27.5294   23.0073 O   0  0  0  0  0  0  0  0  0  0  0  0
  -28.3055  -27.0002   20.3666 O   0  0  0  0  0  0  0  0  0  0  0  0
  -31.0897  -24.3858   19.4857 O   0  0  0  0  0  0  0  0  0  0  0  0
  -22.1614  -15.0228   21.1249 O   0  0  0  0  0  0  0  0  0  0  0  0
  -25.8878  -21.3979   17.3464 O   0  0  0  0  0  0  0  0  0  1  0  0
  -22.1322   -9.8936   23.1483 F   0  0  0  0  0  0  0  0  0  0  0  0
  -23.4242  -12.9616   19.7833 F   0  0  0  0  0  0  0  0  0  0  0  0
  -32.2837  -23.0559   12.3316 Cl  0  0  0  0  0  0  0  0  0  0  0  0
  -28.6024  -19.2224   11.6171 Cl  0  0  0  0  0  0  0  0  0  0  0  0
  1  2  1  0  0  0  0
  1  5  2  0  0  0  0
  2  6  2  0  0  0  0
  3  8  2  0  0  0  0
  3 16  1  0  0  0  0
  4  9  1  0  0  0  0
  4 16  2  0  0  0  0
  5 18  1  0  0  0  0
  6 20  1  0  0  0  0
  7 10  2  0  0  0  0
  7 19  1  0  0  0  0
  8 25  1  0  0  0  0
  9 25  2  0  0  0  0
 10 26  1  0  0  0  0
 11 12  2  0  0  0  0
 11 27  1  0  0  0  0
 12 28  1  0  0  0  0
 13 21  1  0  0  0  0
 13 26  2  0  0  0  0
 14 28  2  0  0  0  0
 14 29  1  0  0  0  0
 15 30  1  0  0  0  0
 15 31  2  0  0  0  0
 16 32  1  0  0  0  0
 17 32  1  0  0  0  0
 17 33  2  0  0  0  0
 17 34  1  0  0  0  0
 18 20  2  0  0  0  0
 18 39  1  0  0  0  0
 19 21  2  0  0  0  0
 19 40  1  0  0  0  0
 20 48  1  0  0  0  0
 21 41  1  0  0  0  0
 22 23  1  0  0  0  0
 22 24  2  0  0  0  0
 22 51  1  0  0  0  0
 23 30  2  0  0  0  0
 23 58  1  0  0  0  0
 24 31  1  0  0  0  0
 24 59  1  0  0  0  0
 25 84  1  0  0  0  0
 26 85  1  0  0  0  0
 27 29  2  0  0  0  0
 27 84  1  0  0  0  0
 28 86  1  0  0  0  0
 29 87  1  0  0  0  0
 30 88  1  0  0  0  0
 31 89  1  0  0  0  0
 32 68  2  0  0  0  0
 33 69  1  0  0  0  0
 33 72  1  0  0  0  0
 34 73  1  0  0  0  0
 34 79  2  0  0  0  0
 35 49  1  0  0  0  0
 35 74  1  0  0  0  0
 35 80  2  0  0  0  0
 36 65  1  0  0  0  0
 36 70  1  0  0  0  0
 36 81  2  0  0  0  0
 37 66  1  0  0  0  0
 37 75  1  0  0  0  0
 37 82  2  0  0  0  0
 38 71  1  0  0  0  0
 38 76  1  0  0  0  0
 38 83  2  0  0  0  0
 39 42  1  0  0  0  0
 40 49  1  0  0  0  0
 41 70  1  0  0  0  0
 42 44  1  0  0  0  0
 43 45  1  0  0  0  0
 43 46  1  0  0  0  0
 44 48  1  0  0  0  0
 45 50  1  0  0  0  0
 46 71  1  0  0  0  0
 47 50  1  0  0  0  0
 47 71  1  0  0  0  0
 48 74  1  0  0  0  0
 49 70  1  0  0  0  0
 50 69  1  0  0  0  0
 52 66  1  0  0  0  0
 53 67  1  0  0  0  0
 54 67  1  0  0  0  0
 55 67  1  0  0  0  0
 56 77  1  0  0  0  0
 57 78  1  0  0  0  0
 58 60  1  0  0  0  0
 59 78  1  0  0  0  0
 60 61  1  0  0  0  0
 61 62  1  0  0  0  0
 62 76  1  0  0  0  0
 63 64  1  0  0  0  0
 63 78  1  0  0  0  0
 64 85  1  0  0  0  0
 65 67  1  0  0  0  0
 65 75  1  0  0  0  0
 66 77  1  0  0  0  0
 68 69  1  0  0  0  0
M  CHG  2  77   1  78   1
M  ISO  4  38 100  64 101  76 100  85 101
M  END
> <Batch ID>
0018

> <Smiles>
CNC(C)C(=O)NC(C(=O)N1Cc2cc([101O:1][101CH2:1]CN(C)Cc3c(Cl)cc(Cl)c(CCCC[100NH:0][100C:0](=O)N4CCCC(n5nc(-c6ccc(Oc7ccc(F)cc7F)cc6)c(C(N)=O)c5N)C4)c3C)ccc2CC1C(=O)NC1CCCc2ccccc21)C(C)(C)C

> <Shape>
0.202

> <Color>
0.064

> <Negative vol penalty>
0.000

$$$$

  -OEChem-04052316043D

 89 97  0     1  0  0  0  0  0999 V2000
  -24.2934  -33.0801   23.4811 C   0  0  0  0  0  0  0  0  0  0  0  0
  -24.7439  -32.0467   22.6659 C   0  0  0  0  0  0  0  0  0  0  0  0
  -23.0774   -9.8667   19.9394 C   0  0  0  0  0  0  0  0  0  0  0  0
  -23.8348   -9.8747   22.2337 C   0  0  0  0  0  0  0  0  0  0  0  0
  -25.0913  -33.5385   24.5286 C   0  0  0  0  0  0  0  0  0  0  0  0
  -25.9931  -31.4718   22.8970 C   0  0  0  0  0  0  0  0  0  0  0  0
  -25.8753  -26.4140   22.6737 C   0  0  0  0  0  0  0  0  0  0  0  0
  -22.3337   -8.7133   20.1890 C   0  0  0  0  0  0  0  0  0  0  0  0
  -23.0910   -8.7213   22.4832 C   0  0  0  0  0  0  0  0  0  0  0  0
  -25.8504  -25.8331   21.4066 C   0  0  0  0  0  0  0  0  0  0  0  0
  -19.8625   -7.9224   23.0824 C   0  0  0  0  0  0  0  0  0  0  0  0
  -19.1043   -7.8826   24.2525 C   0  0  0  0  0  0  0  0  0  0  0  0
  -28.2187  -25.4020   21.5643 C   0  0  0  0  0  0  0  0  0  0  0  0
  -30.8524  -19.1280   22.6531 C   0  0  0  0  0  0  0  0  0  0  0  0
  -20.3457   -5.9459   24.9910 C   0  0  0  0  0  0  0  0  0  0  0  0
  -23.8280  -10.4473   20.9618 C   0  0  0  0  0  0  0  0  0  0  0  0
  -24.1689  -12.9726   20.8413 C   0  0  0  0  0  0  0  0  0  0  0  0
  -26.3468  -32.9624   24.7787 C   0  0  0  0  0  0  0  0  0  0  0  0
  -27.0762  -26.5034   23.3923 C   0  0  0  0  0  0  0  0  0  0  0  0
  -26.8091  -31.9238   23.9480 C   0  0  0  0  0  0  0  0  0  0  0  0
  -28.2556  -25.9823   22.8414 C   0  0  0  0  0  0  0  0  0  0  0  0
  -30.6843  -17.7434   22.6434 C   0  0  0  0  0  0  0  0  0  0  0  0
  -29.9801  -17.8451   20.3345 C   0  0  0  0  0  0  0  0  0  0  0  0
  -30.1482  -19.2298   20.3442 C   0  0  0  0  0  0  0  0  0  0  0  0
  -30.2481  -17.1019   21.4841 C   0  0  0  0  0  0  0  0  0  0  0  0
  -22.3405   -8.1406   21.4608 C   0  0  0  0  0  0  0  0  0  0  0  0
  -27.0228  -25.3295   20.8505 C   0  0  0  0  0  0  0  0  0  0  0  0
  -20.8623   -6.9740   22.8665 C   0  0  0  0  0  0  0  0  0  0  0  0
  -19.3459   -6.8943   25.2068 C   0  0  0  0  0  0  0  0  0  0  0  0
  -21.1039   -5.9857   23.8208 C   0  0  0  0  0  0  0  0  0  0  0  0
  -30.5843  -19.8713   21.5035 C   0  0  0  0  0  0  0  0  0  0  0  0
  -24.5969  -11.6384   20.7045 C   0  0  0  0  0  0  0  0  0  0  0  0
  -25.2612  -13.7224   20.4790 C   0  0  0  0  0  0  0  0  0  0  0  0
  -22.8978  -13.4880   21.2587 C   0  0  0  0  0  0  0  0  0  0  0  0
  -28.8446  -28.8931   24.5174 C   0  0  0  0  0  0  0  0  0  0  0  0
  -30.5495  -26.4825   25.8608 C   0  0  0  0  0  0  0  0  0  0  0  0
  -31.4641  -23.1952   25.7971 C   0  0  0  0  0  0  0  0  0  0  0  0
  -30.7268  -14.7702   20.6594 C   0  0  0  0  0  0  0  0  0  0  0  0
  -27.1938  -33.5233   25.8934 C   0  0  0  0  0  0  0  0  0  0  0  0
  -27.0812  -27.1089   24.7692 C   0  0  0  0  0  0  0  0  0  0  0  0
  -29.5670  -26.0354   23.5804 C   0  0  0  0  0  0  0  0  0  0  0  0
  -28.3446  -32.6081   26.3036 C   0  0  0  0  0  0  0  0  0  0  0  0
  -29.6159  -12.3552   18.2906 C   0  0  0  0  0  0  0  0  0  0  0  0
  -29.0797  -32.0899   25.0716 C   0  0  0  0  0  0  0  0  0  0  0  0
  -28.1759  -12.0631   18.7187 C   0  0  0  0  0  0  0  0  0  0  0  0
  -30.5296  -12.5847   19.4932 C   0  0  0  0  0  0  0  0  0  0  0  0
  -28.6209  -13.3089   20.8722 C   0  0  0  0  0  0  0  0  0  0  0  0
  -28.1477  -31.2580   24.1823 C   0  0  1  0  0  0  0  0  0  0  0  0
  -28.4573  -27.6099   25.1966 C   0  0  1  0  0  0  0  0  0  0  0  0
  -27.6494  -13.1348   19.6933 C   0  0  2  0  0  0  0  0  0  0  0  0
  -29.5118  -17.1591   19.0887 C   0  0  0  0  0  0  0  0  0  0  0  0
  -32.5335  -21.0605   26.5694 C   0  0  0  0  0  0  0  0  0  0  0  0
  -27.6747  -20.7010   16.9139 C   0  0  0  0  0  0  0  0  0  0  0  0
  -31.4482  -17.9210   25.0372 C   0  0  0  0  0  0  0  0  0  0  0  0
  -32.1086  -15.9262   23.6513 C   0  0  0  0  0  0  0  0  0  0  0  0
  -29.7765  -16.1675   24.4786 C   0  0  0  0  0  0  0  0  0  0  0  0
  -33.0337  -27.6794   24.5546 C   0  0  0  0  0  0  0  0  0  0  0  0
  -34.2156  -25.5136   24.9799 C   0  0  0  0  0  0  0  0  0  0  0  0
  -33.3736  -26.8702   26.8965 C   0  0  0  0  0  0  0  0  0  0  0  0
  -29.0844  -22.4426   27.3876 C   0  0  0  0  0  0  0  0  0  0  0  0
  -29.8563  -20.0171   19.1009 C   0  0  0  0  0  0  0  0  0  0  0  0
  -27.3522  -22.7523   18.3521 C   0  0  0  0  0  0  0  0  0  0  0  0
  -27.9528  -23.7307   19.3556 C   0  0  0  0  0  0  0  0  0  1  0  0
  -31.7233  -25.6353   25.4324 C   0  0  1  0  0  0  0  0  0  0  0  0
  -31.5134  -22.1420   26.8893 C   0  0  2  0  0  0  0  0  0  0  0  0
  -28.2899  -21.6038   17.9749 C   0  0  1  0  0  0  0  0  0  0  0  0
  -30.9795  -16.9745   23.8905 C   0  0  0  0  0  0  0  0  0  0  0  0
  -33.0624  -26.4252   25.4508 C   0  0  0  0  0  0  0  0  0  0  0  0
  -25.8622  -11.5430   20.2876 N   0  0  0  0  0  0  0  0  0  0  0  0
  -26.2388  -12.8266   20.1593 N   0  0  0  0  0  0  0  0  0  0  0  0
  -29.5217  -26.6428   24.9208 N   0  0  0  0  0  0  0  0  0  0  0  0
  -29.9693  -13.6156   20.3697 N   0  0  0  0  0  0  0  0  0  0  0  0
  -25.4712  -15.0539   20.4058 N   0  0  0  0  0  0  0  0  0  0  0  0
  -21.8859  -12.5786   21.5951 N   0  0  0  0  0  0  0  0  0  0  0  0
  -30.0781  -15.6952   21.4767 N   0  0  0  0  0  0  0  0  0  0  0  0
  -27.9648  -29.9351   24.7400 N   0  0  0  0  0  0  0  0  0  0  0  0
  -31.7124  -24.4575   26.2932 N   0  0  0  0  0  0  0  0  0  0  0  0
  -30.1791  -21.4975   27.0480 N   0  3  0  0  0  0  0  0  0  0  0  0
  -28.5779  -20.7707   19.1756 N   0  3  0  0  0  0  0  0  0  0  0  0
  -22.6610  -14.7186   21.3153 O   0  0  0  0  0  0  0  0  0  0  0  0
  -29.8667  -28.9350   23.8427 O   0  0  0  0  0  0  0  0  0  0  0  0
  -30.5415  -26.9777   26.9905 O   0  0  0  0  0  0  0  0  0  0  0  0
  -31.2324  -22.9246   24.6208 O   0  0  0  0  0  0  0  0  0  0  0  0
  -31.8563  -14.9392   20.1929 O   0  0  0  0  0  0  0  0  0  0  0  0
  -21.6147   -7.0153   21.7047 O   0  0  0  0  0  0  0  0  0  0  0  0
  -27.0014  -24.7625   19.6136 O   0  0  0  0  0  0  0  0  0  1  0  0
  -18.6187   -6.8571   26.3311 F   0  0  0  0  0  0  0  0  0  0  0  0
  -22.0638   -5.0725   23.6196 F   0  0  0  0  0  0  0  0  0  0  0  0
  -30.8050  -21.5830   21.5570 Cl  0  0  0  0  0  0  0  0  0  0  0  0
  1  2  1  0  0  0  0
  1  5  2  0  0  0  0
  2  6  2  0  0  0  0
  3  8  2  0  0  0  0
  3 16  1  0  0  0  0
  4  9  1  0  0  0  0
  4 16  2  0  0  0  0
  5 18  1  0  0  0  0
  6 20  1  0  0  0  0
  7 10  2  0  0  0  0
  7 19  1  0  0  0  0
  8 26  1  0  0  0  0
  9 26  2  0  0  0  0
 10 27  1  0  0  0  0
 11 12  2  0  0  0  0
 11 28  1  0  0  0  0
 12 29  1  0  0  0  0
 13 21  1  0  0  0  0
 13 27  2  0  0  0  0
 14 22  1  0  0  0  0
 14 31  2  0  0  0  0
 15 29  2  0  0  0  0
 15 30  1  0  0  0  0
 16 32  1  0  0  0  0
 17 32  1  0  0  0  0
 17 33  2  0  0  0  0
 17 34  1  0  0  0  0
 18 20  2  0  0  0  0
 18 39  1  0  0  0  0
 19 21  2  0  0  0  0
 19 40  1  0  0  0  0
 20 48  1  0  0  0  0
 21 41  1  0  0  0  0
 22 25  2  0  0  0  0
 22 67  1  0  0  0  0
 23 24  2  0  0  0  0
 23 25  1  0  0  0  0
 23 51  1  0  0  0  0
 24 31  1  0  0  0  0
 24 61  1  0  0  0  0
 25 75  1  0  0  0  0
 26 85  1  0  0  0  0
 27 86  1  0  0  0  0
 28 30  2  0  0  0  0
 28 85  1  0  0  0  0
 29 87  1  0  0  0  0
 30 88  1  0  0  0  0
 31 89  1  0  0  0  0
 32 69  2  0  0  0  0
 33 70  1  0  0  0  0
 33 73  1  0  0  0  0
 34 74  1  0  0  0  0
 34 80  2  0  0  0  0
 35 49  1  0  0  0  0
 35 76  1  0  0  0  0
 35 81  2  0  0  0  0
 36 64  1  0  0  0  0
 36 71  1  0  0  0  0
 36 82  2  0  0  0  0
 37 65  1  0  0  0  0
 37 77  1  0  0  0  0
 37 83  2  0  0  0  0
 38 72  1  0  0  0  0
 38 75  1  0  0  0  0
 38 84  2  0  0  0  0
 39 42  1  0  0  0  0
 40 49  1  0  0  0  0
 41 71  1  0  0  0  0
 42 44  1  0  0  0  0
 43 45  1  0  0  0  0
 43 46  1  0  0  0  0
 44 48  1  0  0  0  0
 45 50  1  0  0  0  0
 46 72  1  0  0  0  0
 47 50  1  0  0  0  0
 47 72  1  0  0  0  0
 48 76  1  0  0  0  0
 49 71  1  0  0  0  0
 50 70  1  0  0  0  0
 52 65  1  0  0  0  0
 53 66  1  0  0  0  0
 54 67  1  0  0  0  0
 55 67  1  0  0  0  0
 56 67  1  0  0  0  0
 57 68  1  0  0  0  0
 58 68  1  0  0  0  0
 59 68  1  0  0  0  0
 60 78  1  0  0  0  0
 61 79  1  0  0  0  0
 62 63  1  0  0  0  0
 62 66  1  0  0  0  0
 63 86  1  0  0  0  0
 64 68  1  0  0  0  0
 64 77  1  0  0  0  0
 65 78  1  0  0  0  0
 66 79  1  0  0  0  0
 69 70  1  0  0  0  0
M  CHG  2  78   1  79   1
M  ISO  4  38 100  63 101  75 100  86 101
M  END
> <Batch ID>
0018

> <Smiles>
CNC(C)C(=O)NC(C(=O)N1Cc2cc([101O:1][101CH2:1]CC(C)NCc3c(Cl)cc(C(C)(C)C)c([100NH:0][100C:0](=O)N4CCCC(n5nc(-c6ccc(Oc7ccc(F)cc7F)cc6)c(C(N)=O)c5N)C4)c3C)ccc2CC1C(=O)NC1CCCc2ccccc21)C(C)(C)C

> <Shape>
0.285

> <Color>
0.188

> <Negative vol penalty>
0.000

$$$$

  -OEChem-04052316043D

 78 85  0     1  0  0  0  0  0999 V2000
  -29.5913  -12.7602   33.5750 C   0  0  0  0  0  0  0  0  0  0  0  0
  -29.6633  -12.9563   32.1996 C   0  0  0  0  0  0  0  0  0  0  0  0
  -23.2058   -9.8520   19.9527 C   0  0  0  0  0  0  0  0  0  0  0  0
  -23.9169   -9.9317   22.2603 C   0  0  0  0  0  0  0  0  0  0  0  0
  -28.3938  -12.3469   34.1573 C   0  0  0  0  0  0  0  0  0  0  0  0
  -28.5380  -12.7383   31.4055 C   0  0  0  0  0  0  0  0  0  0  0  0
  -27.8220  -16.4162   27.9989 C   0  0  0  0  0  0  0  0  0  0  0  0
  -22.5152   -8.6670   20.2065 C   0  0  0  0  0  0  0  0  0  0  0  0
  -23.2263   -8.7467   22.5141 C   0  0  0  0  0  0  0  0  0  0  0  0
  -28.6229  -16.3920   26.8579 C   0  0  0  0  0  0  0  0  0  0  0  0
  -21.3527   -5.9343   23.8551 C   0  0  0  0  0  0  0  0  0  0  0  0
  -20.5756   -5.8706   25.0116 C   0  0  0  0  0  0  0  0  0  0  0  0
  -26.8115  -15.3954   25.6150 C   0  0  0  0  0  0  0  0  0  0  0  0
  -19.2515   -7.7319   24.2242 C   0  0  0  0  0  0  0  0  0  0  0  0
  -23.9067  -10.4843   20.9797 C   0  0  0  0  0  0  0  0  0  0  0  0
  -24.1249  -13.0213   20.8256 C   0  0  0  0  0  0  0  0  0  0  0  0
  -27.2506  -12.1331   33.3712 C   0  0  0  0  0  0  0  0  0  0  0  0
  -26.5113  -15.9194   27.9591 C   0  0  0  0  0  0  0  0  0  0  0  0
  -27.3244  -12.3206   31.9777 C   0  0  0  0  0  0  0  0  0  0  0  0
  -25.9952  -15.4168   26.7561 C   0  0  0  0  0  0  0  0  0  0  0  0
  -22.5254   -8.1143   21.4871 C   0  0  0  0  0  0  0  0  0  0  0  0
  -28.1187  -15.8789   25.6665 C   0  0  0  0  0  0  0  0  0  0  0  0
  -21.0794   -6.8967   22.8831 C   0  0  0  0  0  0  0  0  0  0  0  0
  -19.5249   -6.7694   25.1961 C   0  0  0  0  0  0  0  0  0  0  0  0
  -20.0288   -7.7955   23.0677 C   0  0  0  0  0  0  0  0  0  0  0  0
  -24.6208  -11.7082   20.7180 C   0  0  0  0  0  0  0  0  0  0  0  0
  -25.1857  -13.8189   20.4721 C   0  0  0  0  0  0  0  0  0  0  0  0
  -22.8220  -13.4792   21.2108 C   0  0  0  0  0  0  0  0  0  0  0  0
  -24.9599  -13.5640   29.4251 C   0  0  0  0  0  0  0  0  0  0  0  0
  -22.3926  -14.8284   27.8978 C   0  0  0  0  0  0  0  0  0  0  0  0
  -30.9681  -13.9607   21.0120 C   0  0  0  0  0  0  0  0  0  0  0  0
  -21.1923  -16.6758   25.2913 C   0  0  0  0  0  0  0  0  0  0  0  0
  -25.9914  -11.6411   34.0399 C   0  0  0  0  0  0  0  0  0  0  0  0
  -25.6513  -15.9772   29.1918 C   0  0  0  0  0  0  0  0  0  0  0  0
  -24.5878  -14.8900   26.6557 C   0  0  0  0  0  0  0  0  0  0  0  0
  -24.7429  -11.7937   33.1749 C   0  0  0  0  0  0  0  0  0  0  0  0
  -29.3550  -13.1566   17.9150 C   0  0  0  0  0  0  0  0  0  0  0  0
  -25.0113  -11.2973   31.7577 C   0  0  0  0  0  0  0  0  0  0  0  0
  -27.9302  -12.7977   18.3350 C   0  0  0  0  0  0  0  0  0  0  0  0
  -30.3736  -12.7141   18.9609 C   0  0  0  0  0  0  0  0  0  0  0  0
  -28.6784  -12.8823   20.7553 C   0  0  0  0  0  0  0  0  0  0  0  0
  -26.1185  -12.1184   31.0860 C   0  0  1  0  0  0  0  0  0  0  0  0
  -24.5037  -14.9723   29.1674 C   0  0  1  0  0  0  0  0  0  0  0  0
  -27.6153  -13.3392   19.7407 C   0  0  2  0  0  0  0  0  0  0  0  0
  -29.0143  -19.2365   21.3408 C   0  0  0  0  0  0  0  0  0  0  0  0
  -19.0470  -17.5043   24.2873 C   0  0  0  0  0  0  0  0  0  0  0  0
  -31.7512  -15.2234   22.9276 C   0  0  0  0  0  0  0  0  0  0  0  0
  -30.2501  -13.2506   23.2657 C   0  0  0  0  0  0  0  0  0  0  0  0
  -21.8411  -12.0422   26.7830 C   0  0  0  0  0  0  0  0  0  0  0  0
  -20.3249  -13.0951   25.0915 C   0  0  0  0  0  0  0  0  0  0  0  0
  -19.8050  -13.2914   27.5234 C   0  0  0  0  0  0  0  0  0  0  0  0
  -21.9828  -19.5053   25.6485 C   0  0  0  0  0  0  0  0  0  0  0  0
  -28.5275  -17.8162   21.5920 C   0  0  0  0  0  0  0  0  0  0  0  0
  -29.6974  -16.8651   21.8633 C   0  0  0  0  0  0  0  0  0  0  0  0
  -28.3173  -15.3137   23.3649 C   0  0  0  0  0  0  0  0  0  1  0  0
  -21.7325  -14.6119   26.5575 C   0  0  1  0  0  0  0  0  0  0  0  0
  -20.1899  -17.8146   25.2413 C   0  0  2  0  0  0  0  0  0  0  0  0
  -29.2906  -15.3956   22.1656 C   0  0  2  0  0  0  0  0  0  0  0  0
  -30.5366  -14.4624   22.3671 C   0  0  0  0  0  0  0  0  0  0  0  0
  -20.9531  -13.2682   26.4909 C   0  0  0  0  0  0  0  0  0  0  0  0
  -25.8972  -11.6694   20.3266 N   0  0  0  0  0  0  0  0  0  0  0  0
  -26.2124  -12.9682   20.1850 N   0  0  0  0  0  0  0  0  0  0  0  0
  -23.7882  -14.9623   27.8898 N   0  0  0  0  0  0  0  0  0  0  0  0
  -30.0269  -13.2302   20.2863 N   0  0  0  0  0  0  0  0  0  0  0  0
  -25.3311  -15.1580   20.3817 N   0  0  0  0  0  0  0  0  0  0  0  0
  -21.8498  -12.5257   21.5426 N   0  0  0  0  0  0  0  0  0  0  0  0
  -25.6009  -13.3932   30.6373 N   0  0  0  0  0  0  0  0  0  0  0  0
  -20.9109  -15.7921   26.3117 N   0  0  0  0  0  0  0  0  0  0  0  0
  -20.8536  -19.0693   24.7872 N   0  3  0  0  0  0  0  0  0  0  0  0
  -22.5237  -14.6972   21.2436 O   0  0  0  0  0  0  0  0  0  0  0  0
  -24.7448  -12.6963   28.5869 O   0  0  0  0  0  0  0  0  0  0  0  0
  -21.6949  -14.8840   28.9135 O   0  0  0  0  0  0  0  0  0  0  0  0
  -32.1070  -14.2139   20.6110 O   0  0  0  0  0  0  0  0  0  0  0  0
  -22.1291  -16.5777   24.5018 O   0  0  0  0  0  0  0  0  0  0  0  0
  -21.8514   -6.9581   21.7352 O   0  0  0  0  0  0  0  0  0  0  0  0
  -28.9036  -15.8533   24.5441 O   0  0  0  0  0  0  0  0  0  1  0  0
  -18.7777   -6.7072   26.3061 F   0  0  0  0  0  0  0  0  0  0  0  0
  -19.7606   -8.7216   22.1370 F   0  0  0  0  0  0  0  0  0  0  0  0
  1  2  1  0  0  0  0
  1  5  2  0  0  0  0
  2  6  2  0  0  0  0
  3  8  2  0  0  0  0
  3 15  1  0  0  0  0
  4  9  1  0  0  0  0
  4 15  2  0  0  0  0
  5 17  1  0  0  0  0
  6 19  1  0  0  0  0
  7 10  2  0  0  0  0
  7 18  1  0  0  0  0
  8 21  1  0  0  0  0
  9 21  2  0  0  0  0
 10 22  1  0  0  0  0
 11 12  2  0  0  0  0
 11 23  1  0  0  0  0
 12 24  1  0  0  0  0
 13 20  1  0  0  0  0
 13 22  2  0  0  0  0
 14 24  2  0  0  0  0
 14 25  1  0  0  0  0
 15 26  1  0  0  0  0
 16 26  1  0  0  0  0
 16 27  2  0  0  0  0
 16 28  1  0  0  0  0
 17 19  2  0  0  0  0
 17 33  1  0  0  0  0
 18 20  2  0  0  0  0
 18 34  1  0  0  0  0
 19 42  1  0  0  0  0
 20 35  1  0  0  0  0
 21 75  1  0  0  0  0
 22 76  1  0  0  0  0
 23 25  2  0  0  0  0
 23 75  1  0  0  0  0
 24 77  1  0  0  0  0
 25 78  1  0  0  0  0
 26 61  2  0  0  0  0
 27 62  1  0  0  0  0
 27 65  1  0  0  0  0
 28 66  1  0  0  0  0
 28 70  2  0  0  0  0
 29 43  1  0  0  0  0
 29 67  1  0  0  0  0
 29 71  2  0  0  0  0
 30 56  1  0  0  0  0
 30 63  1  0  0  0  0
 30 72  2  0  0  0  0
 31 59  1  0  0  0  0
 31 64  1  0  0  0  0
 31 73  2  0  0  0  0
 32 57  1  0  0  0  0
 32 68  1  0  0  0  0
 32 74  2  0  0  0  0
 33 36  1  0  0  0  0
 34 43  1  0  0  0  0
 35 63  1  0  0  0  0
 36 38  1  0  0  0  0
 37 39  1  0  0  0  0
 37 40  1  0  0  0  0
 38 42  1  0  0  0  0
 39 44  1  0  0  0  0
 40 64  1  0  0  0  0
 41 44  1  0  0  0  0
 41 64  1  0  0  0  0
 42 67  1  0  0  0  0
 43 63  1  0  0  0  0
 44 62  1  0  0  0  0
 45 53  1  0  0  0  0
 46 57  1  0  0  0  0
 47 59  1  0  0  0  0
 48 59  1  0  0  0  0
 49 60  1  0  0  0  0
 50 60  1  0  0  0  0
 51 60  1  0  0  0  0
 52 69  1  0  0  0  0
 53 54  1  0  0  0  0
 54 58  1  0  0  0  0
 55 58  1  0  0  0  0
 55 76  1  0  0  0  0
 56 60  1  0  0  0  0
 56 68  1  0  0  0  0
 57 69  1  0  0  0  0
 58 59  1  0  0  0  0
 61 62  1  0  0  0  0
M  CHG  1  69   1
M  ISO  4  31 100  55 101  59 100  76 101
M  END
> <Batch ID>
0018

> <Smiles>
CCCC([100C:0](C)(C)[100C:0](=O)N1CCCC(n2nc(-c3ccc(Oc4ccc(F)cc4F)cc3)c(C(N)=O)c2N)C1)[101CH2:1][101O:1]c1ccc2c(c1)CN(C(=O)C(NC(=O)C(C)NC)C(C)(C)C)C(C(=O)NC1CCCc3ccccc31)C2

> <Shape>
0.171

> <Color>
0.185

> <Negative vol penalty>
0.000

$$$$

  -OEChem-04052316043D

 81 89  0     1  0  0  0  0  0999 V2000
  -29.1338  -33.0272   16.7838 C   0  0  0  0  0  0  0  0  0  0  0  0
  -29.6137  -31.7669   16.4421 C   0  0  0  0  0  0  0  0  0  0  0  0
  -23.1275   -9.6966   19.9749 C   0  0  0  0  0  0  0  0  0  0  0  0
  -23.8358   -9.8223   22.2813 C   0  0  0  0  0  0  0  0  0  0  0  0
  -28.5729  -33.2406   18.0423 C   0  0  0  0  0  0  0  0  0  0  0  0
  -29.5339  -30.7194   17.3591 C   0  0  0  0  0  0  0  0  0  0  0  0
  -28.6376  -23.6186   17.6596 C   0  0  0  0  0  0  0  0  0  0  0  0
  -22.4214   -8.5269   20.2554 C   0  0  0  0  0  0  0  0  0  0  0  0
  -23.1296   -8.6526   22.5619 C   0  0  0  0  0  0  0  0  0  0  0  0
  -29.2306  -22.4802   18.2038 C   0  0  0  0  0  0  0  0  0  0  0  0
  -23.1092   -5.2464   20.6908 C   0  0  0  0  0  0  0  0  0  0  0  0
  -23.2347   -4.1840   19.7957 C   0  0  0  0  0  0  0  0  0  0  0  0
  -28.1695  -22.9460   20.3195 C   0  0  0  0  0  0  0  0  0  0  0  0
  -31.1796  -19.6448   22.6430 C   0  0  0  0  0  0  0  0  0  0  0  0
  -20.8541   -4.2457   19.3886 C   0  0  0  0  0  0  0  0  0  0  0  0
  -23.8348  -10.3443   20.9878 C   0  0  0  0  0  0  0  0  0  0  0  0
  -24.0858  -12.8739   20.7738 C   0  0  0  0  0  0  0  0  0  0  0  0
  -28.4774  -32.1929   18.9717 C   0  0  0  0  0  0  0  0  0  0  0  0
  -27.8133  -24.4366   18.4457 C   0  0  0  0  0  0  0  0  0  0  0  0
  -28.9724  -30.9194   18.6317 C   0  0  0  0  0  0  0  0  0  0  0  0
  -27.5651  -24.0928   19.7822 C   0  0  0  0  0  0  0  0  0  0  0  0
  -30.0427  -19.5151   21.8454 C   0  0  0  0  0  0  0  0  0  0  0  0
  -31.8894  -18.5100   23.0356 C   0  0  0  0  0  0  0  0  0  0  0  0
  -29.6154  -18.2505   21.4406 C   0  0  0  0  0  0  0  0  0  0  0  0
  -30.3251  -17.1156   21.8332 C   0  0  0  0  0  0  0  0  0  0  0  0
  -22.4224   -8.0049   21.5489 C   0  0  0  0  0  0  0  0  0  0  0  0
  -28.9989  -22.1453   19.5347 C   0  0  0  0  0  0  0  0  0  0  0  0
  -21.8561   -5.8084   20.9348 C   0  0  0  0  0  0  0  0  0  0  0  0
  -22.1072   -3.6837   19.1446 C   0  0  0  0  0  0  0  0  0  0  0  0
  -20.7285   -5.3081   20.2837 C   0  0  0  0  0  0  0  0  0  0  0  0
  -31.4621  -17.2454   22.6307 C   0  0  0  0  0  0  0  0  0  0  0  0
  -24.5649  -11.5523   20.6985 C   0  0  0  0  0  0  0  0  0  0  0  0
  -25.1573  -13.6492   20.4034 C   0  0  0  0  0  0  0  0  0  0  0  0
  -22.7882  -13.3574   21.1454 C   0  0  0  0  0  0  0  0  0  0  0  0
  -27.9205  -27.4637   19.4094 C   0  0  0  0  0  0  0  0  0  0  0  0
  -24.9711  -26.7883   20.5786 C   0  0  0  0  0  0  0  0  0  0  0  0
  -22.7595  -24.4324   21.6767 C   0  0  0  0  0  0  0  0  0  0  0  0
  -30.5760  -14.9065   20.6488 C   0  0  0  0  0  0  0  0  0  0  0  0
  -27.9062  -32.4834   20.3370 C   0  0  0  0  0  0  0  0  0  0  0  0
  -27.1597  -25.6465   17.8363 C   0  0  0  0  0  0  0  0  0  0  0  0
  -26.6719  -24.9267   20.6628 C   0  0  0  0  0  0  0  0  0  0  0  0
  -27.5181  -31.2283   21.1145 C   0  0  0  0  0  0  0  0  0  0  0  0
  -29.6040  -12.3612   18.3566 C   0  0  0  0  0  0  0  0  0  0  0  0
  -28.6312  -30.1880   21.0389 C   0  0  0  0  0  0  0  0  0  0  0  0
  -28.1670  -12.0326   18.7677 C   0  0  0  0  0  0  0  0  0  0  0  0
  -30.4833  -12.6714   19.5668 C   0  0  0  0  0  0  0  0  0  0  0  0
  -28.5208  -13.3770   20.8783 C   0  0  0  0  0  0  0  0  0  0  0  0
  -28.8811  -29.7518   19.5902 C   0  0  1  0  0  0  0  0  0  0  0  0
  -26.7504  -26.6896   18.8716 C   0  0  1  0  0  0  0  0  0  0  0  0
  -27.5813  -13.1210   19.6885 C   0  0  2  0  0  0  0  0  0  0  0  0
  -33.1012  -18.6986   23.8908 C   0  0  0  0  0  0  0  0  0  0  0  0
  -28.3933  -18.1211   20.5856 C   0  0  0  0  0  0  0  0  0  0  0  0
  -20.4404  -24.1880   22.6038 C   0  0  0  0  0  0  0  0  0  0  0  0
  -25.9487  -27.8026   23.2851 C   0  0  0  0  0  0  0  0  0  0  0  0
  -23.9786  -26.6749   24.3411 C   0  0  0  0  0  0  0  0  0  0  0  0
  -23.6252  -28.5062   22.6846 C   0  0  0  0  0  0  0  0  0  0  0  0
  -21.8991  -22.7556   19.3950 C   0  0  0  0  0  0  0  0  0  0  0  0
  -29.2965  -20.7516   21.4386 C   0  0  0  0  0  0  0  0  0  1  0  0
  -24.4359  -26.2495   21.8833 C   0  0  1  0  0  0  0  0  0  0  0  0
  -21.2972  -24.1925   21.3473 C   0  0  2  0  0  0  0  0  0  0  0  0
  -24.5155  -27.2934   23.0328 C   0  0  0  0  0  0  0  0  0  0  0  0
  -25.8414  -11.4880   20.3106 N   0  0  0  0  0  0  0  0  0  0  0  0
  -26.1734  -12.7788   20.1387 N   0  0  0  0  0  0  0  0  0  0  0  0
  -26.0609  -26.1033   20.0227 N   0  0  0  0  0  0  0  0  0  0  0  0
  -29.8674  -13.7140   20.3904 N   0  0  0  0  0  0  0  0  0  0  0  0
  -25.3200  -14.9838   20.2814 N   0  0  0  0  0  0  0  0  0  0  0  0
  -21.8033  -12.4246   21.4979 N   0  0  0  0  0  0  0  0  0  0  0  0
  -29.8770  -15.8378   21.4159 N   0  0  0  0  0  0  0  0  0  0  0  0
  -27.8599  -28.8213   19.1592 N   0  0  0  0  0  0  0  0  0  0  0  0
  -23.0866  -25.7700   21.6041 N   0  0  0  0  0  0  0  0  0  0  0  0
  -21.1296  -22.8810   20.6596 N   0  3  0  0  0  0  0  0  0  0  0  0
  -22.5055  -14.5795   21.1485 O   0  0  0  0  0  0  0  0  0  0  0  0
  -28.8117  -26.8732   20.0085 O   0  0  0  0  0  0  0  0  0  0  0  0
  -24.4372  -27.7760   20.0677 O   0  0  0  0  0  0  0  0  0  0  0  0
  -23.5333  -23.5246   21.9728 O   0  0  0  0  0  0  0  0  0  0  0  0
  -31.7081  -15.0992   20.1982 O   0  0  0  0  0  0  0  0  0  0  0  0
  -21.7332   -6.8637   21.8231 O   0  0  0  0  0  0  0  0  0  0  0  0
  -29.5771  -21.0351   20.0685 O   0  0  0  0  0  0  0  0  0  1  0  0
  -22.2281   -2.6645   18.2839 F   0  0  0  0  0  0  0  0  0  0  0  0
  -19.5222   -5.8448   20.5132 F   0  0  0  0  0  0  0  0  0  0  0  0
  -32.3510  -15.8405   23.1250 Cl  0  0  0  0  0  0  0  0  0  0  0  0
  1  2  1  0  0  0  0
  1  5  2  0  0  0  0
  2  6  2  0  0  0  0
  3  8  2  0  0  0  0
  3 16  1  0  0  0  0
  4  9  1  0  0  0  0
  4 16  2  0  0  0  0
  5 18  1  0  0  0  0
  6 20  1  0  0  0  0
  7 10  2  0  0  0  0
  7 19  1  0  0  0  0
  8 26  1  0  0  0  0
  9 26  2  0  0  0  0
 10 27  1  0  0  0  0
 11 12  2  0  0  0  0
 11 28  1  0  0  0  0
 12 29  1  0  0  0  0
 13 21  1  0  0  0  0
 13 27  2  0  0  0  0
 14 22  1  0  0  0  0
 14 23  2  0  0  0  0
 15 29  2  0  0  0  0
 15 30  1  0  0  0  0
 16 32  1  0  0  0  0
 17 32  1  0  0  0  0
 17 33  2  0  0  0  0
 17 34  1  0  0  0  0
 18 20  2  0  0  0  0
 18 39  1  0  0  0  0
 19 21  2  0  0  0  0
 19 40  1  0  0  0  0
 20 48  1  0  0  0  0
 21 41  1  0  0  0  0
 22 24  2  0  0  0  0
 22 58  1  0  0  0  0
 23 31  1  0  0  0  0
 23 51  1  0  0  0  0
 24 25  1  0  0  0  0
 24 52  1  0  0  0  0
 25 31  2  0  0  0  0
 25 68  1  0  0  0  0
 26 77  1  0  0  0  0
 27 78  1  0  0  0  0
 28 30  2  0  0  0  0
 28 77  1  0  0  0  0
 29 79  1  0  0  0  0
 30 80  1  0  0  0  0
 31 81  1  0  0  0  0
 32 62  2  0  0  0  0
 33 63  1  0  0  0  0
 33 66  1  0  0  0  0
 34 67  1  0  0  0  0
 34 72  2  0  0  0  0
 35 49  1  0  0  0  0
 35 69  1  0  0  0  0
 35 73  2  0  0  0  0
 36 59  1  0  0  0  0
 36 64  1  0  0  0  0
 36 74  2  0  0  0  0
 37 60  1  0  0  0  0
 37 70  1  0  0  0  0
 37 75  2  0  0  0  0
 38 65  1  0  0  0  0
 38 68  1  0  0  0  0
 38 76  2  0  0  0  0
 39 42  1  0  0  0  0
 40 49  1  0  0  0  0
 41 64  1  0  0  0  0
 42 44  1  0  0  0  0
 43 45  1  0  0  0  0
 43 46  1  0  0  0  0
 44 48  1  0  0  0  0
 45 50  1  0  0  0  0
 46 65  1  0  0  0  0
 47 50  1  0  0  0  0
 47 65  1  0  0  0  0
 48 69  1  0  0  0  0
 49 64  1  0  0  0  0
 50 63  1  0  0  0  0
 53 60  1  0  0  0  0
 54 61  1  0  0  0  0
 55 61  1  0  0  0  0
 56 61  1  0  0  0  0
 57 71  1  0  0  0  0
 58 78  1  0  0  0  0
 59 61  1  0  0  0  0
 59 70  1  0  0  0  0
 60 71  1  0  0  0  0
 62 63  1  0  0  0  0
M  CHG  1  71   1
M  ISO  4  38 100  58 101  68 100  78 101
M  END
> <Batch ID>
0018

> <Smiles>
CNC(C)C(=O)NC(C(=O)N1Cc2cc([101O:1][101CH2:1]c3cc(C)c(Cl)c([100NH:0][100C:0](=O)N4CCCC(n5nc(-c6ccc(Oc7ccc(F)cc7F)cc6)c(C(N)=O)c5N)C4)c3C)ccc2CC1C(=O)NC1CCCc2ccccc21)C(C)(C)C

> <Shape>
0.260

> <Color>
0.234

> <Negative vol penalty>
0.000

$$$$

  -OEChem-04052316043D

 84 92  0     1  0  0  0  0  0999 V2000
  -28.9558  -11.6060   19.6385 C   0  0  0  0  0  0  0  0  0  0  0  0
  -29.2081  -12.9686   19.5154 C   0  0  0  0  0  0  0  0  0  0  0  0
  -23.4107  -27.5105   21.7865 C   0  0  0  0  0  0  0  0  0  0  0  0
  -23.4893  -25.1090   21.5335 C   0  0  0  0  0  0  0  0  0  0  0  0
  -27.6419  -11.1451   19.7093 C   0  0  0  0  0  0  0  0  0  0  0  0
  -28.1464  -13.8710   19.4620 C   0  0  0  0  0  0  0  0  0  0  0  0
  -28.8955  -17.9279   22.3989 C   0  0  0  0  0  0  0  0  0  0  0  0
  -22.2342  -27.3940   22.5267 C   0  0  0  0  0  0  0  0  0  0  0  0
  -22.3128  -24.9926   22.2738 C   0  0  0  0  0  0  0  0  0  0  0  0
  -29.7505  -18.9163   21.9134 C   0  0  0  0  0  0  0  0  0  0  0  0
  -18.9465  -26.9014   21.9166 C   0  0  0  0  0  0  0  0  0  0  0  0
  -17.9032  -27.7771   21.6161 C   0  0  0  0  0  0  0  0  0  0  0  0
  -27.8417  -20.2234   21.2299 C   0  0  0  0  0  0  0  0  0  0  0  0
  -17.9695  -28.6312   23.8751 C   0  0  0  0  0  0  0  0  0  0  0  0
  -24.0382  -26.3680   21.2898 C   0  0  0  0  0  0  0  0  0  0  0  0
  -26.5721  -26.4788   21.0167 C   0  0  0  0  0  0  0  0  0  0  0  0
  -26.5638  -12.0431   19.6664 C   0  0  0  0  0  0  0  0  0  0  0  0
  -27.5049  -18.0752   22.2935 C   0  0  0  0  0  0  0  0  0  0  0  0
  -26.8167  -13.4215   19.5310 C   0  0  0  0  0  0  0  0  0  0  0  0
  -26.9712  -19.2366   21.7172 C   0  0  0  0  0  0  0  0  0  0  0  0
  -21.6853  -26.1351   22.7704 C   0  0  0  0  0  0  0  0  0  0  0  0
  -29.2238  -20.0630   21.3262 C   0  0  0  0  0  0  0  0  0  0  0  0
  -19.5012  -26.8905   23.1964 C   0  0  0  0  0  0  0  0  0  0  0  0
  -17.4148  -28.6420   22.5953 C   0  0  0  0  0  0  0  0  0  0  0  0
  -19.0128  -27.7555   24.1756 C   0  0  0  0  0  0  0  0  0  0  0  0
  -25.2532  -26.4877   20.5246 C   0  0  0  0  0  0  0  0  0  0  0  0
  -27.3568  -26.6215   19.8985 C   0  0  0  0  0  0  0  0  0  0  0  0
  -27.0457  -26.3528   22.3641 C   0  0  0  0  0  0  0  0  0  0  0  0
  -25.1840  -16.4717   20.8285 C   0  0  0  0  0  0  0  0  0  0  0  0
  -23.2728  -18.5570   22.4163 C   0  0  0  0  0  0  0  0  0  0  0  0
  -27.4354  -24.9751   14.3280 C   0  0  0  0  0  0  0  0  0  0  0  0
  -22.9328  -21.5912   23.9412 C   0  0  0  0  0  0  0  0  0  0  0  0
  -25.1596  -11.4937   19.6988 C   0  0  0  0  0  0  0  0  0  0  0  0
  -26.5957  -17.0121   22.8463 C   0  0  0  0  0  0  0  0  0  0  0  0
  -25.4853  -19.4522   21.5983 C   0  0  0  0  0  0  0  0  0  0  0  0
  -24.1004  -12.5473   20.0124 C   0  0  0  0  0  0  0  0  0  0  0  0
  -26.6403  -28.3247   15.3218 C   0  0  0  0  0  0  0  0  0  0  0  0
  -24.3317  -13.8021   19.1766 C   0  0  0  0  0  0  0  0  0  0  0  0
  -26.2986  -28.1876   16.8050 C   0  0  0  0  0  0  0  0  0  0  0  0
  -30.0333  -25.0001   15.6079 C   0  0  0  0  0  0  0  0  0  0  0  0
  -26.1896  -27.1015   14.5296 C   0  0  0  0  0  0  0  0  0  0  0  0
  -26.3820  -25.6684   16.5373 C   0  0  0  0  0  0  0  0  0  0  0  0
  -31.5064  -24.1451   17.4714 C   0  0  0  0  0  0  0  0  0  0  0  0
  -29.3880  -22.9275   16.8968 C   0  0  0  0  0  0  0  0  0  0  0  0
  -25.6924  -14.4338   19.4947 C   0  0  1  0  0  0  0  0  0  0  0  0
  -25.2037  -17.0327   22.2223 C   0  0  1  0  0  0  0  0  0  0  0  0
  -31.0105  -25.3842   16.7255 C   0  0  1  0  0  0  0  0  0  0  0  0
  -28.8721  -24.1550   16.1454 C   0  0  2  0  0  0  0  0  0  0  0  0
  -26.8477  -26.8695   17.3791 C   0  0  2  0  0  0  0  0  0  0  0  0
  -32.1919  -26.1704   16.1594 C   0  0  0  0  0  0  0  0  0  0  0  0
  -25.7106  -22.5434   14.4447 C   0  0  0  0  0  0  0  0  0  0  0  0
  -21.8411  -23.4232   25.2638 C   0  0  0  0  0  0  0  0  0  0  0  0
  -31.1995  -21.0809   17.9308 C   0  0  0  0  0  0  0  0  0  0  0  0
  -28.7284  -22.9169   13.9668 C   0  0  0  0  0  0  0  0  0  0  0  0
  -22.0020  -19.2447   19.7289 C   0  0  0  0  0  0  0  0  0  0  0  0
  -21.0379  -21.2977   20.7889 C   0  0  0  0  0  0  0  0  0  0  0  0
  -20.3850  -19.0402   21.6257 C   0  0  0  0  0  0  0  0  0  0  0  0
  -23.9019  -20.4757   26.5055 C   0  0  0  0  0  0  0  0  0  0  0  0
  -26.7048  -22.9638   15.5193 C   0  0  0  0  0  0  0  0  0  0  0  0
  -29.5916  -21.7991   19.7430 C   0  0  0  0  0  0  0  0  0  1  0  0
  -22.7021  -19.9228   22.1198 C   0  0  1  0  0  0  0  0  0  0  0  0
  -22.3337  -21.9845   25.2794 C   0  0  2  0  0  0  0  0  0  0  0  0
  -30.7586  -22.2076   18.8510 C   0  0  2  0  0  0  0  0  0  0  0  0
  -27.9459  -23.7293   15.0072 C   0  0  2  0  0  0  0  0  0  0  0  0
  -21.5598  -19.8717   21.0662 C   0  0  0  0  0  0  0  0  0  0  0  0
  -25.1991  -26.6252   19.1971 N   0  0  0  0  0  0  0  0  0  0  0  0
  -26.4938  -26.7042   18.8456 N   0  0  0  0  0  0  0  0  0  0  0  0
  -24.6377  -18.3812   22.1478 N   0  0  0  0  0  0  0  0  0  0  0  0
  -26.7134  -25.8684   15.1197 N   0  0  0  0  0  0  0  0  0  0  0  0
  -28.6939  -26.6830   19.7229 N   0  0  0  0  0  0  0  0  0  0  0  0
  -26.1041  -26.2144   23.3930 N   0  0  0  0  0  0  0  0  0  0  0  0
  -25.6303  -15.1669   20.7409 N   0  0  0  0  0  0  0  0  0  0  0  0
  -22.3046  -20.4870   23.4051 N   0  0  0  0  0  0  0  0  0  0  0  0
  -30.3274  -23.3576   18.0046 N   0  3  1  0  0  0  0  0  0  0  0  0
  -23.3488  -21.8470   26.3618 N   0  3  0  0  0  0  0  0  0  0  0  0
  -28.2670  -26.3792   22.6491 O   0  0  0  0  0  0  0  0  0  0  0  0
  -24.7916  -17.1704   19.9015 O   0  0  0  0  0  0  0  0  0  0  0  0
  -22.5364  -17.6807   22.8762 O   0  0  0  0  0  0  0  0  0  0  0  0
  -27.6748  -25.1488   13.1302 O   0  0  0  0  0  0  0  0  0  0  0  0
  -23.8625  -22.2045   23.4215 O   0  0  0  0  0  0  0  0  0  0  0  0
  -20.5375  -26.0210   23.4929 O   0  0  0  0  0  0  0  0  0  0  0  0
  -30.0562  -21.0289   20.8509 O   0  0  0  0  0  0  0  0  0  1  0  0
  -16.4140  -29.4840   22.3062 F   0  0  0  0  0  0  0  0  0  0  0  0
  -19.5425  -27.7504   25.4065 F   0  0  0  0  0  0  0  0  0  0  0  0
  1  2  1  0  0  0  0
  1  5  2  0  0  0  0
  2  6  2  0  0  0  0
  3  8  2  0  0  0  0
  3 15  1  0  0  0  0
  4  9  1  0  0  0  0
  4 15  2  0  0  0  0
  5 17  1  0  0  0  0
  6 19  1  0  0  0  0
  7 10  2  0  0  0  0
  7 18  1  0  0  0  0
  8 21  1  0  0  0  0
  9 21  2  0  0  0  0
 10 22  1  0  0  0  0
 11 12  2  0  0  0  0
 11 23  1  0  0  0  0
 12 24  1  0  0  0  0
 13 20  1  0  0  0  0
 13 22  2  0  0  0  0
 14 24  2  0  0  0  0
 14 25  1  0  0  0  0
 15 26  1  0  0  0  0
 16 26  1  0  0  0  0
 16 27  2  0  0  0  0
 16 28  1  0  0  0  0
 17 19  2  0  0  0  0
 17 33  1  0  0  0  0
 18 20  2  0  0  0  0
 18 34  1  0  0  0  0
 19 45  1  0  0  0  0
 20 35  1  0  0  0  0
 21 81  1  0  0  0  0
 22 82  1  0  0  0  0
 23 25  2  0  0  0  0
 23 81  1  0  0  0  0
 24 83  1  0  0  0  0
 25 84  1  0  0  0  0
 26 66  2  0  0  0  0
 27 67  1  0  0  0  0
 27 70  1  0  0  0  0
 28 71  1  0  0  0  0
 28 76  2  0  0  0  0
 29 46  1  0  0  0  0
 29 72  1  0  0  0  0
 29 77  2  0  0  0  0
 30 61  1  0  0  0  0
 30 68  1  0  0  0  0
 30 78  2  0  0  0  0
 31 64  1  0  0  0  0
 31 69  1  0  0  0  0
 31 79  2  0  0  0  0
 32 62  1  0  0  0  0
 32 73  1  0  0  0  0
 32 80  2  0  0  0  0
 33 36  1  0  0  0  0
 34 46  1  0  0  0  0
 35 68  1  0  0  0  0
 36 38  1  0  0  0  0
 37 39  1  0  0  0  0
 37 41  1  0  0  0  0
 38 45  1  0  0  0  0
 39 49  1  0  0  0  0
 40 47  1  0  0  0  0
 40 48  1  0  0  0  0
 41 69  1  0  0  0  0
 42 49  1  0  0  0  0
 42 69  1  0  0  0  0
 43 47  1  0  0  0  0
 43 74  1  0  0  0  0
 44 48  1  0  0  0  0
 44 74  1  0  0  0  0
 45 72  1  0  0  0  0
 46 68  1  0  0  0  0
 47 50  1  0  0  0  0
 48 64  1  0  0  0  0
 49 67  1  0  0  0  0
 51 59  1  0  0  0  0
 52 62  1  0  0  0  0
 53 63  1  0  0  0  0
 54 64  1  0  0  0  0
 55 65  1  0  0  0  0
 56 65  1  0  0  0  0
 57 65  1  0  0  0  0
 58 75  1  0  0  0  0
 59 64  1  0  0  0  0
 60 63  1  0  0  0  0
 60 82  1  0  0  0  0
 61 65  1  0  0  0  0
 61 73  1  0  0  0  0
 62 75  1  0  0  0  0
 63 74  1  0  0  0  0
 66 67  1  0  0  0  0
M  CHG  2  74   1  75   1
M  ISO  4  31 100  60 101  64 100  82 101
M  END
> <Batch ID>
0018

> <Smiles>
CC[100C:0](C)(C1CC(C)CN(C(C)[101CH2:1][101O:1]c2ccc3c(c2)CN(C(=O)C(NC(=O)C(C)NC)C(C)(C)C)C(C(=O)NC2CCCc4ccccc42)C3)C1)[100C:0](=O)N1CCCC(n2nc(-c3ccc(Oc4ccc(F)cc4F)cc3)c(C(N)=O)c2N)C1

> <Shape>
0.180

> <Color>
0.054

> <Negative vol penalty>
0.000

$$$$

  -OEChem-04052316043D

 86 94  0     1  0  0  0  0  0999 V2000
  -22.5078  -29.6201   22.7539 C   0  0  0  0  0  0  0  0  0  0  0  0
  -23.1440  -28.3930   22.9122 C   0  0  0  0  0  0  0  0  0  0  0  0
  -22.9230  -10.0220   19.9325 C   0  0  0  0  0  0  0  0  0  0  0  0
  -23.8246   -9.7940   22.1623 C   0  0  0  0  0  0  0  0  0  0  0  0
  -22.9859  -30.5362   21.8180 C   0  0  0  0  0  0  0  0  0  0  0  0
  -24.2580  -28.0809   22.1338 C   0  0  0  0  0  0  0  0  0  0  0  0
  -28.0005  -26.0060   24.8418 C   0  0  0  0  0  0  0  0  0  0  0  0
  -22.1456   -8.8808   20.1301 C   0  0  0  0  0  0  0  0  0  0  0  0
  -23.0472   -8.6528   22.3600 C   0  0  0  0  0  0  0  0  0  0  0  0
  -27.8700  -24.6602   25.1816 C   0  0  0  0  0  0  0  0  0  0  0  0
  -19.8308   -7.9302   23.1037 C   0  0  0  0  0  0  0  0  0  0  0  0
  -19.1476   -7.8150   24.3143 C   0  0  0  0  0  0  0  0  0  0  0  0
  -29.3490  -24.0657   23.3710 C   0  0  0  0  0  0  0  0  0  0  0  0
  -28.9984  -19.3276   23.4772 C   0  0  0  0  0  0  0  0  0  0  0  0
  -20.3452   -5.7726   24.7957 C   0  0  0  0  0  0  0  0  0  0  0  0
  -23.7625  -10.4786   20.9486 C   0  0  0  0  0  0  0  0  0  0  0  0
  -24.2082  -12.9891   21.0260 C   0  0  0  0  0  0  0  0  0  0  0  0
  -24.1122  -30.2391   21.0345 C   0  0  0  0  0  0  0  0  0  0  0  0
  -28.7990  -26.3915   23.7554 C   0  0  0  0  0  0  0  0  0  0  0  0
  -24.7508  -28.9934   21.1855 C   0  0  0  0  0  0  0  0  0  0  0  0
  -29.4901  -25.4173   23.0210 C   0  0  0  0  0  0  0  0  0  0  0  0
  -29.7209  -18.5606   22.5633 C   0  0  0  0  0  0  0  0  0  0  0  0
  -30.2957  -17.3549   22.9653 C   0  0  0  0  0  0  0  0  0  0  0  0
  -30.1480  -16.9162   24.2811 C   0  0  0  0  0  0  0  0  0  0  0  0
  -28.8507  -18.8890   24.7931 C   0  0  0  0  0  0  0  0  0  0  0  0
  -22.2077   -8.1963   21.3438 C   0  0  0  0  0  0  0  0  0  0  0  0
  -28.5420  -23.6895   24.4445 C   0  0  0  0  0  0  0  0  0  0  0  0
  -20.7711   -6.9666   22.7390 C   0  0  0  0  0  0  0  0  0  0  0  0
  -19.4048   -6.7362   25.1603 C   0  0  0  0  0  0  0  0  0  0  0  0
  -21.0283   -5.8878   23.5850 C   0  0  0  0  0  0  0  0  0  0  0  0
  -29.4255  -17.6833   25.1950 C   0  0  0  0  0  0  0  0  0  0  0  0
  -24.5662  -11.6570   20.7448 C   0  0  0  0  0  0  0  0  0  0  0  0
  -25.3078  -13.7252   20.6576 C   0  0  0  0  0  0  0  0  0  0  0  0
  -22.9907  -13.5143   21.5715 C   0  0  0  0  0  0  0  0  0  0  0  0
  -28.2653  -27.8691   20.9921 C   0  0  0  0  0  0  0  0  0  0  0  0
  -31.4979  -27.7503   20.7509 C   0  0  0  0  0  0  0  0  0  0  0  0
  -34.4173  -26.2346   21.6601 C   0  0  0  0  0  0  0  0  0  0  0  0
  -30.8325  -14.5096   20.5697 C   0  0  0  0  0  0  0  0  0  0  0  0
  -24.5637  -31.2421   20.0025 C   0  0  0  0  0  0  0  0  0  0  0  0
  -28.9506  -27.8495   23.4182 C   0  0  0  0  0  0  0  0  0  0  0  0
  -30.3758  -25.7806   21.8583 C   0  0  0  0  0  0  0  0  0  0  0  0
  -25.9753  -30.9858   19.4809 C   0  0  0  0  0  0  0  0  0  0  0  0
  -29.4426  -12.3944   18.0655 C   0  0  0  0  0  0  0  0  0  0  0  0
  -26.1576  -29.5110   19.1364 C   0  0  0  0  0  0  0  0  0  0  0  0
  -28.0234  -12.1191   18.5656 C   0  0  0  0  0  0  0  0  0  0  0  0
  -30.4421  -12.4710   19.2175 C   0  0  0  0  0  0  0  0  0  0  0  0
  -28.6653  -13.1482   20.7855 C   0  0  0  0  0  0  0  0  0  0  0  0
  -25.9770  -28.6283   20.3772 C   0  0  1  0  0  0  0  0  0  0  0  0
  -29.3814  -28.0872   21.9742 C   0  0  1  0  0  0  0  0  0  0  0  0
  -27.6125  -13.1178   19.6643 C   0  0  2  0  0  0  0  0  0  0  0  0
  -29.8642  -19.0532   21.1604 C   0  0  0  0  0  0  0  0  0  0  0  0
  -30.7741  -15.6195   24.6935 C   0  0  0  0  0  0  0  0  0  0  0  0
  -36.8942  -26.3364   21.2705 C   0  0  0  0  0  0  0  0  0  0  0  0
  -28.5653  -20.3642   27.9600 C   0  0  0  0  0  0  0  0  0  0  0  0
  -31.1210  -26.4315   18.0254 C   0  0  0  0  0  0  0  0  0  0  0  0
  -33.5167  -25.7105   18.1206 C   0  0  0  0  0  0  0  0  0  0  0  0
  -32.9462  -28.1389   18.1146 C   0  0  0  0  0  0  0  0  0  0  0  0
  -26.6788  -19.4921   25.8320 C   0  0  0  0  0  0  0  0  0  0  0  0
  -34.9610  -26.7866   24.5164 C   0  0  0  0  0  0  0  0  0  0  0  0
  -31.0714  -16.5366   21.9816 C   0  0  0  0  0  0  0  0  0  0  0  0
  -28.1821  -22.0693   26.1478 C   0  0  0  0  0  0  0  0  0  1  0  0
  -32.4924  -26.7642   20.1874 C   0  0  1  0  0  0  0  0  0  0  0  0
  -35.7395  -26.8030   22.1432 C   0  0  2  0  0  0  0  0  0  0  0  0
  -28.7665  -20.7001   26.4881 C   0  0  2  0  0  0  0  0  0  0  0  0
  -32.5009  -26.7539   18.6327 C   0  0  0  0  0  0  0  0  0  0  0  0
  -25.7969  -11.5500   20.2369 N   0  0  0  0  0  0  0  0  0  0  0  0
  -26.2218  -12.8243   20.1958 N   0  0  0  0  0  0  0  0  0  0  0  0
  -30.4868  -27.2189   21.5639 N   0  0  0  0  0  0  0  0  0  0  0  0
  -29.9944  -13.4367   20.2241 N   0  0  0  0  0  0  0  0  0  0  0  0
  -25.5723  -15.0486   20.6867 N   0  0  0  0  0  0  0  0  0  0  0  0
  -21.9624  -12.6185   21.8948 N   0  0  0  0  0  0  0  0  0  0  0  0
  -27.1622  -28.6734   21.2064 N   0  0  0  0  0  0  0  0  0  0  0  0
  -33.7797  -27.0933   20.7898 N   0  0  0  0  0  0  0  0  0  0  0  0
  -30.3292  -15.3818   21.5271 N   0  0  0  0  0  0  0  0  0  0  0  0
  -28.1198  -19.6829   25.6835 N   0  0  3  0  0  0  0  0  0  0  0  0
  -36.0065  -26.3738   23.5451 N   0  3  0  0  0  0  0  0  0  0  0  0
  -22.8135  -14.7430   21.7510 O   0  0  0  0  0  0  0  0  0  0  0  0
  -28.3958  -27.0341   20.1048 O   0  0  0  0  0  0  0  0  0  0  0  0
  -31.6181  -28.9490   20.4854 O   0  0  0  0  0  0  0  0  0  0  0  0
  -33.9943  -25.1370   22.0161 O   0  0  0  0  0  0  0  0  0  0  0  0
  -31.9445  -14.6808   20.0587 O   0  0  0  0  0  0  0  0  0  0  0  0
  -21.4491   -7.0828   21.5371 O   0  0  0  0  0  0  0  0  0  0  0  0
  -28.4158  -22.3752   24.7737 O   0  0  0  0  0  0  0  0  0  1  0  0
  -18.7498   -6.6265   26.3235 F   0  0  0  0  0  0  0  0  0  0  0  0
  -21.9315   -4.9596   23.2406 F   0  0  0  0  0  0  0  0  0  0  0  0
  -29.2450  -17.1382   26.8314 Cl  0  0  0  0  0  0  0  0  0  0  0  0
  1  2  1  0  0  0  0
  1  5  2  0  0  0  0
  2  6  2  0  0  0  0
  3  8  2  0  0  0  0
  3 16  1  0  0  0  0
  4  9  1  0  0  0  0
  4 16  2  0  0  0  0
  5 18  1  0  0  0  0
  6 20  1  0  0  0  0
  7 10  2  0  0  0  0
  7 19  1  0  0  0  0
  8 26  1  0  0  0  0
  9 26  2  0  0  0  0
 10 27  1  0  0  0  0
 11 12  2  0  0  0  0
 11 28  1  0  0  0  0
 12 29  1  0  0  0  0
 13 21  1  0  0  0  0
 13 27  2  0  0  0  0
 14 22  2  0  0  0  0
 14 25  1  0  0  0  0
 15 29  2  0  0  0  0
 15 30  1  0  0  0  0
 16 32  1  0  0  0  0
 17 32  1  0  0  0  0
 17 33  2  0  0  0  0
 17 34  1  0  0  0  0
 18 20  2  0  0  0  0
 18 39  1  0  0  0  0
 19 21  2  0  0  0  0
 19 40  1  0  0  0  0
 20 48  1  0  0  0  0
 21 41  1  0  0  0  0
 22 23  1  0  0  0  0
 22 51  1  0  0  0  0
 23 24  2  0  0  0  0
 23 60  1  0  0  0  0
 24 31  1  0  0  0  0
 24 52  1  0  0  0  0
 25 31  2  0  0  0  0
 25 75  1  0  0  0  0
 26 82  1  0  0  0  0
 27 83  1  0  0  0  0
 28 30  2  0  0  0  0
 28 82  1  0  0  0  0
 29 84  1  0  0  0  0
 30 85  1  0  0  0  0
 31 86  1  0  0  0  0
 32 66  2  0  0  0  0
 33 67  1  0  0  0  0
 33 70  1  0  0  0  0
 34 71  1  0  0  0  0
 34 77  2  0  0  0  0
 35 49  1  0  0  0  0
 35 72  1  0  0  0  0
 35 78  2  0  0  0  0
 36 62  1  0  0  0  0
 36 68  1  0  0  0  0
 36 79  2  0  0  0  0
 37 63  1  0  0  0  0
 37 73  1  0  0  0  0
 37 80  2  0  0  0  0
 38 69  1  0  0  0  0
 38 74  1  0  0  0  0
 38 81  2  0  0  0  0
 39 42  1  0  0  0  0
 40 49  1  0  0  0  0
 41 68  1  0  0  0  0
 42 44  1  0  0  0  0
 43 45  1  0  0  0  0
 43 46  1  0  0  0  0
 44 48  1  0  0  0  0
 45 50  1  0  0  0  0
 46 69  1  0  0  0  0
 47 50  1  0  0  0  0
 47 69  1  0  0  0  0
 48 72  1  0  0  0  0
 49 68  1  0  0  0  0
 50 67  1  0  0  0  0
 53 63  1  0  0  0  0
 54 64  1  0  0  0  0
 55 65  1  0  0  0  0
 56 65  1  0  0  0  0
 57 65  1  0  0  0  0
 58 75  1  0  0  0  0
 59 76  1  0  0  0  0
 60 74  1  0  0  0  0
 61 64  1  0  0  0  0
 61 83  1  0  0  0  0
 62 65  1  0  0  0  0
 62 73  1  0  0  0  0
 63 76  1  0  0  0  0
 64 75  1  0  0  0  0
 66 67  1  0  0  0  0
M  CHG  1  76   1
M  ISO  4  38 100  61 101  74 100  83 101
M  END
> <Batch ID>
0018

> <Smiles>
CNC(C)C(=O)NC(C(=O)N1Cc2cc([101O:1][101CH2:1]C(C)N(C)c3cc(C)c(C[100NH:0][100C:0](=O)N4CCCC(n5nc(-c6ccc(Oc7ccc(F)cc7F)cc6)c(C(N)=O)c5N)C4)c(C)c3Cl)ccc2CC1C(=O)NC1CCCc2ccccc21)C(C)(C)C

> <Shape>
0.274

> <Color>
0.227

> <Negative vol penalty>
0.000

$$$$

  -OEChem-04052316043D

 85 92  0     1  0  0  0  0  0999 V2000
  -30.7383  -21.1915   16.7283 C   0  0  0  0  0  0  0  0  0  0  0  0
  -30.4561  -21.4638   18.0631 C   0  0  0  0  0  0  0  0  0  0  0  0
  -29.1778  -16.3727   20.6809 C   0  0  0  0  0  0  0  0  0  0  0  0
  -27.0940  -16.6519   21.8713 C   0  0  0  0  0  0  0  0  0  0  0  0
  -30.7532  -22.2270   15.7948 C   0  0  0  0  0  0  0  0  0  0  0  0
  -30.1897  -22.7721   18.4653 C   0  0  0  0  0  0  0  0  0  0  0  0
  -26.2027  -23.0752   21.5729 C   0  0  0  0  0  0  0  0  0  0  0  0
  -28.5956  -15.3782   19.8950 C   0  0  0  0  0  0  0  0  0  0  0  0
  -26.5118  -15.6574   21.0853 C   0  0  0  0  0  0  0  0  0  0  0  0
  -26.4044  -22.7146   22.9045 C   0  0  0  0  0  0  0  0  0  0  0  0
  -24.5801  -12.9417   19.6349 C   0  0  0  0  0  0  0  0  0  0  0  0
  -23.8047  -11.9775   20.2787 C   0  0  0  0  0  0  0  0  0  0  0  0
  -26.5799  -25.0449   23.5028 C   0  0  0  0  0  0  0  0  0  0  0  0
  -25.7205  -11.3141   21.5927 C   0  0  0  0  0  0  0  0  0  0  0  0
  -28.4270  -17.0095   21.6691 C   0  0  0  0  0  0  0  0  0  0  0  0
  -29.0617  -19.4188   22.2170 C   0  0  0  0  0  0  0  0  0  0  0  0
  -30.4773  -23.5472   16.1841 C   0  0  0  0  0  0  0  0  0  0  0  0
  -26.1989  -24.4253   21.1939 C   0  0  0  0  0  0  0  0  0  0  0  0
  -30.2021  -23.8265   17.5364 C   0  0  0  0  0  0  0  0  0  0  0  0
  -26.3754  -25.4201   22.1662 C   0  0  0  0  0  0  0  0  0  0  0  0
  -27.2626  -15.0206   20.0972 C   0  0  0  0  0  0  0  0  0  0  0  0
  -26.5959  -23.6993   23.8692 C   0  0  0  0  0  0  0  0  0  0  0  0
  -25.9258  -13.0921   19.9699 C   0  0  0  0  0  0  0  0  0  0  0  0
  -24.3748  -11.1637   21.2577 C   0  0  0  0  0  0  0  0  0  0  0  0
  -26.4960  -12.2783   20.9488 C   0  0  0  0  0  0  0  0  0  0  0  0
  -29.0279  -18.0365   22.4816 C   0  0  0  0  0  0  0  0  0  0  0  0
  -29.7415  -19.9559   23.2828 C   0  0  0  0  0  0  0  0  0  0  0  0
  -28.5263  -20.1518   21.1071 C   0  0  0  0  0  0  0  0  0  0  0  0
  -27.9775  -26.2182   19.2637 C   0  0  0  0  0  0  0  0  0  0  0  0
  -25.7550  -28.4779   19.9540 C   0  0  0  0  0  0  0  0  0  0  0  0
  -25.9585  -22.3924   27.8385 C   0  0  0  0  0  0  0  0  0  0  0  0
  -23.3742  -29.6376   22.1066 C   0  0  0  0  0  0  0  0  0  0  0  0
  -30.5752  -18.1324   28.9247 C   0  0  0  0  0  0  0  0  0  0  0  0
  -30.5514  -24.6403   15.1476 C   0  0  0  0  0  0  0  0  0  0  0  0
  -25.9534  -24.7988   19.7577 C   0  0  0  0  0  0  0  0  0  0  0  0
  -26.3598  -26.8845   21.8143 C   0  0  0  0  0  0  0  0  0  0  0  0
  -29.8899  -25.9435   15.5882 C   0  0  0  0  0  0  0  0  0  0  0  0
  -33.0940  -18.8679   26.5182 C   0  0  0  0  0  0  0  0  0  0  0  0
  -30.3183  -26.3067   17.0065 C   0  0  0  0  0  0  0  0  0  0  0  0
  -32.3406  -18.8630   25.1869 C   0  0  0  0  0  0  0  0  0  0  0  0
  -32.5569  -17.8055   27.4746 C   0  0  0  0  0  0  0  0  0  0  0  0
  -30.3490  -17.8596   26.3809 C   0  0  0  0  0  0  0  0  0  0  0  0
  -29.8836  -25.2290   18.0071 C   0  0  1  0  0  0  0  0  0  0  0  0
  -26.4817  -26.1851   19.4022 C   0  0  1  0  0  0  0  0  0  0  0  0
  -30.8180  -18.9514   25.4040 C   0  0  2  0  0  0  0  0  0  0  0  0
  -21.7539  -31.5283   22.4191 C   0  0  0  0  0  0  0  0  0  0  0  0
  -28.7699  -22.9364   29.5155 C   0  0  0  0  0  0  0  0  0  0  0  0
  -28.0534  -30.3086   20.7759 C   0  0  0  0  0  0  0  0  0  0  0  0
  -26.3840  -31.7654   21.9417 C   0  0  0  0  0  0  0  0  0  0  0  0
  -26.2385  -31.4332   19.4736 C   0  0  0  0  0  0  0  0  0  0  0  0
  -24.2459  -23.6570   29.9915 C   0  0  0  0  0  0  0  0  0  0  0  0
  -26.4166  -24.1987   31.1244 C   0  0  0  0  0  0  0  0  0  0  0  0
  -25.8682  -25.2248   28.9029 C   0  0  0  0  0  0  0  0  0  0  0  0
  -21.0509  -27.8044   22.0799 C   0  0  0  0  0  0  0  0  0  0  0  0
  -27.0396  -21.7630   26.9658 C   0  0  0  0  0  0  0  0  0  0  0  0
  -28.3431  -19.9441   30.5872 C   0  0  0  0  0  0  0  0  0  0  0  0
  -27.5701  -20.7205   29.5122 C   0  0  0  0  0  0  0  0  0  0  0  0
  -28.4986  -18.4663   30.2420 C   0  0  0  0  0  0  0  0  0  0  0  0
  -26.7928  -21.9561   25.4749 C   0  0  0  0  0  0  0  0  0  1  0  0
  -25.6017  -29.5365   21.0193 C   0  0  1  0  0  0  0  0  0  0  0  0
  -21.9552  -30.1235   21.8724 C   0  0  2  0  0  0  0  0  0  0  0  0
  -27.4622  -22.2185   29.8334 C   0  0  2  0  0  0  0  0  0  0  0  0
  -26.5717  -30.7333   20.8093 C   0  0  0  0  0  0  0  0  0  0  0  0
  -25.7307  -23.9703   29.7734 C   0  0  0  0  0  0  0  0  0  0  0  0
  -29.6379  -17.7155   23.6257 N   0  0  0  0  0  0  0  0  0  0  0  0
  -30.0615  -18.9036   24.0894 N   0  0  0  0  0  0  0  0  0  0  0  0
  -26.1224  -27.1989   20.3957 N   0  0  0  0  0  0  0  0  0  0  0  0
  -31.1079  -17.9456   27.6384 N   0  0  0  0  0  0  0  0  0  0  0  0
  -30.0909  -21.2209   23.5993 N   0  0  0  0  0  0  0  0  0  0  0  0
  -27.8568  -19.4440   20.0996 N   0  0  0  0  0  0  0  0  0  0  0  0
  -28.4730  -25.3553   18.3049 N   0  0  0  0  0  0  0  0  0  0  0  0
  -24.1903  -29.9056   21.0280 N   0  0  0  0  0  0  0  0  0  0  0  0
  -29.1934  -18.2625   28.9904 N   0  0  0  0  0  0  0  0  0  0  0  0
  -26.3683  -22.8420   29.0987 N   0  0  0  0  0  0  0  0  0  0  0  0
  -20.9800  -29.2153   22.5396 N   0  3  0  0  0  0  0  0  0  0  0  0
  -28.6527  -21.3955   21.0035 O   0  0  0  0  0  0  0  0  0  0  0  0
  -28.6334  -26.9720   19.9731 O   0  0  0  0  0  0  0  0  0  0  0  0
  -25.5490  -28.7731   18.7741 O   0  0  0  0  0  0  0  0  0  0  0  0
  -24.7983  -22.4866   27.4294 O   0  0  0  0  0  0  0  0  0  0  0  0
  -23.7246  -29.0798   23.1442 O   0  0  0  0  0  0  0  0  0  0  0  0
  -31.2794  -18.1849   29.9387 O   0  0  0  0  0  0  0  0  0  0  0  0
  -26.6942  -14.0503   19.3303 O   0  0  0  0  0  0  0  0  0  0  0  0
  -26.7937  -23.3500   25.1695 O   0  0  0  0  0  0  0  0  0  1  0  0
  -23.6297  -10.2389   21.8770 F   0  0  0  0  0  0  0  0  0  0  0  0
  -27.7880  -12.4189   21.2757 F   0  0  0  0  0  0  0  0  0  0  0  0
  1  2  1  0  0  0  0
  1  5  2  0  0  0  0
  2  6  2  0  0  0  0
  3  8  2  0  0  0  0
  3 15  1  0  0  0  0
  4  9  1  0  0  0  0
  4 15  2  0  0  0  0
  5 17  1  0  0  0  0
  6 19  1  0  0  0  0
  7 10  2  0  0  0  0
  7 18  1  0  0  0  0
  8 21  1  0  0  0  0
  9 21  2  0  0  0  0
 10 22  1  0  0  0  0
 11 12  2  0  0  0  0
 11 23  1  0  0  0  0
 12 24  1  0  0  0  0
 13 20  1  0  0  0  0
 13 22  2  0  0  0  0
 14 24  2  0  0  0  0
 14 25  1  0  0  0  0
 15 26  1  0  0  0  0
 16 26  1  0  0  0  0
 16 27  2  0  0  0  0
 16 28  1  0  0  0  0
 17 19  2  0  0  0  0
 17 34  1  0  0  0  0
 18 20  2  0  0  0  0
 18 35  1  0  0  0  0
 19 43  1  0  0  0  0
 20 36  1  0  0  0  0
 21 82  1  0  0  0  0
 22 83  1  0  0  0  0
 23 25  2  0  0  0  0
 23 82  1  0  0  0  0
 24 84  1  0  0  0  0
 25 85  1  0  0  0  0
 26 65  2  0  0  0  0
 27 66  1  0  0  0  0
 27 69  1  0  0  0  0
 28 70  1  0  0  0  0
 28 76  2  0  0  0  0
 29 44  1  0  0  0  0
 29 71  1  0  0  0  0
 29 77  2  0  0  0  0
 30 60  1  0  0  0  0
 30 67  1  0  0  0  0
 30 78  2  0  0  0  0
 31 55  1  0  0  0  0
 31 74  1  0  0  0  0
 31 79  2  0  0  0  0
 32 61  1  0  0  0  0
 32 72  1  0  0  0  0
 32 80  2  0  0  0  0
 33 68  1  0  0  0  0
 33 73  1  0  0  0  0
 33 81  2  0  0  0  0
 34 37  1  0  0  0  0
 35 44  1  0  0  0  0
 36 67  1  0  0  0  0
 37 39  1  0  0  0  0
 38 40  1  0  0  0  0
 38 41  1  0  0  0  0
 39 43  1  0  0  0  0
 40 45  1  0  0  0  0
 41 68  1  0  0  0  0
 42 45  1  0  0  0  0
 42 68  1  0  0  0  0
 43 71  1  0  0  0  0
 44 67  1  0  0  0  0
 45 66  1  0  0  0  0
 46 61  1  0  0  0  0
 47 62  1  0  0  0  0
 48 63  1  0  0  0  0
 49 63  1  0  0  0  0
 50 63  1  0  0  0  0
 51 64  1  0  0  0  0
 52 64  1  0  0  0  0
 53 64  1  0  0  0  0
 54 75  1  0  0  0  0
 55 59  1  0  0  0  0
 56 57  1  0  0  0  0
 56 58  1  0  0  0  0
 57 62  1  0  0  0  0
 58 73  1  0  0  0  0
 59 83  1  0  0  0  0
 60 63  1  0  0  0  0
 60 72  1  0  0  0  0
 61 75  1  0  0  0  0
 62 74  1  0  0  0  0
 64 74  1  0  0  0  0
 65 66  1  0  0  0  0
M  CHG  1  75   1
M  ISO  4  33 100  59 101  73 100  83 101
M  END
> <Batch ID>
0018

> <Smiles>
CNC(C)C(=O)NC(C(=O)N1Cc2cc([101O:1][101CH2:1]CC(=O)N(C(C)CCC[100NH:0][100C:0](=O)N3CCCC(n4nc(-c5ccc(Oc6ccc(F)cc6F)cc5)c(C(N)=O)c4N)C3)C(C)(C)C)ccc2CC1C(=O)NC1CCCc2ccccc21)C(C)(C)C

> <Shape>
0.202

> <Color>
0.065

> <Negative vol penalty>
0.000

$$$$

  -OEChem-04052316043D

 88 96  0     1  0  0  0  0  0999 V2000
  -19.1920  -27.7029   22.6651 C   0  0  0  0  0  0  0  0  0  0  0  0
  -18.7803  -26.5704   21.9698 C   0  0  0  0  0  0  0  0  0  0  0  0
  -26.8060  -25.2419   17.9638 C   0  0  0  0  0  0  0  0  0  0  0  0
  -25.5469  -24.9438   20.0041 C   0  0  0  0  0  0  0  0  0  0  0  0
  -20.3871  -27.6827   23.3829 C   0  0  0  0  0  0  0  0  0  0  0  0
  -19.5641  -25.4173   21.9911 C   0  0  0  0  0  0  0  0  0  0  0  0
  -18.9963  -18.2777   21.8515 C   0  0  0  0  0  0  0  0  0  0  0  0
  -26.2861  -26.5294   17.8310 C   0  0  0  0  0  0  0  0  0  0  0  0
  -25.0270  -26.2313   19.8714 C   0  0  0  0  0  0  0  0  0  0  0  0
  -19.4856  -17.1716   21.1579 C   0  0  0  0  0  0  0  0  0  0  0  0
  -26.0527  -29.4008   20.4396 C   0  0  0  0  0  0  0  0  0  0  0  0
  -26.0281  -30.2085   21.5765 C   0  0  0  0  0  0  0  0  0  0  0  0
  -21.4915  -17.2270   22.4968 C   0  0  0  0  0  0  0  0  0  0  0  0
  -23.6246  -30.3809   21.4019 C   0  0  0  0  0  0  0  0  0  0  0  0
  -26.4364  -24.4490   19.0503 C   0  0  0  0  0  0  0  0  0  0  0  0
  -28.1509  -22.7424   19.8600 C   0  0  0  0  0  0  0  0  0  0  0  0
  -21.1811  -26.5257   23.4209 C   0  0  0  0  0  0  0  0  0  0  0  0
  -19.7570  -18.8744   22.8673 C   0  0  0  0  0  0  0  0  0  0  0  0
  -20.7716  -25.3820   22.7091 C   0  0  0  0  0  0  0  0  0  0  0  0
  -21.0085  -18.3389   23.2035 C   0  0  0  0  0  0  0  0  0  0  0  0
  -25.3966  -27.0241   18.7848 C   0  0  0  0  0  0  0  0  0  0  0  0
  -20.7346  -16.6479   21.4786 C   0  0  0  0  0  0  0  0  0  0  0  0
  -24.8633  -29.0832   19.7838 C   0  0  0  0  0  0  0  0  0  0  0  0
  -24.8141  -30.6986   22.0577 C   0  0  0  0  0  0  0  0  0  0  0  0
  -23.6492  -29.5732   20.2650 C   0  0  0  0  0  0  0  0  0  0  0  0
  -26.9727  -23.1188   19.1877 C   0  0  0  0  0  0  0  0  0  0  0  0
  -28.2160  -21.3796   19.7021 C   0  0  0  0  0  0  0  0  0  0  0  0
  -25.6548  -11.6970   21.6601 C   0  0  0  0  0  0  0  0  0  0  0  0
  -26.7405  -12.3811   21.2710 C   0  0  0  0  0  0  0  0  0  0  0  0
  -26.5776  -13.6222   20.5280 C   0  0  0  0  0  0  0  0  0  0  0  0
  -25.3467  -14.0913   20.2279 C   0  0  0  0  0  0  0  0  0  0  0  0
  -24.2862  -12.1834   21.3461 C   0  0  0  0  0  0  0  0  0  0  0  0
  -29.1015  -23.5523   20.5644 C   0  0  0  0  0  0  0  0  0  0  0  0
  -21.0423  -21.7470   23.3140 C   0  0  0  0  0  0  0  0  0  0  0  0
  -21.7600  -20.5414   26.2387 C   0  0  0  0  0  0  0  0  0  0  0  0
  -22.3205  -17.7920   28.1812 C   0  0  0  0  0  0  0  0  0  0  0  0
  -25.6981  -16.4832   19.9790 C   0  0  0  0  0  0  0  0  0  0  0  0
  -22.4884  -26.5668   24.1718 C   0  0  0  0  0  0  0  0  0  0  0  0
  -19.2034  -20.0505   23.6242 C   0  0  0  0  0  0  0  0  0  0  0  0
  -21.8555  -18.9303   24.2996 C   0  0  0  0  0  0  0  0  0  0  0  0
  -23.0745  -25.1851   24.4505 C   0  0  0  0  0  0  0  0  0  0  0  0
  -25.5795  -18.2662   16.7439 C   0  0  0  0  0  0  0  0  0  0  0  0
  -23.0269  -24.3217   23.1938 C   0  0  0  0  0  0  0  0  0  0  0  0
  -25.9790  -19.6752   17.1713 C   0  0  0  0  0  0  0  0  0  0  0  0
  -24.7776  -17.5442   17.8261 C   0  0  0  0  0  0  0  0  0  0  0  0
  -25.8628  -18.9212   19.5779 C   0  0  0  0  0  0  0  0  0  0  0  0
  -21.5821  -24.1042   22.7283 C   0  0  1  0  0  0  0  0  0  0  0  0
  -20.2850  -20.8939   24.2920 C   0  0  1  0  0  0  0  0  0  0  0  0
  -26.7117  -19.6445   18.5211 C   0  0  2  0  0  0  0  0  0  0  0  0
  -22.9229  -17.1250   30.5242 C   0  0  0  0  0  0  0  0  0  0  0  0
  -28.0982  -10.3476   21.6755 C   0  0  0  0  0  0  0  0  0  0  0  0
  -24.6588  -21.3388   25.7178 C   0  0  0  0  0  0  0  0  0  0  0  0
  -25.3378  -19.8346   27.6005 C   0  0  0  0  0  0  0  0  0  0  0  0
  -23.8541  -21.7906   28.0422 C   0  0  0  0  0  0  0  0  0  0  0  0
  -19.7849  -16.3070   28.5342 C   0  0  0  0  0  0  0  0  0  0  0  0
  -22.8862  -13.9182   20.2900 C   0  0  0  0  0  0  0  0  0  0  0  0
  -22.5020  -15.0842   21.1833 C   0  0  0  0  0  0  0  0  0  1  0  0
  -22.9241  -19.7795   26.8248 C   0  0  1  0  0  0  0  0  0  0  0  0
  -21.7895  -17.3991   29.5480 C   0  0  2  0  0  0  0  0  0  0  0  0
  -28.1144  -11.8673   21.6016 C   0  0  2  0  0  0  0  0  0  0  0  0
  -24.1788  -20.6757   27.0243 C   0  0  0  0  0  0  0  0  0  0  0  0
  -28.6301  -12.4878   22.8853 C   0  0  0  0  0  0  0  0  0  0  0  0
  -26.3353  -22.0790   18.6431 N   0  0  0  0  0  0  0  0  0  0  0  0
  -27.1158  -21.0359   18.9729 N   0  0  0  0  0  0  0  0  0  0  0  0
  -24.1835  -13.3932   20.6242 N   0  0  0  0  0  0  0  0  0  0  0  0
  -21.2734  -20.0832   25.0062 N   0  0  0  0  0  0  0  0  0  0  0  0
  -25.4661  -17.5812   19.1264 N   0  0  0  0  0  0  0  0  0  0  0  0
  -29.1064  -20.4537   20.1171 N   0  0  0  0  0  0  0  0  0  0  0  0
  -28.8823  -24.9351   20.6303 N   0  0  0  0  0  0  0  0  0  0  0  0
  -25.2111  -15.2585   19.5301 N   0  0  0  0  0  0  0  0  0  0  0  0
  -20.9320  -23.1043   23.5482 N   0  0  0  0  0  0  0  0  0  0  0  0
  -22.4311  -19.1602   28.0502 N   0  0  0  0  0  0  0  0  0  0  0  0
  -20.9510  -16.1714   29.4447 N   0  3  0  0  0  0  0  0  0  0  0  0
  -23.3275  -11.5127   21.7280 O   0  0  0  0  0  0  0  0  0  0  0  0
  -30.1238  -23.0663   21.1050 O   0  0  0  0  0  0  0  0  0  0  0  0
  -21.6807  -21.2132   22.4145 O   0  0  0  0  0  0  0  0  0  0  0  0
  -21.2949  -21.5032   26.8554 O   0  0  0  0  0  0  0  0  0  0  0  0
  -22.6118  -16.9675   27.3176 O   0  0  0  0  0  0  0  0  0  0  0  0
  -26.2869  -16.5973   21.0602 O   0  0  0  0  0  0  0  0  0  0  0  0
  -24.8893  -28.2805   18.6557 O   0  0  0  0  0  0  0  0  0  0  0  0
  -21.2149  -15.5688   20.8027 O   0  0  0  0  0  0  0  0  0  1  0  0
  -24.7904  -31.4730   23.1503 F   0  0  0  0  0  0  0  0  0  0  0  0
  -22.5031  -29.2705   19.6399 F   0  0  0  0  0  0  0  0  0  0  0  0
  -28.9705  -12.2231   20.6013 F   0  0  0  0  0  0  0  0  0  0  0  0
  -27.8220  -12.2032   23.9307 F   0  0  0  0  0  0  0  0  0  0  0  0
  -28.6888  -13.8340   22.7744 F   0  0  0  0  0  0  0  0  0  0  0  0
  -29.8711  -12.0512   23.1931 F   0  0  0  0  0  0  0  0  0  0  0  0
  -28.0066  -14.4890   20.0347 Cl  0  0  0  0  0  0  0  0  0  0  0  0
  1  2  1  0  0  0  0
  1  5  2  0  0  0  0
  2  6  2  0  0  0  0
  3  8  2  0  0  0  0
  3 15  1  0  0  0  0
  4  9  1  0  0  0  0
  4 15  2  0  0  0  0
  5 17  1  0  0  0  0
  6 19  1  0  0  0  0
  7 10  2  0  0  0  0
  7 18  1  0  0  0  0
  8 21  1  0  0  0  0
  9 21  2  0  0  0  0
 10 22  1  0  0  0  0
 11 12  2  0  0  0  0
 11 23  1  0  0  0  0
 12 24  1  0  0  0  0
 13 20  1  0  0  0  0
 13 22  2  0  0  0  0
 14 24  2  0  0  0  0
 14 25  1  0  0  0  0
 15 26  1  0  0  0  0
 16 26  1  0  0  0  0
 16 27  2  0  0  0  0
 16 33  1  0  0  0  0
 17 19  2  0  0  0  0
 17 38  1  0  0  0  0
 18 20  2  0  0  0  0
 18 39  1  0  0  0  0
 19 47  1  0  0  0  0
 20 40  1  0  0  0  0
 21 80  1  0  0  0  0
 22 81  1  0  0  0  0
 23 25  2  0  0  0  0
 23 80  1  0  0  0  0
 24 82  1  0  0  0  0
 25 83  1  0  0  0  0
 26 63  2  0  0  0  0
 27 64  1  0  0  0  0
 27 68  1  0  0  0  0
 28 29  2  0  0  0  0
 28 32  1  0  0  0  0
 29 30  1  0  0  0  0
 29 60  1  0  0  0  0
 30 31  2  0  0  0  0
 30 88  1  0  0  0  0
 31 65  1  0  0  0  0
 31 70  1  0  0  0  0
 32 65  1  0  0  0  0
 32 74  2  0  0  0  0
 33 69  1  0  0  0  0
 33 75  2  0  0  0  0
 34 48  1  0  0  0  0
 34 71  1  0  0  0  0
 34 76  2  0  0  0  0
 35 58  1  0  0  0  0
 35 66  1  0  0  0  0
 35 77  2  0  0  0  0
 36 59  1  0  0  0  0
 36 72  1  0  0  0  0
 36 78  2  0  0  0  0
 37 67  1  0  0  0  0
 37 70  1  0  0  0  0
 37 79  2  0  0  0  0
 38 41  1  0  0  0  0
 39 48  1  0  0  0  0
 40 66  1  0  0  0  0
 41 43  1  0  0  0  0
 42 44  1  0  0  0  0
 42 45  1  0  0  0  0
 43 47  1  0  0  0  0
 44 49  1  0  0  0  0
 45 67  1  0  0  0  0
 46 49  1  0  0  0  0
 46 67  1  0  0  0  0
 47 71  1  0  0  0  0
 48 66  1  0  0  0  0
 49 64  1  0  0  0  0
 50 59  1  0  0  0  0
 51 60  1  0  0  0  0
 52 61  1  0  0  0  0
 53 61  1  0  0  0  0
 54 61  1  0  0  0  0
 55 73  1  0  0  0  0
 56 57  1  0  0  0  0
 56 65  1  0  0  0  0
 57 81  1  0  0  0  0
 58 61  1  0  0  0  0
 58 72  1  0  0  0  0
 59 73  1  0  0  0  0
 60 62  1  0  0  0  0
 60 84  1  0  0  0  0
 62 85  1  0  0  0  0
 62 86  1  0  0  0  0
 62 87  1  0  0  0  0
 63 64  1  0  0  0  0
M  CHG  1  73   1
M  ISO  4  37 100  57 101  70 100  81 101
M  END
> <Batch ID>
0018

> <Smiles>
CNC(C)C(=O)NC(C(=O)N1Cc2cc([101O:1][101CH2:1]Cn3c([100NH:0][100C:0](=O)N4CCCC(n5nc(-c6ccc(Oc7ccc(F)cc7F)cc6)c(C(N)=O)c5N)C4)c(Cl)c(C(C)(F)C(F)(F)F)cc3=O)ccc2CC1C(=O)NC1CCCc2ccccc21)C(C)(C)C

> <Shape>
0.198

> <Color>
0.067

> <Negative vol penalty>
0.000

$$$$

  -OEChem-04052316043D

 86 94  0     1  0  0  0  0  0999 V2000
  -27.7040  -25.5224   29.0678 C   0  0  0  0  0  0  0  0  0  0  0  0
  -27.8943  -24.2028   28.6706 C   0  0  0  0  0  0  0  0  0  0  0  0
  -23.2849   -9.8006   19.9127 C   0  0  0  0  0  0  0  0  0  0  0  0
  -23.7323   -9.9422   22.2826 C   0  0  0  0  0  0  0  0  0  0  0  0
  -26.4861  -26.1547   28.8212 C   0  0  0  0  0  0  0  0  0  0  0  0
  -26.8663  -23.5142   28.0276 C   0  0  0  0  0  0  0  0  0  0  0  0
  -28.4960  -20.9006   24.0079 C   0  0  0  0  0  0  0  0  0  0  0  0
  -22.5569   -8.6290   20.1201 C   0  0  0  0  0  0  0  0  0  0  0  0
  -23.0042   -8.7706   22.4901 C   0  0  0  0  0  0  0  0  0  0  0  0
  -29.1425  -19.6902   24.2548 C   0  0  0  0  0  0  0  0  0  0  0  0
  -19.4728   -7.7728   21.2101 C   0  0  0  0  0  0  0  0  0  0  0  0
  -18.2446   -7.6493   20.5607 C   0  0  0  0  0  0  0  0  0  0  0  0
  -30.3324  -14.9727   24.7880 C   0  0  0  0  0  0  0  0  0  0  0  0
  -27.1068  -18.5042   23.7365 C   0  0  0  0  0  0  0  0  0  0  0  0
  -19.0456   -5.6748   19.4217 C   0  0  0  0  0  0  0  0  0  0  0  0
  -23.8727  -10.4571   20.9939 C   0  0  0  0  0  0  0  0  0  0  0  0
  -29.7021  -15.5804   25.8738 C   0  0  0  0  0  0  0  0  0  0  0  0
  -24.1353  -12.9867   20.7941 C   0  0  0  0  0  0  0  0  0  0  0  0
  -25.4460  -25.4766   28.1662 C   0  0  0  0  0  0  0  0  0  0  0  0
  -27.1448  -20.9224   23.6334 C   0  0  0  0  0  0  0  0  0  0  0  0
  -25.6328  -24.1376   27.7732 C   0  0  0  0  0  0  0  0  0  0  0  0
  -26.4462  -19.7160   23.4829 C   0  0  0  0  0  0  0  0  0  0  0  0
  -30.9976  -13.7584   24.9577 C   0  0  0  0  0  0  0  0  0  0  0  0
  -31.0325  -13.1519   26.2133 C   0  0  0  0  0  0  0  0  0  0  0  0
  -22.4165   -8.1141   21.4088 C   0  0  0  0  0  0  0  0  0  0  0  0
  -28.4471  -18.4920   24.1220 C   0  0  0  0  0  0  0  0  0  0  0  0
  -20.4875   -6.8474   20.9654 C   0  0  0  0  0  0  0  0  0  0  0  0
  -18.0310   -6.6003   19.6665 C   0  0  0  0  0  0  0  0  0  0  0  0
  -20.2738   -5.7984   20.0712 C   0  0  0  0  0  0  0  0  0  0  0  0
  -29.7370  -14.9739   27.1294 C   0  0  0  0  0  0  0  0  0  0  0  0
  -30.4022  -13.7597   27.2992 C   0  0  0  0  0  0  0  0  0  0  0  0
  -24.6254  -11.6671   20.7802 C   0  0  0  0  0  0  0  0  0  0  0  0
  -25.2380  -13.7652   20.5402 C   0  0  0  0  0  0  0  0  0  0  0  0
  -22.8025  -13.4660   21.0166 C   0  0  0  0  0  0  0  0  0  0  0  0
  -28.9953  -16.8738   25.6881 C   0  0  0  0  0  0  0  0  0  1  0  0
  -24.4860  -22.1214   24.8970 C   0  0  0  0  0  0  0  0  0  0  0  0
  -23.1753  -21.1348   22.0986 C   0  0  0  0  0  0  0  0  0  0  0  0
  -23.3256  -19.0404   19.4083 C   0  0  0  0  0  0  0  0  0  0  0  0
  -31.1068  -12.9159   21.3692 C   0  0  0  0  0  0  0  0  0  0  0  0
  -24.1308  -26.1866   27.9639 C   0  0  0  0  0  0  0  0  0  0  0  0
  -26.4693  -22.2349   23.3447 C   0  0  0  0  0  0  0  0  0  0  0  0
  -25.0000  -19.6841   23.0636 C   0  0  0  0  0  0  0  0  0  0  0  0
  -23.2225  -25.5069   26.9425 C   0  0  0  0  0  0  0  0  0  0  0  0
  -29.4634  -13.6552   18.2985 C   0  0  0  0  0  0  0  0  0  0  0  0
  -23.1638  -24.0040   27.1970 C   0  0  0  0  0  0  0  0  0  0  0  0
  -27.9929  -13.3486   18.5876 C   0  0  0  0  0  0  0  0  0  0  0  0
  -30.3945  -12.6752   19.0089 C   0  0  0  0  0  0  0  0  0  0  0  0
  -28.7047  -12.2489   20.7516 C   0  0  0  0  0  0  0  0  0  0  0  0
  -24.5503  -23.3652   27.0510 C   0  0  1  0  0  0  0  0  0  0  0  0
  -24.9504  -22.1652   23.4686 C   0  0  1  0  0  0  0  0  0  0  0  0
  -27.7289  -13.2449   20.1018 C   0  0  2  0  0  0  0  0  0  0  0  0
  -22.0927  -18.4426   17.3059 C   0  0  0  0  0  0  0  0  0  0  0  0
  -33.2577  -11.9900   26.0034 C   0  0  0  0  0  0  0  0  0  0  0  0
  -31.1354  -10.7497   25.4614 C   0  0  0  0  0  0  0  0  0  0  0  0
  -31.7303  -11.2544   27.8221 C   0  0  0  0  0  0  0  0  0  0  0  0
  -21.1015  -19.6218   23.7478 C   0  0  0  0  0  0  0  0  0  0  0  0
  -20.5173  -18.3200   21.6905 C   0  0  0  0  0  0  0  0  0  0  0  0
  -20.1837  -20.7917   21.7369 C   0  0  0  0  0  0  0  0  0  0  0  0
  -25.6271  -19.7928   17.7067 C   0  0  0  0  0  0  0  0  0  0  0  0
  -31.6653  -13.1306   23.7778 C   0  0  0  0  0  0  0  0  0  0  0  0
  -22.5306  -19.8599   21.6107 C   0  0  1  0  0  0  0  0  0  0  0  0
  -23.1874  -19.3017   17.9193 C   0  0  2  0  0  0  0  0  0  0  0  0
  -31.7518  -11.8491   26.3775 C   0  0  0  0  0  0  0  0  0  0  0  0
  -21.1100  -19.6487   22.2063 C   0  0  0  0  0  0  0  0  0  0  0  0
  -25.9373  -11.6067   20.5367 N   0  0  0  0  0  0  0  0  0  0  0  0
  -26.2809  -12.8982   20.3951 N   0  0  0  0  0  0  0  0  0  0  0  0
  -24.3818  -20.9937   22.7988 N   0  0  0  0  0  0  0  0  0  0  0  0
  -30.0930  -12.6251   20.4416 N   0  0  0  0  0  0  0  0  0  0  0  0
  -25.4077  -15.0998   20.4292 N   0  0  0  0  0  0  0  0  0  0  0  0
  -21.7885  -12.5304   21.2631 N   0  0  0  0  0  0  0  0  0  0  0  0
  -24.8886  -23.2058   25.6529 N   0  0  0  0  0  0  0  0  0  0  0  0
  -22.5652  -19.9167   20.1534 N   0  0  0  0  0  0  0  0  0  0  0  0
  -30.7351  -12.8517   22.7065 N   0  0  0  0  0  0  0  0  0  0  0  0
  -24.4684  -19.0010   17.2196 N   0  3  0  0  0  0  0  0  0  0  0  0
  -22.5160  -14.6868   20.9810 O   0  0  0  0  0  0  0  0  0  0  0  0
  -28.4232  -17.4597   26.5950 O   0  0  0  0  0  0  0  0  0  0  0  0
  -23.8111  -21.1747   25.2841 O   0  0  0  0  0  0  0  0  0  0  0  0
  -22.6323  -22.2165   21.8607 O   0  0  0  0  0  0  0  0  0  0  0  0
  -24.0340  -18.1457   19.8646 O   0  0  0  0  0  0  0  0  0  0  0  0
  -32.2567  -13.2162   21.0306 O   0  0  0  0  0  0  0  0  0  0  0  0
  -21.7060   -6.9710   21.6116 O   0  0  0  0  0  0  0  0  0  0  0  0
  -29.0755  -17.3092   24.3630 O   0  0  0  0  0  0  0  0  0  1  0  0
  -16.8510   -6.4808   19.0440 F   0  0  0  0  0  0  0  0  0  0  0  0
  -21.2444   -4.9056   19.8329 F   0  0  0  0  0  0  0  0  0  0  0  0
  -29.1285  -15.5635   28.1702 F   0  0  0  0  0  0  0  0  0  0  0  0
  -30.4276  -13.0356   28.8673 Cl  0  0  0  0  0  0  0  0  0  0  0  0
  1  2  1  0  0  0  0
  1  5  2  0  0  0  0
  2  6  2  0  0  0  0
  3  8  2  0  0  0  0
  3 16  1  0  0  0  0
  4  9  1  0  0  0  0
  4 16  2  0  0  0  0
  5 19  1  0  0  0  0
  6 21  1  0  0  0  0
  7 10  2  0  0  0  0
  7 20  1  0  0  0  0
  8 25  1  0  0  0  0
  9 25  2  0  0  0  0
 10 26  1  0  0  0  0
 11 12  2  0  0  0  0
 11 27  1  0  0  0  0
 12 28  1  0  0  0  0
 13 17  1  0  0  0  0
 13 23  2  0  0  0  0
 14 22  1  0  0  0  0
 14 26  2  0  0  0  0
 15 28  2  0  0  0  0
 15 29  1  0  0  0  0
 16 32  1  0  0  0  0
 17 30  2  0  0  0  0
 17 35  1  0  0  0  0
 18 32  1  0  0  0  0
 18 33  2  0  0  0  0
 18 34  1  0  0  0  0
 19 21  2  0  0  0  0
 19 40  1  0  0  0  0
 20 22  2  0  0  0  0
 20 41  1  0  0  0  0
 21 49  1  0  0  0  0
 22 42  1  0  0  0  0
 23 24  1  0  0  0  0
 23 60  1  0  0  0  0
 24 31  2  0  0  0  0
 24 63  1  0  0  0  0
 25 81  1  0  0  0  0
 26 82  1  0  0  0  0
 27 29  2  0  0  0  0
 27 81  1  0  0  0  0
 28 83  1  0  0  0  0
 29 84  1  0  0  0  0
 30 31  1  0  0  0  0
 30 85  1  0  0  0  0
 31 86  1  0  0  0  0
 32 65  2  0  0  0  0
 33 66  1  0  0  0  0
 33 69  1  0  0  0  0
 34 70  1  0  0  0  0
 34 75  2  0  0  0  0
 35 76  2  0  0  0  0
 35 82  1  0  0  0  0
 36 50  1  0  0  0  0
 36 71  1  0  0  0  0
 36 77  2  0  0  0  0
 37 61  1  0  0  0  0
 37 67  1  0  0  0  0
 37 78  2  0  0  0  0
 38 62  1  0  0  0  0
 38 72  1  0  0  0  0
 38 79  2  0  0  0  0
 39 68  1  0  0  0  0
 39 73  1  0  0  0  0
 39 80  2  0  0  0  0
 40 43  1  0  0  0  0
 41 50  1  0  0  0  0
 42 67  1  0  0  0  0
 43 45  1  0  0  0  0
 44 46  1  0  0  0  0
 44 47  1  0  0  0  0
 45 49  1  0  0  0  0
 46 51  1  0  0  0  0
 47 68  1  0  0  0  0
 48 51  1  0  0  0  0
 48 68  1  0  0  0  0
 49 71  1  0  0  0  0
 50 67  1  0  0  0  0
 51 66  1  0  0  0  0
 52 62  1  0  0  0  0
 53 63  1  0  0  0  0
 54 63  1  0  0  0  0
 55 63  1  0  0  0  0
 56 64  1  0  0  0  0
 57 64  1  0  0  0  0
 58 64  1  0  0  0  0
 59 74  1  0  0  0  0
 60 73  1  0  0  0  0
 61 64  1  0  0  0  0
 61 72  1  0  0  0  0
 62 74  1  0  0  0  0
 65 66  1  0  0  0  0
M  CHG  1  74   1
M  ISO  4  35 101  39 100  73 100  82 101
M  END
> <Batch ID>
0018

> <Smiles>
CNC(C)C(=O)NC(C(=O)N1Cc2cc([101O:1][101C:1](=O)c3cc(C[100NH:0][100C:0](=O)N4CCCC(n5nc(-c6ccc(Oc7ccc(F)cc7F)cc6)c(C(N)=O)c5N)C4)c(C(C)(C)C)c(Cl)c3F)ccc2CC1C(=O)NC1CCCc2ccccc21)C(C)(C)C

> <Shape>
0.118

> <Color>
0.178

> <Negative vol penalty>
0.000

$$$$

  -OEChem-04052316043D

 81 89  0     1  0  0  0  0  0999 V2000
  -18.0872  -16.1727   23.1386 C   0  0  0  0  0  0  0  0  0  0  0  0
  -19.3081  -16.8183   23.3059 C   0  0  0  0  0  0  0  0  0  0  0  0
  -21.2681  -27.1198   19.7262 C   0  0  0  0  0  0  0  0  0  0  0  0
  -21.8324  -25.9266   21.7498 C   0  0  0  0  0  0  0  0  0  0  0  0
  -18.0340  -14.7797   23.1150 C   0  0  0  0  0  0  0  0  0  0  0  0
  -20.4765  -16.0711   23.4509 C   0  0  0  0  0  0  0  0  0  0  0  0
  -24.2942  -17.8722   20.6534 C   0  0  0  0  0  0  0  0  0  0  0  0
  -28.5321  -21.3430   24.7654 C   0  0  0  0  0  0  0  0  0  0  0  0
  -20.0462  -26.4493   19.6715 C   0  0  0  0  0  0  0  0  0  0  0  0
  -20.6104  -25.2561   21.6951 C   0  0  0  0  0  0  0  0  0  0  0  0
  -24.9620  -18.9968   21.1362 C   0  0  0  0  0  0  0  0  0  0  0  0
  -19.2695  -22.6553   20.0015 C   0  0  0  0  0  0  0  0  0  0  0  0
  -19.2745  -21.2793   20.2299 C   0  0  0  0  0  0  0  0  0  0  0  0
  -29.0269  -22.5560   25.2444 C   0  0  0  0  0  0  0  0  0  0  0  0
  -26.7291  -17.5821   21.9698 C   0  0  0  0  0  0  0  0  0  0  0  0
  -17.7998  -21.5875   22.1187 C   0  0  0  0  0  0  0  0  0  0  0  0
  -22.1612  -26.8584   20.7653 C   0  0  0  0  0  0  0  0  0  0  0  0
  -23.6956  -28.7718   21.4669 C   0  0  0  0  0  0  0  0  0  0  0  0
  -19.2036  -14.0152   23.2501 C   0  0  0  0  0  0  0  0  0  0  0  0
  -24.8344  -16.5910   20.8351 C   0  0  0  0  0  0  0  0  0  0  0  0
  -20.4387  -14.6665   23.4305 C   0  0  0  0  0  0  0  0  0  0  0  0
  -26.0674  -16.4431   21.4862 C   0  0  0  0  0  0  0  0  0  0  0  0
  -28.6194  -21.0422   23.4061 C   0  0  0  0  0  0  0  0  0  0  0  0
  -29.6961  -23.1675   23.0049 C   0  0  0  0  0  0  0  0  0  0  0  0
  -19.7174  -25.5175   20.6560 C   0  0  0  0  0  0  0  0  0  0  0  0
  -26.1782  -18.8516   21.7971 C   0  0  0  0  0  0  0  0  0  0  0  0
  -18.5296  -23.4974   20.8317 C   0  0  0  0  0  0  0  0  0  0  0  0
  -18.5396  -20.7454   21.2885 C   0  0  0  0  0  0  0  0  0  0  0  0
  -17.7948  -22.9635   21.8902 C   0  0  0  0  0  0  0  0  0  0  0  0
  -29.6089  -23.4682   24.3642 C   0  0  0  0  0  0  0  0  0  0  0  0
  -29.2014  -21.9544   22.5259 C   0  0  0  0  0  0  0  0  0  0  0  0
  -23.4239  -27.5503   20.8221 C   0  0  0  0  0  0  0  0  0  0  0  0
  -25.0295  -28.9966   21.2285 C   0  0  0  0  0  0  0  0  0  0  0  0
  -22.8206  -29.6269   22.2145 C   0  0  0  0  0  0  0  0  0  0  0  0
  -23.8990  -13.9560   22.3469 C   0  0  0  0  0  0  0  0  0  0  0  0
  -26.5351  -12.6855   20.9471 C   0  0  0  0  0  0  0  0  0  0  0  0
  -29.6158  -13.1969   19.5705 C   0  0  0  0  0  0  0  0  0  0  0  0
  -29.6238  -25.3556   20.0093 C   0  0  0  0  0  0  0  0  0  0  0  0
  -19.0901  -12.5113   23.2658 C   0  0  0  0  0  0  0  0  0  0  0  0
  -24.1146  -15.3903   20.2848 C   0  0  0  0  0  0  0  0  0  0  0  0
  -26.6999  -15.0913   21.6891 C   0  0  0  0  0  0  0  0  0  0  0  0
  -20.4223  -11.7977   23.0508 C   0  0  0  0  0  0  0  0  0  0  0  0
  -28.4680  -28.0805   18.0304 C   0  0  0  0  0  0  0  0  0  0  0  0
  -21.5071  -12.4173   23.9260 C   0  0  0  0  0  0  0  0  0  0  0  0
  -27.0687  -28.3638   18.5796 C   0  0  0  0  0  0  0  0  0  0  0  0
  -28.7825  -26.5861   18.0307 C   0  0  0  0  0  0  0  0  0  0  0  0
  -27.2011  -26.1985   19.8807 C   0  0  0  0  0  0  0  0  0  0  0  0
  -21.7312  -13.8911   23.5663 C   0  0  1  0  0  0  0  0  0  0  0  0
  -24.5058  -14.0893   20.9788 C   0  0  1  0  0  0  0  0  0  0  0  0
  -26.8595  -27.6967   19.9524 C   0  0  2  0  0  0  0  0  0  0  0  0
  -31.5467  -11.9617   18.5493 C   0  0  0  0  0  0  0  0  0  0  0  0
  -27.4142  -11.7705   23.7220 C   0  0  0  0  0  0  0  0  0  0  0  0
  -29.7143  -11.4143   22.7995 C   0  0  0  0  0  0  0  0  0  0  0  0
  -27.7949  -10.0974   21.9026 C   0  0  0  0  0  0  0  0  0  0  0  0
  -29.3146  -14.6215   16.9940 C   0  0  0  0  0  0  0  0  0  0  0  0
  -30.3225  -24.1510   22.0635 C   0  0  0  0  0  0  0  0  0  0  0  0
  -28.0735  -19.7256   22.9372 C   0  0  0  0  0  0  0  0  0  1  0  0
  -27.9894  -12.5522   21.3294 C   0  0  1  0  0  0  0  0  0  0  0  0
  -30.2397  -12.6919   18.2821 C   0  0  2  0  0  0  0  0  0  0  0  0
  -28.2156  -11.4840   22.4364 C   0  0  0  0  0  0  0  0  0  0  0  0
  -24.4987  -27.0352   20.2192 N   0  0  0  0  0  0  0  0  0  0  0  0
  -25.4587  -27.9375   20.4841 N   0  0  0  0  0  0  0  0  0  0  0  0
  -25.9545  -13.9473   21.1385 N   0  0  0  0  0  0  0  0  0  0  0  0
  -28.5656  -26.0147   19.3620 N   0  0  0  0  0  0  0  0  0  0  0  0
  -25.8652  -29.9950   21.5850 N   0  0  0  0  0  0  0  0  0  0  0  0
  -21.4800  -29.2458   22.3627 N   0  0  0  0  0  0  0  0  0  0  0  0
  -22.5180  -14.0022   22.3568 N   0  0  0  0  0  0  0  0  0  0  0  0
  -28.7149  -12.2919   20.0908 N   0  0  0  0  0  0  0  0  0  0  0  0
  -29.3352  -24.8489   21.2705 N   0  0  0  0  0  0  0  0  0  0  0  0
  -30.5169  -13.8295   17.3601 N   0  3  0  0  0  0  0  0  0  0  0  0
  -23.2120  -30.7053   22.7218 O   0  0  0  0  0  0  0  0  0  0  0  0
  -24.6296  -13.8197   23.3212 O   0  0  0  0  0  0  0  0  0  0  0  0
  -25.9383  -11.7082   20.4886 O   0  0  0  0  0  0  0  0  0  0  0  0
  -29.9018  -14.2838   20.0678 O   0  0  0  0  0  0  0  0  0  0  0  0
  -30.7443  -25.2328   19.5030 O   0  0  0  0  0  0  0  0  0  0  0  0
  -18.5250  -24.8632   20.6030 O   0  0  0  0  0  0  0  0  0  0  0  0
  -26.8318  -19.9475   22.2699 O   0  0  0  0  0  0  0  0  0  1  0  0
  -18.5433  -19.4238   21.5069 F   0  0  0  0  0  0  0  0  0  0  0  0
  -17.0812  -23.7674   22.6904 F   0  0  0  0  0  0  0  0  0  0  0  0
  -30.2081  -24.9576   25.0010 Cl  0  0  0  0  0  0  0  0  0  0  0  0
  -29.3065  -21.5747   20.8386 Cl  0  0  0  0  0  0  0  0  0  0  0  0
  1  2  1  0  0  0  0
  1  5  2  0  0  0  0
  2  6  2  0  0  0  0
  3  9  2  0  0  0  0
  3 17  1  0  0  0  0
  4 10  1  0  0  0  0
  4 17  2  0  0  0  0
  5 19  1  0  0  0  0
  6 21  1  0  0  0  0
  7 11  2  0  0  0  0
  7 20  1  0  0  0  0
  8 14  2  0  0  0  0
  8 23  1  0  0  0  0
  9 25  1  0  0  0  0
 10 25  2  0  0  0  0
 11 26  1  0  0  0  0
 12 13  2  0  0  0  0
 12 27  1  0  0  0  0
 13 28  1  0  0  0  0
 14 30  1  0  0  0  0
 15 22  1  0  0  0  0
 15 26  2  0  0  0  0
 16 28  2  0  0  0  0
 16 29  1  0  0  0  0
 17 32  1  0  0  0  0
 18 32  1  0  0  0  0
 18 33  2  0  0  0  0
 18 34  1  0  0  0  0
 19 21  2  0  0  0  0
 19 39  1  0  0  0  0
 20 22  2  0  0  0  0
 20 40  1  0  0  0  0
 21 48  1  0  0  0  0
 22 41  1  0  0  0  0
 23 31  2  0  0  0  0
 23 57  1  0  0  0  0
 24 30  2  0  0  0  0
 24 31  1  0  0  0  0
 24 56  1  0  0  0  0
 25 76  1  0  0  0  0
 26 77  1  0  0  0  0
 27 29  2  0  0  0  0
 27 76  1  0  0  0  0
 28 78  1  0  0  0  0
 29 79  1  0  0  0  0
 30 80  1  0  0  0  0
 31 81  1  0  0  0  0
 32 61  2  0  0  0  0
 33 62  1  0  0  0  0
 33 65  1  0  0  0  0
 34 66  1  0  0  0  0
 34 71  2  0  0  0  0
 35 49  1  0  0  0  0
 35 67  1  0  0  0  0
 35 72  2  0  0  0  0
 36 58  1  0  0  0  0
 36 63  1  0  0  0  0
 36 73  2  0  0  0  0
 37 59  1  0  0  0  0
 37 68  1  0  0  0  0
 37 74  2  0  0  0  0
 38 64  1  0  0  0  0
 38 69  1  0  0  0  0
 38 75  2  0  0  0  0
 39 42  1  0  0  0  0
 40 49  1  0  0  0  0
 41 63  1  0  0  0  0
 42 44  1  0  0  0  0
 43 45  1  0  0  0  0
 43 46  1  0  0  0  0
 44 48  1  0  0  0  0
 45 50  1  0  0  0  0
 46 64  1  0  0  0  0
 47 50  1  0  0  0  0
 47 64  1  0  0  0  0
 48 67  1  0  0  0  0
 49 63  1  0  0  0  0
 50 62  1  0  0  0  0
 51 59  1  0  0  0  0
 52 60  1  0  0  0  0
 53 60  1  0  0  0  0
 54 60  1  0  0  0  0
 55 70  1  0  0  0  0
 56 69  1  0  0  0  0
 57 77  1  0  0  0  0
 58 60  1  0  0  0  0
 58 68  1  0  0  0  0
 59 70  1  0  0  0  0
 61 62  1  0  0  0  0
M  CHG  1  70   1
M  ISO  4  38 100  57 101  69 100  77 101
M  END
> <Batch ID>
0018

> <Smiles>
CNC(C)C(=O)NC(C(=O)N1Cc2cc([101O:1][101CH2:1]c3ccc(Cl)c(C[100NH:0][100C:0](=O)N4CCCC(n5nc(-c6ccc(Oc7ccc(F)cc7F)cc6)c(C(N)=O)c5N)C4)c3Cl)ccc2CC1C(=O)NC1CCCc2ccccc21)C(C)(C)C

> <Shape>
0.185

> <Color>
0.064

> <Negative vol penalty>
0.000

$$$$

  -OEChem-04052316043D

 96106  0     1  0  0  0  0  0999 V2000
  -24.7915  -22.2861   23.1689 C   0  0  0  0  0  0  0  0  0  0  0  0
  -25.3353  -23.4282   22.5899 C   0  0  0  0  0  0  0  0  0  0  0  0
  -23.8347  -10.1962   22.2227 C   0  0  0  0  0  0  0  0  0  0  0  0
  -25.0843   -8.1378   22.0263 C   0  0  0  0  0  0  0  0  0  0  0  0
  -23.6072  -21.7478   22.6671 C   0  0  0  0  0  0  0  0  0  0  0  0
  -24.6956  -24.0321   21.5079 C   0  0  0  0  0  0  0  0  0  0  0  0
  -24.4479  -29.0697   21.9624 C   0  0  0  0  0  0  0  0  0  0  0  0
  -22.6415   -9.4823   22.1132 C   0  0  0  0  0  0  0  0  0  0  0  0
  -23.8911   -7.4239   21.9168 C   0  0  0  0  0  0  0  0  0  0  0  0
  -25.6044  -29.7927   21.6731 C   0  0  0  0  0  0  0  0  0  0  0  0
  -21.1648   -5.0188   21.9475 C   0  0  0  0  0  0  0  0  0  0  0  0
  -21.0392   -3.8460   22.6920 C   0  0  0  0  0  0  0  0  0  0  0  0
  -24.7231  -30.3168   19.4895 C   0  0  0  0  0  0  0  0  0  0  0  0
  -30.1349  -21.8391   18.4191 C   0  0  0  0  0  0  0  0  0  0  0  0
  -29.5424  -22.7535   20.5754 C   0  0  0  0  0  0  0  0  0  0  0  0
  -21.3475   -5.1066   24.7299 C   0  0  0  0  0  0  0  0  0  0  0  0
  -29.4707  -26.5908   18.6808 C   0  0  0  0  0  0  0  0  0  0  0  0
  -25.0562   -9.5240   22.1792 C   0  0  0  0  0  0  0  0  0  0  0  0
  -26.9886  -10.5726   23.4731 C   0  0  0  0  0  0  0  0  0  0  0  0
  -22.9476  -22.3510   21.5847 C   0  0  0  0  0  0  0  0  0  0  0  0
  -23.4234  -28.9555   21.0118 C   0  0  0  0  0  0  0  0  0  0  0  0
  -23.5022  -23.5006   20.9903 C   0  0  0  0  0  0  0  0  0  0  0  0
  -23.5536  -29.5939   19.7702 C   0  0  0  0  0  0  0  0  0  0  0  0
  -29.8336  -20.3695   20.3128 C   0  0  0  0  0  0  0  0  0  0  0  0
  -30.1316  -20.5546   18.9628 C   0  0  0  0  0  0  0  0  0  0  0  0
  -29.5390  -21.4689   21.1192 C   0  0  0  0  0  0  0  0  0  0  0  0
  -29.8404  -22.9386   19.2254 C   0  0  0  0  0  0  0  0  0  0  0  0
  -22.6696   -8.0962   21.9603 C   0  0  0  0  0  0  0  0  0  0  0  0
  -25.7433  -30.4140   20.4354 C   0  0  0  0  0  0  0  0  0  0  0  0
  -21.3818   -6.2355   22.5942 C   0  0  0  0  0  0  0  0  0  0  0  0
  -21.1306   -3.8899   24.0832 C   0  0  0  0  0  0  0  0  0  0  0  0
  -21.4731   -6.2795   23.9853 C   0  0  0  0  0  0  0  0  0  0  0  0
  -26.2892  -10.2610   22.2917 C   0  0  0  0  0  0  0  0  0  0  0  0
  -30.1267  -25.5040   19.2220 C   0  0  0  0  0  0  0  0  0  0  0  0
  -29.7757  -27.8133   19.2436 C   0  0  0  0  0  0  0  0  0  0  0  0
  -28.0864  -11.2789   23.0460 C   0  0  0  0  0  0  0  0  0  0  0  0
  -31.2263  -26.8388   20.6973 C   0  0  0  0  0  0  0  0  0  0  0  0
  -26.6740  -10.2523   24.8347 C   0  0  0  0  0  0  0  0  0  0  0  0
  -22.0717  -26.5394   19.4500 C   0  0  0  0  0  0  0  0  0  0  0  0
  -20.0615  -28.8565   18.3953 C   0  0  0  0  0  0  0  0  0  0  0  0
  -19.5347  -32.1693   17.7668 C   0  0  0  0  0  0  0  0  0  0  0  0
  -30.5193  -15.0537   19.9071 C   0  0  0  0  0  0  0  0  0  0  0  0
  -21.6951  -21.7056   21.0468 C   0  0  0  0  0  0  0  0  0  0  0  0
  -22.1707  -28.1943   21.3493 C   0  0  0  0  0  0  0  0  0  0  0  0
  -22.4740  -29.5186   18.7227 C   0  0  0  0  0  0  0  0  0  0  0  0
  -20.8804  -22.6214   20.1369 C   0  0  0  0  0  0  0  0  0  0  0  0
  -29.9555  -11.9906   18.4079 C   0  0  0  0  0  0  0  0  0  0  0  0
  -21.7885  -23.3149   19.1263 C   0  0  0  0  0  0  0  0  0  0  0  0
  -29.0086  -11.2812   19.3757 C   0  0  0  0  0  0  0  0  0  0  0  0
  -28.7640  -18.0730   20.2549 C   0  0  0  0  0  0  0  0  0  0  0  0
  -31.2185  -18.3105   20.8281 C   0  0  0  0  0  0  0  0  0  0  0  0
  -29.5825  -13.4610   18.2590 C   0  0  0  0  0  0  0  0  0  0  0  0
  -28.7885  -16.6556   20.8341 C   0  0  0  0  0  0  0  0  0  0  0  0
  -31.1788  -16.9027   21.4154 C   0  0  0  0  0  0  0  0  0  0  0  0
  -28.6054  -13.5115   20.5307 C   0  0  0  0  0  0  0  0  0  0  0  0
  -29.8308  -18.9726   20.9045 C   0  0  0  0  0  0  0  0  0  0  0  0
  -22.8246  -24.1987   19.8311 C   0  0  1  0  0  0  0  0  0  0  0  0
  -21.4126  -27.7142   20.1156 C   0  0  1  0  0  0  0  0  0  0  0  0
  -28.9419  -12.0189   20.7247 C   0  0  1  0  0  0  0  0  0  0  0  0
  -30.4510  -19.3943   18.0779 C   0  0  0  0  0  0  0  0  0  0  0  0
  -29.2168  -21.2977   22.5677 C   0  0  0  0  0  0  0  0  0  0  0  0
  -32.2013  -26.9766   21.8170 C   0  0  0  0  0  0  0  0  0  0  0  0
  -17.8073  -33.7540   16.8712 C   0  0  0  0  0  0  0  0  0  0  0  0
  -20.6989  -27.9422   15.5550 C   0  0  0  0  0  0  0  0  0  0  0  0
  -19.7386  -30.0984   14.7200 C   0  0  0  0  0  0  0  0  0  0  0  0
  -18.2921  -28.4881   15.9598 C   0  0  0  0  0  0  0  0  0  0  0  0
  -19.3902  -33.6430   20.3293 C   0  0  0  0  0  0  0  0  0  0  0  0
  -28.7908  -31.3205   18.6962 C   0  0  0  0  0  0  0  0  0  0  0  0
  -27.2803  -31.1696   18.7853 C   0  0  0  0  0  0  0  0  0  1  0  0
  -29.5184  -30.1736   19.3799 C   0  0  0  0  0  0  0  0  0  0  0  0
  -20.0450  -29.8039   17.2201 C   0  0  1  0  0  0  0  0  0  0  0  0
  -18.3779  -33.0889   18.1141 C   0  0  2  0  0  0  0  0  0  0  0  0
  -19.7150  -29.0831   15.8825 C   0  0  0  0  0  0  0  0  0  0  0  0
  -26.8921  -10.7309   21.1964 N   0  0  0  0  0  0  0  0  0  0  0  0
  -31.0141  -25.5921   20.2345 N   0  0  0  0  0  0  0  0  0  0  0  0
  -30.6518  -27.9744   20.2569 N   0  0  0  0  0  0  0  0  0  0  0  0
  -27.9818  -11.3451   21.6877 N   0  0  0  0  0  0  0  0  0  0  0  0
  -21.2709  -28.7574   19.0978 N   0  0  0  0  0  0  0  0  0  0  0  0
  -29.5262  -14.1250   19.5611 N   0  0  0  0  0  0  0  0  0  0  0  0
  -30.1446  -16.0928   20.7722 N   0  0  0  0  0  0  0  0  0  0  0  0
  -29.1214  -11.8436   23.7036 N   0  0  0  0  0  0  0  0  0  0  0  0
  -25.5078   -9.5202   25.0966 N   0  0  0  0  0  0  0  0  0  0  0  0
  -29.8432  -24.2372   18.6755 N   0  0  0  0  0  0  0  0  0  0  0  0
  -22.2177  -25.4370   20.2703 N   0  0  0  0  0  0  0  0  0  0  0  0
  -19.1137  -30.8712   17.5692 N   0  0  0  0  0  0  0  0  0  0  0  0
  -18.8277  -34.1551   19.0532 N   0  3  0  0  0  0  0  0  0  0  0  0
  -27.3967  -10.6188   25.7922 O   0  0  0  0  0  0  0  0  0  0  0  0
  -22.4206  -26.6261   18.2784 O   0  0  0  0  0  0  0  0  0  0  0  0
  -19.0371  -28.2330   18.6840 O   0  0  0  0  0  0  0  0  0  0  0  0
  -20.6952  -32.5638   17.6760 O   0  0  0  0  0  0  0  0  0  0  0  0
  -31.6731  -14.9603   19.4700 O   0  0  0  0  0  0  0  0  0  0  0  0
  -21.5054   -7.3992   21.8536 O   0  0  0  0  0  0  0  0  0  0  0  0
  -26.8795  -31.1249   20.1481 O   0  0  0  0  0  0  0  0  0  1  0  0
  -29.1659  -28.9413   18.7620 O   0  0  0  0  0  0  0  0  0  0  0  0
  -21.0084   -2.7638   24.7981 F   0  0  0  0  0  0  0  0  0  0  0  0
  -21.6802   -7.4456   24.6122 F   0  0  0  0  0  0  0  0  0  0  0  0
  1  2  1  0  0  0  0
  1  5  2  0  0  0  0
  2  6  2  0  0  0  0
  3  8  2  0  0  0  0
  3 18  1  0  0  0  0
  4  9  1  0  0  0  0
  4 18  2  0  0  0  0
  5 20  1  0  0  0  0
  6 22  1  0  0  0  0
  7 10  2  0  0  0  0
  7 21  1  0  0  0  0
  8 28  1  0  0  0  0
  9 28  2  0  0  0  0
 10 29  1  0  0  0  0
 11 12  2  0  0  0  0
 11 30  1  0  0  0  0
 12 31  1  0  0  0  0
 13 23  1  0  0  0  0
 13 29  2  0  0  0  0
 14 25  2  0  0  0  0
 14 27  1  0  0  0  0
 15 26  1  0  0  0  0
 15 27  2  0  0  0  0
 16 31  2  0  0  0  0
 16 32  1  0  0  0  0
 17 34  2  0  0  0  0
 17 35  1  0  0  0  0
 18 33  1  0  0  0  0
 19 33  1  0  0  0  0
 19 36  2  0  0  0  0
 19 38  1  0  0  0  0
 20 22  2  0  0  0  0
 20 43  1  0  0  0  0
 21 23  2  0  0  0  0
 21 44  1  0  0  0  0
 22 57  1  0  0  0  0
 23 45  1  0  0  0  0
 24 25  1  0  0  0  0
 24 26  2  0  0  0  0
 24 56  1  0  0  0  0
 25 60  1  0  0  0  0
 26 61  1  0  0  0  0
 27 83  1  0  0  0  0
 28 92  1  0  0  0  0
 29 93  1  0  0  0  0
 30 32  2  0  0  0  0
 30 92  1  0  0  0  0
 31 95  1  0  0  0  0
 32 96  1  0  0  0  0
 33 74  2  0  0  0  0
 34 75  1  0  0  0  0
 34 83  1  0  0  0  0
 35 76  2  0  0  0  0
 35 94  1  0  0  0  0
 36 77  1  0  0  0  0
 36 81  1  0  0  0  0
 37 62  1  0  0  0  0
 37 75  2  0  0  0  0
 37 76  1  0  0  0  0
 38 82  1  0  0  0  0
 38 87  2  0  0  0  0
 39 58  1  0  0  0  0
 39 84  1  0  0  0  0
 39 88  2  0  0  0  0
 40 71  1  0  0  0  0
 40 78  1  0  0  0  0
 40 89  2  0  0  0  0
 41 72  1  0  0  0  0
 41 85  1  0  0  0  0
 41 90  2  0  0  0  0
 42 79  1  0  0  0  0
 42 80  1  0  0  0  0
 42 91  2  0  0  0  0
 43 46  1  0  0  0  0
 44 58  1  0  0  0  0
 45 78  1  0  0  0  0
 46 48  1  0  0  0  0
 47 49  1  0  0  0  0
 47 52  1  0  0  0  0
 48 57  1  0  0  0  0
 49 59  1  0  0  0  0
 50 53  1  0  0  0  0
 50 56  1  0  0  0  0
 51 54  1  0  0  0  0
 51 56  1  0  0  0  0
 52 79  1  0  0  0  0
 53 80  1  0  0  0  0
 54 80  1  0  0  0  0
 55 59  1  0  0  0  0
 55 79  1  0  0  0  0
 57 84  1  0  0  0  0
 58 78  1  0  0  0  0
 59 77  1  0  0  0  0
 63 72  1  0  0  0  0
 64 73  1  0  0  0  0
 65 73  1  0  0  0  0
 66 73  1  0  0  0  0
 67 86  1  0  0  0  0
 68 69  1  0  0  0  0
 68 70  1  0  0  0  0
 69 93  1  0  0  0  0
 70 94  1  0  0  0  0
 71 73  1  0  0  0  0
 71 85  1  0  0  0  0
 72 86  1  0  0  0  0
 74 77  1  0  0  0  0
M  CHG  1  86   1
M  ISO  4  42 100  69 101  80 100  93 101
M  END
> <Batch ID>
0018

> <Smiles>
CNC(C)C(=O)NC(C(=O)N1Cc2cc([101O:1][101CH2:1]CCOc3cc(Nc4cc(C)c(C5CC[100N:0]([100C:0](=O)N6CCCC(n7nc(-c8ccc(Oc9ccc(F)cc9F)cc8)c(C(N)=O)c7N)C6)CC5)c(C)c4)nc(C)n3)ccc2CC1C(=O)NC1CCCc2ccccc21)C(C)(C)C

> <Shape>
0.254

> <Color>
0.085

> <Negative vol penalty>
0.000

$$$$

  -OEChem-04052316043D

 75 82  0     1  0  0  0  0  0999 V2000
  -32.6757  -26.9307   24.1935 C   0  0  0  0  0  0  0  0  0  0  0  0
  -33.2702  -25.6961   23.9527 C   0  0  0  0  0  0  0  0  0  0  0  0
  -23.1714   -9.8811   19.9137 C   0  0  0  0  0  0  0  0  0  0  0  0
  -23.5557  -10.0089   22.2955 C   0  0  0  0  0  0  0  0  0  0  0  0
  -31.2939  -27.0727   24.0744 C   0  0  0  0  0  0  0  0  0  0  0  0
  -32.4830  -24.6026   23.5938 C   0  0  0  0  0  0  0  0  0  0  0  0
  -34.0021  -20.0717   19.7637 C   0  0  0  0  0  0  0  0  0  0  0  0
  -22.3855   -8.7442   20.1014 C   0  0  0  0  0  0  0  0  0  0  0  0
  -22.7697   -8.8720   22.4833 C   0  0  0  0  0  0  0  0  0  0  0  0
  -34.4800  -18.7802   19.9813 C   0  0  0  0  0  0  0  0  0  0  0  0
  -21.1601   -5.7946   23.5550 C   0  0  0  0  0  0  0  0  0  0  0  0
  -21.6407   -4.8094   24.4175 C   0  0  0  0  0  0  0  0  0  0  0  0
  -32.2307  -17.9255   19.8106 C   0  0  0  0  0  0  0  0  0  0  0  0
  -23.5927   -4.5381   23.0199 C   0  0  0  0  0  0  0  0  0  0  0  0
  -23.7566  -10.5135   21.0107 C   0  0  0  0  0  0  0  0  0  0  0  0
  -24.1389  -13.0281   20.8149 C   0  0  0  0  0  0  0  0  0  0  0  0
  -30.4903  -25.9827   23.7044 C   0  0  0  0  0  0  0  0  0  0  0  0
  -32.6312  -20.3016   19.5785 C   0  0  0  0  0  0  0  0  0  0  0  0
  -31.0889  -24.7299   23.4710 C   0  0  0  0  0  0  0  0  0  0  0  0
  -31.7382  -19.2206   19.5883 C   0  0  0  0  0  0  0  0  0  0  0  0
  -22.1846   -8.2396   21.3862 C   0  0  0  0  0  0  0  0  0  0  0  0
  -33.5940  -17.7072   20.0076 C   0  0  0  0  0  0  0  0  0  0  0  0
  -21.8957   -6.1515   22.4248 C   0  0  0  0  0  0  0  0  0  0  0  0
  -22.8571   -4.1812   24.1500 C   0  0  0  0  0  0  0  0  0  0  0  0
  -23.1120   -5.5233   22.1573 C   0  0  0  0  0  0  0  0  0  0  0  0
  -24.5690  -11.6876   20.8173 C   0  0  0  0  0  0  0  0  0  0  0  0
  -25.2825  -13.7553   20.5922 C   0  0  0  0  0  0  0  0  0  0  0  0
  -22.8231  -13.5676   20.9979 C   0  0  0  0  0  0  0  0  0  0  0  0
  -30.4033  -21.9519   21.1331 C   0  0  0  0  0  0  0  0  0  0  0  0
  -28.5643  -21.1105   18.5969 C   0  0  0  0  0  0  0  0  0  0  0  0
  -27.9950  -18.9426   16.0234 C   0  0  0  0  0  0  0  0  0  0  0  0
  -30.8946  -12.8120   21.6977 C   0  0  0  0  0  0  0  0  0  0  0  0
  -28.9959  -26.1732   23.6345 C   0  0  0  0  0  0  0  0  0  0  0  0
  -32.1347  -21.6974   19.3183 C   0  0  0  0  0  0  0  0  0  0  0  0
  -30.2595  -19.4115   19.3746 C   0  0  0  0  0  0  0  0  0  0  0  0
  -28.2739  -25.0566   22.8848 C   0  0  0  0  0  0  0  0  0  0  0  0
  -29.5634  -13.4701   18.4935 C   0  0  0  0  0  0  0  0  0  0  0  0
  -28.7751  -23.6921   23.3473 C   0  0  0  0  0  0  0  0  0  0  0  0
  -28.0758  -13.2078   18.7242 C   0  0  0  0  0  0  0  0  0  0  0  0
  -30.4457  -12.4569   19.2251 C   0  0  0  0  0  0  0  0  0  0  0  0
  -28.6659  -12.0818   20.9026 C   0  0  0  0  0  0  0  0  0  0  0  0
  -30.2714  -23.5261   23.0554 C   0  0  1  0  0  0  0  0  0  0  0  0
  -30.6576  -21.8785   19.6540 C   0  0  1  0  0  0  0  0  0  0  0  0
  -27.7589  -13.1219   20.2273 C   0  0  2  0  0  0  0  0  0  0  0  0
  -26.3932  -18.4922   14.1448 C   0  0  0  0  0  0  0  0  0  0  0  0
  -26.5394  -20.0021   20.5923 C   0  0  0  0  0  0  0  0  0  0  0  0
  -25.4680  -18.7534   18.7052 C   0  0  0  0  0  0  0  0  0  0  0  0
  -25.5353  -21.2467   18.6695 C   0  0  0  0  0  0  0  0  0  0  0  0
  -32.9464  -11.7573   20.6572 C   0  0  0  0  0  0  0  0  0  0  0  0
  -30.1157  -19.2623   13.9840 C   0  0  0  0  0  0  0  0  0  0  0  0
  -34.0098  -14.5134   21.6426 C   0  0  0  0  0  0  0  0  0  0  0  0
  -33.1585  -13.4978   22.3926 C   0  0  0  0  0  0  0  0  0  0  0  0
  -33.1773  -15.5314   20.8726 C   0  0  0  0  0  0  0  0  0  1  0  0
  -27.6645  -19.9435   18.2691 C   0  0  1  0  0  0  0  0  0  0  0  0
  -27.6858  -19.1798   14.5562 C   0  0  2  0  0  0  0  0  0  0  0  0
  -26.3294  -19.9827   19.0650 C   0  0  0  0  0  0  0  0  0  0  0  0
  -25.8833  -11.5675   20.6121 N   0  0  0  0  0  0  0  0  0  0  0  0
  -26.2889  -12.8418   20.4787 N   0  0  0  0  0  0  0  0  0  0  0  0
  -29.8221  -20.7959   19.1303 N   0  0  0  0  0  0  0  0  0  0  0  0
  -30.0786  -12.3718   20.6452 N   0  0  0  0  0  0  0  0  0  0  0  0
  -25.5154  -15.0806   20.4843 N   0  0  0  0  0  0  0  0  0  0  0  0
  -21.7612  -12.6794   21.2161 N   0  0  0  0  0  0  0  0  0  0  0  0
  -30.4832  -23.2289   21.6549 N   0  0  0  0  0  0  0  0  0  0  0  0
  -27.4967  -19.9518   16.8199 N   0  0  0  0  0  0  0  0  0  0  0  0
  -32.2827  -12.7457   21.5051 N   0  0  0  0  0  0  0  0  0  0  0  0
  -28.7893  -18.6552   13.7029 N   0  3  0  0  0  0  0  0  0  0  0  0
  -22.5933  -14.7999   20.9523 O   0  0  0  0  0  0  0  0  0  0  0  0
  -30.1517  -20.9261   21.7545 O   0  0  0  0  0  0  0  0  0  0  0  0
  -28.1685  -22.2586   18.3806 O   0  0  0  0  0  0  0  0  0  0  0  0
  -28.6131  -17.9585   16.4232 O   0  0  0  0  0  0  0  0  0  0  0  0
  -30.4107  -13.2342   22.7559 O   0  0  0  0  0  0  0  0  0  0  0  0
  -21.4176   -7.1304   21.5699 O   0  0  0  0  0  0  0  0  0  0  0  0
  -34.0578  -16.4457   20.2205 O   0  0  0  0  0  0  0  0  0  1  0  0
  -23.3193   -3.2362   24.9792 F   0  0  0  0  0  0  0  0  0  0  0  0
  -23.8238   -5.8629   21.0738 F   0  0  0  0  0  0  0  0  0  0  0  0
  1  2  1  0  0  0  0
  1  5  2  0  0  0  0
  2  6  2  0  0  0  0
  3  8  2  0  0  0  0
  3 15  1  0  0  0  0
  4  9  1  0  0  0  0
  4 15  2  0  0  0  0
  5 17  1  0  0  0  0
  6 19  1  0  0  0  0
  7 10  2  0  0  0  0
  7 18  1  0  0  0  0
  8 21  1  0  0  0  0
  9 21  2  0  0  0  0
 10 22  1  0  0  0  0
 11 12  2  0  0  0  0
 11 23  1  0  0  0  0
 12 24  1  0  0  0  0
 13 20  1  0  0  0  0
 13 22  2  0  0  0  0
 14 24  2  0  0  0  0
 14 25  1  0  0  0  0
 15 26  1  0  0  0  0
 16 26  1  0  0  0  0
 16 27  2  0  0  0  0
 16 28  1  0  0  0  0
 17 19  2  0  0  0  0
 17 33  1  0  0  0  0
 18 20  2  0  0  0  0
 18 34  1  0  0  0  0
 19 42  1  0  0  0  0
 20 35  1  0  0  0  0
 21 72  1  0  0  0  0
 22 73  1  0  0  0  0
 23 25  2  0  0  0  0
 23 72  1  0  0  0  0
 24 74  1  0  0  0  0
 25 75  1  0  0  0  0
 26 57  2  0  0  0  0
 27 58  1  0  0  0  0
 27 61  1  0  0  0  0
 28 62  1  0  0  0  0
 28 67  2  0  0  0  0
 29 43  1  0  0  0  0
 29 63  1  0  0  0  0
 29 68  2  0  0  0  0
 30 54  1  0  0  0  0
 30 59  1  0  0  0  0
 30 69  2  0  0  0  0
 31 55  1  0  0  0  0
 31 64  1  0  0  0  0
 31 70  2  0  0  0  0
 32 60  1  0  0  0  0
 32 65  1  0  0  0  0
 32 71  2  0  0  0  0
 33 36  1  0  0  0  0
 34 43  1  0  0  0  0
 35 59  1  0  0  0  0
 36 38  1  0  0  0  0
 37 39  1  0  0  0  0
 37 40  1  0  0  0  0
 38 42  1  0  0  0  0
 39 44  1  0  0  0  0
 40 60  1  0  0  0  0
 41 44  1  0  0  0  0
 41 60  1  0  0  0  0
 42 63  1  0  0  0  0
 43 59  1  0  0  0  0
 44 58  1  0  0  0  0
 45 55  1  0  0  0  0
 46 56  1  0  0  0  0
 47 56  1  0  0  0  0
 48 56  1  0  0  0  0
 49 65  1  0  0  0  0
 50 66  1  0  0  0  0
 51 52  1  0  0  0  0
 51 53  1  0  0  0  0
 52 65  1  0  0  0  0
 53 73  1  0  0  0  0
 54 56  1  0  0  0  0
 54 64  1  0  0  0  0
 55 66  1  0  0  0  0
 57 58  1  0  0  0  0
M  CHG  1  66   1
M  ISO  4  32 100  53 101  65 100  73 101
M  END
> <Batch ID>
0018

> <Smiles>
CNC(C)C(=O)NC(C(=O)N1Cc2cc([101O:1][101CH2:1]CC[100N:0](C)[100C:0](=O)N3CCCC(n4nc(-c5ccc(Oc6ccc(F)cc6F)cc5)c(C(N)=O)c4N)C3)ccc2CC1C(=O)NC1CCCc2ccccc21)C(C)(C)C

> <Shape>
0.188

> <Color>
0.204

> <Negative vol penalty>
0.000

$$$$

  -OEChem-04052316043D

 81 89  0     1  0  0  0  0  0999 V2000
  -19.6705  -24.7775   28.2170 C   0  0  0  0  0  0  0  0  0  0  0  0
  -20.6615  -23.8102   28.0840 C   0  0  0  0  0  0  0  0  0  0  0  0
  -23.0785   -9.8637   19.9442 C   0  0  0  0  0  0  0  0  0  0  0  0
  -23.8329   -9.8803   22.2393 C   0  0  0  0  0  0  0  0  0  0  0  0
  -19.6152  -25.8450   27.3218 C   0  0  0  0  0  0  0  0  0  0  0  0
  -21.5972  -23.9093   27.0549 C   0  0  0  0  0  0  0  0  0  0  0  0
  -27.4876  -22.2462   27.2623 C   0  0  0  0  0  0  0  0  0  0  0  0
  -22.3346   -8.7112   20.1970 C   0  0  0  0  0  0  0  0  0  0  0  0
  -23.0889   -8.7278   22.4922 C   0  0  0  0  0  0  0  0  0  0  0  0
  -28.1550  -21.1017   26.8281 C   0  0  0  0  0  0  0  0  0  0  0  0
  -19.8597   -7.9309   23.0903 C   0  0  0  0  0  0  0  0  0  0  0  0
  -19.1000   -7.8953   24.2595 C   0  0  0  0  0  0  0  0  0  0  0  0
  -28.7330  -22.2257   24.7734 C   0  0  0  0  0  0  0  0  0  0  0  0
  -32.4652  -17.1206   23.9179 C   0  0  0  0  0  0  0  0  0  0  0  0
  -20.3405   -5.9615   25.0067 C   0  0  0  0  0  0  0  0  0  0  0  0
  -23.8277  -10.4482   20.9654 C   0  0  0  0  0  0  0  0  0  0  0  0
  -24.1687  -12.9730   20.8360 C   0  0  0  0  0  0  0  0  0  0  0  0
  -20.5566  -25.9624   26.2871 C   0  0  0  0  0  0  0  0  0  0  0  0
  -27.4286  -23.3872   26.4494 C   0  0  0  0  0  0  0  0  0  0  0  0
  -21.5537  -24.9786   26.1442 C   0  0  0  0  0  0  0  0  0  0  0  0
  -28.0665  -23.3842   25.2007 C   0  0  0  0  0  0  0  0  0  0  0  0
  -31.8710  -18.3515   24.1962 C   0  0  0  0  0  0  0  0  0  0  0  0
  -30.6767  -18.7070   23.5694 C   0  0  0  0  0  0  0  0  0  0  0  0
  -30.0766  -17.8316   22.6642 C   0  0  0  0  0  0  0  0  0  0  0  0
  -30.6709  -16.6007   22.3859 C   0  0  0  0  0  0  0  0  0  0  0  0
  -22.3397   -8.1433   21.4710 C   0  0  0  0  0  0  0  0  0  0  0  0
  -28.7754  -21.0903   25.5822 C   0  0  0  0  0  0  0  0  0  0  0  0
  -20.8598   -6.9817   22.8792 C   0  0  0  0  0  0  0  0  0  0  0  0
  -19.3404   -6.9106   25.2177 C   0  0  0  0  0  0  0  0  0  0  0  0
  -31.8652  -16.2452   23.0127 C   0  0  0  0  0  0  0  0  0  0  0  0
  -21.1002   -5.9970   23.8374 C   0  0  0  0  0  0  0  0  0  0  0  0
  -24.5969  -11.6384   20.7046 C   0  0  0  0  0  0  0  0  0  0  0  0
  -25.2613  -13.7216   20.4723 C   0  0  0  0  0  0  0  0  0  0  0  0
  -22.8969  -13.4899   21.2498 C   0  0  0  0  0  0  0  0  0  0  0  0
  -25.0896  -25.0426   25.0736 C   0  0  0  0  0  0  0  0  0  0  0  0
  -27.5076  -27.0542   24.2803 C   0  0  0  0  0  0  0  0  0  0  0  0
  -30.8453  -27.4934   23.7207 C   0  0  0  0  0  0  0  0  0  0  0  0
  -30.7266  -14.7704   20.6558 C   0  0  0  0  0  0  0  0  0  0  0  0
  -20.4279  -27.1085   25.3152 C   0  0  0  0  0  0  0  0  0  0  0  0
  -26.7275  -24.6228   26.9436 C   0  0  0  0  0  0  0  0  0  0  0  0
  -28.0495  -24.5902   24.2986 C   0  0  0  0  0  0  0  0  0  0  0  0
  -21.6835  -27.3419   24.4789 C   0  0  0  0  0  0  0  0  0  0  0  0
  -29.6190  -12.3466   18.2946 C   0  0  0  0  0  0  0  0  0  0  0  0
  -22.2083  -26.0215   23.9239 C   0  0  0  0  0  0  0  0  0  0  0  0
  -28.1784  -12.0560   18.7219 C   0  0  0  0  0  0  0  0  0  0  0  0
  -30.5311  -12.5806   19.4975 C   0  0  0  0  0  0  0  0  0  0  0  0
  -28.6205  -13.3098   20.8713 C   0  0  0  0  0  0  0  0  0  0  0  0
  -22.6016  -25.0647   25.0558 C   0  0  1  0  0  0  0  0  0  0  0  0
  -26.2916  -25.5538   25.8164 C   0  0  1  0  0  0  0  0  0  0  0  0
  -27.6506  -13.1313   19.6919 C   0  0  2  0  0  0  0  0  0  0  0  0
  -32.5348  -19.2707   25.1685 C   0  0  0  0  0  0  0  0  0  0  0  0
  -28.7952  -18.2149   21.9915 C   0  0  0  0  0  0  0  0  0  0  0  0
  -32.5171  -29.2406   23.0499 C   0  0  0  0  0  0  0  0  0  0  0  0
  -26.5785  -26.8273   21.3828 C   0  0  0  0  0  0  0  0  0  0  0  0
  -28.7833  -27.7788   20.6744 C   0  0  0  0  0  0  0  0  0  0  0  0
  -27.2387  -29.1338   22.0891 C   0  0  0  0  0  0  0  0  0  0  0  0
  -32.3106  -27.2398   26.2796 C   0  0  0  0  0  0  0  0  0  0  0  0
  -30.0403  -20.0324   23.8685 C   0  0  0  0  0  0  0  0  0  1  0  0
  -28.4608  -27.1731   23.1158 C   0  0  1  0  0  0  0  0  0  0  0  0
  -31.8184  -28.5504   24.2111 C   0  0  2  0  0  0  0  0  0  0  0  0
  -27.7642  -27.7047   21.8315 C   0  0  0  0  0  0  0  0  0  0  0  0
  -25.8627  -11.5415   20.2898 N   0  0  0  0  0  0  0  0  0  0  0  0
  -26.2394  -12.8247   20.1572 N   0  0  0  0  0  0  0  0  0  0  0  0
  -27.3459  -25.7719   24.8239 N   0  0  0  0  0  0  0  0  0  0  0  0
  -29.9696  -13.6147   20.3694 N   0  0  0  0  0  0  0  0  0  0  0  0
  -25.4713  -15.0528   20.3944 N   0  0  0  0  0  0  0  0  0  0  0  0
  -21.8846  -12.5817   21.5883 N   0  0  0  0  0  0  0  0  0  0  0  0
  -30.0769  -15.6985   21.4689 N   0  0  0  0  0  0  0  0  0  0  0  0
  -23.8823  -25.4419   25.6144 N   0  0  0  0  0  0  0  0  0  0  0  0
  -29.5704  -27.9992   23.5792 N   0  0  0  0  0  0  0  0  0  0  0  0
  -32.8563  -27.9336   25.0846 N   0  3  0  0  0  0  0  0  0  0  0  0
  -22.6600  -14.7207   21.3016 O   0  0  0  0  0  0  0  0  0  0  0  0
  -25.2460  -24.3393   24.0823 O   0  0  0  0  0  0  0  0  0  0  0  0
  -26.9331  -28.0632   24.6970 O   0  0  0  0  0  0  0  0  0  0  0  0
  -31.1833  -26.3359   23.4832 O   0  0  0  0  0  0  0  0  0  0  0  0
  -31.8567  -14.9378   20.1902 O   0  0  0  0  0  0  0  0  0  0  0  0
  -21.6137   -7.0188   21.7182 O   0  0  0  0  0  0  0  0  0  0  0  0
  -29.4269  -19.9743   25.1557 O   0  0  0  0  0  0  0  0  0  1  0  0
  -18.6118   -6.8775   26.3412 F   0  0  0  0  0  0  0  0  0  0  0  0
  -32.4453  -15.0644   22.7546 F   0  0  0  0  0  0  0  0  0  0  0  0
  -22.0605   -5.0832   23.6408 F   0  0  0  0  0  0  0  0  0  0  0  0
  1  2  1  0  0  0  0
  1  5  2  0  0  0  0
  2  6  2  0  0  0  0
  3  8  2  0  0  0  0
  3 16  1  0  0  0  0
  4  9  1  0  0  0  0
  4 16  2  0  0  0  0
  5 18  1  0  0  0  0
  6 20  1  0  0  0  0
  7 10  2  0  0  0  0
  7 19  1  0  0  0  0
  8 26  1  0  0  0  0
  9 26  2  0  0  0  0
 10 27  1  0  0  0  0
 11 12  2  0  0  0  0
 11 28  1  0  0  0  0
 12 29  1  0  0  0  0
 13 21  1  0  0  0  0
 13 27  2  0  0  0  0
 14 22  2  0  0  0  0
 14 30  1  0  0  0  0
 15 29  2  0  0  0  0
 15 31  1  0  0  0  0
 16 32  1  0  0  0  0
 17 32  1  0  0  0  0
 17 33  2  0  0  0  0
 17 34  1  0  0  0  0
 18 20  2  0  0  0  0
 18 39  1  0  0  0  0
 19 21  2  0  0  0  0
 19 40  1  0  0  0  0
 20 48  1  0  0  0  0
 21 41  1  0  0  0  0
 22 23  1  0  0  0  0
 22 51  1  0  0  0  0
 23 24  2  0  0  0  0
 23 58  1  0  0  0  0
 24 25  1  0  0  0  0
 24 52  1  0  0  0  0
 25 30  2  0  0  0  0
 25 68  1  0  0  0  0
 26 77  1  0  0  0  0
 27 78  1  0  0  0  0
 28 31  2  0  0  0  0
 28 77  1  0  0  0  0
 29 79  1  0  0  0  0
 30 80  1  0  0  0  0
 31 81  1  0  0  0  0
 32 62  2  0  0  0  0
 33 63  1  0  0  0  0
 33 66  1  0  0  0  0
 34 67  1  0  0  0  0
 34 72  2  0  0  0  0
 35 49  1  0  0  0  0
 35 69  1  0  0  0  0
 35 73  2  0  0  0  0
 36 59  1  0  0  0  0
 36 64  1  0  0  0  0
 36 74  2  0  0  0  0
 37 60  1  0  0  0  0
 37 70  1  0  0  0  0
 37 75  2  0  0  0  0
 38 65  1  0  0  0  0
 38 68  1  0  0  0  0
 38 76  2  0  0  0  0
 39 42  1  0  0  0  0
 40 49  1  0  0  0  0
 41 64  1  0  0  0  0
 42 44  1  0  0  0  0
 43 45  1  0  0  0  0
 43 46  1  0  0  0  0
 44 48  1  0  0  0  0
 45 50  1  0  0  0  0
 46 65  1  0  0  0  0
 47 50  1  0  0  0  0
 47 65  1  0  0  0  0
 48 69  1  0  0  0  0
 49 64  1  0  0  0  0
 50 63  1  0  0  0  0
 53 60  1  0  0  0  0
 54 61  1  0  0  0  0
 55 61  1  0  0  0  0
 56 61  1  0  0  0  0
 57 71  1  0  0  0  0
 58 78  1  0  0  0  0
 59 61  1  0  0  0  0
 59 70  1  0  0  0  0
 60 71  1  0  0  0  0
 62 63  1  0  0  0  0
M  CHG  1  71   1
M  ISO  4  38 100  58 101  68 100  78 101
M  END
> <Batch ID>
0018

> <Smiles>
CNC(C)C(=O)NC(C(=O)N1Cc2cc([101O:1][101CH2:1]c3c(C)cc(F)c([100NH:0][100C:0](=O)N4CCCC(n5nc(-c6ccc(Oc7ccc(F)cc7F)cc6)c(C(N)=O)c5N)C4)c3C)ccc2CC1C(=O)NC1CCCc2ccccc21)C(C)(C)C

> <Shape>
0.200

> <Color>
0.200

> <Negative vol penalty>
0.000

$$$$

  -OEChem-04052316043D

 85 93  0     1  0  0  0  0  0999 V2000
  -29.5287  -33.0569   16.7923 C   0  0  0  0  0  0  0  0  0  0  0  0
  -29.9786  -31.7849   16.4532 C   0  0  0  0  0  0  0  0  0  0  0  0
  -23.0877   -9.6986   19.9782 C   0  0  0  0  0  0  0  0  0  0  0  0
  -23.7656   -9.8488   22.2923 C   0  0  0  0  0  0  0  0  0  0  0  0
  -28.9616  -33.2833   18.0457 C   0  0  0  0  0  0  0  0  0  0  0  0
  -29.8626  -30.7388   17.3678 C   0  0  0  0  0  0  0  0  0  0  0  0
  -28.7776  -23.6634   17.6487 C   0  0  0  0  0  0  0  0  0  0  0  0
  -22.3741   -8.5345   20.2628 C   0  0  0  0  0  0  0  0  0  0  0  0
  -23.0519   -8.6847   22.5769 C   0  0  0  0  0  0  0  0  0  0  0  0
  -29.3354  -22.5092   18.1967 C   0  0  0  0  0  0  0  0  0  0  0  0
  -23.4720   -5.3508   22.2034 C   0  0  0  0  0  0  0  0  0  0  0  0
  -24.0954   -4.3854   22.9940 C   0  0  0  0  0  0  0  0  0  0  0  0
  -28.2666  -22.9999   20.3029 C   0  0  0  0  0  0  0  0  0  0  0  0
  -31.1648  -19.6384   22.6499 C   0  0  0  0  0  0  0  0  0  0  0  0
  -22.3300   -4.5863   24.6312 C   0  0  0  0  0  0  0  0  0  0  0  0
  -23.7836  -10.3558   20.9930 C   0  0  0  0  0  0  0  0  0  0  0  0
  -24.0458  -12.8819   20.7531 C   0  0  0  0  0  0  0  0  0  0  0  0
  -28.8297  -32.2373   18.9725 C   0  0  0  0  0  0  0  0  0  0  0  0
  -27.9676  -24.5018   18.4281 C   0  0  0  0  0  0  0  0  0  0  0  0
  -29.2944  -30.9517   18.6353 C   0  0  0  0  0  0  0  0  0  0  0  0
  -27.6977  -24.1629   19.7617 C   0  0  0  0  0  0  0  0  0  0  0  0
  -30.0345  -19.5191   21.8414 C   0  0  0  0  0  0  0  0  0  0  0  0
  -31.8550  -18.4966   23.0569 C   0  0  0  0  0  0  0  0  0  0  0  0
  -30.2844  -17.1160   21.8468 C   0  0  0  0  0  0  0  0  0  0  0  0
  -22.3561   -8.0275   21.5622 C   0  0  0  0  0  0  0  0  0  0  0  0
  -29.0823  -22.1788   19.5248 C   0  0  0  0  0  0  0  0  0  0  0  0
  -22.2777   -5.9340   22.6267 C   0  0  0  0  0  0  0  0  0  0  0  0
  -23.5244   -4.0031   24.2079 C   0  0  0  0  0  0  0  0  0  0  0  0
  -21.7067   -5.5517   23.8406 C   0  0  0  0  0  0  0  0  0  0  0  0
  -29.5943  -18.2579   21.4398 C   0  0  0  0  0  0  0  0  0  0  0  0
  -31.4147  -17.2354   22.6553 C   0  0  0  0  0  0  0  0  0  0  0  0
  -24.5215  -11.5581   20.6995 C   0  0  0  0  0  0  0  0  0  0  0  0
  -25.1247  -13.6495   20.3882 C   0  0  0  0  0  0  0  0  0  0  0  0
  -22.7449  -13.3738   21.1018 C   0  0  0  0  0  0  0  0  0  0  0  0
  -28.1449  -27.5238   19.3976 C   0  0  0  0  0  0  0  0  0  0  0  0
  -25.1677  -26.9244   20.5374 C   0  0  0  0  0  0  0  0  0  0  0  0
  -22.8847  -24.6259   21.6107 C   0  0  0  0  0  0  0  0  0  0  0  0
  -30.5437  -14.8925   20.6913 C   0  0  0  0  0  0  0  0  0  0  0  0
  -28.2532  -32.5409   20.3327 C   0  0  0  0  0  0  0  0  0  0  0  0
  -27.3518  -25.7292   17.8144 C   0  0  0  0  0  0  0  0  0  0  0  0
  -26.8183  -25.0187   20.6350 C   0  0  0  0  0  0  0  0  0  0  0  0
  -27.8250  -31.2954   21.1046 C   0  0  0  0  0  0  0  0  0  0  0  0
  -29.5940  -12.3239   18.4159 C   0  0  0  0  0  0  0  0  0  0  0  0
  -28.9111  -30.2264   21.0380 C   0  0  0  0  0  0  0  0  0  0  0  0
  -28.1505  -12.0046   18.8116 C   0  0  0  0  0  0  0  0  0  0  0  0
  -30.4581  -12.6453   19.6340 C   0  0  0  0  0  0  0  0  0  0  0  0
  -28.4807  -13.3722   20.9110 C   0  0  0  0  0  0  0  0  0  0  0  0
  -29.1633  -29.7857   19.5910 C   0  0  1  0  0  0  0  0  0  0  0  0
  -26.9601  -26.7813   18.8474 C   0  0  1  0  0  0  0  0  0  0  0  0
  -27.5562  -13.1055   19.7118 C   0  0  2  0  0  0  0  0  0  0  0  0
  -34.7302  -18.8872   21.9265 C   0  0  0  0  0  0  0  0  0  0  0  0
  -20.5512  -24.4412   22.5152 C   0  0  0  0  0  0  0  0  0  0  0  0
  -32.9869  -17.9809   25.3247 C   0  0  0  0  0  0  0  0  0  0  0  0
  -33.2703  -20.1911   24.2394 C   0  0  0  0  0  0  0  0  0  0  0  0
  -26.1456  -27.9092   23.2547 C   0  0  0  0  0  0  0  0  0  0  0  0
  -24.1366  -26.8321   24.2901 C   0  0  0  0  0  0  0  0  0  0  0  0
  -23.8471  -28.6743   22.6332 C   0  0  0  0  0  0  0  0  0  0  0  0
  -22.0025  -22.9752   19.3182 C   0  0  0  0  0  0  0  0  0  0  0  0
  -29.3249  -20.7753   21.4294 C   0  0  0  0  0  0  0  0  0  1  0  0
  -34.3877  -18.1742   23.2316 C   0  0  0  0  0  0  0  0  0  0  0  0
  -24.6060  -26.3981   21.8361 C   0  0  1  0  0  0  0  0  0  0  0  0
  -21.4199  -24.4248   21.2670 C   0  0  2  0  0  0  0  0  0  0  0  0
  -33.0614  -18.6741   23.9222 C   0  0  0  0  0  0  0  0  0  0  0  0
  -24.7020  -27.4381   22.9879 C   0  0  0  0  0  0  0  0  0  0  0  0
  -25.8028  -11.4852   20.3294 N   0  0  0  0  0  0  0  0  0  0  0  0
  -26.1413  -12.7729   20.1471 N   0  0  0  0  0  0  0  0  0  0  0  0
  -26.2445  -26.2118   19.9909 N   0  0  0  0  0  0  0  0  0  0  0  0
  -29.8347  -13.6993   20.4373 N   0  0  0  0  0  0  0  0  0  0  0  0
  -25.2934  -14.9821   20.2530 N   0  0  0  0  0  0  0  0  0  0  0  0
  -21.7524  -12.4483   21.4519 N   0  0  0  0  0  0  0  0  0  0  0  0
  -29.8377  -15.8349   21.4383 N   0  0  0  0  0  0  0  0  0  0  0  0
  -28.1222  -28.8829   19.1489 N   0  0  0  0  0  0  0  0  0  0  0  0
  -23.2474  -25.9545   21.5433 N   0  0  0  0  0  0  0  0  0  0  0  0
  -21.2246  -23.1191   20.5756 N   0  3  0  0  0  0  0  0  0  0  0  0
  -22.4662  -14.5968   21.0870 O   0  0  0  0  0  0  0  0  0  0  0  0
  -29.0145  -26.9093   20.0042 O   0  0  0  0  0  0  0  0  0  0  0  0
  -24.6648  -27.9265   20.0230 O   0  0  0  0  0  0  0  0  0  0  0  0
  -23.6316  -23.6978   21.9128 O   0  0  0  0  0  0  0  0  0  0  0  0
  -31.6824  -15.0764   20.2536 O   0  0  0  0  0  0  0  0  0  0  0  0
  -21.6596   -6.8917   21.8403 O   0  0  0  0  0  0  0  0  0  0  0  0
  -29.6260  -21.0530   20.0624 O   0  0  0  0  0  0  0  0  0  1  0  0
  -24.1223   -3.0749   24.9662 F   0  0  0  0  0  0  0  0  0  0  0  0
  -20.5588   -6.1075   24.2519 F   0  0  0  0  0  0  0  0  0  0  0  0
  -28.1861  -18.1231   20.4356 Cl  0  0  0  0  0  0  0  0  0  0  0  0
  -32.2821  -15.8233   23.1684 Cl  0  0  0  0  0  0  0  0  0  0  0  0
  1  2  1  0  0  0  0
  1  5  2  0  0  0  0
  2  6  2  0  0  0  0
  3  8  2  0  0  0  0
  3 16  1  0  0  0  0
  4  9  1  0  0  0  0
  4 16  2  0  0  0  0
  5 18  1  0  0  0  0
  6 20  1  0  0  0  0
  7 10  2  0  0  0  0
  7 19  1  0  0  0  0
  8 25  1  0  0  0  0
  9 25  2  0  0  0  0
 10 26  1  0  0  0  0
 11 12  2  0  0  0  0
 11 27  1  0  0  0  0
 12 28  1  0  0  0  0
 13 21  1  0  0  0  0
 13 26  2  0  0  0  0
 14 22  2  0  0  0  0
 14 23  1  0  0  0  0
 15 28  2  0  0  0  0
 15 29  1  0  0  0  0
 16 32  1  0  0  0  0
 17 32  1  0  0  0  0
 17 33  2  0  0  0  0
 17 34  1  0  0  0  0
 18 20  2  0  0  0  0
 18 39  1  0  0  0  0
 19 21  2  0  0  0  0
 19 40  1  0  0  0  0
 20 48  1  0  0  0  0
 21 41  1  0  0  0  0
 22 30  1  0  0  0  0
 22 59  1  0  0  0  0
 23 31  2  0  0  0  0
 23 63  1  0  0  0  0
 24 30  2  0  0  0  0
 24 31  1  0  0  0  0
 24 71  1  0  0  0  0
 25 80  1  0  0  0  0
 26 81  1  0  0  0  0
 27 29  2  0  0  0  0
 27 80  1  0  0  0  0
 28 82  1  0  0  0  0
 29 83  1  0  0  0  0
 30 84  1  0  0  0  0
 31 85  1  0  0  0  0
 32 65  2  0  0  0  0
 33 66  1  0  0  0  0
 33 69  1  0  0  0  0
 34 70  1  0  0  0  0
 34 75  2  0  0  0  0
 35 49  1  0  0  0  0
 35 72  1  0  0  0  0
 35 76  2  0  0  0  0
 36 61  1  0  0  0  0
 36 67  1  0  0  0  0
 36 77  2  0  0  0  0
 37 62  1  0  0  0  0
 37 73  1  0  0  0  0
 37 78  2  0  0  0  0
 38 68  1  0  0  0  0
 38 71  1  0  0  0  0
 38 79  2  0  0  0  0
 39 42  1  0  0  0  0
 40 49  1  0  0  0  0
 41 67  1  0  0  0  0
 42 44  1  0  0  0  0
 43 45  1  0  0  0  0
 43 46  1  0  0  0  0
 44 48  1  0  0  0  0
 45 50  1  0  0  0  0
 46 68  1  0  0  0  0
 47 50  1  0  0  0  0
 47 68  1  0  0  0  0
 48 72  1  0  0  0  0
 49 67  1  0  0  0  0
 50 66  1  0  0  0  0
 51 60  1  0  0  0  0
 52 62  1  0  0  0  0
 53 63  1  0  0  0  0
 54 63  1  0  0  0  0
 55 64  1  0  0  0  0
 56 64  1  0  0  0  0
 57 64  1  0  0  0  0
 58 74  1  0  0  0  0
 59 81  1  0  0  0  0
 60 63  1  0  0  0  0
 61 64  1  0  0  0  0
 61 73  1  0  0  0  0
 62 74  1  0  0  0  0
 65 66  1  0  0  0  0
M  CHG  1  74   1
M  ISO  4  38 100  59 101  71 100  81 101
M  END
> <Batch ID>
0018

> <Smiles>
CCC(C)(C)c1cc([101CH2:1][101O:1]c2ccc3c(c2)CN(C(=O)C(NC(=O)C(C)NC)C(C)(C)C)C(C(=O)NC2CCCc4ccccc42)C3)c(Cl)c([100NH:0][100C:0](=O)N2CCCC(n3nc(-c4ccc(Oc5ccc(F)cc5F)cc4)c(C(N)=O)c3N)C2)c1Cl

> <Shape>
0.279

> <Color>
0.222

> <Negative vol penalty>
0.000

$$$$

  -OEChem-04052316043D

 87 95  0     1  0  0  0  0  0999 V2000
  -27.7334  -21.0500   27.6920 C   0  0  0  0  0  0  0  0  0  0  0  0
  -28.2465  -21.4602   26.4656 C   0  0  0  0  0  0  0  0  0  0  0  0
  -23.7848   -9.4894   19.9556 C   0  0  0  0  0  0  0  0  0  0  0  0
  -23.1228  -10.2131   22.1636 C   0  0  0  0  0  0  0  0  0  0  0  0
  -26.3980  -21.2988   28.0060 C   0  0  0  0  0  0  0  0  0  0  0  0
  -27.4241  -22.1186   25.5521 C   0  0  0  0  0  0  0  0  0  0  0  0
  -29.6690  -26.1543   23.4742 C   0  0  0  0  0  0  0  0  0  0  0  0
  -23.1129   -8.2826   20.1497 C   0  0  0  0  0  0  0  0  0  0  0  0
  -22.4508   -9.0063   22.3576 C   0  0  0  0  0  0  0  0  0  0  0  0
  -30.5940  -25.9159   22.4586 C   0  0  0  0  0  0  0  0  0  0  0  0
  -23.2388   -5.8155   23.1504 C   0  0  0  0  0  0  0  0  0  0  0  0
  -23.4156   -5.1643   24.3712 C   0  0  0  0  0  0  0  0  0  0  0  0
  -28.9181  -26.4627   20.8120 C   0  0  0  0  0  0  0  0  0  0  0  0
  -27.5951  -19.5551   20.8541 C   0  0  0  0  0  0  0  0  0  0  0  0
  -21.0423   -5.3178   24.7968 C   0  0  0  0  0  0  0  0  0  0  0  0
  -23.7898  -10.4547   20.9626 C   0  0  0  0  0  0  0  0  0  0  0  0
  -23.9602  -12.8883   20.2170 C   0  0  0  0  0  0  0  0  0  0  0  0
  -25.5613  -21.9691   27.0997 C   0  0  0  0  0  0  0  0  0  0  0  0
  -28.3563  -26.5388   23.1654 C   0  0  0  0  0  0  0  0  0  0  0  0
  -26.0759  -22.3754   25.8537 C   0  0  0  0  0  0  0  0  0  0  0  0
  -27.9791  -26.7079   21.8256 C   0  0  0  0  0  0  0  0  0  0  0  0
  -28.3457  -18.3803   20.8991 C   0  0  0  0  0  0  0  0  0  0  0  0
  -29.9788  -19.3669   19.4169 C   0  0  0  0  0  0  0  0  0  0  0  0
  -29.2281  -20.5417   19.3718 C   0  0  0  0  0  0  0  0  0  0  0  0
  -22.4458   -8.0411   21.3506 C   0  0  0  0  0  0  0  0  0  0  0  0
  -30.2178  -26.0672   21.1272 C   0  0  0  0  0  0  0  0  0  0  0  0
  -21.9638   -6.2179   22.7528 C   0  0  0  0  0  0  0  0  0  0  0  0
  -22.3174   -4.9154   25.1944 C   0  0  0  0  0  0  0  0  0  0  0  0
  -20.8656   -5.9691   23.5760 C   0  0  0  0  0  0  0  0  0  0  0  0
  -28.0363  -20.6358   20.0904 C   0  0  0  0  0  0  0  0  0  0  0  0
  -29.5375  -18.2862   20.1805 C   0  0  0  0  0  0  0  0  0  0  0  0
  -24.4843  -11.7013   20.7630 C   0  0  0  0  0  0  0  0  0  0  0  0
  -25.0115  -13.7718   20.2436 C   0  0  0  0  0  0  0  0  0  0  0  0
  -22.6411  -13.1675   19.7295 C   0  0  0  0  0  0  0  0  0  0  0  0
  -25.4775  -25.2824   23.6527 C   0  0  0  0  0  0  0  0  0  0  0  0
  -24.4651  -28.1013   22.4074 C   0  0  0  0  0  0  0  0  0  0  0  0
  -25.1419  -30.8133   20.4494 C   0  0  0  0  0  0  0  0  0  0  0  0
  -29.2354  -15.9321   23.3756 C   0  0  0  0  0  0  0  0  0  0  0  0
  -24.1122  -22.1736   27.4644 C   0  0  0  0  0  0  0  0  0  0  0  0
  -27.3780  -26.8182   24.2733 C   0  0  0  0  0  0  0  0  0  0  0  0
  -26.5878  -27.1386   21.4417 C   0  0  0  0  0  0  0  0  0  0  0  0
  -23.4053  -23.2093   26.5938 C   0  0  0  0  0  0  0  0  0  0  0  0
  -29.9231  -13.0458   21.1626 C   0  0  0  0  0  0  0  0  0  0  0  0
  -23.7196  -22.9718   25.1201 C   0  0  0  0  0  0  0  0  0  0  0  0
  -28.5238  -12.5013   20.8807 C   0  0  0  0  0  0  0  0  0  0  0  0
  -29.9968  -13.7478   22.5151 C   0  0  0  0  0  0  0  0  0  0  0  0
  -27.5841  -14.2789   22.4097 C   0  0  0  0  0  0  0  0  0  0  0  0
  -25.2217  -23.1143   24.8465 C   0  0  1  0  0  0  0  0  0  0  0  0
  -25.9232  -26.7065   23.8280 C   0  0  1  0  0  0  0  0  0  0  0  0
  -27.4640  -13.6062   21.0340 C   0  0  2  0  0  0  0  0  0  0  0  0
  -31.2565  -19.2826   18.6394 C   0  0  0  0  0  0  0  0  0  0  0  0
  -24.1052  -32.9315   19.5914 C   0  0  0  0  0  0  0  0  0  0  0  0
  -22.8231  -26.4847   20.4074 C   0  0  0  0  0  0  0  0  0  0  0  0
  -22.5892  -28.5605   19.0274 C   0  0  0  0  0  0  0  0  0  0  0  0
  -21.6534  -28.4894   21.3386 C   0  0  0  0  0  0  0  0  0  0  0  0
  -28.8416  -18.3449   23.6967 C   0  0  0  0  0  0  0  0  0  0  0  0
  -27.1932  -32.4890   21.7697 C   0  0  0  0  0  0  0  0  0  0  0  0
  -27.8336  -17.2478   21.7304 C   0  0  0  0  0  0  0  0  0  0  0  0
  -29.7121  -21.6968   18.5457 C   0  0  0  0  0  0  0  0  0  0  0  0
  -32.5421  -24.2213   19.0738 C   0  0  0  0  0  0  0  0  0  0  0  0
  -31.3954  -23.5317   18.3501 C   0  0  0  0  0  0  0  0  0  0  0  0
  -32.1349  -24.8669   20.3926 C   0  0  0  0  0  0  0  0  0  1  0  0
  -24.1585  -28.6080   21.0188 C   0  0  1  0  0  0  0  0  0  0  0  0
  -24.9502  -32.3003   20.6871 C   0  0  2  0  0  0  0  0  0  0  0  0
  -22.8318  -28.0257   20.4549 C   0  0  0  0  0  0  0  0  0  0  0  0
  -25.7687  -11.8168   21.1108 N   0  0  0  0  0  0  0  0  0  0  0  0
  -26.0606  -13.0868   20.7826 N   0  0  0  0  0  0  0  0  0  0  0  0
  -25.6657  -27.3936   22.5607 N   0  0  0  0  0  0  0  0  0  0  0  0
  -28.9516  -14.7629   22.6509 N   0  0  0  0  0  0  0  0  0  0  0  0
  -25.1317  -15.0600   19.8582 N   0  0  0  0  0  0  0  0  0  0  0  0
  -21.6819  -12.1466   19.7757 N   0  0  0  0  0  0  0  0  0  0  0  0
  -25.5955  -24.5115   24.7934 N   0  0  0  0  0  0  0  0  0  0  0  0
  -24.1847  -30.0644   21.1007 N   0  0  0  0  0  0  0  0  0  0  0  0
  -28.5720  -17.1046   22.9833 N   0  0  0  0  0  0  0  0  0  0  0  0
  -26.2689  -32.9936   20.7218 N   0  3  0  0  0  0  0  0  0  0  0  0
  -30.8519  -22.4237   19.1701 N   0  3  0  0  0  0  0  0  0  0  0  0
  -22.3270  -14.2839   19.2516 O   0  0  0  0  0  0  0  0  0  0  0  0
  -25.0564  -24.9108   22.5635 O   0  0  0  0  0  0  0  0  0  0  0  0
  -23.6721  -28.3314   23.3238 O   0  0  0  0  0  0  0  0  0  0  0  0
  -26.0478  -30.3615   19.7524 O   0  0  0  0  0  0  0  0  0  0  0  0
  -30.0432  -15.9303   24.3133 O   0  0  0  0  0  0  0  0  0  0  0  0
  -21.7898   -6.8637   21.5402 O   0  0  0  0  0  0  0  0  0  0  0  0
  -31.1185  -25.8345   20.1340 O   0  0  0  0  0  0  0  0  0  1  0  0
  -22.4870   -4.2887   26.3659 F   0  0  0  0  0  0  0  0  0  0  0  0
  -19.6381   -6.3523   23.1989 F   0  0  0  0  0  0  0  0  0  0  0  0
  -27.0767  -22.0710   20.0597 Cl  0  0  0  0  0  0  0  0  0  0  0  0
  -30.4673  -16.8254   20.2401 Cl  0  0  0  0  0  0  0  0  0  0  0  0
  1  2  1  0  0  0  0
  1  5  2  0  0  0  0
  2  6  2  0  0  0  0
  3  8  2  0  0  0  0
  3 16  1  0  0  0  0
  4  9  1  0  0  0  0
  4 16  2  0  0  0  0
  5 18  1  0  0  0  0
  6 20  1  0  0  0  0
  7 10  2  0  0  0  0
  7 19  1  0  0  0  0
  8 25  1  0  0  0  0
  9 25  2  0  0  0  0
 10 26  1  0  0  0  0
 11 12  2  0  0  0  0
 11 27  1  0  0  0  0
 12 28  1  0  0  0  0
 13 21  1  0  0  0  0
 13 26  2  0  0  0  0
 14 22  1  0  0  0  0
 14 30  2  0  0  0  0
 15 28  2  0  0  0  0
 15 29  1  0  0  0  0
 16 32  1  0  0  0  0
 17 32  1  0  0  0  0
 17 33  2  0  0  0  0
 17 34  1  0  0  0  0
 18 20  2  0  0  0  0
 18 39  1  0  0  0  0
 19 21  2  0  0  0  0
 19 40  1  0  0  0  0
 20 48  1  0  0  0  0
 21 41  1  0  0  0  0
 22 31  2  0  0  0  0
 22 58  1  0  0  0  0
 23 24  2  0  0  0  0
 23 31  1  0  0  0  0
 23 51  1  0  0  0  0
 24 30  1  0  0  0  0
 24 59  1  0  0  0  0
 25 82  1  0  0  0  0
 26 83  1  0  0  0  0
 27 29  2  0  0  0  0
 27 82  1  0  0  0  0
 28 84  1  0  0  0  0
 29 85  1  0  0  0  0
 30 86  1  0  0  0  0
 31 87  1  0  0  0  0
 32 66  2  0  0  0  0
 33 67  1  0  0  0  0
 33 70  1  0  0  0  0
 34 71  1  0  0  0  0
 34 77  2  0  0  0  0
 35 49  1  0  0  0  0
 35 72  1  0  0  0  0
 35 78  2  0  0  0  0
 36 63  1  0  0  0  0
 36 68  1  0  0  0  0
 36 79  2  0  0  0  0
 37 64  1  0  0  0  0
 37 73  1  0  0  0  0
 37 80  2  0  0  0  0
 38 69  1  0  0  0  0
 38 74  1  0  0  0  0
 38 81  2  0  0  0  0
 39 42  1  0  0  0  0
 40 49  1  0  0  0  0
 41 68  1  0  0  0  0
 42 44  1  0  0  0  0
 43 45  1  0  0  0  0
 43 46  1  0  0  0  0
 44 48  1  0  0  0  0
 45 50  1  0  0  0  0
 46 69  1  0  0  0  0
 47 50  1  0  0  0  0
 47 69  1  0  0  0  0
 48 72  1  0  0  0  0
 49 68  1  0  0  0  0
 50 67  1  0  0  0  0
 52 64  1  0  0  0  0
 53 65  1  0  0  0  0
 54 65  1  0  0  0  0
 55 65  1  0  0  0  0
 56 74  1  0  0  0  0
 57 75  1  0  0  0  0
 58 74  1  0  0  0  0
 59 76  1  0  0  0  0
 60 61  1  0  0  0  0
 60 62  1  0  0  0  0
 61 76  1  0  0  0  0
 62 83  1  0  0  0  0
 63 65  1  0  0  0  0
 63 73  1  0  0  0  0
 64 75  1  0  0  0  0
 66 67  1  0  0  0  0
M  CHG  2  75   1  76   1
M  ISO  4  38 100  62 101  74 100  83 101
M  END
> <Batch ID>
0018

> <Smiles>
CNC(C)C(=O)NC(C(=O)N1Cc2cc([101O:1][101CH2:1]CCNCc3c(Cl)cc(C[100N:0](C)[100C:0](=O)N4CCCC(n5nc(-c6ccc(Oc7ccc(F)cc7F)cc6)c(C(N)=O)c5N)C4)c(Cl)c3C)ccc2CC1C(=O)NC1CCCc2ccccc21)C(C)(C)C

> <Shape>
0.247

> <Color>
0.143

> <Negative vol penalty>
0.000

$$$$

  -OEChem-04052316043D

 92 99  0     1  0  0  0  0  0999 V2000
  -17.0130  -26.4352   25.5776 C   0  0  0  0  0  0  0  0  0  0  0  0
  -17.5837  -25.4066   24.8349 C   0  0  0  0  0  0  0  0  0  0  0  0
  -31.0931  -23.2873   21.3771 C   0  0  0  0  0  0  0  0  0  0  0  0
  -30.0114  -23.0886   19.2259 C   0  0  0  0  0  0  0  0  0  0  0  0
  -17.2948  -27.7630   25.2588 C   0  0  0  0  0  0  0  0  0  0  0  0
  -18.4356  -25.7052   23.7721 C   0  0  0  0  0  0  0  0  0  0  0  0
  -23.3433  -22.5109   21.9784 C   0  0  0  0  0  0  0  0  0  0  0  0
  -31.8447  -24.3610   20.9000 C   0  0  0  0  0  0  0  0  0  0  0  0
  -30.7630  -24.1625   18.7488 C   0  0  0  0  0  0  0  0  0  0  0  0
  -23.5325  -21.5723   20.9650 C   0  0  0  0  0  0  0  0  0  0  0  0
  -33.9051  -24.6985   17.6216 C   0  0  0  0  0  0  0  0  0  0  0  0
  -34.4880  -24.5722   16.3607 C   0  0  0  0  0  0  0  0  0  0  0  0
  -24.3619  -23.3133   19.5157 C   0  0  0  0  0  0  0  0  0  0  0  0
  -33.2406  -26.4931   15.5917 C   0  0  0  0  0  0  0  0  0  0  0  0
  -30.1764  -22.6510   20.5400 C   0  0  0  0  0  0  0  0  0  0  0  0
  -28.4997  -21.5473   22.1141 C   0  0  0  0  0  0  0  0  0  0  0  0
  -18.1582  -28.0778   24.1977 C   0  0  0  0  0  0  0  0  0  0  0  0
  -23.6523  -23.8619   21.7641 C   0  0  0  0  0  0  0  0  0  0  0  0
  -18.7281  -27.0384   23.4379 C   0  0  0  0  0  0  0  0  0  0  0  0
  -24.1781  -24.2666   20.5288 C   0  0  0  0  0  0  0  0  0  0  0  0
  -31.6797  -24.7987   19.5859 C   0  0  0  0  0  0  0  0  0  0  0  0
  -24.0391  -21.9739   19.7324 C   0  0  0  0  0  0  0  0  0  0  0  0
  -32.9900  -25.7221   17.8676 C   0  0  0  0  0  0  0  0  0  0  0  0
  -34.1558  -25.4695   15.3457 C   0  0  0  0  0  0  0  0  0  0  0  0
  -32.6578  -26.6194   16.8526 C   0  0  0  0  0  0  0  0  0  0  0  0
  -29.4001  -21.5413   21.0320 C   0  0  0  0  0  0  0  0  0  0  0  0
  -28.0255  -20.2596   22.1733 C   0  0  0  0  0  0  0  0  0  0  0  0
  -28.1253  -22.6208   22.9876 C   0  0  0  0  0  0  0  0  0  0  0  0
  -21.9892  -26.5708   21.7649 C   0  0  0  0  0  0  0  0  0  0  0  0
  -24.9199  -27.9145   21.4071 C   0  0  0  0  0  0  0  0  0  0  0  0
  -27.5984  -15.9458   18.0115 C   0  0  0  0  0  0  0  0  0  0  0  0
  -24.6319  -15.8286   19.6400 C   0  0  0  0  0  0  0  0  0  0  0  0
  -28.1583  -27.5735   20.3857 C   0  0  0  0  0  0  0  0  0  0  0  0
  -18.3955  -29.5287   23.8609 C   0  0  0  0  0  0  0  0  0  0  0  0
  -23.4675  -24.8575   22.8763 C   0  0  0  0  0  0  0  0  0  0  0  0
  -24.5448  -25.7015   20.2549 C   0  0  0  0  0  0  0  0  0  0  0  0
  -19.6041  -29.7541   22.9561 C   0  0  0  0  0  0  0  0  0  0  0  0
  -29.2650  -15.7551   21.1778 C   0  0  0  0  0  0  0  0  0  0  0  0
  -19.5909  -28.7683   21.7921 C   0  0  0  0  0  0  0  0  0  0  0  0
  -29.4322  -17.2186   21.5842 C   0  0  0  0  0  0  0  0  0  0  0  0
  -29.3961  -15.5762   19.6685 C   0  0  0  0  0  0  0  0  0  0  0  0
  -28.6307  -17.8962   19.2769 C   0  0  0  0  0  0  0  0  0  0  0  0
  -19.6767  -27.3217   22.2934 C   0  0  1  0  0  0  0  0  0  0  0  0
  -23.3329  -26.2928   22.3772 C   0  0  1  0  0  0  0  0  0  0  0  0
  -28.4749  -18.1255   20.7907 C   0  0  2  0  0  0  0  0  0  0  0  0
  -24.0799   -9.8790   19.9300 C   0  0  0  0  0  0  0  0  0  0  0  0
  -30.5661  -28.1874   20.0347 C   0  0  0  0  0  0  0  0  0  0  0  0
  -25.8259  -16.0934   16.3507 C   0  0  0  0  0  0  0  0  0  0  0  0
  -27.5587  -17.8939   16.4981 C   0  0  0  0  0  0  0  0  0  0  0  0
  -23.8154  -29.3722   18.9648 C   0  0  0  0  0  0  0  0  0  0  0  0
  -26.1727  -29.8571   18.2748 C   0  0  0  0  0  0  0  0  0  0  0  0
  -25.2943  -30.7603   20.4278 C   0  0  0  0  0  0  0  0  0  0  0  0
  -19.7539  -12.5017   23.0822 C   0  0  0  0  0  0  0  0  0  0  0  0
  -19.8502  -11.6601   20.7073 C   0  0  0  0  0  0  0  0  0  0  0  0
  -20.7853  -10.2560   22.5812 C   0  0  0  0  0  0  0  0  0  0  0  0
  -28.9391  -26.4952   23.0289 C   0  0  0  0  0  0  0  0  0  0  0  0
  -23.2691  -15.1681   19.7508 C   0  0  0  0  0  0  0  0  0  0  0  0
  -23.0316  -10.9471   20.1962 C   0  0  0  0  0  0  0  0  0  0  0  0
  -23.2458  -14.0468   20.7866 C   0  0  0  0  0  0  0  0  0  0  0  0
  -22.9747  -11.3060   21.6725 C   0  0  0  0  0  0  0  0  0  0  0  0
  -21.8788  -13.3819   20.8418 C   0  0  0  0  0  0  0  0  0  0  0  0
  -24.5270  -19.7233   19.1387 C   0  0  0  0  0  0  0  0  0  1  0  0
  -25.7879  -28.2887   20.2300 C   0  0  1  0  0  0  0  0  0  0  0  0
  -29.4701  -27.9353   21.0585 C   0  0  2  0  0  0  0  0  0  0  0  0
  -25.8037  -17.6316   18.3916 C   0  0  1  0  0  0  0  0  0  0  0  0
  -26.6908  -16.9286   17.3154 C   0  0  0  0  0  0  0  0  0  0  0  0
  -25.2590  -29.5428   19.4785 C   0  0  0  0  0  0  0  0  0  0  0  0
  -20.5439  -11.6751   22.0686 C   0  0  0  0  0  0  0  0  0  0  0  0
  -25.3811  -19.0755   18.0581 C   0  0  0  0  0  0  0  0  0  0  0  0
  -29.4942  -20.3447   20.4460 N   0  0  0  0  0  0  0  0  0  0  0  0
  -28.6468  -19.5868   21.1626 N   0  0  0  0  0  0  0  0  0  0  0  0
  -24.3400  -26.6384   21.3719 N   0  0  0  0  0  0  0  0  0  0  0  0
  -28.4866  -16.4707   18.9503 N   0  0  0  0  0  0  0  0  0  0  0  0
  -27.1419  -19.6485   22.9907 N   0  0  0  0  0  0  0  0  0  0  0  0
  -27.0336  -23.4236   22.6298 N   0  0  0  0  0  0  0  0  0  0  0  0
  -21.0359  -26.9970   22.6698 N   0  0  0  0  0  0  0  0  0  0  0  0
  -27.1430  -28.4318   20.7513 N   0  0  0  0  0  0  0  0  0  0  0  0
  -24.6274  -16.8410   18.6955 N   0  0  0  0  0  0  0  0  0  0  0  0
  -29.9122  -26.8327   21.9583 N   0  3  0  0  0  0  0  0  0  0  0  0
  -21.8904  -12.3334   21.8900 N   0  3  1  0  0  0  0  0  0  0  0  0
  -28.7508  -22.8712   24.0457 O   0  0  0  0  0  0  0  0  0  0  0  0
  -21.8296  -26.4118   20.5603 O   0  0  0  0  0  0  0  0  0  0  0  0
  -24.7680  -28.7218   22.3273 O   0  0  0  0  0  0  0  0  0  0  0  0
  -27.5168  -14.7473   17.7299 O   0  0  0  0  0  0  0  0  0  0  0  0
  -25.6013  -15.4888   20.3130 O   0  0  0  0  0  0  0  0  0  0  0  0
  -28.0464  -26.6265   19.6103 O   0  0  0  0  0  0  0  0  0  0  0  0
  -32.4128  -25.8466   19.1202 O   0  0  0  0  0  0  0  0  0  0  0  0
  -24.2242  -21.0599   18.7413 O   0  0  0  0  0  0  0  0  0  1  0  0
  -34.7167  -25.3490   14.1354 F   0  0  0  0  0  0  0  0  0  0  0  0
  -31.7801  -27.6055   17.0833 F   0  0  0  0  0  0  0  0  0  0  0  0
  -24.6909  -19.1016   16.8888 F   0  0  0  0  0  0  0  0  0  0  0  0
  -26.4859  -19.8455   17.8763 F   0  0  0  0  0  0  0  0  0  0  0  0
  1  2  1  0  0  0  0
  1  5  2  0  0  0  0
  2  6  2  0  0  0  0
  3  8  2  0  0  0  0
  3 15  1  0  0  0  0
  4  9  1  0  0  0  0
  4 15  2  0  0  0  0
  5 17  1  0  0  0  0
  6 19  1  0  0  0  0
  7 10  2  0  0  0  0
  7 18  1  0  0  0  0
  8 21  1  0  0  0  0
  9 21  2  0  0  0  0
 10 22  1  0  0  0  0
 11 12  2  0  0  0  0
 11 23  1  0  0  0  0
 12 24  1  0  0  0  0
 13 20  1  0  0  0  0
 13 22  2  0  0  0  0
 14 24  2  0  0  0  0
 14 25  1  0  0  0  0
 15 26  1  0  0  0  0
 16 26  1  0  0  0  0
 16 27  2  0  0  0  0
 16 28  1  0  0  0  0
 17 19  2  0  0  0  0
 17 34  1  0  0  0  0
 18 20  2  0  0  0  0
 18 35  1  0  0  0  0
 19 43  1  0  0  0  0
 20 36  1  0  0  0  0
 21 87  1  0  0  0  0
 22 88  1  0  0  0  0
 23 25  2  0  0  0  0
 23 87  1  0  0  0  0
 24 89  1  0  0  0  0
 25 90  1  0  0  0  0
 26 70  2  0  0  0  0
 27 71  1  0  0  0  0
 27 74  1  0  0  0  0
 28 75  1  0  0  0  0
 28 81  2  0  0  0  0
 29 44  1  0  0  0  0
 29 76  1  0  0  0  0
 29 82  2  0  0  0  0
 30 63  1  0  0  0  0
 30 72  1  0  0  0  0
 30 83  2  0  0  0  0
 31 66  1  0  0  0  0
 31 73  1  0  0  0  0
 31 84  2  0  0  0  0
 32 57  1  0  0  0  0
 32 78  1  0  0  0  0
 32 85  2  0  0  0  0
 33 64  1  0  0  0  0
 33 77  1  0  0  0  0
 33 86  2  0  0  0  0
 34 37  1  0  0  0  0
 35 44  1  0  0  0  0
 36 72  1  0  0  0  0
 37 39  1  0  0  0  0
 38 40  1  0  0  0  0
 38 41  1  0  0  0  0
 39 43  1  0  0  0  0
 40 45  1  0  0  0  0
 41 73  1  0  0  0  0
 42 45  1  0  0  0  0
 42 73  1  0  0  0  0
 43 76  1  0  0  0  0
 44 72  1  0  0  0  0
 45 71  1  0  0  0  0
 46 58  1  0  0  0  0
 47 64  1  0  0  0  0
 48 66  1  0  0  0  0
 49 66  1  0  0  0  0
 50 67  1  0  0  0  0
 51 67  1  0  0  0  0
 52 67  1  0  0  0  0
 53 68  1  0  0  0  0
 54 68  1  0  0  0  0
 55 68  1  0  0  0  0
 56 79  1  0  0  0  0
 57 59  1  0  0  0  0
 58 60  1  0  0  0  0
 59 61  1  0  0  0  0
 60 80  1  0  0  0  0
 61 80  1  0  0  0  0
 62 69  1  0  0  0  0
 62 88  1  0  0  0  0
 63 67  1  0  0  0  0
 63 77  1  0  0  0  0
 64 79  1  0  0  0  0
 65 66  1  0  0  0  0
 65 69  1  0  0  0  0
 65 78  1  0  0  0  0
 68 80  1  0  0  0  0
 69 91  1  0  0  0  0
 69 92  1  0  0  0  0
 70 71  1  0  0  0  0
M  CHG  2  79   1  80   1
M  ISO  4  31 100  62 101  66 100  88 101
M  END
> <Batch ID>
0018

> <Smiles>
CCCN(CCCC(=O)NC(C(F)(F)[101CH2:1][101O:1]c1ccc2c(c1)CN(C(=O)C(NC(=O)C(C)NC)C(C)(C)C)C(C(=O)NC1CCCc3ccccc31)C2)[100C:0](C)(C)[100C:0](=O)N1CCCC(n2nc(-c3ccc(Oc4ccc(F)cc4F)cc3)c(C(N)=O)c2N)C1)C(C)(C)C

> <Shape>
0.219

> <Color>
0.067

> <Negative vol penalty>
0.000

$$$$

  -OEChem-04052316043D

 85 93  0     1  0  0  0  0  0999 V2000
  -20.1739  -34.6691   21.7665 C   0  0  0  0  0  0  0  0  0  0  0  0
  -21.4280  -34.1767   21.4200 C   0  0  0  0  0  0  0  0  0  0  0  0
  -26.1651  -12.6149   21.4783 C   0  0  0  0  0  0  0  0  0  0  0  0
  -25.1298  -13.6289   19.5451 C   0  0  0  0  0  0  0  0  0  0  0  0
  -19.3721  -33.9629   22.6622 C   0  0  0  0  0  0  0  0  0  0  0  0
  -21.8817  -32.9783   21.9700 C   0  0  0  0  0  0  0  0  0  0  0  0
  -25.3883  -28.7671   19.2359 C   0  0  0  0  0  0  0  0  0  0  0  0
  -25.0684  -11.7647   21.6197 C   0  0  0  0  0  0  0  0  0  0  0  0
  -24.0331  -12.7787   19.6865 C   0  0  0  0  0  0  0  0  0  0  0  0
  -26.7575  -28.5097   19.2874 C   0  0  0  0  0  0  0  0  0  0  0  0
  -23.9159   -8.9265   20.1882 C   0  0  0  0  0  0  0  0  0  0  0  0
  -24.1693   -7.5771   20.4343 C   0  0  0  0  0  0  0  0  0  0  0  0
  -26.3720  -26.8297   20.9750 C   0  0  0  0  0  0  0  0  0  0  0  0
  -28.2446  -22.8366   18.8181 C   0  0  0  0  0  0  0  0  0  0  0  0
  -22.9576   -7.7298   22.5189 C   0  0  0  0  0  0  0  0  0  0  0  0
  -26.1958  -13.5471   20.4410 C   0  0  0  0  0  0  0  0  0  0  0  0
  -28.4962  -14.1900   19.5452 C   0  0  0  0  0  0  0  0  0  0  0  0
  -19.8122  -32.7503   23.2161 C   0  0  0  0  0  0  0  0  0  0  0  0
  -24.5002  -28.0642   20.0627 C   0  0  0  0  0  0  0  0  0  0  0  0
  -21.0856  -32.2559   22.8751 C   0  0  0  0  0  0  0  0  0  0  0  0
  -24.9917  -27.0782   20.9302 C   0  0  0  0  0  0  0  0  0  0  0  0
  -26.7695  -22.3689   16.4969 C   0  0  0  0  0  0  0  0  0  0  0  0
  -27.3738  -21.7490   18.7525 C   0  0  0  0  0  0  0  0  0  0  0  0
  -28.3779  -23.6904   17.7231 C   0  0  0  0  0  0  0  0  0  0  0  0
  -24.0024  -11.8466   20.7238 C   0  0  0  0  0  0  0  0  0  0  0  0
  -27.2499  -27.5429   20.1591 C   0  0  0  0  0  0  0  0  0  0  0  0
  -23.1835   -9.6776   21.1075 C   0  0  0  0  0  0  0  0  0  0  0  0
  -23.6901   -6.9788   21.5996 C   0  0  0  0  0  0  0  0  0  0  0  0
  -22.7043   -9.0793   22.2728 C   0  0  0  0  0  0  0  0  0  0  0  0
  -26.6362  -21.5151   17.5920 C   0  0  0  0  0  0  0  0  0  0  0  0
  -27.6403  -23.4565   16.5625 C   0  0  0  0  0  0  0  0  0  0  0  0
  -27.3282  -14.4260   20.2948 C   0  0  0  0  0  0  0  0  0  0  0  0
  -29.2563  -15.3191   19.7294 C   0  0  0  0  0  0  0  0  0  0  0  0
  -28.8614  -13.0520   18.7533 C   0  0  0  0  0  0  0  0  0  0  0  0
  -22.4771  -28.8692   22.3784 C   0  0  0  0  0  0  0  0  0  0  0  0
  -21.6438  -25.7390   22.2057 C   0  0  0  0  0  0  0  0  0  0  0  0
  -22.5142  -22.5522   21.3490 C   0  0  0  0  0  0  0  0  0  0  0  0
  -27.8988  -20.9764   21.0921 C   0  0  0  0  0  0  0  0  0  0  0  0
  -18.9297  -32.0466   24.2164 C   0  0  0  0  0  0  0  0  0  0  0  0
  -23.0232  -28.3349   19.9759 C   0  0  0  0  0  0  0  0  0  0  0  0
  -24.0781  -26.2815   21.8241 C   0  0  0  0  0  0  0  0  0  0  0  0
  -19.3295  -30.5946   24.4659 C   0  0  0  0  0  0  0  0  0  0  0  0
  -30.0669  -18.8108   22.9051 C   0  0  0  0  0  0  0  0  0  0  0  0
  -20.8362  -30.4844   24.6765 C   0  0  0  0  0  0  0  0  0  0  0  0
  -29.7212  -17.4197   22.3688 C   0  0  0  0  0  0  0  0  0  0  0  0
  -28.8302  -19.7013   23.0109 C   0  0  0  0  0  0  0  0  0  0  0  0
  -27.6895  -18.4174   21.2447 C   0  0  0  0  0  0  0  0  0  0  0  0
  -21.6026  -30.9470   23.4314 C   0  0  1  0  0  0  0  0  0  0  0  0
  -22.2648  -27.9202   21.2330 C   0  0  1  0  0  0  0  0  0  0  0  0
  -28.9132  -17.5054   21.0591 C   0  0  2  0  0  0  0  0  0  0  0  0
  -25.9595  -22.0832   15.2729 C   0  0  0  0  0  0  0  0  0  0  0  0
  -21.6388  -20.2004   21.3606 C   0  0  0  0  0  0  0  0  0  0  0  0
  -31.2330  -24.0979   19.0388 C   0  0  0  0  0  0  0  0  0  0  0  0
  -22.1540  -25.5666   25.2090 C   0  0  0  0  0  0  0  0  0  0  0  0
  -22.1976  -23.0731   24.9879 C   0  0  0  0  0  0  0  0  0  0  0  0
  -20.1226  -24.3374   24.4237 C   0  0  0  0  0  0  0  0  0  0  0  0
  -22.7008  -22.3448   18.4026 C   0  0  0  0  0  0  0  0  0  0  0  0
  -30.4961  -26.5061   18.9872 C   0  0  0  0  0  0  0  0  0  0  0  0
  -29.3333  -27.4931   19.0133 C   0  0  0  0  0  0  0  0  0  1  0  0
  -22.1146  -24.4690   22.8724 C   0  0  1  0  0  0  0  0  0  0  0  0
  -21.7786  -21.4850   20.5587 C   0  0  2  0  0  0  0  0  0  0  0  0
  -30.0374  -25.0446   19.0030 C   0  0  1  0  0  0  0  0  0  0  0  0
  -21.6649  -24.3777   24.3579 C   0  0  0  0  0  0  0  0  0  0  0  0
  -27.3407  -15.6117   20.9094 N   0  0  0  0  0  0  0  0  0  0  0  0
  -28.5259  -16.1309   20.5465 N   0  0  0  0  0  0  0  0  0  0  0  0
  -22.6427  -26.5873   21.7072 N   0  0  0  0  0  0  0  0  0  0  0  0
  -28.1176  -19.7381   21.7320 N   0  0  0  0  0  0  0  0  0  0  0  0
  -30.4715  -15.6867   19.2705 N   0  0  0  0  0  0  0  0  0  0  0  0
  -27.9638  -11.9787   18.6719 N   0  0  0  0  0  0  0  0  0  0  0  0
  -27.2399  -20.8838   19.8666 N   0  0  0  0  0  0  0  0  0  0  0  0
  -29.2502  -24.7595   17.8214 N   0  0  0  0  0  0  0  0  0  0  0  0
  -21.5795  -29.9192   22.4128 N   0  0  0  0  0  0  0  0  0  0  0  0
  -21.6428  -23.3702   22.0366 N   0  0  0  0  0  0  0  0  0  0  0  0
  -22.5122  -21.1753   19.2991 N   0  3  0  0  0  0  0  0  0  0  0  0
  -29.9586  -12.9818   18.1493 O   0  0  0  0  0  0  0  0  0  0  0  0
  -23.3868  -28.6631   23.1731 O   0  0  0  0  0  0  0  0  0  0  0  0
  -20.4342  -25.9664   22.1236 O   0  0  0  0  0  0  0  0  0  0  0  0
  -23.7394  -22.6482   21.3584 O   0  0  0  0  0  0  0  0  0  0  0  0
  -28.2929  -22.0382   21.5814 O   0  0  0  0  0  0  0  0  0  0  0  0
  -22.9322  -11.0170   20.8614 O   0  0  0  0  0  0  0  0  0  0  0  0
  -28.5860  -27.2901   20.2119 O   0  0  0  0  0  0  0  0  0  1  0  0
  -23.9321   -5.6826   21.8351 F   0  0  0  0  0  0  0  0  0  0  0  0
  -21.9991   -9.7954   23.1591 F   0  0  0  0  0  0  0  0  0  0  0  0
  -25.7973  -20.4697   17.5295 F   0  0  0  0  0  0  0  0  0  0  0  0
  -27.8012  -24.5162   15.2000 Cl  0  0  0  0  0  0  0  0  0  0  0  0
  1  2  1  0  0  0  0
  1  5  2  0  0  0  0
  2  6  2  0  0  0  0
  3  8  2  0  0  0  0
  3 16  1  0  0  0  0
  4  9  1  0  0  0  0
  4 16  2  0  0  0  0
  5 18  1  0  0  0  0
  6 20  1  0  0  0  0
  7 10  2  0  0  0  0
  7 19  1  0  0  0  0
  8 25  1  0  0  0  0
  9 25  2  0  0  0  0
 10 26  1  0  0  0  0
 11 12  2  0  0  0  0
 11 27  1  0  0  0  0
 12 28  1  0  0  0  0
 13 21  1  0  0  0  0
 13 26  2  0  0  0  0
 14 23  2  0  0  0  0
 14 24  1  0  0  0  0
 15 28  2  0  0  0  0
 15 29  1  0  0  0  0
 16 32  1  0  0  0  0
 17 32  1  0  0  0  0
 17 33  2  0  0  0  0
 17 34  1  0  0  0  0
 18 20  2  0  0  0  0
 18 39  1  0  0  0  0
 19 21  2  0  0  0  0
 19 40  1  0  0  0  0
 20 48  1  0  0  0  0
 21 41  1  0  0  0  0
 22 30  2  0  0  0  0
 22 31  1  0  0  0  0
 22 51  1  0  0  0  0
 23 30  1  0  0  0  0
 23 70  1  0  0  0  0
 24 31  2  0  0  0  0
 24 71  1  0  0  0  0
 25 80  1  0  0  0  0
 26 81  1  0  0  0  0
 27 29  2  0  0  0  0
 27 80  1  0  0  0  0
 28 82  1  0  0  0  0
 29 83  1  0  0  0  0
 30 84  1  0  0  0  0
 31 85  1  0  0  0  0
 32 64  2  0  0  0  0
 33 65  1  0  0  0  0
 33 68  1  0  0  0  0
 34 69  1  0  0  0  0
 34 75  2  0  0  0  0
 35 49  1  0  0  0  0
 35 72  1  0  0  0  0
 35 76  2  0  0  0  0
 36 60  1  0  0  0  0
 36 66  1  0  0  0  0
 36 77  2  0  0  0  0
 37 61  1  0  0  0  0
 37 73  1  0  0  0  0
 37 78  2  0  0  0  0
 38 67  1  0  0  0  0
 38 70  1  0  0  0  0
 38 79  2  0  0  0  0
 39 42  1  0  0  0  0
 40 49  1  0  0  0  0
 41 66  1  0  0  0  0
 42 44  1  0  0  0  0
 43 45  1  0  0  0  0
 43 46  1  0  0  0  0
 44 48  1  0  0  0  0
 45 50  1  0  0  0  0
 46 67  1  0  0  0  0
 47 50  1  0  0  0  0
 47 67  1  0  0  0  0
 48 72  1  0  0  0  0
 49 66  1  0  0  0  0
 50 65  1  0  0  0  0
 52 61  1  0  0  0  0
 53 62  1  0  0  0  0
 54 63  1  0  0  0  0
 55 63  1  0  0  0  0
 56 63  1  0  0  0  0
 57 74  1  0  0  0  0
 58 59  1  0  0  0  0
 58 62  1  0  0  0  0
 59 81  1  0  0  0  0
 60 63  1  0  0  0  0
 60 73  1  0  0  0  0
 61 74  1  0  0  0  0
 62 71  1  0  0  0  0
 64 65  1  0  0  0  0
M  CHG  1  74   1
M  ISO  4  38 100  59 101  70 100  81 101
M  END
> <Batch ID>
0018

> <Smiles>
CNC(C)C(=O)NC(C(=O)N1Cc2cc([101O:1][101CH2:1]CC(C)Nc3cc([100NH:0][100C:0](=O)N4CCCC(n5nc(-c6ccc(Oc7ccc(F)cc7F)cc6)c(C(N)=O)c5N)C4)c(F)c(C)c3Cl)ccc2CC1C(=O)NC1CCCc2ccccc21)C(C)(C)C

> <Shape>
0.245

> <Color>
0.091

> <Negative vol penalty>
0.000

$$$$

  -OEChem-04052316043D

 81 89  0     1  0  0  0  0  0999 V2000
  -28.0469  -35.3274   24.7216 C   0  0  0  0  0  0  0  0  0  0  0  0
  -28.8329  -34.2668   24.2827 C   0  0  0  0  0  0  0  0  0  0  0  0
  -24.1518   -9.6632   21.4873 C   0  0  0  0  0  0  0  0  0  0  0  0
  -24.5937  -10.7941   23.5760 C   0  0  0  0  0  0  0  0  0  0  0  0
  -26.6853  -35.1359   24.9521 C   0  0  0  0  0  0  0  0  0  0  0  0
  -28.2578  -33.0136   24.0749 C   0  0  0  0  0  0  0  0  0  0  0  0
  -28.8260  -27.2368   19.8770 C   0  0  0  0  0  0  0  0  0  0  0  0
  -23.7408   -8.5294   22.1880 C   0  0  0  0  0  0  0  0  0  0  0  0
  -24.1827   -9.6602   24.2768 C   0  0  0  0  0  0  0  0  0  0  0  0
  -28.9553  -25.8513   19.9632 C   0  0  0  0  0  0  0  0  0  0  0  0
  -21.2651   -8.2053   25.1663 C   0  0  0  0  0  0  0  0  0  0  0  0
  -20.4140   -8.3917   26.2555 C   0  0  0  0  0  0  0  0  0  0  0  0
  -26.5772  -25.6575   20.3180 C   0  0  0  0  0  0  0  0  0  0  0  0
  -29.3032  -20.8917   19.0664 C   0  0  0  0  0  0  0  0  0  0  0  0
  -29.0060  -21.0590   21.4581 C   0  0  0  0  0  0  0  0  0  0  0  0
  -22.0547   -7.3782   27.7109 C   0  0  0  0  0  0  0  0  0  0  0  0
  -24.5782  -10.7956   22.1813 C   0  0  0  0  0  0  0  0  0  0  0  0
  -24.2019  -13.0473   21.0428 C   0  0  0  0  0  0  0  0  0  0  0  0
  -26.0913  -33.8821   24.7379 C   0  0  0  0  0  0  0  0  0  0  0  0
  -27.5707  -27.8449   20.0219 C   0  0  0  0  0  0  0  0  0  0  0  0
  -26.8872  -32.8047   24.3041 C   0  0  0  0  0  0  0  0  0  0  0  0
  -26.4342  -27.0507   20.2308 C   0  0  0  0  0  0  0  0  0  0  0  0
  -29.1900  -21.6705   20.2180 C   0  0  0  0  0  0  0  0  0  0  0  0
  -29.2323  -19.5014   19.1548 C   0  0  0  0  0  0  0  0  0  0  0  0
  -28.9351  -19.6687   21.5466 C   0  0  0  0  0  0  0  0  0  0  0  0
  -29.0482  -18.8899   20.3950 C   0  0  0  0  0  0  0  0  0  0  0  0
  -23.7563   -8.5279   23.5828 C   0  0  0  0  0  0  0  0  0  0  0  0
  -27.8313  -25.0616   20.1866 C   0  0  0  0  0  0  0  0  0  0  0  0
  -22.5110   -7.6053   25.3493 C   0  0  0  0  0  0  0  0  0  0  0  0
  -20.8088   -7.9781   27.5278 C   0  0  0  0  0  0  0  0  0  0  0  0
  -22.9058   -7.1918   26.6216 C   0  0  0  0  0  0  0  0  0  0  0  0
  -25.0034  -11.9670   21.4579 C   0  0  0  0  0  0  0  0  0  0  0  0
  -25.0723  -13.8940   20.4012 C   0  0  0  0  0  0  0  0  0  0  0  0
  -22.7961  -13.2658   21.2214 C   0  0  0  0  0  0  0  0  0  0  0  0
  -26.3054  -29.9172   22.0733 C   0  0  0  0  0  0  0  0  0  0  0  0
  -23.7864  -29.8035   20.0327 C   0  0  0  0  0  0  0  0  0  0  0  0
  -22.0686  -28.0743   17.6440 C   0  0  0  0  0  0  0  0  0  0  0  0
  -29.9540  -16.5564   20.1109 C   0  0  0  0  0  0  0  0  0  0  0  0
  -24.6248  -33.7114   25.0460 C   0  0  0  0  0  0  0  0  0  0  0  0
  -27.4442  -29.3387   19.8997 C   0  0  0  0  0  0  0  0  0  0  0  0
  -25.0611  -27.6530   20.3729 C   0  0  0  0  0  0  0  0  0  0  0  0
  -24.0189  -32.4468   24.4427 C   0  0  0  0  0  0  0  0  0  0  0  0
  -29.8666  -13.1971   18.9344 C   0  0  0  0  0  0  0  0  0  0  0  0
  -24.9231  -31.2458   24.7012 C   0  0  0  0  0  0  0  0  0  0  0  0
  -28.5276  -12.6664   19.4519 C   0  0  0  0  0  0  0  0  0  0  0  0
  -30.5260  -14.1446   19.9349 C   0  0  0  0  0  0  0  0  0  0  0  0
  -28.3386  -14.7216   20.9106 C   0  0  0  0  0  0  0  0  0  0  0  0
  -26.2952  -31.4366   24.0435 C   0  0  1  0  0  0  0  0  0  0  0  0
  -26.1921  -29.8895   20.5752 C   0  0  1  0  0  0  0  0  0  0  0  0
  -27.6057  -13.8137   19.9095 C   0  0  2  0  0  0  0  0  0  0  0  0
  -29.3564  -18.6939   17.9032 C   0  0  0  0  0  0  0  0  0  0  0  0
  -30.0203  -19.0307   23.7149 C   0  0  0  0  0  0  0  0  0  0  0  0
  -20.0281  -28.2212   16.1906 C   0  0  0  0  0  0  0  0  0  0  0  0
  -22.0289  -29.1410   22.4374 C   0  0  0  0  0  0  0  0  0  0  0  0
  -20.2556  -28.3782   20.8431 C   0  0  0  0  0  0  0  0  0  0  0  0
  -21.0153  -30.7541   20.8173 C   0  0  0  0  0  0  0  0  0  0  0  0
  -23.6829  -27.9576   15.1662 C   0  0  0  0  0  0  0  0  0  0  0  0
  -28.7378  -19.0426   22.8894 C   0  0  0  0  0  0  0  0  0  0  0  0
  -29.2660  -23.1660   20.1228 C   0  0  0  0  0  0  0  0  0  1  0  0
  -22.5439  -28.9542   19.9143 C   0  0  1  0  0  0  0  0  0  0  0  0
  -21.5201  -28.4973   16.2932 C   0  0  2  0  0  0  0  0  0  0  0  0
  -21.4869  -29.2954   21.0023 C   0  0  0  0  0  0  0  0  0  0  0  0
  -26.2846  -12.1116   21.1091 N   0  0  0  0  0  0  0  0  0  0  0  0
  -26.2947  -13.2927   20.4680 N   0  0  0  0  0  0  0  0  0  0  0  0
  -24.9899  -29.1185   20.2521 N   0  0  0  0  0  0  0  0  0  0  0  0
  -29.5952  -15.2079   20.3196 N   0  0  0  0  0  0  0  0  0  0  0  0
  -24.9037  -15.0868   19.7919 N   0  0  0  0  0  0  0  0  0  0  0  0
  -22.0504  -12.2950   21.9039 N   0  0  0  0  0  0  0  0  0  0  0  0
  -28.9763  -17.4777   20.4851 N   0  0  0  0  0  0  0  0  0  0  0  0
  -26.2136  -31.1824   22.6212 N   0  0  0  0  0  0  0  0  0  0  0  0
  -22.0666  -29.1177   18.5454 N   0  0  0  0  0  0  0  0  0  0  0  0
  -22.2111  -27.7581   15.1991 N   0  3  0  0  0  0  0  0  0  0  0  0
  -22.2154  -14.2838   20.7742 O   0  0  0  0  0  0  0  0  0  0  0  0
  -26.4629  -28.8681   22.6867 O   0  0  0  0  0  0  0  0  0  0  0  0
  -23.6935  -31.0290   19.9271 O   0  0  0  0  0  0  0  0  0  0  0  0
  -22.4563  -26.9316   17.8774 O   0  0  0  0  0  0  0  0  0  0  0  0
  -31.0370  -16.8698   19.6100 O   0  0  0  0  0  0  0  0  0  0  0  0
  -23.3551   -7.4217   24.2670 O   0  0  0  0  0  0  0  0  0  0  0  0
  -27.9548  -23.7091   20.2718 O   0  0  0  0  0  0  0  0  0  1  0  0
  -19.9920   -8.1585   28.5740 F   0  0  0  0  0  0  0  0  0  0  0  0
  -24.1020   -6.6159   26.8038 F   0  0  0  0  0  0  0  0  0  0  0  0
  1  2  1  0  0  0  0
  1  5  2  0  0  0  0
  2  6  2  0  0  0  0
  3  8  2  0  0  0  0
  3 17  1  0  0  0  0
  4  9  1  0  0  0  0
  4 17  2  0  0  0  0
  5 19  1  0  0  0  0
  6 21  1  0  0  0  0
  7 10  2  0  0  0  0
  7 20  1  0  0  0  0
  8 27  1  0  0  0  0
  9 27  2  0  0  0  0
 10 28  1  0  0  0  0
 11 12  2  0  0  0  0
 11 29  1  0  0  0  0
 12 30  1  0  0  0  0
 13 22  1  0  0  0  0
 13 28  2  0  0  0  0
 14 23  1  0  0  0  0
 14 24  2  0  0  0  0
 15 23  2  0  0  0  0
 15 25  1  0  0  0  0
 16 30  2  0  0  0  0
 16 31  1  0  0  0  0
 17 32  1  0  0  0  0
 18 32  1  0  0  0  0
 18 33  2  0  0  0  0
 18 34  1  0  0  0  0
 19 21  2  0  0  0  0
 19 39  1  0  0  0  0
 20 22  2  0  0  0  0
 20 40  1  0  0  0  0
 21 48  1  0  0  0  0
 22 41  1  0  0  0  0
 23 59  1  0  0  0  0
 24 26  1  0  0  0  0
 24 51  1  0  0  0  0
 25 26  2  0  0  0  0
 25 58  1  0  0  0  0
 26 69  1  0  0  0  0
 27 78  1  0  0  0  0
 28 79  1  0  0  0  0
 29 31  2  0  0  0  0
 29 78  1  0  0  0  0
 30 80  1  0  0  0  0
 31 81  1  0  0  0  0
 32 63  2  0  0  0  0
 33 64  1  0  0  0  0
 33 67  1  0  0  0  0
 34 68  1  0  0  0  0
 34 73  2  0  0  0  0
 35 49  1  0  0  0  0
 35 70  1  0  0  0  0
 35 74  2  0  0  0  0
 36 60  1  0  0  0  0
 36 65  1  0  0  0  0
 36 75  2  0  0  0  0
 37 61  1  0  0  0  0
 37 71  1  0  0  0  0
 37 76  2  0  0  0  0
 38 66  1  0  0  0  0
 38 69  1  0  0  0  0
 38 77  2  0  0  0  0
 39 42  1  0  0  0  0
 40 49  1  0  0  0  0
 41 65  1  0  0  0  0
 42 44  1  0  0  0  0
 43 45  1  0  0  0  0
 43 46  1  0  0  0  0
 44 48  1  0  0  0  0
 45 50  1  0  0  0  0
 46 66  1  0  0  0  0
 47 50  1  0  0  0  0
 47 66  1  0  0  0  0
 48 70  1  0  0  0  0
 49 65  1  0  0  0  0
 50 64  1  0  0  0  0
 52 58  1  0  0  0  0
 53 61  1  0  0  0  0
 54 62  1  0  0  0  0
 55 62  1  0  0  0  0
 56 62  1  0  0  0  0
 57 72  1  0  0  0  0
 59 79  1  0  0  0  0
 60 62  1  0  0  0  0
 60 71  1  0  0  0  0
 61 72  1  0  0  0  0
 63 64  1  0  0  0  0
M  CHG  1  72   1
M  ISO  4  38 100  59 101  69 100  79 101
M  END
> <Batch ID>
0018

> <Smiles>
CCc1cc([101CH2:1][101O:1]c2ccc3c(c2)CN(C(=O)C(NC(=O)C(C)NC)C(C)(C)C)C(C(=O)NC2CCCc4ccccc42)C3)cc(C)c1[100NH:0][100C:0](=O)N1CCCC(n2nc(-c3ccc(Oc4ccc(F)cc4F)cc3)c(C(N)=O)c2N)C1

> <Shape>
0.328

> <Color>
0.113

> <Negative vol penalty>
0.000

$$$$

  -OEChem-04052316043D

 85 93  0     1  0  0  0  0  0999 V2000
  -24.6141  -33.6195   23.6532 C   0  0  0  0  0  0  0  0  0  0  0  0
  -25.7401  -32.8030   23.6811 C   0  0  0  0  0  0  0  0  0  0  0  0
  -23.0709   -9.8686   19.9540 C   0  0  0  0  0  0  0  0  0  0  0  0
  -23.8287   -9.8924   22.2480 C   0  0  0  0  0  0  0  0  0  0  0  0
  -23.3422  -33.0499   23.6115 C   0  0  0  0  0  0  0  0  0  0  0  0
  -25.5948  -31.4162   23.6686 C   0  0  0  0  0  0  0  0  0  0  0  0
  -28.8277  -25.4854   21.2832 C   0  0  0  0  0  0  0  0  0  0  0  0
  -22.3264   -8.7176   20.2119 C   0  0  0  0  0  0  0  0  0  0  0  0
  -23.0841   -8.7414   22.5059 C   0  0  0  0  0  0  0  0  0  0  0  0
  -29.2810  -24.2482   21.7389 C   0  0  0  0  0  0  0  0  0  0  0  0
  -20.5110   -5.5669   20.1753 C   0  0  0  0  0  0  0  0  0  0  0  0
  -20.5748   -4.5295   19.2451 C   0  0  0  0  0  0  0  0  0  0  0  0
  -27.0368  -23.3765   21.5862 C   0  0  0  0  0  0  0  0  0  0  0  0
  -28.3168  -19.3752   24.3371 C   0  0  0  0  0  0  0  0  0  0  0  0
  -22.9592   -4.3611   19.5964 C   0  0  0  0  0  0  0  0  0  0  0  0
  -23.8221  -10.4560   20.9720 C   0  0  0  0  0  0  0  0  0  0  0  0
  -24.1650  -12.9800   20.8335 C   0  0  0  0  0  0  0  0  0  0  0  0
  -23.1815  -31.6556   23.5887 C   0  0  0  0  0  0  0  0  0  0  0  0
  -27.4714  -25.6809   20.9854 C   0  0  0  0  0  0  0  0  0  0  0  0
  -24.3195  -30.8274   23.6279 C   0  0  0  0  0  0  0  0  0  0  0  0
  -26.5694  -24.6164   21.1243 C   0  0  0  0  0  0  0  0  0  0  0  0
  -28.5220  -19.7154   23.0001 C   0  0  0  0  0  0  0  0  0  0  0  0
  -29.7301  -17.4352   24.0604 C   0  0  0  0  0  0  0  0  0  0  0  0
  -29.9352  -17.7755   22.7233 C   0  0  0  0  0  0  0  0  0  0  0  0
  -28.9209  -18.2351   24.8673 C   0  0  0  0  0  0  0  0  0  0  0  0
  -22.3329   -8.1541   21.4878 C   0  0  0  0  0  0  0  0  0  0  0  0
  -28.3850  -23.1944   21.8933 C   0  0  0  0  0  0  0  0  0  0  0  0
  -21.6714   -6.0015   20.8160 C   0  0  0  0  0  0  0  0  0  0  0  0
  -21.7989   -3.9266   18.9557 C   0  0  0  0  0  0  0  0  0  0  0  0
  -22.8954   -5.3986   20.5266 C   0  0  0  0  0  0  0  0  0  0  0  0
  -29.3312  -18.9156   22.1931 C   0  0  0  0  0  0  0  0  0  0  0  0
  -24.5919  -11.6446   20.7061 C   0  0  0  0  0  0  0  0  0  0  0  0
  -25.2578  -13.7264   20.4656 C   0  0  0  0  0  0  0  0  0  0  0  0
  -22.8944  -13.4995   21.2474 C   0  0  0  0  0  0  0  0  0  0  0  0
  -25.1757  -27.5665   22.1159 C   0  0  0  0  0  0  0  0  0  0  0  0
  -23.4730  -26.3142   19.6553 C   0  0  0  0  0  0  0  0  0  0  0  0
  -23.0278  -23.7481   17.4499 C   0  0  0  0  0  0  0  0  0  0  0  0
  -30.7418  -14.7447   20.6515 C   0  0  0  0  0  0  0  0  0  0  0  0
  -21.7851  -31.0856   23.5913 C   0  0  0  0  0  0  0  0  0  0  0  0
  -27.0030  -27.0138   20.4693 C   0  0  0  0  0  0  0  0  0  0  0  0
  -25.1067  -24.7688   20.7989 C   0  0  0  0  0  0  0  0  0  0  0  0
  -21.7285  -29.6107   23.2021 C   0  0  0  0  0  0  0  0  0  0  0  0
  -29.6055  -12.3429   18.2815 C   0  0  0  0  0  0  0  0  0  0  0  0
  -22.7984  -28.8201   23.9486 C   0  0  0  0  0  0  0  0  0  0  0  0
  -28.1675  -12.0530   18.7153 C   0  0  0  0  0  0  0  0  0  0  0  0
  -30.5216  -12.5723   19.4816 C   0  0  0  0  0  0  0  0  0  0  0  0
  -28.6188  -13.3145   20.8609 C   0  0  0  0  0  0  0  0  0  0  0  0
  -24.2035  -29.3190   23.5904 C   0  0  1  0  0  0  0  0  0  0  0  0
  -25.5113  -27.2479   20.6864 C   0  0  1  0  0  0  0  0  0  0  0  0
  -27.6457  -13.1315   19.6837 C   0  0  2  0  0  0  0  0  0  0  0  0
  -30.3780  -16.2118   24.6301 C   0  0  0  0  0  0  0  0  0  0  0  0
  -26.9959  -16.1308   27.8983 C   0  0  0  0  0  0  0  0  0  0  0  0
  -21.5290  -22.9910   15.5851 C   0  0  0  0  0  0  0  0  0  0  0  0
  -21.3302  -25.5530   21.6897 C   0  0  0  0  0  0  0  0  0  0  0  0
  -20.3540  -24.0074   19.9791 C   0  0  0  0  0  0  0  0  0  0  0  0
  -20.4461  -26.4600   19.5334 C   0  0  0  0  0  0  0  0  0  0  0  0
  -25.2616  -23.7244   15.5086 C   0  0  0  0  0  0  0  0  0  0  0  0
  -30.8073  -16.9044   21.8723 C   0  0  0  0  0  0  0  0  0  0  0  0
  -27.8521  -20.9504   22.4734 C   0  0  0  0  0  0  0  0  0  1  0  0
  -27.3087  -17.5855   28.2191 C   0  0  0  0  0  0  0  0  0  0  0  0
  -27.5948  -18.4150   26.9732 C   0  0  0  0  0  0  0  0  0  0  0  0
  -22.5821  -25.1088   19.4758 C   0  0  1  0  0  0  0  0  0  0  0  0
  -22.8029  -23.7377   15.9486 C   0  0  2  0  0  0  0  0  0  0  0  0
  -21.2053  -25.2797   20.1776 C   0  0  0  0  0  0  0  0  0  0  0  0
  -25.8571  -11.5452   20.2897 N   0  0  0  0  0  0  0  0  0  0  0  0
  -26.2346  -12.8276   20.1522 N   0  0  0  0  0  0  0  0  0  0  0  0
  -24.6963  -26.0931   20.3036 N   0  0  0  0  0  0  0  0  0  0  0  0
  -29.9706  -13.6077   20.3593 N   0  0  0  0  0  0  0  0  0  0  0  0
  -25.4688  -15.0572   20.3829 N   0  0  0  0  0  0  0  0  0  0  0  0
  -21.8818  -12.5932   21.5905 N   0  0  0  0  0  0  0  0  0  0  0  0
  -28.7007  -17.9078   26.2235 N   0  0  0  0  0  0  0  0  0  0  0  0
  -24.6051  -28.8120   22.2958 N   0  0  0  0  0  0  0  0  0  0  0  0
  -22.4953  -24.8757   18.0383 N   0  0  0  0  0  0  0  0  0  0  0  0
  -30.1422  -15.6800   21.4860 N   0  0  0  0  0  0  0  0  0  0  0  0
  -23.9474  -23.0787   15.2580 N   0  3  0  0  0  0  0  0  0  0  0  0
  -22.6585  -14.7305   21.2953 O   0  0  0  0  0  0  0  0  0  0  0  0
  -25.4154  -26.7426   22.9908 O   0  0  0  0  0  0  0  0  0  0  0  0
  -23.1004  -27.4103   19.2293 O   0  0  0  0  0  0  0  0  0  0  0  0
  -23.6137  -22.8444   18.0420 O   0  0  0  0  0  0  0  0  0  0  0  0
  -31.8782  -14.9164   20.1976 O   0  0  0  0  0  0  0  0  0  0  0  0
  -21.6063   -7.0311   21.7398 O   0  0  0  0  0  0  0  0  0  0  0  0
  -28.8247  -21.9860   22.3386 O   0  0  0  0  0  0  0  0  0  1  0  0
  -21.8597   -2.9293   18.0635 F   0  0  0  0  0  0  0  0  0  0  0  0
  -24.0134   -5.8110   21.1397 F   0  0  0  0  0  0  0  0  0  0  0  0
  -29.5833  -19.3418   20.5329 Cl  0  0  0  0  0  0  0  0  0  0  0  0
  1  2  1  0  0  0  0
  1  5  2  0  0  0  0
  2  6  2  0  0  0  0
  3  8  2  0  0  0  0
  3 16  1  0  0  0  0
  4  9  1  0  0  0  0
  4 16  2  0  0  0  0
  5 18  1  0  0  0  0
  6 20  1  0  0  0  0
  7 10  2  0  0  0  0
  7 19  1  0  0  0  0
  8 26  1  0  0  0  0
  9 26  2  0  0  0  0
 10 27  1  0  0  0  0
 11 12  2  0  0  0  0
 11 28  1  0  0  0  0
 12 29  1  0  0  0  0
 13 21  1  0  0  0  0
 13 27  2  0  0  0  0
 14 22  2  0  0  0  0
 14 25  1  0  0  0  0
 15 29  2  0  0  0  0
 15 30  1  0  0  0  0
 16 32  1  0  0  0  0
 17 32  1  0  0  0  0
 17 33  2  0  0  0  0
 17 34  1  0  0  0  0
 18 20  2  0  0  0  0
 18 39  1  0  0  0  0
 19 21  2  0  0  0  0
 19 40  1  0  0  0  0
 20 48  1  0  0  0  0
 21 41  1  0  0  0  0
 22 31  1  0  0  0  0
 22 59  1  0  0  0  0
 23 24  1  0  0  0  0
 23 25  2  0  0  0  0
 23 51  1  0  0  0  0
 24 31  2  0  0  0  0
 24 58  1  0  0  0  0
 25 71  1  0  0  0  0
 26 81  1  0  0  0  0
 27 82  1  0  0  0  0
 28 30  2  0  0  0  0
 28 81  1  0  0  0  0
 29 83  1  0  0  0  0
 30 84  1  0  0  0  0
 31 85  1  0  0  0  0
 32 65  2  0  0  0  0
 33 66  1  0  0  0  0
 33 69  1  0  0  0  0
 34 70  1  0  0  0  0
 34 76  2  0  0  0  0
 35 49  1  0  0  0  0
 35 72  1  0  0  0  0
 35 77  2  0  0  0  0
 36 62  1  0  0  0  0
 36 67  1  0  0  0  0
 36 78  2  0  0  0  0
 37 63  1  0  0  0  0
 37 73  1  0  0  0  0
 37 79  2  0  0  0  0
 38 68  1  0  0  0  0
 38 74  1  0  0  0  0
 38 80  2  0  0  0  0
 39 42  1  0  0  0  0
 40 49  1  0  0  0  0
 41 67  1  0  0  0  0
 42 44  1  0  0  0  0
 43 45  1  0  0  0  0
 43 46  1  0  0  0  0
 44 48  1  0  0  0  0
 45 50  1  0  0  0  0
 46 68  1  0  0  0  0
 47 50  1  0  0  0  0
 47 68  1  0  0  0  0
 48 72  1  0  0  0  0
 49 67  1  0  0  0  0
 50 66  1  0  0  0  0
 52 60  1  0  0  0  0
 53 63  1  0  0  0  0
 54 64  1  0  0  0  0
 55 64  1  0  0  0  0
 56 64  1  0  0  0  0
 57 75  1  0  0  0  0
 58 74  1  0  0  0  0
 59 82  1  0  0  0  0
 60 61  1  0  0  0  0
 61 71  1  0  0  0  0
 62 64  1  0  0  0  0
 62 73  1  0  0  0  0
 63 75  1  0  0  0  0
 65 66  1  0  0  0  0
M  CHG  1  75   1
M  ISO  4  38 100  59 101  74 100  82 101
M  END
> <Batch ID>
0018

> <Smiles>
CCCNc1cc([101CH2:1][101O:1]c2ccc3c(c2)CN(C(=O)C(NC(=O)C(C)NC)C(C)(C)C)C(C(=O)NC2CCCc4ccccc42)C3)c(Cl)c(C[100NH:0][100C:0](=O)N2CCCC(n3nc(-c4ccc(Oc5ccc(F)cc5F)cc4)c(C(N)=O)c3N)C2)c1C

> <Shape>
0.253

> <Color>
0.191

> <Negative vol penalty>
0.000

$$$$

  -OEChem-04052316043D

 87 95  0     1  0  0  0  0  0999 V2000
  -21.2780  -23.3083   22.0372 C   0  0  0  0  0  0  0  0  0  0  0  0
  -22.5914  -23.7356   21.8704 C   0  0  0  0  0  0  0  0  0  0  0  0
  -25.7660  -12.3489   19.5533 C   0  0  0  0  0  0  0  0  0  0  0  0
  -24.3040  -12.6798   21.4481 C   0  0  0  0  0  0  0  0  0  0  0  0
  -20.2304  -24.2229   21.9362 C   0  0  0  0  0  0  0  0  0  0  0  0
  -22.8579  -25.0776   21.6014 C   0  0  0  0  0  0  0  0  0  0  0  0
  -26.6977  -26.8871   24.3632 C   0  0  0  0  0  0  0  0  0  0  0  0
  -26.0049  -11.0382   19.9666 C   0  0  0  0  0  0  0  0  0  0  0  0
  -24.5428  -11.3691   21.8613 C   0  0  0  0  0  0  0  0  0  0  0  0
  -27.9884  -26.5560   23.9531 C   0  0  0  0  0  0  0  0  0  0  0  0
  -23.4958   -8.2662   21.0270 C   0  0  0  0  0  0  0  0  0  0  0  0
  -22.3980   -7.5041   21.4266 C   0  0  0  0  0  0  0  0  0  0  0  0
  -28.2054  -28.7199   22.9092 C   0  0  0  0  0  0  0  0  0  0  0  0
  -23.3830   -7.2334   23.6160 C   0  0  0  0  0  0  0  0  0  0  0  0
  -24.9156  -13.1697   20.2941 C   0  0  0  0  0  0  0  0  0  0  0  0
  -27.8861  -21.8703   18.5035 C   0  0  0  0  0  0  0  0  0  0  0  0
  -23.6510  -14.9713   19.0047 C   0  0  0  0  0  0  0  0  0  0  0  0
  -20.4849  -25.5786   21.6754 C   0  0  0  0  0  0  0  0  0  0  0  0
  -26.1461  -28.1350   24.0394 C   0  0  0  0  0  0  0  0  0  0  0  0
  -21.8128  -26.0109   21.4955 C   0  0  0  0  0  0  0  0  0  0  0  0
  -26.9084  -29.0654   23.3186 C   0  0  0  0  0  0  0  0  0  0  0  0
  -29.2402  -22.0504   18.2214 C   0  0  0  0  0  0  0  0  0  0  0  0
  -27.7670  -24.1226   19.3694 C   0  0  0  0  0  0  0  0  0  0  0  0
  -29.1211  -24.3027   19.0873 C   0  0  0  0  0  0  0  0  0  0  0  0
  -25.3933  -10.5483   21.1205 C   0  0  0  0  0  0  0  0  0  0  0  0
  -28.7414  -27.4713   23.2235 C   0  0  0  0  0  0  0  0  0  0  0  0
  -24.5372   -8.5119   21.9219 C   0  0  0  0  0  0  0  0  0  0  0  0
  -27.1495  -22.9064   19.0775 C   0  0  0  0  0  0  0  0  0  0  0  0
  -22.3416   -6.9877   22.7211 C   0  0  0  0  0  0  0  0  0  0  0  0
  -24.4808   -7.9955   23.2164 C   0  0  0  0  0  0  0  0  0  0  0  0
  -29.8577  -23.2665   18.5133 C   0  0  0  0  0  0  0  0  0  0  0  0
  -24.6689  -14.5238   19.8681 C   0  0  0  0  0  0  0  0  0  0  0  0
  -23.8454  -16.3282   18.9188 C   0  0  0  0  0  0  0  0  0  0  0  0
  -27.2327  -20.5917   18.1978 C   0  0  0  0  0  0  0  0  0  0  0  0
  -22.6216  -14.2269   18.3399 C   0  0  0  0  0  0  0  0  0  0  0  0
  -23.6418  -29.1082   22.3409 C   0  0  0  0  0  0  0  0  0  0  0  0
  -24.4876  -32.0215   23.4896 C   0  0  0  0  0  0  0  0  0  0  0  0
  -26.9319  -34.0384   24.7561 C   0  0  0  0  0  0  0  0  0  0  0  0
  -19.3169  -26.5213   21.5283 C   0  0  0  0  0  0  0  0  0  0  0  0
  -24.7623  -28.4871   24.5122 C   0  0  0  0  0  0  0  0  0  0  0  0
  -26.3699  -30.4262   22.9629 C   0  0  0  0  0  0  0  0  0  0  0  0
  -19.7086  -27.9943   21.6125 C   0  0  0  0  0  0  0  0  0  0  0  0
  -26.8165  -19.4128   21.6042 C   0  0  0  0  0  0  0  0  0  0  0  0
  -20.9329  -28.2714   20.7459 C   0  0  0  0  0  0  0  0  0  0  0  0
  -26.1495  -18.0556   21.3766 C   0  0  0  0  0  0  0  0  0  0  0  0
  -27.8384  -19.7198   20.5138 C   0  0  0  0  0  0  0  0  0  0  0  0
  -26.6188  -18.3013   18.8970 C   0  0  0  0  0  0  0  0  0  0  0  0
  -22.1439  -27.4630   21.2271 C   0  0  1  0  0  0  0  0  0  0  0  0
  -24.1108  -29.5905   23.6844 C   0  0  1  0  0  0  0  0  0  0  0  0
  -25.5593  -17.9560   19.9579 C   0  0  1  0  0  0  0  0  0  0  0  0
  -26.9738  -25.2318   19.9839 C   0  0  0  0  0  0  0  0  0  0  0  0
  -30.2978  -21.1863   16.1187 C   0  0  0  0  0  0  0  0  0  0  0  0
  -27.3307  -36.3799   25.5657 C   0  0  0  0  0  0  0  0  0  0  0  0
  -32.6382  -26.4551   21.7174 C   0  0  0  0  0  0  0  0  0  0  0  0
  -24.5201  -33.0112   20.6035 C   0  0  0  0  0  0  0  0  0  0  0  0
  -25.8134  -35.0105   21.3771 C   0  0  0  0  0  0  0  0  0  0  0  0
  -23.5088  -34.6069   22.2422 C   0  0  0  0  0  0  0  0  0  0  0  0
  -27.6730  -33.1000   27.4633 C   0  0  0  0  0  0  0  0  0  0  0  0
  -24.8989  -23.0812   18.3290 C   0  0  0  0  0  0  0  0  0  0  0  0
  -30.0510  -20.9561   17.6062 C   0  0  0  0  0  0  0  0  0  0  0  0
  -29.8049  -25.6027   19.3928 C   0  0  0  0  0  0  0  0  0  0  0  0
  -30.4678  -27.7445   21.6108 C   0  0  0  0  0  0  0  0  0  1  0  0
  -25.4037  -33.1284   23.0266 C   0  0  1  0  0  0  0  0  0  0  0  0
  -26.9525  -34.9611   25.9613 C   0  0  2  0  0  0  0  0  0  0  0  0
  -31.4149  -26.7974   20.8826 C   0  0  2  0  0  0  0  0  0  0  0  0
  -24.8212  -33.9130   21.8172 C   0  0  0  0  0  0  0  0  0  0  0  0
  -25.4520  -15.5160   20.2997 N   0  0  0  0  0  0  0  0  0  0  0  0
  -24.9261  -16.6004   19.7051 N   0  0  0  0  0  0  0  0  0  0  0  0
  -27.2285  -19.6014   19.1832 N   0  0  0  0  0  0  0  0  0  0  0  0
  -25.0095  -30.7210   23.4423 N   0  0  0  0  0  0  0  0  0  0  0  0
  -23.1958  -17.3032   18.2482 N   0  0  0  0  0  0  0  0  0  0  0  0
  -22.5656  -12.8406   18.5379 N   0  0  0  0  0  0  0  0  0  0  0  0
  -22.7258  -28.0754   22.4022 N   0  0  0  0  0  0  0  0  0  0  0  0
  -25.6732  -33.9528   24.1998 N   0  0  0  0  0  0  0  0  0  0  0  0
  -27.9376  -34.4756   26.9687 N   0  3  0  0  0  0  0  0  0  0  0  0
  -30.6838  -25.5311   20.5877 N   0  3  0  0  0  0  0  0  0  0  0  0
  -26.7229  -20.4961   17.0823 O   0  0  0  0  0  0  0  0  0  0  0  0
  -21.7866  -14.7727   17.5794 O   0  0  0  0  0  0  0  0  0  0  0  0
  -24.0776  -29.6350   21.3239 O   0  0  0  0  0  0  0  0  0  0  0  0
  -23.3532  -32.3012   23.8855 O   0  0  0  0  0  0  0  0  0  0  0  0
  -27.9333  -33.4551   24.3466 O   0  0  0  0  0  0  0  0  0  0  0  0
  -25.6260   -9.2694   21.5239 O   0  0  0  0  0  0  0  0  0  0  0  0
  -25.8247  -22.7338   19.3554 O   0  0  0  0  0  0  0  0  0  0  0  0
  -30.0013  -27.1504   22.8215 O   0  0  0  0  0  0  0  0  0  1  0  0
  -21.2867   -6.2571   23.1052 F   0  0  0  0  0  0  0  0  0  0  0  0
  -25.4777   -8.2292   24.0810 F   0  0  0  0  0  0  0  0  0  0  0  0
  -31.1602  -23.4396   18.2424 F   0  0  0  0  0  0  0  0  0  0  0  0
  1  2  1  0  0  0  0
  1  5  2  0  0  0  0
  2  6  2  0  0  0  0
  3  8  2  0  0  0  0
  3 15  1  0  0  0  0
  4  9  1  0  0  0  0
  4 15  2  0  0  0  0
  5 18  1  0  0  0  0
  6 20  1  0  0  0  0
  7 10  2  0  0  0  0
  7 19  1  0  0  0  0
  8 25  1  0  0  0  0
  9 25  2  0  0  0  0
 10 26  1  0  0  0  0
 11 12  2  0  0  0  0
 11 27  1  0  0  0  0
 12 29  1  0  0  0  0
 13 21  1  0  0  0  0
 13 26  2  0  0  0  0
 14 29  2  0  0  0  0
 14 30  1  0  0  0  0
 15 32  1  0  0  0  0
 16 22  2  0  0  0  0
 16 28  1  0  0  0  0
 16 34  1  0  0  0  0
 17 32  1  0  0  0  0
 17 33  2  0  0  0  0
 17 35  1  0  0  0  0
 18 20  2  0  0  0  0
 18 39  1  0  0  0  0
 19 21  2  0  0  0  0
 19 40  1  0  0  0  0
 20 48  1  0  0  0  0
 21 41  1  0  0  0  0
 22 31  1  0  0  0  0
 22 60  1  0  0  0  0
 23 24  1  0  0  0  0
 23 28  2  0  0  0  0
 23 51  1  0  0  0  0
 24 31  2  0  0  0  0
 24 61  1  0  0  0  0
 25 82  1  0  0  0  0
 26 84  1  0  0  0  0
 27 30  2  0  0  0  0
 27 82  1  0  0  0  0
 28 83  1  0  0  0  0
 29 85  1  0  0  0  0
 30 86  1  0  0  0  0
 31 87  1  0  0  0  0
 32 67  2  0  0  0  0
 33 68  1  0  0  0  0
 33 71  1  0  0  0  0
 34 69  1  0  0  0  0
 34 77  2  0  0  0  0
 35 72  1  0  0  0  0
 35 78  2  0  0  0  0
 36 49  1  0  0  0  0
 36 73  1  0  0  0  0
 36 79  2  0  0  0  0
 37 63  1  0  0  0  0
 37 70  1  0  0  0  0
 37 80  2  0  0  0  0
 38 64  1  0  0  0  0
 38 74  1  0  0  0  0
 38 81  2  0  0  0  0
 39 42  1  0  0  0  0
 40 49  1  0  0  0  0
 41 70  1  0  0  0  0
 42 44  1  0  0  0  0
 43 45  1  0  0  0  0
 43 46  1  0  0  0  0
 44 48  1  0  0  0  0
 45 50  1  0  0  0  0
 46 69  1  0  0  0  0
 47 50  1  0  0  0  0
 47 69  1  0  0  0  0
 48 73  1  0  0  0  0
 49 70  1  0  0  0  0
 50 68  1  0  0  0  0
 52 60  1  0  0  0  0
 53 64  1  0  0  0  0
 54 65  1  0  0  0  0
 55 66  1  0  0  0  0
 56 66  1  0  0  0  0
 57 66  1  0  0  0  0
 58 75  1  0  0  0  0
 59 83  1  0  0  0  0
 61 76  1  0  0  0  0
 62 65  1  0  0  0  0
 62 84  1  0  0  0  0
 63 66  1  0  0  0  0
 63 74  1  0  0  0  0
 64 75  1  0  0  0  0
 65 76  1  0  0  0  0
 67 68  1  0  0  0  0
M  CHG  2  75   1  76   1
M  ISO  4  16 100  34 100  62 101  84 101
M  END
> <Batch ID>
0018

> <Smiles>
CCc1c(F)c(CNC(C)[101CH2:1][101O:1]c2ccc3c(c2)CN(C(=O)C(NC(=O)C(C)NC)C(C)(C)C)C(C(=O)NC2CCCc4ccccc42)C3)c(C)c(OC)[100c:0]1[100C:0](=O)N1CCCC(n2nc(-c3ccc(Oc4ccc(F)cc4F)cc3)c(C(N)=O)c2N)C1

> <Shape>
0.250

> <Color>
0.064

> <Negative vol penalty>
0.000

$$$$

  -OEChem-04052316043D

 82 90  0     1  0  0  0  0  0999 V2000
  -41.7889  -21.3761   14.2227 C   0  0  0  0  0  0  0  0  0  0  0  0
  -41.1391  -20.8671   15.3426 C   0  0  0  0  0  0  0  0  0  0  0  0
  -23.0165  -10.0447   19.8311 C   0  0  0  0  0  0  0  0  0  0  0  0
  -23.8877   -9.7345   22.0630 C   0  0  0  0  0  0  0  0  0  0  0  0
  -41.6020  -22.7079   13.8550 C   0  0  0  0  0  0  0  0  0  0  0  0
  -40.3029  -21.6902   16.0962 C   0  0  0  0  0  0  0  0  0  0  0  0
  -35.1620  -20.0519   18.9932 C   0  0  0  0  0  0  0  0  0  0  0  0
  -22.2638   -8.8778   19.9626 C   0  0  0  0  0  0  0  0  0  0  0  0
  -23.1350   -8.5675   22.1946 C   0  0  0  0  0  0  0  0  0  0  0  0
  -34.8971  -19.7288   20.3233 C   0  0  0  0  0  0  0  0  0  0  0  0
  -19.3755   -7.9301   21.4432 C   0  0  0  0  0  0  0  0  0  0  0  0
  -18.0458   -7.9656   21.0235 C   0  0  0  0  0  0  0  0  0  0  0  0
  -34.1853  -21.9982   20.7264 C   0  0  0  0  0  0  0  0  0  0  0  0
  -32.4765  -17.7732   23.6517 C   0  0  0  0  0  0  0  0  0  0  0  0
  -18.5029   -6.2108   19.4270 C   0  0  0  0  0  0  0  0  0  0  0  0
  -23.8284  -10.4731   20.8813 C   0  0  0  0  0  0  0  0  0  0  0  0
  -24.2121  -12.9871   21.0819 C   0  0  0  0  0  0  0  0  0  0  0  0
  -40.7556  -23.5451   14.5989 C   0  0  0  0  0  0  0  0  0  0  0  0
  -34.9505  -21.3554   18.5216 C   0  0  0  0  0  0  0  0  0  0  0  0
  -40.1057  -23.0348   15.7389 C   0  0  0  0  0  0  0  0  0  0  0  0
  -34.4459  -22.3346   19.3893 C   0  0  0  0  0  0  0  0  0  0  0  0
  -31.8126  -18.9924   23.5166 C   0  0  0  0  0  0  0  0  0  0  0  0
  -30.6161  -19.0597   22.8027 C   0  0  0  0  0  0  0  0  0  0  0  0
  -30.0837  -17.9076   22.2238 C   0  0  0  0  0  0  0  0  0  0  0  0
  -30.7477  -16.6884   22.3589 C   0  0  0  0  0  0  0  0  0  0  0  0
  -22.3231   -8.1391   21.1444 C   0  0  0  0  0  0  0  0  0  0  0  0
  -34.4115  -20.7027   21.1909 C   0  0  0  0  0  0  0  0  0  0  0  0
  -20.2690   -7.0350   20.8548 C   0  0  0  0  0  0  0  0  0  0  0  0
  -17.6094   -7.1059   20.0154 C   0  0  0  0  0  0  0  0  0  0  0  0
  -19.8326   -6.1754   19.8467 C   0  0  0  0  0  0  0  0  0  0  0  0
  -31.9441  -16.6212   23.0728 C   0  0  0  0  0  0  0  0  0  0  0  0
  -24.6066  -11.6782   20.7458 C   0  0  0  0  0  0  0  0  0  0  0  0
  -25.2993  -13.7649   20.7666 C   0  0  0  0  0  0  0  0  0  0  0  0
  -22.9738  -13.4577   21.6302 C   0  0  0  0  0  0  0  0  0  0  0  0
  -36.8062  -23.6254   17.2938 C   0  0  0  0  0  0  0  0  0  0  0  0
  -33.9784  -25.1491   16.8420 C   0  0  0  0  0  0  0  0  0  0  0  0
  -30.7159  -25.5360   17.7657 C   0  0  0  0  0  0  0  0  0  0  0  0
  -30.7865  -14.7099   20.7999 C   0  0  0  0  0  0  0  0  0  0  0  0
  -40.6219  -24.9906   14.1899 C   0  0  0  0  0  0  0  0  0  0  0  0
  -35.2158  -21.6811   17.0774 C   0  0  0  0  0  0  0  0  0  0  0  0
  -34.1825  -23.7438   18.9274 C   0  0  0  0  0  0  0  0  0  0  0  0
  -39.4259  -25.6952   14.8250 C   0  0  0  0  0  0  0  0  0  0  0  0
  -29.5116  -12.6497   18.1908 C   0  0  0  0  0  0  0  0  0  0  0  0
  -39.3582  -25.3910   16.3182 C   0  0  0  0  0  0  0  0  0  0  0  0
  -28.0894  -12.3210   18.6506 C   0  0  0  0  0  0  0  0  0  0  0  0
  -30.4886  -12.7039   19.3639 C   0  0  0  0  0  0  0  0  0  0  0  0
  -28.6658  -13.2600   20.9250 C   0  0  0  0  0  0  0  0  0  0  0  0
  -39.1712  -23.8895   16.5674 C   0  0  1  0  0  0  0  0  0  0  0  0
  -35.4506  -23.1687   16.8337 C   0  0  1  0  0  0  0  0  0  0  0  0
  -27.6333  -13.2584   19.7859 C   0  0  2  0  0  0  0  0  0  0  0  0
  -29.9067  -20.3691   22.6591 C   0  0  0  0  0  0  0  0  0  0  0  0
  -28.7989  -17.9868   21.4590 C   0  0  0  0  0  0  0  0  0  0  0  0
  -28.6663  -26.8851   17.2397 C   0  0  0  0  0  0  0  0  0  0  0  0
  -35.1670  -27.5315   18.3324 C   0  0  0  0  0  0  0  0  0  0  0  0
  -32.8459  -28.4289   18.6069 C   0  0  0  0  0  0  0  0  0  0  0  0
  -33.8045  -28.1322   16.3231 C   0  0  0  0  0  0  0  0  0  0  0  0
  -29.1849  -23.1239   16.9931 C   0  0  0  0  0  0  0  0  0  0  0  0
  -32.4102  -20.2235   24.1536 C   0  0  0  0  0  0  0  0  0  0  0  0
  -33.1114  -21.1193   23.1382 C   0  0  0  0  0  0  0  0  0  1  0  0
  -33.1307  -26.0941   17.6590 C   0  0  1  0  0  0  0  0  0  0  0  0
  -29.4392  -25.6083   16.9477 C   0  0  2  0  0  0  0  0  0  0  0  0
  -33.7437  -27.5207   17.7398 C   0  0  0  0  0  0  0  0  0  0  0  0
  -25.8474  -11.6237   20.2544 N   0  0  0  0  0  0  0  0  0  0  0  0
  -26.2420  -12.9081   20.2794 N   0  0  0  0  0  0  0  0  0  0  0  0
  -34.4636  -24.0146   17.5078 N   0  0  0  0  0  0  0  0  0  0  0  0
  -29.9931  -13.6145   20.3984 N   0  0  0  0  0  0  0  0  0  0  0  0
  -25.5313  -15.0915   20.8612 N   0  0  0  0  0  0  0  0  0  0  0  0
  -21.9624  -12.5241   21.8944 N   0  0  0  0  0  0  0  0  0  0  0  0
  -30.1977  -15.5247   21.7664 N   0  0  0  0  0  0  0  0  0  0  0  0
  -37.7950  -23.5063   16.3359 N   0  0  0  0  0  0  0  0  0  0  0  0
  -31.7938  -26.0504   17.0767 N   0  0  0  0  0  0  0  0  0  0  0  0
  -28.5596  -24.4455   17.2564 N   0  3  0  0  0  0  0  0  0  0  0  0
  -22.7641  -14.6723   21.8632 O   0  0  0  0  0  0  0  0  0  0  0  0
  -36.9444  -24.0553   18.4329 O   0  0  0  0  0  0  0  0  0  0  0  0
  -34.1958  -25.4043   15.6549 O   0  0  0  0  0  0  0  0  0  0  0  0
  -30.7525  -25.0732   18.9037 O   0  0  0  0  0  0  0  0  0  0  0  0
  -31.8944  -14.9259   20.3020 O   0  0  0  0  0  0  0  0  0  0  0  0
  -21.5886   -7.0005   21.2732 O   0  0  0  0  0  0  0  0  0  0  0  0
  -34.1527  -20.3903   22.4899 O   0  0  0  0  0  0  0  0  0  1  0  0
  -16.3321   -7.1390   19.6136 F   0  0  0  0  0  0  0  0  0  0  0  0
  -20.6861   -5.3124   19.2785 F   0  0  0  0  0  0  0  0  0  0  0  0
  -32.8019  -15.1332   23.2664 Cl  0  0  0  0  0  0  0  0  0  0  0  0
  1  2  1  0  0  0  0
  1  5  2  0  0  0  0
  2  6  2  0  0  0  0
  3  8  2  0  0  0  0
  3 16  1  0  0  0  0
  4  9  1  0  0  0  0
  4 16  2  0  0  0  0
  5 18  1  0  0  0  0
  6 20  1  0  0  0  0
  7 10  2  0  0  0  0
  7 19  1  0  0  0  0
  8 26  1  0  0  0  0
  9 26  2  0  0  0  0
 10 27  1  0  0  0  0
 11 12  2  0  0  0  0
 11 28  1  0  0  0  0
 12 29  1  0  0  0  0
 13 21  1  0  0  0  0
 13 27  2  0  0  0  0
 14 22  1  0  0  0  0
 14 31  2  0  0  0  0
 15 29  2  0  0  0  0
 15 30  1  0  0  0  0
 16 32  1  0  0  0  0
 17 32  1  0  0  0  0
 17 33  2  0  0  0  0
 17 34  1  0  0  0  0
 18 20  2  0  0  0  0
 18 39  1  0  0  0  0
 19 21  2  0  0  0  0
 19 40  1  0  0  0  0
 20 48  1  0  0  0  0
 21 41  1  0  0  0  0
 22 23  2  0  0  0  0
 22 58  1  0  0  0  0
 23 24  1  0  0  0  0
 23 51  1  0  0  0  0
 24 25  2  0  0  0  0
 24 52  1  0  0  0  0
 25 31  1  0  0  0  0
 25 69  1  0  0  0  0
 26 78  1  0  0  0  0
 27 79  1  0  0  0  0
 28 30  2  0  0  0  0
 28 78  1  0  0  0  0
 29 80  1  0  0  0  0
 30 81  1  0  0  0  0
 31 82  1  0  0  0  0
 32 63  2  0  0  0  0
 33 64  1  0  0  0  0
 33 67  1  0  0  0  0
 34 68  1  0  0  0  0
 34 73  2  0  0  0  0
 35 49  1  0  0  0  0
 35 70  1  0  0  0  0
 35 74  2  0  0  0  0
 36 60  1  0  0  0  0
 36 65  1  0  0  0  0
 36 75  2  0  0  0  0
 37 61  1  0  0  0  0
 37 71  1  0  0  0  0
 37 76  2  0  0  0  0
 38 66  1  0  0  0  0
 38 69  1  0  0  0  0
 38 77  2  0  0  0  0
 39 42  1  0  0  0  0
 40 49  1  0  0  0  0
 41 65  1  0  0  0  0
 42 44  1  0  0  0  0
 43 45  1  0  0  0  0
 43 46  1  0  0  0  0
 44 48  1  0  0  0  0
 45 50  1  0  0  0  0
 46 66  1  0  0  0  0
 47 50  1  0  0  0  0
 47 66  1  0  0  0  0
 48 70  1  0  0  0  0
 49 65  1  0  0  0  0
 50 64  1  0  0  0  0
 53 61  1  0  0  0  0
 54 62  1  0  0  0  0
 55 62  1  0  0  0  0
 56 62  1  0  0  0  0
 57 72  1  0  0  0  0
 58 59  1  0  0  0  0
 59 79  1  0  0  0  0
 60 62  1  0  0  0  0
 60 71  1  0  0  0  0
 61 72  1  0  0  0  0
 63 64  1  0  0  0  0
M  CHG  1  72   1
M  ISO  4  38 100  59 101  69 100  79 101
M  END
> <Batch ID>
0018

> <Smiles>
CNC(C)C(=O)NC(C(=O)N1Cc2cc([101O:1][101CH2:1]Cc3cc(Cl)c([100NH:0][100C:0](=O)N4CCCC(n5nc(-c6ccc(Oc7ccc(F)cc7F)cc6)c(C(N)=O)c5N)C4)c(C)c3C)ccc2CC1C(=O)NC1CCCc2ccccc21)C(C)(C)C

> <Shape>
0.183

> <Color>
0.201

> <Negative vol penalty>
0.000

$$$$

  -OEChem-04052316043D

 81 89  0     1  0  0  0  0  0999 V2000
  -24.0764  -31.3794   23.2534 C   0  0  0  0  0  0  0  0  0  0  0  0
  -24.4659  -30.1246   22.7963 C   0  0  0  0  0  0  0  0  0  0  0  0
  -23.2017   -9.6965   20.4370 C   0  0  0  0  0  0  0  0  0  0  0  0
  -23.8126  -10.1858   22.7227 C   0  0  0  0  0  0  0  0  0  0  0  0
  -24.8769  -32.0678   24.1640 C   0  0  0  0  0  0  0  0  0  0  0  0
  -25.6569  -29.5578   23.2487 C   0  0  0  0  0  0  0  0  0  0  0  0
  -26.7564  -23.6187   24.2606 C   0  0  0  0  0  0  0  0  0  0  0  0
  -22.4795   -8.5838   20.8682 C   0  0  0  0  0  0  0  0  0  0  0  0
  -23.0904   -9.0731   23.1539 C   0  0  0  0  0  0  0  0  0  0  0  0
  -27.3845  -22.6373   23.4950 C   0  0  0  0  0  0  0  0  0  0  0  0
  -19.8566   -8.2706   23.7189 C   0  0  0  0  0  0  0  0  0  0  0  0
  -19.0279   -8.4284   24.8296 C   0  0  0  0  0  0  0  0  0  0  0  0
  -29.4442  -23.0348   24.6863 C   0  0  0  0  0  0  0  0  0  0  0  0
  -30.9817  -17.8064   19.9774 C   0  0  0  0  0  0  0  0  0  0  0  0
  -20.2791   -6.7283   26.0049 C   0  0  0  0  0  0  0  0  0  0  0  0
  -23.8683  -10.4975   21.3643 C   0  0  0  0  0  0  0  0  0  0  0  0
  -24.1385  -12.9625   20.7653 C   0  0  0  0  0  0  0  0  0  0  0  0
  -26.0735  -31.5050   24.6352 C   0  0  0  0  0  0  0  0  0  0  0  0
  -27.4715  -24.3243   25.2390 C   0  0  0  0  0  0  0  0  0  0  0  0
  -26.4749  -30.2398   24.1654 C   0  0  0  0  0  0  0  0  0  0  0  0
  -28.8221  -24.0228   25.4647 C   0  0  0  0  0  0  0  0  0  0  0  0
  -31.1353  -19.1635   19.6942 C   0  0  0  0  0  0  0  0  0  0  0  0
  -30.3429  -20.1066   20.3486 C   0  0  0  0  0  0  0  0  0  0  0  0
  -29.3968  -19.6925   21.2863 C   0  0  0  0  0  0  0  0  0  0  0  0
  -30.0356  -17.3923   20.9150 C   0  0  0  0  0  0  0  0  0  0  0  0
  -22.4238   -8.2721   22.2266 C   0  0  0  0  0  0  0  0  0  0  0  0
  -28.7293  -22.3472   23.7058 C   0  0  0  0  0  0  0  0  0  0  0  0
  -20.8966   -7.3415   23.7511 C   0  0  0  0  0  0  0  0  0  0  0  0
  -19.2391   -7.6573   25.9726 C   0  0  0  0  0  0  0  0  0  0  0  0
  -21.1079   -6.5704   24.8940 C   0  0  0  0  0  0  0  0  0  0  0  0
  -29.2432  -18.3353   21.5695 C   0  0  0  0  0  0  0  0  0  0  0  0
  -24.6149  -11.6468   20.9194 C   0  0  0  0  0  0  0  0  0  0  0  0
  -25.2279  -13.6725   20.3231 C   0  0  0  0  0  0  0  0  0  0  0  0
  -22.8284  -13.4952   21.0010 C   0  0  0  0  0  0  0  0  0  0  0  0
  -28.2401  -27.3751   25.6920 C   0  0  0  0  0  0  0  0  0  0  0  0
  -29.3911  -26.2617   28.5130 C   0  0  0  0  0  0  0  0  0  0  0  0
  -30.5943  -23.6231   30.3121 C   0  0  0  0  0  0  0  0  0  0  0  0
  -30.6365  -14.9666   20.5962 C   0  0  0  0  0  0  0  0  0  0  0  0
  -26.9293  -32.3074   25.5830 C   0  0  0  0  0  0  0  0  0  0  0  0
  -26.7725  -25.3613   26.0747 C   0  0  0  0  0  0  0  0  0  0  0  0
  -29.6291  -24.7375   26.5166 C   0  0  0  0  0  0  0  0  0  0  0  0
  -27.9894  -31.4751   26.2998 C   0  0  0  0  0  0  0  0  0  0  0  0
  -29.7516  -12.0896   18.6945 C   0  0  0  0  0  0  0  0  0  0  0  0
  -28.7168  -30.5703   25.3103 C   0  0  0  0  0  0  0  0  0  0  0  0
  -28.2971  -11.8261   19.0912 C   0  0  0  0  0  0  0  0  0  0  0  0
  -30.5803  -12.5888   19.8768 C   0  0  0  0  0  0  0  0  0  0  0  0
  -28.5672  -13.4871   20.9766 C   0  0  0  0  0  0  0  0  0  0  0  0
  -27.7475  -29.5811   24.6518 C   0  0  1  0  0  0  0  0  0  0  0  0
  -27.7299  -26.3761   26.6917 C   0  0  1  0  0  0  0  0  0  0  0  0
  -27.6777  -13.0445   19.8034 C   0  0  2  0  0  0  0  0  0  0  0  0
  -32.1552  -19.5804   18.6852 C   0  0  0  0  0  0  0  0  0  0  0  0
  -30.5094  -21.5612   20.0398 C   0  0  0  0  0  0  0  0  0  0  0  0
  -31.4886  -23.0298   32.5805 C   0  0  0  0  0  0  0  0  0  0  0  0
  -32.0456  -27.5928   27.8119 C   0  0  0  0  0  0  0  0  0  0  0  0
  -33.1325  -26.2009   29.5866 C   0  0  0  0  0  0  0  0  0  0  0  0
  -31.3547  -27.8386   30.2029 C   0  0  0  0  0  0  0  0  0  0  0  0
  -28.4086  -21.6872   30.7953 C   0  0  0  0  0  0  0  0  0  0  0  0
  -28.5531  -20.7226   21.9779 C   0  0  0  0  0  0  0  0  0  1  0  0
  -30.7168  -25.7162   28.9861 C   0  0  1  0  0  0  0  0  0  0  0  0
  -30.2519  -23.1099   31.6991 C   0  0  2  0  0  0  0  0  0  0  0  0
  -31.7980  -26.8249   29.1256 C   0  0  0  0  0  0  0  0  0  0  0  0
  -25.9064  -11.5254   20.6008 N   0  0  0  0  0  0  0  0  0  0  0  0
  -26.2506  -12.7739   20.2420 N   0  0  0  0  0  0  0  0  0  0  0  0
  -28.9024  -25.7475   27.3036 N   0  0  0  0  0  0  0  0  0  0  0  0
  -29.9346  -13.7466   20.4992 N   0  0  0  0  0  0  0  0  0  0  0  0
  -25.4011  -14.9716   19.9994 N   0  0  0  0  0  0  0  0  0  0  0  0
  -21.8257  -12.6270   21.4540 N   0  0  0  0  0  0  0  0  0  0  0  0
  -29.9097  -16.0054   21.1769 N   0  0  0  0  0  0  0  0  0  0  0  0
  -27.4414  -28.4947   25.5576 N   0  0  0  0  0  0  0  0  0  0  0  0
  -30.4422  -24.9906   30.2216 N   0  0  0  0  0  0  0  0  0  0  0  0
  -29.6468  -21.7506   31.6137 N   0  3  0  0  0  0  0  0  0  0  0  0
  -22.5508  -14.7018   20.7996 O   0  0  0  0  0  0  0  0  0  0  0  0
  -29.2820  -27.1477   25.0884 O   0  0  0  0  0  0  0  0  0  0  0  0
  -28.8071  -27.1075   29.1950 O   0  0  0  0  0  0  0  0  0  0  0  0
  -30.9637  -22.8853   29.4012 O   0  0  0  0  0  0  0  0  0  0  0  0
  -31.7875  -15.0889   20.1691 O   0  0  0  0  0  0  0  0  0  0  0  0
  -21.7190   -7.1865   22.6478 O   0  0  0  0  0  0  0  0  0  0  0  0
  -29.3450  -21.3903   22.9595 O   0  0  0  0  0  0  0  0  0  1  0  0
  -18.4441   -7.8101   27.0398 F   0  0  0  0  0  0  0  0  0  0  0  0
  -22.1061   -5.6772   24.9313 F   0  0  0  0  0  0  0  0  0  0  0  0
  -28.0672  -17.8222   22.7366 Cl  0  0  0  0  0  0  0  0  0  0  0  0
  1  2  1  0  0  0  0
  1  5  2  0  0  0  0
  2  6  2  0  0  0  0
  3  8  2  0  0  0  0
  3 16  1  0  0  0  0
  4  9  1  0  0  0  0
  4 16  2  0  0  0  0
  5 18  1  0  0  0  0
  6 20  1  0  0  0  0
  7 10  2  0  0  0  0
  7 19  1  0  0  0  0
  8 26  1  0  0  0  0
  9 26  2  0  0  0  0
 10 27  1  0  0  0  0
 11 12  2  0  0  0  0
 11 28  1  0  0  0  0
 12 29  1  0  0  0  0
 13 21  1  0  0  0  0
 13 27  2  0  0  0  0
 14 22  1  0  0  0  0
 14 25  2  0  0  0  0
 15 29  2  0  0  0  0
 15 30  1  0  0  0  0
 16 32  1  0  0  0  0
 17 32  1  0  0  0  0
 17 33  2  0  0  0  0
 17 34  1  0  0  0  0
 18 20  2  0  0  0  0
 18 39  1  0  0  0  0
 19 21  2  0  0  0  0
 19 40  1  0  0  0  0
 20 48  1  0  0  0  0
 21 41  1  0  0  0  0
 22 23  2  0  0  0  0
 22 51  1  0  0  0  0
 23 24  1  0  0  0  0
 23 52  1  0  0  0  0
 24 31  2  0  0  0  0
 24 58  1  0  0  0  0
 25 31  1  0  0  0  0
 25 68  1  0  0  0  0
 26 77  1  0  0  0  0
 27 78  1  0  0  0  0
 28 30  2  0  0  0  0
 28 77  1  0  0  0  0
 29 79  1  0  0  0  0
 30 80  1  0  0  0  0
 31 81  1  0  0  0  0
 32 62  2  0  0  0  0
 33 63  1  0  0  0  0
 33 66  1  0  0  0  0
 34 67  1  0  0  0  0
 34 72  2  0  0  0  0
 35 49  1  0  0  0  0
 35 69  1  0  0  0  0
 35 73  2  0  0  0  0
 36 59  1  0  0  0  0
 36 64  1  0  0  0  0
 36 74  2  0  0  0  0
 37 60  1  0  0  0  0
 37 70  1  0  0  0  0
 37 75  2  0  0  0  0
 38 65  1  0  0  0  0
 38 68  1  0  0  0  0
 38 76  2  0  0  0  0
 39 42  1  0  0  0  0
 40 49  1  0  0  0  0
 41 64  1  0  0  0  0
 42 44  1  0  0  0  0
 43 45  1  0  0  0  0
 43 46  1  0  0  0  0
 44 48  1  0  0  0  0
 45 50  1  0  0  0  0
 46 65  1  0  0  0  0
 47 50  1  0  0  0  0
 47 65  1  0  0  0  0
 48 69  1  0  0  0  0
 49 64  1  0  0  0  0
 50 63  1  0  0  0  0
 53 60  1  0  0  0  0
 54 61  1  0  0  0  0
 55 61  1  0  0  0  0
 56 61  1  0  0  0  0
 57 71  1  0  0  0  0
 58 78  1  0  0  0  0
 59 61  1  0  0  0  0
 59 70  1  0  0  0  0
 60 71  1  0  0  0  0
 62 63  1  0  0  0  0
M  CHG  1  71   1
M  ISO  4  38 100  58 101  68 100  78 101
M  END
> <Batch ID>
0018

> <Smiles>
CNC(C)C(=O)NC(C(=O)N1Cc2cc([101O:1][101CH2:1]c3c(C)c(C)cc([100NH:0][100C:0](=O)N4CCCC(n5nc(-c6ccc(Oc7ccc(F)cc7F)cc6)c(C(N)=O)c5N)C4)c3Cl)ccc2CC1C(=O)NC1CCCc2ccccc21)C(C)(C)C

> <Shape>
0.246

> <Color>
0.170

> <Negative vol penalty>
0.000

$$$$

  -OEChem-04052316043D

 86 94  0     1  0  0  0  0  0999 V2000
  -21.0795  -23.3957   21.7899 C   0  0  0  0  0  0  0  0  0  0  0  0
  -22.4081  -23.0882   21.5149 C   0  0  0  0  0  0  0  0  0  0  0  0
  -22.2981  -28.7414   20.9209 C   0  0  0  0  0  0  0  0  0  0  0  0
  -23.8312  -28.8231   22.7864 C   0  0  0  0  0  0  0  0  0  0  0  0
  -20.2848  -22.4871   22.4876 C   0  0  0  0  0  0  0  0  0  0  0  0
  -22.9431  -21.8721   21.9385 C   0  0  0  0  0  0  0  0  0  0  0  0
  -27.1430  -18.4882   19.0375 C   0  0  0  0  0  0  0  0  0  0  0  0
  -21.2220  -28.8641   21.7998 C   0  0  0  0  0  0  0  0  0  0  0  0
  -22.7550  -28.9459   23.6654 C   0  0  0  0  0  0  0  0  0  0  0  0
  -28.5222  -18.3636   19.1993 C   0  0  0  0  0  0  0  0  0  0  0  0
  -19.4796  -26.8672   23.8975 C   0  0  0  0  0  0  0  0  0  0  0  0
  -18.3855  -26.0241   23.7030 C   0  0  0  0  0  0  0  0  0  0  0  0
  -28.1778  -16.4198   20.5858 C   0  0  0  0  0  0  0  0  0  0  0  0
  -30.9534  -21.3340   22.2668 C   0  0  0  0  0  0  0  0  0  0  0  0
  -16.9588  -27.9483   23.3881 C   0  0  0  0  0  0  0  0  0  0  0  0
  -23.6027  -28.7208   21.4142 C   0  0  0  0  0  0  0  0  0  0  0  0
  -25.4234  -29.6354   19.8792 C   0  0  0  0  0  0  0  0  0  0  0  0
  -20.8077  -21.2552   22.9115 C   0  0  0  0  0  0  0  0  0  0  0  0
  -26.2690  -17.5844   19.6585 C   0  0  0  0  0  0  0  0  0  0  0  0
  -22.1551  -20.9467   22.6436 C   0  0  0  0  0  0  0  0  0  0  0  0
  -26.7881  -16.5336   20.4282 C   0  0  0  0  0  0  0  0  0  0  0  0
  -30.3881  -22.5998   22.4213 C   0  0  0  0  0  0  0  0  0  0  0  0
  -29.2756  -21.8573   24.4333 C   0  0  0  0  0  0  0  0  0  0  0  0
  -30.6798  -20.3298   23.1955 C   0  0  0  0  0  0  0  0  0  0  0  0
  -21.4504  -28.9664   23.1720 C   0  0  0  0  0  0  0  0  0  0  0  0
  -29.0397  -17.3310   19.9759 C   0  0  0  0  0  0  0  0  0  0  0  0
  -19.3133  -28.2508   23.8374 C   0  0  0  0  0  0  0  0  0  0  0  0
  -17.1251  -26.5647   23.4483 C   0  0  0  0  0  0  0  0  0  0  0  0
  -18.0529  -28.7913   23.5826 C   0  0  0  0  0  0  0  0  0  0  0  0
  -29.5493  -22.8615   23.5045 C   0  0  0  0  0  0  0  0  0  0  0  0
  -29.8409  -20.5915   24.2788 C   0  0  0  0  0  0  0  0  0  0  0  0
  -24.7147  -28.5935   20.5069 C   0  0  0  0  0  0  0  0  0  0  0  0
  -26.3768  -28.9964   19.1247 C   0  0  0  0  0  0  0  0  0  0  0  0
  -25.2365  -31.0541   19.9700 C   0  0  0  0  0  0  0  0  0  0  0  0
  -23.9635  -17.8281   21.8332 C   0  0  0  0  0  0  0  0  0  0  0  0
  -23.5122  -14.6918   21.1386 C   0  0  0  0  0  0  0  0  0  0  0  0
  -24.8153  -11.7720   19.9455 C   0  0  0  0  0  0  0  0  0  0  0  0
  -29.0242  -23.6452   19.5797 C   0  0  0  0  0  0  0  0  0  0  0  0
  -19.9233  -20.3252   23.7038 C   0  0  0  0  0  0  0  0  0  0  0  0
  -24.7849  -17.7167   19.4523 C   0  0  0  0  0  0  0  0  0  0  0  0
  -25.8933  -15.5251   21.0994 C   0  0  0  0  0  0  0  0  0  0  0  0
  -20.4616  -18.8993   23.7904 C   0  0  0  0  0  0  0  0  0  0  0  0
  -27.1814  -24.8927   16.8004 C   0  0  0  0  0  0  0  0  0  0  0  0
  -21.9454  -18.9094   24.1440 C   0  0  0  0  0  0  0  0  0  0  0  0
  -26.4042  -26.0766   17.3785 C   0  0  0  0  0  0  0  0  0  0  0  0
  -27.2982  -23.7492   17.8058 C   0  0  0  0  0  0  0  0  0  0  0  0
  -27.0769  -25.3160   19.6953 C   0  0  0  0  0  0  0  0  0  0  0  0
  -22.7649  -19.6273   23.0649 C   0  0  1  0  0  0  0  0  0  0  0  0
  -23.9668  -17.0450   20.5508 C   0  0  1  0  0  0  0  0  0  0  0  0
  -26.9810  -26.5160   18.7377 C   0  0  2  0  0  0  0  0  0  0  0  0
  -28.3701  -22.1795   25.5790 C   0  0  0  0  0  0  0  0  0  0  0  0
  -24.2166   -9.3696   19.5362 C   0  0  0  0  0  0  0  0  0  0  0  0
  -33.5180  -19.3374   22.1913 C   0  0  0  0  0  0  0  0  0  0  0  0
  -23.7613  -14.1233   24.1260 C   0  0  0  0  0  0  0  0  0  0  0  0
  -24.1091  -11.7079   23.5664 C   0  0  0  0  0  0  0  0  0  0  0  0
  -21.9639  -12.8295   22.9641 C   0  0  0  0  0  0  0  0  0  0  0  0
  -25.2936  -12.0277   17.0361 C   0  0  0  0  0  0  0  0  0  0  0  0
  -30.6823  -23.6710   21.4261 C   0  0  0  0  0  0  0  0  0  0  0  0
  -32.1973  -17.2470   21.7104 C   0  0  0  0  0  0  0  0  0  0  0  0
  -30.8440  -16.6361   21.3606 C   0  0  0  0  0  0  0  0  0  1  0  0
  -24.0616  -13.3896   21.6689 C   0  0  1  0  0  0  0  0  0  0  0  0
  -24.2818  -10.7673   18.9404 C   0  0  2  0  0  0  0  0  0  0  0  0
  -32.1332  -18.7651   21.9053 C   0  0  1  0  0  0  0  0  0  0  0  0
  -23.4910  -13.0325   23.0704 C   0  0  0  0  0  0  0  0  0  0  0  0
  -25.1783  -27.3844   20.1795 N   0  0  0  0  0  0  0  0  0  0  0  0
  -26.1884  -27.6625   19.3379 N   0  0  0  0  0  0  0  0  0  0  0  0
  -24.4492  -15.7004   20.8729 N   0  0  0  0  0  0  0  0  0  0  0  0
  -27.8532  -24.2322   19.0726 N   0  0  0  0  0  0  0  0  0  0  0  0
  -27.3495  -29.4510   18.3064 N   0  0  0  0  0  0  0  0  0  0  0  0
  -24.2105  -31.5417   20.7908 N   0  0  0  0  0  0  0  0  0  0  0  0
  -31.2566  -19.0859   23.0123 N   0  0  0  0  0  0  0  0  0  0  0  0
  -22.9526  -18.7665   21.9167 N   0  0  0  0  0  0  0  0  0  0  0  0
  -23.7969  -12.3868   20.6428 N   0  0  0  0  0  0  0  0  0  0  0  0
  -29.4863  -24.1664   20.7820 N   0  0  0  0  0  0  0  0  0  0  0  0
  -25.1583  -10.7242   17.7359 N   0  3  0  0  0  0  0  0  0  0  0  0
  -25.9476  -31.8647   19.3290 O   0  0  0  0  0  0  0  0  0  0  0  0
  -24.8141  -17.5970   22.6845 O   0  0  0  0  0  0  0  0  0  0  0  0
  -22.2972  -14.8074   20.9597 O   0  0  0  0  0  0  0  0  0  0  0  0
  -26.0155  -11.9870   20.0996 O   0  0  0  0  0  0  0  0  0  0  0  0
  -29.6170  -22.7284   19.0011 O   0  0  0  0  0  0  0  0  0  0  0  0
  -20.4006  -29.0864   24.0299 O   0  0  0  0  0  0  0  0  0  0  0  0
  -30.3854  -17.2075   20.1361 O   0  0  0  0  0  0  0  0  0  1  0  0
  -16.0749  -25.7549   23.2599 F   0  0  0  0  0  0  0  0  0  0  0  0
  -17.8872  -30.1198   23.5225 F   0  0  0  0  0  0  0  0  0  0  0  0
  -29.0064  -24.0794   23.6510 F   0  0  0  0  0  0  0  0  0  0  0  0
  -29.4969  -19.3474   25.4360 Cl  0  0  0  0  0  0  0  0  0  0  0  0
  1  2  1  0  0  0  0
  1  5  2  0  0  0  0
  2  6  2  0  0  0  0
  3  8  2  0  0  0  0
  3 16  1  0  0  0  0
  4  9  1  0  0  0  0
  4 16  2  0  0  0  0
  5 18  1  0  0  0  0
  6 20  1  0  0  0  0
  7 10  2  0  0  0  0
  7 19  1  0  0  0  0
  8 25  1  0  0  0  0
  9 25  2  0  0  0  0
 10 26  1  0  0  0  0
 11 12  2  0  0  0  0
 11 27  1  0  0  0  0
 12 28  1  0  0  0  0
 13 21  1  0  0  0  0
 13 26  2  0  0  0  0
 14 22  2  0  0  0  0
 14 24  1  0  0  0  0
 15 28  2  0  0  0  0
 15 29  1  0  0  0  0
 16 32  1  0  0  0  0
 17 32  1  0  0  0  0
 17 33  2  0  0  0  0
 17 34  1  0  0  0  0
 18 20  2  0  0  0  0
 18 39  1  0  0  0  0
 19 21  2  0  0  0  0
 19 40  1  0  0  0  0
 20 48  1  0  0  0  0
 21 41  1  0  0  0  0
 22 30  1  0  0  0  0
 22 58  1  0  0  0  0
 23 30  2  0  0  0  0
 23 31  1  0  0  0  0
 23 51  1  0  0  0  0
 24 31  2  0  0  0  0
 24 71  1  0  0  0  0
 25 81  1  0  0  0  0
 26 82  1  0  0  0  0
 27 29  2  0  0  0  0
 27 81  1  0  0  0  0
 28 83  1  0  0  0  0
 29 84  1  0  0  0  0
 30 85  1  0  0  0  0
 31 86  1  0  0  0  0
 32 65  2  0  0  0  0
 33 66  1  0  0  0  0
 33 69  1  0  0  0  0
 34 70  1  0  0  0  0
 34 76  2  0  0  0  0
 35 49  1  0  0  0  0
 35 72  1  0  0  0  0
 35 77  2  0  0  0  0
 36 61  1  0  0  0  0
 36 67  1  0  0  0  0
 36 78  2  0  0  0  0
 37 62  1  0  0  0  0
 37 73  1  0  0  0  0
 37 79  2  0  0  0  0
 38 68  1  0  0  0  0
 38 74  1  0  0  0  0
 38 80  2  0  0  0  0
 39 42  1  0  0  0  0
 40 49  1  0  0  0  0
 41 67  1  0  0  0  0
 42 44  1  0  0  0  0
 43 45  1  0  0  0  0
 43 46  1  0  0  0  0
 44 48  1  0  0  0  0
 45 50  1  0  0  0  0
 46 68  1  0  0  0  0
 47 50  1  0  0  0  0
 47 68  1  0  0  0  0
 48 72  1  0  0  0  0
 49 67  1  0  0  0  0
 50 66  1  0  0  0  0
 52 62  1  0  0  0  0
 53 63  1  0  0  0  0
 54 64  1  0  0  0  0
 55 64  1  0  0  0  0
 56 64  1  0  0  0  0
 57 75  1  0  0  0  0
 58 74  1  0  0  0  0
 59 60  1  0  0  0  0
 59 63  1  0  0  0  0
 60 82  1  0  0  0  0
 61 64  1  0  0  0  0
 61 73  1  0  0  0  0
 62 75  1  0  0  0  0
 63 71  1  0  0  0  0
 65 66  1  0  0  0  0
M  CHG  1  75   1
M  ISO  4  38 100  60 101  74 100  82 101
M  END
> <Batch ID>
0018

> <Smiles>
CNC(C)C(=O)NC(C(=O)N1Cc2cc([101O:1][101CH2:1]CC(C)Nc3cc(C[100NH:0][100C:0](=O)N4CCCC(n5nc(-c6ccc(Oc7ccc(F)cc7F)cc6)c(C(N)=O)c5N)C4)c(F)c(C)c3Cl)ccc2CC1C(=O)NC1CCCc2ccccc21)C(C)(C)C

> <Shape>
0.209

> <Color>
0.073

> <Negative vol penalty>
0.000

$$$$

  -OEChem-04052316043D

 79 87  0     1  0  0  0  0  0999 V2000
  -33.7890  -30.5268   21.6874 C   0  0  0  0  0  0  0  0  0  0  0  0
  -33.3837  -29.2283   21.9788 C   0  0  0  0  0  0  0  0  0  0  0  0
  -23.0781   -9.8575   19.9513 C   0  0  0  0  0  0  0  0  0  0  0  0
  -23.8291   -9.8875   22.2474 C   0  0  0  0  0  0  0  0  0  0  0  0
  -32.8582  -31.5648   21.6957 C   0  0  0  0  0  0  0  0  0  0  0  0
  -32.0474  -28.9671   22.2798 C   0  0  0  0  0  0  0  0  0  0  0  0
  -30.2871  -24.8583   19.9001 C   0  0  0  0  0  0  0  0  0  0  0  0
  -22.3350   -8.7056   20.2093 C   0  0  0  0  0  0  0  0  0  0  0  0
  -23.0860   -8.7356   22.5055 C   0  0  0  0  0  0  0  0  0  0  0  0
  -30.6408  -23.6169   20.4269 C   0  0  0  0  0  0  0  0  0  0  0  0
  -19.3825   -7.9182   21.6568 C   0  0  0  0  0  0  0  0  0  0  0  0
  -18.0775   -7.8653   21.1670 C   0  0  0  0  0  0  0  0  0  0  0  0
  -28.4856  -23.4648   21.4997 C   0  0  0  0  0  0  0  0  0  0  0  0
  -18.6453   -5.9106   19.8655 C   0  0  0  0  0  0  0  0  0  0  0  0
  -23.8252  -10.4484   20.9703 C   0  0  0  0  0  0  0  0  0  0  0  0
  -24.1636  -12.9729   20.8275 C   0  0  0  0  0  0  0  0  0  0  0  0
  -31.5081  -31.3147   21.9875 C   0  0  0  0  0  0  0  0  0  0  0  0
  -29.0319  -25.4181   20.1785 C   0  0  0  0  0  0  0  0  0  0  0  0
  -31.0979  -30.0030   22.2933 C   0  0  0  0  0  0  0  0  0  0  0  0
  -28.1174  -24.7122   20.9731 C   0  0  0  0  0  0  0  0  0  0  0  0
  -22.3390   -8.1447   21.4864 C   0  0  0  0  0  0  0  0  0  0  0  0
  -29.7411  -22.9212   21.2292 C   0  0  0  0  0  0  0  0  0  0  0  0
  -20.3189   -6.9674   21.2509 C   0  0  0  0  0  0  0  0  0  0  0  0
  -17.7089   -6.8615   20.2714 C   0  0  0  0  0  0  0  0  0  0  0  0
  -19.9503   -5.9636   20.3553 C   0  0  0  0  0  0  0  0  0  0  0  0
  -24.5934  -11.6380   20.7041 C   0  0  0  0  0  0  0  0  0  0  0  0
  -31.7920  -18.7509   22.2083 C   0  0  0  0  0  0  0  0  0  0  0  0
  -30.6870  -19.1244   22.9443 C   0  0  0  0  0  0  0  0  0  0  0  0
  -25.2559  -13.7206   20.4613 C   0  0  0  0  0  0  0  0  0  0  0  0
  -30.5571  -16.9689   21.8768 C   0  0  0  0  0  0  0  0  0  0  0  0
  -22.8907  -13.4906   21.2366 C   0  0  0  0  0  0  0  0  0  0  0  0
  -28.0266  -28.0549   21.6417 C   0  0  0  0  0  0  0  0  0  0  0  0
  -25.1219  -27.0602   20.5949 C   0  0  0  0  0  0  0  0  0  0  0  0
  -23.1387  -24.4770   19.5748 C   0  0  0  0  0  0  0  0  0  0  0  0
  -30.7198  -14.7763   20.6471 C   0  0  0  0  0  0  0  0  0  0  0  0
  -30.5474  -32.4766   22.0307 C   0  0  0  0  0  0  0  0  0  0  0  0
  -28.6555  -26.7460   19.5807 C   0  0  0  0  0  0  0  0  0  0  0  0
  -26.7497  -25.2604   21.2853 C   0  0  0  0  0  0  0  0  0  0  0  0
  -29.0805  -32.0559   21.9925 C   0  0  0  0  0  0  0  0  0  0  0  0
  -29.6182  -12.3384   18.2975 C   0  0  0  0  0  0  0  0  0  0  0  0
  -28.8271  -30.9137   22.9714 C   0  0  0  0  0  0  0  0  0  0  0  0
  -28.1774  -12.0487   18.7243 C   0  0  0  0  0  0  0  0  0  0  0  0
  -30.5284  -12.5800   19.5004 C   0  0  0  0  0  0  0  0  0  0  0  0
  -28.6150  -13.3146   20.8675 C   0  0  0  0  0  0  0  0  0  0  0  0
  -29.6527  -29.6758   22.6004 C   0  0  1  0  0  0  0  0  0  0  0  0
  -27.5456  -27.4549   20.3508 C   0  0  1  0  0  0  0  0  0  0  0  0
  -27.6470  -13.1287   19.6876 C   0  0  2  0  0  0  0  0  0  0  0  0
  -33.0232  -19.5457   22.0238 C   0  0  0  0  0  0  0  0  0  0  0  0
  -20.8001  -23.9678   18.8204 C   0  0  0  0  0  0  0  0  0  0  0  0
  -24.1463  -27.2822   23.4775 C   0  0  0  0  0  0  0  0  0  0  0  0
  -22.1645  -25.8913   22.8404 C   0  0  0  0  0  0  0  0  0  0  0  0
  -22.5270  -28.1109   21.7613 C   0  0  0  0  0  0  0  0  0  0  0  0
  -24.0762  -23.5007   16.9429 C   0  0  0  0  0  0  0  0  0  0  0  0
  -30.4251  -20.3835   23.7345 C   0  0  0  0  0  0  0  0  0  0  0  0
  -29.5032  -21.3492   22.9978 C   0  0  0  0  0  0  0  0  0  1  0  0
  -24.0320  -26.1742   21.1483 C   0  0  1  0  0  0  0  0  0  0  0  0
  -22.2108  -24.3295   18.3824 C   0  0  2  0  0  0  0  0  0  0  0  0
  -23.2439  -26.8549   22.3028 C   0  0  0  0  0  0  0  0  0  0  0  0
  -25.8600  -11.5402   20.2916 N   0  0  0  0  0  0  0  0  0  0  0  0
  -31.7195  -17.5150   21.5958 N   0  0  0  0  0  0  0  0  0  0  0  0
  -26.2354  -12.8231   20.1525 N   0  0  0  0  0  0  0  0  0  0  0  0
  -26.4308  -26.5653   20.6827 N   0  0  0  0  0  0  0  0  0  0  0  0
  -29.9644  -13.6183   20.3659 N   0  0  0  0  0  0  0  0  0  0  0  0
  -25.4646  -15.0516   20.3764 N   0  0  0  0  0  0  0  0  0  0  0  0
  -21.8789  -12.5831   21.5786 N   0  0  0  0  0  0  0  0  0  0  0  0
  -30.0679  -15.7081   21.4542 N   0  0  0  0  0  0  0  0  0  0  0  0
  -29.0442  -28.9771   21.4887 N   0  0  0  0  0  0  0  0  0  0  0  0
  -23.2067  -25.7834   20.0105 N   0  0  0  0  0  0  0  0  0  0  0  0
  -22.7074  -23.2621   17.4686 N   0  3  0  0  0  0  0  0  0  0  0  0
  -22.6523  -14.7214   21.2812 O   0  0  0  0  0  0  0  0  0  0  0  0
  -27.5116  -27.7079   22.6981 O   0  0  0  0  0  0  0  0  0  0  0  0
  -24.8222  -28.1480   20.0966 O   0  0  0  0  0  0  0  0  0  0  0  0
  -23.7400  -23.5275   20.0724 O   0  0  0  0  0  0  0  0  0  0  0  0
  -31.8505  -14.9424   20.1822 O   0  0  0  0  0  0  0  0  0  0  0  0
  -21.6138   -7.0208   21.7387 O   0  0  0  0  0  0  0  0  0  0  0  0
  -30.0841  -21.7096   21.7452 O   0  0  0  0  0  0  0  0  0  1  0  0
  -16.4554   -6.8099   19.8023 F   0  0  0  0  0  0  0  0  0  0  0  0
  -20.8452   -5.0466   19.9626 F   0  0  0  0  0  0  0  0  0  0  0  0
  -29.5023  -17.8865   22.8719 S   0  0  0  0  0  0  0  0  0  0  0  0
  1  2  1  0  0  0  0
  1  5  2  0  0  0  0
  2  6  2  0  0  0  0
  3  8  2  0  0  0  0
  3 15  1  0  0  0  0
  4  9  1  0  0  0  0
  4 15  2  0  0  0  0
  5 17  1  0  0  0  0
  6 19  1  0  0  0  0
  7 10  2  0  0  0  0
  7 18  1  0  0  0  0
  8 21  1  0  0  0  0
  9 21  2  0  0  0  0
 10 22  1  0  0  0  0
 11 12  2  0  0  0  0
 11 23  1  0  0  0  0
 12 24  1  0  0  0  0
 13 20  1  0  0  0  0
 13 22  2  0  0  0  0
 14 24  2  0  0  0  0
 14 25  1  0  0  0  0
 15 26  1  0  0  0  0
 16 26  1  0  0  0  0
 16 29  2  0  0  0  0
 16 31  1  0  0  0  0
 17 19  2  0  0  0  0
 17 36  1  0  0  0  0
 18 20  2  0  0  0  0
 18 37  1  0  0  0  0
 19 45  1  0  0  0  0
 20 38  1  0  0  0  0
 21 75  1  0  0  0  0
 22 76  1  0  0  0  0
 23 25  2  0  0  0  0
 23 75  1  0  0  0  0
 24 77  1  0  0  0  0
 25 78  1  0  0  0  0
 26 59  2  0  0  0  0
 27 28  2  0  0  0  0
 27 48  1  0  0  0  0
 27 60  1  0  0  0  0
 28 54  1  0  0  0  0
 28 79  1  0  0  0  0
 29 61  1  0  0  0  0
 29 64  1  0  0  0  0
 30 60  2  0  0  0  0
 30 66  1  0  0  0  0
 30 79  1  0  0  0  0
 31 65  1  0  0  0  0
 31 70  2  0  0  0  0
 32 46  1  0  0  0  0
 32 67  1  0  0  0  0
 32 71  2  0  0  0  0
 33 56  1  0  0  0  0
 33 62  1  0  0  0  0
 33 72  2  0  0  0  0
 34 57  1  0  0  0  0
 34 68  1  0  0  0  0
 34 73  2  0  0  0  0
 35 63  1  0  0  0  0
 35 66  1  0  0  0  0
 35 74  2  0  0  0  0
 36 39  1  0  0  0  0
 37 46  1  0  0  0  0
 38 62  1  0  0  0  0
 39 41  1  0  0  0  0
 40 42  1  0  0  0  0
 40 43  1  0  0  0  0
 41 45  1  0  0  0  0
 42 47  1  0  0  0  0
 43 63  1  0  0  0  0
 44 47  1  0  0  0  0
 44 63  1  0  0  0  0
 45 67  1  0  0  0  0
 46 62  1  0  0  0  0
 47 61  1  0  0  0  0
 49 57  1  0  0  0  0
 50 58  1  0  0  0  0
 51 58  1  0  0  0  0
 52 58  1  0  0  0  0
 53 69  1  0  0  0  0
 54 55  1  0  0  0  0
 55 76  1  0  0  0  0
 56 58  1  0  0  0  0
 56 68  1  0  0  0  0
 57 69  1  0  0  0  0
 59 61  1  0  0  0  0
M  CHG  1  69   1
M  ISO  4  35 100  55 101  66 100  76 101
M  END
> <Batch ID>
0018

> <Smiles>
CNC(C)C(=O)NC(C(=O)N1Cc2cc([101O:1][101CH2:1]Cc3sc([100NH:0][100C:0](=O)N4CCCC(n5nc(-c6ccc(Oc7ccc(F)cc7F)cc6)c(C(N)=O)c5N)C4)nc3C)ccc2CC1C(=O)NC1CCCc2ccccc21)C(C)(C)C

> <Shape>
0.235

> <Color>
0.196

> <Negative vol penalty>
0.000

$$$$

  -OEChem-04052316043D

 88 96  0     1  0  0  0  0  0999 V2000
  -27.7747  -15.6145   13.4197 C   0  0  0  0  0  0  0  0  0  0  0  0
  -27.9409  -16.9928   13.3309 C   0  0  0  0  0  0  0  0  0  0  0  0
  -22.6623  -17.0949   18.3669 C   0  0  0  0  0  0  0  0  0  0  0  0
  -21.5648  -17.9001   20.3629 C   0  0  0  0  0  0  0  0  0  0  0  0
  -27.4740  -15.0274   14.6481 C   0  0  0  0  0  0  0  0  0  0  0  0
  -27.8055  -17.7851   14.4703 C   0  0  0  0  0  0  0  0  0  0  0  0
  -30.3784  -23.7725   17.4449 C   0  0  0  0  0  0  0  0  0  0  0  0
  -25.7324  -30.5612   21.2118 C   0  0  0  0  0  0  0  0  0  0  0  0
  -24.7723  -30.9083   22.1621 C   0  0  0  0  0  0  0  0  0  0  0  0
  -22.7634  -15.8249   18.9347 C   0  0  0  0  0  0  0  0  0  0  0  0
  -21.6659  -16.6301   20.9308 C   0  0  0  0  0  0  0  0  0  0  0  0
  -29.9397  -24.9737   18.0004 C   0  0  0  0  0  0  0  0  0  0  0  0
  -24.7311  -14.2550   21.1903 C   0  0  0  0  0  0  0  0  0  0  0  0
  -25.9510  -13.5888   21.0732 C   0  0  0  0  0  0  0  0  0  0  0  0
  -29.4971  -23.8414   20.0839 C   0  0  0  0  0  0  0  0  0  0  0  0
  -24.8560  -11.7931   19.8842 C   0  0  0  0  0  0  0  0  0  0  0  0
  -22.0630  -18.1325   19.0810 C   0  0  0  0  0  0  0  0  0  0  0  0
  -20.9010  -19.9446   17.7122 C   0  0  0  0  0  0  0  0  0  0  0  0
  -27.3444  -15.8119   15.8050 C   0  0  0  0  0  0  0  0  0  0  0  0
  -30.3694  -22.5926   18.2026 C   0  0  0  0  0  0  0  0  0  0  0  0
  -27.5015  -17.2082   15.7151 C   0  0  0  0  0  0  0  0  0  0  0  0
  -29.9385  -22.6271   19.5365 C   0  0  0  0  0  0  0  0  0  0  0  0
  -25.3728  -29.7901   20.1064 C   0  0  0  0  0  0  0  0  0  0  0  0
  -23.4525  -30.4844   22.0072 C   0  0  0  0  0  0  0  0  0  0  0  0
  -24.0530  -29.3662   19.9514 C   0  0  0  0  0  0  0  0  0  0  0  0
  -22.2652  -15.5925   20.2167 C   0  0  0  0  0  0  0  0  0  0  0  0
  -29.4963  -25.0077   19.3192 C   0  0  0  0  0  0  0  0  0  0  0  0
  -23.5737  -13.6902   20.6545 C   0  0  0  0  0  0  0  0  0  0  0  0
  -26.0134  -12.3578   20.4201 C   0  0  0  0  0  0  0  0  0  0  0  0
  -23.6361  -12.4593   20.0015 C   0  0  0  0  0  0  0  0  0  0  0  0
  -23.0928  -29.7133   20.9018 C   0  0  0  0  0  0  0  0  0  0  0  0
  -21.9588  -19.4448   18.4952 C   0  0  0  0  0  0  0  0  0  0  0  0
  -21.2792  -21.2284   17.4034 C   0  0  0  0  0  0  0  0  0  0  0  0
  -19.6851  -19.3057   17.3010 C   0  0  0  0  0  0  0  0  0  0  0  0
  -28.8973  -19.7854   17.9651 C   0  0  0  0  0  0  0  0  0  0  0  0
  -30.7859  -19.0212   20.4893 C   0  0  0  0  0  0  0  0  0  0  0  0
  -32.6099  -20.0857   23.1701 C   0  0  0  0  0  0  0  0  0  0  0  0
  -23.2579  -26.0996   18.9208 C   0  0  0  0  0  0  0  0  0  0  0  0
  -26.9720  -15.1373   17.1015 C   0  0  0  0  0  0  0  0  0  0  0  0
  -30.8709  -21.3104   17.5970 C   0  0  0  0  0  0  0  0  0  0  0  0
  -29.9282  -21.3922   20.3986 C   0  0  0  0  0  0  0  0  0  0  0  0
  -27.2150  -16.0070   18.3323 C   0  0  0  0  0  0  0  0  0  0  0  0
  -25.7082  -23.5953   18.0143 C   0  0  0  0  0  0  0  0  0  0  0  0
  -26.6739  -17.4151   18.1063 C   0  0  0  0  0  0  0  0  0  0  0  0
  -24.8536  -22.3267   17.9949 C   0  0  0  0  0  0  0  0  0  0  0  0
  -25.2803  -24.5329   19.1395 C   0  0  0  0  0  0  0  0  0  0  0  0
  -22.9826  -23.6426   19.0938 C   0  0  0  0  0  0  0  0  0  0  0  0
  -27.3871  -18.0986   16.9334 C   0  0  1  0  0  0  0  0  0  0  0  0
  -30.3346  -20.0675   18.3004 C   0  0  1  0  0  0  0  0  0  0  0  0
  -23.3510  -22.6636   17.9643 C   0  0  2  0  0  0  0  0  0  0  0  0
  -34.0087  -19.2255   25.0676 C   0  0  0  0  0  0  0  0  0  0  0  0
  -30.3923  -28.0894   20.4991 C   0  0  0  0  0  0  0  0  0  0  0  0
  -23.1282  -31.7344   24.1700 C   0  0  0  0  0  0  0  0  0  0  0  0
  -21.8260  -29.6259   23.7289 C   0  0  0  0  0  0  0  0  0  0  0  0
  -21.2527  -31.7315   22.5377 C   0  0  0  0  0  0  0  0  0  0  0  0
  -28.2554  -18.1631   21.9625 C   0  0  0  0  0  0  0  0  0  0  0  0
  -29.5608  -18.2267   24.0980 C   0  0  0  0  0  0  0  0  0  0  0  0
  -30.2158  -16.6441   22.2845 C   0  0  0  0  0  0  0  0  0  0  0  0
  -35.0065  -21.5344   22.2129 C   0  0  0  0  0  0  0  0  0  0  0  0
  -23.6894  -28.5377   18.7583 C   0  0  0  0  0  0  0  0  0  0  0  0
  -26.4265  -29.4314   19.1004 C   0  0  0  0  0  0  0  0  0  0  0  0
  -28.5765  -28.2241   18.7022 C   0  0  0  0  0  0  0  0  0  0  0  0
  -30.6547  -19.1165   21.9902 C   0  0  1  0  0  0  0  0  0  0  0  0
  -34.0123  -19.7386   23.6360 C   0  0  2  0  0  0  0  0  0  0  0  0
  -29.6576  -27.3799   19.3693 C   0  0  2  0  0  0  0  0  0  1  0  0
  -22.4583  -30.8796   23.0517 C   0  0  0  0  0  0  0  0  0  0  0  0
  -29.6699  -18.0607   22.5672 C   0  0  0  0  0  0  0  0  0  0  0  0
  -22.9358  -20.3381   18.6726 N   0  0  0  0  0  0  0  0  0  0  0  0
  -22.4934  -21.4122   17.9967 N   0  0  0  0  0  0  0  0  0  0  0  0
  -30.4222  -20.1615   19.7591 N   0  0  0  0  0  0  0  0  0  0  0  0
  -23.8439  -24.8287   19.0420 N   0  0  0  0  0  0  0  0  0  0  0  0
  -20.6883  -22.2066   16.6848 N   0  0  0  0  0  0  0  0  0  0  0  0
  -19.4546  -17.9840   17.7064 N   0  0  0  0  0  0  0  0  0  0  0  0
  -28.6933  -18.5694   17.3413 N   0  0  0  0  0  0  0  0  0  0  0  0
  -32.0090  -19.0255   22.5249 N   0  0  0  0  0  0  0  0  0  0  0  0
  -24.1426  -27.1705   18.8860 N   0  0  0  0  0  0  0  0  0  0  0  0
  -34.8924  -20.9394   23.5693 N   0  3  0  0  0  0  0  0  0  0  0  0
  -27.5474  -28.6463   19.6848 N   0  3  0  0  0  0  0  0  0  0  0  0
  -18.8360  -19.8839   16.5811 O   0  0  0  0  0  0  0  0  0  0  0  0
  -28.0370  -20.6094   18.2524 O   0  0  0  0  0  0  0  0  0  0  0  0
  -31.2027  -17.9760   19.9839 O   0  0  0  0  0  0  0  0  0  0  0  0
  -32.0972  -21.1860   23.3627 O   0  0  0  0  0  0  0  0  0  0  0  0
  -22.0360  -26.2676   18.8438 O   0  0  0  0  0  0  0  0  0  0  0  0
  -22.3635  -14.3533   20.7710 O   0  0  0  0  0  0  0  0  0  0  0  0
  -29.0670  -26.1786   19.8637 O   0  0  0  0  0  0  0  0  0  1  0  0
  -27.1852  -11.7189   20.3063 F   0  0  0  0  0  0  0  0  0  0  0  0
  -22.5278  -11.9123   19.4836 F   0  0  0  0  0  0  0  0  0  0  0  0
  -21.4536  -29.1851   20.7150 Cl  0  0  0  0  0  0  0  0  0  0  0  0
  1  2  1  0  0  0  0
  1  5  2  0  0  0  0
  2  6  2  0  0  0  0
  3 10  2  0  0  0  0
  3 17  1  0  0  0  0
  4 11  1  0  0  0  0
  4 17  2  0  0  0  0
  5 19  1  0  0  0  0
  6 21  1  0  0  0  0
  7 12  2  0  0  0  0
  7 20  1  0  0  0  0
  8  9  2  0  0  0  0
  8 23  1  0  0  0  0
  9 24  1  0  0  0  0
 10 26  1  0  0  0  0
 11 26  2  0  0  0  0
 12 27  1  0  0  0  0
 13 14  2  0  0  0  0
 13 28  1  0  0  0  0
 14 29  1  0  0  0  0
 15 22  1  0  0  0  0
 15 27  2  0  0  0  0
 16 29  2  0  0  0  0
 16 30  1  0  0  0  0
 17 32  1  0  0  0  0
 18 32  1  0  0  0  0
 18 33  2  0  0  0  0
 18 34  1  0  0  0  0
 19 21  2  0  0  0  0
 19 39  1  0  0  0  0
 20 22  2  0  0  0  0
 20 40  1  0  0  0  0
 21 48  1  0  0  0  0
 22 41  1  0  0  0  0
 23 25  2  0  0  0  0
 23 61  1  0  0  0  0
 24 31  2  0  0  0  0
 24 66  1  0  0  0  0
 25 31  1  0  0  0  0
 25 60  1  0  0  0  0
 26 84  1  0  0  0  0
 27 85  1  0  0  0  0
 28 30  2  0  0  0  0
 28 84  1  0  0  0  0
 29 86  1  0  0  0  0
 30 87  1  0  0  0  0
 31 88  1  0  0  0  0
 32 68  2  0  0  0  0
 33 69  1  0  0  0  0
 33 72  1  0  0  0  0
 34 73  1  0  0  0  0
 34 79  2  0  0  0  0
 35 49  1  0  0  0  0
 35 74  1  0  0  0  0
 35 80  2  0  0  0  0
 36 63  1  0  0  0  0
 36 70  1  0  0  0  0
 36 81  2  0  0  0  0
 37 64  1  0  0  0  0
 37 75  1  0  0  0  0
 37 82  2  0  0  0  0
 38 71  1  0  0  0  0
 38 76  1  0  0  0  0
 38 83  2  0  0  0  0
 39 42  1  0  0  0  0
 40 49  1  0  0  0  0
 41 70  1  0  0  0  0
 42 44  1  0  0  0  0
 43 45  1  0  0  0  0
 43 46  1  0  0  0  0
 44 48  1  0  0  0  0
 45 50  1  0  0  0  0
 46 71  1  0  0  0  0
 47 50  1  0  0  0  0
 47 71  1  0  0  0  0
 48 74  1  0  0  0  0
 49 70  1  0  0  0  0
 50 69  1  0  0  0  0
 51 64  1  0  0  0  0
 52 65  1  0  0  0  0
 53 66  1  0  0  0  0
 54 66  1  0  0  0  0
 55 66  1  0  0  0  0
 56 67  1  0  0  0  0
 57 67  1  0  0  0  0
 58 67  1  0  0  0  0
 59 77  1  0  0  0  0
 60 76  1  0  0  0  0
 61 78  1  0  0  0  0
 62 65  1  0  0  0  0
 62 78  1  0  0  0  0
 63 67  1  0  0  0  0
 63 75  1  0  0  0  0
 64 77  1  0  0  0  0
 65 85  1  0  0  0  0
 68 69  1  0  0  0  0
M  CHG  2  77   1  78   1
M  ISO  4  38 100  65 101  76 100  85 101
M  END
> <Batch ID>
0018

> <Smiles>
CNC(C)C(=O)NC(C(=O)N1Cc2cc([101O:1][101CH:1](C)CNCc3ccc(C(C)(C)C)c(Cl)c3C[100NH:0][100C:0](=O)N3CCCC(n4nc(-c5ccc(Oc6ccc(F)cc6F)cc5)c(C(N)=O)c4N)C3)ccc2CC1C(=O)NC1CCCc2ccccc21)C(C)(C)C

> <Shape>
0.199

> <Color>
0.065

> <Negative vol penalty>
0.000

$$$$

  -OEChem-04052316043D

 96105  0     1  0  0  0  0  0999 V2000
  -29.2557  -32.6906   22.5210 C   0  0  0  0  0  0  0  0  0  0  0  0
  -29.0337  -31.3191   22.5941 C   0  0  0  0  0  0  0  0  0  0  0  0
  -22.9314  -10.1138   20.1125 C   0  0  0  0  0  0  0  0  0  0  0  0
  -24.1578   -9.3783   22.0598 C   0  0  0  0  0  0  0  0  0  0  0  0
  -28.1974  -33.5781   22.7113 C   0  0  0  0  0  0  0  0  0  0  0  0
  -27.7533  -30.8345   22.8588 C   0  0  0  0  0  0  0  0  0  0  0  0
  -26.4743  -26.9753   19.8395 C   0  0  0  0  0  0  0  0  0  0  0  0
  -22.1785   -8.9401   20.1433 C   0  0  0  0  0  0  0  0  0  0  0  0
  -23.4048   -8.2045   22.0907 C   0  0  0  0  0  0  0  0  0  0  0  0
  -27.0042  -25.7231   20.1476 C   0  0  0  0  0  0  0  0  0  0  0  0
  -20.3294   -7.2462   23.1125 C   0  0  0  0  0  0  0  0  0  0  0  0
  -19.8363   -6.8267   24.3480 C   0  0  0  0  0  0  0  0  0  0  0  0
  -24.9220  -25.1074   21.1986 C   0  0  0  0  0  0  0  0  0  0  0  0
  -21.0668   -4.7582   24.1366 C   0  0  0  0  0  0  0  0  0  0  0  0
  -23.9211  -10.3329   21.0707 C   0  0  0  0  0  0  0  0  0  0  0  0
  -24.4056  -12.7613   21.6840 C   0  0  0  0  0  0  0  0  0  0  0  0
  -26.9015  -33.1038   22.9689 C   0  0  0  0  0  0  0  0  0  0  0  0
  -25.1658  -27.3075   20.2188 C   0  0  0  0  0  0  0  0  0  0  0  0
  -26.6769  -31.7165   23.0541 C   0  0  0  0  0  0  0  0  0  0  0  0
  -24.3770  -26.3635   20.8919 C   0  0  0  0  0  0  0  0  0  0  0  0
  -29.0842  -20.3192   22.8249 C   0  0  0  0  0  0  0  0  0  0  0  0
  -28.7384  -21.6180   22.4520 C   0  0  0  0  0  0  0  0  0  0  0  0
  -29.1486  -19.3111   21.8629 C   0  0  0  0  0  0  0  0  0  0  0  0
  -28.8671  -19.6019   20.5281 C   0  0  0  0  0  0  0  0  0  0  0  0
  -28.4569  -21.9088   21.1171 C   0  0  0  0  0  0  0  0  0  0  0  0
  -28.5212  -20.9007   20.1551 C   0  0  0  0  0  0  0  0  0  0  0  0
  -22.4151   -7.9854   21.1324 C   0  0  0  0  0  0  0  0  0  0  0  0
  -26.2290  -24.7900   20.8298 C   0  0  0  0  0  0  0  0  0  0  0  0
  -21.1911   -6.4218   22.3890 C   0  0  0  0  0  0  0  0  0  0  0  0
  -20.2050   -5.5827   24.8601 C   0  0  0  0  0  0  0  0  0  0  0  0
  -21.5598   -5.1778   22.9011 C   0  0  0  0  0  0  0  0  0  0  0  0
  -24.6997  -11.5449   21.0391 C   0  0  0  0  0  0  0  0  0  0  0  0
  -25.4459  -13.5908   21.3432 C   0  0  0  0  0  0  0  0  0  0  0  0
  -23.2917  -13.1100   22.5166 C   0  0  0  0  0  0  0  0  0  0  0  0
  -23.8691  -29.5070   22.1120 C   0  0  0  0  0  0  0  0  0  0  0  0
  -21.0889  -28.3167   20.9389 C   0  0  0  0  0  0  0  0  0  0  0  0
  -27.0496  -21.6975   18.2731 C   0  0  0  0  0  0  0  0  0  0  0  0
  -19.4312  -25.6940   19.5176 C   0  0  0  0  0  0  0  0  0  0  0  0
  -30.9029  -14.5075   20.6181 C   0  0  0  0  0  0  0  0  0  0  0  0
  -25.7985  -34.1026   23.2146 C   0  0  0  0  0  0  0  0  0  0  0  0
  -24.5998  -28.6528   19.8554 C   0  0  0  0  0  0  0  0  0  0  0  0
  -22.9596  -26.6635   21.3036 C   0  0  0  0  0  0  0  0  0  0  0  0
  -24.3991  -33.5003   23.1194 C   0  0  0  0  0  0  0  0  0  0  0  0
  -25.6416  -24.0967   12.0826 C   0  0  0  0  0  0  0  0  0  0  0  0
  -24.8030  -22.8646   12.4079 C   0  0  0  0  0  0  0  0  0  0  0  0
  -27.0101  -24.0372   12.7540 C   0  0  0  0  0  0  0  0  0  0  0  0
  -29.1223  -13.0234   17.9156 C   0  0  0  0  0  0  0  0  0  0  0  0
  -24.3284  -32.1888   23.8951 C   0  0  0  0  0  0  0  0  0  0  0  0
  -24.6785  -22.6496   13.9146 C   0  0  0  0  0  0  0  0  0  0  0  0
  -26.8894  -23.8240   14.2612 C   0  0  0  0  0  0  0  0  0  0  0  0
  -27.7920  -12.6015   18.5419 C   0  0  0  0  0  0  0  0  0  0  0  0
  -30.2859  -12.8450   18.8884 C   0  0  0  0  0  0  0  0  0  0  0  0
  -28.7763  -13.0819   20.8221 C   0  0  0  0  0  0  0  0  0  0  0  0
  -25.2973  -31.1516   23.3147 C   0  0  1  0  0  0  0  0  0  0  0  0
  -23.4310  -29.0690   20.7432 C   0  0  1  0  0  0  0  0  0  0  0  0
  -26.0537  -22.5803   14.5925 C   0  0  0  0  0  0  0  0  0  0  0  0
  -27.5653  -13.2963   19.8980 C   0  0  2  0  0  0  0  0  0  0  0  0
  -29.3864  -20.0074   24.2568 C   0  0  0  0  0  0  0  0  0  0  0  0
  -28.6699  -22.6991   23.4844 C   0  0  0  0  0  0  0  0  0  0  0  0
  -27.5564  -18.0167   19.0942 C   0  0  0  0  0  0  0  0  0  0  0  0
  -17.1573  -25.0061   18.7091 C   0  0  0  0  0  0  0  0  0  0  0  0
  -20.1829  -27.9269   23.8263 C   0  0  0  0  0  0  0  0  0  0  0  0
  -18.3820  -26.4061   22.9825 C   0  0  0  0  0  0  0  0  0  0  0  0
  -18.4161  -28.8016   22.2876 C   0  0  0  0  0  0  0  0  0  0  0  0
  -20.4063  -25.3005   16.7512 C   0  0  0  0  0  0  0  0  0  0  0  0
  -29.5199  -17.9180   22.2638 C   0  0  0  0  0  0  0  0  0  0  0  0
  -28.9383  -18.5169   19.4986 C   0  0  0  0  0  0  0  0  0  0  0  0
  -28.0854  -23.3074   20.7207 C   0  0  0  0  0  0  0  0  0  1  0  0
  -27.1661  -21.8709   16.7636 C   0  0  0  0  0  0  0  0  0  0  0  0
  -25.9025  -22.4188   16.1039 C   0  0  0  0  0  0  0  0  0  0  0  0
  -30.9834  -17.5430   21.9682 C   0  0  0  0  0  0  0  0  0  0  0  0
  -31.3792  -16.1406   22.4252 C   0  0  0  0  0  0  0  0  0  0  0  0
  -20.1426  -27.2130   21.3454 C   0  0  1  0  0  0  0  0  0  0  0  0
  -18.4940  -25.6216   18.3256 C   0  0  2  0  0  0  0  0  0  0  0  0
  -19.3082  -27.5816   22.6046 C   0  0  0  0  0  0  0  0  0  0  0  0
  -25.8376  -11.5932   20.3413 N   0  0  0  0  0  0  0  0  0  0  0  0
  -26.2676  -12.8499   20.5457 N   0  0  0  0  0  0  0  0  0  0  0  0
  -22.4536  -27.9949   20.9310 N   0  0  0  0  0  0  0  0  0  0  0  0
  -30.0085  -13.5291   20.1538 N   0  0  0  0  0  0  0  0  0  0  0  0
  -25.7287  -14.8745   21.6508 N   0  0  0  0  0  0  0  0  0  0  0  0
  -22.3130  -12.1381   22.7649 N   0  0  0  0  0  0  0  0  0  0  0  0
  -28.2394  -21.1929   18.8156 N   0  0  0  0  0  0  0  0  0  0  0  0
  -24.7515  -30.5704   22.1069 N   0  0  0  0  0  0  0  0  0  0  0  0
  -19.3406  -26.9078   20.1656 N   0  0  0  0  0  0  0  0  0  0  0  0
  -30.5619  -15.1113   21.8222 N   0  0  0  0  0  0  0  0  0  0  0  0
  -19.0977  -24.7963   17.2414 N   0  3  0  0  0  0  0  0  0  0  0  0
  -23.1596  -14.2549   23.0120 O   0  0  0  0  0  0  0  0  0  0  0  0
  -23.4373  -28.9244   23.0999 O   0  0  0  0  0  0  0  0  0  0  0  0
  -20.6336  -29.4215   20.6326 O   0  0  0  0  0  0  0  0  0  0  0  0
  -26.0175  -21.9594   18.8817 O   0  0  0  0  0  0  0  0  0  0  0  0
  -20.1671  -24.7652   19.8437 O   0  0  0  0  0  0  0  0  0  0  0  0
  -31.9267  -14.8235   20.0025 O   0  0  0  0  0  0  0  0  0  0  0  0
  -21.6804   -6.8401   21.1629 O   0  0  0  0  0  0  0  0  0  0  0  0
  -26.7440  -23.5672   21.1324 O   0  0  0  0  0  0  0  0  0  1  0  0
  -19.7327   -5.1806   26.0472 F   0  0  0  0  0  0  0  0  0  0  0  0
  -22.3883   -4.3819   22.2112 F   0  0  0  0  0  0  0  0  0  0  0  0
  1  2  1  0  0  0  0
  1  5  2  0  0  0  0
  2  6  2  0  0  0  0
  3  8  2  0  0  0  0
  3 15  1  0  0  0  0
  4  9  1  0  0  0  0
  4 15  2  0  0  0  0
  5 17  1  0  0  0  0
  6 19  1  0  0  0  0
  7 10  2  0  0  0  0
  7 18  1  0  0  0  0
  8 27  1  0  0  0  0
  9 27  2  0  0  0  0
 10 28  1  0  0  0  0
 11 12  2  0  0  0  0
 11 29  1  0  0  0  0
 12 30  1  0  0  0  0
 13 20  1  0  0  0  0
 13 28  2  0  0  0  0
 14 30  2  0  0  0  0
 14 31  1  0  0  0  0
 15 32  1  0  0  0  0
 16 32  1  0  0  0  0
 16 33  2  0  0  0  0
 16 34  1  0  0  0  0
 17 19  2  0  0  0  0
 17 40  1  0  0  0  0
 18 20  2  0  0  0  0
 18 41  1  0  0  0  0
 19 54  1  0  0  0  0
 20 42  1  0  0  0  0
 21 22  1  0  0  0  0
 21 23  2  0  0  0  0
 21 58  1  0  0  0  0
 22 25  2  0  0  0  0
 22 59  1  0  0  0  0
 23 24  1  0  0  0  0
 23 66  1  0  0  0  0
 24 26  2  0  0  0  0
 24 67  1  0  0  0  0
 25 26  1  0  0  0  0
 25 68  1  0  0  0  0
 26 82  1  0  0  0  0
 27 93  1  0  0  0  0
 28 94  1  0  0  0  0
 29 31  2  0  0  0  0
 29 93  1  0  0  0  0
 30 95  1  0  0  0  0
 31 96  1  0  0  0  0
 32 76  2  0  0  0  0
 33 77  1  0  0  0  0
 33 80  1  0  0  0  0
 34 81  1  0  0  0  0
 34 87  2  0  0  0  0
 35 55  1  0  0  0  0
 35 83  1  0  0  0  0
 35 88  2  0  0  0  0
 36 73  1  0  0  0  0
 36 78  1  0  0  0  0
 36 89  2  0  0  0  0
 37 69  1  0  0  0  0
 37 82  1  0  0  0  0
 37 90  2  0  0  0  0
 38 74  1  0  0  0  0
 38 84  1  0  0  0  0
 38 91  2  0  0  0  0
 39 79  1  0  0  0  0
 39 85  1  0  0  0  0
 39 92  2  0  0  0  0
 40 43  1  0  0  0  0
 41 55  1  0  0  0  0
 42 78  1  0  0  0  0
 43 48  1  0  0  0  0
 44 45  1  0  0  0  0
 44 46  1  0  0  0  0
 45 49  1  0  0  0  0
 46 50  1  0  0  0  0
 47 51  1  0  0  0  0
 47 52  1  0  0  0  0
 48 54  1  0  0  0  0
 49 56  1  0  0  0  0
 50 56  1  0  0  0  0
 51 57  1  0  0  0  0
 52 79  1  0  0  0  0
 53 57  1  0  0  0  0
 53 79  1  0  0  0  0
 54 83  1  0  0  0  0
 55 78  1  0  0  0  0
 56 70  1  0  0  0  0
 57 77  1  0  0  0  0
 60 67  1  0  0  0  0
 61 74  1  0  0  0  0
 62 75  1  0  0  0  0
 63 75  1  0  0  0  0
 64 75  1  0  0  0  0
 65 86  1  0  0  0  0
 66 71  1  0  0  0  0
 68 94  1  0  0  0  0
 69 70  1  0  0  0  0
 71 72  1  0  0  0  0
 72 85  1  0  0  0  0
 73 75  1  0  0  0  0
 73 84  1  0  0  0  0
 74 86  1  0  0  0  0
 76 77  1  0  0  0  0
M  CHG  1  86   1
M  ISO  4  39 100  68 101  85 100  94 101
M  END
> <Batch ID>
0018

> <Smiles>
CCc1c(CCC[100NH:0][100C:0](=O)N2CCCC(n3nc(-c4ccc(Oc5ccc(F)cc5F)cc4)c(C(N)=O)c3N)C2)c(C)c(C)c([101CH2:1][101O:1]c2ccc3c(c2)CN(C(=O)C(NC(=O)C(C)NC)C(C)(C)C)C(C(=O)NC2CCCc4ccccc42)C3)c1NC(=O)CCC1CCCCC1

> <Shape>
0.365

> <Color>
0.146

> <Negative vol penalty>
0.000

$$$$

  -OEChem-04052316043D

 86 94  0     1  0  0  0  0  0999 V2000
  -29.5538  -33.8163   25.6836 C   0  0  0  0  0  0  0  0  0  0  0  0
  -29.2623  -32.5418   25.2083 C   0  0  0  0  0  0  0  0  0  0  0  0
  -23.6359   -9.7103   21.6307 C   0  0  0  0  0  0  0  0  0  0  0  0
  -24.2729  -10.8338   23.6725 C   0  0  0  0  0  0  0  0  0  0  0  0
  -28.5258  -34.7372   25.8816 C   0  0  0  0  0  0  0  0  0  0  0  0
  -27.9424  -32.1869   24.9319 C   0  0  0  0  0  0  0  0  0  0  0  0
  -27.4719  -29.7357   20.5256 C   0  0  0  0  0  0  0  0  0  0  0  0
  -23.0844   -8.6683   22.3761 C   0  0  0  0  0  0  0  0  0  0  0  0
  -23.7213   -9.7918   24.4179 C   0  0  0  0  0  0  0  0  0  0  0  0
  -27.8308  -28.3886   20.5049 C   0  0  0  0  0  0  0  0  0  0  0  0
  -24.1894   -5.9508   24.0550 C   0  0  0  0  0  0  0  0  0  0  0  0
  -24.4727   -4.6460   23.6518 C   0  0  0  0  0  0  0  0  0  0  0  0
  -25.5045  -27.7725   20.6726 C   0  0  0  0  0  0  0  0  0  0  0  0
  -22.1137   -4.2323   23.3334 C   0  0  0  0  0  0  0  0  0  0  0  0
  -24.2302  -10.7931   22.2789 C   0  0  0  0  0  0  0  0  0  0  0  0
  -24.1500  -13.0379   21.0697 C   0  0  0  0  0  0  0  0  0  0  0  0
  -27.1938  -34.3967   25.5983 C   0  0  0  0  0  0  0  0  0  0  0  0
  -26.1252  -30.1119   20.6312 C   0  0  0  0  0  0  0  0  0  0  0  0
  -26.8955  -33.1036   25.1276 C   0  0  0  0  0  0  0  0  0  0  0  0
  -25.1310  -29.1250   20.6919 C   0  0  0  0  0  0  0  0  0  0  0  0
  -23.1271   -8.7090   23.7697 C   0  0  0  0  0  0  0  0  0  0  0  0
  -26.8473  -27.4068   20.5813 C   0  0  0  0  0  0  0  0  0  0  0  0
  -22.8683   -6.3965   24.0975 C   0  0  0  0  0  0  0  0  0  0  0  0
  -23.4348   -3.7867   23.2909 C   0  0  0  0  0  0  0  0  0  0  0  0
  -21.8305   -5.5372   23.7367 C   0  0  0  0  0  0  0  0  0  0  0  0
  -28.6539  -23.3859   21.4926 C   0  0  0  0  0  0  0  0  0  0  0  0
  -24.8006  -11.8695   21.5094 C   0  0  0  0  0  0  0  0  0  0  0  0
  -28.7610  -24.2986   20.4262 C   0  0  0  0  0  0  0  0  0  0  0  0
  -25.1174  -13.7332   20.3864 C   0  0  0  0  0  0  0  0  0  0  0  0
  -28.9045  -22.1615   20.9230 C   0  0  0  0  0  0  0  0  0  0  0  0
  -22.7924  -13.4572   21.2619 C   0  0  0  0  0  0  0  0  0  0  0  0
  -24.4119  -31.7446   22.7532 C   0  0  0  0  0  0  0  0  0  0  0  0
  -22.0674  -31.4095   20.5366 C   0  0  0  0  0  0  0  0  0  0  0  0
  -20.8064  -29.6533   17.8961 C   0  0  0  0  0  0  0  0  0  0  0  0
  -31.0971  -13.7671   20.6915 C   0  0  0  0  0  0  0  0  0  0  0  0
  -26.1112  -35.4102   25.8731 C   0  0  0  0  0  0  0  0  0  0  0  0
  -25.7525  -31.5692   20.6253 C   0  0  0  0  0  0  0  0  0  0  0  0
  -23.6694  -29.4764   20.7859 C   0  0  0  0  0  0  0  0  0  0  0  0
  -24.7815  -35.0786   25.2005 C   0  0  0  0  0  0  0  0  0  0  0  0
  -29.1037  -13.0665   17.8259 C   0  0  0  0  0  0  0  0  0  0  0  0
  -24.4249  -33.6114   25.4172 C   0  0  0  0  0  0  0  0  0  0  0  0
  -27.7161  -12.7857   18.4053 C   0  0  0  0  0  0  0  0  0  0  0  0
  -30.2119  -12.5359   18.7327 C   0  0  0  0  0  0  0  0  0  0  0  0
  -28.7537  -12.7163   20.7113 C   0  0  0  0  0  0  0  0  0  0  0  0
  -25.4791  -32.6894   24.7927 C   0  0  1  0  0  0  0  0  0  0  0  0
  -24.3890  -31.8398   21.2538 C   0  0  1  0  0  0  0  0  0  0  0  0
  -27.6047  -13.2823   19.8593 C   0  0  2  0  0  0  0  0  0  0  0  0
  -18.8553  -29.5977   16.3189 C   0  0  0  0  0  0  0  0  0  0  0  0
  -20.3171  -30.2426   22.7468 C   0  0  0  0  0  0  0  0  0  0  0  0
  -18.7920  -29.3513   20.9726 C   0  0  0  0  0  0  0  0  0  0  0  0
  -19.1352  -31.8117   21.1990 C   0  0  0  0  0  0  0  0  0  0  0  0
  -29.4507  -21.4374   18.5751 C   0  0  0  0  0  0  0  0  0  0  0  0
  -22.5529  -30.0383   15.5381 C   0  0  0  0  0  0  0  0  0  0  0  0
  -28.5858  -25.7884   20.4617 C   0  0  0  0  0  0  0  0  0  1  0  0
  -30.2313  -18.5331   22.6909 C   0  0  0  0  0  0  0  0  0  0  0  0
  -30.3242  -17.0210   22.9111 C   0  0  0  0  0  0  0  0  0  0  0  0
  -28.8391  -19.0619   23.0502 C   0  0  0  0  0  0  0  0  0  0  0  0
  -31.7031  -16.4865   22.5123 C   0  0  0  0  0  0  0  0  0  0  0  0
  -28.7069  -20.5667   22.8318 C   0  0  0  0  0  0  0  0  0  0  0  0
  -31.8380  -14.9817   22.7250 C   0  0  0  0  0  0  0  0  0  0  0  0
  -20.9968  -30.3818   20.2599 C   0  0  1  0  0  0  0  0  0  0  0  0
  -20.2702  -30.1052   16.5497 C   0  0  2  0  0  0  0  0  0  0  0  0
  -19.8379  -30.4399   21.2947 C   0  0  0  0  0  0  0  0  0  0  0  0
  -26.0823  -11.8216   21.1366 N   0  0  0  0  0  0  0  0  0  0  0  0
  -29.0567  -23.7048   19.2669 N   0  0  0  0  0  0  0  0  0  0  0  0
  -26.2448  -12.9686   20.4553 N   0  0  0  0  0  0  0  0  0  0  0  0
  -29.1377  -22.4057   19.6016 N   0  0  0  0  0  0  0  0  0  0  0  0
  -23.3560  -30.9149   20.7830 N   0  0  0  0  0  0  0  0  0  0  0  0
  -30.0493  -13.0454   20.0965 N   0  0  0  0  0  0  0  0  0  0  0  0
  -25.1053  -14.9178   19.7391 N   0  0  0  0  0  0  0  0  0  0  0  0
  -21.9319  -12.6230   21.9885 N   0  0  0  0  0  0  0  0  0  0  0  0
  -28.9455  -20.9105   21.4290 N   0  0  0  0  0  0  0  0  0  0  0  0
  -25.2989  -32.6141   23.3587 N   0  0  0  0  0  0  0  0  0  0  0  0
  -20.5759  -30.5925   18.8790 N   0  0  0  0  0  0  0  0  0  0  0  0
  -30.8583  -14.2195   21.9835 N   0  0  0  0  0  0  0  0  0  0  0  0
  -21.1373  -29.5965   15.4496 N   0  3  0  0  0  0  0  0  0  0  0  0
  -22.3511  -14.5319   20.7889 O   0  0  0  0  0  0  0  0  0  0  0  0
  -23.6781  -30.9427   23.3190 O   0  0  0  0  0  0  0  0  0  0  0  0
  -21.7728  -32.6073   20.5272 O   0  0  0  0  0  0  0  0  0  0  0  0
  -21.3697  -28.5734   18.0603 O   0  0  0  0  0  0  0  0  0  0  0  0
  -32.1643  -13.9962   20.1123 O   0  0  0  0  0  0  0  0  0  0  0  0
  -22.5888   -7.6925   24.4973 O   0  0  0  0  0  0  0  0  0  0  0  0
  -27.1949  -26.0913   20.5619 O   0  0  0  0  0  0  0  0  0  1  0  0
  -23.7071   -2.5341   22.9022 F   0  0  0  0  0  0  0  0  0  0  0  0
  -20.5594   -5.9600   23.7743 F   0  0  0  0  0  0  0  0  0  0  0  0
  -28.2941  -23.7477   23.1071 Cl  0  0  0  0  0  0  0  0  0  0  0  0
  1  2  1  0  0  0  0
  1  5  2  0  0  0  0
  2  6  2  0  0  0  0
  3  8  2  0  0  0  0
  3 15  1  0  0  0  0
  4  9  1  0  0  0  0
  4 15  2  0  0  0  0
  5 17  1  0  0  0  0
  6 19  1  0  0  0  0
  7 10  2  0  0  0  0
  7 18  1  0  0  0  0
  8 21  1  0  0  0  0
  9 21  2  0  0  0  0
 10 22  1  0  0  0  0
 11 12  2  0  0  0  0
 11 23  1  0  0  0  0
 12 24  1  0  0  0  0
 13 20  1  0  0  0  0
 13 22  2  0  0  0  0
 14 24  2  0  0  0  0
 14 25  1  0  0  0  0
 15 27  1  0  0  0  0
 16 27  1  0  0  0  0
 16 29  2  0  0  0  0
 16 31  1  0  0  0  0
 17 19  2  0  0  0  0
 17 36  1  0  0  0  0
 18 20  2  0  0  0  0
 18 37  1  0  0  0  0
 19 45  1  0  0  0  0
 20 38  1  0  0  0  0
 21 82  1  0  0  0  0
 22 83  1  0  0  0  0
 23 25  2  0  0  0  0
 23 82  1  0  0  0  0
 24 84  1  0  0  0  0
 25 85  1  0  0  0  0
 26 28  1  0  0  0  0
 26 30  2  0  0  0  0
 26 86  1  0  0  0  0
 27 64  2  0  0  0  0
 28 54  1  0  0  0  0
 28 65  2  0  0  0  0
 29 66  1  0  0  0  0
 29 70  1  0  0  0  0
 30 67  1  0  0  0  0
 30 72  1  0  0  0  0
 31 71  1  0  0  0  0
 31 77  2  0  0  0  0
 32 46  1  0  0  0  0
 32 73  1  0  0  0  0
 32 78  2  0  0  0  0
 33 61  1  0  0  0  0
 33 68  1  0  0  0  0
 33 79  2  0  0  0  0
 34 62  1  0  0  0  0
 34 74  1  0  0  0  0
 34 80  2  0  0  0  0
 35 69  1  0  0  0  0
 35 75  1  0  0  0  0
 35 81  2  0  0  0  0
 36 39  1  0  0  0  0
 37 46  1  0  0  0  0
 38 68  1  0  0  0  0
 39 41  1  0  0  0  0
 40 42  1  0  0  0  0
 40 43  1  0  0  0  0
 41 45  1  0  0  0  0
 42 47  1  0  0  0  0
 43 69  1  0  0  0  0
 44 47  1  0  0  0  0
 44 69  1  0  0  0  0
 45 73  1  0  0  0  0
 46 68  1  0  0  0  0
 47 66  1  0  0  0  0
 48 62  1  0  0  0  0
 49 63  1  0  0  0  0
 50 63  1  0  0  0  0
 51 63  1  0  0  0  0
 52 67  1  0  0  0  0
 53 76  1  0  0  0  0
 54 83  1  0  0  0  0
 55 56  1  0  0  0  0
 55 57  1  0  0  0  0
 56 58  1  0  0  0  0
 57 59  1  0  0  0  0
 58 60  1  0  0  0  0
 59 72  1  0  0  0  0
 60 75  1  0  0  0  0
 61 63  1  0  0  0  0
 61 74  1  0  0  0  0
 62 76  1  0  0  0  0
 64 66  1  0  0  0  0
 65 67  1  0  0  0  0
M  CHG  1  76   1
M  ISO  4  35 100  54 101  75 100  83 101
M  END
> <Batch ID>
0018

> <Smiles>
CNC(C)C(=O)NC(C(=O)N1Cc2cc([101O:1][101CH2:1]c3nn(C)c(NCCCCCC[100NH:0][100C:0](=O)N4CCCC(n5nc(-c6ccc(Oc7ccc(F)cc7F)cc6)c(C(N)=O)c5N)C4)c3Cl)ccc2CC1C(=O)NC1CCCc2ccccc21)C(C)(C)C

> <Shape>
0.343

> <Color>
0.174

> <Negative vol penalty>
0.000

$$$$

  -OEChem-04052316043D

 82 90  0     1  0  0  0  0  0999 V2000
  -15.2398  -22.3786   19.7746 C   0  0  0  0  0  0  0  0  0  0  0  0
  -16.4682  -21.7444   19.6190 C   0  0  0  0  0  0  0  0  0  0  0  0
  -23.0733   -9.8699   19.9427 C   0  0  0  0  0  0  0  0  0  0  0  0
  -23.8372   -9.8768   22.2348 C   0  0  0  0  0  0  0  0  0  0  0  0
  -15.1460  -23.5331   20.5507 C   0  0  0  0  0  0  0  0  0  0  0  0
  -17.6038  -22.2650   20.2384 C   0  0  0  0  0  0  0  0  0  0  0  0
  -22.3053  -19.1033   22.5635 C   0  0  0  0  0  0  0  0  0  0  0  0
  -22.3301   -8.7166   20.1938 C   0  0  0  0  0  0  0  0  0  0  0  0
  -23.0939   -8.7234   22.4859 C   0  0  0  0  0  0  0  0  0  0  0  0
  -23.5670  -18.7915   22.0589 C   0  0  0  0  0  0  0  0  0  0  0  0
  -19.8670   -7.9250   23.0940 C   0  0  0  0  0  0  0  0  0  0  0  0
  -19.1121   -7.8848   24.2662 C   0  0  0  0  0  0  0  0  0  0  0  0
  -24.4965  -20.6844   23.2304 C   0  0  0  0  0  0  0  0  0  0  0  0
  -20.3551   -5.9475   25.0002 C   0  0  0  0  0  0  0  0  0  0  0  0
  -29.8897  -19.9721   19.8871 C   0  0  0  0  0  0  0  0  0  0  0  0
  -23.8269  -10.4500   20.9632 C   0  0  0  0  0  0  0  0  0  0  0  0
  -24.1681  -12.9752   20.8428 C   0  0  0  0  0  0  0  0  0  0  0  0
  -16.2792  -24.0627   21.1878 C   0  0  0  0  0  0  0  0  0  0  0  0
  -22.1275  -20.2162   23.3980 C   0  0  0  0  0  0  0  0  0  0  0  0
  -17.5254  -23.4284   21.0226 C   0  0  0  0  0  0  0  0  0  0  0  0
  -23.2320  -21.0067   23.7463 C   0  0  0  0  0  0  0  0  0  0  0  0
  -28.2321  -19.6596   21.6167 C   0  0  0  0  0  0  0  0  0  0  0  0
  -30.0784  -18.1138   21.4194 C   0  0  0  0  0  0  0  0  0  0  0  0
  -22.3403   -8.1434   21.4654 C   0  0  0  0  0  0  0  0  0  0  0  0
  -24.6623  -19.5838   22.3900 C   0  0  0  0  0  0  0  0  0  0  0  0
  -20.8659   -6.9764   22.8748 C   0  0  0  0  0  0  0  0  0  0  0  0
  -19.3561   -6.8961   25.2193 C   0  0  0  0  0  0  0  0  0  0  0  0
  -21.1100   -5.9877   23.8280 C   0  0  0  0  0  0  0  0  0  0  0  0
  -28.7218  -20.3832   20.5294 C   0  0  0  0  0  0  0  0  0  0  0  0
  -30.5680  -18.8374   20.3321 C   0  0  0  0  0  0  0  0  0  0  0  0
  -28.9105  -18.5249   22.0618 C   0  0  0  0  0  0  0  0  0  0  0  0
  -24.5953  -11.6410   20.7042 C   0  0  0  0  0  0  0  0  0  0  0  0
  -25.2595  -13.7249   20.4777 C   0  0  0  0  0  0  0  0  0  0  0  0
  -22.8983  -13.4907   21.2640 C   0  0  0  0  0  0  0  0  0  0  0  0
  -20.4552  -22.9132   23.2143 C   0  0  0  0  0  0  0  0  0  0  0  0
  -21.4986  -23.3099   26.2600 C   0  0  0  0  0  0  0  0  0  0  0  0
  -23.8302  -22.5781   28.6422 C   0  0  0  0  0  0  0  0  0  0  0  0
  -30.7434  -14.7449   20.6566 C   0  0  0  0  0  0  0  0  0  0  0  0
  -16.1376  -25.3395   21.9780 C   0  0  0  0  0  0  0  0  0  0  0  0
  -20.7647  -20.5235   23.9556 C   0  0  0  0  0  0  0  0  0  0  0  0
  -23.0979  -22.2005   24.6547 C   0  0  0  0  0  0  0  0  0  0  0  0
  -17.3173  -25.6151   22.9067 C   0  0  0  0  0  0  0  0  0  0  0  0
  -29.6020  -12.3605   18.2716 C   0  0  0  0  0  0  0  0  0  0  0  0
  -18.6367  -25.4008   22.1718 C   0  0  0  0  0  0  0  0  0  0  0  0
  -28.1654  -12.0664   18.7070 C   0  0  0  0  0  0  0  0  0  0  0  0
  -30.5212  -12.5813   19.4709 C   0  0  0  0  0  0  0  0  0  0  0  0
  -28.6218  -13.3119   20.8609 C   0  0  0  0  0  0  0  0  0  0  0  0
  -18.7752  -23.9486   21.6990 C   0  0  1  0  0  0  0  0  0  0  0  0
  -20.6080  -21.9799   24.3819 C   0  0  1  0  0  0  0  0  0  0  0  0
  -27.6456  -13.1373   19.6849 C   0  0  2  0  0  0  0  0  0  0  0  0
  -24.4376  -23.0817   31.0244 C   0  0  0  0  0  0  0  0  0  0  0  0
  -22.5471  -26.0468   25.4115 C   0  0  0  0  0  0  0  0  0  0  0  0
  -23.9360  -26.0831   27.4943 C   0  0  0  0  0  0  0  0  0  0  0  0
  -21.4482  -26.0012   27.6575 C   0  0  0  0  0  0  0  0  0  0  0  0
  -23.5683  -19.7378   29.4313 C   0  0  0  0  0  0  0  0  0  0  0  0
  -30.8110  -16.8953   21.8937 C   0  0  0  0  0  0  0  0  0  0  0  0
  -26.9727  -20.1366   22.2783 C   0  0  0  0  0  0  0  0  0  1  0  0
  -22.7091  -23.9444   26.9013 C   0  0  1  0  0  0  0  0  0  0  0  0
  -23.6890  -22.1440   30.0900 C   0  0  2  0  0  0  0  0  0  0  0  0
  -22.6626  -25.4976   26.8474 C   0  0  0  0  0  0  0  0  0  0  0  0
  -25.8595  -11.5455   20.2837 N   0  0  0  0  0  0  0  0  0  0  0  0
  -26.2359  -12.8291   20.1549 N   0  0  0  0  0  0  0  0  0  0  0  0
  -21.7438  -22.4636   25.1694 N   0  0  0  0  0  0  0  0  0  0  0  0
  -29.9720  -13.6096   20.3579 N   0  0  0  0  0  0  0  0  0  0  0  0
  -25.4695  -15.0564   20.4045 N   0  0  0  0  0  0  0  0  0  0  0  0
  -21.8871  -12.5814   21.6030 N   0  0  0  0  0  0  0  0  0  0  0  0
  -19.1479  -23.0909   22.8034 N   0  0  0  0  0  0  0  0  0  0  0  0
  -22.7910  -23.3955   28.2505 N   0  0  0  0  0  0  0  0  0  0  0  0
  -30.1455  -15.6735   21.4998 N   0  0  0  0  0  0  0  0  0  0  0  0
  -24.2300  -20.7675   30.2731 N   0  3  0  0  0  0  0  0  0  0  0  0
  -22.6619  -14.7213   21.3219 O   0  0  0  0  0  0  0  0  0  0  0  0
  -21.4496  -23.4347   22.7235 O   0  0  0  0  0  0  0  0  0  0  0  0
  -20.3774  -23.5506   26.7146 O   0  0  0  0  0  0  0  0  0  0  0  0
  -24.7703  -22.2302   27.9311 O   0  0  0  0  0  0  0  0  0  0  0  0
  -31.8785  -14.9206   20.2010 O   0  0  0  0  0  0  0  0  0  0  0  0
  -21.6150   -7.0181   21.7109 O   0  0  0  0  0  0  0  0  0  0  0  0
  -25.8949  -19.2821   21.8983 O   0  0  0  0  0  0  0  0  0  1  0  0
  -18.6322   -6.8585   26.3457 F   0  0  0  0  0  0  0  0  0  0  0  0
  -22.0691   -5.0744   23.6236 F   0  0  0  0  0  0  0  0  0  0  0  0
  -28.0780  -21.4751   20.0930 F   0  0  0  0  0  0  0  0  0  0  0  0
  -32.0098  -18.3652   19.5069 Cl  0  0  0  0  0  0  0  0  0  0  0  0
  -28.2973  -17.6300   23.4131 Cl  0  0  0  0  0  0  0  0  0  0  0  0
  1  2  1  0  0  0  0
  1  5  2  0  0  0  0
  2  6  2  0  0  0  0
  3  8  2  0  0  0  0
  3 16  1  0  0  0  0
  4  9  1  0  0  0  0
  4 16  2  0  0  0  0
  5 18  1  0  0  0  0
  6 20  1  0  0  0  0
  7 10  2  0  0  0  0
  7 19  1  0  0  0  0
  8 24  1  0  0  0  0
  9 24  2  0  0  0  0
 10 25  1  0  0  0  0
 11 12  2  0  0  0  0
 11 26  1  0  0  0  0
 12 27  1  0  0  0  0
 13 21  1  0  0  0  0
 13 25  2  0  0  0  0
 14 27  2  0  0  0  0
 14 28  1  0  0  0  0
 15 29  2  0  0  0  0
 15 30  1  0  0  0  0
 16 32  1  0  0  0  0
 17 32  1  0  0  0  0
 17 33  2  0  0  0  0
 17 34  1  0  0  0  0
 18 20  2  0  0  0  0
 18 39  1  0  0  0  0
 19 21  2  0  0  0  0
 19 40  1  0  0  0  0
 20 48  1  0  0  0  0
 21 41  1  0  0  0  0
 22 29  1  0  0  0  0
 22 31  2  0  0  0  0
 22 57  1  0  0  0  0
 23 30  2  0  0  0  0
 23 31  1  0  0  0  0
 23 56  1  0  0  0  0
 24 76  1  0  0  0  0
 25 77  1  0  0  0  0
 26 28  2  0  0  0  0
 26 76  1  0  0  0  0
 27 78  1  0  0  0  0
 28 79  1  0  0  0  0
 29 80  1  0  0  0  0
 30 81  1  0  0  0  0
 31 82  1  0  0  0  0
 32 61  2  0  0  0  0
 33 62  1  0  0  0  0
 33 65  1  0  0  0  0
 34 66  1  0  0  0  0
 34 71  2  0  0  0  0
 35 49  1  0  0  0  0
 35 67  1  0  0  0  0
 35 72  2  0  0  0  0
 36 58  1  0  0  0  0
 36 63  1  0  0  0  0
 36 73  2  0  0  0  0
 37 59  1  0  0  0  0
 37 68  1  0  0  0  0
 37 74  2  0  0  0  0
 38 64  1  0  0  0  0
 38 69  1  0  0  0  0
 38 75  2  0  0  0  0
 39 42  1  0  0  0  0
 40 49  1  0  0  0  0
 41 63  1  0  0  0  0
 42 44  1  0  0  0  0
 43 45  1  0  0  0  0
 43 46  1  0  0  0  0
 44 48  1  0  0  0  0
 45 50  1  0  0  0  0
 46 64  1  0  0  0  0
 47 50  1  0  0  0  0
 47 64  1  0  0  0  0
 48 67  1  0  0  0  0
 49 63  1  0  0  0  0
 50 62  1  0  0  0  0
 51 59  1  0  0  0  0
 52 60  1  0  0  0  0
 53 60  1  0  0  0  0
 54 60  1  0  0  0  0
 55 70  1  0  0  0  0
 56 69  1  0  0  0  0
 57 77  1  0  0  0  0
 58 60  1  0  0  0  0
 58 68  1  0  0  0  0
 59 70  1  0  0  0  0
 61 62  1  0  0  0  0
M  CHG  1  70   1
M  ISO  4  38 100  57 101  69 100  77 101
M  END
> <Batch ID>
0018

> <Smiles>
CNC(C)C(=O)NC(C(=O)N1Cc2cc([101O:1][101CH2:1]c3c(F)cc(Cl)c(C[100NH:0][100C:0](=O)N4CCCC(n5nc(-c6ccc(Oc7ccc(F)cc7F)cc6)c(C(N)=O)c5N)C4)c3Cl)ccc2CC1C(=O)NC1CCCc2ccccc21)C(C)(C)C

> <Shape>
0.210

> <Color>
0.200

> <Negative vol penalty>
0.000

$$$$

  -OEChem-04052316043D

 82 90  0     1  0  0  0  0  0999 V2000
  -26.6254  -18.7191   26.9172 C   0  0  0  0  0  0  0  0  0  0  0  0
  -27.0099  -19.9485   26.3940 C   0  0  0  0  0  0  0  0  0  0  0  0
  -26.0893  -13.0450   21.6607 C   0  0  0  0  0  0  0  0  0  0  0  0
  -25.8165  -13.7412   19.3633 C   0  0  0  0  0  0  0  0  0  0  0  0
  -25.3376  -18.2398   26.6866 C   0  0  0  0  0  0  0  0  0  0  0  0
  -26.1031  -20.7044   25.6503 C   0  0  0  0  0  0  0  0  0  0  0  0
  -27.5080  -25.2367   24.3510 C   0  0  0  0  0  0  0  0  0  0  0  0
  -24.9046  -12.3133   21.5796 C   0  0  0  0  0  0  0  0  0  0  0  0
  -24.6318  -13.0095   19.2822 C   0  0  0  0  0  0  0  0  0  0  0  0
  -28.4755  -25.4753   23.3759 C   0  0  0  0  0  0  0  0  0  0  0  0
  -23.8942   -9.3395   20.3272 C   0  0  0  0  0  0  0  0  0  0  0  0
  -23.8931   -8.0474   20.8526 C   0  0  0  0  0  0  0  0  0  0  0  0
  -26.7405  -26.0696   21.8087 C   0  0  0  0  0  0  0  0  0  0  0  0
  -28.8488  -23.3533   15.9497 C   0  0  0  0  0  0  0  0  0  0  0  0
  -28.3837  -21.1633   16.8282 C   0  0  0  0  0  0  0  0  0  0  0  0
  -22.1395   -8.6747   22.3916 C   0  0  0  0  0  0  0  0  0  0  0  0
  -26.5453  -13.7590   20.5525 C   0  0  0  0  0  0  0  0  0  0  0  0
  -29.0695  -14.0631   20.3441 C   0  0  0  0  0  0  0  0  0  0  0  0
  -24.4192  -18.9852   25.9291 C   0  0  0  0  0  0  0  0  0  0  0  0
  -26.1466  -25.4024   24.0585 C   0  0  0  0  0  0  0  0  0  0  0  0
  -24.7912  -20.2488   25.4268 C   0  0  0  0  0  0  0  0  0  0  0  0
  -25.7579  -25.8348   22.7826 C   0  0  0  0  0  0  0  0  0  0  0  0
  -28.4639  -22.0328   15.7462 C   0  0  0  0  0  0  0  0  0  0  0  0
  -24.1758  -12.2955   20.3904 C   0  0  0  0  0  0  0  0  0  0  0  0
  -28.0916  -25.8891   22.1036 C   0  0  0  0  0  0  0  0  0  0  0  0
  -23.0180  -10.2992   20.8341 C   0  0  0  0  0  0  0  0  0  0  0  0
  -23.0157   -7.7149   21.8848 C   0  0  0  0  0  0  0  0  0  0  0  0
  -22.1407   -9.9668   21.8662 C   0  0  0  0  0  0  0  0  0  0  0  0
  -27.7688  -14.5155   20.6358 C   0  0  0  0  0  0  0  0  0  0  0  0
  -29.1405  -23.7517   17.2443 C   0  0  0  0  0  0  0  0  0  0  0  0
  -28.6964  -21.6596   18.0835 C   0  0  0  0  0  0  0  0  0  0  0  0
  -29.8725  -15.1525   20.5780 C   0  0  0  0  0  0  0  0  0  0  0  0
  -29.5123  -12.7733   19.9011 C   0  0  0  0  0  0  0  0  0  0  0  0
  -23.6136  -23.4828   24.0065 C   0  0  0  0  0  0  0  0  0  0  0  0
  -29.8485  -25.4632   18.9647 C   0  0  0  0  0  0  0  0  0  0  0  0
  -22.0151  -26.2502   23.4509 C   0  0  0  0  0  0  0  0  0  0  0  0
  -22.0960  -29.4618   22.2993 C   0  0  0  0  0  0  0  0  0  0  0  0
  -28.8783  -21.0443   20.5196 C   0  0  0  0  0  0  0  0  0  0  0  0
  -23.0359  -18.4224   25.7169 C   0  0  0  0  0  0  0  0  0  0  0  0
  -25.1170  -25.1666   25.1293 C   0  0  0  0  0  0  0  0  0  0  0  0
  -24.3106  -26.0472   22.4240 C   0  0  0  0  0  0  0  0  0  0  0  0
  -22.2982  -19.0804   24.5553 C   0  0  0  0  0  0  0  0  0  0  0  0
  -30.1161  -19.1207   23.2480 C   0  0  0  0  0  0  0  0  0  0  0  0
  -22.3775  -20.5945   24.6801 C   0  0  0  0  0  0  0  0  0  0  0  0
  -29.7785  -17.6797   22.8584 C   0  0  0  0  0  0  0  0  0  0  0  0
  -29.0247  -20.0966   22.8121 C   0  0  0  0  0  0  0  0  0  0  0  0
  -28.3182  -18.5809   21.0030 C   0  0  0  0  0  0  0  0  0  0  0  0
  -23.8316  -21.0745   24.5891 C   0  0  1  0  0  0  0  0  0  0  0  0
  -23.7291  -24.8713   24.5691 C   0  0  1  0  0  0  0  0  0  0  0  0
  -29.4186  -17.5697   21.3638 C   0  0  2  0  0  0  0  0  0  0  0  0
  -28.1387  -21.5510   14.3732 C   0  0  0  0  0  0  0  0  0  0  0  0
  -20.6250  -31.4623   21.9373 C   0  0  0  0  0  0  0  0  0  0  0  0
  -20.7989  -24.9085   20.9951 C   0  0  0  0  0  0  0  0  0  0  0  0
  -20.1263  -27.1765   20.1753 C   0  0  0  0  0  0  0  0  0  0  0  0
  -19.2011  -26.3027   22.3208 C   0  0  0  0  0  0  0  0  0  0  0  0
  -23.7065  -31.1247   24.1432 C   0  0  0  0  0  0  0  0  0  0  0  0
  -29.5615  -25.1744   17.5024 C   0  0  0  0  0  0  0  0  0  0  0  0
  -28.6543  -25.8959   19.7929 C   0  0  0  0  0  0  0  0  0  1  0  0
  -21.6208  -27.0282   22.2187 C   0  0  1  0  0  0  0  0  0  0  0  0
  -21.5754  -30.7582   22.8931 C   0  0  2  0  0  0  0  0  0  0  0  0
  -20.4640  -26.3482   21.4334 C   0  0  0  0  0  0  0  0  0  0  0  0
  -27.7424  -15.7928   21.0255 N   0  0  0  0  0  0  0  0  0  0  0  0
  -29.0740  -22.9359   18.3203 N   0  0  0  0  0  0  0  0  0  0  0  0
  -29.0365  -16.1522   20.9803 N   0  0  0  0  0  0  0  0  0  0  0  0
  -23.3410  -25.7975   23.5033 N   0  0  0  0  0  0  0  0  0  0  0  0
  -28.7398  -19.9380   21.3843 N   0  0  0  0  0  0  0  0  0  0  0  0
  -31.2051  -15.3433   20.4768 N   0  0  0  0  0  0  0  0  0  0  0  0
  -28.5552  -11.7674   19.7107 N   0  0  0  0  0  0  0  0  0  0  0  0
  -28.6120  -20.7655   19.1795 N   0  0  0  0  0  0  0  0  0  0  0  0
  -23.8858  -22.4816   24.9192 N   0  0  0  0  0  0  0  0  0  0  0  0
  -21.3214  -28.3829   22.6698 N   0  0  0  0  0  0  0  0  0  0  0  0
  -22.7063  -31.6804   23.1956 N   0  3  0  0  0  0  0  0  0  0  0  0
  -30.7228  -12.5157   19.6965 O   0  0  0  0  0  0  0  0  0  0  0  0
  -23.2992  -23.3311   22.8319 O   0  0  0  0  0  0  0  0  0  0  0  0
  -30.9711  -25.3577   19.4568 O   0  0  0  0  0  0  0  0  0  0  0  0
  -21.1794  -26.0576   24.3375 O   0  0  0  0  0  0  0  0  0  0  0  0
  -23.0883  -29.4117   21.5759 O   0  0  0  0  0  0  0  0  0  0  0  0
  -29.2351  -22.1505   20.9331 O   0  0  0  0  0  0  0  0  0  0  0  0
  -23.0198  -11.5814   20.3109 O   0  0  0  0  0  0  0  0  0  0  0  0
  -29.0338  -26.1221   21.1498 O   0  0  0  0  0  0  0  0  0  1  0  0
  -23.0137   -6.4736   22.3881 F   0  0  0  0  0  0  0  0  0  0  0  0
  -21.2958  -10.8842   22.3565 F   0  0  0  0  0  0  0  0  0  0  0  0
  1  2  1  0  0  0  0
  1  5  2  0  0  0  0
  2  6  2  0  0  0  0
  3  8  2  0  0  0  0
  3 17  1  0  0  0  0
  4  9  1  0  0  0  0
  4 17  2  0  0  0  0
  5 19  1  0  0  0  0
  6 21  1  0  0  0  0
  7 10  2  0  0  0  0
  7 20  1  0  0  0  0
  8 24  1  0  0  0  0
  9 24  2  0  0  0  0
 10 25  1  0  0  0  0
 11 12  2  0  0  0  0
 11 26  1  0  0  0  0
 12 27  1  0  0  0  0
 13 22  1  0  0  0  0
 13 25  2  0  0  0  0
 14 23  2  0  0  0  0
 14 30  1  0  0  0  0
 15 23  1  0  0  0  0
 15 31  2  0  0  0  0
 16 27  2  0  0  0  0
 16 28  1  0  0  0  0
 17 29  1  0  0  0  0
 18 29  1  0  0  0  0
 18 32  2  0  0  0  0
 18 33  1  0  0  0  0
 19 21  2  0  0  0  0
 19 39  1  0  0  0  0
 20 22  2  0  0  0  0
 20 40  1  0  0  0  0
 21 48  1  0  0  0  0
 22 41  1  0  0  0  0
 23 51  1  0  0  0  0
 24 79  1  0  0  0  0
 25 80  1  0  0  0  0
 26 28  2  0  0  0  0
 26 79  1  0  0  0  0
 27 81  1  0  0  0  0
 28 82  1  0  0  0  0
 29 62  2  0  0  0  0
 30 57  1  0  0  0  0
 30 63  2  0  0  0  0
 31 63  1  0  0  0  0
 31 69  1  0  0  0  0
 32 64  1  0  0  0  0
 32 67  1  0  0  0  0
 33 68  1  0  0  0  0
 33 73  2  0  0  0  0
 34 49  1  0  0  0  0
 34 70  1  0  0  0  0
 34 74  2  0  0  0  0
 35 57  1  0  0  0  0
 35 58  1  0  0  0  0
 35 75  2  0  0  0  0
 36 59  1  0  0  0  0
 36 65  1  0  0  0  0
 36 76  2  0  0  0  0
 37 60  1  0  0  0  0
 37 71  1  0  0  0  0
 37 77  2  0  0  0  0
 38 66  1  0  0  0  0
 38 69  1  0  0  0  0
 38 78  2  0  0  0  0
 39 42  1  0  0  0  0
 40 49  1  0  0  0  0
 41 65  1  0  0  0  0
 42 44  1  0  0  0  0
 43 45  1  0  0  0  0
 43 46  1  0  0  0  0
 44 48  1  0  0  0  0
 45 50  1  0  0  0  0
 46 66  1  0  0  0  0
 47 50  1  0  0  0  0
 47 66  1  0  0  0  0
 48 70  1  0  0  0  0
 49 65  1  0  0  0  0
 50 64  1  0  0  0  0
 52 60  1  0  0  0  0
 53 61  1  0  0  0  0
 54 61  1  0  0  0  0
 55 61  1  0  0  0  0
 56 72  1  0  0  0  0
 58 80  1  0  0  0  0
 59 61  1  0  0  0  0
 59 71  1  0  0  0  0
 60 72  1  0  0  0  0
 62 64  1  0  0  0  0
M  CHG  1  72   1
M  ISO  4  38 100  58 101  69 100  80 101
M  END
> <Batch ID>
0018

> <Smiles>
CNC(C)C(=O)NC(C(=O)N1Cc2cc([101O:1][101CH2:1]C(=O)Cc3cc(C)cc([100NH:0][100C:0](=O)N4CCCC(n5nc(-c6ccc(Oc7ccc(F)cc7F)cc6)c(C(N)=O)c5N)C4)n3)ccc2CC1C(=O)NC1CCCc2ccccc21)C(C)(C)C

> <Shape>
0.248

> <Color>
0.084

> <Negative vol penalty>
0.000

$$$$

  -OEChem-04052316043D

 83 91  0     1  0  0  0  0  0999 V2000
  -20.9715  -35.2518   17.6310 C   0  0  0  0  0  0  0  0  0  0  0  0
  -22.0718  -34.4252   17.4275 C   0  0  0  0  0  0  0  0  0  0  0  0
  -26.5492  -12.7281   21.1696 C   0  0  0  0  0  0  0  0  0  0  0  0
  -26.2403  -13.2664   18.8346 C   0  0  0  0  0  0  0  0  0  0  0  0
  -20.5576  -35.5528   18.9279 C   0  0  0  0  0  0  0  0  0  0  0  0
  -22.7595  -33.8998   18.5209 C   0  0  0  0  0  0  0  0  0  0  0  0
  -25.4433  -28.4073   18.8890 C   0  0  0  0  0  0  0  0  0  0  0  0
  -25.9985  -11.4653   20.9513 C   0  0  0  0  0  0  0  0  0  0  0  0
  -25.6897  -12.0036   18.6163 C   0  0  0  0  0  0  0  0  0  0  0  0
  -26.7673  -27.9982   18.7359 C   0  0  0  0  0  0  0  0  0  0  0  0
  -22.9191  -10.1204   20.5865 C   0  0  0  0  0  0  0  0  0  0  0  0
  -21.9796   -9.6560   21.5069 C   0  0  0  0  0  0  0  0  0  0  0  0
  -27.0704  -28.1045   21.1267 C   0  0  0  0  0  0  0  0  0  0  0  0
  -29.4313  -24.0208   16.9770 C   0  0  0  0  0  0  0  0  0  0  0  0
  -23.4009   -7.7666   22.0043 C   0  0  0  0  0  0  0  0  0  0  0  0
  -26.6701  -13.6287   20.1113 C   0  0  0  0  0  0  0  0  0  0  0  0
  -28.5947  -15.2980   20.2407 C   0  0  0  0  0  0  0  0  0  0  0  0
  -21.2346  -35.0231   20.0377 C   0  0  0  0  0  0  0  0  0  0  0  0
  -24.9252  -28.6792   20.1634 C   0  0  0  0  0  0  0  0  0  0  0  0
  -22.3550  -34.1951   19.8339 C   0  0  0  0  0  0  0  0  0  0  0  0
  -25.7388  -28.5146   21.2935 C   0  0  0  0  0  0  0  0  0  0  0  0
  -30.0127  -24.9102   17.8807 C   0  0  0  0  0  0  0  0  0  0  0  0
  -28.6604  -22.9563   17.4441 C   0  0  0  0  0  0  0  0  0  0  0  0
  -29.8234  -24.7349   19.2515 C   0  0  0  0  0  0  0  0  0  0  0  0
  -29.0525  -23.6704   19.7186 C   0  0  0  0  0  0  0  0  0  0  0  0
  -28.4710  -22.7811   18.8149 C   0  0  0  0  0  0  0  0  0  0  0  0
  -25.5688  -11.1030   19.6747 C   0  0  0  0  0  0  0  0  0  0  0  0
  -27.5819  -27.8495   19.8546 C   0  0  0  0  0  0  0  0  0  0  0  0
  -24.0995   -9.4079   20.3748 C   0  0  0  0  0  0  0  0  0  0  0  0
  -22.2205   -8.4791   22.2158 C   0  0  0  0  0  0  0  0  0  0  0  0
  -24.3404   -8.2311   21.0838 C   0  0  0  0  0  0  0  0  0  0  0  0
  -27.2383  -14.9335   20.3362 C   0  0  0  0  0  0  0  0  0  0  0  0
  -28.6128  -16.6370   20.5461 C   0  0  0  0  0  0  0  0  0  0  0  0
  -29.7363  -14.4978   19.9056 C   0  0  0  0  0  0  0  0  0  0  0  0
  -23.7272  -31.2514   21.5960 C   0  0  0  0  0  0  0  0  0  0  0  0
  -23.0931  -29.1474   23.9820 C   0  0  0  0  0  0  0  0  0  0  0  0
  -23.8427  -26.1908   25.5129 C   0  0  0  0  0  0  0  0  0  0  0  0
  -26.5221  -21.7740   20.0534 C   0  0  0  0  0  0  0  0  0  0  0  0
  -20.7789  -35.4148   21.4210 C   0  0  0  0  0  0  0  0  0  0  0  0
  -23.4873  -29.0939   20.3139 C   0  0  0  0  0  0  0  0  0  0  0  0
  -25.2248  -28.7741   22.6853 C   0  0  0  0  0  0  0  0  0  0  0  0
  -21.3338  -34.5155   22.5226 C   0  0  0  0  0  0  0  0  0  0  0  0
  -25.0039  -19.6289   22.4557 C   0  0  0  0  0  0  0  0  0  0  0  0
  -22.8298  -34.2917   22.3261 C   0  0  0  0  0  0  0  0  0  0  0  0
  -25.5615  -18.2461   22.1106 C   0  0  0  0  0  0  0  0  0  0  0  0
  -24.7495  -20.4664   21.2037 C   0  0  0  0  0  0  0  0  0  0  0  0
  -26.4536  -19.2050   19.9492 C   0  0  0  0  0  0  0  0  0  0  0  0
  -23.1118  -33.5859   20.9942 C   0  0  1  0  0  0  0  0  0  0  0  0
  -23.2136  -29.8395   21.6165 C   0  0  1  0  0  0  0  0  0  0  0  0
  -26.7871  -18.3484   21.1815 C   0  0  2  0  0  0  0  0  0  0  0  0
  -30.8322  -26.0426   17.3542 C   0  0  0  0  0  0  0  0  0  0  0  0
  -28.8526  -23.4867   21.1908 C   0  0  0  0  0  0  0  0  0  0  0  0
  -26.8183  -22.6182   15.7771 C   0  0  0  0  0  0  0  0  0  0  0  0
  -23.1778  -24.7581   27.4630 C   0  0  0  0  0  0  0  0  0  0  0  0
  -24.5725  -31.0340   25.8693 C   0  0  0  0  0  0  0  0  0  0  0  0
  -24.7063  -29.1606   27.5249 C   0  0  0  0  0  0  0  0  0  0  0  0
  -22.4821  -30.0395   26.8156 C   0  0  0  0  0  0  0  0  0  0  0  0
  -23.0636  -23.9469   23.7475 C   0  0  0  0  0  0  0  0  0  0  0  0
  -28.0494  -22.0211   16.4512 C   0  0  0  0  0  0  0  0  0  0  0  0
  -30.4541  -25.6991   20.2266 C   0  0  0  0  0  0  0  0  0  0  0  0
  -29.4499  -26.7045   20.7795 C   0  0  0  0  0  0  0  0  0  1  0  0
  -23.8400  -28.6514   25.1966 C   0  0  1  0  0  0  0  0  0  0  0  0
  -22.9607  -25.0496   25.9863 C   0  0  2  0  0  0  0  0  0  0  0  0
  -23.9108  -29.7183   26.3254 C   0  0  0  0  0  0  0  0  0  0  0  0
  -26.4518  -15.9581   20.6760 N   0  0  0  0  0  0  0  0  0  0  0  0
  -27.3167  -16.9797   20.7967 N   0  0  0  0  0  0  0  0  0  0  0  0
  -23.8139  -29.1836   22.7800 N   0  0  0  0  0  0  0  0  0  0  0  0
  -25.9552  -20.5224   20.3741 N   0  0  0  0  0  0  0  0  0  0  0  0
  -29.6108  -17.5428   20.6222 N   0  0  0  0  0  0  0  0  0  0  0  0
  -29.5396  -13.1400   19.6193 N   0  0  0  0  0  0  0  0  0  0  0  0
  -27.6847  -21.7009   19.2868 N   0  0  0  0  0  0  0  0  0  0  0  0
  -22.8233  -32.1718   21.1007 N   0  0  0  0  0  0  0  0  0  0  0  0
  -23.1936  -27.4048   25.5923 N   0  0  0  0  0  0  0  0  0  0  0  0
  -23.2582  -23.8103   25.2139 N   0  3  0  0  0  0  0  0  0  0  0  0
  -30.8984  -14.9691   19.8775 O   0  0  0  0  0  0  0  0  0  0  0  0
  -24.8592  -31.4885   22.0010 O   0  0  0  0  0  0  0  0  0  0  0  0
  -21.9114  -29.4833   24.0942 O   0  0  0  0  0  0  0  0  0  0  0  0
  -24.9937  -26.0227   25.1161 O   0  0  0  0  0  0  0  0  0  0  0  0
  -26.0290  -22.8316   20.4538 O   0  0  0  0  0  0  0  0  0  0  0  0
  -25.0316   -9.8707   19.4613 O   0  0  0  0  0  0  0  0  0  0  0  0
  -28.8747  -27.4509   19.7079 O   0  0  0  0  0  0  0  0  0  1  0  0
  -21.3189   -8.0341   23.1008 F   0  0  0  0  0  0  0  0  0  0  0  0
  -25.4730   -7.5429   20.8856 F   0  0  0  0  0  0  0  0  0  0  0  0
  1  2  1  0  0  0  0
  1  5  2  0  0  0  0
  2  6  2  0  0  0  0
  3  8  2  0  0  0  0
  3 16  1  0  0  0  0
  4  9  1  0  0  0  0
  4 16  2  0  0  0  0
  5 18  1  0  0  0  0
  6 20  1  0  0  0  0
  7 10  2  0  0  0  0
  7 19  1  0  0  0  0
  8 27  1  0  0  0  0
  9 27  2  0  0  0  0
 10 28  1  0  0  0  0
 11 12  2  0  0  0  0
 11 29  1  0  0  0  0
 12 30  1  0  0  0  0
 13 21  1  0  0  0  0
 13 28  2  0  0  0  0
 14 22  2  0  0  0  0
 14 23  1  0  0  0  0
 15 30  2  0  0  0  0
 15 31  1  0  0  0  0
 16 32  1  0  0  0  0
 17 32  1  0  0  0  0
 17 33  2  0  0  0  0
 17 34  1  0  0  0  0
 18 20  2  0  0  0  0
 18 39  1  0  0  0  0
 19 21  2  0  0  0  0
 19 40  1  0  0  0  0
 20 48  1  0  0  0  0
 21 41  1  0  0  0  0
 22 24  1  0  0  0  0
 22 51  1  0  0  0  0
 23 26  2  0  0  0  0
 23 59  1  0  0  0  0
 24 25  2  0  0  0  0
 24 60  1  0  0  0  0
 25 26  1  0  0  0  0
 25 52  1  0  0  0  0
 26 71  1  0  0  0  0
 27 80  1  0  0  0  0
 28 81  1  0  0  0  0
 29 31  2  0  0  0  0
 29 80  1  0  0  0  0
 30 82  1  0  0  0  0
 31 83  1  0  0  0  0
 32 65  2  0  0  0  0
 33 66  1  0  0  0  0
 33 69  1  0  0  0  0
 34 70  1  0  0  0  0
 34 75  2  0  0  0  0
 35 49  1  0  0  0  0
 35 72  1  0  0  0  0
 35 76  2  0  0  0  0
 36 62  1  0  0  0  0
 36 67  1  0  0  0  0
 36 77  2  0  0  0  0
 37 63  1  0  0  0  0
 37 73  1  0  0  0  0
 37 78  2  0  0  0  0
 38 68  1  0  0  0  0
 38 71  1  0  0  0  0
 38 79  2  0  0  0  0
 39 42  1  0  0  0  0
 40 49  1  0  0  0  0
 41 67  1  0  0  0  0
 42 44  1  0  0  0  0
 43 45  1  0  0  0  0
 43 46  1  0  0  0  0
 44 48  1  0  0  0  0
 45 50  1  0  0  0  0
 46 68  1  0  0  0  0
 47 50  1  0  0  0  0
 47 68  1  0  0  0  0
 48 72  1  0  0  0  0
 49 67  1  0  0  0  0
 50 66  1  0  0  0  0
 53 59  1  0  0  0  0
 54 63  1  0  0  0  0
 55 64  1  0  0  0  0
 56 64  1  0  0  0  0
 57 64  1  0  0  0  0
 58 74  1  0  0  0  0
 60 61  1  0  0  0  0
 61 81  1  0  0  0  0
 62 64  1  0  0  0  0
 62 73  1  0  0  0  0
 63 74  1  0  0  0  0
 65 66  1  0  0  0  0
M  CHG  1  74   1
M  ISO  4  38 100  61 101  71 100  81 101
M  END
> <Batch ID>
0018

> <Smiles>
CCc1cc(C)c(C[101CH2:1][101O:1]c2ccc3c(c2)CN(C(=O)C(NC(=O)C(C)NC)C(C)(C)C)C(C(=O)NC2CCCc4ccccc42)C3)c(C)c1[100NH:0][100C:0](=O)N1CCCC(n2nc(-c3ccc(Oc4ccc(F)cc4F)cc3)c(C(N)=O)c2N)C1

> <Shape>
0.235

> <Color>
0.073

> <Negative vol penalty>
0.000

$$$$

  -OEChem-04052316043D

 81 89  0     1  0  0  0  0  0999 V2000
  -35.5981  -32.0721   16.6702 C   0  0  0  0  0  0  0  0  0  0  0  0
  -35.8727  -30.7250   16.8831 C   0  0  0  0  0  0  0  0  0  0  0  0
  -23.0049   -9.8687   19.9774 C   0  0  0  0  0  0  0  0  0  0  0  0
  -23.7287   -9.9247   22.2818 C   0  0  0  0  0  0  0  0  0  0  0  0
  -34.4034  -32.6207   17.1345 C   0  0  0  0  0  0  0  0  0  0  0  0
  -34.9531  -29.9259   17.5614 C   0  0  0  0  0  0  0  0  0  0  0  0
  -32.4789  -23.2064   17.7674 C   0  0  0  0  0  0  0  0  0  0  0  0
  -22.2450   -8.7298   20.2438 C   0  0  0  0  0  0  0  0  0  0  0  0
  -22.9687   -8.7857   22.5482 C   0  0  0  0  0  0  0  0  0  0  0  0
  -32.2605  -22.1662   18.6697 C   0  0  0  0  0  0  0  0  0  0  0  0
  -23.2331   -5.4481   22.0774 C   0  0  0  0  0  0  0  0  0  0  0  0
  -23.8263   -4.4347   22.8301 C   0  0  0  0  0  0  0  0  0  0  0  0
  -30.1943  -23.2042   19.3569 C   0  0  0  0  0  0  0  0  0  0  0  0
  -31.1696  -18.4038   23.7057 C   0  0  0  0  0  0  0  0  0  0  0  0
  -22.1002   -4.6679   24.5044 C   0  0  0  0  0  0  0  0  0  0  0  0
  -23.7468  -10.4661   20.9965 C   0  0  0  0  0  0  0  0  0  0  0  0
  -24.1172  -12.9839   20.8199 C   0  0  0  0  0  0  0  0  0  0  0  0
  -33.4643  -31.8257   17.8103 C   0  0  0  0  0  0  0  0  0  0  0  0
  -31.5604  -24.2606   17.6607 C   0  0  0  0  0  0  0  0  0  0  0  0
  -33.7452  -30.4647   18.0363 C   0  0  0  0  0  0  0  0  0  0  0  0
  -30.4020  -24.2552   18.4507 C   0  0  0  0  0  0  0  0  0  0  0  0
  -31.5675  -19.3603   22.7716 C   0  0  0  0  0  0  0  0  0  0  0  0
  -30.6642  -17.1769   23.2755 C   0  0  0  0  0  0  0  0  0  0  0  0
  -31.4599  -19.0900   21.4075 C   0  0  0  0  0  0  0  0  0  0  0  0
  -30.9544  -17.8631   20.9773 C   0  0  0  0  0  0  0  0  0  0  0  0
  -30.5566  -16.9066   21.9113 C   0  0  0  0  0  0  0  0  0  0  0  0
  -22.2269   -8.1883   21.5291 C   0  0  0  0  0  0  0  0  0  0  0  0
  -31.1195  -22.1665   19.4667 C   0  0  0  0  0  0  0  0  0  0  0  0
  -22.0735   -6.0716   22.5382 C   0  0  0  0  0  0  0  0  0  0  0  0
  -23.2599   -4.0445   24.0436 C   0  0  0  0  0  0  0  0  0  0  0  0
  -21.5070   -5.6814   23.7517 C   0  0  0  0  0  0  0  0  0  0  0  0
  -24.5324  -11.6424   20.7218 C   0  0  0  0  0  0  0  0  0  0  0  0
  -25.2228  -13.7130   20.4557 C   0  0  0  0  0  0  0  0  0  0  0  0
  -22.8459  -13.5229   21.2056 C   0  0  0  0  0  0  0  0  0  0  0  0
  -31.6835  -27.4002   18.1422 C   0  0  0  0  0  0  0  0  0  0  0  0
  -28.6760  -27.3109   16.9301 C   0  0  0  0  0  0  0  0  0  0  0  0
  -25.8424  -25.5026   16.3406 C   0  0  0  0  0  0  0  0  0  0  0  0
  -30.6964  -14.7067   20.6919 C   0  0  0  0  0  0  0  0  0  0  0  0
  -32.2079  -32.4742   18.3352 C   0  0  0  0  0  0  0  0  0  0  0  0
  -31.7972  -25.3615   16.6634 C   0  0  0  0  0  0  0  0  0  0  0  0
  -29.3751  -25.3532   18.3599 C   0  0  0  0  0  0  0  0  0  0  0  0
  -31.1195  -31.4738   18.7159 C   0  0  0  0  0  0  0  0  0  0  0  0
  -29.5938  -12.2465   18.3662 C   0  0  0  0  0  0  0  0  0  0  0  0
  -31.7067  -30.3355   19.5442 C   0  0  0  0  0  0  0  0  0  0  0  0
  -28.1445  -11.9804   18.7798 C   0  0  0  0  0  0  0  0  0  0  0  0
  -30.4923  -12.4956   19.5763 C   0  0  0  0  0  0  0  0  0  0  0  0
  -28.5717  -13.2735   20.9087 C   0  0  0  0  0  0  0  0  0  0  0  0
  -32.7617  -29.5598   18.7461 C   0  0  1  0  0  0  0  0  0  0  0  0
  -31.0518  -26.6479   17.0053 C   0  0  1  0  0  0  0  0  0  0  0  0
  -27.6157  -13.0811   19.7202 C   0  0  2  0  0  0  0  0  0  0  0  0
  -32.1067  -20.6654   23.2587 C   0  0  0  0  0  0  0  0  0  0  0  0
  -30.2475  -16.1721   24.3004 C   0  0  0  0  0  0  0  0  0  0  0  0
  -30.8408  -17.5781   19.5121 C   0  0  0  0  0  0  0  0  0  0  0  0
  -23.5388  -25.7118   15.3676 C   0  0  0  0  0  0  0  0  0  0  0  0
  -27.7598  -28.8061   19.4271 C   0  0  0  0  0  0  0  0  0  0  0  0
  -25.4078  -28.1533   18.8701 C   0  0  0  0  0  0  0  0  0  0  0  0
  -26.7075  -29.5887   17.2976 C   0  0  0  0  0  0  0  0  0  0  0  0
  -26.3993  -23.4497   14.2828 C   0  0  0  0  0  0  0  0  0  0  0  0
  -31.8887  -20.1212   20.4054 C   0  0  0  0  0  0  0  0  0  1  0  0
  -27.2936  -27.1387   17.5118 C   0  0  1  0  0  0  0  0  0  0  0  0
  -24.9892  -25.3446   15.0950 C   0  0  2  0  0  0  0  0  0  0  0  0
  -26.8123  -28.4019   18.2800 C   0  0  0  0  0  0  0  0  0  0  0  0
  -25.8026  -11.5233   20.3263 N   0  0  0  0  0  0  0  0  0  0  0  0
  -26.1951  -12.7994   20.1724 N   0  0  0  0  0  0  0  0  0  0  0  0
  -29.6547  -26.4106   17.3743 N   0  0  0  0  0  0  0  0  0  0  0  0
  -29.9306  -13.5535   20.4191 N   0  0  0  0  0  0  0  0  0  0  0  0
  -25.4485  -15.0400   20.3534 N   0  0  0  0  0  0  0  0  0  0  0  0
  -21.8192  -12.6328   21.5490 N   0  0  0  0  0  0  0  0  0  0  0  0
  -30.0461  -15.6582   21.4769 N   0  0  0  0  0  0  0  0  0  0  0  0
  -32.1252  -28.6650   17.8034 N   0  0  0  0  0  0  0  0  0  0  0  0
  -26.4298  -26.7485   16.4027 N   0  0  0  0  0  0  0  0  0  0  0  0
  -25.0344  -23.9357   14.6114 N   0  3  0  0  0  0  0  0  0  0  0  0
  -22.6218  -14.7569   21.2289 O   0  0  0  0  0  0  0  0  0  0  0  0
  -31.7630  -26.8728   19.2455 O   0  0  0  0  0  0  0  0  0  0  0  0
  -28.8783  -28.2066   16.1064 O   0  0  0  0  0  0  0  0  0  0  0  0
  -25.9717  -24.6112   17.1769 O   0  0  0  0  0  0  0  0  0  0  0  0
  -31.8344  -14.8522   20.2384 O   0  0  0  0  0  0  0  0  0  0  0  0
  -21.4853   -7.0770   21.7894 O   0  0  0  0  0  0  0  0  0  0  0  0
  -30.9043  -21.1528   20.3487 O   0  0  0  0  0  0  0  0  0  1  0  0
  -23.8288   -3.0702   24.7655 F   0  0  0  0  0  0  0  0  0  0  0  0
  -20.3924   -6.2758   24.1991 F   0  0  0  0  0  0  0  0  0  0  0  0
  1  2  1  0  0  0  0
  1  5  2  0  0  0  0
  2  6  2  0  0  0  0
  3  8  2  0  0  0  0
  3 16  1  0  0  0  0
  4  9  1  0  0  0  0
  4 16  2  0  0  0  0
  5 18  1  0  0  0  0
  6 20  1  0  0  0  0
  7 10  2  0  0  0  0
  7 19  1  0  0  0  0
  8 27  1  0  0  0  0
  9 27  2  0  0  0  0
 10 28  1  0  0  0  0
 11 12  2  0  0  0  0
 11 29  1  0  0  0  0
 12 30  1  0  0  0  0
 13 21  1  0  0  0  0
 13 28  2  0  0  0  0
 14 22  2  0  0  0  0
 14 23  1  0  0  0  0
 15 30  2  0  0  0  0
 15 31  1  0  0  0  0
 16 32  1  0  0  0  0
 17 32  1  0  0  0  0
 17 33  2  0  0  0  0
 17 34  1  0  0  0  0
 18 20  2  0  0  0  0
 18 39  1  0  0  0  0
 19 21  2  0  0  0  0
 19 40  1  0  0  0  0
 20 48  1  0  0  0  0
 21 41  1  0  0  0  0
 22 24  1  0  0  0  0
 22 51  1  0  0  0  0
 23 26  2  0  0  0  0
 23 52  1  0  0  0  0
 24 25  2  0  0  0  0
 24 59  1  0  0  0  0
 25 26  1  0  0  0  0
 25 53  1  0  0  0  0
 26 69  1  0  0  0  0
 27 78  1  0  0  0  0
 28 79  1  0  0  0  0
 29 31  2  0  0  0  0
 29 78  1  0  0  0  0
 30 80  1  0  0  0  0
 31 81  1  0  0  0  0
 32 63  2  0  0  0  0
 33 64  1  0  0  0  0
 33 67  1  0  0  0  0
 34 68  1  0  0  0  0
 34 73  2  0  0  0  0
 35 49  1  0  0  0  0
 35 70  1  0  0  0  0
 35 74  2  0  0  0  0
 36 60  1  0  0  0  0
 36 65  1  0  0  0  0
 36 75  2  0  0  0  0
 37 61  1  0  0  0  0
 37 71  1  0  0  0  0
 37 76  2  0  0  0  0
 38 66  1  0  0  0  0
 38 69  1  0  0  0  0
 38 77  2  0  0  0  0
 39 42  1  0  0  0  0
 40 49  1  0  0  0  0
 41 65  1  0  0  0  0
 42 44  1  0  0  0  0
 43 45  1  0  0  0  0
 43 46  1  0  0  0  0
 44 48  1  0  0  0  0
 45 50  1  0  0  0  0
 46 66  1  0  0  0  0
 47 50  1  0  0  0  0
 47 66  1  0  0  0  0
 48 70  1  0  0  0  0
 49 65  1  0  0  0  0
 50 64  1  0  0  0  0
 54 61  1  0  0  0  0
 55 62  1  0  0  0  0
 56 62  1  0  0  0  0
 57 62  1  0  0  0  0
 58 72  1  0  0  0  0
 59 79  1  0  0  0  0
 60 62  1  0  0  0  0
 60 71  1  0  0  0  0
 61 72  1  0  0  0  0
 63 64  1  0  0  0  0
M  CHG  1  72   1
M  ISO  4  38 100  59 101  69 100  79 101
M  END
> <Batch ID>
0018

> <Smiles>
CNC(C)C(=O)NC(C(=O)N1Cc2cc([101O:1][101CH2:1]c3c(C)cc(C)c([100NH:0][100C:0](=O)N4CCCC(n5nc(-c6ccc(Oc7ccc(F)cc7F)cc6)c(C(N)=O)c5N)C4)c3C)ccc2CC1C(=O)NC1CCCc2ccccc21)C(C)(C)C

> <Shape>
0.247

> <Color>
0.208

> <Negative vol penalty>
0.000

$$$$

  -OEChem-04052316043D

 86 94  0     1  0  0  0  0  0999 V2000
  -17.8094  -31.9834   20.9517 C   0  0  0  0  0  0  0  0  0  0  0  0
  -19.1648  -31.6872   21.0548 C   0  0  0  0  0  0  0  0  0  0  0  0
  -22.9076  -10.1491   19.9555 C   0  0  0  0  0  0  0  0  0  0  0  0
  -23.8979   -9.7784   22.1278 C   0  0  0  0  0  0  0  0  0  0  0  0
  -16.8628  -31.1014   21.4710 C   0  0  0  0  0  0  0  0  0  0  0  0
  -19.5744  -30.5092   21.6784 C   0  0  0  0  0  0  0  0  0  0  0  0
  -24.4038  -27.0467   20.1973 C   0  0  0  0  0  0  0  0  0  0  0  0
  -22.1240   -9.0066   20.1177 C   0  0  0  0  0  0  0  0  0  0  0  0
  -23.1142   -8.6360   22.2901 C   0  0  0  0  0  0  0  0  0  0  0  0
  -25.6921  -26.9597   20.7230 C   0  0  0  0  0  0  0  0  0  0  0  0
  -19.9221   -7.9049   23.1248 C   0  0  0  0  0  0  0  0  0  0  0  0
  -19.2883   -7.7249   24.3542 C   0  0  0  0  0  0  0  0  0  0  0  0
  -25.0027  -25.0939   22.0879 C   0  0  0  0  0  0  0  0  0  0  0  0
  -31.4773  -17.3832   20.8141 C   0  0  0  0  0  0  0  0  0  0  0  0
  -20.4776   -5.6446   24.6626 C   0  0  0  0  0  0  0  0  0  0  0  0
  -23.7946  -10.5350   20.9605 C   0  0  0  0  0  0  0  0  0  0  0  0
  -24.2765  -13.0315   21.1678 C   0  0  0  0  0  0  0  0  0  0  0  0
  -17.2606  -29.9073   22.0927 C   0  0  0  0  0  0  0  0  0  0  0  0
  -23.4007  -26.1634   20.6217 C   0  0  0  0  0  0  0  0  0  0  0  0
  -18.6322  -29.6109   22.2077 C   0  0  0  0  0  0  0  0  0  0  0  0
  -23.7031  -25.1702   21.5641 C   0  0  0  0  0  0  0  0  0  0  0  0
  -31.7541  -18.7413   20.9706 C   0  0  0  0  0  0  0  0  0  0  0  0
  -31.1867  -19.4513   22.0286 C   0  0  0  0  0  0  0  0  0  0  0  0
  -30.3424  -18.8033   22.9302 C   0  0  0  0  0  0  0  0  0  0  0  0
  -30.6330  -16.7351   21.7157 C   0  0  0  0  0  0  0  0  0  0  0  0
  -22.2273   -8.2501   21.2850 C   0  0  0  0  0  0  0  0  0  0  0  0
  -25.9910  -25.9851   21.6706 C   0  0  0  0  0  0  0  0  0  0  0  0
  -20.8336   -6.9548   22.6642 C   0  0  0  0  0  0  0  0  0  0  0  0
  -19.5661   -6.5947   25.1231 C   0  0  0  0  0  0  0  0  0  0  0  0
  -21.1114   -5.8246   23.4331 C   0  0  0  0  0  0  0  0  0  0  0  0
  -30.0655  -17.4451   22.7737 C   0  0  0  0  0  0  0  0  0  0  0  0
  -24.6047  -11.7147   20.7933 C   0  0  0  0  0  0  0  0  0  0  0  0
  -25.3695  -13.7763   20.7976 C   0  0  0  0  0  0  0  0  0  0  0  0
  -23.0898  -13.5362   21.7944 C   0  0  0  0  0  0  0  0  0  0  0  0
  -20.6029  -26.4874   22.0952 C   0  0  0  0  0  0  0  0  0  0  0  0
  -20.3633  -23.3073   21.5019 C   0  0  0  0  0  0  0  0  0  0  0  0
  -21.9465  -20.3495   20.8759 C   0  0  0  0  0  0  0  0  0  0  0  0
  -30.8786  -14.5339   20.5154 C   0  0  0  0  0  0  0  0  0  0  0  0
  -16.2026  -29.0076   22.6810 C   0  0  0  0  0  0  0  0  0  0  0  0
  -22.0229  -26.2532   20.0252 C   0  0  0  0  0  0  0  0  0  0  0  0
  -22.6672  -24.1848   22.0379 C   0  0  0  0  0  0  0  0  0  0  0  0
  -16.7048  -27.6005   22.9939 C   0  0  0  0  0  0  0  0  0  0  0  0
  -29.3810  -12.5546   17.9625 C   0  0  0  0  0  0  0  0  0  0  0  0
  -18.0431  -27.6613   23.7235 C   0  0  0  0  0  0  0  0  0  0  0  0
  -27.9779  -12.2680   18.5022 C   0  0  0  0  0  0  0  0  0  0  0  0
  -30.4269  -12.5593   19.0760 C   0  0  0  0  0  0  0  0  0  0  0  0
  -28.7199  -13.1551   20.7493 C   0  0  0  0  0  0  0  0  0  0  0  0
  -19.1149  -28.3311   22.8551 C   0  0  1  0  0  0  0  0  0  0  0  0
  -20.9470  -25.6307   20.9097 C   0  0  1  0  0  0  0  0  0  0  0  0
  -27.6225  -13.2045   19.6737 C   0  0  2  0  0  0  0  0  0  0  0  0
  -32.6610  -19.4117   19.9907 C   0  0  0  0  0  0  0  0  0  0  0  0
  -29.7418  -19.5841   24.0584 C   0  0  0  0  0  0  0  0  0  0  0  0
  -21.4865  -17.9157   20.4732 C   0  0  0  0  0  0  0  0  0  0  0  0
  -19.8191  -22.9200   24.4791 C   0  0  0  0  0  0  0  0  0  0  0  0
  -20.3119  -20.4835   24.1811 C   0  0  0  0  0  0  0  0  0  0  0  0
  -18.3965  -21.5242   22.9684 C   0  0  0  0  0  0  0  0  0  0  0  0
  -23.1731  -20.4439   18.1842 C   0  0  0  0  0  0  0  0  0  0  0  0
  -31.4852  -20.9126   22.1915 C   0  0  0  0  0  0  0  0  0  0  0  0
  -29.3539  -24.0127   21.5689 C   0  0  0  0  0  0  0  0  0  0  0  0
  -29.5705  -25.5164   21.7211 C   0  0  0  0  0  0  0  0  0  0  0  0
  -30.5925  -23.2368   21.9914 C   0  0  0  0  0  0  0  0  0  0  0  0
  -28.3247  -26.3050   21.3427 C   0  0  0  0  0  0  0  0  0  1  0  0
  -20.7590  -22.0498   22.2374 C   0  0  1  0  0  0  0  0  0  0  0  0
  -21.7006  -19.2770   19.8301 C   0  0  2  0  0  0  0  0  0  0  0  0
  -19.8409  -21.7640   23.4592 C   0  0  0  0  0  0  0  0  0  0  0  0
  -25.8117  -11.6250   20.2283 N   0  0  0  0  0  0  0  0  0  0  0  0
  -26.2515  -12.8948   20.2450 N   0  0  0  0  0  0  0  0  0  0  0  0
  -21.3330  -24.3174   21.4297 N   0  0  0  0  0  0  0  0  0  0  0  0
  -30.0252  -13.4717   20.1488 N   0  0  0  0  0  0  0  0  0  0  0  0
  -25.6526  -15.0927   20.8940 N   0  0  0  0  0  0  0  0  0  0  0  0
  -22.0640  -12.6338   22.1072 N   0  0  0  0  0  0  0  0  0  0  0  0
  -30.3766  -15.3547   21.5248 N   0  0  0  0  0  0  0  0  0  0  0  0
  -19.6019  -27.4084   21.8521 N   0  0  0  0  0  0  0  0  0  0  0  0
  -20.7779  -20.9835   21.2419 N   0  0  0  0  0  0  0  0  0  0  0  0
  -22.8636  -19.1812   18.9031 N   0  3  0  0  0  0  0  0  0  0  0  0
  -30.3523  -21.7883   21.7843 N   0  3  0  0  0  0  0  0  0  0  0  0
  -22.9366  -14.7538   22.0539 O   0  0  0  0  0  0  0  0  0  0  0  0
  -21.2003  -26.3238   23.1526 O   0  0  0  0  0  0  0  0  0  0  0  0
  -19.2378  -23.3876   21.0034 O   0  0  0  0  0  0  0  0  0  0  0  0
  -23.0629  -20.5974   21.3262 O   0  0  0  0  0  0  0  0  0  0  0  0
  -31.9619  -14.7190   19.9550 O   0  0  0  0  0  0  0  0  0  0  0  0
  -21.4626   -7.1354   21.4438 O   0  0  0  0  0  0  0  0  0  0  0  0
  -27.2475  -25.8984   22.1858 O   0  0  0  0  0  0  0  0  0  1  0  0
  -18.9585   -6.4227   26.3044 F   0  0  0  0  0  0  0  0  0  0  0  0
  -21.9870   -4.9089   22.9965 F   0  0  0  0  0  0  0  0  0  0  0  0
  -29.0165  -16.6406   23.8965 Cl  0  0  0  0  0  0  0  0  0  0  0  0
  1  2  1  0  0  0  0
  1  5  2  0  0  0  0
  2  6  2  0  0  0  0
  3  8  2  0  0  0  0
  3 16  1  0  0  0  0
  4  9  1  0  0  0  0
  4 16  2  0  0  0  0
  5 18  1  0  0  0  0
  6 20  1  0  0  0  0
  7 10  2  0  0  0  0
  7 19  1  0  0  0  0
  8 26  1  0  0  0  0
  9 26  2  0  0  0  0
 10 27  1  0  0  0  0
 11 12  2  0  0  0  0
 11 28  1  0  0  0  0
 12 29  1  0  0  0  0
 13 21  1  0  0  0  0
 13 27  2  0  0  0  0
 14 22  2  0  0  0  0
 14 25  1  0  0  0  0
 15 29  2  0  0  0  0
 15 30  1  0  0  0  0
 16 32  1  0  0  0  0
 17 32  1  0  0  0  0
 17 33  2  0  0  0  0
 17 34  1  0  0  0  0
 18 20  2  0  0  0  0
 18 39  1  0  0  0  0
 19 21  2  0  0  0  0
 19 40  1  0  0  0  0
 20 48  1  0  0  0  0
 21 41  1  0  0  0  0
 22 23  1  0  0  0  0
 22 51  1  0  0  0  0
 23 24  2  0  0  0  0
 23 58  1  0  0  0  0
 24 31  1  0  0  0  0
 24 52  1  0  0  0  0
 25 31  2  0  0  0  0
 25 72  1  0  0  0  0
 26 82  1  0  0  0  0
 27 83  1  0  0  0  0
 28 30  2  0  0  0  0
 28 82  1  0  0  0  0
 29 84  1  0  0  0  0
 30 85  1  0  0  0  0
 31 86  1  0  0  0  0
 32 66  2  0  0  0  0
 33 67  1  0  0  0  0
 33 70  1  0  0  0  0
 34 71  1  0  0  0  0
 34 77  2  0  0  0  0
 35 49  1  0  0  0  0
 35 73  1  0  0  0  0
 35 78  2  0  0  0  0
 36 63  1  0  0  0  0
 36 68  1  0  0  0  0
 36 79  2  0  0  0  0
 37 64  1  0  0  0  0
 37 74  1  0  0  0  0
 37 80  2  0  0  0  0
 38 69  1  0  0  0  0
 38 72  1  0  0  0  0
 38 81  2  0  0  0  0
 39 42  1  0  0  0  0
 40 49  1  0  0  0  0
 41 68  1  0  0  0  0
 42 44  1  0  0  0  0
 43 45  1  0  0  0  0
 43 46  1  0  0  0  0
 44 48  1  0  0  0  0
 45 50  1  0  0  0  0
 46 69  1  0  0  0  0
 47 50  1  0  0  0  0
 47 69  1  0  0  0  0
 48 73  1  0  0  0  0
 49 68  1  0  0  0  0
 50 67  1  0  0  0  0
 53 64  1  0  0  0  0
 54 65  1  0  0  0  0
 55 65  1  0  0  0  0
 56 65  1  0  0  0  0
 57 75  1  0  0  0  0
 58 76  1  0  0  0  0
 59 60  1  0  0  0  0
 59 61  1  0  0  0  0
 60 62  1  0  0  0  0
 61 76  1  0  0  0  0
 62 83  1  0  0  0  0
 63 65  1  0  0  0  0
 63 74  1  0  0  0  0
 64 75  1  0  0  0  0
 66 67  1  0  0  0  0
M  CHG  2  75   1  76   1
M  ISO  4  38 100  62 101  72 100  83 101
M  END
> <Batch ID>
0018

> <Smiles>
CNC(C)C(=O)NC(C(=O)N1Cc2cc([101O:1][101CH2:1]CCCNCc3c(C)cc([100NH:0][100C:0](=O)N4CCCC(n5nc(-c6ccc(Oc7ccc(F)cc7F)cc6)c(C(N)=O)c5N)C4)c(Cl)c3C)ccc2CC1C(=O)NC1CCCc2ccccc21)C(C)(C)C

> <Shape>
0.259

> <Color>
0.180

> <Negative vol penalty>
0.000

$$$$

  -OEChem-04052316043D

 92100  0     1  0  0  0  0  0999 V2000
  -27.6979  -36.1080   16.6879 C   0  0  0  0  0  0  0  0  0  0  0  0
  -27.6228  -34.7258   16.5488 C   0  0  0  0  0  0  0  0  0  0  0  0
  -24.7652   -8.8469   21.7361 C   0  0  0  0  0  0  0  0  0  0  0  0
  -23.1566  -10.0840   20.4249 C   0  0  0  0  0  0  0  0  0  0  0  0
  -27.8178  -36.6743   17.9563 C   0  0  0  0  0  0  0  0  0  0  0  0
  -27.6686  -33.9090   17.6780 C   0  0  0  0  0  0  0  0  0  0  0  0
  -24.7003  -28.6185   18.5180 C   0  0  0  0  0  0  0  0  0  0  0  0
  -23.7296   -8.3135   22.5033 C   0  0  0  0  0  0  0  0  0  0  0  0
  -22.1210   -9.5505   21.1921 C   0  0  0  0  0  0  0  0  0  0  0  0
  -25.0985  -27.2887   18.3883 C   0  0  0  0  0  0  0  0  0  0  0  0
  -21.4827   -6.3458   24.5757 C   0  0  0  0  0  0  0  0  0  0  0  0
  -21.5188   -4.9793   24.8533 C   0  0  0  0  0  0  0  0  0  0  0  0
  -24.3655  -18.9556   17.1062 C   0  0  0  0  0  0  0  0  0  0  0  0
  -25.5526  -27.2001   20.7558 C   0  0  0  0  0  0  0  0  0  0  0  0
  -27.1090  -18.5549   17.4152 C   0  0  0  0  0  0  0  0  0  0  0  0
  -21.4529   -4.4968   22.4869 C   0  0  0  0  0  0  0  0  0  0  0  0
  -24.4787   -9.7322   20.6969 C   0  0  0  0  0  0  0  0  0  0  0  0
  -25.2695  -19.8584   16.5465 C   0  0  0  0  0  0  0  0  0  0  0  0
  -26.0962   -9.7465   18.7243 C   0  0  0  0  0  0  0  0  0  0  0  0
  -27.8555  -35.8645   19.1024 C   0  0  0  0  0  0  0  0  0  0  0  0
  -24.7357  -29.2535   19.7678 C   0  0  0  0  0  0  0  0  0  0  0  0
  -27.7905  -34.4649   18.9629 C   0  0  0  0  0  0  0  0  0  0  0  0
  -25.1519  -28.5373   20.8991 C   0  0  0  0  0  0  0  0  0  0  0  0
  -24.8332  -17.8525   17.8205 C   0  0  0  0  0  0  0  0  0  0  0  0
  -26.2049  -17.6522   17.9749 C   0  0  0  0  0  0  0  0  0  0  0  0
  -22.4075   -8.6653   22.2313 C   0  0  0  0  0  0  0  0  0  0  0  0
  -25.5275  -26.5802   19.5068 C   0  0  0  0  0  0  0  0  0  0  0  0
  -21.4317   -6.7878   23.2537 C   0  0  0  0  0  0  0  0  0  0  0  0
  -21.5039   -4.0548   23.8090 C   0  0  0  0  0  0  0  0  0  0  0  0
  -21.4168   -5.8633   22.2093 C   0  0  0  0  0  0  0  0  0  0  0  0
  -26.6413  -19.6580   16.7009 C   0  0  0  0  0  0  0  0  0  0  0  0
  -25.5480  -10.2840   19.9043 C   0  0  0  0  0  0  0  0  0  0  0  0
  -27.0757  -10.6391   18.3632 C   0  0  0  0  0  0  0  0  0  0  0  0
  -24.7304  -21.0075   15.8021 C   0  0  0  0  0  0  0  0  0  0  0  0
  -25.7509   -8.5477   18.0178 C   0  0  0  0  0  0  0  0  0  0  0  0
  -26.2905  -31.7508   20.9719 C   0  0  0  0  0  0  0  0  0  0  0  0
  -24.3994  -31.1921   23.5476 C   0  0  0  0  0  0  0  0  0  0  0  0
  -22.5186  -28.9748   25.3344 C   0  0  0  0  0  0  0  0  0  0  0  0
  -27.8851  -16.4630   19.4272 C   0  0  0  0  0  0  0  0  0  0  0  0
  -28.0335  -36.5201   20.4489 C   0  0  0  0  0  0  0  0  0  0  0  0
  -24.2775  -30.6804   19.8956 C   0  0  0  0  0  0  0  0  0  0  0  0
  -25.1892  -29.1669   22.2669 C   0  0  0  0  0  0  0  0  0  0  0  0
  -27.6979  -35.6028   21.6221 C   0  0  0  0  0  0  0  0  0  0  0  0
  -30.1238  -13.8178   20.2446 C   0  0  0  0  0  0  0  0  0  0  0  0
  -28.3419  -34.2334   21.4303 C   0  0  0  0  0  0  0  0  0  0  0  0
  -29.2559  -12.5619   20.1368 C   0  0  0  0  0  0  0  0  0  0  0  0
  -29.3414  -15.0010   20.8117 C   0  0  0  0  0  0  0  0  0  0  0  0
  -27.2161  -14.0485   20.0086 C   0  0  0  0  0  0  0  0  0  0  0  0
  -27.8120  -33.5468   20.1656 C   0  0  1  0  0  0  0  0  0  0  0  0
  -24.8424  -31.3813   21.1273 C   0  0  1  0  0  0  0  0  0  0  0  0
  -27.9429  -12.8474   19.3817 C   0  0  2  0  0  0  0  0  0  0  0  0
  -23.8425  -16.9026   18.4115 C   0  0  0  0  0  0  0  0  0  0  0  0
  -20.2544  -22.6849   17.3333 C   0  0  0  0  0  0  0  0  0  0  0  0
  -23.3215  -23.8762   15.1874 C   0  0  0  0  0  0  0  0  0  0  0  0
  -21.1261  -28.8006   27.4148 C   0  0  0  0  0  0  0  0  0  0  0  0
  -26.9387  -31.1124   25.2375 C   0  0  0  0  0  0  0  0  0  0  0  0
  -25.6105  -30.0184   27.0562 C   0  0  0  0  0  0  0  0  0  0  0  0
  -25.0198  -32.3190   26.2941 C   0  0  0  0  0  0  0  0  0  0  0  0
  -24.7917  -22.9629   20.2544 C   0  0  0  0  0  0  0  0  0  0  0  0
  -26.5773  -22.3789   18.6004 C   0  0  0  0  0  0  0  0  0  0  0  0
  -20.0909  -28.2803   23.7908 C   0  0  0  0  0  0  0  0  0  0  0  0
  -21.6533  -22.1127   17.1606 C   0  0  0  0  0  0  0  0  0  0  0  0
  -22.6768  -22.8681   18.0190 C   0  0  0  0  0  0  0  0  0  0  0  0
  -24.6132  -23.4693   15.8108 C   0  0  0  0  0  0  0  0  0  0  0  0
  -25.2988  -24.5125   18.3542 C   0  0  0  0  0  0  0  0  0  1  0  0
  -24.5127  -30.3480   24.7940 C   0  0  1  0  0  0  0  0  0  0  0  0
  -21.1221  -29.0810   25.9201 C   0  0  2  0  0  0  0  0  0  0  0  0
  -24.0959  -22.2717   17.9078 C   0  0  2  0  0  0  0  0  0  0  0  0
  -25.5217  -30.9379   25.8195 C   0  0  0  0  0  0  0  0  0  0  0  0
  -25.1842  -23.0207   18.7578 C   0  0  0  0  0  0  0  0  0  0  0  0
  -26.1309  -11.4292   20.2687 N   0  0  0  0  0  0  0  0  0  0  0  0
  -27.0557  -11.6186   19.3121 N   0  0  0  0  0  0  0  0  0  0  0  0
  -24.7374  -30.5662   22.3393 N   0  0  0  0  0  0  0  0  0  0  0  0
  -28.1127  -15.2145   20.0439 N   0  0  0  0  0  0  0  0  0  0  0  0
  -27.9437  -10.6738   17.3298 N   0  0  0  0  0  0  0  0  0  0  0  0
  -24.7204   -7.7456   18.5266 N   0  0  0  0  0  0  0  0  0  0  0  0
  -26.6992  -16.5380   18.6974 N   0  0  0  0  0  0  0  0  0  0  0  0
  -26.4961  -32.9938   20.4044 N   0  0  0  0  0  0  0  0  0  0  0  0
  -23.1563  -30.1971   25.3095 N   0  0  0  0  0  0  0  0  0  0  0  0
  -24.4816  -22.1943   16.5114 N   0  0  0  0  0  0  0  0  0  0  0  0
  -20.2085  -28.1052   25.2613 N   0  3  0  0  0  0  0  0  0  0  0  0
  -24.5489  -20.8387   14.5968 O   0  0  0  0  0  0  0  0  0  0  0  0
  -26.3498   -8.1897   16.9753 O   0  0  0  0  0  0  0  0  0  0  0  0
  -27.1570  -30.9668   21.3408 O   0  0  0  0  0  0  0  0  0  0  0  0
  -24.0180  -32.3614   23.6416 O   0  0  0  0  0  0  0  0  0  0  0  0
  -22.9973  -27.9130   24.9420 O   0  0  0  0  0  0  0  0  0  0  0  0
  -28.6965  -17.3881   19.5159 O   0  0  0  0  0  0  0  0  0  0  0  0
  -21.3967   -8.1448   22.9797 O   0  0  0  0  0  0  0  0  0  0  0  0
  -25.9201  -25.2730   19.3819 O   0  0  0  0  0  0  0  0  0  1  0  0
  -21.5401   -2.7427   24.0757 F   0  0  0  0  0  0  0  0  0  0  0  0
  -21.3690   -6.2819   20.9372 F   0  0  0  0  0  0  0  0  0  0  0  0
  -27.7936  -20.7523   16.0246 Cl  0  0  0  0  0  0  0  0  0  0  0  0
  1  2  1  0  0  0  0
  1  5  2  0  0  0  0
  2  6  2  0  0  0  0
  3  8  2  0  0  0  0
  3 17  1  0  0  0  0
  4  9  1  0  0  0  0
  4 17  2  0  0  0  0
  5 20  1  0  0  0  0
  6 22  1  0  0  0  0
  7 10  2  0  0  0  0
  7 21  1  0  0  0  0
  8 26  1  0  0  0  0
  9 26  2  0  0  0  0
 10 27  1  0  0  0  0
 11 12  2  0  0  0  0
 11 28  1  0  0  0  0
 12 29  1  0  0  0  0
 13 18  1  0  0  0  0
 13 24  2  0  0  0  0
 14 23  1  0  0  0  0
 14 27  2  0  0  0  0
 15 25  2  0  0  0  0
 15 31  1  0  0  0  0
 16 29  2  0  0  0  0
 16 30  1  0  0  0  0
 17 32  1  0  0  0  0
 18 31  2  0  0  0  0
 18 34  1  0  0  0  0
 19 32  1  0  0  0  0
 19 33  2  0  0  0  0
 19 35  1  0  0  0  0
 20 22  2  0  0  0  0
 20 40  1  0  0  0  0
 21 23  2  0  0  0  0
 21 41  1  0  0  0  0
 22 49  1  0  0  0  0
 23 42  1  0  0  0  0
 24 25  1  0  0  0  0
 24 52  1  0  0  0  0
 25 77  1  0  0  0  0
 26 88  1  0  0  0  0
 27 89  1  0  0  0  0
 28 30  2  0  0  0  0
 28 88  1  0  0  0  0
 29 90  1  0  0  0  0
 30 91  1  0  0  0  0
 31 92  1  0  0  0  0
 32 71  2  0  0  0  0
 33 72  1  0  0  0  0
 33 75  1  0  0  0  0
 34 80  1  0  0  0  0
 34 82  2  0  0  0  0
 35 76  1  0  0  0  0
 35 83  2  0  0  0  0
 36 50  1  0  0  0  0
 36 78  1  0  0  0  0
 36 84  2  0  0  0  0
 37 66  1  0  0  0  0
 37 73  1  0  0  0  0
 37 85  2  0  0  0  0
 38 67  1  0  0  0  0
 38 79  1  0  0  0  0
 38 86  2  0  0  0  0
 39 74  1  0  0  0  0
 39 77  1  0  0  0  0
 39 87  2  0  0  0  0
 40 43  1  0  0  0  0
 41 50  1  0  0  0  0
 42 73  1  0  0  0  0
 43 45  1  0  0  0  0
 44 46  1  0  0  0  0
 44 47  1  0  0  0  0
 45 49  1  0  0  0  0
 46 51  1  0  0  0  0
 47 74  1  0  0  0  0
 48 51  1  0  0  0  0
 48 74  1  0  0  0  0
 49 78  1  0  0  0  0
 50 73  1  0  0  0  0
 51 72  1  0  0  0  0
 53 62  1  0  0  0  0
 54 64  1  0  0  0  0
 55 67  1  0  0  0  0
 56 69  1  0  0  0  0
 57 69  1  0  0  0  0
 58 69  1  0  0  0  0
 59 70  1  0  0  0  0
 60 70  1  0  0  0  0
 61 81  1  0  0  0  0
 62 63  1  0  0  0  0
 63 68  1  0  0  0  0
 64 80  1  0  0  0  0
 65 70  1  0  0  0  0
 65 89  1  0  0  0  0
 66 69  1  0  0  0  0
 66 79  1  0  0  0  0
 67 81  1  0  0  0  0
 68 70  1  0  0  0  0
 68 80  1  0  0  0  0
 71 72  1  0  0  0  0
M  CHG  1  81   1
M  ISO  4  39 100  65 101  77 100  89 101
M  END
> <Batch ID>
0018

> <Smiles>
CCCC(N(CC)C(=O)c1cc(C)c([100NH:0][100C:0](=O)N2CCCC(n3nc(-c4ccc(Oc5ccc(F)cc5F)cc4)c(C(N)=O)c3N)C2)cc1Cl)C(C)(C)[101CH2:1][101O:1]c1ccc2c(c1)CN(C(=O)C(NC(=O)C(C)NC)C(C)(C)C)C(C(=O)NC1CCCc3ccccc31)C2

> <Shape>
0.231

> <Color>
0.099

> <Negative vol penalty>
0.000

$$$$

  -OEChem-04052316043D

 83 91  0     1  0  0  0  0  0999 V2000
  -15.2490  -22.2360   22.7591 C   0  0  0  0  0  0  0  0  0  0  0  0
  -16.5852  -22.6089   22.8646 C   0  0  0  0  0  0  0  0  0  0  0  0
  -23.0720   -9.8703   19.9420 C   0  0  0  0  0  0  0  0  0  0  0  0
  -23.8347   -9.8771   22.2344 C   0  0  0  0  0  0  0  0  0  0  0  0
  -14.9111  -21.0157   22.1755 C   0  0  0  0  0  0  0  0  0  0  0  0
  -17.5842  -21.7612   22.3875 C   0  0  0  0  0  0  0  0  0  0  0  0
  -24.0751  -21.9307   19.3615 C   0  0  0  0  0  0  0  0  0  0  0  0
  -22.3287   -8.7170   20.1926 C   0  0  0  0  0  0  0  0  0  0  0  0
  -23.0913   -8.7238   22.4851 C   0  0  0  0  0  0  0  0  0  0  0  0
  -25.3558  -21.4061   19.5296 C   0  0  0  0  0  0  0  0  0  0  0  0
  -19.9443   -5.9761   20.3234 C   0  0  0  0  0  0  0  0  0  0  0  0
  -18.6380   -5.9279   19.8367 C   0  0  0  0  0  0  0  0  0  0  0  0
  -24.6496  -19.3579   18.4687 C   0  0  0  0  0  0  0  0  0  0  0  0
  -31.4204  -19.3881   19.1255 C   0  0  0  0  0  0  0  0  0  0  0  0
  -18.0740   -7.8705   21.1579 C   0  0  0  0  0  0  0  0  0  0  0  0
  -23.8251  -10.4504   20.9629 C   0  0  0  0  0  0  0  0  0  0  0  0
  -24.1663  -12.9756   20.8428 C   0  0  0  0  0  0  0  0  0  0  0  0
  -15.9060  -20.1569   21.6823 C   0  0  0  0  0  0  0  0  0  0  0  0
  -23.0673  -21.1675   18.7546 C   0  0  0  0  0  0  0  0  0  0  0  0
  -17.2593  -20.5276   21.7980 C   0  0  0  0  0  0  0  0  0  0  0  0
  -23.3576  -19.8761   18.2918 C   0  0  0  0  0  0  0  0  0  0  0  0
  -30.5783  -18.0048   20.9183 C   0  0  0  0  0  0  0  0  0  0  0  0
  -29.1699  -19.7090   19.9439 C   0  0  0  0  0  0  0  0  0  0  0  0
  -22.3383   -8.1437   21.4642 C   0  0  0  0  0  0  0  0  0  0  0  0
  -25.6425  -20.1185   19.0858 C   0  0  0  0  0  0  0  0  0  0  0  0
  -20.3154   -6.9715   21.2275 C   0  0  0  0  0  0  0  0  0  0  0  0
  -31.6091  -18.3590   20.0479 C   0  0  0  0  0  0  0  0  0  0  0  0
  -17.7029   -6.8751   20.2538 C   0  0  0  0  0  0  0  0  0  0  0  0
  -19.3803   -7.9186   21.6447 C   0  0  0  0  0  0  0  0  0  0  0  0
  -30.2008  -20.0631   19.0735 C   0  0  0  0  0  0  0  0  0  0  0  0
  -29.3586  -18.6798   20.8663 C   0  0  0  0  0  0  0  0  0  0  0  0
  -24.5936  -11.6415   20.7044 C   0  0  0  0  0  0  0  0  0  0  0  0
  -25.2578  -13.7254   20.4784 C   0  0  0  0  0  0  0  0  0  0  0  0
  -22.8962  -13.4911   21.2634 C   0  0  0  0  0  0  0  0  0  0  0  0
  -20.2481  -20.0302   19.6831 C   0  0  0  0  0  0  0  0  0  0  0  0
  -20.0218  -19.1371   16.5728 C   0  0  0  0  0  0  0  0  0  0  0  0
  -21.6183  -18.3505   13.6609 C   0  0  0  0  0  0  0  0  0  0  0  0
  -30.7416  -14.7455   20.6604 C   0  0  0  0  0  0  0  0  0  0  0  0
  -15.4946  -18.8268   21.1023 C   0  0  0  0  0  0  0  0  0  0  0  0
  -21.6981  -21.7578   18.5566 C   0  0  0  0  0  0  0  0  0  0  0  0
  -22.3164  -19.0234   17.6155 C   0  0  0  0  0  0  0  0  0  0  0  0
  -16.5927  -18.1539   20.2828 C   0  0  0  0  0  0  0  0  0  0  0  0
  -29.6016  -12.3612   18.2746 C   0  0  0  0  0  0  0  0  0  0  0  0
  -17.9212  -18.1997   21.0311 C   0  0  0  0  0  0  0  0  0  0  0  0
  -28.1647  -12.0671   18.7091 C   0  0  0  0  0  0  0  0  0  0  0  0
  -30.5201  -12.5820   19.4744 C   0  0  0  0  0  0  0  0  0  0  0  0
  -28.6199  -13.3124   20.8634 C   0  0  0  0  0  0  0  0  0  0  0  0
  -18.3704  -19.6463   21.2698 C   0  0  1  0  0  0  0  0  0  0  0  0
  -20.6105  -20.7012   18.3884 C   0  0  1  0  0  0  0  0  0  0  0  0
  -27.6444  -13.1378   19.6869 C   0  0  2  0  0  0  0  0  0  0  0  0
  -21.1678  -17.6245   11.3014 C   0  0  0  0  0  0  0  0  0  0  0  0
  -19.4353  -16.3093   17.5575 C   0  0  0  0  0  0  0  0  0  0  0  0
  -19.9360  -15.4768   15.2500 C   0  0  0  0  0  0  0  0  0  0  0  0
  -18.0367  -17.0508   15.6214 C   0  0  0  0  0  0  0  0  0  0  0  0
  -22.8835  -20.7835   12.5478 C   0  0  0  0  0  0  0  0  0  0  0  0
  -33.8029  -18.1412   19.1560 C   0  0  0  0  0  0  0  0  0  0  0  0
  -30.8085  -16.8959   21.8975 C   0  0  0  0  0  0  0  0  0  0  0  0
  -27.8600  -20.4381   19.8835 C   0  0  0  0  0  0  0  0  0  1  0  0
  -20.4087  -17.9109   15.7818 C   0  0  1  0  0  0  0  0  0  0  0  0
  -21.3891  -18.8072   12.2314 C   0  0  2  0  0  0  0  0  0  0  0  0
  -19.4735  -16.7020   16.0671 C   0  0  0  0  0  0  0  0  0  0  0  0
  -25.8580  -11.5459   20.2846 N   0  0  0  0  0  0  0  0  0  0  0  0
  -26.2345  -12.8296   20.1560 N   0  0  0  0  0  0  0  0  0  0  0  0
  -20.9910  -19.6427   17.4508 N   0  0  0  0  0  0  0  0  0  0  0  0
  -29.9704  -13.6102   20.3612 N   0  0  0  0  0  0  0  0  0  0  0  0
  -25.4679  -15.0569   20.4054 N   0  0  0  0  0  0  0  0  0  0  0  0
  -21.8849  -12.5817   21.6017 N   0  0  0  0  0  0  0  0  0  0  0  0
  -18.9304  -20.2079   20.0592 N   0  0  0  0  0  0  0  0  0  0  0  0
  -20.4436  -18.3221   14.3825 N   0  0  0  0  0  0  0  0  0  0  0  0
  -30.1433  -15.6741   21.5033 N   0  0  0  0  0  0  0  0  0  0  0  0
  -22.5655  -19.5784   11.7392 N   0  3  0  0  0  0  0  0  0  0  0  0
  -22.6597  -14.7217   21.3212 O   0  0  0  0  0  0  0  0  0  0  0  0
  -21.1004  -19.3968   20.2946 O   0  0  0  0  0  0  0  0  0  0  0  0
  -18.9035  -19.6323   16.4123 O   0  0  0  0  0  0  0  0  0  0  0  0
  -22.7277  -18.0457   14.0931 O   0  0  0  0  0  0  0  0  0  0  0  0
  -31.8770  -14.9213   20.2054 O   0  0  0  0  0  0  0  0  0  0  0  0
  -21.6129   -7.0184   21.7092 O   0  0  0  0  0  0  0  0  0  0  0  0
  -32.8078  -17.7118   20.0828 O   0  0  0  0  0  0  0  0  0  0  0  0
  -26.8916  -19.6038   19.2492 O   0  0  0  0  0  0  0  0  0  1  0  0
  -16.4489   -6.8297   19.7851 F   0  0  0  0  0  0  0  0  0  0  0  0
  -19.7313   -8.8779   22.5121 F   0  0  0  0  0  0  0  0  0  0  0  0
  -30.0112  -21.3307   17.9159 Cl  0  0  0  0  0  0  0  0  0  0  0  0
  -28.0801  -18.2370   21.9497 Cl  0  0  0  0  0  0  0  0  0  0  0  0
  1  2  1  0  0  0  0
  1  5  2  0  0  0  0
  2  6  2  0  0  0  0
  3  8  2  0  0  0  0
  3 16  1  0  0  0  0
  4  9  1  0  0  0  0
  4 16  2  0  0  0  0
  5 18  1  0  0  0  0
  6 20  1  0  0  0  0
  7 10  2  0  0  0  0
  7 19  1  0  0  0  0
  8 24  1  0  0  0  0
  9 24  2  0  0  0  0
 10 25  1  0  0  0  0
 11 12  2  0  0  0  0
 11 26  1  0  0  0  0
 12 28  1  0  0  0  0
 13 21  1  0  0  0  0
 13 25  2  0  0  0  0
 14 27  1  0  0  0  0
 14 30  2  0  0  0  0
 15 28  2  0  0  0  0
 15 29  1  0  0  0  0
 16 32  1  0  0  0  0
 17 32  1  0  0  0  0
 17 33  2  0  0  0  0
 17 34  1  0  0  0  0
 18 20  2  0  0  0  0
 18 39  1  0  0  0  0
 19 21  2  0  0  0  0
 19 40  1  0  0  0  0
 20 48  1  0  0  0  0
 21 41  1  0  0  0  0
 22 27  2  0  0  0  0
 22 31  1  0  0  0  0
 22 57  1  0  0  0  0
 23 30  1  0  0  0  0
 23 31  2  0  0  0  0
 23 58  1  0  0  0  0
 24 77  1  0  0  0  0
 25 79  1  0  0  0  0
 26 29  2  0  0  0  0
 26 77  1  0  0  0  0
 27 78  1  0  0  0  0
 28 80  1  0  0  0  0
 29 81  1  0  0  0  0
 30 82  1  0  0  0  0
 31 83  1  0  0  0  0
 32 62  2  0  0  0  0
 33 63  1  0  0  0  0
 33 66  1  0  0  0  0
 34 67  1  0  0  0  0
 34 72  2  0  0  0  0
 35 49  1  0  0  0  0
 35 68  1  0  0  0  0
 35 73  2  0  0  0  0
 36 59  1  0  0  0  0
 36 64  1  0  0  0  0
 36 74  2  0  0  0  0
 37 60  1  0  0  0  0
 37 69  1  0  0  0  0
 37 75  2  0  0  0  0
 38 65  1  0  0  0  0
 38 70  1  0  0  0  0
 38 76  2  0  0  0  0
 39 42  1  0  0  0  0
 40 49  1  0  0  0  0
 41 64  1  0  0  0  0
 42 44  1  0  0  0  0
 43 45  1  0  0  0  0
 43 46  1  0  0  0  0
 44 48  1  0  0  0  0
 45 50  1  0  0  0  0
 46 65  1  0  0  0  0
 47 50  1  0  0  0  0
 47 65  1  0  0  0  0
 48 68  1  0  0  0  0
 49 64  1  0  0  0  0
 50 63  1  0  0  0  0
 51 60  1  0  0  0  0
 52 61  1  0  0  0  0
 53 61  1  0  0  0  0
 54 61  1  0  0  0  0
 55 71  1  0  0  0  0
 56 78  1  0  0  0  0
 57 70  1  0  0  0  0
 58 79  1  0  0  0  0
 59 61  1  0  0  0  0
 59 69  1  0  0  0  0
 60 71  1  0  0  0  0
 62 63  1  0  0  0  0
M  CHG  1  71   1
M  ISO  4  38 100  58 101  70 100  79 101
M  END
> <Batch ID>
0018

> <Smiles>
CNC(C)C(=O)NC(C(=O)N1Cc2cc([101O:1][101CH2:1]c3c(Cl)cc(OC)c(C[100NH:0][100C:0](=O)N4CCCC(n5nc(-c6ccc(Oc7ccc(F)cc7F)cc6)c(C(N)=O)c5N)C4)c3Cl)ccc2CC1C(=O)NC1CCCc2ccccc21)C(C)(C)C

> <Shape>
0.179

> <Color>
0.196

> <Negative vol penalty>
0.000

$$$$

  -OEChem-04052316043D

 81 89  0     1  0  0  0  0  0999 V2000
  -27.9290  -35.3084   24.6327 C   0  0  0  0  0  0  0  0  0  0  0  0
  -28.7163  -34.2559   24.1769 C   0  0  0  0  0  0  0  0  0  0  0  0
  -24.3028   -9.5437   21.4658 C   0  0  0  0  0  0  0  0  0  0  0  0
  -24.7957  -10.6529   23.5548 C   0  0  0  0  0  0  0  0  0  0  0  0
  -26.5783  -35.0988   24.9076 C   0  0  0  0  0  0  0  0  0  0  0  0
  -28.1536  -32.9928   23.9967 C   0  0  0  0  0  0  0  0  0  0  0  0
  -28.6745  -27.1923   19.8255 C   0  0  0  0  0  0  0  0  0  0  0  0
  -23.9295   -8.3952   22.1637 C   0  0  0  0  0  0  0  0  0  0  0  0
  -24.4223   -9.5043   24.2527 C   0  0  0  0  0  0  0  0  0  0  0  0
  -28.8269  -25.8096   19.9177 C   0  0  0  0  0  0  0  0  0  0  0  0
  -22.5034   -5.2928   23.4115 C   0  0  0  0  0  0  0  0  0  0  0  0
  -21.3303   -4.6483   23.0193 C   0  0  0  0  0  0  0  0  0  0  0  0
  -26.4642  -25.5839   20.3490 C   0  0  0  0  0  0  0  0  0  0  0  0
  -29.2215  -20.8703   19.0324 C   0  0  0  0  0  0  0  0  0  0  0  0
  -20.0681   -6.6506   23.5043 C   0  0  0  0  0  0  0  0  0  0  0  0
  -24.7360  -10.6726   22.1614 C   0  0  0  0  0  0  0  0  0  0  0  0
  -24.2937  -12.9337   21.0662 C   0  0  0  0  0  0  0  0  0  0  0  0
  -25.9964  -33.8349   24.7214 C   0  0  0  0  0  0  0  0  0  0  0  0
  -27.4156  -27.7832   20.0055 C   0  0  0  0  0  0  0  0  0  0  0  0
  -26.7941  -32.7659   24.2706 C   0  0  0  0  0  0  0  0  0  0  0  0
  -26.2980  -26.9742   20.2560 C   0  0  0  0  0  0  0  0  0  0  0  0
  -29.1312  -21.6347   20.1957 C   0  0  0  0  0  0  0  0  0  0  0  0
  -29.1753  -19.4782   19.1073 C   0  0  0  0  0  0  0  0  0  0  0  0
  -28.9948  -21.0070   21.4338 C   0  0  0  0  0  0  0  0  0  0  0  0
  -28.9486  -19.6149   21.5087 C   0  0  0  0  0  0  0  0  0  0  0  0
  -29.0388  -18.8505   20.3455 C   0  0  0  0  0  0  0  0  0  0  0  0
  -23.9892   -8.3755   23.5571 C   0  0  0  0  0  0  0  0  0  0  0  0
  -27.7222  -25.0054   20.1823 C   0  0  0  0  0  0  0  0  0  0  0  0
  -22.4590   -6.6162   23.8502 C   0  0  0  0  0  0  0  0  0  0  0  0
  -20.1126   -5.3272   23.0657 C   0  0  0  0  0  0  0  0  0  0  0  0
  -21.2414   -7.2951   23.8965 C   0  0  0  0  0  0  0  0  0  0  0  0
  -25.1223  -11.8591   21.4410 C   0  0  0  0  0  0  0  0  0  0  0  0
  -25.1320  -13.8008   20.4090 C   0  0  0  0  0  0  0  0  0  0  0  0
  -22.8916  -13.1305   21.2920 C   0  0  0  0  0  0  0  0  0  0  0  0
  -26.1850  -29.8528   22.0806 C   0  0  0  0  0  0  0  0  0  0  0  0
  -23.6049  -29.6866   20.1216 C   0  0  0  0  0  0  0  0  0  0  0  0
  -21.8384  -27.9141   17.8012 C   0  0  0  0  0  0  0  0  0  0  0  0
  -29.9661  -16.5336   20.0012 C   0  0  0  0  0  0  0  0  0  0  0  0
  -24.5431  -33.6453   25.0770 C   0  0  0  0  0  0  0  0  0  0  0  0
  -27.2631  -29.2740   19.8764 C   0  0  0  0  0  0  0  0  0  0  0  0
  -24.9213  -27.5576   20.4371 C   0  0  0  0  0  0  0  0  0  0  0  0
  -23.9371  -32.3674   24.5025 C   0  0  0  0  0  0  0  0  0  0  0  0
  -29.8861  -13.1892   18.7824 C   0  0  0  0  0  0  0  0  0  0  0  0
  -24.8667  -31.1817   24.7411 C   0  0  0  0  0  0  0  0  0  0  0  0
  -28.5715  -12.6334   19.3346 C   0  0  0  0  0  0  0  0  0  0  0  0
  -30.5643  -14.1324   19.7744 C   0  0  0  0  0  0  0  0  0  0  0  0
  -28.4015  -14.6663   20.8263 C   0  0  0  0  0  0  0  0  0  0  0  0
  -26.2144  -31.3873   24.0390 C   0  0  1  0  0  0  0  0  0  0  0  0
  -26.0250  -29.8118   20.5871 C   0  0  1  0  0  0  0  0  0  0  0  0
  -27.6493  -13.7617   19.8366 C   0  0  2  0  0  0  0  0  0  0  0  0
  -29.2732  -18.6867   17.8433 C   0  0  0  0  0  0  0  0  0  0  0  0
  -28.8983  -21.8298   22.6795 C   0  0  0  0  0  0  0  0  0  0  0  0
  -28.8022  -18.9462   22.8401 C   0  0  0  0  0  0  0  0  0  0  0  0
  -19.7512  -28.0199   16.4120 C   0  0  0  0  0  0  0  0  0  0  0  0
  -21.9340  -29.0174   22.5854 C   0  0  0  0  0  0  0  0  0  0  0  0
  -20.1228  -28.2166   21.0537 C   0  0  0  0  0  0  0  0  0  0  0  0
  -20.8461  -30.6030   20.9864 C   0  0  0  0  0  0  0  0  0  0  0  0
  -23.3754  -27.8015   15.2745 C   0  0  0  0  0  0  0  0  0  0  0  0
  -29.1820  -23.1303   20.0871 C   0  0  0  0  0  0  0  0  0  1  0  0
  -22.3720  -28.8184   20.0488 C   0  0  1  0  0  0  0  0  0  0  0  0
  -21.2415  -28.3184   16.4653 C   0  0  2  0  0  0  0  0  0  0  0  0
  -21.3449  -29.1527   21.1671 C   0  0  0  0  0  0  0  0  0  0  0  0
  -26.3898  -12.0260   21.0540 N   0  0  0  0  0  0  0  0  0  0  0  0
  -26.3638  -13.2155   20.4291 N   0  0  0  0  0  0  0  0  0  0  0  0
  -24.8247  -29.0209   20.3079 N   0  0  0  0  0  0  0  0  0  0  0  0
  -29.6321  -15.1776   20.2027 N   0  0  0  0  0  0  0  0  0  0  0  0
  -24.9283  -14.9991   19.8217 N   0  0  0  0  0  0  0  0  0  0  0  0
  -22.1809  -12.1406   21.9844 N   0  0  0  0  0  0  0  0  0  0  0  0
  -28.9886  -17.4363   20.4186 N   0  0  0  0  0  0  0  0  0  0  0  0
  -26.0918  -31.1208   22.6218 N   0  0  0  0  0  0  0  0  0  0  0  0
  -21.8495  -28.9643   18.6945 N   0  0  0  0  0  0  0  0  0  0  0  0
  -21.9085  -27.5808   15.3553 N   0  3  0  0  0  0  0  0  0  0  0  0
  -22.2834  -14.1463   20.8773 O   0  0  0  0  0  0  0  0  0  0  0  0
  -26.3772  -28.8110   22.6965 O   0  0  0  0  0  0  0  0  0  0  0  0
  -23.4906  -30.9098   20.0100 O   0  0  0  0  0  0  0  0  0  0  0  0
  -22.2501  -26.7790   18.0305 O   0  0  0  0  0  0  0  0  0  0  0  0
  -31.0284  -16.8684   19.4707 O   0  0  0  0  0  0  0  0  0  0  0  0
  -23.6247   -7.2550   24.2385 O   0  0  0  0  0  0  0  0  0  0  0  0
  -27.8683  -23.6555   20.2735 O   0  0  0  0  0  0  0  0  0  1  0  0
  -18.9863   -4.7086   22.6875 F   0  0  0  0  0  0  0  0  0  0  0  0
  -21.1925   -8.5669   24.3159 F   0  0  0  0  0  0  0  0  0  0  0  0
  1  2  1  0  0  0  0
  1  5  2  0  0  0  0
  2  6  2  0  0  0  0
  3  8  2  0  0  0  0
  3 16  1  0  0  0  0
  4  9  1  0  0  0  0
  4 16  2  0  0  0  0
  5 18  1  0  0  0  0
  6 20  1  0  0  0  0
  7 10  2  0  0  0  0
  7 19  1  0  0  0  0
  8 27  1  0  0  0  0
  9 27  2  0  0  0  0
 10 28  1  0  0  0  0
 11 12  2  0  0  0  0
 11 29  1  0  0  0  0
 12 30  1  0  0  0  0
 13 21  1  0  0  0  0
 13 28  2  0  0  0  0
 14 22  1  0  0  0  0
 14 23  2  0  0  0  0
 15 30  2  0  0  0  0
 15 31  1  0  0  0  0
 16 32  1  0  0  0  0
 17 32  1  0  0  0  0
 17 33  2  0  0  0  0
 17 34  1  0  0  0  0
 18 20  2  0  0  0  0
 18 39  1  0  0  0  0
 19 21  2  0  0  0  0
 19 40  1  0  0  0  0
 20 48  1  0  0  0  0
 21 41  1  0  0  0  0
 22 24  2  0  0  0  0
 22 59  1  0  0  0  0
 23 26  1  0  0  0  0
 23 51  1  0  0  0  0
 24 25  1  0  0  0  0
 24 52  1  0  0  0  0
 25 26  2  0  0  0  0
 25 53  1  0  0  0  0
 26 69  1  0  0  0  0
 27 78  1  0  0  0  0
 28 79  1  0  0  0  0
 29 31  2  0  0  0  0
 29 78  1  0  0  0  0
 30 80  1  0  0  0  0
 31 81  1  0  0  0  0
 32 63  2  0  0  0  0
 33 64  1  0  0  0  0
 33 67  1  0  0  0  0
 34 68  1  0  0  0  0
 34 73  2  0  0  0  0
 35 49  1  0  0  0  0
 35 70  1  0  0  0  0
 35 74  2  0  0  0  0
 36 60  1  0  0  0  0
 36 65  1  0  0  0  0
 36 75  2  0  0  0  0
 37 61  1  0  0  0  0
 37 71  1  0  0  0  0
 37 76  2  0  0  0  0
 38 66  1  0  0  0  0
 38 69  1  0  0  0  0
 38 77  2  0  0  0  0
 39 42  1  0  0  0  0
 40 49  1  0  0  0  0
 41 65  1  0  0  0  0
 42 44  1  0  0  0  0
 43 45  1  0  0  0  0
 43 46  1  0  0  0  0
 44 48  1  0  0  0  0
 45 50  1  0  0  0  0
 46 66  1  0  0  0  0
 47 50  1  0  0  0  0
 47 66  1  0  0  0  0
 48 70  1  0  0  0  0
 49 65  1  0  0  0  0
 50 64  1  0  0  0  0
 54 61  1  0  0  0  0
 55 62  1  0  0  0  0
 56 62  1  0  0  0  0
 57 62  1  0  0  0  0
 58 72  1  0  0  0  0
 59 79  1  0  0  0  0
 60 62  1  0  0  0  0
 60 71  1  0  0  0  0
 61 72  1  0  0  0  0
 63 64  1  0  0  0  0
M  CHG  1  72   1
M  ISO  4  38 100  59 101  69 100  79 101
M  END
> <Batch ID>
0018

> <Smiles>
CNC(C)C(=O)NC(C(=O)N1Cc2cc([101O:1][101CH2:1]c3cc(C)c([100NH:0][100C:0](=O)N4CCCC(n5nc(-c6ccc(Oc7ccc(F)cc7F)cc6)c(C(N)=O)c5N)C4)c(C)c3C)ccc2CC1C(=O)NC1CCCc2ccccc21)C(C)(C)C

> <Shape>
0.360

> <Color>
0.124

> <Negative vol penalty>
0.000

$$$$

  -OEChem-04052316043D

 80 88  0     1  0  0  0  0  0999 V2000
  -28.0735  -37.0448   21.1829 C   0  0  0  0  0  0  0  0  0  0  0  0
  -28.4838  -35.7264   21.0128 C   0  0  0  0  0  0  0  0  0  0  0  0
  -26.8736  -12.7138   21.8039 C   0  0  0  0  0  0  0  0  0  0  0  0
  -26.2239  -14.3348   20.1344 C   0  0  0  0  0  0  0  0  0  0  0  0
  -26.9528  -37.3300   21.9617 C   0  0  0  0  0  0  0  0  0  0  0  0
  -27.7740  -34.6924   21.6223 C   0  0  0  0  0  0  0  0  0  0  0  0
  -26.8399  -29.0611   19.4040 C   0  0  0  0  0  0  0  0  0  0  0  0
  -25.5552  -12.2650   21.8812 C   0  0  0  0  0  0  0  0  0  0  0  0
  -24.9055  -13.8859   20.2116 C   0  0  0  0  0  0  0  0  0  0  0  0
  -27.4722  -27.8418   19.6434 C   0  0  0  0  0  0  0  0  0  0  0  0
  -22.4284  -10.4489   22.2554 C   0  0  0  0  0  0  0  0  0  0  0  0
  -22.2121   -9.0710   22.2670 C   0  0  0  0  0  0  0  0  0  0  0  0
  -25.7751  -27.2872   21.2657 C   0  0  0  0  0  0  0  0  0  0  0  0
  -30.3635  -22.6446   21.9953 C   0  0  0  0  0  0  0  0  0  0  0  0
  -29.0695  -23.0670   19.5602 C   0  0  0  0  0  0  0  0  0  0  0  0
  -23.2789   -8.8853   20.1073 C   0  0  0  0  0  0  0  0  0  0  0  0
  -27.2079  -13.7488   20.9305 C   0  0  0  0  0  0  0  0  0  0  0  0
  -29.5812  -13.7377   19.9950 C   0  0  0  0  0  0  0  0  0  0  0  0
  -26.2233  -36.2982   22.5732 C   0  0  0  0  0  0  0  0  0  0  0  0
  -25.6746  -29.4079   20.1027 C   0  0  0  0  0  0  0  0  0  0  0  0
  -26.6432  -34.9641   22.4111 C   0  0  0  0  0  0  0  0  0  0  0  0
  -25.1285  -28.5104   21.0314 C   0  0  0  0  0  0  0  0  0  0  0  0
  -29.8984  -23.9172   21.6642 C   0  0  0  0  0  0  0  0  0  0  0  0
  -29.2514  -24.1285   20.4467 C   0  0  0  0  0  0  0  0  0  0  0  0
  -30.1817  -21.5831   21.1087 C   0  0  0  0  0  0  0  0  0  0  0  0
  -24.5711  -12.8510   21.0850 C   0  0  0  0  0  0  0  0  0  0  0  0
  -26.9414  -26.9559   20.5765 C   0  0  0  0  0  0  0  0  0  0  0  0
  -23.0699  -11.0450   21.1697 C   0  0  0  0  0  0  0  0  0  0  0  0
  -22.6374   -8.2892   21.1930 C   0  0  0  0  0  0  0  0  0  0  0  0
  -23.4952  -10.2632   20.0956 C   0  0  0  0  0  0  0  0  0  0  0  0
  -29.5346  -21.7943   19.8912 C   0  0  0  0  0  0  0  0  0  0  0  0
  -28.5695  -14.2133   20.8507 C   0  0  0  0  0  0  0  0  0  0  0  0
  -30.6805  -14.5000   20.3061 C   0  0  0  0  0  0  0  0  0  0  0  0
  -29.5316  -12.6997   19.0072 C   0  0  0  0  0  0  0  0  0  0  0  0
  -24.8751  -31.7330   22.1172 C   0  0  0  0  0  0  0  0  0  0  0  0
  -21.9188  -30.4274   21.8383 C   0  0  0  0  0  0  0  0  0  0  0  0
  -20.0186  -27.6862   21.1158 C   0  0  0  0  0  0  0  0  0  0  0  0
  -31.3328  -19.9573   22.6508 C   0  0  0  0  0  0  0  0  0  0  0  0
  -25.0463  -36.6591   23.4445 C   0  0  0  0  0  0  0  0  0  0  0  0
  -24.9897  -30.7154   19.8134 C   0  0  0  0  0  0  0  0  0  0  0  0
  -23.8683  -28.8265   21.7932 C   0  0  0  0  0  0  0  0  0  0  0  0
  -24.1292  -35.4775   23.7495 C   0  0  0  0  0  0  0  0  0  0  0  0
  -32.6570  -16.9138   23.9395 C   0  0  0  0  0  0  0  0  0  0  0  0
  -24.9482  -34.2595   24.1650 C   0  0  0  0  0  0  0  0  0  0  0  0
  -31.8554  -15.8325   23.2113 C   0  0  0  0  0  0  0  0  0  0  0  0
  -31.7961  -18.1313   24.2714 C   0  0  0  0  0  0  0  0  0  0  0  0
  -30.2706  -17.6279   22.4035 C   0  0  0  0  0  0  0  0  0  0  0  0
  -25.8849  -33.8132   23.0359 C   0  0  1  0  0  0  0  0  0  0  0  0
  -24.0945  -31.1865   20.9555 C   0  0  1  0  0  0  0  0  0  0  0  0
  -31.1113  -16.4087   21.9906 C   0  0  2  0  0  0  0  0  0  0  0  0
  -30.1079  -25.0389   22.6279 C   0  0  0  0  0  0  0  0  0  0  0  0
  -17.6329  -26.9148   21.0122 C   0  0  0  0  0  0  0  0  0  0  0  0
  -21.8460  -30.2514   24.8836 C   0  0  0  0  0  0  0  0  0  0  0  0
  -19.9313  -28.6517   24.6758 C   0  0  0  0  0  0  0  0  0  0  0  0
  -19.7007  -30.9870   23.8296 C   0  0  0  0  0  0  0  0  0  0  0  0
  -20.2150  -27.0912   18.2233 C   0  0  0  0  0  0  0  0  0  0  0  0
  -28.7428  -25.4886   20.0688 C   0  0  0  0  0  0  0  0  0  1  0  0
  -21.1536  -29.3485   22.5660 C   0  0  1  0  0  0  0  0  0  0  0  0
  -18.7949  -27.5128   20.2344 C   0  0  2  0  0  0  0  0  0  0  0  0
  -20.6827  -29.8042   23.9760 C   0  0  0  0  0  0  0  0  0  0  0  0
  -28.9889  -15.2011   21.6458 N   0  0  0  0  0  0  0  0  0  0  0  0
  -30.2763  -15.3524   21.2911 N   0  0  0  0  0  0  0  0  0  0  0  0
  -23.2390  -30.1200   21.4798 N   0  0  0  0  0  0  0  0  0  0  0  0
  -31.1255  -18.6251   23.0666 N   0  0  0  0  0  0  0  0  0  0  0  0
  -31.9438  -14.5176   19.8306 N   0  0  0  0  0  0  0  0  0  0  0  0
  -28.3227  -12.0168   18.8157 N   0  0  0  0  0  0  0  0  0  0  0  0
  -30.6694  -20.3039   21.4742 N   0  0  0  0  0  0  0  0  0  0  0  0
  -25.1477  -33.0846   22.0259 N   0  0  0  0  0  0  0  0  0  0  0  0
  -20.0704  -28.9452   21.6757 N   0  0  0  0  0  0  0  0  0  0  0  0
  -19.1057  -26.6128   19.0879 N   0  3  0  0  0  0  0  0  0  0  0  0
  -30.5341  -12.3759   18.3264 O   0  0  0  0  0  0  0  0  0  0  0  0
  -25.2044  -30.9842   23.0296 O   0  0  0  0  0  0  0  0  0  0  0  0
  -21.3633  -31.5006   21.5907 O   0  0  0  0  0  0  0  0  0  0  0  0
  -20.8439  -26.7929   21.2931 O   0  0  0  0  0  0  0  0  0  0  0  0
  -32.0680  -20.7255   23.2765 O   0  0  0  0  0  0  0  0  0  0  0  0
  -23.2846  -12.4131   21.1600 O   0  0  0  0  0  0  0  0  0  0  0  0
  -27.5569  -25.7654   20.8126 O   0  0  0  0  0  0  0  0  0  1  0  0
  -22.4310   -6.9657   21.2050 F   0  0  0  0  0  0  0  0  0  0  0  0
  -24.1131  -10.8301   19.0503 F   0  0  0  0  0  0  0  0  0  0  0  0
  -29.2879  -20.5078   18.7644 Cl  0  0  0  0  0  0  0  0  0  0  0  0
  1  2  1  0  0  0  0
  1  5  2  0  0  0  0
  2  6  2  0  0  0  0
  3  8  2  0  0  0  0
  3 17  1  0  0  0  0
  4  9  1  0  0  0  0
  4 17  2  0  0  0  0
  5 19  1  0  0  0  0
  6 21  1  0  0  0  0
  7 10  2  0  0  0  0
  7 20  1  0  0  0  0
  8 26  1  0  0  0  0
  9 26  2  0  0  0  0
 10 27  1  0  0  0  0
 11 12  2  0  0  0  0
 11 28  1  0  0  0  0
 12 29  1  0  0  0  0
 13 22  1  0  0  0  0
 13 27  2  0  0  0  0
 14 23  1  0  0  0  0
 14 25  2  0  0  0  0
 15 24  1  0  0  0  0
 15 31  2  0  0  0  0
 16 29  2  0  0  0  0
 16 30  1  0  0  0  0
 17 32  1  0  0  0  0
 18 32  1  0  0  0  0
 18 33  2  0  0  0  0
 18 34  1  0  0  0  0
 19 21  2  0  0  0  0
 19 39  1  0  0  0  0
 20 22  2  0  0  0  0
 20 40  1  0  0  0  0
 21 48  1  0  0  0  0
 22 41  1  0  0  0  0
 23 24  2  0  0  0  0
 23 51  1  0  0  0  0
 24 57  1  0  0  0  0
 25 31  1  0  0  0  0
 25 67  1  0  0  0  0
 26 76  1  0  0  0  0
 27 77  1  0  0  0  0
 28 30  2  0  0  0  0
 28 76  1  0  0  0  0
 29 78  1  0  0  0  0
 30 79  1  0  0  0  0
 31 80  1  0  0  0  0
 32 61  2  0  0  0  0
 33 62  1  0  0  0  0
 33 65  1  0  0  0  0
 34 66  1  0  0  0  0
 34 71  2  0  0  0  0
 35 49  1  0  0  0  0
 35 68  1  0  0  0  0
 35 72  2  0  0  0  0
 36 58  1  0  0  0  0
 36 63  1  0  0  0  0
 36 73  2  0  0  0  0
 37 59  1  0  0  0  0
 37 69  1  0  0  0  0
 37 74  2  0  0  0  0
 38 64  1  0  0  0  0
 38 67  1  0  0  0  0
 38 75  2  0  0  0  0
 39 42  1  0  0  0  0
 40 49  1  0  0  0  0
 41 63  1  0  0  0  0
 42 44  1  0  0  0  0
 43 45  1  0  0  0  0
 43 46  1  0  0  0  0
 44 48  1  0  0  0  0
 45 50  1  0  0  0  0
 46 64  1  0  0  0  0
 47 50  1  0  0  0  0
 47 64  1  0  0  0  0
 48 68  1  0  0  0  0
 49 63  1  0  0  0  0
 50 62  1  0  0  0  0
 52 59  1  0  0  0  0
 53 60  1  0  0  0  0
 54 60  1  0  0  0  0
 55 60  1  0  0  0  0
 56 70  1  0  0  0  0
 57 77  1  0  0  0  0
 58 60  1  0  0  0  0
 58 69  1  0  0  0  0
 59 70  1  0  0  0  0
 61 62  1  0  0  0  0
M  CHG  1  70   1
M  ISO  4  38 100  57 101  67 100  77 101
M  END
> <Batch ID>
0018

> <Smiles>
CNC(C)C(=O)NC(C(=O)N1Cc2cc([101O:1][101CH2:1]c3cc(Cl)c([100NH:0][100C:0](=O)N4CCCC(n5nc(-c6ccc(Oc7ccc(F)cc7F)cc6)c(C(N)=O)c5N)C4)cc3C)ccc2CC1C(=O)NC1CCCc2ccccc21)C(C)(C)C

> <Shape>
0.344

> <Color>
0.079

> <Negative vol penalty>
0.000

$$$$

  -OEChem-04052316043D

 80 87  0     1  0  0  0  0  0999 V2000
  -31.7697  -26.0248   20.3308 C   0  0  0  0  0  0  0  0  0  0  0  0
  -31.0042  -25.2927   21.2313 C   0  0  0  0  0  0  0  0  0  0  0  0
  -25.3521  -29.3008   20.4053 C   0  0  0  0  0  0  0  0  0  0  0  0
  -25.3699  -26.9481   19.8562 C   0  0  0  0  0  0  0  0  0  0  0  0
  -31.6830  -25.7543   18.9668 C   0  0  0  0  0  0  0  0  0  0  0  0
  -30.1607  -24.2817   20.7692 C   0  0  0  0  0  0  0  0  0  0  0  0
  -26.1949  -20.7550   23.7628 C   0  0  0  0  0  0  0  0  0  0  0  0
  -26.7347  -29.2689   20.5871 C   0  0  0  0  0  0  0  0  0  0  0  0
  -26.7525  -26.9161   20.0379 C   0  0  0  0  0  0  0  0  0  0  0  0
  -24.8413  -20.7816   24.0955 C   0  0  0  0  0  0  0  0  0  0  0  0
  -29.5032  -29.2828   18.6460 C   0  0  0  0  0  0  0  0  0  0  0  0
  -30.2549  -30.3148   18.0843 C   0  0  0  0  0  0  0  0  0  0  0  0
  -24.3499  -19.3983   22.1812 C   0  0  0  0  0  0  0  0  0  0  0  0
  -31.0608  -30.9225   20.2794 C   0  0  0  0  0  0  0  0  0  0  0  0
  -24.6697  -28.1404   20.0399 C   0  0  0  0  0  0  0  0  0  0  0  0
  -22.5466  -28.4457   18.6591 C   0  0  0  0  0  0  0  0  0  0  0  0
  -30.8284  -24.7478   18.4876 C   0  0  0  0  0  0  0  0  0  0  0  0
  -26.6357  -20.0577   22.6288 C   0  0  0  0  0  0  0  0  0  0  0  0
  -30.0772  -23.9775   19.3984 C   0  0  0  0  0  0  0  0  0  0  0  0
  -25.7100  -19.3623   21.8378 C   0  0  0  0  0  0  0  0  0  0  0  0
  -27.4349  -28.0766   20.4033 C   0  0  0  0  0  0  0  0  0  0  0  0
  -23.9182  -20.1056   23.3030 C   0  0  0  0  0  0  0  0  0  0  0  0
  -29.5303  -29.0706   20.0244 C   0  0  0  0  0  0  0  0  0  0  0  0
  -31.0337  -31.1347   18.9010 C   0  0  0  0  0  0  0  0  0  0  0  0
  -30.3091  -29.8904   20.8411 C   0  0  0  0  0  0  0  0  0  0  0  0
  -23.2414  -28.1726   19.8525 C   0  0  0  0  0  0  0  0  0  0  0  0
  -21.2205  -28.3540   19.0051 C   0  0  0  0  0  0  0  0  0  0  0  0
  -23.0543  -28.7545   17.3543 C   0  0  0  0  0  0  0  0  0  0  0  0
  -28.0987  -20.8677   19.9256 C   0  0  0  0  0  0  0  0  0  0  0  0
  -28.1760  -17.6581   19.4623 C   0  0  0  0  0  0  0  0  0  0  0  0
  -26.8317  -14.5981   20.1521 C   0  0  0  0  0  0  0  0  0  0  0  0
  -18.3348  -25.4175   23.3526 C   0  0  0  0  0  0  0  0  0  0  0  0
  -30.7793  -24.4916   17.0019 C   0  0  0  0  0  0  0  0  0  0  0  0
  -28.1025  -20.0166   22.2987 C   0  0  0  0  0  0  0  0  0  0  0  0
  -26.1344  -18.5821   20.6214 C   0  0  0  0  0  0  0  0  0  0  0  0
  -29.5393  -23.7138   16.5734 C   0  0  0  0  0  0  0  0  0  0  0  0
  -18.2755  -28.9231   22.7326 C   0  0  0  0  0  0  0  0  0  0  0  0
  -29.3645  -22.4870   17.4559 C   0  0  0  0  0  0  0  0  0  0  0  0
  -19.4788  -29.1529   21.8165 C   0  0  0  0  0  0  0  0  0  0  0  0
  -18.5599  -27.8474   23.7786 C   0  0  0  0  0  0  0  0  0  0  0  0
  -20.2402  -26.7930   22.3163 C   0  0  0  0  0  0  0  0  0  0  0  0
  -29.1299  -22.8937   18.9163 C   0  0  1  0  0  0  0  0  0  0  0  0
  -28.3762  -19.7014   20.8314 C   0  0  1  0  0  0  0  0  0  0  0  0
  -19.9821  -27.8295   21.2093 C   0  0  2  0  0  0  0  0  0  0  0  0
  -27.0848  -12.1644   19.5950 C   0  0  0  0  0  0  0  0  0  0  0  0
  -26.8568  -18.1433   16.7541 C   0  0  0  0  0  0  0  0  0  0  0  0
  -26.2803  -15.7082   16.6769 C   0  0  0  0  0  0  0  0  0  0  0  0
  -28.6700  -16.4209   16.7376 C   0  0  0  0  0  0  0  0  0  0  0  0
  -17.2230  -21.9699   20.1266 C   0  0  0  0  0  0  0  0  0  0  0  0
  -19.3508  -20.7414   19.7079 C   0  0  0  0  0  0  0  0  0  0  0  0
  -19.3457  -23.2324   19.8765 C   0  0  0  0  0  0  0  0  0  0  0  0
  -27.3944  -13.8922   22.9706 C   0  0  0  0  0  0  0  0  0  0  0  0
  -20.6450  -21.5276   23.9486 C   0  0  0  0  0  0  0  0  0  0  0  0
  -20.4335  -21.7166   22.4385 C   0  0  0  0  0  0  0  0  0  0  0  0
  -18.2341  -22.9954   22.8211 C   0  0  0  0  0  0  0  0  0  0  0  0
  -22.1108  -21.2894   24.2971 C   0  0  0  0  0  0  0  0  0  1  0  0
  -27.2555  -16.6481   18.8208 C   0  0  1  0  0  0  0  0  0  0  0  0
  -27.4749  -13.2818   20.5499 C   0  0  2  0  0  0  0  0  0  0  0  0
  -18.9427  -21.8727   22.0257 C   0  0  1  0  0  0  0  0  0  0  0  0
  -27.2571  -16.7463   17.2691 C   0  0  0  0  0  0  0  0  0  0  0  0
  -18.7347  -21.9375   20.4570 C   0  0  0  0  0  0  0  0  0  0  0  0
  -22.4244  -27.9261   20.8800 N   0  0  0  0  0  0  0  0  0  0  0  0
  -21.2025  -28.0440   20.3332 N   0  0  0  0  0  0  0  0  0  0  0  0
  -27.5788  -18.5773   20.3365 N   0  0  0  0  0  0  0  0  0  0  0  0
  -19.0319  -26.6178   23.1374 N   0  0  0  0  0  0  0  0  0  0  0  0
  -20.0799  -28.5092   18.3000 N   0  0  0  0  0  0  0  0  0  0  0  0
  -24.4431  -28.8081   17.1732 N   0  0  0  0  0  0  0  0  0  0  0  0
  -29.1781  -21.7121   19.7490 N   0  0  0  0  0  0  0  0  0  0  0  0
  -27.6569  -15.3441   19.3374 N   0  0  0  0  0  0  0  0  0  0  0  0
  -18.8453  -24.3005   22.7027 N   0  0  0  0  0  0  0  0  0  0  0  0
  -27.0522  -12.8936   21.9253 N   0  3  0  0  0  0  0  0  0  0  0  0
  -22.2988  -28.9926   16.3817 O   0  0  0  0  0  0  0  0  0  0  0  0
  -26.9879  -20.9915   19.4231 O   0  0  0  0  0  0  0  0  0  0  0  0
  -29.3816  -17.6279   19.2029 O   0  0  0  0  0  0  0  0  0  0  0  0
  -25.7080  -14.9295   20.5236 O   0  0  0  0  0  0  0  0  0  0  0  0
  -17.3286  -25.3477   24.0665 O   0  0  0  0  0  0  0  0  0  0  0  0
  -28.7841  -28.0451   20.5804 O   0  0  0  0  0  0  0  0  0  0  0  0
  -22.5862  -20.1306   23.6274 O   0  0  0  0  0  0  0  0  0  1  0  0
  -31.7567  -32.1247   18.3613 F   0  0  0  0  0  0  0  0  0  0  0  0
  -30.3400  -29.6907   22.1658 F   0  0  0  0  0  0  0  0  0  0  0  0
  1  2  1  0  0  0  0
  1  5  2  0  0  0  0
  2  6  2  0  0  0  0
  3  8  2  0  0  0  0
  3 15  1  0  0  0  0
  4  9  1  0  0  0  0
  4 15  2  0  0  0  0
  5 17  1  0  0  0  0
  6 19  1  0  0  0  0
  7 10  2  0  0  0  0
  7 18  1  0  0  0  0
  8 21  1  0  0  0  0
  9 21  2  0  0  0  0
 10 22  1  0  0  0  0
 11 12  2  0  0  0  0
 11 23  1  0  0  0  0
 12 24  1  0  0  0  0
 13 20  1  0  0  0  0
 13 22  2  0  0  0  0
 14 24  2  0  0  0  0
 14 25  1  0  0  0  0
 15 26  1  0  0  0  0
 16 26  1  0  0  0  0
 16 27  2  0  0  0  0
 16 28  1  0  0  0  0
 17 19  2  0  0  0  0
 17 33  1  0  0  0  0
 18 20  2  0  0  0  0
 18 34  1  0  0  0  0
 19 42  1  0  0  0  0
 20 35  1  0  0  0  0
 21 77  1  0  0  0  0
 22 78  1  0  0  0  0
 23 25  2  0  0  0  0
 23 77  1  0  0  0  0
 24 79  1  0  0  0  0
 25 80  1  0  0  0  0
 26 62  2  0  0  0  0
 27 63  1  0  0  0  0
 27 66  1  0  0  0  0
 28 67  1  0  0  0  0
 28 72  2  0  0  0  0
 29 43  1  0  0  0  0
 29 68  1  0  0  0  0
 29 73  2  0  0  0  0
 30 57  1  0  0  0  0
 30 64  1  0  0  0  0
 30 74  2  0  0  0  0
 31 58  1  0  0  0  0
 31 69  1  0  0  0  0
 31 75  2  0  0  0  0
 32 65  1  0  0  0  0
 32 70  1  0  0  0  0
 32 76  2  0  0  0  0
 33 36  1  0  0  0  0
 34 43  1  0  0  0  0
 35 64  1  0  0  0  0
 36 38  1  0  0  0  0
 37 39  1  0  0  0  0
 37 40  1  0  0  0  0
 38 42  1  0  0  0  0
 39 44  1  0  0  0  0
 40 65  1  0  0  0  0
 41 44  1  0  0  0  0
 41 65  1  0  0  0  0
 42 68  1  0  0  0  0
 43 64  1  0  0  0  0
 44 63  1  0  0  0  0
 45 58  1  0  0  0  0
 46 60  1  0  0  0  0
 47 60  1  0  0  0  0
 48 60  1  0  0  0  0
 49 61  1  0  0  0  0
 50 61  1  0  0  0  0
 51 61  1  0  0  0  0
 52 71  1  0  0  0  0
 53 54  1  0  0  0  0
 53 56  1  0  0  0  0
 54 59  1  0  0  0  0
 55 59  1  0  0  0  0
 55 70  1  0  0  0  0
 56 78  1  0  0  0  0
 57 60  1  0  0  0  0
 57 69  1  0  0  0  0
 58 71  1  0  0  0  0
 59 61  1  0  0  0  0
 62 63  1  0  0  0  0
M  CHG  1  71   1
M  ISO  4  32 100  56 101  70 100  78 101
M  END
> <Batch ID>
0018

> <Smiles>
CNC(C)C(=O)NC(C(=O)N1Cc2cc([101O:1][101CH2:1]CCC(C[100NH:0][100C:0](=O)N3CCCC(n4nc(-c5ccc(Oc6ccc(F)cc6F)cc5)c(C(N)=O)c4N)C3)C(C)(C)C)ccc2CC1C(=O)NC1CCCc2ccccc21)C(C)(C)C

> <Shape>
0.202

> <Color>
0.060

> <Negative vol penalty>
0.000

$$$$

  -OEChem-04052316043D

 82 90  0     1  0  0  0  0  0999 V2000
  -38.0566  -29.5973   20.5039 C   0  0  0  0  0  0  0  0  0  0  0  0
  -38.1469  -28.2165   20.6480 C   0  0  0  0  0  0  0  0  0  0  0  0
  -23.2321   -9.8360   19.8854 C   0  0  0  0  0  0  0  0  0  0  0  0
  -23.6669   -9.9310   22.2600 C   0  0  0  0  0  0  0  0  0  0  0  0
  -36.8688  -30.2541   20.8227 C   0  0  0  0  0  0  0  0  0  0  0  0
  -37.0497  -27.4919   21.1120 C   0  0  0  0  0  0  0  0  0  0  0  0
  -33.8664  -21.1140   20.4006 C   0  0  0  0  0  0  0  0  0  0  0  0
  -30.5532  -15.0151   25.0710 C   0  0  0  0  0  0  0  0  0  0  0  0
  -22.4611   -8.6887   20.0725 C   0  0  0  0  0  0  0  0  0  0  0  0
  -22.8959   -8.7838   22.4471 C   0  0  0  0  0  0  0  0  0  0  0  0
  -33.3952  -20.0533   21.1730 C   0  0  0  0  0  0  0  0  0  0  0  0
  -19.3405   -7.9297   21.1301 C   0  0  0  0  0  0  0  0  0  0  0  0
  -18.1135   -7.8587   20.4706 C   0  0  0  0  0  0  0  0  0  0  0  0
  -31.1123  -16.1448   25.6682 C   0  0  0  0  0  0  0  0  0  0  0  0
  -31.3691  -21.2848   21.6176 C   0  0  0  0  0  0  0  0  0  0  0  0
  -18.8516   -5.8716   19.3114 C   0  0  0  0  0  0  0  0  0  0  0  0
  -23.8350  -10.4571   20.9792 C   0  0  0  0  0  0  0  0  0  0  0  0
  -24.1894  -12.9780   20.8143 C   0  0  0  0  0  0  0  0  0  0  0  0
  -35.7533  -29.5359   21.2817 C   0  0  0  0  0  0  0  0  0  0  0  0
  -33.0958  -22.2745   20.2395 C   0  0  0  0  0  0  0  0  0  0  0  0
  -35.8462  -28.1398   21.4385 C   0  0  0  0  0  0  0  0  0  0  0  0
  -31.8317  -22.3578   20.8405 C   0  0  0  0  0  0  0  0  0  0  0  0
  -30.6370  -14.8428   23.6893 C   0  0  0  0  0  0  0  0  0  0  0  0
  -31.8388  -16.9303   23.5020 C   0  0  0  0  0  0  0  0  0  0  0  0
  -22.2930   -8.1626   21.3533 C   0  0  0  0  0  0  0  0  0  0  0  0
  -32.1477  -20.1397   21.7840 C   0  0  0  0  0  0  0  0  0  0  0  0
  -20.3231   -6.9718   20.8802 C   0  0  0  0  0  0  0  0  0  0  0  0
  -17.8690   -6.8296   19.5613 C   0  0  0  0  0  0  0  0  0  0  0  0
  -20.0787   -5.9427   19.9709 C   0  0  0  0  0  0  0  0  0  0  0  0
  -31.7550  -17.1025   24.8837 C   0  0  0  0  0  0  0  0  0  0  0  0
  -31.2797  -15.8005   22.9049 C   0  0  0  0  0  0  0  0  0  0  0  0
  -24.6320  -11.6419   20.7865 C   0  0  0  0  0  0  0  0  0  0  0  0
  -25.3211  -13.7196   20.5782 C   0  0  0  0  0  0  0  0  0  0  0  0
  -22.8730  -13.5019   21.0339 C   0  0  0  0  0  0  0  0  0  0  0  0
  -33.4768  -25.3413   20.9834 C   0  0  0  0  0  0  0  0  0  0  0  0
  -30.7113  -25.6851   19.3233 C   0  0  0  0  0  0  0  0  0  0  0  0
  -27.8315  -24.2662   18.1657 C   0  0  0  0  0  0  0  0  0  0  0  0
  -31.1725  -12.1091   21.4182 C   0  0  0  0  0  0  0  0  0  0  0  0
  -34.5060  -30.2953   21.6587 C   0  0  0  0  0  0  0  0  0  0  0  0
  -33.6068  -23.3990   19.3813 C   0  0  0  0  0  0  0  0  0  0  0  0
  -30.9568  -23.5735   20.6820 C   0  0  0  0  0  0  0  0  0  0  0  0
  -33.2693  -29.4097   21.7877 C   0  0  0  0  0  0  0  0  0  0  0  0
  -29.5642  -13.5051   18.3907 C   0  0  0  0  0  0  0  0  0  0  0  0
  -33.5900  -28.1605   22.6024 C   0  0  0  0  0  0  0  0  0  0  0  0
  -28.0829  -13.2288   18.6429 C   0  0  0  0  0  0  0  0  0  0  0  0
  -30.4582  -12.4825   19.0854 C   0  0  0  0  0  0  0  0  0  0  0  0
  -28.7215  -12.0763   20.7981 C   0  0  0  0  0  0  0  0  0  0  0  0
  -34.6698  -27.3159   21.9153 C   0  0  1  0  0  0  0  0  0  0  0  0
  -32.9588  -24.7412   19.7069 C   0  0  1  0  0  0  0  0  0  0  0  0
  -27.7948  -13.1160   20.1501 C   0  0  2  0  0  0  0  0  0  0  0  0
  -25.7503  -24.8074   16.8723 C   0  0  0  0  0  0  0  0  0  0  0  0
  -29.5718  -27.1210   21.7625 C   0  0  0  0  0  0  0  0  0  0  0  0
  -27.2836  -26.7880   20.8027 C   0  0  0  0  0  0  0  0  0  0  0  0
  -28.9659  -28.1534   19.5667 C   0  0  0  0  0  0  0  0  0  0  0  0
  -32.0821  -12.3964   23.6919 C   0  0  0  0  0  0  0  0  0  0  0  0
  -28.4877  -22.2931   16.0597 C   0  0  0  0  0  0  0  0  0  0  0  0
  -30.0231  -13.6166   23.0942 C   0  0  0  0  0  0  0  0  0  0  0  0
  -32.5314  -17.9633   22.6627 C   0  0  0  0  0  0  0  0  0  1  0  0
  -29.2430  -25.6426   19.6715 C   0  0  1  0  0  0  0  0  0  0  0  0
  -27.1776  -24.2881   16.7959 C   0  0  2  0  0  0  0  0  0  0  0  0
  -28.7831  -26.9040   20.4556 C   0  0  0  0  0  0  0  0  0  0  0  0
  -25.9427  -11.5377   20.5512 N   0  0  0  0  0  0  0  0  0  0  0  0
  -26.3333  -12.8178   20.4289 N   0  0  0  0  0  0  0  0  0  0  0  0
  -31.5033  -24.6491   19.8383 N   0  0  0  0  0  0  0  0  0  0  0  0
  -30.1341  -12.3641   20.5075 N   0  0  0  0  0  0  0  0  0  0  0  0
  -25.5392  -15.0486   20.4858 N   0  0  0  0  0  0  0  0  0  0  0  0
  -21.8244  -12.6002   21.2613 N   0  0  0  0  0  0  0  0  0  0  0  0
  -34.1006  -26.5632   20.8181 N   0  0  0  0  0  0  0  0  0  0  0  0
  -28.5318  -25.4273   18.4160 N   0  0  0  0  0  0  0  0  0  0  0  0
  -31.0268  -12.6245   22.7150 N   0  0  0  0  0  0  0  0  0  0  0  0
  -27.1481  -22.9165   16.2139 N   0  3  0  0  0  0  0  0  0  0  0  0
  -22.6307  -14.7325   21.0124 O   0  0  0  0  0  0  0  0  0  0  0  0
  -33.3208  -24.7409   22.0402 O   0  0  0  0  0  0  0  0  0  0  0  0
  -31.1385  -26.5998   18.6143 O   0  0  0  0  0  0  0  0  0  0  0  0
  -27.7281  -23.3157   18.9380 O   0  0  0  0  0  0  0  0  0  0  0  0
  -32.1772  -11.4659   21.0882 O   0  0  0  0  0  0  0  0  0  0  0  0
  -21.5406   -7.0433   21.5363 O   0  0  0  0  0  0  0  0  0  0  0  0
  -31.6857  -19.1060   22.5390 O   0  0  0  0  0  0  0  0  0  1  0  0
  -16.6900   -6.7606   18.9293 F   0  0  0  0  0  0  0  0  0  0  0  0
  -21.0184   -5.0188   19.7275 F   0  0  0  0  0  0  0  0  0  0  0  0
  -32.4327  -18.4855   25.6652 Cl  0  0  0  0  0  0  0  0  0  0  0  0
  -31.3801  -15.5806   21.1891 Cl  0  0  0  0  0  0  0  0  0  0  0  0
  1  2  1  0  0  0  0
  1  5  2  0  0  0  0
  2  6  2  0  0  0  0
  3  9  2  0  0  0  0
  3 17  1  0  0  0  0
  4 10  1  0  0  0  0
  4 17  2  0  0  0  0
  5 19  1  0  0  0  0
  6 21  1  0  0  0  0
  7 11  2  0  0  0  0
  7 20  1  0  0  0  0
  8 14  1  0  0  0  0
  8 23  2  0  0  0  0
  9 25  1  0  0  0  0
 10 25  2  0  0  0  0
 11 26  1  0  0  0  0
 12 13  2  0  0  0  0
 12 27  1  0  0  0  0
 13 28  1  0  0  0  0
 14 30  2  0  0  0  0
 15 22  1  0  0  0  0
 15 26  2  0  0  0  0
 16 28  2  0  0  0  0
 16 29  1  0  0  0  0
 17 32  1  0  0  0  0
 18 32  1  0  0  0  0
 18 33  2  0  0  0  0
 18 34  1  0  0  0  0
 19 21  2  0  0  0  0
 19 39  1  0  0  0  0
 20 22  2  0  0  0  0
 20 40  1  0  0  0  0
 21 48  1  0  0  0  0
 22 41  1  0  0  0  0
 23 31  1  0  0  0  0
 23 57  1  0  0  0  0
 24 30  1  0  0  0  0
 24 31  2  0  0  0  0
 24 58  1  0  0  0  0
 25 77  1  0  0  0  0
 26 78  1  0  0  0  0
 27 29  2  0  0  0  0
 27 77  1  0  0  0  0
 28 79  1  0  0  0  0
 29 80  1  0  0  0  0
 30 81  1  0  0  0  0
 31 82  1  0  0  0  0
 32 62  2  0  0  0  0
 33 63  1  0  0  0  0
 33 66  1  0  0  0  0
 34 67  1  0  0  0  0
 34 72  2  0  0  0  0
 35 49  1  0  0  0  0
 35 68  1  0  0  0  0
 35 73  2  0  0  0  0
 36 59  1  0  0  0  0
 36 64  1  0  0  0  0
 36 74  2  0  0  0  0
 37 60  1  0  0  0  0
 37 69  1  0  0  0  0
 37 75  2  0  0  0  0
 38 65  1  0  0  0  0
 38 70  1  0  0  0  0
 38 76  2  0  0  0  0
 39 42  1  0  0  0  0
 40 49  1  0  0  0  0
 41 64  1  0  0  0  0
 42 44  1  0  0  0  0
 43 45  1  0  0  0  0
 43 46  1  0  0  0  0
 44 48  1  0  0  0  0
 45 50  1  0  0  0  0
 46 65  1  0  0  0  0
 47 50  1  0  0  0  0
 47 65  1  0  0  0  0
 48 68  1  0  0  0  0
 49 64  1  0  0  0  0
 50 63  1  0  0  0  0
 51 60  1  0  0  0  0
 52 61  1  0  0  0  0
 53 61  1  0  0  0  0
 54 61  1  0  0  0  0
 55 70  1  0  0  0  0
 56 71  1  0  0  0  0
 57 70  1  0  0  0  0
 58 78  1  0  0  0  0
 59 61  1  0  0  0  0
 59 69  1  0  0  0  0
 60 71  1  0  0  0  0
 62 63  1  0  0  0  0
M  CHG  1  71   1
M  ISO  4  38 100  58 101  70 100  78 101
M  END
> <Batch ID>
0018

> <Smiles>
CNC(C)C(=O)NC(C(=O)N1Cc2cc([101O:1][101CH2:1]c3c(Cl)ccc(C[100N:0](C)[100C:0](=O)N4CCCC(n5nc(-c6ccc(Oc7ccc(F)cc7F)cc6)c(C(N)=O)c5N)C4)c3Cl)ccc2CC1C(=O)NC1CCCc2ccccc21)C(C)(C)C

> <Shape>
0.188

> <Color>
0.189

> <Negative vol penalty>
0.000

$$$$

  -OEChem-04052316043D

 79 86  0     1  0  0  0  0  0999 V2000
  -28.2661  -11.3489   19.5614 C   0  0  0  0  0  0  0  0  0  0  0  0
  -27.6351  -12.1327   20.5221 C   0  0  0  0  0  0  0  0  0  0  0  0
  -23.9223  -32.7943   20.9403 C   0  0  0  0  0  0  0  0  0  0  0  0
  -25.3112  -31.4282   22.3692 C   0  0  0  0  0  0  0  0  0  0  0  0
  -29.4345  -11.8028   18.9508 C   0  0  0  0  0  0  0  0  0  0  0  0
  -28.1727  -13.3704   20.8735 C   0  0  0  0  0  0  0  0  0  0  0  0
  -24.6552  -17.0010   21.1756 C   0  0  0  0  0  0  0  0  0  0  0  0
  -24.6050  -33.9337   21.3660 C   0  0  0  0  0  0  0  0  0  0  0  0
  -25.9939  -32.5677   22.7950 C   0  0  0  0  0  0  0  0  0  0  0  0
  -23.8640  -17.0270   22.3232 C   0  0  0  0  0  0  0  0  0  0  0  0
  -27.8644  -35.1565   24.5298 C   0  0  0  0  0  0  0  0  0  0  0  0
  -28.1128  -35.2910   25.8957 C   0  0  0  0  0  0  0  0  0  0  0  0
  -25.2363  -18.7957   23.2221 C   0  0  0  0  0  0  0  0  0  0  0  0
  -25.7370  -35.2451   26.3323 C   0  0  0  0  0  0  0  0  0  0  0  0
  -24.2754  -31.5415   21.4419 C   0  0  0  0  0  0  0  0  0  0  0  0
  -23.8897  -29.5414   19.9063 C   0  0  0  0  0  0  0  0  0  0  0  0
  -29.9813  -13.0510   19.2878 C   0  0  0  0  0  0  0  0  0  0  0  0
  -25.7514  -17.8661   21.0471 C   0  0  0  0  0  0  0  0  0  0  0  0
  -29.3502  -13.8408   20.2677 C   0  0  0  0  0  0  0  0  0  0  0  0
  -26.0383  -18.7804   22.0707 C   0  0  0  0  0  0  0  0  0  0  0  0
  -25.6408  -33.8204   22.2933 C   0  0  0  0  0  0  0  0  0  0  0  0
  -24.1561  -17.9224   23.3479 C   0  0  0  0  0  0  0  0  0  0  0  0
  -26.5522  -35.0664   24.0651 C   0  0  0  0  0  0  0  0  0  0  0  0
  -27.0492  -35.3352   26.7970 C   0  0  0  0  0  0  0  0  0  0  0  0
  -25.4886  -35.1106   24.9664 C   0  0  0  0  0  0  0  0  0  0  0  0
  -23.5702  -30.3642   21.0030 C   0  0  0  0  0  0  0  0  0  0  0  0
  -22.9225  -28.5662   19.9155 C   0  0  0  0  0  0  0  0  0  0  0  0
  -24.9646  -29.6489   18.9636 C   0  0  0  0  0  0  0  0  0  0  0  0
  -28.8902  -17.4778   20.7297 C   0  0  0  0  0  0  0  0  0  0  0  0
  -21.2673  -19.8078   25.3115 C   0  0  0  0  0  0  0  0  0  0  0  0
  -28.8551  -20.6971   20.3327 C   0  0  0  0  0  0  0  0  0  0  0  0
  -27.2681  -23.6673   20.8859 C   0  0  0  0  0  0  0  0  0  0  0  0
  -20.0330  -24.8193   22.7017 C   0  0  0  0  0  0  0  0  0  0  0  0
  -31.2720  -13.4783   18.6349 C   0  0  0  0  0  0  0  0  0  0  0  0
  -26.5790  -17.8440   19.7914 C   0  0  0  0  0  0  0  0  0  0  0  0
  -27.1917  -19.7441   21.9729 C   0  0  0  0  0  0  0  0  0  0  0  0
  -31.5707  -14.9670   18.7926 C   0  0  0  0  0  0  0  0  0  0  0  0
  -18.6142  -28.2022   22.4987 C   0  0  0  0  0  0  0  0  0  0  0  0
  -31.3490  -15.4059   20.2366 C   0  0  0  0  0  0  0  0  0  0  0  0
  -19.8339  -29.0053   22.0591 C   0  0  0  0  0  0  0  0  0  0  0  0
  -18.9849  -27.0366   23.4163 C   0  0  0  0  0  0  0  0  0  0  0  0
  -21.2522  -26.9520   22.4041 C   0  0  0  0  0  0  0  0  0  0  0  0
  -29.8890  -15.2001   20.6578 C   0  0  1  0  0  0  0  0  0  0  0  0
  -27.9796  -18.4157   19.9887 C   0  0  1  0  0  0  0  0  0  0  0  0
  -20.8885  -28.0821   21.4309 C   0  0  2  0  0  0  0  0  0  0  0  0
  -27.5010  -26.1318   20.4743 C   0  0  0  0  0  0  0  0  0  0  0  0
  -30.9432  -20.8678   22.5509 C   0  0  0  0  0  0  0  0  0  0  0  0
  -30.4345  -23.3114   22.7462 C   0  0  0  0  0  0  0  0  0  0  0  0
  -31.3512  -22.3966   20.6142 C   0  0  0  0  0  0  0  0  0  0  0  0
  -24.7714  -23.7560   19.2993 C   0  0  0  0  0  0  0  0  0  0  0  0
  -20.2039  -20.4698   24.4479 C   0  0  0  0  0  0  0  0  0  0  0  0
  -21.1899  -18.2891   25.3943 C   0  0  0  0  0  0  0  0  0  0  0  0
  -20.3164  -21.9945   24.4451 C   0  0  0  0  0  0  0  0  0  0  0  0
  -19.2116  -22.6601   23.6313 C   0  0  0  0  0  0  0  0  0  0  0  0
  -22.0126  -17.5900   24.3229 C   0  0  0  0  0  0  0  0  0  1  0  0
  -28.9583  -21.8890   21.2534 C   0  0  1  0  0  0  0  0  0  0  0  0
  -26.9340  -24.8194   19.9556 C   0  0  2  0  0  0  0  0  0  0  0  0
  -30.4012  -22.0968   21.7942 C   0  0  0  0  0  0  0  0  0  0  0  0
  -22.4849  -29.9481   21.6609 N   0  0  0  0  0  0  0  0  0  0  0  0
  -22.1139  -28.8532   20.9756 N   0  0  0  0  0  0  0  0  0  0  0  0
  -27.9752  -19.6796   20.7281 N   0  0  0  0  0  0  0  0  0  0  0  0
  -20.0646  -26.2152   22.8509 N   0  0  0  0  0  0  0  0  0  0  0  0
  -22.6934  -27.4998   19.1200 N   0  0  0  0  0  0  0  0  0  0  0  0
  -25.8685  -30.7113   19.0993 N   0  0  0  0  0  0  0  0  0  0  0  0
  -29.0538  -16.2506   20.1161 N   0  0  0  0  0  0  0  0  0  0  0  0
  -28.4295  -23.0268   20.5090 N   0  0  0  0  0  0  0  0  0  0  0  0
  -19.3034  -24.1039   23.6468 N   0  0  0  0  0  0  0  0  0  0  0  0
  -25.4569  -24.9658   19.8221 N   0  3  0  0  0  0  0  0  0  0  0  0
  -25.1093  -28.8366   18.0187 O   0  0  0  0  0  0  0  0  0  0  0  0
  -29.4073  -17.8413   21.7795 O   0  0  0  0  0  0  0  0  0  0  0  0
  -22.1322  -20.4558   25.8987 O   0  0  0  0  0  0  0  0  0  0  0  0
  -29.5249  -20.6730   19.2971 O   0  0  0  0  0  0  0  0  0  0  0  0
  -26.5707  -23.3680   21.8526 O   0  0  0  0  0  0  0  0  0  0  0  0
  -20.6440  -24.2430   21.7936 O   0  0  0  0  0  0  0  0  0  0  0  0
  -26.3073  -34.9321   22.7088 O   0  0  0  0  0  0  0  0  0  0  0  0
  -23.3858  -17.9494   24.4694 O   0  0  0  0  0  0  0  0  0  1  0  0
  -27.2879  -35.4628   28.1088 F   0  0  0  0  0  0  0  0  0  0  0  0
  -24.2259  -35.0233   24.5260 F   0  0  0  0  0  0  0  0  0  0  0  0
  -18.8838  -24.7143   24.8054 F   0  0  0  0  0  0  0  0  0  0  0  0
  1  2  1  0  0  0  0
  1  5  2  0  0  0  0
  2  6  2  0  0  0  0
  3  8  2  0  0  0  0
  3 15  1  0  0  0  0
  4  9  1  0  0  0  0
  4 15  2  0  0  0  0
  5 17  1  0  0  0  0
  6 19  1  0  0  0  0
  7 10  2  0  0  0  0
  7 18  1  0  0  0  0
  8 21  1  0  0  0  0
  9 21  2  0  0  0  0
 10 22  1  0  0  0  0
 11 12  2  0  0  0  0
 11 23  1  0  0  0  0
 12 24  1  0  0  0  0
 13 20  1  0  0  0  0
 13 22  2  0  0  0  0
 14 24  2  0  0  0  0
 14 25  1  0  0  0  0
 15 26  1  0  0  0  0
 16 26  1  0  0  0  0
 16 27  2  0  0  0  0
 16 28  1  0  0  0  0
 17 19  2  0  0  0  0
 17 34  1  0  0  0  0
 18 20  2  0  0  0  0
 18 35  1  0  0  0  0
 19 43  1  0  0  0  0
 20 36  1  0  0  0  0
 21 75  1  0  0  0  0
 22 76  1  0  0  0  0
 23 25  2  0  0  0  0
 23 75  1  0  0  0  0
 24 77  1  0  0  0  0
 25 78  1  0  0  0  0
 26 59  2  0  0  0  0
 27 60  1  0  0  0  0
 27 63  1  0  0  0  0
 28 64  1  0  0  0  0
 28 69  2  0  0  0  0
 29 44  1  0  0  0  0
 29 65  1  0  0  0  0
 29 70  2  0  0  0  0
 30 51  1  0  0  0  0
 30 52  1  0  0  0  0
 30 71  2  0  0  0  0
 31 56  1  0  0  0  0
 31 61  1  0  0  0  0
 31 72  2  0  0  0  0
 32 57  1  0  0  0  0
 32 66  1  0  0  0  0
 32 73  2  0  0  0  0
 33 62  1  0  0  0  0
 33 67  1  0  0  0  0
 33 74  2  0  0  0  0
 34 37  1  0  0  0  0
 35 44  1  0  0  0  0
 36 61  1  0  0  0  0
 37 39  1  0  0  0  0
 38 40  1  0  0  0  0
 38 41  1  0  0  0  0
 39 43  1  0  0  0  0
 40 45  1  0  0  0  0
 41 62  1  0  0  0  0
 42 45  1  0  0  0  0
 42 62  1  0  0  0  0
 43 65  1  0  0  0  0
 44 61  1  0  0  0  0
 45 60  1  0  0  0  0
 46 57  1  0  0  0  0
 47 58  1  0  0  0  0
 48 58  1  0  0  0  0
 49 58  1  0  0  0  0
 50 68  1  0  0  0  0
 51 53  1  0  0  0  0
 52 55  1  0  0  0  0
 53 54  1  0  0  0  0
 54 67  1  0  0  0  0
 55 76  1  0  0  0  0
 56 58  1  0  0  0  0
 56 66  1  0  0  0  0
 57 68  1  0  0  0  0
 59 60  1  0  0  0  0
 67 79  1  0  0  0  0
M  CHG  1  68   1
M  ISO  4  33 100  55 101  67 100  76 101
M  END
> <Batch ID>
0018

> <Smiles>
CNC(C)C(=O)NC(C(=O)N1Cc2cc([101O:1][101CH2:1]CC(=O)CCC[100N:0](F)[100C:0](=O)N3CCCC(n4nc(-c5ccc(Oc6ccc(F)cc6F)cc5)c(C(N)=O)c4N)C3)ccc2CC1C(=O)NC1CCCc2ccccc21)C(C)(C)C

> <Shape>
0.243

> <Color>
0.061

> <Negative vol penalty>
0.000

$$$$

  -OEChem-04052316043D

 82 90  0     1  0  0  0  0  0999 V2000
  -27.9314  -35.2450   24.7322 C   0  0  0  0  0  0  0  0  0  0  0  0
  -28.7191  -34.1978   24.2652 C   0  0  0  0  0  0  0  0  0  0  0  0
  -24.2981   -9.5463   21.4825 C   0  0  0  0  0  0  0  0  0  0  0  0
  -24.7879  -10.6722   23.5633 C   0  0  0  0  0  0  0  0  0  0  0  0
  -26.5799  -35.0329   25.0014 C   0  0  0  0  0  0  0  0  0  0  0  0
  -28.1561  -32.9374   24.0680 C   0  0  0  0  0  0  0  0  0  0  0  0
  -28.6832  -27.1887   19.8264 C   0  0  0  0  0  0  0  0  0  0  0  0
  -23.9237   -8.4034   22.1890 C   0  0  0  0  0  0  0  0  0  0  0  0
  -24.4134   -9.5293   24.2698 C   0  0  0  0  0  0  0  0  0  0  0  0
  -28.8346  -25.8049   19.9018 C   0  0  0  0  0  0  0  0  0  0  0  0
  -22.4956   -5.3112   23.4595 C   0  0  0  0  0  0  0  0  0  0  0  0
  -21.3230   -4.6636   23.0707 C   0  0  0  0  0  0  0  0  0  0  0  0
  -26.4709  -25.5753   20.3250 C   0  0  0  0  0  0  0  0  0  0  0  0
  -20.0603   -6.6697   23.5377 C   0  0  0  0  0  0  0  0  0  0  0  0
  -24.7303  -10.6807   22.1696 C   0  0  0  0  0  0  0  0  0  0  0  0
  -24.2897  -12.9329   21.0557 C   0  0  0  0  0  0  0  0  0  0  0  0
  -25.9978  -33.7717   24.7983 C   0  0  0  0  0  0  0  0  0  0  0  0
  -27.4242  -27.7781   20.0109 C   0  0  0  0  0  0  0  0  0  0  0  0
  -26.7959  -32.7079   24.3360 C   0  0  0  0  0  0  0  0  0  0  0  0
  -26.3056  -26.9667   20.2489 C   0  0  0  0  0  0  0  0  0  0  0  0
  -28.9973  -21.0066   21.3704 C   0  0  0  0  0  0  0  0  0  0  0  0
  -29.2248  -20.8553   18.9700 C   0  0  0  0  0  0  0  0  0  0  0  0
  -29.1360  -21.6267   20.1287 C   0  0  0  0  0  0  0  0  0  0  0  0
  -28.9475  -19.6150   21.4534 C   0  0  0  0  0  0  0  0  0  0  0  0
  -29.1748  -19.4638   19.0529 C   0  0  0  0  0  0  0  0  0  0  0  0
  -29.0362  -18.8436   20.2946 C   0  0  0  0  0  0  0  0  0  0  0  0
  -23.9813   -8.3949   23.5826 C   0  0  0  0  0  0  0  0  0  0  0  0
  -27.7289  -24.9981   20.1540 C   0  0  0  0  0  0  0  0  0  0  0  0
  -22.4506   -6.6381   23.8875 C   0  0  0  0  0  0  0  0  0  0  0  0
  -20.1054   -5.3428   23.1098 C   0  0  0  0  0  0  0  0  0  0  0  0
  -21.2329   -7.3173   23.9266 C   0  0  0  0  0  0  0  0  0  0  0  0
  -25.1178  -11.8614   21.4404 C   0  0  0  0  0  0  0  0  0  0  0  0
  -25.1291  -13.7947   20.3928 C   0  0  0  0  0  0  0  0  0  0  0  0
  -22.8873  -13.1316   21.2778 C   0  0  0  0  0  0  0  0  0  0  0  0
  -26.1901  -29.8225   22.1088 C   0  0  0  0  0  0  0  0  0  0  0  0
  -23.6143  -29.6821   20.1421 C   0  0  0  0  0  0  0  0  0  0  0  0
  -21.8521  -27.9394   17.7959 C   0  0  0  0  0  0  0  0  0  0  0  0
  -29.9639  -16.5240   19.9704 C   0  0  0  0  0  0  0  0  0  0  0  0
  -24.5435  -33.5786   25.1482 C   0  0  0  0  0  0  0  0  0  0  0  0
  -27.2728  -29.2704   19.9000 C   0  0  0  0  0  0  0  0  0  0  0  0
  -24.9288  -27.5485   20.4341 C   0  0  0  0  0  0  0  0  0  0  0  0
  -23.9382  -32.3082   24.5566 C   0  0  0  0  0  0  0  0  0  0  0  0
  -29.8856  -13.1699   18.7783 C   0  0  0  0  0  0  0  0  0  0  0  0
  -24.8665  -31.1191   24.7825 C   0  0  0  0  0  0  0  0  0  0  0  0
  -28.5701  -12.6187   19.3329 C   0  0  0  0  0  0  0  0  0  0  0  0
  -30.5623  -14.1211   19.7637 C   0  0  0  0  0  0  0  0  0  0  0  0
  -28.3980  -14.6635   20.8081 C   0  0  0  0  0  0  0  0  0  0  0  0
  -26.2159  -31.3326   24.0861 C   0  0  1  0  0  0  0  0  0  0  0  0
  -26.0334  -29.8001   20.6146 C   0  0  1  0  0  0  0  0  0  0  0  0
  -27.6472  -13.7510   19.8245 C   0  0  2  0  0  0  0  0  0  0  0  0
  -28.9012  -21.8347   22.6129 C   0  0  0  0  0  0  0  0  0  0  0  0
  -29.3720  -21.5211   17.6377 C   0  0  0  0  0  0  0  0  0  0  0  0
  -28.7987  -18.9539   22.7886 C   0  0  0  0  0  0  0  0  0  0  0  0
  -29.2704  -18.6397   17.8066 C   0  0  0  0  0  0  0  0  0  0  0  0
  -19.7680  -28.0637   16.4035 C   0  0  0  0  0  0  0  0  0  0  0  0
  -21.9375  -28.9834   22.5937 C   0  0  0  0  0  0  0  0  0  0  0  0
  -20.1293  -28.2026   21.0481 C   0  0  0  0  0  0  0  0  0  0  0  0
  -20.8541  -30.5892   21.0120 C   0  0  0  0  0  0  0  0  0  0  0  0
  -23.3946  -27.8573   15.2715 C   0  0  0  0  0  0  0  0  0  0  0  0
  -29.1879  -23.1235   20.0388 C   0  0  0  0  0  0  0  0  0  1  0  0
  -22.3811  -28.8156   20.0558 C   0  0  1  0  0  0  0  0  0  0  0  0
  -21.2583  -28.3606   16.4638 C   0  0  2  0  0  0  0  0  0  0  0  0
  -21.3516  -29.1366   21.1759 C   0  0  0  0  0  0  0  0  0  0  0  0
  -26.3858  -12.0251   21.0539 N   0  0  0  0  0  0  0  0  0  0  0  0
  -26.3608  -13.2096   20.4194 N   0  0  0  0  0  0  0  0  0  0  0  0
  -24.8333  -29.0134   20.3228 N   0  0  0  0  0  0  0  0  0  0  0  0
  -29.6295  -15.1697   20.1822 N   0  0  0  0  0  0  0  0  0  0  0  0
  -24.9263  -14.9883   19.7956 N   0  0  0  0  0  0  0  0  0  0  0  0
  -22.1755  -12.1473   21.9770 N   0  0  0  0  0  0  0  0  0  0  0  0
  -28.9858  -17.4301   20.3790 N   0  0  0  0  0  0  0  0  0  0  0  0
  -26.0964  -31.0838   22.6654 N   0  0  0  0  0  0  0  0  0  0  0  0
  -21.8617  -28.9785   18.7023 N   0  0  0  0  0  0  0  0  0  0  0  0
  -21.9274  -27.6365   15.3463 N   0  3  0  0  0  0  0  0  0  0  0  0
  -22.2798  -14.1440   20.8540 O   0  0  0  0  0  0  0  0  0  0  0  0
  -26.3803  -28.7730   22.7121 O   0  0  0  0  0  0  0  0  0  0  0  0
  -23.5009  -30.9066   20.0454 O   0  0  0  0  0  0  0  0  0  0  0  0
  -22.2626  -26.8013   18.0122 O   0  0  0  0  0  0  0  0  0  0  0  0
  -31.0270  -16.8545   19.4388 O   0  0  0  0  0  0  0  0  0  0  0  0
  -23.6158   -7.2799   24.2724 O   0  0  0  0  0  0  0  0  0  0  0  0
  -27.8741  -23.6471   20.2288 O   0  0  0  0  0  0  0  0  0  1  0  0
  -18.9796   -4.7213   22.7350 F   0  0  0  0  0  0  0  0  0  0  0  0
  -21.1835   -8.5925   24.3357 F   0  0  0  0  0  0  0  0  0  0  0  0
  1  2  1  0  0  0  0
  1  5  2  0  0  0  0
  2  6  2  0  0  0  0
  3  8  2  0  0  0  0
  3 15  1  0  0  0  0
  4  9  1  0  0  0  0
  4 15  2  0  0  0  0
  5 17  1  0  0  0  0
  6 19  1  0  0  0  0
  7 10  2  0  0  0  0
  7 18  1  0  0  0  0
  8 27  1  0  0  0  0
  9 27  2  0  0  0  0
 10 28  1  0  0  0  0
 11 12  2  0  0  0  0
 11 29  1  0  0  0  0
 12 30  1  0  0  0  0
 13 20  1  0  0  0  0
 13 28  2  0  0  0  0
 14 30  2  0  0  0  0
 14 31  1  0  0  0  0
 15 32  1  0  0  0  0
 16 32  1  0  0  0  0
 16 33  2  0  0  0  0
 16 34  1  0  0  0  0
 17 19  2  0  0  0  0
 17 39  1  0  0  0  0
 18 20  2  0  0  0  0
 18 40  1  0  0  0  0
 19 48  1  0  0  0  0
 20 41  1  0  0  0  0
 21 23  1  0  0  0  0
 21 24  2  0  0  0  0
 21 51  1  0  0  0  0
 22 23  2  0  0  0  0
 22 25  1  0  0  0  0
 22 52  1  0  0  0  0
 23 60  1  0  0  0  0
 24 26  1  0  0  0  0
 24 53  1  0  0  0  0
 25 26  2  0  0  0  0
 25 54  1  0  0  0  0
 26 70  1  0  0  0  0
 27 79  1  0  0  0  0
 28 80  1  0  0  0  0
 29 31  2  0  0  0  0
 29 79  1  0  0  0  0
 30 81  1  0  0  0  0
 31 82  1  0  0  0  0
 32 64  2  0  0  0  0
 33 65  1  0  0  0  0
 33 68  1  0  0  0  0
 34 69  1  0  0  0  0
 34 74  2  0  0  0  0
 35 49  1  0  0  0  0
 35 71  1  0  0  0  0
 35 75  2  0  0  0  0
 36 61  1  0  0  0  0
 36 66  1  0  0  0  0
 36 76  2  0  0  0  0
 37 62  1  0  0  0  0
 37 72  1  0  0  0  0
 37 77  2  0  0  0  0
 38 67  1  0  0  0  0
 38 70  1  0  0  0  0
 38 78  2  0  0  0  0
 39 42  1  0  0  0  0
 40 49  1  0  0  0  0
 41 66  1  0  0  0  0
 42 44  1  0  0  0  0
 43 45  1  0  0  0  0
 43 46  1  0  0  0  0
 44 48  1  0  0  0  0
 45 50  1  0  0  0  0
 46 67  1  0  0  0  0
 47 50  1  0  0  0  0
 47 67  1  0  0  0  0
 48 71  1  0  0  0  0
 49 66  1  0  0  0  0
 50 65  1  0  0  0  0
 55 62  1  0  0  0  0
 56 63  1  0  0  0  0
 57 63  1  0  0  0  0
 58 63  1  0  0  0  0
 59 73  1  0  0  0  0
 60 80  1  0  0  0  0
 61 63  1  0  0  0  0
 61 72  1  0  0  0  0
 62 73  1  0  0  0  0
 64 65  1  0  0  0  0
M  CHG  1  73   1
M  ISO  4  38 100  60 101  70 100  80 101
M  END
> <Batch ID>
0018

> <Smiles>
CNC(C)C(=O)NC(C(=O)N1Cc2cc([101O:1][101CH2:1]c3c(C)c(C)c([100NH:0][100C:0](=O)N4CCCC(n5nc(-c6ccc(Oc7ccc(F)cc7F)cc6)c(C(N)=O)c5N)C4)c(C)c3C)ccc2CC1C(=O)NC1CCCc2ccccc21)C(C)(C)C

> <Shape>
0.361

> <Color>
0.123

> <Negative vol penalty>
0.000

$$$$

  -OEChem-04052316043D

 86 94  0     1  0  0  0  0  0999 V2000
  -16.7755  -28.5367   23.7903 C   0  0  0  0  0  0  0  0  0  0  0  0
  -17.4350  -27.8659   22.7653 C   0  0  0  0  0  0  0  0  0  0  0  0
  -28.5170  -14.2035   18.6546 C   0  0  0  0  0  0  0  0  0  0  0  0
  -28.8949  -13.4165   20.9074 C   0  0  0  0  0  0  0  0  0  0  0  0
  -17.2802  -29.7451   24.2688 C   0  0  0  0  0  0  0  0  0  0  0  0
  -18.5990  -28.4038   22.2175 C   0  0  0  0  0  0  0  0  0  0  0  0
  -22.2390  -24.9370   21.6031 C   0  0  0  0  0  0  0  0  0  0  0  0
  -28.8435  -12.9413   18.1589 C   0  0  0  0  0  0  0  0  0  0  0  0
  -29.2215  -12.1543   20.4116 C   0  0  0  0  0  0  0  0  0  0  0  0
  -22.1263  -24.0830   20.5069 C   0  0  0  0  0  0  0  0  0  0  0  0
  -27.3454   -9.9271   17.8378 C   0  0  0  0  0  0  0  0  0  0  0  0
  -26.5214   -9.3849   16.8516 C   0  0  0  0  0  0  0  0  0  0  0  0
  -23.7202  -25.4323   19.2995 C   0  0  0  0  0  0  0  0  0  0  0  0
  -27.3111  -21.7731   19.6176 C   0  0  0  0  0  0  0  0  0  0  0  0
  -28.4011   -9.2825   15.3372 C   0  0  0  0  0  0  0  0  0  0  0  0
  -28.5427  -14.4411   20.0289 C   0  0  0  0  0  0  0  0  0  0  0  0
  -26.9305  -16.2073   20.9173 C   0  0  0  0  0  0  0  0  0  0  0  0
  -18.4563  -30.2932   23.7331 C   0  0  0  0  0  0  0  0  0  0  0  0
  -23.0863  -26.0532   21.5517 C   0  0  0  0  0  0  0  0  0  0  0  0
  -19.1192  -29.6213   22.6884 C   0  0  0  0  0  0  0  0  0  0  0  0
  -23.8438  -26.2976   20.3973 C   0  0  0  0  0  0  0  0  0  0  0  0
  -26.7618  -20.9231   18.6577 C   0  0  0  0  0  0  0  0  0  0  0  0
  -29.5174  -21.3529   18.7272 C   0  0  0  0  0  0  0  0  0  0  0  0
  -29.1958  -11.9167   19.0374 C   0  0  0  0  0  0  0  0  0  0  0  0
  -22.8648  -24.3321   19.3538 C   0  0  0  0  0  0  0  0  0  0  0  0
  -28.6973  -10.1472   17.5736 C   0  0  0  0  0  0  0  0  0  0  0  0
  -27.0492   -9.0626   15.6014 C   0  0  0  0  0  0  0  0  0  0  0  0
  -29.2251   -9.8248   16.3234 C   0  0  0  0  0  0  0  0  0  0  0  0
  -28.6889  -21.9880   19.6523 C   0  0  0  0  0  0  0  0  0  0  0  0
  -27.5903  -20.2880   17.7326 C   0  0  0  0  0  0  0  0  0  0  0  0
  -28.9681  -20.5028   17.7673 C   0  0  0  0  0  0  0  0  0  0  0  0
  -28.2060  -15.7449   20.5416 C   0  0  0  0  0  0  0  0  0  0  0  0
  -27.1424  -17.4988   21.3338 C   0  0  0  0  0  0  0  0  0  0  0  0
  -25.6671  -15.5298   20.8921 C   0  0  0  0  0  0  0  0  0  0  0  0
  -22.6683  -29.1979   21.7517 C   0  0  0  0  0  0  0  0  0  0  0  0
  -25.9114  -29.2398   21.6997 C   0  0  0  0  0  0  0  0  0  0  0  0
  -28.8155  -27.6749   20.8255 C   0  0  0  0  0  0  0  0  0  0  0  0
  -31.7388  -21.2751   19.8894 C   0  0  0  0  0  0  0  0  0  0  0  0
  -18.9375  -31.6256   24.2506 C   0  0  0  0  0  0  0  0  0  0  0  0
  -23.2168  -26.9498   22.7523 C   0  0  0  0  0  0  0  0  0  0  0  0
  -24.7831  -27.4708   20.2987 C   0  0  0  0  0  0  0  0  0  0  0  0
  -20.3825  -31.9402   23.8722 C   0  0  0  0  0  0  0  0  0  0  0  0
  -30.4764  -20.3441   23.2409 C   0  0  0  0  0  0  0  0  0  0  0  0
  -20.6240  -31.6451   22.3953 C   0  0  0  0  0  0  0  0  0  0  0  0
  -29.7125  -19.0497   22.9682 C   0  0  0  0  0  0  0  0  0  0  0  0
  -31.6192  -20.5467   22.2506 C   0  0  0  0  0  0  0  0  0  0  0  0
  -30.4185  -19.2052   20.5476 C   0  0  0  0  0  0  0  0  0  0  0  0
  -20.3982  -30.1603   22.0853 C   0  0  1  0  0  0  0  0  0  0  0  0
  -23.7212  -28.3465   22.4030 C   0  0  1  0  0  0  0  0  0  0  0  0
  -29.2369  -18.9982   21.5069 C   0  0  1  0  0  0  0  0  0  0  0  0
  -31.2871  -27.2685   20.6737 C   0  0  0  0  0  0  0  0  0  0  0  0
  -22.6349  -21.5269   16.1035 C   0  0  0  0  0  0  0  0  0  0  0  0
  -25.7240  -31.2023   19.3708 C   0  0  0  0  0  0  0  0  0  0  0  0
  -28.1293  -30.7250   18.8660 C   0  0  0  0  0  0  0  0  0  0  0  0
  -27.4941  -31.7447   21.0522 C   0  0  0  0  0  0  0  0  0  0  0  0
  -31.5360  -22.3963   17.7137 C   0  0  0  0  0  0  0  0  0  0  0  0
  -28.8429  -26.1751   23.3767 C   0  0  0  0  0  0  0  0  0  0  0  0
  -25.2747  -20.7250   18.6621 C   0  0  0  0  0  0  0  0  0  0  0  0
  -22.4543  -22.1317   18.5503 C   0  0  0  0  0  0  0  0  0  1  0  0
  -26.9625  -29.3113   20.6184 C   0  0  1  0  0  0  0  0  0  0  0  0
  -30.0924  -27.4133   21.6035 C   0  0  2  0  0  0  0  0  0  0  0  0
  -23.1136  -21.2277   17.5149 C   0  0  2  0  0  0  0  0  0  0  0  0
  -27.0584  -30.7247   19.9777 C   0  0  0  0  0  0  0  0  0  0  0  0
  -29.1577  -16.6678   20.7048 N   0  0  0  0  0  0  0  0  0  0  0  0
  -28.4798  -17.7230   21.1877 N   0  0  0  0  0  0  0  0  0  0  0  0
  -24.8712  -28.3219   21.4968 N   0  0  0  0  0  0  0  0  0  0  0  0
  -31.1624  -20.4353   20.8644 N   0  0  0  0  0  0  0  0  0  0  0  0
  -26.3133  -18.4533   21.8071 N   0  0  0  0  0  0  0  0  0  0  0  0
  -25.6282  -14.2054   20.4352 N   0  0  0  0  0  0  0  0  0  0  0  0
  -21.5334  -29.3750   22.5200 N   0  0  0  0  0  0  0  0  0  0  0  0
  -28.2045  -28.8447   21.2250 N   0  0  0  0  0  0  0  0  0  0  0  0
  -30.9412  -21.5806   18.7701 N   0  0  0  0  0  0  0  0  0  0  0  0
  -29.9648  -26.1621   22.4030 N   0  3  0  0  0  0  0  0  0  0  0  0
  -24.5879  -21.4497   17.5628 N   0  3  0  0  0  0  0  0  0  0  0  0
  -24.6017  -16.0879   21.2484 O   0  0  0  0  0  0  0  0  0  0  0  0
  -22.8711  -29.6611   20.6355 O   0  0  0  0  0  0  0  0  0  0  0  0
  -26.0136  -29.9664   22.6913 O   0  0  0  0  0  0  0  0  0  0  0  0
  -28.4032  -26.9191   19.9483 O   0  0  0  0  0  0  0  0  0  0  0  0
  -32.9041  -21.6806   19.9812 O   0  0  0  0  0  0  0  0  0  0  0  0
  -29.5143  -10.6848   18.5540 O   0  0  0  0  0  0  0  0  0  0  0  0
  -22.7563  -23.5004   18.2822 O   0  0  0  0  0  0  0  0  0  1  0  0
  -26.2581   -8.5404   14.6550 F   0  0  0  0  0  0  0  0  0  0  0  0
  -30.5233  -10.0329   16.0641 F   0  0  0  0  0  0  0  0  0  0  0  0
  -29.3206  -23.0503   20.8612 Cl  0  0  0  0  0  0  0  0  0  0  0  0
  -26.8729  -19.2364   16.5517 Cl  0  0  0  0  0  0  0  0  0  0  0  0
  -30.0180  -19.7202   16.6227 Cl  0  0  0  0  0  0  0  0  0  0  0  0
  1  2  1  0  0  0  0
  1  5  2  0  0  0  0
  2  6  2  0  0  0  0
  3  8  2  0  0  0  0
  3 16  1  0  0  0  0
  4  9  1  0  0  0  0
  4 16  2  0  0  0  0
  5 18  1  0  0  0  0
  6 20  1  0  0  0  0
  7 10  2  0  0  0  0
  7 19  1  0  0  0  0
  8 24  1  0  0  0  0
  9 24  2  0  0  0  0
 10 25  1  0  0  0  0
 11 12  2  0  0  0  0
 11 26  1  0  0  0  0
 12 27  1  0  0  0  0
 13 21  1  0  0  0  0
 13 25  2  0  0  0  0
 14 22  1  0  0  0  0
 14 29  2  0  0  0  0
 15 27  2  0  0  0  0
 15 28  1  0  0  0  0
 16 32  1  0  0  0  0
 17 32  1  0  0  0  0
 17 33  2  0  0  0  0
 17 34  1  0  0  0  0
 18 20  2  0  0  0  0
 18 39  1  0  0  0  0
 19 21  2  0  0  0  0
 19 40  1  0  0  0  0
 20 48  1  0  0  0  0
 21 41  1  0  0  0  0
 22 30  2  0  0  0  0
 22 58  1  0  0  0  0
 23 29  1  0  0  0  0
 23 31  2  0  0  0  0
 23 72  1  0  0  0  0
 24 80  1  0  0  0  0
 25 81  1  0  0  0  0
 26 28  2  0  0  0  0
 26 80  1  0  0  0  0
 27 82  1  0  0  0  0
 28 83  1  0  0  0  0
 29 84  1  0  0  0  0
 30 31  1  0  0  0  0
 30 85  1  0  0  0  0
 31 86  1  0  0  0  0
 32 64  2  0  0  0  0
 33 65  1  0  0  0  0
 33 68  1  0  0  0  0
 34 69  1  0  0  0  0
 34 75  2  0  0  0  0
 35 49  1  0  0  0  0
 35 70  1  0  0  0  0
 35 76  2  0  0  0  0
 36 60  1  0  0  0  0
 36 66  1  0  0  0  0
 36 77  2  0  0  0  0
 37 61  1  0  0  0  0
 37 71  1  0  0  0  0
 37 78  2  0  0  0  0
 38 67  1  0  0  0  0
 38 72  1  0  0  0  0
 38 79  2  0  0  0  0
 39 42  1  0  0  0  0
 40 49  1  0  0  0  0
 41 66  1  0  0  0  0
 42 44  1  0  0  0  0
 43 45  1  0  0  0  0
 43 46  1  0  0  0  0
 44 48  1  0  0  0  0
 45 50  1  0  0  0  0
 46 67  1  0  0  0  0
 47 50  1  0  0  0  0
 47 67  1  0  0  0  0
 48 70  1  0  0  0  0
 49 66  1  0  0  0  0
 50 65  1  0  0  0  0
 51 61  1  0  0  0  0
 52 62  1  0  0  0  0
 53 63  1  0  0  0  0
 54 63  1  0  0  0  0
 55 63  1  0  0  0  0
 56 72  1  0  0  0  0
 57 73  1  0  0  0  0
 58 74  1  0  0  0  0
 59 62  1  0  0  0  0
 59 81  1  0  0  0  0
 60 63  1  0  0  0  0
 60 71  1  0  0  0  0
 61 73  1  0  0  0  0
 62 74  1  0  0  0  0
 64 65  1  0  0  0  0
M  CHG  2  73   1  74   1
M  ISO  4  38 100  59 101  72 100  81 101
M  END
> <Batch ID>
0018

> <Smiles>
CNC(C)C(=O)NC(C(=O)N1Cc2cc([101O:1][101CH2:1]C(C)NCc3cc(Cl)c([100N:0](C)[100C:0](=O)N4CCCC(n5nc(-c6ccc(Oc7ccc(F)cc7F)cc6)c(C(N)=O)c5N)C4)c(Cl)c3Cl)ccc2CC1C(=O)NC1CCCc2ccccc21)C(C)(C)C

> <Shape>
0.234

> <Color>
0.081

> <Negative vol penalty>
0.000

$$$$

  -OEChem-04052316043D

 82 90  0     1  0  0  0  0  0999 V2000
  -44.5880  -26.1198   26.6973 C   0  0  0  0  0  0  0  0  0  0  0  0
  -44.0510  -24.8679   26.4149 C   0  0  0  0  0  0  0  0  0  0  0  0
  -23.0755   -9.8682   19.9406 C   0  0  0  0  0  0  0  0  0  0  0  0
  -23.8350   -9.8748   22.2341 C   0  0  0  0  0  0  0  0  0  0  0  0
  -43.7429  -27.2107   26.8966 C   0  0  0  0  0  0  0  0  0  0  0  0
  -42.6684  -24.7060   26.3326 C   0  0  0  0  0  0  0  0  0  0  0  0
  -37.6897  -20.9023   22.8598 C   0  0  0  0  0  0  0  0  0  0  0  0
  -22.3313   -8.7152   20.1904 C   0  0  0  0  0  0  0  0  0  0  0  0
  -23.0908   -8.7218   22.4839 C   0  0  0  0  0  0  0  0  0  0  0  0
  -36.5799  -20.0967   23.1114 C   0  0  0  0  0  0  0  0  0  0  0  0
  -19.8623   -7.9248   23.0858 C   0  0  0  0  0  0  0  0  0  0  0  0
  -19.1052   -7.8850   24.2566 C   0  0  0  0  0  0  0  0  0  0  0  0
  -35.2204  -22.0690   23.3958 C   0  0  0  0  0  0  0  0  0  0  0  0
  -32.4642  -17.1241   23.9298 C   0  0  0  0  0  0  0  0  0  0  0  0
  -20.3460   -5.9471   24.9931 C   0  0  0  0  0  0  0  0  0  0  0  0
  -23.8274  -10.4480   20.9625 C   0  0  0  0  0  0  0  0  0  0  0  0
  -24.1699  -12.9731   20.8427 C   0  0  0  0  0  0  0  0  0  0  0  0
  -42.3497  -27.0641   26.8073 C   0  0  0  0  0  0  0  0  0  0  0  0
  -37.5753  -22.2996   22.8851 C   0  0  0  0  0  0  0  0  0  0  0  0
  -41.8039  -25.7957   26.5323 C   0  0  0  0  0  0  0  0  0  0  0  0
  -36.3296  -22.8900   23.1417 C   0  0  0  0  0  0  0  0  0  0  0  0
  -31.8601  -18.3508   24.2053 C   0  0  0  0  0  0  0  0  0  0  0  0
  -30.6651  -18.6969   23.5747 C   0  0  0  0  0  0  0  0  0  0  0  0
  -30.6782  -16.5896   22.3931 C   0  0  0  0  0  0  0  0  0  0  0  0
  -22.3389   -8.1420   21.4620 C   0  0  0  0  0  0  0  0  0  0  0  0
  -35.3457  -20.6801   23.3823 C   0  0  0  0  0  0  0  0  0  0  0  0
  -20.8613   -6.9758   22.8686 C   0  0  0  0  0  0  0  0  0  0  0  0
  -19.3470   -6.8962   25.2103 C   0  0  0  0  0  0  0  0  0  0  0  0
  -21.1031   -5.9870   23.8223 C   0  0  0  0  0  0  0  0  0  0  0  0
  -31.8733  -16.2435   23.0237 C   0  0  0  0  0  0  0  0  0  0  0  0
  -30.0741  -17.8163   22.6685 C   0  0  0  0  0  0  0  0  0  0  0  0
  -24.5969  -11.6387   20.7050 C   0  0  0  0  0  0  0  0  0  0  0  0
  -25.2623  -13.7223   20.4797 C   0  0  0  0  0  0  0  0  0  0  0  0
  -22.8995  -13.4892   21.2615 C   0  0  0  0  0  0  0  0  0  0  0  0
  -38.8595  -24.6241   24.6320 C   0  0  0  0  0  0  0  0  0  0  0  0
  -37.3034  -26.5368   22.5244 C   0  0  0  0  0  0  0  0  0  0  0  0
  -34.7516  -26.9115   20.2895 C   0  0  0  0  0  0  0  0  0  0  0  0
  -30.7288  -14.7664   20.6553 C   0  0  0  0  0  0  0  0  0  0  0  0
  -41.4748  -28.2626   27.0772 C   0  0  0  0  0  0  0  0  0  0  0  0
  -38.7761  -23.1544   22.5853 C   0  0  0  0  0  0  0  0  0  0  0  0
  -36.1495  -24.3852   23.1605 C   0  0  0  0  0  0  0  0  0  0  0  0
  -40.0349  -28.0849   26.6025 C   0  0  0  0  0  0  0  0  0  0  0  0
  -29.6141  -12.3531   18.2867 C   0  0  0  0  0  0  0  0  0  0  0  0
  -39.4949  -26.7248   27.0331 C   0  0  0  0  0  0  0  0  0  0  0  0
  -28.1743  -12.0619   18.7160 C   0  0  0  0  0  0  0  0  0  0  0  0
  -30.5291  -12.5816   19.4885 C   0  0  0  0  0  0  0  0  0  0  0  0
  -28.6221  -13.3064   20.8695 C   0  0  0  0  0  0  0  0  0  0  0  0
  -40.3102  -25.5852   26.4104 C   0  0  1  0  0  0  0  0  0  0  0  0
  -38.6572  -24.5689   23.1442 C   0  0  1  0  0  0  0  0  0  0  0  0
  -27.6494  -13.1335   19.6915 C   0  0  2  0  0  0  0  0  0  0  0  0
  -30.0357  -20.0200   23.8855 C   0  0  0  0  0  0  0  0  0  0  0  0
  -33.7113  -28.6005   18.7524 C   0  0  0  0  0  0  0  0  0  0  0  0
  -36.0275  -27.9286   24.9212 C   0  0  0  0  0  0  0  0  0  0  0  0
  -34.3364  -28.9143   23.3603 C   0  0  0  0  0  0  0  0  0  0  0  0
  -36.7538  -29.4659   23.0872 C   0  0  0  0  0  0  0  0  0  0  0  0
  -35.2825  -25.2405   17.9052 C   0  0  0  0  0  0  0  0  0  0  0  0
  -32.5223  -19.2844   25.1893 C   0  0  0  0  0  0  0  0  0  0  0  0
  -33.2613  -20.4255   24.4988 C   0  0  0  0  0  0  0  0  0  1  0  0
  -35.9299  -27.1598   22.4584 C   0  0  1  0  0  0  0  0  0  0  0  0
  -34.7222  -27.4714   18.8788 C   0  0  2  0  0  0  0  0  0  0  0  0
  -35.7654  -28.3390   23.4584 C   0  0  0  0  0  0  0  0  0  0  0  0
  -25.8618  -11.5426   20.2869 N   0  0  0  0  0  0  0  0  0  0  0  0
  -26.2390  -12.8260   20.1587 N   0  0  0  0  0  0  0  0  0  0  0  0
  -37.3548  -25.1784   22.8675 N   0  0  0  0  0  0  0  0  0  0  0  0
  -29.9702  -13.6125   20.3659 N   0  0  0  0  0  0  0  0  0  0  0  0
  -25.4731  -15.0537   20.4068 N   0  0  0  0  0  0  0  0  0  0  0  0
  -21.8873  -12.5802   21.5985 N   0  0  0  0  0  0  0  0  0  0  0  0
  -30.0815  -15.6916   21.4737 N   0  0  0  0  0  0  0  0  0  0  0  0
  -39.9369  -25.3949   25.0251 N   0  0  0  0  0  0  0  0  0  0  0  0
  -35.7141  -27.5255   21.0627 N   0  0  0  0  0  0  0  0  0  0  0  0
  -34.3582  -26.4035   17.9051 N   0  3  0  0  0  0  0  0  0  0  0  0
  -22.6636  -14.7198   21.3189 O   0  0  0  0  0  0  0  0  0  0  0  0
  -38.0939  -24.0137   25.3689 O   0  0  0  0  0  0  0  0  0  0  0  0
  -38.2937  -27.2282   22.2735 O   0  0  0  0  0  0  0  0  0  0  0  0
  -33.9938  -26.0213   20.6687 O   0  0  0  0  0  0  0  0  0  0  0  0
  -31.8580  -14.9349   20.1879 O   0  0  0  0  0  0  0  0  0  0  0  0
  -21.6126   -7.0171   21.7061 O   0  0  0  0  0  0  0  0  0  0  0  0
  -34.2610  -19.8962   23.6288 O   0  0  0  0  0  0  0  0  0  1  0  0
  -18.6209   -6.8590   26.3352 F   0  0  0  0  0  0  0  0  0  0  0  0
  -22.0622   -5.0732   23.6197 F   0  0  0  0  0  0  0  0  0  0  0  0
  -32.6606  -14.7358   22.7160 Cl  0  0  0  0  0  0  0  0  0  0  0  0
  -28.5873  -18.2549   21.8880 Cl  0  0  0  0  0  0  0  0  0  0  0  0
  1  2  1  0  0  0  0
  1  5  2  0  0  0  0
  2  6  2  0  0  0  0
  3  8  2  0  0  0  0
  3 16  1  0  0  0  0
  4  9  1  0  0  0  0
  4 16  2  0  0  0  0
  5 18  1  0  0  0  0
  6 20  1  0  0  0  0
  7 10  2  0  0  0  0
  7 19  1  0  0  0  0
  8 25  1  0  0  0  0
  9 25  2  0  0  0  0
 10 26  1  0  0  0  0
 11 12  2  0  0  0  0
 11 27  1  0  0  0  0
 12 28  1  0  0  0  0
 13 21  1  0  0  0  0
 13 26  2  0  0  0  0
 14 22  1  0  0  0  0
 14 30  2  0  0  0  0
 15 28  2  0  0  0  0
 15 29  1  0  0  0  0
 16 32  1  0  0  0  0
 17 32  1  0  0  0  0
 17 33  2  0  0  0  0
 17 34  1  0  0  0  0
 18 20  2  0  0  0  0
 18 39  1  0  0  0  0
 19 21  2  0  0  0  0
 19 40  1  0  0  0  0
 20 48  1  0  0  0  0
 21 41  1  0  0  0  0
 22 23  2  0  0  0  0
 22 57  1  0  0  0  0
 23 31  1  0  0  0  0
 23 51  1  0  0  0  0
 24 30  1  0  0  0  0
 24 31  2  0  0  0  0
 24 68  1  0  0  0  0
 25 77  1  0  0  0  0
 26 78  1  0  0  0  0
 27 29  2  0  0  0  0
 27 77  1  0  0  0  0
 28 79  1  0  0  0  0
 29 80  1  0  0  0  0
 30 81  1  0  0  0  0
 31 82  1  0  0  0  0
 32 62  2  0  0  0  0
 33 63  1  0  0  0  0
 33 66  1  0  0  0  0
 34 67  1  0  0  0  0
 34 72  2  0  0  0  0
 35 49  1  0  0  0  0
 35 69  1  0  0  0  0
 35 73  2  0  0  0  0
 36 59  1  0  0  0  0
 36 64  1  0  0  0  0
 36 74  2  0  0  0  0
 37 60  1  0  0  0  0
 37 70  1  0  0  0  0
 37 75  2  0  0  0  0
 38 65  1  0  0  0  0
 38 68  1  0  0  0  0
 38 76  2  0  0  0  0
 39 42  1  0  0  0  0
 40 49  1  0  0  0  0
 41 64  1  0  0  0  0
 42 44  1  0  0  0  0
 43 45  1  0  0  0  0
 43 46  1  0  0  0  0
 44 48  1  0  0  0  0
 45 50  1  0  0  0  0
 46 65  1  0  0  0  0
 47 50  1  0  0  0  0
 47 65  1  0  0  0  0
 48 69  1  0  0  0  0
 49 64  1  0  0  0  0
 50 63  1  0  0  0  0
 52 60  1  0  0  0  0
 53 61  1  0  0  0  0
 54 61  1  0  0  0  0
 55 61  1  0  0  0  0
 56 71  1  0  0  0  0
 57 58  1  0  0  0  0
 58 78  1  0  0  0  0
 59 61  1  0  0  0  0
 59 70  1  0  0  0  0
 60 71  1  0  0  0  0
 62 63  1  0  0  0  0
M  CHG  1  71   1
M  ISO  4  38 100  58 101  68 100  78 101
M  END
> <Batch ID>
0018

> <Smiles>
CNC(C)C(=O)NC(C(=O)N1Cc2cc([101O:1][101CH2:1]Cc3cc(Cl)c([100NH:0][100C:0](=O)N4CCCC(n5nc(-c6ccc(Oc7ccc(F)cc7F)cc6)c(C(N)=O)c5N)C4)c(Cl)c3C)ccc2CC1C(=O)NC1CCCc2ccccc21)C(C)(C)C

> <Shape>
0.173

> <Color>
0.200

> <Negative vol penalty>
0.000

$$$$

  -OEChem-04052316043D

 90 98  0     1  0  0  0  0  0999 V2000
  -24.0137  -23.6895   17.9295 C   0  0  0  0  0  0  0  0  0  0  0  0
  -25.0111  -22.9416   18.5471 C   0  0  0  0  0  0  0  0  0  0  0  0
  -21.9844  -29.0262   20.4512 C   0  0  0  0  0  0  0  0  0  0  0  0
  -23.3017  -27.6083   21.8975 C   0  0  0  0  0  0  0  0  0  0  0  0
  -22.6805  -23.2966   18.0392 C   0  0  0  0  0  0  0  0  0  0  0  0
  -24.6756  -21.8011   19.2758 C   0  0  0  0  0  0  0  0  0  0  0  0
  -27.7309  -17.8883   18.2758 C   0  0  0  0  0  0  0  0  0  0  0  0
  -20.8365  -28.6929   21.1700 C   0  0  0  0  0  0  0  0  0  0  0  0
  -22.1537  -27.2750   22.6163 C   0  0  0  0  0  0  0  0  0  0  0  0
  -28.9891  -17.8932   18.8764 C   0  0  0  0  0  0  0  0  0  0  0  0
  -19.3880  -29.5693   24.0969 C   0  0  0  0  0  0  0  0  0  0  0  0
  -18.5187  -30.6029   24.4456 C   0  0  0  0  0  0  0  0  0  0  0  0
  -28.1862  -16.3599   20.5568 C   0  0  0  0  0  0  0  0  0  0  0  0
  -31.7722  -24.3141   21.1064 C   0  0  0  0  0  0  0  0  0  0  0  0
  -16.7471  -29.5334   23.1986 C   0  0  0  0  0  0  0  0  0  0  0  0
  -23.2171  -28.4839   20.8149 C   0  0  0  0  0  0  0  0  0  0  0  0
  -25.2821  -29.8983   20.3222 C   0  0  0  0  0  0  0  0  0  0  0  0
  -22.3294  -22.1453   18.7616 C   0  0  0  0  0  0  0  0  0  0  0  0
  -26.6861  -17.1264   18.8183 C   0  0  0  0  0  0  0  0  0  0  0  0
  -23.3363  -21.3932   19.3964 C   0  0  0  0  0  0  0  0  0  0  0  0
  -26.9164  -16.3451   19.9596 C   0  0  0  0  0  0  0  0  0  0  0  0
  -31.9540  -23.1176   20.4219 C   0  0  0  0  0  0  0  0  0  0  0  0
  -31.2772  -22.8967   19.2275 C   0  0  0  0  0  0  0  0  0  0  0  0
  -20.9211  -27.8174   22.2525 C   0  0  0  0  0  0  0  0  0  0  0  0
  -29.2161  -17.1312   20.0187 C   0  0  0  0  0  0  0  0  0  0  0  0
  -18.9370  -28.5178   23.2990 C   0  0  0  0  0  0  0  0  0  0  0  0
  -17.1982  -30.5849   23.9965 C   0  0  0  0  0  0  0  0  0  0  0  0
  -17.6166  -28.4999   22.8499 C   0  0  0  0  0  0  0  0  0  0  0  0
  -24.4032  -28.8273   20.0724 C   0  0  0  0  0  0  0  0  0  0  0  0
  -30.9097  -25.2500   20.5588 C   0  0  0  0  0  0  0  0  0  0  0  0
  -30.4368  -23.8960   18.7640 C   0  0  0  0  0  0  0  0  0  0  0  0
  -26.2410  -29.7906   19.3447 C   0  0  0  0  0  0  0  0  0  0  0  0
  -25.2359  -30.9007   21.3463 C   0  0  0  0  0  0  0  0  0  0  0  0
  -23.8280  -17.7884   20.0416 C   0  0  0  0  0  0  0  0  0  0  0  0
  -23.5378  -14.5582   20.1028 C   0  0  0  0  0  0  0  0  0  0  0  0
  -25.0749  -11.5122   20.1841 C   0  0  0  0  0  0  0  0  0  0  0  0
  -28.2468  -25.1822   16.0905 C   0  0  0  0  0  0  0  0  0  0  0  0
  -20.8702  -21.7868   18.8917 C   0  0  0  0  0  0  0  0  0  0  0  0
  -25.3422  -17.1110   18.1431 C   0  0  0  0  0  0  0  0  0  0  0  0
  -25.8338  -15.4940   20.5697 C   0  0  0  0  0  0  0  0  0  0  0  0
  -20.6348  -20.3560   19.3688 C   0  0  0  0  0  0  0  0  0  0  0  0
  -26.8637  -28.2261   14.8664 C   0  0  0  0  0  0  0  0  0  0  0  0
  -21.5334  -20.0354   20.5590 C   0  0  0  0  0  0  0  0  0  0  0  0
  -26.1556  -28.8220   16.0844 C   0  0  0  0  0  0  0  0  0  0  0  0
  -26.7482  -26.7037   14.8353 C   0  0  0  0  0  0  0  0  0  0  0  0
  -26.4844  -26.6195   17.2842 C   0  0  0  0  0  0  0  0  0  0  0  0
  -23.0145  -20.1360   20.1749 C   0  0  1  0  0  0  0  0  0  0  0  0
  -24.2086  -16.7004   19.0778 C   0  0  1  0  0  0  0  0  0  0  0  0
  -26.6212  -28.1480   17.3891 C   0  0  2  0  0  0  0  0  0  0  0  0
  -31.4545  -21.6237   18.4701 C   0  0  0  0  0  0  0  0  0  0  0  0
  -32.6515  -27.7516   20.1338 C   0  0  0  0  0  0  0  0  0  0  0  0
  -24.5741   -9.0546   20.2663 C   0  0  0  0  0  0  0  0  0  0  0  0
  -29.2061  -26.7294   21.6417 C   0  0  0  0  0  0  0  0  0  0  0  0
  -22.8375  -14.8023   23.0625 C   0  0  0  0  0  0  0  0  0  0  0  0
  -23.2828  -12.3499   23.2986 C   0  0  0  0  0  0  0  0  0  0  0  0
  -21.4565  -13.1453   21.7970 C   0  0  0  0  0  0  0  0  0  0  0  0
  -26.4351  -11.0306   17.6001 C   0  0  0  0  0  0  0  0  0  0  0  0
  -31.5493  -21.3008   22.9461 C   0  0  0  0  0  0  0  0  0  0  0  0
  -32.8800  -22.0842   20.9925 C   0  0  0  0  0  0  0  0  0  0  0  0
  -29.6840  -23.7173   17.4861 C   0  0  0  0  0  0  0  0  0  0  0  0
  -31.1622  -27.7882   20.4593 C   0  0  0  0  0  0  0  0  0  0  0  0
  -32.1225  -18.4499   21.7041 C   0  0  0  0  0  0  0  0  0  0  0  0
  -32.9911  -19.6988   21.6983 C   0  0  0  0  0  0  0  0  0  0  0  0
  -31.2198  -18.3252   20.4828 C   0  0  0  0  0  0  0  0  0  1  0  0
  -23.8648  -13.4741   21.1013 C   0  0  1  0  0  0  0  0  0  0  0  0
  -24.8541  -10.2505   19.3694 C   0  0  2  0  0  0  0  0  0  0  0  0
  -30.6914  -26.5462   21.2653 C   0  0  2  0  0  0  0  0  0  0  0  0
  -22.8805  -13.4603   22.3047 C   0  0  0  0  0  0  0  0  0  0  0  0
  -24.7710  -28.0934   19.0188 N   0  0  0  0  0  0  0  0  0  0  0  0
  -30.2349  -25.0712   19.4011 N   0  0  0  0  0  0  0  0  0  0  0  0
  -25.8915  -28.7043   18.5978 N   0  0  0  0  0  0  0  0  0  0  0  0
  -24.5351  -15.5173   19.8766 N   0  0  0  0  0  0  0  0  0  0  0  0
  -27.2071  -26.1266   16.1011 N   0  0  0  0  0  0  0  0  0  0  0  0
  -27.3404  -30.5203   19.0598 N   0  0  0  0  0  0  0  0  0  0  0  0
  -24.1820  -30.8646   22.2695 N   0  0  0  0  0  0  0  0  0  0  0  0
  -23.4254  -18.9625   19.4343 N   0  0  0  0  0  0  0  0  0  0  0  0
  -23.9060  -12.2250   20.3487 N   0  0  0  0  0  0  0  0  0  0  0  0
  -28.6251  -24.6901   17.3337 N   0  0  0  0  0  0  0  0  0  0  0  0
  -26.0586   -9.9484   18.5456 N   0  3  0  0  0  0  0  0  0  0  0  0
  -32.1522  -20.9174   21.6160 N   0  3  1  0  0  0  0  0  0  0  0  0
  -26.0945  -31.8114   21.4299 O   0  0  0  0  0  0  0  0  0  0  0  0
  -23.8933  -17.5778   21.2471 O   0  0  0  0  0  0  0  0  0  0  0  0
  -22.4407  -14.5500   19.5389 O   0  0  0  0  0  0  0  0  0  0  0  0
  -26.1736  -11.8316   20.6329 O   0  0  0  0  0  0  0  0  0  0  0  0
  -28.8008  -24.8095   15.0507 O   0  0  0  0  0  0  0  0  0  0  0  0
  -19.8011  -27.4921   22.9543 O   0  0  0  0  0  0  0  0  0  0  0  0
  -30.4430  -17.1346   20.6074 O   0  0  0  0  0  0  0  0  0  1  0  0
  -16.3631  -31.5767   24.3327 F   0  0  0  0  0  0  0  0  0  0  0  0
  -17.1772  -27.4918   22.0840 F   0  0  0  0  0  0  0  0  0  0  0  0
  -31.3655  -26.6235   22.4728 F   0  0  0  0  0  0  0  0  0  0  0  0
  1  2  1  0  0  0  0
  1  5  2  0  0  0  0
  2  6  2  0  0  0  0
  3  8  2  0  0  0  0
  3 16  1  0  0  0  0
  4  9  1  0  0  0  0
  4 16  2  0  0  0  0
  5 18  1  0  0  0  0
  6 20  1  0  0  0  0
  7 10  2  0  0  0  0
  7 19  1  0  0  0  0
  8 24  1  0  0  0  0
  9 24  2  0  0  0  0
 10 25  1  0  0  0  0
 11 12  2  0  0  0  0
 11 26  1  0  0  0  0
 12 27  1  0  0  0  0
 13 21  1  0  0  0  0
 13 25  2  0  0  0  0
 14 22  2  0  0  0  0
 14 30  1  0  0  0  0
 15 27  2  0  0  0  0
 15 28  1  0  0  0  0
 16 29  1  0  0  0  0
 17 29  1  0  0  0  0
 17 32  2  0  0  0  0
 17 33  1  0  0  0  0
 18 20  2  0  0  0  0
 18 38  1  0  0  0  0
 19 21  2  0  0  0  0
 19 39  1  0  0  0  0
 20 47  1  0  0  0  0
 21 40  1  0  0  0  0
 22 23  1  0  0  0  0
 22 59  1  0  0  0  0
 23 31  2  0  0  0  0
 23 50  1  0  0  0  0
 24 86  1  0  0  0  0
 25 87  1  0  0  0  0
 26 28  2  0  0  0  0
 26 86  1  0  0  0  0
 27 88  1  0  0  0  0
 28 89  1  0  0  0  0
 29 69  2  0  0  0  0
 30 67  1  0  0  0  0
 30 70  2  0  0  0  0
 31 60  1  0  0  0  0
 31 70  1  0  0  0  0
 32 71  1  0  0  0  0
 32 74  1  0  0  0  0
 33 75  1  0  0  0  0
 33 81  2  0  0  0  0
 34 48  1  0  0  0  0
 34 76  1  0  0  0  0
 34 82  2  0  0  0  0
 35 65  1  0  0  0  0
 35 72  1  0  0  0  0
 35 83  2  0  0  0  0
 36 66  1  0  0  0  0
 36 77  1  0  0  0  0
 36 84  2  0  0  0  0
 37 73  1  0  0  0  0
 37 78  1  0  0  0  0
 37 85  2  0  0  0  0
 38 41  1  0  0  0  0
 39 48  1  0  0  0  0
 40 72  1  0  0  0  0
 41 43  1  0  0  0  0
 42 44  1  0  0  0  0
 42 45  1  0  0  0  0
 43 47  1  0  0  0  0
 44 49  1  0  0  0  0
 45 73  1  0  0  0  0
 46 49  1  0  0  0  0
 46 73  1  0  0  0  0
 47 76  1  0  0  0  0
 48 72  1  0  0  0  0
 49 71  1  0  0  0  0
 51 61  1  0  0  0  0
 52 66  1  0  0  0  0
 53 67  1  0  0  0  0
 54 68  1  0  0  0  0
 55 68  1  0  0  0  0
 56 68  1  0  0  0  0
 57 79  1  0  0  0  0
 58 80  1  0  0  0  0
 59 80  1  0  0  0  0
 60 78  1  0  0  0  0
 61 67  1  0  0  0  0
 62 63  1  0  0  0  0
 62 64  1  0  0  0  0
 63 80  1  0  0  0  0
 64 87  1  0  0  0  0
 65 68  1  0  0  0  0
 65 77  1  0  0  0  0
 66 79  1  0  0  0  0
 67 90  1  0  0  0  0
 69 71  1  0  0  0  0
M  CHG  2  79   1  80   1
M  ISO  4  37 100  64 101  78 100  87 101
M  END
> <Batch ID>
0018

> <Smiles>
CCC(C)(F)c1cc(CN(C)CC[101CH2:1][101O:1]c2ccc3c(c2)CN(C(=O)C(NC(=O)C(C)NC)C(C)(C)C)C(C(=O)NC2CCCc4ccccc42)C3)c(C)c(C[100NH:0][100C:0](=O)N2CCCC(n3nc(-c4ccc(Oc5ccc(F)cc5F)cc4)c(C(N)=O)c3N)C2)n1

> <Shape>
0.246

> <Color>
0.064

> <Negative vol penalty>
0.000

$$$$

  -OEChem-04052316043D

 83 91  0     1  0  0  0  0  0999 V2000
  -16.5244  -28.9692   23.1677 C   0  0  0  0  0  0  0  0  0  0  0  0
  -17.4533  -28.7959   22.1466 C   0  0  0  0  0  0  0  0  0  0  0  0
  -26.0919  -12.7521   21.1419 C   0  0  0  0  0  0  0  0  0  0  0  0
  -24.9522  -13.7558   19.2628 C   0  0  0  0  0  0  0  0  0  0  0  0
  -16.9515  -29.3456   24.4404 C   0  0  0  0  0  0  0  0  0  0  0  0
  -18.8097  -29.0000   22.3975 C   0  0  0  0  0  0  0  0  0  0  0  0
  -25.2713  -26.6066   20.4390 C   0  0  0  0  0  0  0  0  0  0  0  0
  -25.4995  -11.5246   20.8456 C   0  0  0  0  0  0  0  0  0  0  0  0
  -24.3598  -12.5282   18.9664 C   0  0  0  0  0  0  0  0  0  0  0  0
  -26.4986  -27.0769   19.9739 C   0  0  0  0  0  0  0  0  0  0  0  0
  -24.0056   -8.2096   20.7977 C   0  0  0  0  0  0  0  0  0  0  0  0
  -23.4678   -7.4753   21.8546 C   0  0  0  0  0  0  0  0  0  0  0  0
  -27.1282  -27.6485   22.2314 C   0  0  0  0  0  0  0  0  0  0  0  0
  -21.9608   -9.2967   22.3533 C   0  0  0  0  0  0  0  0  0  0  0  0
  -25.8182  -13.8678   20.3505 C   0  0  0  0  0  0  0  0  0  0  0  0
  -27.8058  -15.4284   20.6987 C   0  0  0  0  0  0  0  0  0  0  0  0
  -18.3147  -29.5451   24.7095 C   0  0  0  0  0  0  0  0  0  0  0  0
  -24.9584  -26.6638   21.8047 C   0  0  0  0  0  0  0  0  0  0  0  0
  -19.2552  -29.3808   23.6747 C   0  0  0  0  0  0  0  0  0  0  0  0
  -25.8973  -27.1759   22.7115 C   0  0  0  0  0  0  0  0  0  0  0  0
  -24.6335  -11.4126   19.7578 C   0  0  0  0  0  0  0  0  0  0  0  0
  -27.4261  -27.6006   20.8698 C   0  0  0  0  0  0  0  0  0  0  0  0
  -23.5210   -9.4875   20.5185 C   0  0  0  0  0  0  0  0  0  0  0  0
  -22.4454   -8.0188   22.6324 C   0  0  0  0  0  0  0  0  0  0  0  0
  -22.4987  -10.0310   21.2963 C   0  0  0  0  0  0  0  0  0  0  0  0
  -26.4293  -15.1362   20.6564 C   0  0  0  0  0  0  0  0  0  0  0  0
  -27.8641  -16.7594   21.0329 C   0  0  0  0  0  0  0  0  0  0  0  0
  -28.9310  -14.5733   20.4575 C   0  0  0  0  0  0  0  0  0  0  0  0
  -22.7265  -28.1224   23.5354 C   0  0  0  0  0  0  0  0  0  0  0  0
  -24.0250  -26.3937   25.9536 C   0  0  0  0  0  0  0  0  0  0  0  0
  -26.7356  -24.7365   27.1998 C   0  0  0  0  0  0  0  0  0  0  0  0
  -26.0722  -22.0106   20.4336 C   0  0  0  0  0  0  0  0  0  0  0  0
  -18.7238  -29.9975   26.0888 C   0  0  0  0  0  0  0  0  0  0  0  0
  -23.6408  -26.1278   22.2937 C   0  0  0  0  0  0  0  0  0  0  0  0
  -25.6180  -27.2409   24.1901 C   0  0  0  0  0  0  0  0  0  0  0  0
  -20.2153  -29.8294   26.3676 C   0  0  0  0  0  0  0  0  0  0  0  0
  -24.2532  -19.9073   22.6572 C   0  0  0  0  0  0  0  0  0  0  0  0
  -21.0397  -30.3536   25.1962 C   0  0  0  0  0  0  0  0  0  0  0  0
  -24.7661  -18.5029   22.3340 C   0  0  0  0  0  0  0  0  0  0  0  0
  -28.9557  -23.4568   20.6197 C   0  0  0  0  0  0  0  0  0  0  0  0
  -28.8197  -22.8890   18.1065 C   0  0  0  0  0  0  0  0  0  0  0  0
  -24.1570  -20.7752   21.4044 C   0  0  0  0  0  0  0  0  0  0  0  0
  -25.9101  -19.4516   20.2870 C   0  0  0  0  0  0  0  0  0  0  0  0
  -30.1588  -24.3526   20.3672 C   0  0  0  0  0  0  0  0  0  0  0  0
  -30.2038  -25.0842   17.9680 C   0  0  0  0  0  0  0  0  0  0  0  0
  -20.7376  -29.5687   23.9139 C   0  0  1  0  0  0  0  0  0  0  0  0
  -23.2227  -26.7081   23.6412 C   0  0  1  0  0  0  0  0  0  0  0  0
  -26.0773  -18.5567   21.5270 C   0  0  2  0  0  0  0  0  0  0  0  0
  -28.0626  -23.1094   19.4241 C   0  0  1  0  0  0  0  0  0  0  0  0
  -29.1662  -24.1656   17.2912 C   0  0  0  0  0  0  0  0  0  0  0  0
  -27.8943  -24.9678   16.9408 C   0  0  0  0  0  0  0  0  0  0  0  0
  -29.7882  -23.6989   15.9515 C   0  0  0  0  0  0  0  0  0  0  0  0
  -27.5069  -23.4582   29.2168 C   0  0  0  0  0  0  0  0  0  0  0  0
  -30.6360  -28.4448   21.6975 C   0  0  0  0  0  0  0  0  0  0  0  0
  -24.3359  -29.0112   27.4906 C   0  0  0  0  0  0  0  0  0  0  0  0
  -25.9290  -27.8395   29.0260 C   0  0  0  0  0  0  0  0  0  0  0  0
  -23.5590  -27.0764   28.8717 C   0  0  0  0  0  0  0  0  0  0  0  0
  -27.2015  -22.2835   25.6109 C   0  0  0  0  0  0  0  0  0  0  0  0
  -30.5373  -26.7425   19.7906 C   0  0  0  0  0  0  0  0  0  0  0  0
  -25.1367  -26.6168   26.9503 C   0  0  1  0  0  0  0  0  0  0  0  0
  -26.8725  -23.3659   27.8378 C   0  0  2  0  0  0  0  0  0  0  0  0
  -29.7972  -27.4278   20.9347 C   0  0  2  0  0  0  0  0  0  1  0  0
  -24.7449  -27.6366   28.0566 C   0  0  0  0  0  0  0  0  0  0  0  0
  -25.6682  -16.1962   20.9411 N   0  0  0  0  0  0  0  0  0  0  0  0
  -26.5695  -17.1675   21.1655 N   0  0  0  0  0  0  0  0  0  0  0  0
  -24.3132  -26.7102   24.6185 N   0  0  0  0  0  0  0  0  0  0  0  0
  -25.4335  -20.7852   20.6858 N   0  0  0  0  0  0  0  0  0  0  0  0
  -28.8960  -17.6087   21.2233 N   0  0  0  0  0  0  0  0  0  0  0  0
  -29.4282  -14.4759   19.1507 N   0  0  0  0  0  0  0  0  0  0  0  0
  -21.4138  -28.2893   23.9334 N   0  0  0  0  0  0  0  0  0  0  0  0
  -25.5026  -25.2981   27.4557 N   0  0  0  0  0  0  0  0  0  0  0  0
  -27.2808  -21.9301   19.7528 N   0  0  0  0  0  0  0  0  0  0  0  0
  -29.8488  -25.4591   19.3903 N   0  3  2  0  0  0  0  0  0  0  0  0
  -27.7202  -22.4817   26.9888 N   0  3  0  0  0  0  0  0  0  0  0  0
  -29.4691  -13.9023   21.3707 O   0  0  0  0  0  0  0  0  0  0  0  0
  -23.4794  -28.9977   23.1245 O   0  0  0  0  0  0  0  0  0  0  0  0
  -22.9431  -25.9480   26.3442 O   0  0  0  0  0  0  0  0  0  0  0  0
  -27.6341  -25.2585   26.5435 O   0  0  0  0  0  0  0  0  0  0  0  0
  -25.6029  -23.0956   20.7936 O   0  0  0  0  0  0  0  0  0  0  0  0
  -24.0554  -10.2149   19.4683 O   0  0  0  0  0  0  0  0  0  0  0  0
  -28.6315  -28.0636   20.4158 O   0  0  0  0  0  0  0  0  0  1  0  0
  -21.9281   -7.3130   23.6465 F   0  0  0  0  0  0  0  0  0  0  0  0
  -22.0282  -11.2577   21.0321 F   0  0  0  0  0  0  0  0  0  0  0  0
  1  2  1  0  0  0  0
  1  5  2  0  0  0  0
  2  6  2  0  0  0  0
  3  8  2  0  0  0  0
  3 15  1  0  0  0  0
  4  9  1  0  0  0  0
  4 15  2  0  0  0  0
  5 17  1  0  0  0  0
  6 19  1  0  0  0  0
  7 10  2  0  0  0  0
  7 18  1  0  0  0  0
  8 21  1  0  0  0  0
  9 21  2  0  0  0  0
 10 22  1  0  0  0  0
 11 12  2  0  0  0  0
 11 23  1  0  0  0  0
 12 24  1  0  0  0  0
 13 20  1  0  0  0  0
 13 22  2  0  0  0  0
 14 24  2  0  0  0  0
 14 25  1  0  0  0  0
 15 26  1  0  0  0  0
 16 26  1  0  0  0  0
 16 27  2  0  0  0  0
 16 28  1  0  0  0  0
 17 19  2  0  0  0  0
 17 33  1  0  0  0  0
 18 20  2  0  0  0  0
 18 34  1  0  0  0  0
 19 46  1  0  0  0  0
 20 35  1  0  0  0  0
 21 80  1  0  0  0  0
 22 81  1  0  0  0  0
 23 25  2  0  0  0  0
 23 80  1  0  0  0  0
 24 82  1  0  0  0  0
 25 83  1  0  0  0  0
 26 64  2  0  0  0  0
 27 65  1  0  0  0  0
 27 68  1  0  0  0  0
 28 69  1  0  0  0  0
 28 75  2  0  0  0  0
 29 47  1  0  0  0  0
 29 70  1  0  0  0  0
 29 76  2  0  0  0  0
 30 60  1  0  0  0  0
 30 66  1  0  0  0  0
 30 77  2  0  0  0  0
 31 61  1  0  0  0  0
 31 71  1  0  0  0  0
 31 78  2  0  0  0  0
 32 67  1  0  0  0  0
 32 72  1  0  0  0  0
 32 79  2  0  0  0  0
 33 36  1  0  0  0  0
 34 47  1  0  0  0  0
 35 66  1  0  0  0  0
 36 38  1  0  0  0  0
 37 39  1  0  0  0  0
 37 42  1  0  0  0  0
 38 46  1  0  0  0  0
 39 48  1  0  0  0  0
 40 44  1  0  0  0  0
 40 49  1  0  0  0  0
 41 49  1  0  0  0  0
 41 50  1  0  0  0  0
 42 67  1  0  0  0  0
 43 48  1  0  0  0  0
 43 67  1  0  0  0  0
 44 73  1  0  0  0  0
 45 50  1  0  0  0  0
 45 73  1  0  0  0  0
 46 70  1  0  0  0  0
 47 66  1  0  0  0  0
 48 65  1  0  0  0  0
 49 72  1  0  0  0  0
 50 51  1  0  0  0  0
 50 52  1  0  0  0  0
 53 61  1  0  0  0  0
 54 62  1  0  0  0  0
 55 63  1  0  0  0  0
 56 63  1  0  0  0  0
 57 63  1  0  0  0  0
 58 74  1  0  0  0  0
 59 62  1  0  0  0  0
 59 73  1  0  0  0  0
 60 63  1  0  0  0  0
 60 71  1  0  0  0  0
 61 74  1  0  0  0  0
 62 81  1  0  0  0  0
 64 65  1  0  0  0  0
M  CHG  2  73   1  74   1
M  ISO  4  32 100  62 101  72 100  81 101
M  END
> <Batch ID>
0018

> <Smiles>
CNC(C)C(=O)NC(C(=O)N1Cc2cc([101O:1][101CH:1](C)CN3CCC([100NH:0][100C:0](=O)N4CCCC(n5nc(-c6ccc(Oc7ccc(F)cc7F)cc6)c(C(N)=O)c5N)C4)CC(C)(C)C3)ccc2CC1C(=O)NC1CCCc2ccccc21)C(C)(C)C

> <Shape>
0.223

> <Color>
0.071

> <Negative vol penalty>
0.000

$$$$

  -OEChem-04052316043D

 81 89  0     1  0  0  0  0  0999 V2000
  -27.9290  -35.3084   24.6327 C   0  0  0  0  0  0  0  0  0  0  0  0
  -28.7163  -34.2559   24.1769 C   0  0  0  0  0  0  0  0  0  0  0  0
  -24.3028   -9.5437   21.4658 C   0  0  0  0  0  0  0  0  0  0  0  0
  -24.7957  -10.6529   23.5548 C   0  0  0  0  0  0  0  0  0  0  0  0
  -26.5783  -35.0988   24.9076 C   0  0  0  0  0  0  0  0  0  0  0  0
  -28.1536  -32.9928   23.9967 C   0  0  0  0  0  0  0  0  0  0  0  0
  -28.6745  -27.1923   19.8255 C   0  0  0  0  0  0  0  0  0  0  0  0
  -23.9295   -8.3952   22.1637 C   0  0  0  0  0  0  0  0  0  0  0  0
  -24.4223   -9.5043   24.2527 C   0  0  0  0  0  0  0  0  0  0  0  0
  -28.8269  -25.8096   19.9177 C   0  0  0  0  0  0  0  0  0  0  0  0
  -22.5034   -5.2928   23.4115 C   0  0  0  0  0  0  0  0  0  0  0  0
  -21.3303   -4.6483   23.0193 C   0  0  0  0  0  0  0  0  0  0  0  0
  -26.4642  -25.5839   20.3490 C   0  0  0  0  0  0  0  0  0  0  0  0
  -29.2215  -20.8703   19.0324 C   0  0  0  0  0  0  0  0  0  0  0  0
  -20.0681   -6.6506   23.5043 C   0  0  0  0  0  0  0  0  0  0  0  0
  -24.7360  -10.6726   22.1614 C   0  0  0  0  0  0  0  0  0  0  0  0
  -24.2937  -12.9337   21.0662 C   0  0  0  0  0  0  0  0  0  0  0  0
  -25.9964  -33.8349   24.7214 C   0  0  0  0  0  0  0  0  0  0  0  0
  -27.4156  -27.7832   20.0055 C   0  0  0  0  0  0  0  0  0  0  0  0
  -26.7941  -32.7659   24.2706 C   0  0  0  0  0  0  0  0  0  0  0  0
  -26.2980  -26.9742   20.2560 C   0  0  0  0  0  0  0  0  0  0  0  0
  -29.1312  -21.6347   20.1957 C   0  0  0  0  0  0  0  0  0  0  0  0
  -29.1753  -19.4782   19.1073 C   0  0  0  0  0  0  0  0  0  0  0  0
  -28.9948  -21.0070   21.4338 C   0  0  0  0  0  0  0  0  0  0  0  0
  -28.9486  -19.6149   21.5087 C   0  0  0  0  0  0  0  0  0  0  0  0
  -29.0388  -18.8505   20.3455 C   0  0  0  0  0  0  0  0  0  0  0  0
  -23.9892   -8.3755   23.5571 C   0  0  0  0  0  0  0  0  0  0  0  0
  -27.7222  -25.0054   20.1823 C   0  0  0  0  0  0  0  0  0  0  0  0
  -22.4590   -6.6162   23.8502 C   0  0  0  0  0  0  0  0  0  0  0  0
  -20.1126   -5.3272   23.0657 C   0  0  0  0  0  0  0  0  0  0  0  0
  -21.2414   -7.2951   23.8965 C   0  0  0  0  0  0  0  0  0  0  0  0
  -25.1223  -11.8591   21.4410 C   0  0  0  0  0  0  0  0  0  0  0  0
  -25.1320  -13.8008   20.4090 C   0  0  0  0  0  0  0  0  0  0  0  0
  -22.8916  -13.1305   21.2920 C   0  0  0  0  0  0  0  0  0  0  0  0
  -26.1850  -29.8528   22.0806 C   0  0  0  0  0  0  0  0  0  0  0  0
  -23.6049  -29.6866   20.1216 C   0  0  0  0  0  0  0  0  0  0  0  0
  -21.8384  -27.9141   17.8012 C   0  0  0  0  0  0  0  0  0  0  0  0
  -29.9661  -16.5336   20.0012 C   0  0  0  0  0  0  0  0  0  0  0  0
  -24.5431  -33.6453   25.0770 C   0  0  0  0  0  0  0  0  0  0  0  0
  -27.2631  -29.2740   19.8764 C   0  0  0  0  0  0  0  0  0  0  0  0
  -24.9213  -27.5576   20.4371 C   0  0  0  0  0  0  0  0  0  0  0  0
  -23.9371  -32.3674   24.5025 C   0  0  0  0  0  0  0  0  0  0  0  0
  -29.8861  -13.1892   18.7824 C   0  0  0  0  0  0  0  0  0  0  0  0
  -24.8667  -31.1817   24.7411 C   0  0  0  0  0  0  0  0  0  0  0  0
  -28.5715  -12.6334   19.3346 C   0  0  0  0  0  0  0  0  0  0  0  0
  -30.5643  -14.1324   19.7744 C   0  0  0  0  0  0  0  0  0  0  0  0
  -28.4015  -14.6663   20.8263 C   0  0  0  0  0  0  0  0  0  0  0  0
  -26.2144  -31.3873   24.0390 C   0  0  1  0  0  0  0  0  0  0  0  0
  -26.0250  -29.8118   20.5871 C   0  0  1  0  0  0  0  0  0  0  0  0
  -27.6493  -13.7617   19.8366 C   0  0  2  0  0  0  0  0  0  0  0  0
  -29.2732  -18.6867   17.8433 C   0  0  0  0  0  0  0  0  0  0  0  0
  -28.8983  -21.8298   22.6795 C   0  0  0  0  0  0  0  0  0  0  0  0
  -28.8022  -18.9462   22.8401 C   0  0  0  0  0  0  0  0  0  0  0  0
  -19.7512  -28.0199   16.4120 C   0  0  0  0  0  0  0  0  0  0  0  0
  -21.9340  -29.0174   22.5854 C   0  0  0  0  0  0  0  0  0  0  0  0
  -20.1228  -28.2166   21.0537 C   0  0  0  0  0  0  0  0  0  0  0  0
  -20.8461  -30.6030   20.9864 C   0  0  0  0  0  0  0  0  0  0  0  0
  -23.3754  -27.8015   15.2745 C   0  0  0  0  0  0  0  0  0  0  0  0
  -29.1820  -23.1303   20.0871 C   0  0  0  0  0  0  0  0  0  1  0  0
  -22.3720  -28.8184   20.0488 C   0  0  1  0  0  0  0  0  0  0  0  0
  -21.2415  -28.3184   16.4653 C   0  0  2  0  0  0  0  0  0  0  0  0
  -21.3449  -29.1527   21.1671 C   0  0  0  0  0  0  0  0  0  0  0  0
  -26.3898  -12.0260   21.0540 N   0  0  0  0  0  0  0  0  0  0  0  0
  -26.3638  -13.2155   20.4291 N   0  0  0  0  0  0  0  0  0  0  0  0
  -24.8247  -29.0209   20.3079 N   0  0  0  0  0  0  0  0  0  0  0  0
  -29.6321  -15.1776   20.2027 N   0  0  0  0  0  0  0  0  0  0  0  0
  -24.9283  -14.9991   19.8217 N   0  0  0  0  0  0  0  0  0  0  0  0
  -22.1809  -12.1406   21.9844 N   0  0  0  0  0  0  0  0  0  0  0  0
  -28.9886  -17.4363   20.4186 N   0  0  0  0  0  0  0  0  0  0  0  0
  -26.0918  -31.1208   22.6218 N   0  0  0  0  0  0  0  0  0  0  0  0
  -21.8495  -28.9643   18.6945 N   0  0  0  0  0  0  0  0  0  0  0  0
  -21.9085  -27.5808   15.3553 N   0  3  0  0  0  0  0  0  0  0  0  0
  -22.2834  -14.1463   20.8773 O   0  0  0  0  0  0  0  0  0  0  0  0
  -26.3772  -28.8110   22.6965 O   0  0  0  0  0  0  0  0  0  0  0  0
  -23.4906  -30.9098   20.0100 O   0  0  0  0  0  0  0  0  0  0  0  0
  -22.2501  -26.7790   18.0305 O   0  0  0  0  0  0  0  0  0  0  0  0
  -31.0284  -16.8684   19.4707 O   0  0  0  0  0  0  0  0  0  0  0  0
  -23.6247   -7.2550   24.2385 O   0  0  0  0  0  0  0  0  0  0  0  0
  -27.8683  -23.6555   20.2735 O   0  0  0  0  0  0  0  0  0  1  0  0
  -18.9863   -4.7086   22.6875 F   0  0  0  0  0  0  0  0  0  0  0  0
  -21.1925   -8.5669   24.3159 F   0  0  0  0  0  0  0  0  0  0  0  0
  1  2  1  0  0  0  0
  1  5  2  0  0  0  0
  2  6  2  0  0  0  0
  3  8  2  0  0  0  0
  3 16  1  0  0  0  0
  4  9  1  0  0  0  0
  4 16  2  0  0  0  0
  5 18  1  0  0  0  0
  6 20  1  0  0  0  0
  7 10  2  0  0  0  0
  7 19  1  0  0  0  0
  8 27  1  0  0  0  0
  9 27  2  0  0  0  0
 10 28  1  0  0  0  0
 11 12  2  0  0  0  0
 11 29  1  0  0  0  0
 12 30  1  0  0  0  0
 13 21  1  0  0  0  0
 13 28  2  0  0  0  0
 14 22  1  0  0  0  0
 14 23  2  0  0  0  0
 15 30  2  0  0  0  0
 15 31  1  0  0  0  0
 16 32  1  0  0  0  0
 17 32  1  0  0  0  0
 17 33  2  0  0  0  0
 17 34  1  0  0  0  0
 18 20  2  0  0  0  0
 18 39  1  0  0  0  0
 19 21  2  0  0  0  0
 19 40  1  0  0  0  0
 20 48  1  0  0  0  0
 21 41  1  0  0  0  0
 22 24  2  0  0  0  0
 22 59  1  0  0  0  0
 23 26  1  0  0  0  0
 23 51  1  0  0  0  0
 24 25  1  0  0  0  0
 24 52  1  0  0  0  0
 25 26  2  0  0  0  0
 25 53  1  0  0  0  0
 26 69  1  0  0  0  0
 27 78  1  0  0  0  0
 28 79  1  0  0  0  0
 29 31  2  0  0  0  0
 29 78  1  0  0  0  0
 30 80  1  0  0  0  0
 31 81  1  0  0  0  0
 32 63  2  0  0  0  0
 33 64  1  0  0  0  0
 33 67  1  0  0  0  0
 34 68  1  0  0  0  0
 34 73  2  0  0  0  0
 35 49  1  0  0  0  0
 35 70  1  0  0  0  0
 35 74  2  0  0  0  0
 36 60  1  0  0  0  0
 36 65  1  0  0  0  0
 36 75  2  0  0  0  0
 37 61  1  0  0  0  0
 37 71  1  0  0  0  0
 37 76  2  0  0  0  0
 38 66  1  0  0  0  0
 38 69  1  0  0  0  0
 38 77  2  0  0  0  0
 39 42  1  0  0  0  0
 40 49  1  0  0  0  0
 41 65  1  0  0  0  0
 42 44  1  0  0  0  0
 43 45  1  0  0  0  0
 43 46  1  0  0  0  0
 44 48  1  0  0  0  0
 45 50  1  0  0  0  0
 46 66  1  0  0  0  0
 47 50  1  0  0  0  0
 47 66  1  0  0  0  0
 48 70  1  0  0  0  0
 49 65  1  0  0  0  0
 50 64  1  0  0  0  0
 54 61  1  0  0  0  0
 55 62  1  0  0  0  0
 56 62  1  0  0  0  0
 57 62  1  0  0  0  0
 58 72  1  0  0  0  0
 59 79  1  0  0  0  0
 60 62  1  0  0  0  0
 60 71  1  0  0  0  0
 61 72  1  0  0  0  0
 63 64  1  0  0  0  0
M  CHG  1  72   1
M  ISO  4  38 100  59 101  69 100  79 101
M  END
> <Batch ID>
0018

> <Smiles>
CNC(C)C(=O)NC(C(=O)N1Cc2cc([101O:1][101CH2:1]c3cc(C)c([100NH:0][100C:0](=O)N4CCCC(n5nc(-c6ccc(Oc7ccc(F)cc7F)cc6)c(C(N)=O)c5N)C4)c(C)c3C)ccc2CC1C(=O)NC1CCCc2ccccc21)C(C)(C)C

> <Shape>
0.360

> <Color>
0.124

> <Negative vol penalty>
0.000

$$$$

  -OEChem-04052316043D

 81 89  0     1  0  0  0  0  0999 V2000
  -23.9817  -29.2741   20.4955 C   0  0  0  0  0  0  0  0  0  0  0  0
  -24.8939  -28.2238   20.5043 C   0  0  0  0  0  0  0  0  0  0  0  0
  -23.2103   -9.7485   20.7638 C   0  0  0  0  0  0  0  0  0  0  0  0
  -23.8701  -10.3888   22.9980 C   0  0  0  0  0  0  0  0  0  0  0  0
  -24.1484  -30.3481   21.3688 C   0  0  0  0  0  0  0  0  0  0  0  0
  -25.9741  -28.2474   21.3858 C   0  0  0  0  0  0  0  0  0  0  0  0
  -26.6983  -23.7968   23.6908 C   0  0  0  0  0  0  0  0  0  0  0  0
  -22.5037   -8.6639   21.2833 C   0  0  0  0  0  0  0  0  0  0  0  0
  -23.1634   -9.3042   23.5176 C   0  0  0  0  0  0  0  0  0  0  0  0
  -27.3293  -22.7943   22.9557 C   0  0  0  0  0  0  0  0  0  0  0  0
  -19.9473   -8.5290   24.2076 C   0  0  0  0  0  0  0  0  0  0  0  0
  -19.1430   -8.7564   25.3242 C   0  0  0  0  0  0  0  0  0  0  0  0
  -29.4085  -23.2921   24.0731 C   0  0  0  0  0  0  0  0  0  0  0  0
  -30.9324  -17.8545   19.5982 C   0  0  0  0  0  0  0  0  0  0  0  0
  -20.4290   -7.1415   26.5794 C   0  0  0  0  0  0  0  0  0  0  0  0
  -23.8936  -10.6109   21.6212 C   0  0  0  0  0  0  0  0  0  0  0  0
  -24.1378  -13.0322   20.8561 C   0  0  0  0  0  0  0  0  0  0  0  0
  -25.2259  -30.3803   22.2681 C   0  0  0  0  0  0  0  0  0  0  0  0
  -27.4213  -24.5631   24.6163 C   0  0  0  0  0  0  0  0  0  0  0  0
  -26.1562  -29.3235   22.2710 C   0  0  0  0  0  0  0  0  0  0  0  0
  -28.7837  -24.3020   24.8205 C   0  0  0  0  0  0  0  0  0  0  0  0
  -31.0605  -19.1948   19.2342 C   0  0  0  0  0  0  0  0  0  0  0  0
  -30.2706  -20.1641   19.8525 C   0  0  0  0  0  0  0  0  0  0  0  0
  -29.3526  -19.7929   20.8349 C   0  0  0  0  0  0  0  0  0  0  0  0
  -29.2245  -18.4525   21.1990 C   0  0  0  0  0  0  0  0  0  0  0  0
  -30.0143  -17.4833   20.5806 C   0  0  0  0  0  0  0  0  0  0  0  0
  -22.4802   -8.4418   22.6602 C   0  0  0  0  0  0  0  0  0  0  0  0
  -28.6853  -22.5437   23.1446 C   0  0  0  0  0  0  0  0  0  0  0  0
  -20.9924   -7.6078   24.2767 C   0  0  0  0  0  0  0  0  0  0  0  0
  -19.3839   -8.0627   26.5101 C   0  0  0  0  0  0  0  0  0  0  0  0
  -21.2333   -6.9141   25.4627 C   0  0  0  0  0  0  0  0  0  0  0  0
  -24.6242  -11.7312   21.0851 C   0  0  0  0  0  0  0  0  0  0  0  0
  -25.2133  -13.7156   20.3435 C   0  0  0  0  0  0  0  0  0  0  0  0
  -22.8307  -13.5746   21.0862 C   0  0  0  0  0  0  0  0  0  0  0  0
  -28.1310  -27.6479   24.9065 C   0  0  0  0  0  0  0  0  0  0  0  0
  -29.3774  -26.6940   27.7453 C   0  0  0  0  0  0  0  0  0  0  0  0
  -30.6853  -24.1700   29.6335 C   0  0  0  0  0  0  0  0  0  0  0  0
  -30.6202  -15.0441   20.4078 C   0  0  0  0  0  0  0  0  0  0  0  0
  -25.3910  -31.5850   23.1603 C   0  0  0  0  0  0  0  0  0  0  0  0
  -26.7198  -25.6230   25.4207 C   0  0  0  0  0  0  0  0  0  0  0  0
  -29.6002  -25.0828   25.8166 C   0  0  0  0  0  0  0  0  0  0  0  0
  -26.3530  -31.3547   24.3229 C   0  0  0  0  0  0  0  0  0  0  0  0
  -29.7071  -12.0454   18.7193 C   0  0  0  0  0  0  0  0  0  0  0  0
  -27.6294  -30.6777   23.8336 C   0  0  0  0  0  0  0  0  0  0  0  0
  -28.2633  -11.8033   19.1655 C   0  0  0  0  0  0  0  0  0  0  0  0
  -30.5597  -12.6240   19.8471 C   0  0  0  0  0  0  0  0  0  0  0  0
  -28.5675  -13.5854   20.9314 C   0  0  0  0  0  0  0  0  0  0  0  0
  -27.3269  -29.3010   23.2297 C   0  0  1  0  0  0  0  0  0  0  0  0
  -27.6690  -26.6863   25.9646 C   0  0  1  0  0  0  0  0  0  0  0  0
  -27.6539  -13.0636   19.8103 C   0  0  2  0  0  0  0  0  0  0  0  0
  -32.0484  -19.5654   18.1767 C   0  0  0  0  0  0  0  0  0  0  0  0
  -30.4097  -21.6007   19.4587 C   0  0  0  0  0  0  0  0  0  0  0  0
  -28.2374  -18.0564   22.2523 C   0  0  0  0  0  0  0  0  0  0  0  0
  -31.6494  -23.7038   31.9030 C   0  0  0  0  0  0  0  0  0  0  0  0
  -31.9824  -28.0478   26.9140 C   0  0  0  0  0  0  0  0  0  0  0  0
  -33.1449  -26.7650   28.7227 C   0  0  0  0  0  0  0  0  0  0  0  0
  -31.3461  -28.3911   29.3081 C   0  0  0  0  0  0  0  0  0  0  0  0
  -28.5572  -22.2120   30.2632 C   0  0  0  0  0  0  0  0  0  0  0  0
  -28.5031  -20.8360   21.4995 C   0  0  0  0  0  0  0  0  0  1  0  0
  -30.7267  -26.2004   28.2086 C   0  0  1  0  0  0  0  0  0  0  0  0
  -30.3895  -23.7154   31.0513 C   0  0  2  0  0  0  0  0  0  0  0  0
  -31.7853  -27.3375   28.2681 C   0  0  0  0  0  0  0  0  0  0  0  0
  -25.9087  -11.5937   20.7457 N   0  0  0  0  0  0  0  0  0  0  0  0
  -26.2385  -12.8172   20.2981 N   0  0  0  0  0  0  0  0  0  0  0  0
  -28.8705  -26.1129   26.5743 N   0  0  0  0  0  0  0  0  0  0  0  0
  -29.9223  -13.8178   20.4069 N   0  0  0  0  0  0  0  0  0  0  0  0
  -25.3726  -14.9913   19.9316 N   0  0  0  0  0  0  0  0  0  0  0  0
  -21.8428  -12.7345   21.6179 N   0  0  0  0  0  0  0  0  0  0  0  0
  -29.9013  -16.1162   20.9356 N   0  0  0  0  0  0  0  0  0  0  0  0
  -27.1054  -28.3272   24.2771 N   0  0  0  0  0  0  0  0  0  0  0  0
  -30.4997  -25.5280   29.4833 N   0  0  0  0  0  0  0  0  0  0  0  0
  -29.8137  -22.3408   31.0451 N   0  3  0  0  0  0  0  0  0  0  0  0
  -22.5426  -14.7644   20.8126 O   0  0  0  0  0  0  0  0  0  0  0  0
  -29.3293  -27.7659   24.6790 O   0  0  0  0  0  0  0  0  0  0  0  0
  -28.7914  -27.5582   28.4022 O   0  0  0  0  0  0  0  0  0  0  0  0
  -31.0485  -23.3982   28.7487 O   0  0  0  0  0  0  0  0  0  0  0  0
  -31.7605  -15.1422   19.9475 O   0  0  0  0  0  0  0  0  0  0  0  0
  -21.7905   -7.3837   23.1675 O   0  0  0  0  0  0  0  0  0  0  0  0
  -29.3039  -21.5662   22.4279 O   0  0  0  0  0  0  0  0  0  1  0  0
  -18.6124   -8.2823   27.5829 F   0  0  0  0  0  0  0  0  0  0  0  0
  -22.2366   -6.0287   25.5356 F   0  0  0  0  0  0  0  0  0  0  0  0
  1  2  1  0  0  0  0
  1  5  2  0  0  0  0
  2  6  2  0  0  0  0
  3  8  2  0  0  0  0
  3 16  1  0  0  0  0
  4  9  1  0  0  0  0
  4 16  2  0  0  0  0
  5 18  1  0  0  0  0
  6 20  1  0  0  0  0
  7 10  2  0  0  0  0
  7 19  1  0  0  0  0
  8 27  1  0  0  0  0
  9 27  2  0  0  0  0
 10 28  1  0  0  0  0
 11 12  2  0  0  0  0
 11 29  1  0  0  0  0
 12 30  1  0  0  0  0
 13 21  1  0  0  0  0
 13 28  2  0  0  0  0
 14 22  1  0  0  0  0
 14 26  2  0  0  0  0
 15 30  2  0  0  0  0
 15 31  1  0  0  0  0
 16 32  1  0  0  0  0
 17 32  1  0  0  0  0
 17 33  2  0  0  0  0
 17 34  1  0  0  0  0
 18 20  2  0  0  0  0
 18 39  1  0  0  0  0
 19 21  2  0  0  0  0
 19 40  1  0  0  0  0
 20 48  1  0  0  0  0
 21 41  1  0  0  0  0
 22 23  2  0  0  0  0
 22 51  1  0  0  0  0
 23 24  1  0  0  0  0
 23 52  1  0  0  0  0
 24 25  2  0  0  0  0
 24 59  1  0  0  0  0
 25 26  1  0  0  0  0
 25 53  1  0  0  0  0
 26 69  1  0  0  0  0
 27 78  1  0  0  0  0
 28 79  1  0  0  0  0
 29 31  2  0  0  0  0
 29 78  1  0  0  0  0
 30 80  1  0  0  0  0
 31 81  1  0  0  0  0
 32 63  2  0  0  0  0
 33 64  1  0  0  0  0
 33 67  1  0  0  0  0
 34 68  1  0  0  0  0
 34 73  2  0  0  0  0
 35 49  1  0  0  0  0
 35 70  1  0  0  0  0
 35 74  2  0  0  0  0
 36 60  1  0  0  0  0
 36 65  1  0  0  0  0
 36 75  2  0  0  0  0
 37 61  1  0  0  0  0
 37 71  1  0  0  0  0
 37 76  2  0  0  0  0
 38 66  1  0  0  0  0
 38 69  1  0  0  0  0
 38 77  2  0  0  0  0
 39 42  1  0  0  0  0
 40 49  1  0  0  0  0
 41 65  1  0  0  0  0
 42 44  1  0  0  0  0
 43 45  1  0  0  0  0
 43 46  1  0  0  0  0
 44 48  1  0  0  0  0
 45 50  1  0  0  0  0
 46 66  1  0  0  0  0
 47 50  1  0  0  0  0
 47 66  1  0  0  0  0
 48 70  1  0  0  0  0
 49 65  1  0  0  0  0
 50 64  1  0  0  0  0
 54 61  1  0  0  0  0
 55 62  1  0  0  0  0
 56 62  1  0  0  0  0
 57 62  1  0  0  0  0
 58 72  1  0  0  0  0
 59 79  1  0  0  0  0
 60 62  1  0  0  0  0
 60 71  1  0  0  0  0
 61 72  1  0  0  0  0
 63 64  1  0  0  0  0
M  CHG  1  72   1
M  ISO  4  38 100  59 101  69 100  79 101
M  END
> <Batch ID>
0018

> <Smiles>
CNC(C)C(=O)NC(C(=O)N1Cc2cc([101O:1][101CH2:1]c3c(C)c(C)cc([100NH:0][100C:0](=O)N4CCCC(n5nc(-c6ccc(Oc7ccc(F)cc7F)cc6)c(C(N)=O)c5N)C4)c3C)ccc2CC1C(=O)NC1CCCc2ccccc21)C(C)(C)C

> <Shape>
0.242

> <Color>
0.169

> <Negative vol penalty>
0.000

$$$$

  -OEChem-04052316043D

 84 92  0     1  0  0  0  0  0999 V2000
  -32.1524  -27.8694   16.7271 C   0  0  0  0  0  0  0  0  0  0  0  0
  -31.6591  -27.1810   17.8308 C   0  0  0  0  0  0  0  0  0  0  0  0
  -24.4226   -8.7904   21.4022 C   0  0  0  0  0  0  0  0  0  0  0  0
  -23.9610  -10.4987   23.0471 C   0  0  0  0  0  0  0  0  0  0  0  0
  -31.7458  -29.1811   16.4863 C   0  0  0  0  0  0  0  0  0  0  0  0
  -30.7597  -27.8044   18.6950 C   0  0  0  0  0  0  0  0  0  0  0  0
  -26.8704  -24.8104   19.9417 C   0  0  0  0  0  0  0  0  0  0  0  0
  -24.0919   -7.8052   22.3326 C   0  0  0  0  0  0  0  0  0  0  0  0
  -23.6303   -9.5135   23.9775 C   0  0  0  0  0  0  0  0  0  0  0  0
  -27.1049  -23.8297   20.9046 C   0  0  0  0  0  0  0  0  0  0  0  0
  -21.2799   -6.4389   23.6208 C   0  0  0  0  0  0  0  0  0  0  0  0
  -20.4595   -5.3944   23.1949 C   0  0  0  0  0  0  0  0  0  0  0  0
  -26.0796  -25.2346   22.5762 C   0  0  0  0  0  0  0  0  0  0  0  0
  -30.0524  -19.4366   22.2590 C   0  0  0  0  0  0  0  0  0  0  0  0
  -22.1983   -3.8072   23.7379 C   0  0  0  0  0  0  0  0  0  0  0  0
  -24.3572  -10.1372   21.7595 C   0  0  0  0  0  0  0  0  0  0  0  0
  -23.8324  -11.7943   19.8924 C   0  0  0  0  0  0  0  0  0  0  0  0
  -30.8335  -29.8176   17.3427 C   0  0  0  0  0  0  0  0  0  0  0  0
  -26.2475  -26.0170   20.2916 C   0  0  0  0  0  0  0  0  0  0  0  0
  -30.3416  -29.1263   18.4663 C   0  0  0  0  0  0  0  0  0  0  0  0
  -25.8360  -26.2278   21.6154 C   0  0  0  0  0  0  0  0  0  0  0  0
  -29.5907  -19.5990   23.5652 C   0  0  0  0  0  0  0  0  0  0  0  0
  -28.9213  -18.5547   24.2032 C   0  0  0  0  0  0  0  0  0  0  0  0
  -28.7137  -17.3480   23.5351 C   0  0  0  0  0  0  0  0  0  0  0  0
  -29.1754  -17.1856   22.2289 C   0  0  0  0  0  0  0  0  0  0  0  0
  -23.6957   -8.1668   23.6202 C   0  0  0  0  0  0  0  0  0  0  0  0
  -26.7121  -24.0429   22.2227 C   0  0  0  0  0  0  0  0  0  0  0  0
  -22.5596   -6.1676   24.1052 C   0  0  0  0  0  0  0  0  0  0  0  0
  -29.8447  -18.2298   21.5909 C   0  0  0  0  0  0  0  0  0  0  0  0
  -20.9186   -4.0785   23.2535 C   0  0  0  0  0  0  0  0  0  0  0  0
  -23.0187   -4.8518   24.1638 C   0  0  0  0  0  0  0  0  0  0  0  0
  -24.6993  -11.1553   20.7990 C   0  0  0  0  0  0  0  0  0  0  0  0
  -24.6374  -12.6719   19.2080 C   0  0  0  0  0  0  0  0  0  0  0  0
  -22.4253  -11.6111   19.6872 C   0  0  0  0  0  0  0  0  0  0  0  0
  -27.0978  -29.0792   20.2350 C   0  0  0  0  0  0  0  0  0  0  0  0
  -24.0096  -29.5499   21.1090 C   0  0  0  0  0  0  0  0  0  0  0  0
  -21.1883  -28.2996   22.5664 C   0  0  0  0  0  0  0  0  0  0  0  0
  -29.7800  -15.3978   20.5601 C   0  0  0  0  0  0  0  0  0  0  0  0
  -30.4598  -31.2527   17.0679 C   0  0  0  0  0  0  0  0  0  0  0  0
  -25.9777  -27.0537   19.2358 C   0  0  0  0  0  0  0  0  0  0  0  0
  -25.1452  -27.4976   22.0384 C   0  0  0  0  0  0  0  0  0  0  0  0
  -29.2154  -31.7133   17.8227 C   0  0  0  0  0  0  0  0  0  0  0  0
  -29.1701  -13.2603   17.7787 C   0  0  0  0  0  0  0  0  0  0  0  0
  -29.2900  -31.2871   19.2854 C   0  0  0  0  0  0  0  0  0  0  0  0
  -27.8722  -12.5405   18.1524 C   0  0  0  0  0  0  0  0  0  0  0  0
  -30.0637  -13.4872   18.9968 C   0  0  0  0  0  0  0  0  0  0  0  0
  -28.1141  -13.4390   20.5021 C   0  0  0  0  0  0  0  0  0  0  0  0
  -29.3454  -29.7599   19.4130 C   0  0  1  0  0  0  0  0  0  0  0  0
  -25.7987  -28.4566   19.8078 C   0  0  1  0  0  0  0  0  0  0  0  0
  -27.1522  -13.2459   19.3184 C   0  0  2  0  0  0  0  0  0  0  0  0
  -28.4288  -18.7318   25.6047 C   0  0  0  0  0  0  0  0  0  0  0  0
  -27.9983  -16.2278   24.2243 C   0  0  0  0  0  0  0  0  0  0  0  0
  -18.8360  -28.9329   23.1687 C   0  0  0  0  0  0  0  0  0  0  0  0
  -25.0557  -31.1916   23.4586 C   0  0  0  0  0  0  0  0  0  0  0  0
  -22.7961  -30.9872   24.5173 C   0  0  0  0  0  0  0  0  0  0  0  0
  -23.0441  -32.1544   22.3267 C   0  0  0  0  0  0  0  0  0  0  0  0
  -20.0528  -26.1772   20.8446 C   0  0  0  0  0  0  0  0  0  0  0  0
  -30.9769  -19.2153   19.7461 C   0  0  0  0  0  0  0  0  0  0  0  0
  -29.8306  -20.9124   24.2659 C   0  0  0  0  0  0  0  0  0  0  0  0
  -28.5900  -21.8049   24.3433 C   0  0  0  0  0  0  0  0  0  0  0  0
  -28.0805  -22.2503   22.9775 C   0  0  0  0  0  0  0  0  0  1  0  0
  -23.2720  -29.6383   22.4232 C   0  0  1  0  0  0  0  0  0  0  0  0
  -19.7377  -28.3021   22.1191 C   0  0  2  0  0  0  0  0  0  0  0  0
  -23.5567  -30.9696   23.1742 C   0  0  0  0  0  0  0  0  0  0  0  0
  -25.9586  -11.5898   20.7018 N   0  0  0  0  0  0  0  0  0  0  0  0
  -25.8889  -12.5112   19.7260 N   0  0  0  0  0  0  0  0  0  0  0  0
  -24.9095  -28.4836   20.9708 N   0  0  0  0  0  0  0  0  0  0  0  0
  -29.3156  -14.1634   20.0589 N   0  0  0  0  0  0  0  0  0  0  0  0
  -24.3898  -13.5575   18.2198 N   0  0  0  0  0  0  0  0  0  0  0  0
  -21.7522  -10.6684   20.4763 N   0  0  0  0  0  0  0  0  0  0  0  0
  -28.9693  -15.9621   21.5445 N   0  0  0  0  0  0  0  0  0  0  0  0
  -28.0297  -29.1887   19.2206 N   0  0  0  0  0  0  0  0  0  0  0  0
  -21.8634  -29.4146   22.1166 N   0  0  0  0  0  0  0  0  0  0  0  0
  -19.2692  -26.9089   21.8730 N   0  3  0  0  0  0  0  0  0  0  0  0
  -21.7870  -12.2522   18.8182 O   0  0  0  0  0  0  0  0  0  0  0  0
  -27.2433  -29.4354   21.3985 O   0  0  0  0  0  0  0  0  0  0  0  0
  -23.7899  -30.3916   20.2345 O   0  0  0  0  0  0  0  0  0  0  0  0
  -21.6731  -27.4005   23.2499 O   0  0  0  0  0  0  0  0  0  0  0  0
  -30.8056  -15.9295   20.1273 O   0  0  0  0  0  0  0  0  0  0  0  0
  -23.3727   -7.2057   24.5283 O   0  0  0  0  0  0  0  0  0  0  0  0
  -30.3049  -18.0937   20.3149 O   0  0  0  0  0  0  0  0  0  0  0  0
  -26.9403  -23.0877   23.1647 O   0  0  0  0  0  0  0  0  0  1  0  0
  -20.1301   -3.0754   22.8460 F   0  0  0  0  0  0  0  0  0  0  0  0
  -24.2467   -4.5849   24.6293 F   0  0  0  0  0  0  0  0  0  0  0  0
  1  2  1  0  0  0  0
  1  5  2  0  0  0  0
  2  6  2  0  0  0  0
  3  8  2  0  0  0  0
  3 16  1  0  0  0  0
  4  9  1  0  0  0  0
  4 16  2  0  0  0  0
  5 18  1  0  0  0  0
  6 20  1  0  0  0  0
  7 10  2  0  0  0  0
  7 19  1  0  0  0  0
  8 26  1  0  0  0  0
  9 26  2  0  0  0  0
 10 27  1  0  0  0  0
 11 12  2  0  0  0  0
 11 28  1  0  0  0  0
 12 30  1  0  0  0  0
 13 21  1  0  0  0  0
 13 27  2  0  0  0  0
 14 22  1  0  0  0  0
 14 29  2  0  0  0  0
 15 30  2  0  0  0  0
 15 31  1  0  0  0  0
 16 32  1  0  0  0  0
 17 32  1  0  0  0  0
 17 33  2  0  0  0  0
 17 34  1  0  0  0  0
 18 20  2  0  0  0  0
 18 39  1  0  0  0  0
 19 21  2  0  0  0  0
 19 40  1  0  0  0  0
 20 48  1  0  0  0  0
 21 41  1  0  0  0  0
 22 23  2  0  0  0  0
 22 59  1  0  0  0  0
 23 24  1  0  0  0  0
 23 51  1  0  0  0  0
 24 25  2  0  0  0  0
 24 52  1  0  0  0  0
 25 29  1  0  0  0  0
 25 71  1  0  0  0  0
 26 80  1  0  0  0  0
 27 82  1  0  0  0  0
 28 31  2  0  0  0  0
 28 80  1  0  0  0  0
 29 81  1  0  0  0  0
 30 83  1  0  0  0  0
 31 84  1  0  0  0  0
 32 65  2  0  0  0  0
 33 66  1  0  0  0  0
 33 69  1  0  0  0  0
 34 70  1  0  0  0  0
 34 75  2  0  0  0  0
 35 49  1  0  0  0  0
 35 72  1  0  0  0  0
 35 76  2  0  0  0  0
 36 62  1  0  0  0  0
 36 67  1  0  0  0  0
 36 77  2  0  0  0  0
 37 63  1  0  0  0  0
 37 73  1  0  0  0  0
 37 78  2  0  0  0  0
 38 68  1  0  0  0  0
 38 71  1  0  0  0  0
 38 79  2  0  0  0  0
 39 42  1  0  0  0  0
 40 49  1  0  0  0  0
 41 67  1  0  0  0  0
 42 44  1  0  0  0  0
 43 45  1  0  0  0  0
 43 46  1  0  0  0  0
 44 48  1  0  0  0  0
 45 50  1  0  0  0  0
 46 68  1  0  0  0  0
 47 50  1  0  0  0  0
 47 68  1  0  0  0  0
 48 72  1  0  0  0  0
 49 67  1  0  0  0  0
 50 66  1  0  0  0  0
 53 63  1  0  0  0  0
 54 64  1  0  0  0  0
 55 64  1  0  0  0  0
 56 64  1  0  0  0  0
 57 74  1  0  0  0  0
 58 81  1  0  0  0  0
 59 60  1  0  0  0  0
 60 61  1  0  0  0  0
 61 82  1  0  0  0  0
 62 64  1  0  0  0  0
 62 73  1  0  0  0  0
 63 74  1  0  0  0  0
 65 66  1  0  0  0  0
M  CHG  1  74   1
M  ISO  4  38 100  61 101  71 100  82 101
M  END
> <Batch ID>
0018

> <Smiles>
CNC(C)C(=O)NC(C(=O)N1Cc2cc([101O:1][101CH2:1]CCc3cc(OC)c([100NH:0][100C:0](=O)N4CCCC(n5nc(-c6ccc(Oc7ccc(F)cc7F)cc6)c(C(N)=O)c5N)C4)c(C)c3C)ccc2CC1C(=O)NC1CCCc2ccccc21)C(C)(C)C

> <Shape>
0.275

> <Color>
0.095

> <Negative vol penalty>
0.000

$$$$

  -OEChem-04052316043D

 88 96  0     1  0  0  0  0  0999 V2000
  -22.0160   -8.3344   20.8087 C   0  0  0  0  0  0  0  0  0  0  0  0
  -22.0861   -9.6809   21.1512 C   0  0  0  0  0  0  0  0  0  0  0  0
  -26.5210  -28.4269   21.3225 C   0  0  0  0  0  0  0  0  0  0  0  0
  -24.9050  -29.1669   19.6861 C   0  0  0  0  0  0  0  0  0  0  0  0
  -23.1617   -7.5417   20.8639 C   0  0  0  0  0  0  0  0  0  0  0  0
  -23.3017  -10.2353   21.5503 C   0  0  0  0  0  0  0  0  0  0  0  0
  -24.1993  -14.7194   19.3748 C   0  0  0  0  0  0  0  0  0  0  0  0
  -27.2533  -27.7986   20.3152 C   0  0  0  0  0  0  0  0  0  0  0  0
  -25.6372  -28.5386   18.6788 C   0  0  0  0  0  0  0  0  0  0  0  0
  -23.5313  -15.8258   19.8976 C   0  0  0  0  0  0  0  0  0  0  0  0
  -27.0824  -24.9341   18.5293 C   0  0  0  0  0  0  0  0  0  0  0  0
  -27.5460  -23.6419   18.7759 C   0  0  0  0  0  0  0  0  0  0  0  0
  -25.5173  -16.4385   21.1222 C   0  0  0  0  0  0  0  0  0  0  0  0
  -29.8199  -24.3997   18.4724 C   0  0  0  0  0  0  0  0  0  0  0  0
  -25.3468  -29.1111   21.0079 C   0  0  0  0  0  0  0  0  0  0  0  0
  -24.7334  -31.0837   22.5045 C   0  0  0  0  0  0  0  0  0  0  0  0
  -24.3940   -8.0889   21.2545 C   0  0  0  0  0  0  0  0  0  0  0  0
  -25.5301  -14.4577   19.7309 C   0  0  0  0  0  0  0  0  0  0  0  0
  -24.4647   -9.4489   21.6120 C   0  0  0  0  0  0  0  0  0  0  0  0
  -26.2007  -15.3295   20.6005 C   0  0  0  0  0  0  0  0  0  0  0  0
  -21.4427  -21.4427   22.2900 C   0  0  0  0  0  0  0  0  0  0  0  0
  -21.9031  -22.6089   22.9012 C   0  0  0  0  0  0  0  0  0  0  0  0
  -20.2307  -21.4487   21.5996 C   0  0  0  0  0  0  0  0  0  0  0  0
  -19.9393  -23.7873   22.1316 C   0  0  0  0  0  0  0  0  0  0  0  0
  -21.1514  -23.7812   22.8220 C   0  0  0  0  0  0  0  0  0  0  0  0
  -19.4790  -22.6210   21.5204 C   0  0  0  0  0  0  0  0  0  0  0  0
  -26.8114  -27.8545   18.9934 C   0  0  0  0  0  0  0  0  0  0  0  0
  -24.1894  -16.6840   20.7737 C   0  0  0  0  0  0  0  0  0  0  0  0
  -27.9876  -25.9591   18.2541 C   0  0  0  0  0  0  0  0  0  0  0  0
  -28.9147  -23.3746   18.7475 C   0  0  0  0  0  0  0  0  0  0  0  0
  -29.3563  -25.6919   18.2257 C   0  0  0  0  0  0  0  0  0  0  0  0
  -24.5896  -29.7598   22.0481 C   0  0  0  0  0  0  0  0  0  0  0  0
  -23.7887  -31.2104   23.4935 C   0  0  0  0  0  0  0  0  0  0  0  0
  -25.6397  -32.1075   22.0731 C   0  0  0  0  0  0  0  0  0  0  0  0
  -27.0292  -12.0790   21.2136 C   0  0  0  0  0  0  0  0  0  0  0  0
  -29.6810  -13.7570   20.3922 C   0  0  0  0  0  0  0  0  0  0  0  0
  -31.0648  -16.7638   19.5610 C   0  0  0  0  0  0  0  0  0  0  0  0
  -21.3900  -26.2873   23.0496 C   0  0  0  0  0  0  0  0  0  0  0  0
  -25.5954   -7.1816   21.3444 C   0  0  0  0  0  0  0  0  0  0  0  0
  -26.2450  -13.2749   19.1373 C   0  0  0  0  0  0  0  0  0  0  0  0
  -27.6357  -15.1042   20.9984 C   0  0  0  0  0  0  0  0  0  0  0  0
  -26.9221   -7.9331   21.4173 C   0  0  0  0  0  0  0  0  0  0  0  0
  -21.6718  -28.0487   26.4678 C   0  0  0  0  0  0  0  0  0  0  0  0
  -26.8372   -9.0689   22.4319 C   0  0  0  0  0  0  0  0  0  0  0  0
  -22.5678  -29.1233   25.8651 C   0  0  0  0  0  0  0  0  0  0  0  0
  -21.5828  -26.8472   25.5308 C   0  0  0  0  0  0  0  0  0  0  0  0
  -21.0454  -28.6157   23.8527 C   0  0  0  0  0  0  0  0  0  0  0  0
  -25.7702  -10.0926   22.0260 C   0  0  1  0  0  0  0  0  0  0  0  0
  -27.4382  -12.8179   19.9708 C   0  0  1  0  0  0  0  0  0  0  0  0
  -22.0315  -29.6077   24.5031 C   0  0  2  0  0  0  0  0  0  0  0  0
  -23.2046  -22.5976   23.6412 C   0  0  0  0  0  0  0  0  0  0  0  0
  -19.7396  -20.1949   20.9452 C   0  0  0  0  0  0  0  0  0  0  0  0
  -19.2624  -25.7211   20.6864 C   0  0  0  0  0  0  0  0  0  0  0  0
  -33.2625  -17.8283   18.9825 C   0  0  0  0  0  0  0  0  0  0  0  0
  -16.2242  -21.6432   19.9800 C   0  0  0  0  0  0  0  0  0  0  0  0
  -16.4372  -22.3939   22.3752 C   0  0  0  0  0  0  0  0  0  0  0  0
  -30.4939  -13.6702   23.3318 C   0  0  0  0  0  0  0  0  0  0  0  0
  -32.1313  -15.5048   22.8611 C   0  0  0  0  0  0  0  0  0  0  0  0
  -32.3694  -13.2997   21.7194 C   0  0  0  0  0  0  0  0  0  0  0  0
  -30.0959  -17.5840   16.8875 C   0  0  0  0  0  0  0  0  0  0  0  0
  -22.2548  -20.1750   22.3755 C   0  0  0  0  0  0  0  0  0  0  0  0
  -19.1317  -25.0460   22.0465 C   0  0  0  0  0  0  0  0  0  0  0  0
  -23.4688  -20.1573   21.4442 C   0  0  0  0  0  0  0  0  0  0  0  0
  -24.3307  -18.9097   21.5995 C   0  0  0  0  0  0  0  0  0  1  0  0
  -30.4949  -14.8529   21.0368 C   0  0  1  0  0  0  0  0  0  0  0  0
  -32.0070  -17.1635   18.4398 C   0  0  2  0  0  0  0  0  0  0  0  0
  -17.1526  -21.7869   21.1772 C   0  0  0  0  0  0  0  0  0  0  0  0
  -31.3447  -14.3354   22.2315 C   0  0  0  0  0  0  0  0  0  0  0  0
  -23.6294  -29.0930   22.6941 N   0  0  0  0  0  0  0  0  0  0  0  0
  -23.1612  -30.0017   23.5667 N   0  0  0  0  0  0  0  0  0  0  0  0
  -28.2897  -13.9306   20.3964 N   0  0  0  0  0  0  0  0  0  0  0  0
  -21.3745  -27.2137   24.1222 N   0  0  0  0  0  0  0  0  0  0  0  0
  -23.4419  -32.2367   24.2990 N   0  0  0  0  0  0  0  0  0  0  0  0
  -26.5447  -31.8090   21.0454 N   0  0  0  0  0  0  0  0  0  0  0  0
  -21.6197  -24.9663   23.4434 N   0  0  0  0  0  0  0  0  0  0  0  0
  -18.2502  -22.6273   20.8196 N   0  0  0  0  0  0  0  0  0  0  0  0
  -26.2681  -10.9511   20.9727 N   0  0  0  0  0  0  0  0  0  0  0  0
  -31.2771  -15.4634   19.9672 N   0  0  0  0  0  0  0  0  0  0  0  0
  -31.3340  -18.1165   17.5126 N   0  3  0  0  0  0  0  0  0  0  0  0
  -25.6579  -33.2481   22.5950 O   0  0  0  0  0  0  0  0  0  0  0  0
  -27.3795  -12.5001   22.3097 O   0  0  0  0  0  0  0  0  0  0  0  0
  -30.2587  -12.7863   19.8967 O   0  0  0  0  0  0  0  0  0  0  0  0
  -30.2271  -17.5299   20.0319 O   0  0  0  0  0  0  0  0  0  0  0  0
  -21.2099  -26.6437   21.8833 O   0  0  0  0  0  0  0  0  0  0  0  0
  -27.5259  -27.2417   18.0102 O   0  0  0  0  0  0  0  0  0  0  0  0
  -23.5395  -17.7643   21.2860 O   0  0  0  0  0  0  0  0  0  1  0  0
  -29.3598  -22.1340   18.9860 F   0  0  0  0  0  0  0  0  0  0  0  0
  -30.2308  -26.6728   17.9631 F   0  0  0  0  0  0  0  0  0  0  0  0
  1  2  1  0  0  0  0
  1  5  2  0  0  0  0
  2  6  2  0  0  0  0
  3  8  2  0  0  0  0
  3 15  1  0  0  0  0
  4  9  1  0  0  0  0
  4 15  2  0  0  0  0
  5 17  1  0  0  0  0
  6 19  1  0  0  0  0
  7 10  2  0  0  0  0
  7 18  1  0  0  0  0
  8 27  1  0  0  0  0
  9 27  2  0  0  0  0
 10 28  1  0  0  0  0
 11 12  2  0  0  0  0
 11 29  1  0  0  0  0
 12 30  1  0  0  0  0
 13 20  1  0  0  0  0
 13 28  2  0  0  0  0
 14 30  2  0  0  0  0
 14 31  1  0  0  0  0
 15 32  1  0  0  0  0
 16 32  1  0  0  0  0
 16 33  2  0  0  0  0
 16 34  1  0  0  0  0
 17 19  2  0  0  0  0
 17 39  1  0  0  0  0
 18 20  2  0  0  0  0
 18 40  1  0  0  0  0
 19 48  1  0  0  0  0
 20 41  1  0  0  0  0
 21 22  2  0  0  0  0
 21 23  1  0  0  0  0
 21 61  1  0  0  0  0
 22 25  1  0  0  0  0
 22 51  1  0  0  0  0
 23 26  2  0  0  0  0
 23 52  1  0  0  0  0
 24 25  2  0  0  0  0
 24 26  1  0  0  0  0
 24 62  1  0  0  0  0
 25 75  1  0  0  0  0
 26 76  1  0  0  0  0
 27 85  1  0  0  0  0
 28 86  1  0  0  0  0
 29 31  2  0  0  0  0
 29 85  1  0  0  0  0
 30 87  1  0  0  0  0
 31 88  1  0  0  0  0
 32 69  2  0  0  0  0
 33 70  1  0  0  0  0
 33 73  1  0  0  0  0
 34 74  1  0  0  0  0
 34 80  2  0  0  0  0
 35 49  1  0  0  0  0
 35 77  1  0  0  0  0
 35 81  2  0  0  0  0
 36 65  1  0  0  0  0
 36 71  1  0  0  0  0
 36 82  2  0  0  0  0
 37 66  1  0  0  0  0
 37 78  1  0  0  0  0
 37 83  2  0  0  0  0
 38 72  1  0  0  0  0
 38 75  1  0  0  0  0
 38 84  2  0  0  0  0
 39 42  1  0  0  0  0
 40 49  1  0  0  0  0
 41 71  1  0  0  0  0
 42 44  1  0  0  0  0
 43 45  1  0  0  0  0
 43 46  1  0  0  0  0
 44 48  1  0  0  0  0
 45 50  1  0  0  0  0
 46 72  1  0  0  0  0
 47 50  1  0  0  0  0
 47 72  1  0  0  0  0
 48 77  1  0  0  0  0
 49 71  1  0  0  0  0
 50 70  1  0  0  0  0
 53 62  1  0  0  0  0
 54 66  1  0  0  0  0
 55 67  1  0  0  0  0
 56 67  1  0  0  0  0
 57 68  1  0  0  0  0
 58 68  1  0  0  0  0
 59 68  1  0  0  0  0
 60 79  1  0  0  0  0
 61 63  1  0  0  0  0
 63 64  1  0  0  0  0
 64 86  1  0  0  0  0
 65 68  1  0  0  0  0
 65 78  1  0  0  0  0
 66 79  1  0  0  0  0
 67 76  1  0  0  0  0
 69 70  1  0  0  0  0
M  CHG  1  79   1
M  ISO  4  38 100  64 101  75 100  86 101
M  END
> <Batch ID>
0018

> <Smiles>
CCc1c(NC(C)C)c(C)c(CC[101CH2:1][101O:1]c2ccc3c(c2)CN(C(=O)C(NC(=O)C(C)NC)C(C)(C)C)C(C(=O)NC2CCCc4ccccc42)C3)c(C)c1[100NH:0][100C:0](=O)N1CCCC(n2nc(-c3ccc(Oc4ccc(F)cc4F)cc3)c(C(N)=O)c2N)C1

> <Shape>
0.256

> <Color>
0.080

> <Negative vol penalty>
0.000

$$$$

  -OEChem-04052316043D

 87 95  0     1  0  0  0  0  0999 V2000
  -33.4858  -27.3771   28.3724 C   0  0  0  0  0  0  0  0  0  0  0  0
  -33.0113  -26.7618   27.2184 C   0  0  0  0  0  0  0  0  0  0  0  0
  -23.2031   -9.8310   19.9922 C   0  0  0  0  0  0  0  0  0  0  0  0
  -24.0848   -9.9115   22.2401 C   0  0  0  0  0  0  0  0  0  0  0  0
  -32.8904  -28.5520   28.8297 C   0  0  0  0  0  0  0  0  0  0  0  0
  -31.9405  -27.3205   26.5216 C   0  0  0  0  0  0  0  0  0  0  0  0
  -32.7121  -27.4069   21.5174 C   0  0  0  0  0  0  0  0  0  0  0  0
  -22.5699   -8.6228   20.2838 C   0  0  0  0  0  0  0  0  0  0  0  0
  -23.4515   -8.7034   22.5318 C   0  0  0  0  0  0  0  0  0  0  0  0
  -32.5298  -26.2111   20.8243 C   0  0  0  0  0  0  0  0  0  0  0  0
  -20.4251   -5.6994   20.5460 C   0  0  0  0  0  0  0  0  0  0  0  0
  -19.1028   -5.5435   20.1306 C   0  0  0  0  0  0  0  0  0  0  0  0
  -30.3436  -26.9554   20.1272 C   0  0  0  0  0  0  0  0  0  0  0  0
  -28.5175  -19.2143   20.5727 C   0  0  0  0  0  0  0  0  0  0  0  0
  -18.4555   -7.4414   21.4783 C   0  0  0  0  0  0  0  0  0  0  0  0
  -23.9606  -10.4753   20.9703 C   0  0  0  0  0  0  0  0  0  0  0  0
  -24.0898  -13.0191   20.8294 C   0  0  0  0  0  0  0  0  0  0  0  0
  -31.8180  -29.1307   28.1328 C   0  0  0  0  0  0  0  0  0  0  0  0
  -31.7054  -28.3831   21.5296 C   0  0  0  0  0  0  0  0  0  0  0  0
  -31.3294  -28.5036   26.9707 C   0  0  0  0  0  0  0  0  0  0  0  0
  -30.5166  -28.1639   20.8191 C   0  0  0  0  0  0  0  0  0  0  0  0
  -28.9351  -18.0693   19.8945 C   0  0  0  0  0  0  0  0  0  0  0  0
  -29.1291  -20.5666   18.6663 C   0  0  0  0  0  0  0  0  0  0  0  0
  -29.5467  -19.4215   17.9881 C   0  0  0  0  0  0  0  0  0  0  0  0
  -22.6941   -8.0591   21.5536 C   0  0  0  0  0  0  0  0  0  0  0  0
  -31.3442  -25.9839   20.1314 C   0  0  0  0  0  0  0  0  0  0  0  0
  -20.7627   -6.7263   21.4277 C   0  0  0  0  0  0  0  0  0  0  0  0
  -18.1180   -6.4145   20.5966 C   0  0  0  0  0  0  0  0  0  0  0  0
  -28.6144  -20.4630   19.9586 C   0  0  0  0  0  0  0  0  0  0  0  0
  -19.7779   -7.5973   21.8938 C   0  0  0  0  0  0  0  0  0  0  0  0
  -29.4498  -18.1728   18.6022 C   0  0  0  0  0  0  0  0  0  0  0  0
  -24.6154  -11.7230   20.6695 C   0  0  0  0  0  0  0  0  0  0  0  0
  -25.0960  -13.8525   20.4058 C   0  0  0  0  0  0  0  0  0  0  0  0
  -22.8066  -13.4328   21.3174 C   0  0  0  0  0  0  0  0  0  0  0  0
  -29.9217  -29.7377   23.7851 C   0  0  0  0  0  0  0  0  0  0  0  0
  -28.9214  -31.6027   21.3267 C   0  0  0  0  0  0  0  0  0  0  0  0
  -28.4862  -31.9735   17.9622 C   0  0  0  0  0  0  0  0  0  0  0  0
  -30.6514  -15.0191   20.7128 C   0  0  0  0  0  0  0  0  0  0  0  0
  -31.1762  -30.3757   28.6919 C   0  0  0  0  0  0  0  0  0  0  0  0
  -31.9283  -29.6790   22.2600 C   0  0  0  0  0  0  0  0  0  0  0  0
  -29.4132  -29.1884   20.7841 C   0  0  0  0  0  0  0  0  0  0  0  0
  -30.2885  -31.1068   27.6880 C   0  0  0  0  0  0  0  0  0  0  0  0
  -29.4083  -12.8638   17.9722 C   0  0  0  0  0  0  0  0  0  0  0  0
  -29.3729  -30.1216   26.9684 C   0  0  0  0  0  0  0  0  0  0  0  0
  -28.0365  -12.4299   18.4858 C   0  0  0  0  0  0  0  0  0  0  0  0
  -30.3748  -13.1582   19.1154 C   0  0  0  0  0  0  0  0  0  0  0  0
  -28.4879  -13.7143   20.6135 C   0  0  0  0  0  0  0  0  0  0  0  0
  -30.1858  -29.0926   26.1736 C   0  0  1  0  0  0  0  0  0  0  0  0
  -30.6289  -30.3877   22.6296 C   0  0  1  0  0  0  0  0  0  0  0  0
  -27.4762  -13.4549   19.4872 C   0  0  2  0  0  0  0  0  0  0  0  0
  -30.0961  -19.5552   16.6014 C   0  0  0  0  0  0  0  0  0  0  0  0
  -27.6105  -33.5916   16.2557 C   0  0  0  0  0  0  0  0  0  0  0  0
  -32.1747  -23.9286   16.8386 C   0  0  0  0  0  0  0  0  0  0  0  0
  -26.0630  -30.8495   22.0829 C   0  0  0  0  0  0  0  0  0  0  0  0
  -25.3240  -31.6843   19.8412 C   0  0  0  0  0  0  0  0  0  0  0  0
  -26.3806  -33.2527   21.4680 C   0  0  0  0  0  0  0  0  0  0  0  0
  -30.9472  -17.2480   21.7249 C   0  0  0  0  0  0  0  0  0  0  0  0
  -31.1295  -32.1996   16.6503 C   0  0  0  0  0  0  0  0  0  0  0  0
  -28.8122  -16.7528   20.5924 C   0  0  0  0  0  0  0  0  0  0  0  0
  -29.2230  -21.9210   18.0278 C   0  0  0  0  0  0  0  0  0  0  0  0
  -30.3325  -24.8609   18.2953 C   0  0  0  0  0  0  0  0  0  1  0  0
  -27.8117  -31.5221   20.3065 C   0  0  1  0  0  0  0  0  0  0  0  0
  -28.8343  -33.1126   17.0210 C   0  0  2  0  0  0  0  0  0  0  0  0
  -30.7374  -23.7722   17.3079 C   0  0  2  0  0  0  0  0  0  0  0  0
  -26.4146  -31.8069   20.9267 C   0  0  0  0  0  0  0  0  0  0  0  0
  -25.8590  -11.7275   20.1821 N   0  0  0  0  0  0  0  0  0  0  0  0
  -26.1231  -13.0366   20.0321 N   0  0  0  0  0  0  0  0  0  0  0  0
  -29.6761  -30.4368   21.5188 N   0  0  0  0  0  0  0  0  0  0  0  0
  -29.8003  -14.1018   20.0748 N   0  0  0  0  0  0  0  0  0  0  0  0
  -25.1936  -15.1962   20.3201 N   0  0  0  0  0  0  0  0  0  0  0  0
  -21.8917  -12.4467   21.7108 N   0  0  0  0  0  0  0  0  0  0  0  0
  -30.6741  -29.6760   24.9425 N   0  0  0  0  0  0  0  0  0  0  0  0
  -28.1827  -32.4308   19.2271 N   0  0  0  0  0  0  0  0  0  0  0  0
  -30.1015  -16.2591   21.0715 N   0  0  0  0  0  0  0  0  0  0  0  0
  -29.8630  -32.6745   16.0358 N   0  3  0  0  0  0  0  0  0  0  0  0
  -30.6104  -22.4488   17.9842 N   0  3  0  0  0  0  0  0  0  0  0  0
  -22.4750  -14.6406   21.3866 O   0  0  0  0  0  0  0  0  0  0  0  0
  -28.7776  -29.3242   23.6379 O   0  0  0  0  0  0  0  0  0  0  0  0
  -29.1162  -32.6633   21.9259 O   0  0  0  0  0  0  0  0  0  0  0  0
  -28.4804  -30.7962   17.6096 O   0  0  0  0  0  0  0  0  0  0  0  0
  -31.8377  -14.7490   20.9397 O   0  0  0  0  0  0  0  0  0  0  0  0
  -22.0761   -6.8803   21.8386 O   0  0  0  0  0  0  0  0  0  0  0  0
  -31.1634  -24.8172   19.4547 O   0  0  0  0  0  0  0  0  0  1  0  0
  -16.8484   -6.2656   20.1964 F   0  0  0  0  0  0  0  0  0  0  0  0
  -28.2102  -21.5571   20.6192 F   0  0  0  0  0  0  0  0  0  0  0  0
  -20.0964   -8.5864   22.7400 F   0  0  0  0  0  0  0  0  0  0  0  0
  -29.9674  -16.7483   17.7632 Cl  0  0  0  0  0  0  0  0  0  0  0  0
  1  2  1  0  0  0  0
  1  5  2  0  0  0  0
  2  6  2  0  0  0  0
  3  8  2  0  0  0  0
  3 16  1  0  0  0  0
  4  9  1  0  0  0  0
  4 16  2  0  0  0  0
  5 18  1  0  0  0  0
  6 20  1  0  0  0  0
  7 10  2  0  0  0  0
  7 19  1  0  0  0  0
  8 25  1  0  0  0  0
  9 25  2  0  0  0  0
 10 26  1  0  0  0  0
 11 12  2  0  0  0  0
 11 27  1  0  0  0  0
 12 28  1  0  0  0  0
 13 21  1  0  0  0  0
 13 26  2  0  0  0  0
 14 22  1  0  0  0  0
 14 29  2  0  0  0  0
 15 28  2  0  0  0  0
 15 30  1  0  0  0  0
 16 32  1  0  0  0  0
 17 32  1  0  0  0  0
 17 33  2  0  0  0  0
 17 34  1  0  0  0  0
 18 20  2  0  0  0  0
 18 39  1  0  0  0  0
 19 21  2  0  0  0  0
 19 40  1  0  0  0  0
 20 48  1  0  0  0  0
 21 41  1  0  0  0  0
 22 31  2  0  0  0  0
 22 59  1  0  0  0  0
 23 24  2  0  0  0  0
 23 29  1  0  0  0  0
 23 60  1  0  0  0  0
 24 31  1  0  0  0  0
 24 51  1  0  0  0  0
 25 82  1  0  0  0  0
 26 83  1  0  0  0  0
 27 30  2  0  0  0  0
 27 82  1  0  0  0  0
 28 84  1  0  0  0  0
 29 85  1  0  0  0  0
 30 86  1  0  0  0  0
 31 87  1  0  0  0  0
 32 66  2  0  0  0  0
 33 67  1  0  0  0  0
 33 70  1  0  0  0  0
 34 71  1  0  0  0  0
 34 77  2  0  0  0  0
 35 49  1  0  0  0  0
 35 72  1  0  0  0  0
 35 78  2  0  0  0  0
 36 62  1  0  0  0  0
 36 68  1  0  0  0  0
 36 79  2  0  0  0  0
 37 63  1  0  0  0  0
 37 73  1  0  0  0  0
 37 80  2  0  0  0  0
 38 69  1  0  0  0  0
 38 74  1  0  0  0  0
 38 81  2  0  0  0  0
 39 42  1  0  0  0  0
 40 49  1  0  0  0  0
 41 68  1  0  0  0  0
 42 44  1  0  0  0  0
 43 45  1  0  0  0  0
 43 46  1  0  0  0  0
 44 48  1  0  0  0  0
 45 50  1  0  0  0  0
 46 69  1  0  0  0  0
 47 50  1  0  0  0  0
 47 69  1  0  0  0  0
 48 72  1  0  0  0  0
 49 68  1  0  0  0  0
 50 67  1  0  0  0  0
 52 63  1  0  0  0  0
 53 64  1  0  0  0  0
 54 65  1  0  0  0  0
 55 65  1  0  0  0  0
 56 65  1  0  0  0  0
 57 74  1  0  0  0  0
 58 75  1  0  0  0  0
 59 74  1  0  0  0  0
 60 76  1  0  0  0  0
 61 64  1  0  0  0  0
 61 83  1  0  0  0  0
 62 65  1  0  0  0  0
 62 73  1  0  0  0  0
 63 75  1  0  0  0  0
 64 76  1  0  0  0  0
 66 67  1  0  0  0  0
M  CHG  2  75   1  76   1
M  ISO  4  38 100  61 101  74 100  83 101
M  END
> <Batch ID>
0018

> <Smiles>
CNC(C)C(=O)NC(C(=O)N1Cc2cc([101O:1][101CH2:1]C(C)NCc3c(F)cc(C[100N:0](C)[100C:0](=O)N4CCCC(n5nc(-c6ccc(Oc7ccc(F)cc7F)cc6)c(C(N)=O)c5N)C4)c(Cl)c3C)ccc2CC1C(=O)NC1CCCc2ccccc21)C(C)(C)C

> <Shape>
0.268

> <Color>
0.184

> <Negative vol penalty>
0.000

$$$$

  -OEChem-04052316042D

  0  0  0     0  0  0  0  0  0999 V2000
M  END
$$$$

  -OEChem-04052316043D

 82 90  0     1  0  0  0  0  0999 V2000
  -33.9007  -32.8304   23.1540 C   0  0  0  0  0  0  0  0  0  0  0  0
  -34.0001  -31.4717   22.8720 C   0  0  0  0  0  0  0  0  0  0  0  0
  -23.1309   -9.8253   19.9714 C   0  0  0  0  0  0  0  0  0  0  0  0
  -23.9652   -9.8786   22.2381 C   0  0  0  0  0  0  0  0  0  0  0  0
  -32.6764  -33.4826   23.0131 C   0  0  0  0  0  0  0  0  0  0  0  0
  -32.8751  -30.7642   22.4500 C   0  0  0  0  0  0  0  0  0  0  0  0
  -32.7290  -26.1216   18.4586 C   0  0  0  0  0  0  0  0  0  0  0  0
  -22.4491   -8.6408   20.2501 C   0  0  0  0  0  0  0  0  0  0  0  0
  -23.2834   -8.6941   22.5169 C   0  0  0  0  0  0  0  0  0  0  0  0
  -32.6831  -24.7387   18.6296 C   0  0  0  0  0  0  0  0  0  0  0  0
  -21.4709   -5.8764   23.9288 C   0  0  0  0  0  0  0  0  0  0  0  0
  -20.7566   -5.8045   25.1247 C   0  0  0  0  0  0  0  0  0  0  0  0
  -30.2847  -24.7931   18.3763 C   0  0  0  0  0  0  0  0  0  0  0  0
  -19.4014   -7.6793   24.4281 C   0  0  0  0  0  0  0  0  0  0  0  0
  -23.8890  -10.4442   20.9653 C   0  0  0  0  0  0  0  0  0  0  0  0
  -24.1111  -12.9816   20.8249 C   0  0  0  0  0  0  0  0  0  0  0  0
  -31.5380  -32.7848   22.5799 C   0  0  0  0  0  0  0  0  0  0  0  0
  -31.5500  -26.8533   18.2557 C   0  0  0  0  0  0  0  0  0  0  0  0
  -31.6342  -31.4073   22.3045 C   0  0  0  0  0  0  0  0  0  0  0  0
  -30.3186  -26.1848   18.2004 C   0  0  0  0  0  0  0  0  0  0  0  0
  -22.5254   -8.0752   21.5229 C   0  0  0  0  0  0  0  0  0  0  0  0
  -31.4606  -24.0746   18.5913 C   0  0  0  0  0  0  0  0  0  0  0  0
  -21.1505   -6.8499   22.9825 C   0  0  0  0  0  0  0  0  0  0  0  0
  -19.7219   -6.7059   25.3743 C   0  0  0  0  0  0  0  0  0  0  0  0
  -20.1157   -7.7513   23.2321 C   0  0  0  0  0  0  0  0  0  0  0  0
  -24.5940  -11.6675   20.6778 C   0  0  0  0  0  0  0  0  0  0  0  0
  -25.1552  -13.7782   20.4227 C   0  0  0  0  0  0  0  0  0  0  0  0
  -22.8329  -13.4413   21.2840 C   0  0  0  0  0  0  0  0  0  0  0  0
  -30.0449  -29.1651   19.8348 C   0  0  0  0  0  0  0  0  0  0  0  0
  -28.1149  -29.1556   17.2276 C   0  0  0  0  0  0  0  0  0  0  0  0
  -31.8683  -20.9000   20.2562 C   0  0  0  0  0  0  0  0  0  0  0  0
  -26.8691  -27.4431   14.5514 C   0  0  0  0  0  0  0  0  0  0  0  0
  -30.7402  -14.7484   20.8509 C   0  0  0  0  0  0  0  0  0  0  0  0
  -30.2257  -33.5224   22.4880 C   0  0  0  0  0  0  0  0  0  0  0  0
  -31.6191  -28.3411   18.0463 C   0  0  0  0  0  0  0  0  0  0  0  0
  -29.0262  -26.9216   17.9652 C   0  0  0  0  0  0  0  0  0  0  0  0
  -29.1663  -32.7818   21.6759 C   0  0  0  0  0  0  0  0  0  0  0  0
  -29.4823  -12.6336   18.0856 C   0  0  0  0  0  0  0  0  0  0  0  0
  -29.1062  -31.3146   22.0889 C   0  0  0  0  0  0  0  0  0  0  0  0
  -28.0850  -12.2493   18.5693 C   0  0  0  0  0  0  0  0  0  0  0  0
  -31.1003  -19.2463   22.7441 C   0  0  0  0  0  0  0  0  0  0  0  0
  -30.3265  -17.9232   22.7814 C   0  0  0  0  0  0  0  0  0  0  0  0
  -31.8339  -17.8838   20.9012 C   0  0  0  0  0  0  0  0  0  0  0  0
  -30.4333  -12.8956   19.2495 C   0  0  0  0  0  0  0  0  0  0  0  0
  -28.5347  -13.5206   20.7052 C   0  0  0  0  0  0  0  0  0  0  0  0
  -30.4419  -30.6108   21.8206 C   0  0  1  0  0  0  0  0  0  0  0  0
  -30.3052  -29.0503   18.3594 C   0  0  1  0  0  0  0  0  0  0  0  0
  -27.5394  -13.2952   19.5571 C   0  0  2  0  0  0  0  0  0  0  0  0
  -32.2985  -19.0023   21.8265 C   0  0  1  0  0  0  0  0  0  0  0  0
  -31.0924  -16.9672   21.8671 C   0  0  2  0  0  0  0  0  0  0  0  0
  -25.2819  -27.6859   12.6229 C   0  0  0  0  0  0  0  0  0  0  0  0
  -25.7542  -28.8201   19.1314 C   0  0  0  0  0  0  0  0  0  0  0  0
  -24.3614  -28.1249   17.1706 C   0  0  0  0  0  0  0  0  0  0  0  0
  -25.3546  -30.4120   17.2444 C   0  0  0  0  0  0  0  0  0  0  0  0
  -34.0990  -20.6162   21.3556 C   0  0  0  0  0  0  0  0  0  0  0  0
  -28.9667  -16.5458   20.6884 C   0  0  0  0  0  0  0  0  0  0  0  0
  -29.0264  -27.0132   12.5714 C   0  0  0  0  0  0  0  0  0  0  0  0
  -32.4213  -22.1360   19.5787 C   0  0  0  0  0  0  0  0  0  1  0  0
  -26.8570  -28.4210   16.8313 C   0  0  1  0  0  0  0  0  0  0  0  0
  -26.7224  -27.8265   13.0899 C   0  0  2  0  0  0  0  0  0  0  0  0
  -25.6058  -28.9306   17.6008 C   0  0  0  0  0  0  0  0  0  0  0  0
  -25.8473  -11.6272   20.2179 N   0  0  0  0  0  0  0  0  0  0  0  0
  -26.1608  -12.9259   20.0725 N   0  0  0  0  0  0  0  0  0  0  0  0
  -29.1453  -28.3763   17.7724 N   0  0  0  0  0  0  0  0  0  0  0  0
  -29.8715  -13.8606   20.1952 N   0  0  0  0  0  0  0  0  0  0  0  0
  -25.3021  -15.1174   20.3379 N   0  0  0  0  0  0  0  0  0  0  0  0
  -21.8753  -12.4887   21.6581 N   0  0  0  0  0  0  0  0  0  0  0  0
  -30.5767  -30.3019   20.4131 N   0  0  0  0  0  0  0  0  0  0  0  0
  -26.7554  -28.5388   15.3807 N   0  0  0  0  0  0  0  0  0  0  0  0
  -32.7202  -20.2006   21.1117 N   0  0  0  0  0  0  0  0  0  0  0  0
  -30.2268  -16.0077   21.1962 N   0  0  0  0  0  0  0  0  0  0  0  0
  -27.5800  -26.9555   12.2373 N   0  3  0  0  0  0  0  0  0  0  0  0
  -22.5428  -14.6601   21.3448 O   0  0  0  0  0  0  0  0  0  0  0  0
  -29.4074  -28.2881   20.4059 O   0  0  0  0  0  0  0  0  0  0  0  0
  -28.1835  -30.3749   17.0534 O   0  0  0  0  0  0  0  0  0  0  0  0
  -30.6991  -20.5729   20.0307 O   0  0  0  0  0  0  0  0  0  0  0  0
  -27.0614  -26.2867   14.9207 O   0  0  0  0  0  0  0  0  0  0  0  0
  -31.9110  -14.4369   21.1041 O   0  0  0  0  0  0  0  0  0  0  0  0
  -21.8600   -6.9195   21.7953 O   0  0  0  0  0  0  0  0  0  0  0  0
  -31.4129  -22.7249   18.7586 O   0  0  0  0  0  0  0  0  0  1  0  0
  -19.0350   -6.6357   26.5222 F   0  0  0  0  0  0  0  0  0  0  0  0
  -19.8025   -8.6879   22.3263 F   0  0  0  0  0  0  0  0  0  0  0  0
  1  2  1  0  0  0  0
  1  5  2  0  0  0  0
  2  6  2  0  0  0  0
  3  8  2  0  0  0  0
  3 15  1  0  0  0  0
  4  9  1  0  0  0  0
  4 15  2  0  0  0  0
  5 17  1  0  0  0  0
  6 19  1  0  0  0  0
  7 10  2  0  0  0  0
  7 18  1  0  0  0  0
  8 21  1  0  0  0  0
  9 21  2  0  0  0  0
 10 22  1  0  0  0  0
 11 12  2  0  0  0  0
 11 23  1  0  0  0  0
 12 24  1  0  0  0  0
 13 20  1  0  0  0  0
 13 22  2  0  0  0  0
 14 24  2  0  0  0  0
 14 25  1  0  0  0  0
 15 26  1  0  0  0  0
 16 26  1  0  0  0  0
 16 27  2  0  0  0  0
 16 28  1  0  0  0  0
 17 19  2  0  0  0  0
 17 34  1  0  0  0  0
 18 20  2  0  0  0  0
 18 35  1  0  0  0  0
 19 46  1  0  0  0  0
 20 36  1  0  0  0  0
 21 79  1  0  0  0  0
 22 80  1  0  0  0  0
 23 25  2  0  0  0  0
 23 79  1  0  0  0  0
 24 81  1  0  0  0  0
 25 82  1  0  0  0  0
 26 62  2  0  0  0  0
 27 63  1  0  0  0  0
 27 66  1  0  0  0  0
 28 67  1  0  0  0  0
 28 73  2  0  0  0  0
 29 47  1  0  0  0  0
 29 68  1  0  0  0  0
 29 74  2  0  0  0  0
 30 59  1  0  0  0  0
 30 64  1  0  0  0  0
 30 75  2  0  0  0  0
 31 58  1  0  0  0  0
 31 70  1  0  0  0  0
 31 76  2  0  0  0  0
 32 60  1  0  0  0  0
 32 69  1  0  0  0  0
 32 77  2  0  0  0  0
 33 65  1  0  0  0  0
 33 71  1  0  0  0  0
 33 78  2  0  0  0  0
 34 37  1  0  0  0  0
 35 47  1  0  0  0  0
 36 64  1  0  0  0  0
 37 39  1  0  0  0  0
 38 40  1  0  0  0  0
 38 44  1  0  0  0  0
 39 46  1  0  0  0  0
 40 48  1  0  0  0  0
 41 42  1  0  0  0  0
 41 49  1  0  0  0  0
 42 50  1  0  0  0  0
 43 49  1  0  0  0  0
 43 50  1  0  0  0  0
 44 65  1  0  0  0  0
 45 48  1  0  0  0  0
 45 65  1  0  0  0  0
 46 68  1  0  0  0  0
 47 64  1  0  0  0  0
 48 63  1  0  0  0  0
 49 70  1  0  0  0  0
 50 71  1  0  0  0  0
 51 60  1  0  0  0  0
 52 61  1  0  0  0  0
 53 61  1  0  0  0  0
 54 61  1  0  0  0  0
 55 70  1  0  0  0  0
 56 71  1  0  0  0  0
 57 72  1  0  0  0  0
 58 80  1  0  0  0  0
 59 61  1  0  0  0  0
 59 69  1  0  0  0  0
 60 72  1  0  0  0  0
 62 63  1  0  0  0  0
M  CHG  1  72   1
M  ISO  4  33 100  58 101  71 100  80 101
M  END
> <Batch ID>
0018

> <Smiles>
CNC(C)C(=O)NC(C(=O)N1Cc2cc([101O:1][101CH2:1]C(=O)N(C)C3CCC([100N:0](C)[100C:0](=O)N4CCCC(n5nc(-c6ccc(Oc7ccc(F)cc7F)cc6)c(C(N)=O)c5N)C4)C3)ccc2CC1C(=O)NC1CCCc2ccccc21)C(C)(C)C

> <Shape>
0.223

> <Color>
0.184

> <Negative vol penalty>
0.000

$$$$

  -OEChem-04052316043D

 87 95  0     1  0  0  0  0  0999 V2000
  -26.4727  -11.1974   17.4909 C   0  0  0  0  0  0  0  0  0  0  0  0
  -25.7079  -12.2677   17.0383 C   0  0  0  0  0  0  0  0  0  0  0  0
  -29.4075  -26.5062   18.4518 C   0  0  0  0  0  0  0  0  0  0  0  0
  -28.9524  -25.4893   20.5956 C   0  0  0  0  0  0  0  0  0  0  0  0
  -26.6164  -10.9743   18.8597 C   0  0  0  0  0  0  0  0  0  0  0  0
  -25.0853  -13.1150   17.9542 C   0  0  0  0  0  0  0  0  0  0  0  0
  -23.1543  -19.9602   18.8091 C   0  0  0  0  0  0  0  0  0  0  0  0
  -30.7002  -25.9829   18.4779 C   0  0  0  0  0  0  0  0  0  0  0  0
  -30.2451  -24.9659   20.6217 C   0  0  0  0  0  0  0  0  0  0  0  0
  -22.0393  -20.7325   19.1317 C   0  0  0  0  0  0  0  0  0  0  0  0
  -33.3068  -23.0609   21.0855 C   0  0  0  0  0  0  0  0  0  0  0  0
  -33.4604  -21.7293   21.4712 C   0  0  0  0  0  0  0  0  0  0  0  0
  -22.4226  -20.2968   21.4732 C   0  0  0  0  0  0  0  0  0  0  0  0
  -18.1382  -26.7967   21.4512 C   0  0  0  0  0  0  0  0  0  0  0  0
  -32.0628  -21.0340   19.6272 C   0  0  0  0  0  0  0  0  0  0  0  0
  -28.5336  -26.2595   19.5106 C   0  0  0  0  0  0  0  0  0  0  0  0
  -26.0455  -26.1930   18.9518 C   0  0  0  0  0  0  0  0  0  0  0  0
  -26.0031  -11.8249   19.7930 C   0  0  0  0  0  0  0  0  0  0  0  0
  -23.9067  -19.3404   19.8171 C   0  0  0  0  0  0  0  0  0  0  0  0
  -25.2197  -12.9023   19.3368 C   0  0  0  0  0  0  0  0  0  0  0  0
  -23.5482  -19.5192   21.1609 C   0  0  0  0  0  0  0  0  0  0  0  0
  -18.7432  -28.0440   21.6053 C   0  0  0  0  0  0  0  0  0  0  0  0
  -19.5957  -28.2772   22.6844 C   0  0  0  0  0  0  0  0  0  0  0  0
  -19.8431  -27.2630   23.6096 C   0  0  0  0  0  0  0  0  0  0  0  0
  -18.3856  -25.7825   22.3764 C   0  0  0  0  0  0  0  0  0  0  0  0
  -31.1190  -25.2127   19.5629 C   0  0  0  0  0  0  0  0  0  0  0  0
  -21.6716  -20.8985   20.4638 C   0  0  0  0  0  0  0  0  0  0  0  0
  -32.5311  -23.3792   19.9707 C   0  0  0  0  0  0  0  0  0  0  0  0
  -32.8385  -20.7159   20.7420 C   0  0  0  0  0  0  0  0  0  0  0  0
  -31.9091  -22.3657   19.2416 C   0  0  0  0  0  0  0  0  0  0  0  0
  -19.2381  -26.0157   23.4555 C   0  0  0  0  0  0  0  0  0  0  0  0
  -27.1984  -26.8003   19.4845 C   0  0  0  0  0  0  0  0  0  0  0  0
  -25.0432  -27.1057   19.1730 C   0  0  0  0  0  0  0  0  0  0  0  0
  -25.8940  -24.9177   18.3143 C   0  0  0  0  0  0  0  0  0  0  0  0
  -24.6027  -16.3311   20.5677 C   0  0  0  0  0  0  0  0  0  0  0  0
  -26.5224  -17.7354   22.7735 C   0  0  0  0  0  0  0  0  0  0  0  0
  -18.3546  -23.4794   21.4218 C   0  0  0  0  0  0  0  0  0  0  0  0
  -27.2083  -20.4704   24.6959 C   0  0  0  0  0  0  0  0  0  0  0  0
  -22.4219  -30.7467   22.4922 C   0  0  0  0  0  0  0  0  0  0  0  0
  -26.1483  -11.5158   21.2620 C   0  0  0  0  0  0  0  0  0  0  0  0
  -25.1223  -18.5324   19.4541 C   0  0  0  0  0  0  0  0  0  0  0  0
  -24.3346  -18.8917   22.2817 C   0  0  0  0  0  0  0  0  0  0  0  0
  -25.7636  -12.6807   22.1705 C   0  0  0  0  0  0  0  0  0  0  0  0
  -25.2564  -31.9266   20.6893 C   0  0  0  0  0  0  0  0  0  0  0  0
  -24.4410  -13.2938   21.7213 C   0  0  0  0  0  0  0  0  0  0  0  0
  -25.9221  -30.6483   20.1769 C   0  0  0  0  0  0  0  0  0  0  0  0
  -24.6570  -31.7322   22.0804 C   0  0  0  0  0  0  0  0  0  0  0  0
  -24.3958  -29.3131   21.6890 C   0  0  0  0  0  0  0  0  0  0  0  0
  -24.5492  -13.8580   20.2995 C   0  0  1  0  0  0  0  0  0  0  0  0
  -25.5139  -17.5253   20.5311 C   0  0  1  0  0  0  0  0  0  0  0  0
  -24.9660  -29.4436   20.2663 C   0  0  2  0  0  0  0  0  0  0  0  0
  -18.4608  -29.1134   20.6009 C   0  0  0  0  0  0  0  0  0  0  0  0
  -20.7601  -27.5342   24.7622 C   0  0  0  0  0  0  0  0  0  0  0  0
  -28.4754  -21.9387   26.2884 C   0  0  0  0  0  0  0  0  0  0  0  0
  -25.1402  -16.0203   24.8849 C   0  0  0  0  0  0  0  0  0  0  0  0
  -26.0818  -17.5414   26.6365 C   0  0  0  0  0  0  0  0  0  0  0  0
  -27.6159  -16.2313   25.1693 C   0  0  0  0  0  0  0  0  0  0  0  0
  -16.4726  -24.2883   22.8988 C   0  0  0  0  0  0  0  0  0  0  0  0
  -28.7801  -21.6887   22.5041 C   0  0  0  0  0  0  0  0  0  0  0  0
  -20.2405  -29.6177   22.8471 C   0  0  0  0  0  0  0  0  0  0  0  0
  -19.6459  -23.8706   20.7027 C   0  0  0  0  0  0  0  0  0  0  0  0
  -20.2589  -22.7275   19.9022 C   0  0  0  0  0  0  0  0  0  1  0  0
  -26.3520  -18.1953   24.2012 C   0  0  1  0  0  0  0  0  0  0  0  0
  -28.4993  -21.2297   24.9432 C   0  0  2  0  0  0  0  0  0  0  0  0
  -26.2813  -17.0074   25.2020 C   0  0  0  0  0  0  0  0  0  0  0  0
  -26.9526  -28.0057   20.0047 N   0  0  0  0  0  0  0  0  0  0  0  0
  -25.6338  -28.1632   19.7999 N   0  0  0  0  0  0  0  0  0  0  0  0
  -25.5113  -18.1057   21.8754 N   0  0  0  0  0  0  0  0  0  0  0  0
  -23.7588  -30.5751   22.0968 N   0  0  0  0  0  0  0  0  0  0  0  0
  -23.7232  -27.0988   18.8903 N   0  0  0  0  0  0  0  0  0  0  0  0
  -27.0265  -24.1050   18.1683 N   0  0  0  0  0  0  0  0  0  0  0  0
  -25.2379  -15.1308   20.3119 N   0  0  0  0  0  0  0  0  0  0  0  0
  -27.4401  -19.1316   24.4611 N   0  0  0  0  0  0  0  0  0  0  0  0
  -21.6371  -29.6002   22.4732 N   0  0  0  0  0  0  0  0  0  0  0  0
  -17.7396  -24.5000   22.1813 N   0  0  0  0  0  0  0  0  0  0  0  0
  -28.7124  -22.2499   23.8779 N   0  3  0  0  0  0  0  0  0  0  0  0
  -24.7904  -24.5179   17.8719 O   0  0  0  0  0  0  0  0  0  0  0  0
  -23.4119  -16.4869   20.8116 O   0  0  0  0  0  0  0  0  0  0  0  0
  -27.5195  -17.0781   22.4648 O   0  0  0  0  0  0  0  0  0  0  0  0
  -17.9077  -22.3379   21.2843 O   0  0  0  0  0  0  0  0  0  0  0  0
  -26.1043  -21.0102   24.7133 O   0  0  0  0  0  0  0  0  0  0  0  0
  -21.9604  -31.8416   22.8315 O   0  0  0  0  0  0  0  0  0  0  0  0
  -32.3802  -24.7016   19.5886 O   0  0  0  0  0  0  0  0  0  0  0  0
  -20.5833  -21.6513   20.7814 O   0  0  0  0  0  0  0  0  0  1  0  0
  -32.9873  -19.4370   21.1116 F   0  0  0  0  0  0  0  0  0  0  0  0
  -31.1637  -22.6651   18.1690 F   0  0  0  0  0  0  0  0  0  0  0  0
  -19.5479  -24.7553   24.6060 Cl  0  0  0  0  0  0  0  0  0  0  0  0
  1  2  1  0  0  0  0
  1  5  2  0  0  0  0
  2  6  2  0  0  0  0
  3  8  2  0  0  0  0
  3 16  1  0  0  0  0
  4  9  1  0  0  0  0
  4 16  2  0  0  0  0
  5 18  1  0  0  0  0
  6 20  1  0  0  0  0
  7 10  2  0  0  0  0
  7 19  1  0  0  0  0
  8 26  1  0  0  0  0
  9 26  2  0  0  0  0
 10 27  1  0  0  0  0
 11 12  2  0  0  0  0
 11 28  1  0  0  0  0
 12 29  1  0  0  0  0
 13 21  1  0  0  0  0
 13 27  2  0  0  0  0
 14 22  2  0  0  0  0
 14 25  1  0  0  0  0
 15 29  2  0  0  0  0
 15 30  1  0  0  0  0
 16 32  1  0  0  0  0
 17 32  1  0  0  0  0
 17 33  2  0  0  0  0
 17 34  1  0  0  0  0
 18 20  2  0  0  0  0
 18 40  1  0  0  0  0
 19 21  2  0  0  0  0
 19 41  1  0  0  0  0
 20 49  1  0  0  0  0
 21 42  1  0  0  0  0
 22 23  1  0  0  0  0
 22 52  1  0  0  0  0
 23 24  2  0  0  0  0
 23 60  1  0  0  0  0
 24 31  1  0  0  0  0
 24 53  1  0  0  0  0
 25 31  2  0  0  0  0
 25 75  1  0  0  0  0
 26 83  1  0  0  0  0
 27 84  1  0  0  0  0
 28 30  2  0  0  0  0
 28 83  1  0  0  0  0
 29 85  1  0  0  0  0
 30 86  1  0  0  0  0
 31 87  1  0  0  0  0
 32 66  2  0  0  0  0
 33 67  1  0  0  0  0
 33 70  1  0  0  0  0
 34 71  1  0  0  0  0
 34 77  2  0  0  0  0
 35 50  1  0  0  0  0
 35 72  1  0  0  0  0
 35 78  2  0  0  0  0
 36 63  1  0  0  0  0
 36 68  1  0  0  0  0
 36 79  2  0  0  0  0
 37 61  1  0  0  0  0
 37 75  1  0  0  0  0
 37 80  2  0  0  0  0
 38 64  1  0  0  0  0
 38 73  1  0  0  0  0
 38 81  2  0  0  0  0
 39 69  1  0  0  0  0
 39 74  1  0  0  0  0
 39 82  2  0  0  0  0
 40 43  1  0  0  0  0
 41 50  1  0  0  0  0
 42 68  1  0  0  0  0
 43 45  1  0  0  0  0
 44 46  1  0  0  0  0
 44 47  1  0  0  0  0
 45 49  1  0  0  0  0
 46 51  1  0  0  0  0
 47 69  1  0  0  0  0
 48 51  1  0  0  0  0
 48 69  1  0  0  0  0
 49 72  1  0  0  0  0
 50 68  1  0  0  0  0
 51 67  1  0  0  0  0
 54 64  1  0  0  0  0
 55 65  1  0  0  0  0
 56 65  1  0  0  0  0
 57 65  1  0  0  0  0
 58 75  1  0  0  0  0
 59 76  1  0  0  0  0
 60 74  1  0  0  0  0
 61 62  1  0  0  0  0
 62 84  1  0  0  0  0
 63 65  1  0  0  0  0
 63 73  1  0  0  0  0
 64 76  1  0  0  0  0
 66 67  1  0  0  0  0
M  CHG  1  76   1
M  ISO  4  39 100  62 101  74 100  84 101
M  END
> <Batch ID>
0018

> <Smiles>
CNC(C)C(=O)NC(C(=O)N1Cc2cc([101O:1][101CH2:1]CC(=O)N(C)c3cc(C)c(C[100NH:0][100C:0](=O)N4CCCC(n5nc(-c6ccc(Oc7ccc(F)cc7F)cc6)c(C(N)=O)c5N)C4)c(C)c3Cl)ccc2CC1C(=O)NC1CCCc2ccccc21)C(C)(C)C

> <Shape>
0.187

> <Color>
0.090

> <Negative vol penalty>
0.000

$$$$

  -OEChem-04052316043D

 86 94  0     1  0  0  0  0  0999 V2000
  -17.0312  -28.8395   22.3901 C   0  0  0  0  0  0  0  0  0  0  0  0
  -18.1702  -28.7293   21.5990 C   0  0  0  0  0  0  0  0  0  0  0  0
  -26.6248  -12.6024   21.8025 C   0  0  0  0  0  0  0  0  0  0  0  0
  -26.0167  -14.0420   19.9600 C   0  0  0  0  0  0  0  0  0  0  0  0
  -17.1550  -29.0304   23.7656 C   0  0  0  0  0  0  0  0  0  0  0  0
  -19.4339  -28.8111   22.1829 C   0  0  0  0  0  0  0  0  0  0  0  0
  -24.4760  -25.7763   20.4879 C   0  0  0  0  0  0  0  0  0  0  0  0
  -25.3415  -12.0560   21.7993 C   0  0  0  0  0  0  0  0  0  0  0  0
  -24.7333  -13.4956   19.9567 C   0  0  0  0  0  0  0  0  0  0  0  0
  -25.5716  -26.1403   19.7064 C   0  0  0  0  0  0  0  0  0  0  0  0
  -23.6098   -9.7753   20.0015 C   0  0  0  0  0  0  0  0  0  0  0  0
  -23.4954   -8.3886   20.0990 C   0  0  0  0  0  0  0  0  0  0  0  0
  -26.8017  -26.7029   21.7037 C   0  0  0  0  0  0  0  0  0  0  0  0
  -28.6224  -23.4039   19.3744 C   0  0  0  0  0  0  0  0  0  0  0  0
  -22.2205   -8.6369   22.1361 C   0  0  0  0  0  0  0  0  0  0  0  0
  -26.9624  -13.5955   20.8829 C   0  0  0  0  0  0  0  0  0  0  0  0
  -29.4070  -13.7075   20.1624 C   0  0  0  0  0  0  0  0  0  0  0  0
  -18.4208  -29.1049   24.3681 C   0  0  0  0  0  0  0  0  0  0  0  0
  -24.5312  -25.8833   21.8850 C   0  0  0  0  0  0  0  0  0  0  0  0
  -19.5748  -29.0045   23.5676 C   0  0  0  0  0  0  0  0  0  0  0  0
  -25.7063  -26.3372   22.5008 C   0  0  0  0  0  0  0  0  0  0  0  0
  -29.8222  -24.0016   18.9886 C   0  0  0  0  0  0  0  0  0  0  0  0
  -28.6385  -22.2187   20.1098 C   0  0  0  0  0  0  0  0  0  0  0  0
  -31.0380  -23.4141   19.3382 C   0  0  0  0  0  0  0  0  0  0  0  0
  -31.0541  -22.2289   20.0735 C   0  0  0  0  0  0  0  0  0  0  0  0
  -29.8543  -21.6312   20.4593 C   0  0  0  0  0  0  0  0  0  0  0  0
  -24.3957  -12.5026   20.8764 C   0  0  0  0  0  0  0  0  0  0  0  0
  -26.7337  -26.6065   20.3141 C   0  0  0  0  0  0  0  0  0  0  0  0
  -23.0296  -10.5929   20.9714 C   0  0  0  0  0  0  0  0  0  0  0  0
  -22.8007   -7.8194   21.1662 C   0  0  0  0  0  0  0  0  0  0  0  0
  -22.3350  -10.0237   22.0387 C   0  0  0  0  0  0  0  0  0  0  0  0
  -28.2878  -14.1607   20.8862 C   0  0  0  0  0  0  0  0  0  0  0  0
  -30.4137  -14.5759   20.5075 C   0  0  0  0  0  0  0  0  0  0  0  0
  -29.5260  -12.6006   19.2589 C   0  0  0  0  0  0  0  0  0  0  0  0
  -22.9312  -27.5442   24.0725 C   0  0  0  0  0  0  0  0  0  0  0  0
  -24.6844  -25.7647   26.1418 C   0  0  0  0  0  0  0  0  0  0  0  0
  -27.5005  -23.9240   26.7146 C   0  0  0  0  0  0  0  0  0  0  0  0
  -30.4424  -20.2221   22.4631 C   0  0  0  0  0  0  0  0  0  0  0  0
  -18.5045  -29.3594   25.8523 C   0  0  0  0  0  0  0  0  0  0  0  0
  -23.3501  -25.4613   22.7152 C   0  0  0  0  0  0  0  0  0  0  0  0
  -25.8237  -26.4515   23.9980 C   0  0  0  0  0  0  0  0  0  0  0  0
  -19.8791  -29.0601   26.4450 C   0  0  0  0  0  0  0  0  0  0  0  0
  -31.8602  -17.3950   24.0984 C   0  0  0  0  0  0  0  0  0  0  0  0
  -20.9779  -29.6659   25.5775 C   0  0  0  0  0  0  0  0  0  0  0  0
  -31.2115  -16.2035   23.3903 C   0  0  0  0  0  0  0  0  0  0  0  0
  -30.8851  -18.5603   24.2567 C   0  0  0  0  0  0  0  0  0  0  0  0
  -29.5816  -17.8033   22.3081 C   0  0  0  0  0  0  0  0  0  0  0  0
  -20.9629  -29.0633   24.1675 C   0  0  1  0  0  0  0  0  0  0  0  0
  -23.3365  -26.0977   24.1017 C   0  0  1  0  0  0  0  0  0  0  0  0
  -30.5443  -16.6290   22.0676 C   0  0  2  0  0  0  0  0  0  0  0  0
  -32.3230  -24.0578   18.9227 C   0  0  0  0  0  0  0  0  0  0  0  0
  -32.3618  -21.6024   20.4459 C   0  0  0  0  0  0  0  0  0  0  0  0
  -29.0918  -22.4249   27.9465 C   0  0  0  0  0  0  0  0  0  0  0  0
  -26.1327  -22.4519   19.9988 C   0  0  0  0  0  0  0  0  0  0  0  0
  -27.2166  -21.4973   22.0603 C   0  0  0  0  0  0  0  0  0  0  0  0
  -27.0879  -20.1566   19.9705 C   0  0  0  0  0  0  0  0  0  0  0  0
  -25.5662  -28.3781   27.4466 C   0  0  0  0  0  0  0  0  0  0  0  0
  -27.4147  -27.1142   28.5664 C   0  0  0  0  0  0  0  0  0  0  0  0
  -25.0374  -26.5362   29.0535 C   0  0  0  0  0  0  0  0  0  0  0  0
  -26.1859  -21.4835   25.6781 C   0  0  0  0  0  0  0  0  0  0  0  0
  -29.7767  -25.2833   18.1956 C   0  0  0  0  0  0  0  0  0  0  0  0
  -30.1032  -26.5300   19.0206 C   0  0  0  0  0  0  0  0  0  0  0  0
  -29.0974  -26.7976   20.1342 C   0  0  0  0  0  0  0  0  0  1  0  0
  -26.0287  -25.9187   26.8112 C   0  0  1  0  0  0  0  0  0  0  0  0
  -27.7001  -22.5590   27.3481 C   0  0  2  0  0  0  0  0  0  0  0  0
  -27.3365  -21.6030   20.5094 C   0  0  0  0  0  0  0  0  0  0  0  0
  -26.0092  -26.9866   27.9411 C   0  0  0  0  0  0  0  0  0  0  0  0
  -28.5577  -15.2335   21.6347 N   0  0  0  0  0  0  0  0  0  0  0  0
  -29.8580  -15.4617   21.3831 N   0  0  0  0  0  0  0  0  0  0  0  0
  -24.6397  -26.0327   24.7663 N   0  0  0  0  0  0  0  0  0  0  0  0
  -30.2955  -18.9109   22.9628 N   0  0  0  0  0  0  0  0  0  0  0  0
  -31.7111  -14.6605   20.1444 N   0  0  0  0  0  0  0  0  0  0  0  0
  -28.3937  -11.8111   19.0168 N   0  0  0  0  0  0  0  0  0  0  0  0
  -29.8681  -20.4291   21.2093 N   0  0  0  0  0  0  0  0  0  0  0  0
  -21.5683  -27.7488   24.1732 N   0  0  0  0  0  0  0  0  0  0  0  0
  -26.4183  -24.5851   27.2561 N   0  0  0  0  0  0  0  0  0  0  0  0
  -27.5202  -21.4847   26.3311 N   0  3  0  0  0  0  0  0  0  0  0  0
  -30.6088  -12.3102   18.6960 O   0  0  0  0  0  0  0  0  0  0  0  0
  -23.7914  -28.4107   23.9678 O   0  0  0  0  0  0  0  0  0  0  0  0
  -23.7113  -25.4125   26.8131 O   0  0  0  0  0  0  0  0  0  0  0  0
  -28.2336  -24.3618   25.8306 O   0  0  0  0  0  0  0  0  0  0  0  0
  -31.0577  -21.0897   23.0882 O   0  0  0  0  0  0  0  0  0  0  0  0
  -23.1434  -11.9695   20.8728 O   0  0  0  0  0  0  0  0  0  0  0  0
  -27.8044  -26.9631   19.5536 O   0  0  0  0  0  0  0  0  0  1  0  0
  -22.6897   -6.4878   21.2589 F   0  0  0  0  0  0  0  0  0  0  0  0
  -21.7744  -10.8040   22.9729 F   0  0  0  0  0  0  0  0  0  0  0  0
  1  2  1  0  0  0  0
  1  5  2  0  0  0  0
  2  6  2  0  0  0  0
  3  8  2  0  0  0  0
  3 16  1  0  0  0  0
  4  9  1  0  0  0  0
  4 16  2  0  0  0  0
  5 18  1  0  0  0  0
  6 20  1  0  0  0  0
  7 10  2  0  0  0  0
  7 19  1  0  0  0  0
  8 27  1  0  0  0  0
  9 27  2  0  0  0  0
 10 28  1  0  0  0  0
 11 12  2  0  0  0  0
 11 29  1  0  0  0  0
 12 30  1  0  0  0  0
 13 21  1  0  0  0  0
 13 28  2  0  0  0  0
 14 22  1  0  0  0  0
 14 23  2  0  0  0  0
 15 30  2  0  0  0  0
 15 31  1  0  0  0  0
 16 32  1  0  0  0  0
 17 32  1  0  0  0  0
 17 33  2  0  0  0  0
 17 34  1  0  0  0  0
 18 20  2  0  0  0  0
 18 39  1  0  0  0  0
 19 21  2  0  0  0  0
 19 40  1  0  0  0  0
 20 48  1  0  0  0  0
 21 41  1  0  0  0  0
 22 24  2  0  0  0  0
 22 61  1  0  0  0  0
 23 26  1  0  0  0  0
 23 66  1  0  0  0  0
 24 25  1  0  0  0  0
 24 51  1  0  0  0  0
 25 26  2  0  0  0  0
 25 52  1  0  0  0  0
 26 74  1  0  0  0  0
 27 83  1  0  0  0  0
 28 84  1  0  0  0  0
 29 31  2  0  0  0  0
 29 83  1  0  0  0  0
 30 85  1  0  0  0  0
 31 86  1  0  0  0  0
 32 68  2  0  0  0  0
 33 69  1  0  0  0  0
 33 72  1  0  0  0  0
 34 73  1  0  0  0  0
 34 78  2  0  0  0  0
 35 49  1  0  0  0  0
 35 75  1  0  0  0  0
 35 79  2  0  0  0  0
 36 64  1  0  0  0  0
 36 70  1  0  0  0  0
 36 80  2  0  0  0  0
 37 65  1  0  0  0  0
 37 76  1  0  0  0  0
 37 81  2  0  0  0  0
 38 71  1  0  0  0  0
 38 74  1  0  0  0  0
 38 82  2  0  0  0  0
 39 42  1  0  0  0  0
 40 49  1  0  0  0  0
 41 70  1  0  0  0  0
 42 44  1  0  0  0  0
 43 45  1  0  0  0  0
 43 46  1  0  0  0  0
 44 48  1  0  0  0  0
 45 50  1  0  0  0  0
 46 71  1  0  0  0  0
 47 50  1  0  0  0  0
 47 71  1  0  0  0  0
 48 75  1  0  0  0  0
 49 70  1  0  0  0  0
 50 69  1  0  0  0  0
 53 65  1  0  0  0  0
 54 66  1  0  0  0  0
 55 66  1  0  0  0  0
 56 66  1  0  0  0  0
 57 67  1  0  0  0  0
 58 67  1  0  0  0  0
 59 67  1  0  0  0  0
 60 77  1  0  0  0  0
 61 62  1  0  0  0  0
 62 63  1  0  0  0  0
 63 84  1  0  0  0  0
 64 67  1  0  0  0  0
 64 76  1  0  0  0  0
 65 77  1  0  0  0  0
 68 69  1  0  0  0  0
M  CHG  1  77   1
M  ISO  4  38 100  63 101  74 100  84 101
M  END
> <Batch ID>
0018

> <Smiles>
CNC(C)C(=O)NC(C(=O)N1Cc2cc([101O:1][101CH2:1]CCc3cc(C(C)(C)C)c([100NH:0][100C:0](=O)N4CCCC(n5nc(-c6ccc(Oc7ccc(F)cc7F)cc6)c(C(N)=O)c5N)C4)c(C)c3C)ccc2CC1C(=O)NC1CCCc2ccccc21)C(C)(C)C

> <Shape>
0.258

> <Color>
0.082

> <Negative vol penalty>
0.000

$$$$

  -OEChem-04052316043D

 81 89  0     1  0  0  0  0  0999 V2000
  -23.9817  -29.2741   20.4955 C   0  0  0  0  0  0  0  0  0  0  0  0
  -24.8939  -28.2238   20.5043 C   0  0  0  0  0  0  0  0  0  0  0  0
  -23.2103   -9.7485   20.7638 C   0  0  0  0  0  0  0  0  0  0  0  0
  -23.8701  -10.3888   22.9980 C   0  0  0  0  0  0  0  0  0  0  0  0
  -24.1484  -30.3481   21.3688 C   0  0  0  0  0  0  0  0  0  0  0  0
  -25.9741  -28.2474   21.3858 C   0  0  0  0  0  0  0  0  0  0  0  0
  -26.6983  -23.7968   23.6908 C   0  0  0  0  0  0  0  0  0  0  0  0
  -22.5037   -8.6639   21.2833 C   0  0  0  0  0  0  0  0  0  0  0  0
  -23.1634   -9.3042   23.5176 C   0  0  0  0  0  0  0  0  0  0  0  0
  -27.3293  -22.7943   22.9557 C   0  0  0  0  0  0  0  0  0  0  0  0
  -19.9473   -8.5290   24.2076 C   0  0  0  0  0  0  0  0  0  0  0  0
  -19.1430   -8.7564   25.3242 C   0  0  0  0  0  0  0  0  0  0  0  0
  -29.4085  -23.2921   24.0731 C   0  0  0  0  0  0  0  0  0  0  0  0
  -30.9324  -17.8545   19.5982 C   0  0  0  0  0  0  0  0  0  0  0  0
  -20.4290   -7.1415   26.5794 C   0  0  0  0  0  0  0  0  0  0  0  0
  -23.8936  -10.6109   21.6212 C   0  0  0  0  0  0  0  0  0  0  0  0
  -24.1378  -13.0322   20.8561 C   0  0  0  0  0  0  0  0  0  0  0  0
  -25.2259  -30.3803   22.2681 C   0  0  0  0  0  0  0  0  0  0  0  0
  -27.4213  -24.5631   24.6163 C   0  0  0  0  0  0  0  0  0  0  0  0
  -26.1562  -29.3235   22.2710 C   0  0  0  0  0  0  0  0  0  0  0  0
  -28.7837  -24.3020   24.8205 C   0  0  0  0  0  0  0  0  0  0  0  0
  -31.0605  -19.1948   19.2342 C   0  0  0  0  0  0  0  0  0  0  0  0
  -30.2706  -20.1641   19.8525 C   0  0  0  0  0  0  0  0  0  0  0  0
  -29.3526  -19.7929   20.8349 C   0  0  0  0  0  0  0  0  0  0  0  0
  -29.2245  -18.4525   21.1990 C   0  0  0  0  0  0  0  0  0  0  0  0
  -30.0143  -17.4833   20.5806 C   0  0  0  0  0  0  0  0  0  0  0  0
  -22.4802   -8.4418   22.6602 C   0  0  0  0  0  0  0  0  0  0  0  0
  -28.6853  -22.5437   23.1446 C   0  0  0  0  0  0  0  0  0  0  0  0
  -20.9924   -7.6078   24.2767 C   0  0  0  0  0  0  0  0  0  0  0  0
  -19.3839   -8.0627   26.5101 C   0  0  0  0  0  0  0  0  0  0  0  0
  -21.2333   -6.9141   25.4627 C   0  0  0  0  0  0  0  0  0  0  0  0
  -24.6242  -11.7312   21.0851 C   0  0  0  0  0  0  0  0  0  0  0  0
  -25.2133  -13.7156   20.3435 C   0  0  0  0  0  0  0  0  0  0  0  0
  -22.8307  -13.5746   21.0862 C   0  0  0  0  0  0  0  0  0  0  0  0
  -28.1310  -27.6479   24.9065 C   0  0  0  0  0  0  0  0  0  0  0  0
  -29.3774  -26.6940   27.7453 C   0  0  0  0  0  0  0  0  0  0  0  0
  -30.6853  -24.1700   29.6335 C   0  0  0  0  0  0  0  0  0  0  0  0
  -30.6202  -15.0441   20.4078 C   0  0  0  0  0  0  0  0  0  0  0  0
  -25.3910  -31.5850   23.1603 C   0  0  0  0  0  0  0  0  0  0  0  0
  -26.7198  -25.6230   25.4207 C   0  0  0  0  0  0  0  0  0  0  0  0
  -29.6002  -25.0828   25.8166 C   0  0  0  0  0  0  0  0  0  0  0  0
  -26.3530  -31.3547   24.3229 C   0  0  0  0  0  0  0  0  0  0  0  0
  -29.7071  -12.0454   18.7193 C   0  0  0  0  0  0  0  0  0  0  0  0
  -27.6294  -30.6777   23.8336 C   0  0  0  0  0  0  0  0  0  0  0  0
  -28.2633  -11.8033   19.1655 C   0  0  0  0  0  0  0  0  0  0  0  0
  -30.5597  -12.6240   19.8471 C   0  0  0  0  0  0  0  0  0  0  0  0
  -28.5675  -13.5854   20.9314 C   0  0  0  0  0  0  0  0  0  0  0  0
  -27.3269  -29.3010   23.2297 C   0  0  1  0  0  0  0  0  0  0  0  0
  -27.6690  -26.6863   25.9646 C   0  0  1  0  0  0  0  0  0  0  0  0
  -27.6539  -13.0636   19.8103 C   0  0  2  0  0  0  0  0  0  0  0  0
  -32.0484  -19.5654   18.1767 C   0  0  0  0  0  0  0  0  0  0  0  0
  -30.4097  -21.6007   19.4587 C   0  0  0  0  0  0  0  0  0  0  0  0
  -28.2374  -18.0564   22.2523 C   0  0  0  0  0  0  0  0  0  0  0  0
  -31.6494  -23.7038   31.9030 C   0  0  0  0  0  0  0  0  0  0  0  0
  -31.9824  -28.0478   26.9140 C   0  0  0  0  0  0  0  0  0  0  0  0
  -33.1449  -26.7650   28.7227 C   0  0  0  0  0  0  0  0  0  0  0  0
  -31.3461  -28.3911   29.3081 C   0  0  0  0  0  0  0  0  0  0  0  0
  -28.5572  -22.2120   30.2632 C   0  0  0  0  0  0  0  0  0  0  0  0
  -28.5031  -20.8360   21.4995 C   0  0  0  0  0  0  0  0  0  1  0  0
  -30.7267  -26.2004   28.2086 C   0  0  1  0  0  0  0  0  0  0  0  0
  -30.3895  -23.7154   31.0513 C   0  0  2  0  0  0  0  0  0  0  0  0
  -31.7853  -27.3375   28.2681 C   0  0  0  0  0  0  0  0  0  0  0  0
  -25.9087  -11.5937   20.7457 N   0  0  0  0  0  0  0  0  0  0  0  0
  -26.2385  -12.8172   20.2981 N   0  0  0  0  0  0  0  0  0  0  0  0
  -28.8705  -26.1129   26.5743 N   0  0  0  0  0  0  0  0  0  0  0  0
  -29.9223  -13.8178   20.4069 N   0  0  0  0  0  0  0  0  0  0  0  0
  -25.3726  -14.9913   19.9316 N   0  0  0  0  0  0  0  0  0  0  0  0
  -21.8428  -12.7345   21.6179 N   0  0  0  0  0  0  0  0  0  0  0  0
  -29.9013  -16.1162   20.9356 N   0  0  0  0  0  0  0  0  0  0  0  0
  -27.1054  -28.3272   24.2771 N   0  0  0  0  0  0  0  0  0  0  0  0
  -30.4997  -25.5280   29.4833 N   0  0  0  0  0  0  0  0  0  0  0  0
  -29.8137  -22.3408   31.0451 N   0  3  0  0  0  0  0  0  0  0  0  0
  -22.5426  -14.7644   20.8126 O   0  0  0  0  0  0  0  0  0  0  0  0
  -29.3293  -27.7659   24.6790 O   0  0  0  0  0  0  0  0  0  0  0  0
  -28.7914  -27.5582   28.4022 O   0  0  0  0  0  0  0  0  0  0  0  0
  -31.0485  -23.3982   28.7487 O   0  0  0  0  0  0  0  0  0  0  0  0
  -31.7605  -15.1422   19.9475 O   0  0  0  0  0  0  0  0  0  0  0  0
  -21.7905   -7.3837   23.1675 O   0  0  0  0  0  0  0  0  0  0  0  0
  -29.3039  -21.5662   22.4279 O   0  0  0  0  0  0  0  0  0  1  0  0
  -18.6124   -8.2823   27.5829 F   0  0  0  0  0  0  0  0  0  0  0  0
  -22.2366   -6.0287   25.5356 F   0  0  0  0  0  0  0  0  0  0  0  0
  1  2  1  0  0  0  0
  1  5  2  0  0  0  0
  2  6  2  0  0  0  0
  3  8  2  0  0  0  0
  3 16  1  0  0  0  0
  4  9  1  0  0  0  0
  4 16  2  0  0  0  0
  5 18  1  0  0  0  0
  6 20  1  0  0  0  0
  7 10  2  0  0  0  0
  7 19  1  0  0  0  0
  8 27  1  0  0  0  0
  9 27  2  0  0  0  0
 10 28  1  0  0  0  0
 11 12  2  0  0  0  0
 11 29  1  0  0  0  0
 12 30  1  0  0  0  0
 13 21  1  0  0  0  0
 13 28  2  0  0  0  0
 14 22  1  0  0  0  0
 14 26  2  0  0  0  0
 15 30  2  0  0  0  0
 15 31  1  0  0  0  0
 16 32  1  0  0  0  0
 17 32  1  0  0  0  0
 17 33  2  0  0  0  0
 17 34  1  0  0  0  0
 18 20  2  0  0  0  0
 18 39  1  0  0  0  0
 19 21  2  0  0  0  0
 19 40  1  0  0  0  0
 20 48  1  0  0  0  0
 21 41  1  0  0  0  0
 22 23  2  0  0  0  0
 22 51  1  0  0  0  0
 23 24  1  0  0  0  0
 23 52  1  0  0  0  0
 24 25  2  0  0  0  0
 24 59  1  0  0  0  0
 25 26  1  0  0  0  0
 25 53  1  0  0  0  0
 26 69  1  0  0  0  0
 27 78  1  0  0  0  0
 28 79  1  0  0  0  0
 29 31  2  0  0  0  0
 29 78  1  0  0  0  0
 30 80  1  0  0  0  0
 31 81  1  0  0  0  0
 32 63  2  0  0  0  0
 33 64  1  0  0  0  0
 33 67  1  0  0  0  0
 34 68  1  0  0  0  0
 34 73  2  0  0  0  0
 35 49  1  0  0  0  0
 35 70  1  0  0  0  0
 35 74  2  0  0  0  0
 36 60  1  0  0  0  0
 36 65  1  0  0  0  0
 36 75  2  0  0  0  0
 37 61  1  0  0  0  0
 37 71  1  0  0  0  0
 37 76  2  0  0  0  0
 38 66  1  0  0  0  0
 38 69  1  0  0  0  0
 38 77  2  0  0  0  0
 39 42  1  0  0  0  0
 40 49  1  0  0  0  0
 41 65  1  0  0  0  0
 42 44  1  0  0  0  0
 43 45  1  0  0  0  0
 43 46  1  0  0  0  0
 44 48  1  0  0  0  0
 45 50  1  0  0  0  0
 46 66  1  0  0  0  0
 47 50  1  0  0  0  0
 47 66  1  0  0  0  0
 48 70  1  0  0  0  0
 49 65  1  0  0  0  0
 50 64  1  0  0  0  0
 54 61  1  0  0  0  0
 55 62  1  0  0  0  0
 56 62  1  0  0  0  0
 57 62  1  0  0  0  0
 58 72  1  0  0  0  0
 59 79  1  0  0  0  0
 60 62  1  0  0  0  0
 60 71  1  0  0  0  0
 61 72  1  0  0  0  0
 63 64  1  0  0  0  0
M  CHG  1  72   1
M  ISO  4  38 100  59 101  69 100  79 101
M  END
> <Batch ID>
0018

> <Smiles>
CNC(C)C(=O)NC(C(=O)N1Cc2cc([101O:1][101CH2:1]c3c(C)c(C)cc([100NH:0][100C:0](=O)N4CCCC(n5nc(-c6ccc(Oc7ccc(F)cc7F)cc6)c(C(N)=O)c5N)C4)c3C)ccc2CC1C(=O)NC1CCCc2ccccc21)C(C)(C)C

> <Shape>
0.242

> <Color>
0.169

> <Negative vol penalty>
0.000

$$$$

  -OEChem-04052316043D

 89 97  0     1  0  0  0  0  0999 V2000
  -31.1107  -22.8826   16.3992 C   0  0  0  0  0  0  0  0  0  0  0  0
  -30.6776  -22.4708   17.6554 C   0  0  0  0  0  0  0  0  0  0  0  0
  -23.0744   -9.8688   19.9414 C   0  0  0  0  0  0  0  0  0  0  0  0
  -23.8392   -9.8741   22.2332 C   0  0  0  0  0  0  0  0  0  0  0  0
  -32.4436  -22.7061   16.0301 C   0  0  0  0  0  0  0  0  0  0  0  0
  -31.5770  -21.8811   18.5430 C   0  0  0  0  0  0  0  0  0  0  0  0
  -31.1355  -23.6977   23.2494 C   0  0  0  0  0  0  0  0  0  0  0  0
  -22.3321   -8.7148   20.1918 C   0  0  0  0  0  0  0  0  0  0  0  0
  -23.0968   -8.7201   22.4836 C   0  0  0  0  0  0  0  0  0  0  0  0
  -30.0750  -23.2214   24.0189 C   0  0  0  0  0  0  0  0  0  0  0  0
  -19.8706   -7.9189   23.0922 C   0  0  0  0  0  0  0  0  0  0  0  0
  -19.1162   -7.8771   24.2646 C   0  0  0  0  0  0  0  0  0  0  0  0
  -31.5784  -21.7053   25.1416 C   0  0  0  0  0  0  0  0  0  0  0  0
  -28.5445  -19.7255   22.9405 C   0  0  0  0  0  0  0  0  0  0  0  0
  -20.3609   -5.9400   24.9964 C   0  0  0  0  0  0  0  0  0  0  0  0
  -23.8281  -10.4485   20.9621 C   0  0  0  0  0  0  0  0  0  0  0  0
  -28.8811  -18.2953   24.8583 C   0  0  0  0  0  0  0  0  0  0  0  0
  -24.1675  -12.9741   20.8440 C   0  0  0  0  0  0  0  0  0  0  0  0
  -33.3619  -22.1227   16.9172 C   0  0  0  0  0  0  0  0  0  0  0  0
  -32.4256  -23.1728   23.4129 C   0  0  0  0  0  0  0  0  0  0  0  0
  -32.9231  -21.6953   18.1850 C   0  0  0  0  0  0  0  0  0  0  0  0
  -32.6541  -22.1785   24.3747 C   0  0  0  0  0  0  0  0  0  0  0  0
  -28.3038  -19.4265   24.2815 C   0  0  0  0  0  0  0  0  0  0  0  0
  -29.9396  -17.7619   22.7531 C   0  0  0  0  0  0  0  0  0  0  0  0
  -22.3432   -8.1404   21.4628 C   0  0  0  0  0  0  0  0  0  0  0  0
  -30.2957  -22.2230   24.9631 C   0  0  0  0  0  0  0  0  0  0  0  0
  -20.8701   -6.9712   22.8718 C   0  0  0  0  0  0  0  0  0  0  0  0
  -19.3614   -6.8877   25.2168 C   0  0  0  0  0  0  0  0  0  0  0  0
  -29.3624  -18.8931   22.1763 C   0  0  0  0  0  0  0  0  0  0  0  0
  -21.1153   -5.9817   23.8239 C   0  0  0  0  0  0  0  0  0  0  0  0
  -29.6990  -17.4629   24.0941 C   0  0  0  0  0  0  0  0  0  0  0  0
  -24.5956  -11.6403   20.7040 C   0  0  0  0  0  0  0  0  0  0  0  0
  -25.2582  -13.7248   20.4791 C   0  0  0  0  0  0  0  0  0  0  0  0
  -28.6112  -18.0058   26.2658 C   0  0  0  0  0  0  0  0  0  0  0  0
  -22.8975  -13.4884   21.2661 C   0  0  0  0  0  0  0  0  0  0  0  0
  -27.5576  -17.2372   26.6619 C   0  0  0  0  0  0  0  0  0  0  0  0
  -34.4650  -21.6096   21.5418 C   0  0  0  0  0  0  0  0  0  0  0  0
  -36.4614  -21.9748   24.0723 C   0  0  0  0  0  0  0  0  0  0  0  0
  -36.8229  -22.4635   27.4304 C   0  0  0  0  0  0  0  0  0  0  0  0
  -30.7415  -14.7483   20.6568 C   0  0  0  0  0  0  0  0  0  0  0  0
  -34.7819  -21.9095   16.4558 C   0  0  0  0  0  0  0  0  0  0  0  0
  -33.5640  -23.7162   22.5937 C   0  0  0  0  0  0  0  0  0  0  0  0
  -34.0241  -21.5960   24.6031 C   0  0  0  0  0  0  0  0  0  0  0  0
  -35.7552  -21.6178   17.5950 C   0  0  0  0  0  0  0  0  0  0  0  0
  -29.6008  -12.3653   18.2700 C   0  0  0  0  0  0  0  0  0  0  0  0
  -35.1722  -20.5725   18.5408 C   0  0  0  0  0  0  0  0  0  0  0  0
  -28.1646  -12.0699   18.7057 C   0  0  0  0  0  0  0  0  0  0  0  0
  -30.5203  -12.5857   19.4692 C   0  0  0  0  0  0  0  0  0  0  0  0
  -28.6209  -13.3137   20.8606 C   0  0  0  0  0  0  0  0  0  0  0  0
  -33.8742  -21.0742   19.1849 C   0  0  1  0  0  0  0  0  0  0  0  0
  -34.7374  -22.7474   22.4846 C   0  0  1  0  0  0  0  0  0  0  0  0
  -27.6444  -13.1395   19.6848 C   0  0  2  0  0  0  0  0  0  0  0  0
  -29.6195  -18.6227   27.2103 C   0  0  0  0  0  0  0  0  0  0  0  0
  -27.2497  -16.9182   28.1085 C   0  0  0  0  0  0  0  0  0  0  0  0
  -27.0480  -15.1860   25.2827 C   0  0  0  0  0  0  0  0  0  0  0  0
  -38.5769  -22.6803   29.2120 C   0  0  0  0  0  0  0  0  0  0  0  0
  -27.0690  -22.6846   25.9650 C   0  0  0  0  0  0  0  0  0  0  0  0
  -36.9118  -18.9581   23.9925 C   0  0  0  0  0  0  0  0  0  0  0  0
  -37.8681  -19.1100   26.3013 C   0  0  0  0  0  0  0  0  0  0  0  0
  -38.9732  -20.3099   24.4141 C   0  0  0  0  0  0  0  0  0  0  0  0
  -35.9463  -25.2042   28.1228 C   0  0  0  0  0  0  0  0  0  0  0  0
  -27.4116  -20.3552   25.0709 C   0  0  0  0  0  0  0  0  0  0  0  0
  -30.8082  -16.8977   21.8958 C   0  0  0  0  0  0  0  0  0  0  0  0
  -26.5935  -16.5800   25.6907 C   0  0  0  0  0  0  0  0  0  0  0  0
  -36.7731  -21.1726   25.3125 C   0  0  1  0  0  0  0  0  0  0  0  0
  -37.6945  -23.4229   28.2207 C   0  0  2  0  0  0  0  0  0  0  0  0
  -27.9639  -21.7837   25.1234 C   0  0  2  0  0  0  0  0  0  1  0  0
  -37.6053  -19.8970   24.9997 C   0  0  0  0  0  0  0  0  0  0  0  0
  -25.8596  -11.5459   20.2829 N   0  0  0  0  0  0  0  0  0  0  0  0
  -26.2352  -12.8300   20.1551 N   0  0  0  0  0  0  0  0  0  0  0  0
  -35.1036  -22.1558   23.7731 N   0  0  0  0  0  0  0  0  0  0  0  0
  -29.9708  -13.6128   20.3574 N   0  0  0  0  0  0  0  0  0  0  0  0
  -25.4674  -15.0565   20.4070 N   0  0  0  0  0  0  0  0  0  0  0  0
  -21.8871  -12.5780   21.6046 N   0  0  0  0  0  0  0  0  0  0  0  0
  -34.1671  -22.0067   20.2522 N   0  0  0  0  0  0  0  0  0  0  0  0
  -37.4177  -22.0932   26.2428 N   0  0  0  0  0  0  0  0  0  0  0  0
  -30.1434  -15.6758   21.5011 N   0  0  0  0  0  0  0  0  0  0  0  0
  -36.8481  -24.3888   28.9766 N   0  3  0  0  0  0  0  0  0  0  0  0
  -22.6603  -14.7187   21.3252 O   0  0  0  0  0  0  0  0  0  0  0  0
  -34.5223  -20.4568   21.9535 O   0  0  0  0  0  0  0  0  0  0  0  0
  -37.3883  -22.4303   23.3978 O   0  0  0  0  0  0  0  0  0  0  0  0
  -35.7259  -22.0781   27.8287 O   0  0  0  0  0  0  0  0  0  0  0  0
  -31.8763  -14.9252   20.2009 O   0  0  0  0  0  0  0  0  0  0  0  0
  -21.6188   -7.0145   21.7076 O   0  0  0  0  0  0  0  0  0  0  0  0
  -29.2622  -21.7558   25.7150 O   0  0  0  0  0  0  0  0  0  1  0  0
  -18.6379   -6.8486   26.3434 F   0  0  0  0  0  0  0  0  0  0  0  0
  -29.5866  -19.1901   20.8884 F   0  0  0  0  0  0  0  0  0  0  0  0
  -22.0749   -5.0693   23.6183 F   0  0  0  0  0  0  0  0  0  0  0  0
  -30.4264  -16.0488   24.7918 Cl  0  0  0  0  0  0  0  0  0  0  0  0
  1  2  1  0  0  0  0
  1  5  2  0  0  0  0
  2  6  2  0  0  0  0
  3  8  2  0  0  0  0
  3 16  1  0  0  0  0
  4  9  1  0  0  0  0
  4 16  2  0  0  0  0
  5 19  1  0  0  0  0
  6 21  1  0  0  0  0
  7 10  2  0  0  0  0
  7 20  1  0  0  0  0
  8 25  1  0  0  0  0
  9 25  2  0  0  0  0
 10 26  1  0  0  0  0
 11 12  2  0  0  0  0
 11 27  1  0  0  0  0
 12 28  1  0  0  0  0
 13 22  1  0  0  0  0
 13 26  2  0  0  0  0
 14 23  2  0  0  0  0
 14 29  1  0  0  0  0
 15 28  2  0  0  0  0
 15 30  1  0  0  0  0
 16 32  1  0  0  0  0
 17 23  1  0  0  0  0
 17 31  2  0  0  0  0
 17 34  1  0  0  0  0
 18 32  1  0  0  0  0
 18 33  2  0  0  0  0
 18 35  1  0  0  0  0
 19 21  2  0  0  0  0
 19 41  1  0  0  0  0
 20 22  2  0  0  0  0
 20 42  1  0  0  0  0
 21 50  1  0  0  0  0
 22 43  1  0  0  0  0
 23 62  1  0  0  0  0
 24 29  2  0  0  0  0
 24 31  1  0  0  0  0
 24 63  1  0  0  0  0
 25 84  1  0  0  0  0
 26 85  1  0  0  0  0
 27 30  2  0  0  0  0
 27 84  1  0  0  0  0
 28 86  1  0  0  0  0
 29 87  1  0  0  0  0
 30 88  1  0  0  0  0
 31 89  1  0  0  0  0
 32 69  2  0  0  0  0
 33 70  1  0  0  0  0
 33 73  1  0  0  0  0
 34 36  2  0  0  0  0
 34 53  1  0  0  0  0
 35 74  1  0  0  0  0
 35 79  2  0  0  0  0
 36 54  1  0  0  0  0
 36 64  1  0  0  0  0
 37 51  1  0  0  0  0
 37 75  1  0  0  0  0
 37 80  2  0  0  0  0
 38 65  1  0  0  0  0
 38 71  1  0  0  0  0
 38 81  2  0  0  0  0
 39 66  1  0  0  0  0
 39 76  1  0  0  0  0
 39 82  2  0  0  0  0
 40 72  1  0  0  0  0
 40 77  1  0  0  0  0
 40 83  2  0  0  0  0
 41 44  1  0  0  0  0
 42 51  1  0  0  0  0
 43 71  1  0  0  0  0
 44 46  1  0  0  0  0
 45 47  1  0  0  0  0
 45 48  1  0  0  0  0
 46 50  1  0  0  0  0
 47 52  1  0  0  0  0
 48 72  1  0  0  0  0
 49 52  1  0  0  0  0
 49 72  1  0  0  0  0
 50 75  1  0  0  0  0
 51 71  1  0  0  0  0
 52 70  1  0  0  0  0
 55 64  1  0  0  0  0
 56 66  1  0  0  0  0
 57 67  1  0  0  0  0
 58 68  1  0  0  0  0
 59 68  1  0  0  0  0
 60 68  1  0  0  0  0
 61 78  1  0  0  0  0
 62 67  1  0  0  0  0
 63 77  1  0  0  0  0
 65 68  1  0  0  0  0
 65 76  1  0  0  0  0
 66 78  1  0  0  0  0
 67 85  1  0  0  0  0
 69 70  1  0  0  0  0
M  CHG  1  78   1
M  ISO  4  40 100  67 101  77 100  85 101
M  END
> <Batch ID>
0018

> <Smiles>
CCC(C)=C(C)c1c(C[101CH:1](C)[101O:1]c2ccc3c(c2)CN(C(=O)C(NC(=O)C(C)NC)C(C)(C)C)C(C(=O)NC2CCCc4ccccc42)C3)cc(F)c(C[100NH:0][100C:0](=O)N2CCCC(n3nc(-c4ccc(Oc5ccc(F)cc5F)cc4)c(C(N)=O)c3N)C2)c1Cl

> <Shape>
0.179

> <Color>
0.187

> <Negative vol penalty>
0.000

$$$$

  -OEChem-04052316043D

 83 91  0     1  0  0  0  0  0999 V2000
  -31.4928  -34.3542   24.0168 C   0  0  0  0  0  0  0  0  0  0  0  0
  -31.2960  -33.3145   23.1137 C   0  0  0  0  0  0  0  0  0  0  0  0
  -26.2554  -11.9301   20.8894 C   0  0  0  0  0  0  0  0  0  0  0  0
  -24.6729  -13.2514   19.6296 C   0  0  0  0  0  0  0  0  0  0  0  0
  -30.6700  -34.4685   25.1366 C   0  0  0  0  0  0  0  0  0  0  0  0
  -30.2768  -32.3878   23.3304 C   0  0  0  0  0  0  0  0  0  0  0  0
  -26.8740  -29.5950   19.0728 C   0  0  0  0  0  0  0  0  0  0  0  0
  -25.2014  -11.2687   21.5197 C   0  0  0  0  0  0  0  0  0  0  0  0
  -23.6189  -12.5900   20.2599 C   0  0  0  0  0  0  0  0  0  0  0  0
  -26.9564  -28.3333   18.4854 C   0  0  0  0  0  0  0  0  0  0  0  0
  -23.0259   -8.7856   20.7888 C   0  0  0  0  0  0  0  0  0  0  0  0
  -23.1072   -7.3978   20.9031 C   0  0  0  0  0  0  0  0  0  0  0  0
  -25.3375  -27.4980   20.0667 C   0  0  0  0  0  0  0  0  0  0  0  0
  -23.0083   -7.5902   23.3094 C   0  0  0  0  0  0  0  0  0  0  0  0
  -25.9911  -12.9215   19.9444 C   0  0  0  0  0  0  0  0  0  0  0  0
  -27.7221  -13.2348   18.0969 C   0  0  0  0  0  0  0  0  0  0  0  0
  -29.6341  -33.5483   25.3620 C   0  0  0  0  0  0  0  0  0  0  0  0
  -26.0294  -29.8153   20.1704 C   0  0  0  0  0  0  0  0  0  0  0  0
  -29.4402  -32.4891   24.4549 C   0  0  0  0  0  0  0  0  0  0  0  0
  -25.2443  -28.7640   20.6647 C   0  0  0  0  0  0  0  0  0  0  0  0
  -27.7976  -23.0149   16.7511 C   0  0  0  0  0  0  0  0  0  0  0  0
  -25.7384  -22.7903   17.9946 C   0  0  0  0  0  0  0  0  0  0  0  0
  -26.5213  -23.4796   17.0685 C   0  0  0  0  0  0  0  0  0  0  0  0
  -28.2910  -21.8608   17.3597 C   0  0  0  0  0  0  0  0  0  0  0  0
  -26.2318  -21.6362   18.6032 C   0  0  0  0  0  0  0  0  0  0  0  0
  -27.5081  -21.1715   18.2858 C   0  0  0  0  0  0  0  0  0  0  0  0
  -23.8832  -11.5986   21.2050 C   0  0  0  0  0  0  0  0  0  0  0  0
  -26.1902  -27.2839   18.9841 C   0  0  0  0  0  0  0  0  0  0  0  0
  -22.9359   -9.5757   21.9348 C   0  0  0  0  0  0  0  0  0  0  0  0
  -23.0984   -6.8001   22.1634 C   0  0  0  0  0  0  0  0  0  0  0  0
  -22.9270   -8.9780   23.1951 C   0  0  0  0  0  0  0  0  0  0  0  0
  -27.0794  -13.6054   19.2933 C   0  0  0  0  0  0  0  0  0  0  0  0
  -28.6790  -14.2017   17.9074 C   0  0  0  0  0  0  0  0  0  0  0  0
  -27.4761  -12.1165   17.2340 C   0  0  0  0  0  0  0  0  0  0  0  0
  -26.4630  -30.7020   23.1919 C   0  0  0  0  0  0  0  0  0  0  0  0
  -23.2197  -30.7419   23.2371 C   0  0  0  0  0  0  0  0  0  0  0  0
  -20.2895  -29.6132   21.9004 C   0  0  0  0  0  0  0  0  0  0  0  0
  -29.1512  -19.8836   19.6957 C   0  0  0  0  0  0  0  0  0  0  0  0
  -28.8005  -33.6853   26.6114 C   0  0  0  0  0  0  0  0  0  0  0  0
  -25.9319  -31.1887   20.7759 C   0  0  0  0  0  0  0  0  0  0  0  0
  -24.3068  -28.9534   21.8282 C   0  0  0  0  0  0  0  0  0  0  0  0
  -27.5047  -32.8795   26.5705 C   0  0  0  0  0  0  0  0  0  0  0  0
  -31.4572  -17.2490   20.3426 C   0  0  0  0  0  0  0  0  0  0  0  0
  -27.7722  -31.4633   26.0709 C   0  0  0  0  0  0  0  0  0  0  0  0
  -30.6566  -15.9821   20.0322 C   0  0  0  0  0  0  0  0  0  0  0  0
  -30.5879  -18.3244   20.9918 C   0  0  0  0  0  0  0  0  0  0  0  0
  -28.5614  -17.3926   19.9457 C   0  0  0  0  0  0  0  0  0  0  0  0
  -28.3296  -31.4784   24.6424 C   0  0  1  0  0  0  0  0  0  0  0  0
  -25.4237  -31.1729   22.2143 C   0  0  1  0  0  0  0  0  0  0  0  0
  -29.3797  -16.3045   19.2316 C   0  0  2  0  0  0  0  0  0  0  0  0
  -28.6372  -23.7553   15.7584 C   0  0  0  0  0  0  0  0  0  0  0  0
  -24.3697  -23.2901   18.3360 C   0  0  0  0  0  0  0  0  0  0  0  0
  -29.6616  -21.3657   17.0156 C   0  0  0  0  0  0  0  0  0  0  0  0
  -25.3881  -20.8995   19.5967 C   0  0  0  0  0  0  0  0  0  0  0  0
  -17.8014  -29.7935   22.1731 C   0  0  0  0  0  0  0  0  0  0  0  0
  -23.3558  -28.9061   25.6705 C   0  0  0  0  0  0  0  0  0  0  0  0
  -20.9370  -28.3678   25.3127 C   0  0  0  0  0  0  0  0  0  0  0  0
  -21.6300  -30.7099   25.8198 C   0  0  0  0  0  0  0  0  0  0  0  0
  -19.9561  -30.7331   19.1813 C   0  0  0  0  0  0  0  0  0  0  0  0
  -25.9877  -24.7294   16.4115 C   0  0  0  0  0  0  0  0  0  0  0  0
  -26.5732  -25.9992   17.0196 C   0  0  0  0  0  0  0  0  0  1  0  0
  -22.1423  -29.7305   23.5459 C   0  0  1  0  0  0  0  0  0  0  0  0
  -19.0314  -30.3449   21.4689 C   0  0  2  0  0  0  0  0  0  0  0  0
  -22.0353  -29.4242   25.0665 C   0  0  0  0  0  0  0  0  0  0  0  0
  -27.5855  -14.7207   19.8264 N   0  0  0  0  0  0  0  0  0  0  0  0
  -28.5564  -15.0591   18.9610 N   0  0  0  0  0  0  0  0  0  0  0  0
  -24.2515  -30.3131   22.3901 N   0  0  0  0  0  0  0  0  0  0  0  0
  -29.3990  -18.5802   20.1756 N   0  0  0  0  0  0  0  0  0  0  0  0
  -29.6051  -14.3936   16.9440 N   0  0  0  0  0  0  0  0  0  0  0  0
  -26.4552  -11.2197   17.5771 N   0  0  0  0  0  0  0  0  0  0  0  0
  -28.0093  -19.9990   18.9037 N   0  0  0  0  0  0  0  0  0  0  0  0
  -27.2670  -31.7106   23.6877 N   0  0  0  0  0  0  0  0  0  0  0  0
  -20.9142  -30.2484   22.9528 N   0  0  0  0  0  0  0  0  0  0  0  0
  -18.8316  -30.2087   19.9983 N   0  3  0  0  0  0  0  0  0  0  0  0
  -28.1527  -11.9094   16.1982 O   0  0  0  0  0  0  0  0  0  0  0  0
  -26.5295  -29.5120   23.4766 O   0  0  0  0  0  0  0  0  0  0  0  0
  -23.1448  -31.8729   23.7237 O   0  0  0  0  0  0  0  0  0  0  0  0
  -20.6772  -28.5794   21.3606 O   0  0  0  0  0  0  0  0  0  0  0  0
  -29.9119  -20.8224   19.9447 O   0  0  0  0  0  0  0  0  0  0  0  0
  -22.8545  -10.9533   21.8197 O   0  0  0  0  0  0  0  0  0  0  0  0
  -26.2692  -26.0512   18.4129 O   0  0  0  0  0  0  0  0  0  1  0  0
  -23.1749   -5.4673   22.2729 F   0  0  0  0  0  0  0  0  0  0  0  0
  -22.8395   -9.7318   24.2996 F   0  0  0  0  0  0  0  0  0  0  0  0
  1  2  1  0  0  0  0
  1  5  2  0  0  0  0
  2  6  2  0  0  0  0
  3  8  2  0  0  0  0
  3 15  1  0  0  0  0
  4  9  1  0  0  0  0
  4 15  2  0  0  0  0
  5 17  1  0  0  0  0
  6 19  1  0  0  0  0
  7 10  2  0  0  0  0
  7 18  1  0  0  0  0
  8 27  1  0  0  0  0
  9 27  2  0  0  0  0
 10 28  1  0  0  0  0
 11 12  2  0  0  0  0
 11 29  1  0  0  0  0
 12 30  1  0  0  0  0
 13 20  1  0  0  0  0
 13 28  2  0  0  0  0
 14 30  2  0  0  0  0
 14 31  1  0  0  0  0
 15 32  1  0  0  0  0
 16 32  1  0  0  0  0
 16 33  2  0  0  0  0
 16 34  1  0  0  0  0
 17 19  2  0  0  0  0
 17 39  1  0  0  0  0
 18 20  2  0  0  0  0
 18 40  1  0  0  0  0
 19 48  1  0  0  0  0
 20 41  1  0  0  0  0
 21 23  1  0  0  0  0
 21 24  2  0  0  0  0
 21 51  1  0  0  0  0
 22 23  2  0  0  0  0
 22 25  1  0  0  0  0
 22 52  1  0  0  0  0
 23 60  1  0  0  0  0
 24 26  1  0  0  0  0
 24 53  1  0  0  0  0
 25 26  2  0  0  0  0
 25 54  1  0  0  0  0
 26 71  1  0  0  0  0
 27 80  1  0  0  0  0
 28 81  1  0  0  0  0
 29 31  2  0  0  0  0
 29 80  1  0  0  0  0
 30 82  1  0  0  0  0
 31 83  1  0  0  0  0
 32 65  2  0  0  0  0
 33 66  1  0  0  0  0
 33 69  1  0  0  0  0
 34 70  1  0  0  0  0
 34 75  2  0  0  0  0
 35 49  1  0  0  0  0
 35 72  1  0  0  0  0
 35 76  2  0  0  0  0
 36 62  1  0  0  0  0
 36 67  1  0  0  0  0
 36 77  2  0  0  0  0
 37 63  1  0  0  0  0
 37 73  1  0  0  0  0
 37 78  2  0  0  0  0
 38 68  1  0  0  0  0
 38 71  1  0  0  0  0
 38 79  2  0  0  0  0
 39 42  1  0  0  0  0
 40 49  1  0  0  0  0
 41 67  1  0  0  0  0
 42 44  1  0  0  0  0
 43 45  1  0  0  0  0
 43 46  1  0  0  0  0
 44 48  1  0  0  0  0
 45 50  1  0  0  0  0
 46 68  1  0  0  0  0
 47 50  1  0  0  0  0
 47 68  1  0  0  0  0
 48 72  1  0  0  0  0
 49 67  1  0  0  0  0
 50 66  1  0  0  0  0
 55 63  1  0  0  0  0
 56 64  1  0  0  0  0
 57 64  1  0  0  0  0
 58 64  1  0  0  0  0
 59 74  1  0  0  0  0
 60 61  1  0  0  0  0
 61 81  1  0  0  0  0
 62 64  1  0  0  0  0
 62 73  1  0  0  0  0
 63 74  1  0  0  0  0
 65 66  1  0  0  0  0
M  CHG  1  74   1
M  ISO  4  38 100  61 101  71 100  81 101
M  END
> <Batch ID>
0018

> <Smiles>
CNC(C)C(=O)NC(C(=O)N1Cc2cc([101O:1][101CH2:1]Cc3c(C)c(C)c([100NH:0][100C:0](=O)N4CCCC(n5nc(-c6ccc(Oc7ccc(F)cc7F)cc6)c(C(N)=O)c5N)C4)c(C)c3C)ccc2CC1C(=O)NC1CCCc2ccccc21)C(C)(C)C

> <Shape>
0.262

> <Color>
0.081

> <Negative vol penalty>
0.000

$$$$
