
  -OEChem-04052316073D

 82 90  0     1  0  0  0  0  0999 V2000
  -29.7004  -35.4027   19.2560 C   0  0  0  0  0  0  0  0  0  0  0  0
  -29.8039  -34.2201   18.5306 C   0  0  0  0  0  0  0  0  0  0  0  0
  -23.1133  -10.3271   20.8191 C   0  0  0  0  0  0  0  0  0  0  0  0
  -24.5895   -8.9957   22.1922 C   0  0  0  0  0  0  0  0  0  0  0  0
  -29.3019  -35.3673   20.5916 C   0  0  0  0  0  0  0  0  0  0  0  0
  -29.5102  -33.0012   19.1409 C   0  0  0  0  0  0  0  0  0  0  0  0
  -26.7808  -26.5411   17.6802 C   0  0  0  0  0  0  0  0  0  0  0  0
  -22.2558   -9.2355   20.6825 C   0  0  0  0  0  0  0  0  0  0  0  0
  -23.7319   -7.9041   22.0556 C   0  0  0  0  0  0  0  0  0  0  0  0
  -27.0850  -25.1873   17.8168 C   0  0  0  0  0  0  0  0  0  0  0  0
  -20.8112   -6.8509   23.3901 C   0  0  0  0  0  0  0  0  0  0  0  0
  -20.5111   -6.1169   24.5376 C   0  0  0  0  0  0  0  0  0  0  0  0
  -26.3299  -25.2550   20.1069 C   0  0  0  0  0  0  0  0  0  0  0  0
  -29.2281  -19.4134   19.4829 C   0  0  0  0  0  0  0  0  0  0  0  0
  -21.4495   -4.1381   23.5173 C   0  0  0  0  0  0  0  0  0  0  0  0
  -24.2802  -10.2072   21.5739 C   0  0  0  0  0  0  0  0  0  0  0  0
  -25.1302  -12.3247   22.7148 C   0  0  0  0  0  0  0  0  0  0  0  0
  -28.9938  -34.1482   21.2158 C   0  0  0  0  0  0  0  0  0  0  0  0
  -26.2582  -27.2657   18.7611 C   0  0  0  0  0  0  0  0  0  0  0  0
  -29.1085  -32.9493   20.4865 C   0  0  0  0  0  0  0  0  0  0  0  0
  -26.0176  -26.6172   19.9807 C   0  0  0  0  0  0  0  0  0  0  0  0
  -29.0096  -20.7543   19.1668 C   0  0  0  0  0  0  0  0  0  0  0  0
  -27.0627  -20.1332   17.8780 C   0  0  0  0  0  0  0  0  0  0  0  0
  -27.9269  -21.1142   18.3644 C   0  0  0  0  0  0  0  0  0  0  0  0
  -27.2813  -18.7923   18.1941 C   0  0  0  0  0  0  0  0  0  0  0  0
  -28.3640  -18.4324   18.9965 C   0  0  0  0  0  0  0  0  0  0  0  0
  -22.5651   -8.0240   21.3008 C   0  0  0  0  0  0  0  0  0  0  0  0
  -26.8623  -24.5448   19.0311 C   0  0  0  0  0  0  0  0  0  0  0  0
  -21.4304   -6.2285   22.3061 C   0  0  0  0  0  0  0  0  0  0  0  0
  -20.8302   -4.7605   24.6012 C   0  0  0  0  0  0  0  0  0  0  0  0
  -21.7495   -4.8721   22.3698 C   0  0  0  0  0  0  0  0  0  0  0  0
  -25.1667  -11.3343   21.7150 C   0  0  0  0  0  0  0  0  0  0  0  0
  -26.1740  -13.1625   22.4065 C   0  0  0  0  0  0  0  0  0  0  0  0
  -24.2331  -12.4739   23.8232 C   0  0  0  0  0  0  0  0  0  0  0  0
  -27.2305  -29.7673   20.4642 C   0  0  0  0  0  0  0  0  0  0  0  0
  -24.2927  -29.4975   21.8129 C   0  0  0  0  0  0  0  0  0  0  0  0
  -21.6132  -27.5159   22.5481 C   0  0  0  0  0  0  0  0  0  0  0  0
  -28.8458  -16.0805   18.3394 C   0  0  0  0  0  0  0  0  0  0  0  0
  -28.6130  -34.1557   22.6751 C   0  0  0  0  0  0  0  0  0  0  0  0
  -25.9104  -28.7190   18.5895 C   0  0  0  0  0  0  0  0  0  0  0  0
  -25.4392  -27.3453   21.1655 C   0  0  0  0  0  0  0  0  0  0  0  0
  -27.9583  -32.8576   23.1404 C   0  0  0  0  0  0  0  0  0  0  0  0
  -29.9660  -12.6515   19.1120 C   0  0  0  0  0  0  0  0  0  0  0  0
  -28.7471  -31.6522   22.6388 C   0  0  0  0  0  0  0  0  0  0  0  0
  -28.7811  -12.0717   19.8826 C   0  0  0  0  0  0  0  0  0  0  0  0
  -29.5244  -13.7096   18.1053 C   0  0  0  0  0  0  0  0  0  0  0  0
  -27.5296  -14.2291   19.4768 C   0  0  0  0  0  0  0  0  0  0  0  0
  -28.7745  -31.6097   21.1062 C   0  0  1  0  0  0  0  0  0  0  0  0
  -25.8634  -29.4820   19.9097 C   0  0  1  0  0  0  0  0  0  0  0  0
  -27.9467  -13.1909   20.5294 C   0  0  1  0  0  0  0  0  0  0  0  0
  -29.9519  -21.7848   19.6973 C   0  0  0  0  0  0  0  0  0  0  0  0
  -25.9015  -20.5200   17.0171 C   0  0  0  0  0  0  0  0  0  0  0  0
  -26.3535  -17.7412   17.6695 C   0  0  0  0  0  0  0  0  0  0  0  0
  -19.3800  -27.5673   23.6916 C   0  0  0  0  0  0  0  0  0  0  0  0
  -25.6837  -29.4207   24.5276 C   0  0  0  0  0  0  0  0  0  0  0  0
  -23.5600  -28.5332   25.5127 C   0  0  0  0  0  0  0  0  0  0  0  0
  -23.5960  -30.7961   24.4637 C   0  0  0  0  0  0  0  0  0  0  0  0
  -28.8508  -16.7087   20.7425 C   0  0  0  0  0  0  0  0  0  0  0  0
  -20.1872  -26.8273   20.0478 C   0  0  0  0  0  0  0  0  0  0  0  0
  -27.6955  -22.5574   18.0253 C   0  0  0  0  0  0  0  0  0  1  0  0
  -23.7221  -28.7451   22.9908 C   0  0  1  0  0  0  0  0  0  0  0  0
  -20.1210  -27.7343   22.3741 C   0  0  2  0  0  0  0  0  0  0  0  0
  -24.1532  -29.3602   24.3521 C   0  0  0  0  0  0  0  0  0  0  0  0
  -26.1553  -11.5241   20.8370 N   0  0  0  0  0  0  0  0  0  0  0  0
  -26.7496  -12.6434   21.2842 N   0  0  0  0  0  0  0  0  0  0  0  0
  -25.1215  -28.7666   20.9499 N   0  0  0  0  0  0  0  0  0  0  0  0
  -28.6952  -14.7368   18.7368 N   0  0  0  0  0  0  0  0  0  0  0  0
  -26.6464  -14.2852   22.9885 N   0  0  0  0  0  0  0  0  0  0  0  0
  -23.2169  -11.5237   23.9929 N   0  0  0  0  0  0  0  0  0  0  0  0
  -27.5162  -31.1132   20.5918 N   0  0  0  0  0  0  0  0  0  0  0  0
  -22.2784  -28.7001   22.7858 N   0  0  0  0  0  0  0  0  0  0  0  0
  -28.6088  -17.0508   19.3371 N   0  0  0  0  0  0  0  0  0  0  0  0
  -19.5652  -26.7577   21.3952 N   0  3  0  0  0  0  0  0  0  0  0  0
  -24.3195  -13.4310   24.6295 O   0  0  0  0  0  0  0  0  0  0  0  0
  -27.9706  -28.8353   20.7561 O   0  0  0  0  0  0  0  0  0  0  0  0
  -24.0076  -30.6879   21.6602 O   0  0  0  0  0  0  0  0  0  0  0  0
  -22.1358  -26.4054   22.4835 O   0  0  0  0  0  0  0  0  0  0  0  0
  -29.1936  -16.3867   17.1927 O   0  0  0  0  0  0  0  0  0  0  0  0
  -21.7284   -6.9587   21.1679 O   0  0  0  0  0  0  0  0  0  0  0  0
  -27.1589  -23.2237   19.1674 O   0  0  0  0  0  0  0  0  0  1  0  0
  -20.5434   -4.0562   25.7039 F   0  0  0  0  0  0  0  0  0  0  0  0
  -22.3455   -4.2689   21.3321 F   0  0  0  0  0  0  0  0  0  0  0  0
  1  2  1  0  0  0  0
  1  5  2  0  0  0  0
  2  6  2  0  0  0  0
  3  8  2  0  0  0  0
  3 16  1  0  0  0  0
  4  9  1  0  0  0  0
  4 16  2  0  0  0  0
  5 18  1  0  0  0  0
  6 20  1  0  0  0  0
  7 10  2  0  0  0  0
  7 19  1  0  0  0  0
  8 27  1  0  0  0  0
  9 27  2  0  0  0  0
 10 28  1  0  0  0  0
 11 12  2  0  0  0  0
 11 29  1  0  0  0  0
 12 30  1  0  0  0  0
 13 21  1  0  0  0  0
 13 28  2  0  0  0  0
 14 22  2  0  0  0  0
 14 26  1  0  0  0  0
 15 30  2  0  0  0  0
 15 31  1  0  0  0  0
 16 32  1  0  0  0  0
 17 32  1  0  0  0  0
 17 33  2  0  0  0  0
 17 34  1  0  0  0  0
 18 20  2  0  0  0  0
 18 39  1  0  0  0  0
 19 21  2  0  0  0  0
 19 40  1  0  0  0  0
 20 48  1  0  0  0  0
 21 41  1  0  0  0  0
 22 24  1  0  0  0  0
 22 51  1  0  0  0  0
 23 24  2  0  0  0  0
 23 25  1  0  0  0  0
 23 52  1  0  0  0  0
 24 60  1  0  0  0  0
 25 26  2  0  0  0  0
 25 53  1  0  0  0  0
 26 72  1  0  0  0  0
 27 79  1  0  0  0  0
 28 80  1  0  0  0  0
 29 31  2  0  0  0  0
 29 79  1  0  0  0  0
 30 81  1  0  0  0  0
 31 82  1  0  0  0  0
 32 64  2  0  0  0  0
 33 65  1  0  0  0  0
 33 68  1  0  0  0  0
 34 69  1  0  0  0  0
 34 74  2  0  0  0  0
 35 49  1  0  0  0  0
 35 70  1  0  0  0  0
 35 75  2  0  0  0  0
 36 61  1  0  0  0  0
 36 66  1  0  0  0  0
 36 76  2  0  0  0  0
 37 62  1  0  0  0  0
 37 71  1  0  0  0  0
 37 77  2  0  0  0  0
 38 67  1  0  0  0  0
 38 72  1  0  0  0  0
 38 78  2  0  0  0  0
 39 42  1  0  0  0  0
 40 49  1  0  0  0  0
 41 66  1  0  0  0  0
 42 44  1  0  0  0  0
 43 45  1  0  0  0  0
 43 46  1  0  0  0  0
 44 48  1  0  0  0  0
 45 50  1  0  0  0  0
 46 67  1  0  0  0  0
 47 50  1  0  0  0  0
 47 67  1  0  0  0  0
 48 70  1  0  0  0  0
 49 66  1  0  0  0  0
 50 65  1  0  0  0  0
 54 62  1  0  0  0  0
 55 63  1  0  0  0  0
 56 63  1  0  0  0  0
 57 63  1  0  0  0  0
 58 72  1  0  0  0  0
 59 73  1  0  0  0  0
 60 80  1  0  0  0  0
 61 63  1  0  0  0  0
 61 71  1  0  0  0  0
 62 73  1  0  0  0  0
 64 65  1  0  0  0  0
M  CHG  1  73   1
M  ISO  4  38 100  60 101  72 100  80 101
M  END
> <Batch ID>
0019

> <Smiles>
CNC(C)C(=O)NC(C(=O)N1Cc2cc([101O:1][101CH2:1]c3c(C)cc([100N:0](C)[100C:0](=O)N4CCCC(n5nc(-c6ccc(Oc7ccc(F)cc7F)cc6)c(C(N)=O)c5N)C4)c(C)c3C)ccc2CC1C(=O)NC1CCCc2ccccc21)C(C)(C)C

> <Shape>
0.287

> <Color>
0.109

> <Negative vol penalty>
0.000

$$$$

  -OEChem-04052316073D

 79 87  0     1  0  0  0  0  0999 V2000
  -29.6971   -3.6489   24.9201 C   0  0  0  0  0  0  0  0  0  0  0  0
  -30.0966   -4.9753   25.0482 C   0  0  0  0  0  0  0  0  0  0  0  0
  -22.8517  -10.1111   20.1202 C   0  0  0  0  0  0  0  0  0  0  0  0
  -24.3443   -9.5508   21.9355 C   0  0  0  0  0  0  0  0  0  0  0  0
  -28.3894   -3.2823   25.2355 C   0  0  0  0  0  0  0  0  0  0  0  0
  -29.1882   -5.9362   25.4907 C   0  0  0  0  0  0  0  0  0  0  0  0
  -31.1793   -9.0389   28.9626 C   0  0  0  0  0  0  0  0  0  0  0  0
  -22.1646   -8.9131   20.3153 C   0  0  0  0  0  0  0  0  0  0  0  0
  -23.6571   -8.3527   22.1306 C   0  0  0  0  0  0  0  0  0  0  0  0
  -32.0179  -10.0536   28.5035 C   0  0  0  0  0  0  0  0  0  0  0  0
  -20.7814   -7.3416   23.5897 C   0  0  0  0  0  0  0  0  0  0  0  0
  -20.4663   -6.9830   24.9003 C   0  0  0  0  0  0  0  0  0  0  0  0
  -30.1984  -11.6279   28.6776 C   0  0  0  0  0  0  0  0  0  0  0  0
  -21.7570   -4.9553   24.6558 C   0  0  0  0  0  0  0  0  0  0  0  0
  -23.9416  -10.4300   20.9303 C   0  0  0  0  0  0  0  0  0  0  0  0
  -24.1294  -12.9715   20.8148 C   0  0  0  0  0  0  0  0  0  0  0  0
  -27.4672   -4.2375   25.6913 C   0  0  0  0  0  0  0  0  0  0  0  0
  -29.8387   -9.3092   29.2728 C   0  0  0  0  0  0  0  0  0  0  0  0
  -27.8665   -5.5823   25.8112 C   0  0  0  0  0  0  0  0  0  0  0  0
  -29.3455  -10.6154   29.1428 C   0  0  0  0  0  0  0  0  0  0  0  0
  -22.5673   -8.0339   21.3205 C   0  0  0  0  0  0  0  0  0  0  0  0
  -31.5268  -11.3477   28.3582 C   0  0  0  0  0  0  0  0  0  0  0  0
  -21.5843   -6.5070   22.8121 C   0  0  0  0  0  0  0  0  0  0  0  0
  -20.9541   -5.7899   25.4334 C   0  0  0  0  0  0  0  0  0  0  0  0
  -22.0721   -5.3139   23.3452 C   0  0  0  0  0  0  0  0  0  0  0  0
  -24.6522  -11.6672   20.7289 C   0  0  0  0  0  0  0  0  0  0  0  0
  -25.1988  -13.7887   20.5412 C   0  0  0  0  0  0  0  0  0  0  0  0
  -22.7963  -13.4054   21.1153 C   0  0  0  0  0  0  0  0  0  0  0  0
  -27.0336   -8.3086   28.1621 C   0  0  0  0  0  0  0  0  0  0  0  0
  -25.8712  -10.0508   30.6392 C   0  0  0  0  0  0  0  0  0  0  0  0
  -26.5629  -13.2466   32.1644 C   0  0  0  0  0  0  0  0  0  0  0  0
  -31.0381  -13.2332   21.0615 C   0  0  0  0  0  0  0  0  0  0  0  0
  -26.0514   -3.8020   25.9749 C   0  0  0  0  0  0  0  0  0  0  0  0
  -28.9541   -8.2092   29.7922 C   0  0  0  0  0  0  0  0  0  0  0  0
  -27.9195  -10.9620   29.4816 C   0  0  0  0  0  0  0  0  0  0  0  0
  -25.2554   -4.8144   26.7946 C   0  0  0  0  0  0  0  0  0  0  0  0
  -29.3172  -13.9002   18.1256 C   0  0  0  0  0  0  0  0  0  0  0  0
  -25.4465   -6.2212   26.2369 C   0  0  0  0  0  0  0  0  0  0  0  0
  -32.1519  -15.1075   25.3445 C   0  0  0  0  0  0  0  0  0  0  0  0
  -33.3239  -12.8695   25.2699 C   0  0  0  0  0  0  0  0  0  0  0  0
  -27.8716  -13.5303   18.4549 C   0  0  0  0  0  0  0  0  0  0  0  0
  -31.1548  -14.6228   24.2916 C   0  0  0  0  0  0  0  0  0  0  0  0
  -32.3293  -12.3812   24.2163 C   0  0  0  0  0  0  0  0  0  0  0  0
  -30.2878  -12.8913   18.7277 C   0  0  0  0  0  0  0  0  0  0  0  0
  -28.7072  -12.3631   20.5563 C   0  0  0  0  0  0  0  0  0  0  0  0
  -26.9171   -6.6492   26.3117 C   0  0  1  0  0  0  0  0  0  0  0  0
  -27.4686   -8.4906   29.5887 C   0  0  1  0  0  0  0  0  0  0  0  0
  -32.7499  -13.9657   26.1790 C   0  0  0  0  0  0  0  0  0  0  0  0
  -27.6796  -13.3536   19.9713 C   0  0  2  0  0  0  0  0  0  0  0  0
  -31.7669  -13.5435   23.3961 C   0  0  0  0  0  0  0  0  0  0  0  0
  -26.1985  -14.0454   34.5152 C   0  0  0  0  0  0  0  0  0  0  0  0
  -23.2207  -11.1096   29.5604 C   0  0  0  0  0  0  0  0  0  0  0  0
  -23.5156  -13.1275   31.0128 C   0  0  0  0  0  0  0  0  0  0  0  0
  -23.3123  -10.8670   32.0478 C   0  0  0  0  0  0  0  0  0  0  0  0
  -29.7557  -12.1790   22.9718 C   0  0  0  0  0  0  0  0  0  0  0  0
  -29.4031  -14.0224   32.4644 C   0  0  0  0  0  0  0  0  0  0  0  0
  -31.7333  -13.4001   27.1745 C   0  0  0  0  0  0  0  0  0  1  0  0
  -25.4387  -11.4849   30.8276 C   0  0  1  0  0  0  0  0  0  0  0  0
  -27.2033  -13.4872   33.5195 C   0  0  2  0  0  0  0  0  0  0  0  0
  -23.8917  -11.6401   30.8431 C   0  0  0  0  0  0  0  0  0  0  0  0
  -25.9525  -11.6519   20.4242 N   0  0  0  0  0  0  0  0  0  0  0  0
  -26.2559  -12.9567   20.3164 N   0  0  0  0  0  0  0  0  0  0  0  0
  -27.0922   -9.8506   29.9797 N   0  0  0  0  0  0  0  0  0  0  0  0
  -30.0737  -12.7447   20.1677 N   0  0  0  0  0  0  0  0  0  0  0  0
  -25.3287  -15.1307   20.4733 N   0  0  0  0  0  0  0  0  0  0  0  0
  -21.8192  -12.4339   21.3717 N   0  0  0  0  0  0  0  0  0  0  0  0
  -27.2615   -7.0409   27.6617 N   0  0  0  0  0  0  0  0  0  0  0  0
  -26.0985  -11.9541   32.0412 N   0  0  0  0  0  0  0  0  0  0  0  0
  -30.7894  -13.0601   22.4314 N   0  0  0  0  0  0  0  0  0  0  0  0
  -28.3296  -14.4553   33.3956 N   0  3  0  0  0  0  0  0  0  0  0  0
  -22.4772  -14.6183   21.1390 O   0  0  0  0  0  0  0  0  0  0  0  0
  -26.5271   -9.2484   27.5603 O   0  0  0  0  0  0  0  0  0  0  0  0
  -25.1557   -9.1421   31.0678 O   0  0  0  0  0  0  0  0  0  0  0  0
  -26.4793  -14.1190   31.3028 O   0  0  0  0  0  0  0  0  0  0  0  0
  -32.0692  -13.7872   20.6588 O   0  0  0  0  0  0  0  0  0  0  0  0
  -21.8969   -6.8648   21.5113 O   0  0  0  0  0  0  0  0  0  0  0  0
  -32.3431  -12.3399   27.9097 O   0  0  0  0  0  0  0  0  0  1  0  0
  -20.6527   -5.4465   26.6925 F   0  0  0  0  0  0  0  0  0  0  0  0
  -22.8448   -4.5086   22.6034 F   0  0  0  0  0  0  0  0  0  0  0  0
  1  2  1  0  0  0  0
  1  5  2  0  0  0  0
  2  6  2  0  0  0  0
  3  8  2  0  0  0  0
  3 15  1  0  0  0  0
  4  9  1  0  0  0  0
  4 15  2  0  0  0  0
  5 17  1  0  0  0  0
  6 19  1  0  0  0  0
  7 10  2  0  0  0  0
  7 18  1  0  0  0  0
  8 21  1  0  0  0  0
  9 21  2  0  0  0  0
 10 22  1  0  0  0  0
 11 12  2  0  0  0  0
 11 23  1  0  0  0  0
 12 24  1  0  0  0  0
 13 20  1  0  0  0  0
 13 22  2  0  0  0  0
 14 24  2  0  0  0  0
 14 25  1  0  0  0  0
 15 26  1  0  0  0  0
 16 26  1  0  0  0  0
 16 27  2  0  0  0  0
 16 28  1  0  0  0  0
 17 19  2  0  0  0  0
 17 33  1  0  0  0  0
 18 20  2  0  0  0  0
 18 34  1  0  0  0  0
 19 46  1  0  0  0  0
 20 35  1  0  0  0  0
 21 76  1  0  0  0  0
 22 77  1  0  0  0  0
 23 25  2  0  0  0  0
 23 76  1  0  0  0  0
 24 78  1  0  0  0  0
 25 79  1  0  0  0  0
 26 61  2  0  0  0  0
 27 62  1  0  0  0  0
 27 65  1  0  0  0  0
 28 66  1  0  0  0  0
 28 71  2  0  0  0  0
 29 47  1  0  0  0  0
 29 67  1  0  0  0  0
 29 72  2  0  0  0  0
 30 58  1  0  0  0  0
 30 63  1  0  0  0  0
 30 73  2  0  0  0  0
 31 59  1  0  0  0  0
 31 68  1  0  0  0  0
 31 74  2  0  0  0  0
 32 64  1  0  0  0  0
 32 69  1  0  0  0  0
 32 75  2  0  0  0  0
 33 36  1  0  0  0  0
 34 47  1  0  0  0  0
 35 63  1  0  0  0  0
 36 38  1  0  0  0  0
 37 41  1  0  0  0  0
 37 44  1  0  0  0  0
 38 46  1  0  0  0  0
 39 42  1  0  0  0  0
 39 48  1  0  0  0  0
 40 43  1  0  0  0  0
 40 48  1  0  0  0  0
 41 49  1  0  0  0  0
 42 50  1  0  0  0  0
 43 50  1  0  0  0  0
 44 64  1  0  0  0  0
 45 49  1  0  0  0  0
 45 64  1  0  0  0  0
 46 67  1  0  0  0  0
 47 63  1  0  0  0  0
 48 57  1  0  0  0  0
 49 62  1  0  0  0  0
 50 69  1  0  0  0  0
 51 59  1  0  0  0  0
 52 60  1  0  0  0  0
 53 60  1  0  0  0  0
 54 60  1  0  0  0  0
 55 69  1  0  0  0  0
 56 70  1  0  0  0  0
 57 77  1  0  0  0  0
 58 60  1  0  0  0  0
 58 68  1  0  0  0  0
 59 70  1  0  0  0  0
 61 62  1  0  0  0  0
M  CHG  1  70   1
M  ISO  4  32 100  57 101  69 100  77 101
M  END
> <Batch ID>
0019

> <Smiles>
CNC(C)C(=O)NC(C(=O)N1Cc2cc([101O:1][101CH2:1]C3CCC([100N:0](C)[100C:0](=O)N4CCCC(n5nc(-c6ccc(Oc7ccc(F)cc7F)cc6)c(C(N)=O)c5N)C4)CC3)ccc2CC1C(=O)NC1CCCc2ccccc21)C(C)(C)C

> <Shape>
0.160

> <Color>
0.193

> <Negative vol penalty>
0.000

$$$$

  -OEChem-04052316073D

 81 89  0     1  0  0  0  0  0999 V2000
  -27.9290  -35.3084   24.6327 C   0  0  0  0  0  0  0  0  0  0  0  0
  -28.7163  -34.2559   24.1769 C   0  0  0  0  0  0  0  0  0  0  0  0
  -24.3028   -9.5437   21.4658 C   0  0  0  0  0  0  0  0  0  0  0  0
  -24.7957  -10.6529   23.5548 C   0  0  0  0  0  0  0  0  0  0  0  0
  -26.5783  -35.0988   24.9076 C   0  0  0  0  0  0  0  0  0  0  0  0
  -28.1536  -32.9928   23.9967 C   0  0  0  0  0  0  0  0  0  0  0  0
  -28.6745  -27.1923   19.8255 C   0  0  0  0  0  0  0  0  0  0  0  0
  -23.9295   -8.3952   22.1637 C   0  0  0  0  0  0  0  0  0  0  0  0
  -24.4223   -9.5043   24.2527 C   0  0  0  0  0  0  0  0  0  0  0  0
  -28.8269  -25.8096   19.9177 C   0  0  0  0  0  0  0  0  0  0  0  0
  -22.5034   -5.2928   23.4115 C   0  0  0  0  0  0  0  0  0  0  0  0
  -21.3303   -4.6483   23.0193 C   0  0  0  0  0  0  0  0  0  0  0  0
  -26.4642  -25.5839   20.3490 C   0  0  0  0  0  0  0  0  0  0  0  0
  -29.2215  -20.8703   19.0324 C   0  0  0  0  0  0  0  0  0  0  0  0
  -20.0681   -6.6506   23.5043 C   0  0  0  0  0  0  0  0  0  0  0  0
  -24.7360  -10.6726   22.1614 C   0  0  0  0  0  0  0  0  0  0  0  0
  -24.2937  -12.9337   21.0662 C   0  0  0  0  0  0  0  0  0  0  0  0
  -25.9964  -33.8349   24.7214 C   0  0  0  0  0  0  0  0  0  0  0  0
  -27.4156  -27.7832   20.0055 C   0  0  0  0  0  0  0  0  0  0  0  0
  -26.7941  -32.7659   24.2706 C   0  0  0  0  0  0  0  0  0  0  0  0
  -26.2980  -26.9742   20.2560 C   0  0  0  0  0  0  0  0  0  0  0  0
  -29.1312  -21.6347   20.1957 C   0  0  0  0  0  0  0  0  0  0  0  0
  -29.1753  -19.4782   19.1073 C   0  0  0  0  0  0  0  0  0  0  0  0
  -28.9948  -21.0070   21.4338 C   0  0  0  0  0  0  0  0  0  0  0  0
  -28.9486  -19.6149   21.5087 C   0  0  0  0  0  0  0  0  0  0  0  0
  -29.0388  -18.8505   20.3455 C   0  0  0  0  0  0  0  0  0  0  0  0
  -23.9892   -8.3755   23.5571 C   0  0  0  0  0  0  0  0  0  0  0  0
  -27.7222  -25.0054   20.1823 C   0  0  0  0  0  0  0  0  0  0  0  0
  -22.4590   -6.6162   23.8502 C   0  0  0  0  0  0  0  0  0  0  0  0
  -20.1126   -5.3272   23.0657 C   0  0  0  0  0  0  0  0  0  0  0  0
  -21.2414   -7.2951   23.8965 C   0  0  0  0  0  0  0  0  0  0  0  0
  -25.1223  -11.8591   21.4410 C   0  0  0  0  0  0  0  0  0  0  0  0
  -25.1320  -13.8008   20.4090 C   0  0  0  0  0  0  0  0  0  0  0  0
  -22.8916  -13.1305   21.2920 C   0  0  0  0  0  0  0  0  0  0  0  0
  -26.1850  -29.8528   22.0806 C   0  0  0  0  0  0  0  0  0  0  0  0
  -23.6049  -29.6866   20.1216 C   0  0  0  0  0  0  0  0  0  0  0  0
  -21.8384  -27.9141   17.8012 C   0  0  0  0  0  0  0  0  0  0  0  0
  -29.9661  -16.5336   20.0012 C   0  0  0  0  0  0  0  0  0  0  0  0
  -24.5431  -33.6453   25.0770 C   0  0  0  0  0  0  0  0  0  0  0  0
  -27.2631  -29.2740   19.8764 C   0  0  0  0  0  0  0  0  0  0  0  0
  -24.9213  -27.5576   20.4371 C   0  0  0  0  0  0  0  0  0  0  0  0
  -23.9371  -32.3674   24.5025 C   0  0  0  0  0  0  0  0  0  0  0  0
  -29.8861  -13.1892   18.7824 C   0  0  0  0  0  0  0  0  0  0  0  0
  -24.8667  -31.1817   24.7411 C   0  0  0  0  0  0  0  0  0  0  0  0
  -28.5715  -12.6334   19.3346 C   0  0  0  0  0  0  0  0  0  0  0  0
  -30.5643  -14.1324   19.7744 C   0  0  0  0  0  0  0  0  0  0  0  0
  -28.4015  -14.6663   20.8263 C   0  0  0  0  0  0  0  0  0  0  0  0
  -26.2144  -31.3873   24.0390 C   0  0  1  0  0  0  0  0  0  0  0  0
  -26.0250  -29.8118   20.5871 C   0  0  1  0  0  0  0  0  0  0  0  0
  -27.6493  -13.7617   19.8366 C   0  0  2  0  0  0  0  0  0  0  0  0
  -29.2732  -18.6867   17.8433 C   0  0  0  0  0  0  0  0  0  0  0  0
  -28.8983  -21.8298   22.6795 C   0  0  0  0  0  0  0  0  0  0  0  0
  -28.8022  -18.9462   22.8401 C   0  0  0  0  0  0  0  0  0  0  0  0
  -19.7512  -28.0199   16.4120 C   0  0  0  0  0  0  0  0  0  0  0  0
  -21.9340  -29.0174   22.5854 C   0  0  0  0  0  0  0  0  0  0  0  0
  -20.1228  -28.2166   21.0537 C   0  0  0  0  0  0  0  0  0  0  0  0
  -20.8461  -30.6030   20.9864 C   0  0  0  0  0  0  0  0  0  0  0  0
  -23.3754  -27.8015   15.2745 C   0  0  0  0  0  0  0  0  0  0  0  0
  -29.1820  -23.1303   20.0871 C   0  0  0  0  0  0  0  0  0  1  0  0
  -22.3720  -28.8184   20.0488 C   0  0  1  0  0  0  0  0  0  0  0  0
  -21.2415  -28.3184   16.4653 C   0  0  2  0  0  0  0  0  0  0  0  0
  -21.3449  -29.1527   21.1671 C   0  0  0  0  0  0  0  0  0  0  0  0
  -26.3898  -12.0260   21.0540 N   0  0  0  0  0  0  0  0  0  0  0  0
  -26.3638  -13.2155   20.4291 N   0  0  0  0  0  0  0  0  0  0  0  0
  -24.8247  -29.0209   20.3079 N   0  0  0  0  0  0  0  0  0  0  0  0
  -29.6321  -15.1776   20.2027 N   0  0  0  0  0  0  0  0  0  0  0  0
  -24.9283  -14.9991   19.8217 N   0  0  0  0  0  0  0  0  0  0  0  0
  -22.1809  -12.1406   21.9844 N   0  0  0  0  0  0  0  0  0  0  0  0
  -28.9886  -17.4363   20.4186 N   0  0  0  0  0  0  0  0  0  0  0  0
  -26.0918  -31.1208   22.6218 N   0  0  0  0  0  0  0  0  0  0  0  0
  -21.8495  -28.9643   18.6945 N   0  0  0  0  0  0  0  0  0  0  0  0
  -21.9085  -27.5808   15.3553 N   0  3  0  0  0  0  0  0  0  0  0  0
  -22.2834  -14.1463   20.8773 O   0  0  0  0  0  0  0  0  0  0  0  0
  -26.3772  -28.8110   22.6965 O   0  0  0  0  0  0  0  0  0  0  0  0
  -23.4906  -30.9098   20.0100 O   0  0  0  0  0  0  0  0  0  0  0  0
  -22.2501  -26.7790   18.0305 O   0  0  0  0  0  0  0  0  0  0  0  0
  -31.0284  -16.8684   19.4707 O   0  0  0  0  0  0  0  0  0  0  0  0
  -23.6247   -7.2550   24.2385 O   0  0  0  0  0  0  0  0  0  0  0  0
  -27.8683  -23.6555   20.2735 O   0  0  0  0  0  0  0  0  0  1  0  0
  -18.9863   -4.7086   22.6875 F   0  0  0  0  0  0  0  0  0  0  0  0
  -21.1925   -8.5669   24.3159 F   0  0  0  0  0  0  0  0  0  0  0  0
  1  2  1  0  0  0  0
  1  5  2  0  0  0  0
  2  6  2  0  0  0  0
  3  8  2  0  0  0  0
  3 16  1  0  0  0  0
  4  9  1  0  0  0  0
  4 16  2  0  0  0  0
  5 18  1  0  0  0  0
  6 20  1  0  0  0  0
  7 10  2  0  0  0  0
  7 19  1  0  0  0  0
  8 27  1  0  0  0  0
  9 27  2  0  0  0  0
 10 28  1  0  0  0  0
 11 12  2  0  0  0  0
 11 29  1  0  0  0  0
 12 30  1  0  0  0  0
 13 21  1  0  0  0  0
 13 28  2  0  0  0  0
 14 22  1  0  0  0  0
 14 23  2  0  0  0  0
 15 30  2  0  0  0  0
 15 31  1  0  0  0  0
 16 32  1  0  0  0  0
 17 32  1  0  0  0  0
 17 33  2  0  0  0  0
 17 34  1  0  0  0  0
 18 20  2  0  0  0  0
 18 39  1  0  0  0  0
 19 21  2  0  0  0  0
 19 40  1  0  0  0  0
 20 48  1  0  0  0  0
 21 41  1  0  0  0  0
 22 24  2  0  0  0  0
 22 59  1  0  0  0  0
 23 26  1  0  0  0  0
 23 51  1  0  0  0  0
 24 25  1  0  0  0  0
 24 52  1  0  0  0  0
 25 26  2  0  0  0  0
 25 53  1  0  0  0  0
 26 69  1  0  0  0  0
 27 78  1  0  0  0  0
 28 79  1  0  0  0  0
 29 31  2  0  0  0  0
 29 78  1  0  0  0  0
 30 80  1  0  0  0  0
 31 81  1  0  0  0  0
 32 63  2  0  0  0  0
 33 64  1  0  0  0  0
 33 67  1  0  0  0  0
 34 68  1  0  0  0  0
 34 73  2  0  0  0  0
 35 49  1  0  0  0  0
 35 70  1  0  0  0  0
 35 74  2  0  0  0  0
 36 60  1  0  0  0  0
 36 65  1  0  0  0  0
 36 75  2  0  0  0  0
 37 61  1  0  0  0  0
 37 71  1  0  0  0  0
 37 76  2  0  0  0  0
 38 66  1  0  0  0  0
 38 69  1  0  0  0  0
 38 77  2  0  0  0  0
 39 42  1  0  0  0  0
 40 49  1  0  0  0  0
 41 65  1  0  0  0  0
 42 44  1  0  0  0  0
 43 45  1  0  0  0  0
 43 46  1  0  0  0  0
 44 48  1  0  0  0  0
 45 50  1  0  0  0  0
 46 66  1  0  0  0  0
 47 50  1  0  0  0  0
 47 66  1  0  0  0  0
 48 70  1  0  0  0  0
 49 65  1  0  0  0  0
 50 64  1  0  0  0  0
 54 61  1  0  0  0  0
 55 62  1  0  0  0  0
 56 62  1  0  0  0  0
 57 62  1  0  0  0  0
 58 72  1  0  0  0  0
 59 79  1  0  0  0  0
 60 62  1  0  0  0  0
 60 71  1  0  0  0  0
 61 72  1  0  0  0  0
 63 64  1  0  0  0  0
M  CHG  1  72   1
M  ISO  4  38 100  59 101  69 100  79 101
M  END
> <Batch ID>
0019

> <Smiles>
CNC(C)C(=O)NC(C(=O)N1Cc2cc([101O:1][101CH2:1]c3cc(C)c([100NH:0][100C:0](=O)N4CCCC(n5nc(-c6ccc(Oc7ccc(F)cc7F)cc6)c(C(N)=O)c5N)C4)c(C)c3C)ccc2CC1C(=O)NC1CCCc2ccccc21)C(C)(C)C

> <Shape>
0.360

> <Color>
0.124

> <Negative vol penalty>
0.000

$$$$

  -OEChem-04052316073D

 86 94  0     1  0  0  0  0  0999 V2000
  -17.0312  -28.8395   22.3901 C   0  0  0  0  0  0  0  0  0  0  0  0
  -18.1702  -28.7293   21.5990 C   0  0  0  0  0  0  0  0  0  0  0  0
  -26.6248  -12.6024   21.8025 C   0  0  0  0  0  0  0  0  0  0  0  0
  -26.0167  -14.0420   19.9600 C   0  0  0  0  0  0  0  0  0  0  0  0
  -17.1550  -29.0304   23.7656 C   0  0  0  0  0  0  0  0  0  0  0  0
  -19.4339  -28.8111   22.1829 C   0  0  0  0  0  0  0  0  0  0  0  0
  -24.4760  -25.7763   20.4879 C   0  0  0  0  0  0  0  0  0  0  0  0
  -25.3415  -12.0560   21.7993 C   0  0  0  0  0  0  0  0  0  0  0  0
  -24.7333  -13.4956   19.9567 C   0  0  0  0  0  0  0  0  0  0  0  0
  -25.5716  -26.1403   19.7064 C   0  0  0  0  0  0  0  0  0  0  0  0
  -23.6098   -9.7753   20.0015 C   0  0  0  0  0  0  0  0  0  0  0  0
  -23.4954   -8.3886   20.0990 C   0  0  0  0  0  0  0  0  0  0  0  0
  -26.8017  -26.7029   21.7037 C   0  0  0  0  0  0  0  0  0  0  0  0
  -28.6224  -23.4039   19.3744 C   0  0  0  0  0  0  0  0  0  0  0  0
  -22.2205   -8.6369   22.1361 C   0  0  0  0  0  0  0  0  0  0  0  0
  -26.9624  -13.5955   20.8829 C   0  0  0  0  0  0  0  0  0  0  0  0
  -29.4070  -13.7075   20.1624 C   0  0  0  0  0  0  0  0  0  0  0  0
  -18.4208  -29.1049   24.3681 C   0  0  0  0  0  0  0  0  0  0  0  0
  -24.5312  -25.8833   21.8850 C   0  0  0  0  0  0  0  0  0  0  0  0
  -19.5748  -29.0045   23.5676 C   0  0  0  0  0  0  0  0  0  0  0  0
  -25.7063  -26.3372   22.5008 C   0  0  0  0  0  0  0  0  0  0  0  0
  -29.8222  -24.0016   18.9886 C   0  0  0  0  0  0  0  0  0  0  0  0
  -28.6385  -22.2187   20.1098 C   0  0  0  0  0  0  0  0  0  0  0  0
  -31.0380  -23.4141   19.3382 C   0  0  0  0  0  0  0  0  0  0  0  0
  -31.0541  -22.2289   20.0735 C   0  0  0  0  0  0  0  0  0  0  0  0
  -29.8543  -21.6312   20.4593 C   0  0  0  0  0  0  0  0  0  0  0  0
  -24.3957  -12.5026   20.8764 C   0  0  0  0  0  0  0  0  0  0  0  0
  -26.7337  -26.6065   20.3141 C   0  0  0  0  0  0  0  0  0  0  0  0
  -23.0296  -10.5929   20.9714 C   0  0  0  0  0  0  0  0  0  0  0  0
  -22.8007   -7.8194   21.1662 C   0  0  0  0  0  0  0  0  0  0  0  0
  -22.3350  -10.0237   22.0387 C   0  0  0  0  0  0  0  0  0  0  0  0
  -28.2878  -14.1607   20.8862 C   0  0  0  0  0  0  0  0  0  0  0  0
  -30.4137  -14.5759   20.5075 C   0  0  0  0  0  0  0  0  0  0  0  0
  -29.5260  -12.6006   19.2589 C   0  0  0  0  0  0  0  0  0  0  0  0
  -22.9312  -27.5442   24.0725 C   0  0  0  0  0  0  0  0  0  0  0  0
  -24.6844  -25.7647   26.1418 C   0  0  0  0  0  0  0  0  0  0  0  0
  -27.5005  -23.9240   26.7146 C   0  0  0  0  0  0  0  0  0  0  0  0
  -30.4424  -20.2221   22.4631 C   0  0  0  0  0  0  0  0  0  0  0  0
  -18.5045  -29.3594   25.8523 C   0  0  0  0  0  0  0  0  0  0  0  0
  -23.3501  -25.4613   22.7152 C   0  0  0  0  0  0  0  0  0  0  0  0
  -25.8237  -26.4515   23.9980 C   0  0  0  0  0  0  0  0  0  0  0  0
  -19.8791  -29.0601   26.4450 C   0  0  0  0  0  0  0  0  0  0  0  0
  -31.8602  -17.3950   24.0984 C   0  0  0  0  0  0  0  0  0  0  0  0
  -20.9779  -29.6659   25.5775 C   0  0  0  0  0  0  0  0  0  0  0  0
  -31.2115  -16.2035   23.3903 C   0  0  0  0  0  0  0  0  0  0  0  0
  -30.8851  -18.5603   24.2567 C   0  0  0  0  0  0  0  0  0  0  0  0
  -29.5816  -17.8033   22.3081 C   0  0  0  0  0  0  0  0  0  0  0  0
  -20.9629  -29.0633   24.1675 C   0  0  1  0  0  0  0  0  0  0  0  0
  -23.3365  -26.0977   24.1017 C   0  0  1  0  0  0  0  0  0  0  0  0
  -30.5443  -16.6290   22.0676 C   0  0  2  0  0  0  0  0  0  0  0  0
  -32.3230  -24.0578   18.9227 C   0  0  0  0  0  0  0  0  0  0  0  0
  -32.3618  -21.6024   20.4459 C   0  0  0  0  0  0  0  0  0  0  0  0
  -29.0918  -22.4249   27.9465 C   0  0  0  0  0  0  0  0  0  0  0  0
  -26.1327  -22.4519   19.9988 C   0  0  0  0  0  0  0  0  0  0  0  0
  -27.2166  -21.4973   22.0603 C   0  0  0  0  0  0  0  0  0  0  0  0
  -27.0879  -20.1566   19.9705 C   0  0  0  0  0  0  0  0  0  0  0  0
  -25.5662  -28.3781   27.4466 C   0  0  0  0  0  0  0  0  0  0  0  0
  -27.4147  -27.1142   28.5664 C   0  0  0  0  0  0  0  0  0  0  0  0
  -25.0374  -26.5362   29.0535 C   0  0  0  0  0  0  0  0  0  0  0  0
  -26.1859  -21.4835   25.6781 C   0  0  0  0  0  0  0  0  0  0  0  0
  -29.7767  -25.2833   18.1956 C   0  0  0  0  0  0  0  0  0  0  0  0
  -30.1032  -26.5300   19.0206 C   0  0  0  0  0  0  0  0  0  0  0  0
  -29.0974  -26.7976   20.1342 C   0  0  0  0  0  0  0  0  0  1  0  0
  -26.0287  -25.9187   26.8112 C   0  0  1  0  0  0  0  0  0  0  0  0
  -27.7001  -22.5590   27.3481 C   0  0  2  0  0  0  0  0  0  0  0  0
  -27.3365  -21.6030   20.5094 C   0  0  0  0  0  0  0  0  0  0  0  0
  -26.0092  -26.9866   27.9411 C   0  0  0  0  0  0  0  0  0  0  0  0
  -28.5577  -15.2335   21.6347 N   0  0  0  0  0  0  0  0  0  0  0  0
  -29.8580  -15.4617   21.3831 N   0  0  0  0  0  0  0  0  0  0  0  0
  -24.6397  -26.0327   24.7663 N   0  0  0  0  0  0  0  0  0  0  0  0
  -30.2955  -18.9109   22.9628 N   0  0  0  0  0  0  0  0  0  0  0  0
  -31.7111  -14.6605   20.1444 N   0  0  0  0  0  0  0  0  0  0  0  0
  -28.3937  -11.8111   19.0168 N   0  0  0  0  0  0  0  0  0  0  0  0
  -29.8681  -20.4291   21.2093 N   0  0  0  0  0  0  0  0  0  0  0  0
  -21.5683  -27.7488   24.1732 N   0  0  0  0  0  0  0  0  0  0  0  0
  -26.4183  -24.5851   27.2561 N   0  0  0  0  0  0  0  0  0  0  0  0
  -27.5202  -21.4847   26.3311 N   0  3  0  0  0  0  0  0  0  0  0  0
  -30.6088  -12.3102   18.6960 O   0  0  0  0  0  0  0  0  0  0  0  0
  -23.7914  -28.4107   23.9678 O   0  0  0  0  0  0  0  0  0  0  0  0
  -23.7113  -25.4125   26.8131 O   0  0  0  0  0  0  0  0  0  0  0  0
  -28.2336  -24.3618   25.8306 O   0  0  0  0  0  0  0  0  0  0  0  0
  -31.0577  -21.0897   23.0882 O   0  0  0  0  0  0  0  0  0  0  0  0
  -23.1434  -11.9695   20.8728 O   0  0  0  0  0  0  0  0  0  0  0  0
  -27.8044  -26.9631   19.5536 O   0  0  0  0  0  0  0  0  0  1  0  0
  -22.6897   -6.4878   21.2589 F   0  0  0  0  0  0  0  0  0  0  0  0
  -21.7744  -10.8040   22.9729 F   0  0  0  0  0  0  0  0  0  0  0  0
  1  2  1  0  0  0  0
  1  5  2  0  0  0  0
  2  6  2  0  0  0  0
  3  8  2  0  0  0  0
  3 16  1  0  0  0  0
  4  9  1  0  0  0  0
  4 16  2  0  0  0  0
  5 18  1  0  0  0  0
  6 20  1  0  0  0  0
  7 10  2  0  0  0  0
  7 19  1  0  0  0  0
  8 27  1  0  0  0  0
  9 27  2  0  0  0  0
 10 28  1  0  0  0  0
 11 12  2  0  0  0  0
 11 29  1  0  0  0  0
 12 30  1  0  0  0  0
 13 21  1  0  0  0  0
 13 28  2  0  0  0  0
 14 22  1  0  0  0  0
 14 23  2  0  0  0  0
 15 30  2  0  0  0  0
 15 31  1  0  0  0  0
 16 32  1  0  0  0  0
 17 32  1  0  0  0  0
 17 33  2  0  0  0  0
 17 34  1  0  0  0  0
 18 20  2  0  0  0  0
 18 39  1  0  0  0  0
 19 21  2  0  0  0  0
 19 40  1  0  0  0  0
 20 48  1  0  0  0  0
 21 41  1  0  0  0  0
 22 24  2  0  0  0  0
 22 61  1  0  0  0  0
 23 26  1  0  0  0  0
 23 66  1  0  0  0  0
 24 25  1  0  0  0  0
 24 51  1  0  0  0  0
 25 26  2  0  0  0  0
 25 52  1  0  0  0  0
 26 74  1  0  0  0  0
 27 83  1  0  0  0  0
 28 84  1  0  0  0  0
 29 31  2  0  0  0  0
 29 83  1  0  0  0  0
 30 85  1  0  0  0  0
 31 86  1  0  0  0  0
 32 68  2  0  0  0  0
 33 69  1  0  0  0  0
 33 72  1  0  0  0  0
 34 73  1  0  0  0  0
 34 78  2  0  0  0  0
 35 49  1  0  0  0  0
 35 75  1  0  0  0  0
 35 79  2  0  0  0  0
 36 64  1  0  0  0  0
 36 70  1  0  0  0  0
 36 80  2  0  0  0  0
 37 65  1  0  0  0  0
 37 76  1  0  0  0  0
 37 81  2  0  0  0  0
 38 71  1  0  0  0  0
 38 74  1  0  0  0  0
 38 82  2  0  0  0  0
 39 42  1  0  0  0  0
 40 49  1  0  0  0  0
 41 70  1  0  0  0  0
 42 44  1  0  0  0  0
 43 45  1  0  0  0  0
 43 46  1  0  0  0  0
 44 48  1  0  0  0  0
 45 50  1  0  0  0  0
 46 71  1  0  0  0  0
 47 50  1  0  0  0  0
 47 71  1  0  0  0  0
 48 75  1  0  0  0  0
 49 70  1  0  0  0  0
 50 69  1  0  0  0  0
 53 65  1  0  0  0  0
 54 66  1  0  0  0  0
 55 66  1  0  0  0  0
 56 66  1  0  0  0  0
 57 67  1  0  0  0  0
 58 67  1  0  0  0  0
 59 67  1  0  0  0  0
 60 77  1  0  0  0  0
 61 62  1  0  0  0  0
 62 63  1  0  0  0  0
 63 84  1  0  0  0  0
 64 67  1  0  0  0  0
 64 76  1  0  0  0  0
 65 77  1  0  0  0  0
 68 69  1  0  0  0  0
M  CHG  1  77   1
M  ISO  4  38 100  63 101  74 100  84 101
M  END
> <Batch ID>
0019

> <Smiles>
CNC(C)C(=O)NC(C(=O)N1Cc2cc([101O:1][101CH2:1]CCc3cc(C(C)(C)C)c([100NH:0][100C:0](=O)N4CCCC(n5nc(-c6ccc(Oc7ccc(F)cc7F)cc6)c(C(N)=O)c5N)C4)c(C)c3C)ccc2CC1C(=O)NC1CCCc2ccccc21)C(C)(C)C

> <Shape>
0.258

> <Color>
0.082

> <Negative vol penalty>
0.000

$$$$

  -OEChem-04052316073D

 84 92  0     1  0  0  0  0  0999 V2000
  -22.0106  -28.2513   19.2929 C   0  0  0  0  0  0  0  0  0  0  0  0
  -22.8428  -27.1826   18.9755 C   0  0  0  0  0  0  0  0  0  0  0  0
  -20.2600  -22.1512   21.9512 C   0  0  0  0  0  0  0  0  0  0  0  0
  -22.2247  -22.4589   20.5792 C   0  0  0  0  0  0  0  0  0  0  0  0
  -22.5501  -29.4151   19.8392 C   0  0  0  0  0  0  0  0  0  0  0  0
  -24.2152  -27.2775   19.2031 C   0  0  0  0  0  0  0  0  0  0  0  0
  -26.1200  -23.1094   21.3580 C   0  0  0  0  0  0  0  0  0  0  0  0
  -20.3849  -23.4578   22.4231 C   0  0  0  0  0  0  0  0  0  0  0  0
  -22.3496  -23.7655   21.0511 C   0  0  0  0  0  0  0  0  0  0  0  0
  -26.3406  -22.0090   20.5309 C   0  0  0  0  0  0  0  0  0  0  0  0
  -19.9770  -26.8310   23.7156 C   0  0  0  0  0  0  0  0  0  0  0  0
  -18.8226  -27.6114   23.7772 C   0  0  0  0  0  0  0  0  0  0  0  0
  -28.6833  -22.5726   20.4161 C   0  0  0  0  0  0  0  0  0  0  0  0
  -18.5260  -27.3608   21.3926 C   0  0  0  0  0  0  0  0  0  0  0  0
  -21.1799  -21.6517   21.0292 C   0  0  0  0  0  0  0  0  0  0  0  0
  -20.3305  -19.8709   19.4121 C   0  0  0  0  0  0  0  0  0  0  0  0
  -23.9286  -29.5207   20.0826 C   0  0  0  0  0  0  0  0  0  0  0  0
  -27.1792  -23.9574   21.7122 C   0  0  0  0  0  0  0  0  0  0  0  0
  -24.7738  -28.4444   19.7519 C   0  0  0  0  0  0  0  0  0  0  0  0
  -28.4740  -23.6817   21.2500 C   0  0  0  0  0  0  0  0  0  0  0  0
  -27.6350  -17.2267   18.7606 C   0  0  0  0  0  0  0  0  0  0  0  0
  -27.8314  -16.2012   19.7161 C   0  0  0  0  0  0  0  0  0  0  0  0
  -21.4297  -24.2650   21.9731 C   0  0  0  0  0  0  0  0  0  0  0  0
  -27.6219  -21.7421   20.0574 C   0  0  0  0  0  0  0  0  0  0  0  0
  -20.4060  -26.3154   22.4925 C   0  0  0  0  0  0  0  0  0  0  0  0
  -18.0971  -27.8763   22.6157 C   0  0  0  0  0  0  0  0  0  0  0  0
  -19.6805  -26.5803   21.3310 C   0  0  0  0  0  0  0  0  0  0  0  0
  -21.0517  -20.3019   20.5417 C   0  0  0  0  0  0  0  0  0  0  0  0
  -28.7961  -17.9639   18.7473 C   0  0  0  0  0  0  0  0  0  0  0  0
  -29.0987  -16.3847   20.2184 C   0  0  0  0  0  0  0  0  0  0  0  0
  -20.5224  -18.5112   19.3805 C   0  0  0  0  0  0  0  0  0  0  0  0
  -19.5566  -20.6316   18.4751 C   0  0  0  0  0  0  0  0  0  0  0  0
  -27.8407  -27.0323   21.2531 C   0  0  0  0  0  0  0  0  0  0  0  0
  -30.3501  -26.3823   23.2032 C   0  0  0  0  0  0  0  0  0  0  0  0
  -32.4967  -24.0600   24.4861 C   0  0  0  0  0  0  0  0  0  0  0  0
  -24.8413  -14.9523   21.5093 C   0  0  0  0  0  0  0  0  0  0  0  0
  -24.4718  -30.8166   20.6306 C   0  0  0  0  0  0  0  0  0  0  0  0
  -26.9295  -25.1249   22.6270 C   0  0  0  0  0  0  0  0  0  0  0  0
  -29.6488  -24.5495   21.6175 C   0  0  0  0  0  0  0  0  0  0  0  0
  -25.8875  -30.6960   21.1888 C   0  0  0  0  0  0  0  0  0  0  0  0
  -21.3642  -14.7806   22.2554 C   0  0  0  0  0  0  0  0  0  0  0  0
  -26.7801  -29.9285   20.2188 C   0  0  0  0  0  0  0  0  0  0  0  0
  -20.8247  -16.1373   21.7989 C   0  0  0  0  0  0  0  0  0  0  0  0
  -22.7629  -14.9026   22.8561 C   0  0  0  0  0  0  0  0  0  0  0  0
  -23.2106  -16.9363   21.5380 C   0  0  0  0  0  0  0  0  0  0  0  0
  -26.2644  -28.4999   20.0071 C   0  0  1  0  0  0  0  0  0  0  0  0
  -27.9888  -26.2161   22.5059 C   0  0  1  0  0  0  0  0  0  0  0  0
  -21.8253  -16.8562   20.8740 C   0  0  2  0  0  0  0  0  0  0  0  0
  -26.4304  -17.4629   17.9424 C   0  0  0  0  0  0  0  0  0  0  0  0
  -34.4652  -23.8356   26.0262 C   0  0  0  0  0  0  0  0  0  0  0  0
  -30.1371  -14.1727   20.8304 C   0  0  0  0  0  0  0  0  0  0  0  0
  -29.2060  -15.6657   22.6305 C   0  0  0  0  0  0  0  0  0  0  0  0
  -31.3407  -16.2444   21.4949 C   0  0  0  0  0  0  0  0  0  0  0  0
  -32.1665  -27.5507   21.0479 C   0  0  0  0  0  0  0  0  0  0  0  0
  -34.1076  -26.4555   22.1883 C   0  0  0  0  0  0  0  0  0  0  0  0
  -32.7769  -28.1921   23.3868 C   0  0  0  0  0  0  0  0  0  0  0  0
  -31.0159  -22.2540   26.3039 C   0  0  0  0  0  0  0  0  0  0  0  0
  -26.8746  -15.1457   20.0995 C   0  0  0  0  0  0  0  0  0  0  0  0
  -29.2443  -19.1779   17.9703 C   0  0  0  0  0  0  0  0  0  0  0  0
  -29.1775  -20.4550   18.8007 C   0  0  0  0  0  0  0  0  0  1  0  0
  -31.7681  -25.9066   22.9982 C   0  0  1  0  0  0  0  0  0  0  0  0
  -32.9498  -23.7844   25.9085 C   0  0  2  0  0  0  0  0  0  0  0  0
  -29.8998  -15.6717   21.2243 C   0  0  0  0  0  0  0  0  0  0  0  0
  -32.6825  -27.0108   22.3966 C   0  0  0  0  0  0  0  0  0  0  0  0
  -21.6563  -19.2974   21.1816 N   0  0  0  0  0  0  0  0  0  0  0  0
  -21.3156  -18.2217   20.4516 N   0  0  0  0  0  0  0  0  0  0  0  0
  -29.3525  -25.6828   22.5093 N   0  0  0  0  0  0  0  0  0  0  0  0
  -23.6632  -15.5919   21.9286 N   0  0  0  0  0  0  0  0  0  0  0  0
  -20.0882  -17.5470   18.5413 N   0  0  0  0  0  0  0  0  0  0  0  0
  -19.4641  -22.0184   18.6550 N   0  0  0  0  0  0  0  0  0  0  0  0
  -26.6170  -27.6631   21.1340 N   0  0  0  0  0  0  0  0  0  0  0  0
  -32.2178  -25.3959   24.2887 N   0  0  0  0  0  0  0  0  0  0  0  0
  -25.6350  -15.6728   20.6251 N   0  0  0  0  0  0  0  0  0  0  0  0
  -32.4896  -22.4364   26.3468 N   0  3  0  0  0  0  0  0  0  0  0  0
  -18.9510  -20.0952   17.5164 O   0  0  0  0  0  0  0  0  0  0  0  0
  -28.7685  -27.0871   20.4544 O   0  0  0  0  0  0  0  0  0  0  0  0
  -30.1347  -27.3348   23.9568 O   0  0  0  0  0  0  0  0  0  0  0  0
  -32.4032  -23.1790   23.6343 O   0  0  0  0  0  0  0  0  0  0  0  0
  -25.1595  -13.8206   21.8901 O   0  0  0  0  0  0  0  0  0  0  0  0
  -29.6935  -17.4571   19.6330 O   0  0  0  0  0  0  0  0  0  0  0  0
  -21.5518  -25.5401   22.4332 O   0  0  0  0  0  0  0  0  0  0  0  0
  -27.8399  -20.6691   19.2494 O   0  0  0  0  0  0  0  0  0  1  0  0
  -16.9877  -28.6246   22.6751 F   0  0  0  0  0  0  0  0  0  0  0  0
  -20.0870  -26.0868   20.1533 F   0  0  0  0  0  0  0  0  0  0  0  0
  1  2  1  0  0  0  0
  1  5  2  0  0  0  0
  2  6  2  0  0  0  0
  3  8  2  0  0  0  0
  3 15  1  0  0  0  0
  4  9  1  0  0  0  0
  4 15  2  0  0  0  0
  5 17  1  0  0  0  0
  6 19  1  0  0  0  0
  7 10  2  0  0  0  0
  7 18  1  0  0  0  0
  8 23  1  0  0  0  0
  9 23  2  0  0  0  0
 10 24  1  0  0  0  0
 11 12  2  0  0  0  0
 11 25  1  0  0  0  0
 12 26  1  0  0  0  0
 13 20  1  0  0  0  0
 13 24  2  0  0  0  0
 14 26  2  0  0  0  0
 14 27  1  0  0  0  0
 15 28  1  0  0  0  0
 16 28  1  0  0  0  0
 16 31  2  0  0  0  0
 16 32  1  0  0  0  0
 17 19  2  0  0  0  0
 17 37  1  0  0  0  0
 18 20  2  0  0  0  0
 18 38  1  0  0  0  0
 19 46  1  0  0  0  0
 20 39  1  0  0  0  0
 21 22  1  0  0  0  0
 21 29  2  0  0  0  0
 21 49  1  0  0  0  0
 22 30  2  0  0  0  0
 22 58  1  0  0  0  0
 23 81  1  0  0  0  0
 24 82  1  0  0  0  0
 25 27  2  0  0  0  0
 25 81  1  0  0  0  0
 26 83  1  0  0  0  0
 27 84  1  0  0  0  0
 28 65  2  0  0  0  0
 29 59  1  0  0  0  0
 29 80  1  0  0  0  0
 30 63  1  0  0  0  0
 30 80  1  0  0  0  0
 31 66  1  0  0  0  0
 31 69  1  0  0  0  0
 32 70  1  0  0  0  0
 32 75  2  0  0  0  0
 33 47  1  0  0  0  0
 33 71  1  0  0  0  0
 33 76  2  0  0  0  0
 34 61  1  0  0  0  0
 34 67  1  0  0  0  0
 34 77  2  0  0  0  0
 35 62  1  0  0  0  0
 35 72  1  0  0  0  0
 35 78  2  0  0  0  0
 36 68  1  0  0  0  0
 36 73  1  0  0  0  0
 36 79  2  0  0  0  0
 37 40  1  0  0  0  0
 38 47  1  0  0  0  0
 39 67  1  0  0  0  0
 40 42  1  0  0  0  0
 41 43  1  0  0  0  0
 41 44  1  0  0  0  0
 42 46  1  0  0  0  0
 43 48  1  0  0  0  0
 44 68  1  0  0  0  0
 45 48  1  0  0  0  0
 45 68  1  0  0  0  0
 46 71  1  0  0  0  0
 47 67  1  0  0  0  0
 48 66  1  0  0  0  0
 50 62  1  0  0  0  0
 51 63  1  0  0  0  0
 52 63  1  0  0  0  0
 53 63  1  0  0  0  0
 54 64  1  0  0  0  0
 55 64  1  0  0  0  0
 56 64  1  0  0  0  0
 57 74  1  0  0  0  0
 58 73  1  0  0  0  0
 59 60  1  0  0  0  0
 60 82  1  0  0  0  0
 61 64  1  0  0  0  0
 61 72  1  0  0  0  0
 62 74  1  0  0  0  0
 65 66  1  0  0  0  0
M  CHG  1  74   1
M  ISO  4  36 100  60 101  73 100  82 101
M  END
> <Batch ID>
0019

> <Smiles>
CNC(C)C(=O)NC(C(=O)N1Cc2cc([101O:1][101CH2:1]Cc3oc(C(C)(C)C)c(C[100NH:0][100C:0](=O)N4CCCC(n5nc(-c6ccc(Oc7ccc(F)cc7F)cc6)c(C(N)=O)c5N)C4)c3C)ccc2CC1C(=O)NC1CCCc2ccccc21)C(C)(C)C

> <Shape>
0.198

> <Color>
0.059

> <Negative vol penalty>
0.000

$$$$

  -OEChem-04052316073D

 81 89  0     1  0  0  0  0  0999 V2000
  -34.8459  -30.2866   20.9343 C   0  0  0  0  0  0  0  0  0  0  0  0
  -34.3836  -29.1175   21.5299 C   0  0  0  0  0  0  0  0  0  0  0  0
  -23.2150   -9.6517   20.2416 C   0  0  0  0  0  0  0  0  0  0  0  0
  -23.8588  -10.0417   22.5374 C   0  0  0  0  0  0  0  0  0  0  0  0
  -33.9822  -31.0636   20.1634 C   0  0  0  0  0  0  0  0  0  0  0  0
  -33.0568  -28.7253   21.3559 C   0  0  0  0  0  0  0  0  0  0  0  0
  -32.6107  -23.7898   20.3135 C   0  0  0  0  0  0  0  0  0  0  0  0
  -22.5206   -8.5064   20.6309 C   0  0  0  0  0  0  0  0  0  0  0  0
  -23.1644   -8.8964   22.9267 C   0  0  0  0  0  0  0  0  0  0  0  0
  -32.7260  -22.9006   21.3811 C   0  0  0  0  0  0  0  0  0  0  0  0
  -19.9561   -8.0080   23.5083 C   0  0  0  0  0  0  0  0  0  0  0  0
  -19.1451   -8.0969   24.6397 C   0  0  0  0  0  0  0  0  0  0  0  0
  -30.3226  -22.7186   21.4812 C   0  0  0  0  0  0  0  0  0  0  0  0
  -20.4474   -6.3657   25.7093 C   0  0  0  0  0  0  0  0  0  0  0  0
  -23.8842  -10.4194   21.1948 C   0  0  0  0  0  0  0  0  0  0  0  0
  -24.1000  -12.9148   20.7113 C   0  0  0  0  0  0  0  0  0  0  0  0
  -32.6468  -30.6757   19.9720 C   0  0  0  0  0  0  0  0  0  0  0  0
  -31.3480  -24.1591   19.8280 C   0  0  0  0  0  0  0  0  0  0  0  0
  -32.1740  -29.4986   20.5829 C   0  0  0  0  0  0  0  0  0  0  0  0
  -30.1941  -23.6107   20.4057 C   0  0  0  0  0  0  0  0  0  0  0  0
  -22.4952   -8.1287   21.9735 C   0  0  0  0  0  0  0  0  0  0  0  0
  -31.5818  -22.3671   21.9670 C   0  0  0  0  0  0  0  0  0  0  0  0
  -21.0127   -7.0979   23.4774 C   0  0  0  0  0  0  0  0  0  0  0  0
  -19.3908   -7.2758   25.7402 C   0  0  0  0  0  0  0  0  0  0  0  0
  -21.2584   -6.2767   24.5779 C   0  0  0  0  0  0  0  0  0  0  0  0
  -31.6108  -17.4318   22.3202 C   0  0  0  0  0  0  0  0  0  0  0  0
  -24.6022  -11.6022   20.7932 C   0  0  0  0  0  0  0  0  0  0  0  0
  -31.4682  -18.5784   23.1243 C   0  0  0  0  0  0  0  0  0  0  0  0
  -25.1684  -13.6653   20.2850 C   0  0  0  0  0  0  0  0  0  0  0  0
  -30.3261  -17.0980   21.9672 C   0  0  0  0  0  0  0  0  0  0  0  0
  -22.7852  -13.4113   20.9952 C   0  0  0  0  0  0  0  0  0  0  0  0
  -29.7437  -26.8939   19.6020 C   0  0  0  0  0  0  0  0  0  0  0  0
  -27.6145  -25.0597   17.9820 C   0  0  0  0  0  0  0  0  0  0  0  0
  -26.3379  -21.9533   17.3757 C   0  0  0  0  0  0  0  0  0  0  0  0
  -30.5575  -15.0444   20.5265 C   0  0  0  0  0  0  0  0  0  0  0  0
  -31.7382  -31.5728   19.1693 C   0  0  0  0  0  0  0  0  0  0  0  0
  -31.2414  -25.0988   18.6583 C   0  0  0  0  0  0  0  0  0  0  0  0
  -28.8158  -23.9594   19.9085 C   0  0  0  0  0  0  0  0  0  0  0  0
  -30.4462  -30.8914   18.7257 C   0  0  0  0  0  0  0  0  0  0  0  0
  -29.6887  -12.2464   18.5033 C   0  0  0  0  0  0  0  0  0  0  0  0
  -29.8156  -30.1334   19.8896 C   0  0  0  0  0  0  0  0  0  0  0  0
  -28.2466  -11.9374   18.9119 C   0  0  0  0  0  0  0  0  0  0  0  0
  -30.5300  -12.7033   19.6937 C   0  0  0  0  0  0  0  0  0  0  0  0
  -28.5219  -13.5104   20.8707 C   0  0  0  0  0  0  0  0  0  0  0  0
  -30.7482  -29.0269   20.3971 C   0  0  1  0  0  0  0  0  0  0  0  0
  -29.8905  -25.8032   18.5790 C   0  0  1  0  0  0  0  0  0  0  0  0
  -27.6190  -13.1084   19.6931 C   0  0  2  0  0  0  0  0  0  0  0  0
  -27.6039  -18.6797   21.1618 C   0  0  0  0  0  0  0  0  0  0  0  0
  -24.5783  -20.7750   16.0293 C   0  0  0  0  0  0  0  0  0  0  0  0
  -25.4701  -26.0751   19.9003 C   0  0  0  0  0  0  0  0  0  0  0  0
  -23.9997  -24.1964   19.1407 C   0  0  0  0  0  0  0  0  0  0  0  0
  -24.7477  -25.9300   17.5104 C   0  0  0  0  0  0  0  0  0  0  0  0
  -28.3555  -20.3250   15.9486 C   0  0  0  0  0  0  0  0  0  0  0  0
  -32.5522  -19.3849   23.7972 C   0  0  0  0  0  0  0  0  0  0  0  0
  -28.0824  -18.1087   22.4857 C   0  0  0  0  0  0  0  0  0  0  0  0
  -32.8588  -20.6796   23.0523 C   0  0  0  0  0  0  0  0  0  1  0  0
  -26.4128  -24.2286   18.3617 C   0  0  1  0  0  0  0  0  0  0  0  0
  -26.0297  -21.2264   16.0792 C   0  0  2  0  0  0  0  0  0  0  0  0
  -25.1834  -25.1023   18.7391 C   0  0  0  0  0  0  0  0  0  0  0  0
  -25.8896  -11.5202   20.4467 N   0  0  0  0  0  0  0  0  0  0  0  0
  -30.1935  -18.9484   23.2733 N   0  0  0  0  0  0  0  0  0  0  0  0
  -26.2052  -12.7907   20.1428 N   0  0  0  0  0  0  0  0  0  0  0  0
  -29.5234  -18.0290   22.5580 N   0  0  0  0  0  0  0  0  0  0  0  0
  -28.7636  -24.8873   18.7667 N   0  0  0  0  0  0  0  0  0  0  0  0
  -29.8755  -13.8177   20.3826 N   0  0  0  0  0  0  0  0  0  0  0  0
  -25.3127  -14.9815   20.0217 N   0  0  0  0  0  0  0  0  0  0  0  0
  -21.8064  -12.5040   21.4231 N   0  0  0  0  0  0  0  0  0  0  0  0
  -29.8232  -16.0405   21.1694 N   0  0  0  0  0  0  0  0  0  0  0  0
  -30.7042  -27.8832   19.5115 N   0  0  0  0  0  0  0  0  0  0  0  0
  -26.1784  -23.3169   17.2471 N   0  0  0  0  0  0  0  0  0  0  0  0
  -26.9005  -20.0251   15.9393 N   0  3  0  0  0  0  0  0  0  0  0  0
  -22.4828  -14.6208   20.8574 O   0  0  0  0  0  0  0  0  0  0  0  0
  -28.8260  -26.8425   20.4125 O   0  0  0  0  0  0  0  0  0  0  0  0
  -27.5388  -25.8281   17.0200 O   0  0  0  0  0  0  0  0  0  0  0  0
  -26.6818  -21.3696   18.4012 O   0  0  0  0  0  0  0  0  0  0  0  0
  -31.6981  -15.2083   20.0858 O   0  0  0  0  0  0  0  0  0  0  0  0
  -21.8174   -7.0113   22.3537 O   0  0  0  0  0  0  0  0  0  0  0  0
  -31.6915  -21.4994   23.0096 O   0  0  0  0  0  0  0  0  0  1  0  0
  -18.6128   -7.3624   26.8271 F   0  0  0  0  0  0  0  0  0  0  0  0
  -22.2727   -5.4013   24.5545 F   0  0  0  0  0  0  0  0  0  0  0  0
  -33.0594  -16.6610   21.9008 Cl  0  0  0  0  0  0  0  0  0  0  0  0
  1  2  1  0  0  0  0
  1  5  2  0  0  0  0
  2  6  2  0  0  0  0
  3  8  2  0  0  0  0
  3 15  1  0  0  0  0
  4  9  1  0  0  0  0
  4 15  2  0  0  0  0
  5 17  1  0  0  0  0
  6 19  1  0  0  0  0
  7 10  2  0  0  0  0
  7 18  1  0  0  0  0
  8 21  1  0  0  0  0
  9 21  2  0  0  0  0
 10 22  1  0  0  0  0
 11 12  2  0  0  0  0
 11 23  1  0  0  0  0
 12 24  1  0  0  0  0
 13 20  1  0  0  0  0
 13 22  2  0  0  0  0
 14 24  2  0  0  0  0
 14 25  1  0  0  0  0
 15 27  1  0  0  0  0
 16 27  1  0  0  0  0
 16 29  2  0  0  0  0
 16 31  1  0  0  0  0
 17 19  2  0  0  0  0
 17 36  1  0  0  0  0
 18 20  2  0  0  0  0
 18 37  1  0  0  0  0
 19 45  1  0  0  0  0
 20 38  1  0  0  0  0
 21 77  1  0  0  0  0
 22 78  1  0  0  0  0
 23 25  2  0  0  0  0
 23 77  1  0  0  0  0
 24 79  1  0  0  0  0
 25 80  1  0  0  0  0
 26 28  1  0  0  0  0
 26 30  2  0  0  0  0
 26 81  1  0  0  0  0
 27 60  2  0  0  0  0
 28 54  1  0  0  0  0
 28 61  2  0  0  0  0
 29 62  1  0  0  0  0
 29 66  1  0  0  0  0
 30 63  1  0  0  0  0
 30 68  1  0  0  0  0
 31 67  1  0  0  0  0
 31 72  2  0  0  0  0
 32 46  1  0  0  0  0
 32 69  1  0  0  0  0
 32 73  2  0  0  0  0
 33 57  1  0  0  0  0
 33 64  1  0  0  0  0
 33 74  2  0  0  0  0
 34 58  1  0  0  0  0
 34 70  1  0  0  0  0
 34 75  2  0  0  0  0
 35 65  1  0  0  0  0
 35 68  1  0  0  0  0
 35 76  2  0  0  0  0
 36 39  1  0  0  0  0
 37 46  1  0  0  0  0
 38 64  1  0  0  0  0
 39 41  1  0  0  0  0
 40 42  1  0  0  0  0
 40 43  1  0  0  0  0
 41 45  1  0  0  0  0
 42 47  1  0  0  0  0
 43 65  1  0  0  0  0
 44 47  1  0  0  0  0
 44 65  1  0  0  0  0
 45 69  1  0  0  0  0
 46 64  1  0  0  0  0
 47 62  1  0  0  0  0
 48 55  1  0  0  0  0
 49 58  1  0  0  0  0
 50 59  1  0  0  0  0
 51 59  1  0  0  0  0
 52 59  1  0  0  0  0
 53 71  1  0  0  0  0
 54 56  1  0  0  0  0
 55 63  1  0  0  0  0
 56 78  1  0  0  0  0
 57 59  1  0  0  0  0
 57 70  1  0  0  0  0
 58 71  1  0  0  0  0
 60 62  1  0  0  0  0
 61 63  1  0  0  0  0
M  CHG  1  71   1
M  ISO  4  35 100  56 101  68 100  78 101
M  END
> <Batch ID>
0019

> <Smiles>
CCn1nc(C[101CH2:1][101O:1]c2ccc3c(c2)CN(C(=O)C(NC(=O)C(C)NC)C(C)(C)C)C(C(=O)NC2CCCc4ccccc42)C3)c(Cl)c1[100NH:0][100C:0](=O)N1CCCC(n2nc(-c3ccc(Oc4ccc(F)cc4F)cc3)c(C(N)=O)c2N)C1

> <Shape>
0.244

> <Color>
0.191

> <Negative vol penalty>
0.000

$$$$

  -OEChem-04052316073D

 88 96  0     1  0  0  0  0  0999 V2000
  -23.6337   -8.7731   22.1170 C   0  0  0  0  0  0  0  0  0  0  0  0
  -24.4426   -9.7635   22.6648 C   0  0  0  0  0  0  0  0  0  0  0  0
  -27.3301  -28.3745   20.3135 C   0  0  0  0  0  0  0  0  0  0  0  0
  -25.6913  -26.6052   20.4585 C   0  0  0  0  0  0  0  0  0  0  0  0
  -23.0094   -8.9849   20.8885 C   0  0  0  0  0  0  0  0  0  0  0  0
  -24.6285  -10.9661   21.9839 C   0  0  0  0  0  0  0  0  0  0  0  0
  -24.2528  -14.9985   25.0242 C   0  0  0  0  0  0  0  0  0  0  0  0
  -26.3440  -29.2508   19.8605 C   0  0  0  0  0  0  0  0  0  0  0  0
  -24.7051  -27.4816   20.0056 C   0  0  0  0  0  0  0  0  0  0  0  0
  -25.3519  -15.2931   25.8297 C   0  0  0  0  0  0  0  0  0  0  0  0
  -21.6829  -29.3483   19.2312 C   0  0  0  0  0  0  0  0  0  0  0  0
  -20.4567  -29.3454   19.8959 C   0  0  0  0  0  0  0  0  0  0  0  0
  -26.0334  -16.9986   24.2657 C   0  0  0  0  0  0  0  0  0  0  0  0
  -30.6229  -16.2191   23.2812 C   0  0  0  0  0  0  0  0  0  0  0  0
  -21.5693  -29.9584   21.9510 C   0  0  0  0  0  0  0  0  0  0  0  0
  -27.0038  -27.0517   20.6125 C   0  0  0  0  0  0  0  0  0  0  0  0
  -28.3988  -25.9060   22.4150 C   0  0  0  0  0  0  0  0  0  0  0  0
  -23.1799  -10.1944   20.1967 C   0  0  0  0  0  0  0  0  0  0  0  0
  -24.0414  -15.6954   23.8258 C   0  0  0  0  0  0  0  0  0  0  0  0
  -24.0069  -11.1938   20.7443 C   0  0  0  0  0  0  0  0  0  0  0  0
  -24.9295  -16.7126   23.4480 C   0  0  0  0  0  0  0  0  0  0  0  0
  -30.4706  -16.3689   21.9029 C   0  0  0  0  0  0  0  0  0  0  0  0
  -30.9204  -17.3272   24.0746 C   0  0  0  0  0  0  0  0  0  0  0  0
  -30.9133  -18.7348   22.1110 C   0  0  0  0  0  0  0  0  0  0  0  0
  -25.0315  -28.8044   19.7066 C   0  0  0  0  0  0  0  0  0  0  0  0
  -26.2440  -16.2913   25.4491 C   0  0  0  0  0  0  0  0  0  0  0  0
  -22.8524  -29.6561   19.9264 C   0  0  0  0  0  0  0  0  0  0  0  0
  -30.6158  -17.6267   21.3177 C   0  0  0  0  0  0  0  0  0  0  0  0
  -20.3999  -29.6505   21.2558 C   0  0  0  0  0  0  0  0  0  0  0  0
  -22.7956  -29.9612   21.2863 C   0  0  0  0  0  0  0  0  0  0  0  0
  -31.0656  -18.5850   23.4895 C   0  0  0  0  0  0  0  0  0  0  0  0
  -28.0221  -26.1458   21.0799 C   0  0  0  0  0  0  0  0  0  0  0  0
  -29.4002  -24.9701   22.3264 C   0  0  0  0  0  0  0  0  0  0  0  0
  -27.8891  -26.4781   23.6269 C   0  0  0  0  0  0  0  0  0  0  0  0
  -23.9088  -14.8875   20.7545 C   0  0  0  0  0  0  0  0  0  0  0  0
  -23.0402  -17.9900   20.3776 C   0  0  0  0  0  0  0  0  0  0  0  0
  -23.0862  -21.1794   21.5911 C   0  0  0  0  0  0  0  0  0  0  0  0
  -31.5016  -20.2713   20.2033 C   0  0  0  0  0  0  0  0  0  0  0  0
  -22.5225  -10.3590   18.8494 C   0  0  0  0  0  0  0  0  0  0  0  0
  -22.8363  -15.3839   22.9814 C   0  0  0  0  0  0  0  0  0  0  0  0
  -24.7362  -17.5040   22.1812 C   0  0  0  0  0  0  0  0  0  0  0  0
  -22.4706  -11.8074   18.3699 C   0  0  0  0  0  0  0  0  0  0  0  0
  -31.9573  -23.2521   18.3100 C   0  0  0  0  0  0  0  0  0  0  0  0
  -23.8241  -12.4831   18.5649 C   0  0  0  0  0  0  0  0  0  0  0  0
  -31.0051  -24.2509   18.9717 C   0  0  0  0  0  0  0  0  0  0  0  0
  -31.3702  -21.8420   18.2822 C   0  0  0  0  0  0  0  0  0  0  0  0
  -29.9630  -22.3320   20.2440 C   0  0  0  0  0  0  0  0  0  0  0  0
  -24.2131  -12.5213   20.0477 C   0  0  1  0  0  0  0  0  0  0  0  0
  -23.0023  -15.8055   21.5247 C   0  0  1  0  0  0  0  0  0  0  0  0
  -30.5380  -23.7536   20.3538 C   0  0  2  0  0  0  0  0  0  0  0  0
  -30.1518  -15.1702   21.0708 C   0  0  0  0  0  0  0  0  0  0  0  0
  -29.1918  -18.1816   17.9846 C   0  0  0  0  0  0  0  0  0  0  0  0
  -32.3395  -16.2778   25.8691 C   0  0  0  0  0  0  0  0  0  0  0  0
  -22.3251  -23.5069   21.0427 C   0  0  0  0  0  0  0  0  0  0  0  0
  -25.2896  -18.2409   18.3314 C   0  0  0  0  0  0  0  0  0  0  0  0
  -25.1021  -20.7293   18.5338 C   0  0  0  0  0  0  0  0  0  0  0  0
  -23.1662  -19.3985   17.6946 C   0  0  0  0  0  0  0  0  0  0  0  0
  -29.7337  -17.1785   27.7471 C   0  0  0  0  0  0  0  0  0  0  0  0
  -29.7132  -15.0627   26.4303 C   0  0  0  0  0  0  0  0  0  0  0  0
  -21.4066  -21.3279   24.0233 C   0  0  0  0  0  0  0  0  0  0  0  0
  -29.1516  -18.0501   19.4922 C   0  0  0  0  0  0  0  0  0  0  0  0
  -28.4890  -17.0654   25.5777 C   0  0  0  0  0  0  0  0  0  1  0  0
  -31.0781  -17.1137   25.5788 C   0  0  2  0  0  0  0  0  0  0  0  0
  -23.7784  -19.2862   20.1450 C   0  0  1  0  0  0  0  0  0  0  0  0
  -21.9837  -22.2094   21.7587 C   0  0  2  0  0  0  0  0  0  0  0  0
  -24.3391  -19.3977   18.6991 C   0  0  0  0  0  0  0  0  0  0  0  0
  -29.7751  -16.5989   26.3112 C   0  0  0  0  0  0  0  0  0  0  0  0
  -28.7269  -25.4208   20.2072 N   0  0  0  0  0  0  0  0  0  0  0  0
  -29.5565  -24.7163   20.9955 N   0  0  0  0  0  0  0  0  0  0  0  0
  -23.5464  -17.1578   21.3861 N   0  0  0  0  0  0  0  0  0  0  0  0
  -30.9538  -21.4366   19.6265 N   0  0  0  0  0  0  0  0  0  0  0  0
  -30.1534  -24.3477   23.2579 N   0  0  0  0  0  0  0  0  0  0  0  0
  -26.8598  -27.4251   23.5374 N   0  0  0  0  0  0  0  0  0  0  0  0
  -31.0556  -20.0040   21.4972 N   0  0  0  0  0  0  0  0  0  0  0  0
  -23.4899  -13.5708   20.7331 N   0  0  0  0  0  0  0  0  0  0  0  0
  -22.8540  -20.3538   20.5115 N   0  0  0  0  0  0  0  0  0  0  0  0
  -21.7719  -22.5111   23.2027 N   0  3  0  0  0  0  0  0  0  0  0  0
  -28.3445  -26.1710   24.7546 O   0  0  0  0  0  0  0  0  0  0  0  0
  -24.9131  -15.3404   20.2180 O   0  0  0  0  0  0  0  0  0  0  0  0
  -22.0468  -17.7289   19.6946 O   0  0  0  0  0  0  0  0  0  0  0  0
  -24.0583  -21.1162   22.3406 O   0  0  0  0  0  0  0  0  0  0  0  0
  -32.3277  -19.5776   19.6046 O   0  0  0  0  0  0  0  0  0  0  0  0
  -24.0690  -29.6593   19.2648 O   0  0  0  0  0  0  0  0  0  0  0  0
  -27.3180  -16.5804   26.2333 O   0  0  0  0  0  0  0  0  0  1  0  0
  -30.4643  -17.7657   19.9685 O   0  0  0  0  0  0  0  0  0  0  0  0
  -19.2220  -29.6492   21.8937 F   0  0  0  0  0  0  0  0  0  0  0  0
  -23.9156  -30.2589   21.9592 F   0  0  0  0  0  0  0  0  0  0  0  0
  -31.4358  -19.9570   24.4835 Cl  0  0  0  0  0  0  0  0  0  0  0  0
  1  2  1  0  0  0  0
  1  5  2  0  0  0  0
  2  6  2  0  0  0  0
  3  8  2  0  0  0  0
  3 16  1  0  0  0  0
  4  9  1  0  0  0  0
  4 16  2  0  0  0  0
  5 18  1  0  0  0  0
  6 20  1  0  0  0  0
  7 10  2  0  0  0  0
  7 19  1  0  0  0  0
  8 25  1  0  0  0  0
  9 25  2  0  0  0  0
 10 26  1  0  0  0  0
 11 12  2  0  0  0  0
 11 27  1  0  0  0  0
 12 29  1  0  0  0  0
 13 21  1  0  0  0  0
 13 26  2  0  0  0  0
 14 22  2  0  0  0  0
 14 23  1  0  0  0  0
 15 29  2  0  0  0  0
 15 30  1  0  0  0  0
 16 32  1  0  0  0  0
 17 32  1  0  0  0  0
 17 33  2  0  0  0  0
 17 34  1  0  0  0  0
 18 20  2  0  0  0  0
 18 39  1  0  0  0  0
 19 21  2  0  0  0  0
 19 40  1  0  0  0  0
 20 48  1  0  0  0  0
 21 41  1  0  0  0  0
 22 28  1  0  0  0  0
 22 51  1  0  0  0  0
 23 31  2  0  0  0  0
 23 63  1  0  0  0  0
 24 28  2  0  0  0  0
 24 31  1  0  0  0  0
 24 74  1  0  0  0  0
 25 83  1  0  0  0  0
 26 84  1  0  0  0  0
 27 30  2  0  0  0  0
 27 83  1  0  0  0  0
 28 85  1  0  0  0  0
 29 86  1  0  0  0  0
 30 87  1  0  0  0  0
 31 88  1  0  0  0  0
 32 68  2  0  0  0  0
 33 69  1  0  0  0  0
 33 72  1  0  0  0  0
 34 73  1  0  0  0  0
 34 78  2  0  0  0  0
 35 49  1  0  0  0  0
 35 75  1  0  0  0  0
 35 79  2  0  0  0  0
 36 64  1  0  0  0  0
 36 70  1  0  0  0  0
 36 80  2  0  0  0  0
 37 65  1  0  0  0  0
 37 76  1  0  0  0  0
 37 81  2  0  0  0  0
 38 71  1  0  0  0  0
 38 74  1  0  0  0  0
 38 82  2  0  0  0  0
 39 42  1  0  0  0  0
 40 49  1  0  0  0  0
 41 70  1  0  0  0  0
 42 44  1  0  0  0  0
 43 45  1  0  0  0  0
 43 46  1  0  0  0  0
 44 48  1  0  0  0  0
 45 50  1  0  0  0  0
 46 71  1  0  0  0  0
 47 50  1  0  0  0  0
 47 71  1  0  0  0  0
 48 75  1  0  0  0  0
 49 70  1  0  0  0  0
 50 69  1  0  0  0  0
 52 61  1  0  0  0  0
 53 63  1  0  0  0  0
 54 65  1  0  0  0  0
 55 66  1  0  0  0  0
 56 66  1  0  0  0  0
 57 66  1  0  0  0  0
 58 67  1  0  0  0  0
 59 67  1  0  0  0  0
 60 77  1  0  0  0  0
 61 85  1  0  0  0  0
 62 67  1  0  0  0  0
 62 84  1  0  0  0  0
 63 67  1  0  0  0  0
 64 66  1  0  0  0  0
 64 76  1  0  0  0  0
 65 77  1  0  0  0  0
 68 69  1  0  0  0  0
M  CHG  1  77   1
M  ISO  4  38 100  62 101  74 100  84 101
M  END
> <Batch ID>
0019

> <Smiles>
CCOc1c(C)cc(C(C)C(C)(C)[101CH2:1][101O:1]c2ccc3c(c2)CN(C(=O)C(NC(=O)C(C)NC)C(C)(C)C)C(C(=O)NC2CCCc4ccccc42)C3)c(Cl)c1[100NH:0][100C:0](=O)N1CCCC(n2nc(-c3ccc(Oc4ccc(F)cc4F)cc3)c(C(N)=O)c2N)C1

> <Shape>
0.196

> <Color>
0.059

> <Negative vol penalty>
0.000

$$$$

  -OEChem-04052316073D

 87 95  0     1  0  0  0  0  0999 V2000
  -29.2302  -22.0916   16.4191 C   0  0  0  0  0  0  0  0  0  0  0  0
  -27.9751  -21.9734   17.0054 C   0  0  0  0  0  0  0  0  0  0  0  0
  -27.9718  -17.1388   19.0934 C   0  0  0  0  0  0  0  0  0  0  0  0
  -27.1840  -17.5895   21.3324 C   0  0  0  0  0  0  0  0  0  0  0  0
  -30.0682  -23.1440   16.7814 C   0  0  0  0  0  0  0  0  0  0  0  0
  -27.5529  -22.9143   17.9453 C   0  0  0  0  0  0  0  0  0  0  0  0
  -22.8927  -22.5952   19.4891 C   0  0  0  0  0  0  0  0  0  0  0  0
  -28.5404  -18.4112   19.0373 C   0  0  0  0  0  0  0  0  0  0  0  0
  -27.7527  -18.8619   21.2763 C   0  0  0  0  0  0  0  0  0  0  0  0
  -22.4466  -21.5804   20.3348 C   0  0  0  0  0  0  0  0  0  0  0  0
  -29.3077  -22.0962   21.8592 C   0  0  0  0  0  0  0  0  0  0  0  0
  -30.0313  -22.5334   22.9686 C   0  0  0  0  0  0  0  0  0  0  0  0
  -22.4627  -23.1254   22.1873 C   0  0  0  0  0  0  0  0  0  0  0  0
  -19.7300  -18.2849   22.9989 C   0  0  0  0  0  0  0  0  0  0  0  0
  -31.5496  -20.6717   22.7119 C   0  0  0  0  0  0  0  0  0  0  0  0
  -27.2935  -16.7279   20.2409 C   0  0  0  0  0  0  0  0  0  0  0  0
  -27.3152  -14.2289   20.7526 C   0  0  0  0  0  0  0  0  0  0  0  0
  -29.6602  -24.0908   17.7355 C   0  0  0  0  0  0  0  0  0  0  0  0
  -23.1379  -23.8820   19.9893 C   0  0  0  0  0  0  0  0  0  0  0  0
  -28.3747  -23.9972   18.3065 C   0  0  0  0  0  0  0  0  0  0  0  0
  -22.9094  -24.1553   21.3455 C   0  0  0  0  0  0  0  0  0  0  0  0
  -21.0806  -18.6332   22.9895 C   0  0  0  0  0  0  0  0  0  0  0  0
  -19.2409  -17.4145   23.9731 C   0  0  0  0  0  0  0  0  0  0  0  0
  -21.9422  -18.1110   23.9542 C   0  0  0  0  0  0  0  0  0  0  0  0
  -21.4532  -17.2406   24.9283 C   0  0  0  0  0  0  0  0  0  0  0  0
  -20.1025  -16.8924   24.9377 C   0  0  0  0  0  0  0  0  0  0  0  0
  -28.4309  -19.2728   20.1287 C   0  0  0  0  0  0  0  0  0  0  0  0
  -22.2343  -21.8446   21.6846 C   0  0  0  0  0  0  0  0  0  0  0  0
  -29.7050  -20.9467   21.1762 C   0  0  0  0  0  0  0  0  0  0  0  0
  -31.1523  -21.8212   23.3950 C   0  0  0  0  0  0  0  0  0  0  0  0
  -30.8259  -20.2345   21.6025 C   0  0  0  0  0  0  0  0  0  0  0  0
  -26.7053  -15.4139   20.2992 C   0  0  0  0  0  0  0  0  0  0  0  0
  -26.3464  -13.2664   20.6064 C   0  0  0  0  0  0  0  0  0  0  0  0
  -28.6392  -14.0171   21.2606 C   0  0  0  0  0  0  0  0  0  0  0  0
  -25.6976  -25.7542   20.2062 C   0  0  0  0  0  0  0  0  0  0  0  0
  -23.5359  -27.9276   21.2673 C   0  0  0  0  0  0  0  0  0  0  0  0
  -20.5070  -28.5300   22.7197 C   0  0  0  0  0  0  0  0  0  0  0  0
  -20.6157  -12.5871   21.0668 C   0  0  0  0  0  0  0  0  0  0  0  0
  -30.6042  -25.2142   18.0848 C   0  0  0  0  0  0  0  0  0  0  0  0
  -23.5933  -24.9725   19.0587 C   0  0  0  0  0  0  0  0  0  0  0  0
  -23.1383  -25.5253   21.9279 C   0  0  0  0  0  0  0  0  0  0  0  0
  -30.2522  -25.8986   19.4016 C   0  0  0  0  0  0  0  0  0  0  0  0
  -22.2278  -12.8508   17.9033 C   0  0  0  0  0  0  0  0  0  0  0  0
  -28.7733  -26.2548   19.4233 C   0  0  0  0  0  0  0  0  0  0  0  0
  -23.6035  -13.4284   18.2408 C   0  0  0  0  0  0  0  0  0  0  0  0
  -21.1360  -13.4338   18.7977 C   0  0  0  0  0  0  0  0  0  0  0  0
  -22.7707  -13.8979   20.5827 C   0  0  0  0  0  0  0  0  0  0  0  0
  -27.9062  -24.9913   19.3537 C   0  0  1  0  0  0  0  0  0  0  0  0
  -24.3030  -26.1149   19.7789 C   0  0  1  0  0  0  0  0  0  0  0  0
  -23.9127  -13.2985   19.7444 C   0  0  2  0  0  0  0  0  0  0  0  0
  -17.7893  -17.0601   23.9577 C   0  0  0  0  0  0  0  0  0  0  0  0
  -23.3904  -18.4865   23.9410 C   0  0  0  0  0  0  0  0  0  0  0  0
  -22.3812  -16.6821   25.9616 C   0  0  0  0  0  0  0  0  0  0  0  0
  -19.0316  -30.4069   23.4929 C   0  0  0  0  0  0  0  0  0  0  0  0
  -18.5321  -14.0982   26.9000 C   0  0  0  0  0  0  0  0  0  0  0  0
  -25.3095  -28.3078   23.7208 C   0  0  0  0  0  0  0  0  0  0  0  0
  -23.3782  -29.4240   24.8576 C   0  0  0  0  0  0  0  0  0  0  0  0
  -24.3513  -30.4214   22.7886 C   0  0  0  0  0  0  0  0  0  0  0  0
  -18.3499  -27.7612   20.8449 C   0  0  0  0  0  0  0  0  0  0  0  0
  -21.5812  -19.5711   21.9307 C   0  0  0  0  0  0  0  0  0  1  0  0
  -19.2619  -12.7220   24.0968 C   0  0  0  0  0  0  0  0  0  0  0  0
  -19.9689  -13.8628   24.8416 C   0  0  0  0  0  0  0  0  0  0  0  0
  -20.2416  -11.7917   23.3877 C   0  0  0  0  0  0  0  0  0  0  0  0
  -22.9756  -28.3071   22.6167 C   0  0  1  0  0  0  0  0  0  0  0  0
  -19.3794  -29.4741   22.3433 C   0  0  2  0  0  0  0  0  0  0  0  0
  -18.9866  -14.7627   25.6045 C   0  0  2  0  0  0  0  0  0  0  0  0
  -24.0011  -29.0887   23.4856 C   0  0  0  0  0  0  0  0  0  0  0  0
  -25.4465  -15.2239   19.8951 N   0  0  0  0  0  0  0  0  0  0  0  0
  -25.2576  -13.9083   20.0940 N   0  0  0  0  0  0  0  0  0  0  0  0
  -23.5895  -26.5565   20.9789 N   0  0  0  0  0  0  0  0  0  0  0  0
  -21.4897  -13.2770   20.2106 N   0  0  0  0  0  0  0  0  0  0  0  0
  -26.3282  -11.9420   20.8674 N   0  0  0  0  0  0  0  0  0  0  0  0
  -29.5064  -15.1150   21.3439 N   0  0  0  0  0  0  0  0  0  0  0  0
  -19.6049  -16.0096   25.9242 N   0  0  0  0  0  0  0  0  0  0  0  0
  -26.5249  -25.3765   19.1658 N   0  0  0  0  0  0  0  0  0  0  0  0
  -21.7378  -29.0335   22.3551 N   0  0  0  0  0  0  0  0  0  0  0  0
  -21.0298  -12.4784   22.3887 N   0  0  0  0  0  0  0  0  0  0  0  0
  -18.1578  -28.7024   21.9782 N   0  3  0  0  0  0  0  0  0  0  0  0
  -29.0467  -12.8847   21.6143 O   0  0  0  0  0  0  0  0  0  0  0  0
  -26.0011  -25.8154   21.3919 O   0  0  0  0  0  0  0  0  0  0  0  0
  -23.9056  -28.8152   20.4946 O   0  0  0  0  0  0  0  0  0  0  0  0
  -20.3155  -27.4553   23.2842 O   0  0  0  0  0  0  0  0  0  0  0  0
  -19.5481  -12.0993   20.6806 O   0  0  0  0  0  0  0  0  0  0  0  0
  -28.9860  -20.5144   20.0744 O   0  0  0  0  0  0  0  0  0  0  0  0
  -21.7996  -20.8558   22.5124 O   0  0  0  0  0  0  0  0  0  1  0  0
  -31.8480  -22.2420   24.4594 F   0  0  0  0  0  0  0  0  0  0  0  0
  -31.2132  -19.1301   20.9497 F   0  0  0  0  0  0  0  0  0  0  0  0
  1  2  1  0  0  0  0
  1  5  2  0  0  0  0
  2  6  2  0  0  0  0
  3  8  2  0  0  0  0
  3 16  1  0  0  0  0
  4  9  1  0  0  0  0
  4 16  2  0  0  0  0
  5 18  1  0  0  0  0
  6 20  1  0  0  0  0
  7 10  2  0  0  0  0
  7 19  1  0  0  0  0
  8 27  1  0  0  0  0
  9 27  2  0  0  0  0
 10 28  1  0  0  0  0
 11 12  2  0  0  0  0
 11 29  1  0  0  0  0
 12 30  1  0  0  0  0
 13 21  1  0  0  0  0
 13 28  2  0  0  0  0
 14 22  1  0  0  0  0
 14 23  2  0  0  0  0
 15 30  2  0  0  0  0
 15 31  1  0  0  0  0
 16 32  1  0  0  0  0
 17 32  1  0  0  0  0
 17 33  2  0  0  0  0
 17 34  1  0  0  0  0
 18 20  2  0  0  0  0
 18 39  1  0  0  0  0
 19 21  2  0  0  0  0
 19 40  1  0  0  0  0
 20 48  1  0  0  0  0
 21 41  1  0  0  0  0
 22 24  2  0  0  0  0
 22 60  1  0  0  0  0
 23 26  1  0  0  0  0
 23 51  1  0  0  0  0
 24 25  1  0  0  0  0
 24 52  1  0  0  0  0
 25 26  2  0  0  0  0
 25 53  1  0  0  0  0
 26 74  1  0  0  0  0
 27 84  1  0  0  0  0
 28 85  1  0  0  0  0
 29 31  2  0  0  0  0
 29 84  1  0  0  0  0
 30 86  1  0  0  0  0
 31 87  1  0  0  0  0
 32 68  2  0  0  0  0
 33 69  1  0  0  0  0
 33 72  1  0  0  0  0
 34 73  1  0  0  0  0
 34 79  2  0  0  0  0
 35 49  1  0  0  0  0
 35 75  1  0  0  0  0
 35 80  2  0  0  0  0
 36 64  1  0  0  0  0
 36 70  1  0  0  0  0
 36 81  2  0  0  0  0
 37 65  1  0  0  0  0
 37 76  1  0  0  0  0
 37 82  2  0  0  0  0
 38 71  1  0  0  0  0
 38 77  1  0  0  0  0
 38 83  2  0  0  0  0
 39 42  1  0  0  0  0
 40 49  1  0  0  0  0
 41 70  1  0  0  0  0
 42 44  1  0  0  0  0
 43 45  1  0  0  0  0
 43 46  1  0  0  0  0
 44 48  1  0  0  0  0
 45 50  1  0  0  0  0
 46 71  1  0  0  0  0
 47 50  1  0  0  0  0
 47 71  1  0  0  0  0
 48 75  1  0  0  0  0
 49 70  1  0  0  0  0
 50 69  1  0  0  0  0
 54 65  1  0  0  0  0
 55 66  1  0  0  0  0
 56 67  1  0  0  0  0
 57 67  1  0  0  0  0
 58 67  1  0  0  0  0
 59 78  1  0  0  0  0
 60 85  1  0  0  0  0
 61 62  1  0  0  0  0
 61 63  1  0  0  0  0
 62 66  1  0  0  0  0
 63 77  1  0  0  0  0
 64 67  1  0  0  0  0
 64 76  1  0  0  0  0
 65 78  1  0  0  0  0
 66 74  1  0  0  0  0
 68 69  1  0  0  0  0
M  CHG  1  78   1
M  ISO  4  38 100  60 101  77 100  85 101
M  END
> <Batch ID>
0019

> <Smiles>
CNC(C)C(=O)NC(C(=O)N1Cc2cc([101O:1][101CH2:1]c3cc(C)c(NC(C)CCC[100NH:0][100C:0](=O)N4CCCC(n5nc(-c6ccc(Oc7ccc(F)cc7F)cc6)c(C(N)=O)c5N)C4)c(C)c3C)ccc2CC1C(=O)NC1CCCc2ccccc21)C(C)(C)C

> <Shape>
0.204

> <Color>
0.067

> <Negative vol penalty>
0.000

$$$$

  -OEChem-04052316073D

 81 89  0     1  0  0  0  0  0999 V2000
  -30.1260  -33.5676   25.6512 C   0  0  0  0  0  0  0  0  0  0  0  0
  -30.8663  -32.4404   25.3095 C   0  0  0  0  0  0  0  0  0  0  0  0
  -23.0021   -9.8811   19.9877 C   0  0  0  0  0  0  0  0  0  0  0  0
  -23.7186   -9.9527   22.2939 C   0  0  0  0  0  0  0  0  0  0  0  0
  -28.7353  -33.4932   25.7175 C   0  0  0  0  0  0  0  0  0  0  0  0
  -30.2162  -31.2376   25.0350 C   0  0  0  0  0  0  0  0  0  0  0  0
  -30.7901  -25.3904   20.9366 C   0  0  0  0  0  0  0  0  0  0  0  0
  -22.2364   -8.7476   20.2607 C   0  0  0  0  0  0  0  0  0  0  0  0
  -22.9529   -8.8192   22.5669 C   0  0  0  0  0  0  0  0  0  0  0  0
  -30.7908  -23.9999   21.0380 C   0  0  0  0  0  0  0  0  0  0  0  0
  -23.2044   -5.4768   22.1240 C   0  0  0  0  0  0  0  0  0  0  0  0
  -23.7908   -4.4669   22.8869 C   0  0  0  0  0  0  0  0  0  0  0  0
  -28.3795  -24.0096   21.1064 C   0  0  0  0  0  0  0  0  0  0  0  0
  -30.8292  -19.0410   20.1768 C   0  0  0  0  0  0  0  0  0  0  0  0
  -22.0603   -4.7211   24.5536 C   0  0  0  0  0  0  0  0  0  0  0  0
  -23.7432  -10.4836   21.0043 C   0  0  0  0  0  0  0  0  0  0  0  0
  -24.1250  -12.9983   20.8085 C   0  0  0  0  0  0  0  0  0  0  0  0
  -28.0674  -32.2914   25.4342 C   0  0  0  0  0  0  0  0  0  0  0  0
  -29.5823  -26.1029   20.9304 C   0  0  0  0  0  0  0  0  0  0  0  0
  -28.8154  -31.1467   25.0989 C   0  0  0  0  0  0  0  0  0  0  0  0
  -28.3661  -25.4089   21.0023 C   0  0  0  0  0  0  0  0  0  0  0  0
  -30.6397  -19.8169   21.3202 C   0  0  0  0  0  0  0  0  0  0  0  0
  -30.2577  -19.2124   22.5179 C   0  0  0  0  0  0  0  0  0  0  0  0
  -30.0652  -17.8320   22.5720 C   0  0  0  0  0  0  0  0  0  0  0  0
  -30.2546  -17.0560   21.4285 C   0  0  0  0  0  0  0  0  0  0  0  0
  -22.2118   -8.2166   21.5503 C   0  0  0  0  0  0  0  0  0  0  0  0
  -29.5855  -23.3095   21.1258 C   0  0  0  0  0  0  0  0  0  0  0  0
  -22.0460   -6.1089   22.5760 C   0  0  0  0  0  0  0  0  0  0  0  0
  -23.2188   -4.0890   24.1016 C   0  0  0  0  0  0  0  0  0  0  0  0
  -30.6366  -17.6605   20.2309 C   0  0  0  0  0  0  0  0  0  0  0  0
  -21.4739   -5.7310   23.7907 C   0  0  0  0  0  0  0  0  0  0  0  0
  -24.5348  -11.6542   20.7227 C   0  0  0  0  0  0  0  0  0  0  0  0
  -25.2350  -13.7196   20.4422 C   0  0  0  0  0  0  0  0  0  0  0  0
  -22.8548  -13.5458   21.1857 C   0  0  0  0  0  0  0  0  0  0  0  0
  -28.2614  -28.2951   22.8154 C   0  0  0  0  0  0  0  0  0  0  0  0
  -26.0025  -28.3717   20.4887 C   0  0  0  0  0  0  0  0  0  0  0  0
  -24.4413  -26.7678   17.9124 C   0  0  0  0  0  0  0  0  0  0  0  0
  -30.7119  -14.6918   20.6884 C   0  0  0  0  0  0  0  0  0  0  0  0
  -26.5655  -32.2474   25.5650 C   0  0  0  0  0  0  0  0  0  0  0  0
  -29.5978  -27.6007   20.7935 C   0  0  0  0  0  0  0  0  0  0  0  0
  -27.0416  -26.1256   20.9792 C   0  0  0  0  0  0  0  0  0  0  0  0
  -25.9310  -31.0318   24.8941 C   0  0  0  0  0  0  0  0  0  0  0  0
  -29.6064  -12.2176   18.3790 C   0  0  0  0  0  0  0  0  0  0  0  0
  -26.6934  -29.7620   25.2590 C   0  0  0  0  0  0  0  0  0  0  0  0
  -28.1547  -11.9610   18.7900 C   0  0  0  0  0  0  0  0  0  0  0  0
  -30.5020  -12.4726   19.5901 C   0  0  0  0  0  0  0  0  0  0  0  0
  -28.5804  -13.2695   20.9098 C   0  0  0  0  0  0  0  0  0  0  0  0
  -28.1452  -29.8304   24.7699 C   0  0  1  0  0  0  0  0  0  0  0  0
  -28.3252  -28.2615   21.3146 C   0  0  1  0  0  0  0  0  0  0  0  0
  -27.6274  -13.0715   19.7196 C   0  0  2  0  0  0  0  0  0  0  0  0
  -30.0529  -20.0468   23.7426 C   0  0  0  0  0  0  0  0  0  0  0  0
  -29.6543  -17.1847   23.8580 C   0  0  0  0  0  0  0  0  0  0  0  0
  -22.6079  -27.0701   16.2258 C   0  0  0  0  0  0  0  0  0  0  0  0
  -23.9218  -27.8837   22.6665 C   0  0  0  0  0  0  0  0  0  0  0  0
  -22.2927  -27.2557   20.8721 C   0  0  0  0  0  0  0  0  0  0  0  0
  -23.2479  -29.5592   20.9365 C   0  0  0  0  0  0  0  0  0  0  0  0
  -26.3232  -26.4906   15.6452 C   0  0  0  0  0  0  0  0  0  0  0  0
  -30.8524  -21.2997   21.2343 C   0  0  0  0  0  0  0  0  0  1  0  0
  -24.7157  -27.6283   20.2230 C   0  0  1  0  0  0  0  0  0  0  0  0
  -24.0950  -27.2212   16.5057 C   0  0  2  0  0  0  0  0  0  0  0  0
  -23.5694  -28.0681   21.1769 C   0  0  0  0  0  0  0  0  0  0  0  0
  -25.8057  -11.5265   20.3323 N   0  0  0  0  0  0  0  0  0  0  0  0
  -26.2042  -12.7996   20.1695 N   0  0  0  0  0  0  0  0  0  0  0  0
  -27.1092  -27.5906   20.8504 N   0  0  0  0  0  0  0  0  0  0  0  0
  -29.9421  -13.5397   20.4224 N   0  0  0  0  0  0  0  0  0  0  0  0
  -25.4666  -15.0448   20.3298 N   0  0  0  0  0  0  0  0  0  0  0  0
  -21.8231  -12.6628   21.5328 N   0  0  0  0  0  0  0  0  0  0  0  0
  -30.0632  -15.6525   21.4635 N   0  0  0  0  0  0  0  0  0  0  0  0
  -28.2123  -29.5692   23.3480 N   0  0  0  0  0  0  0  0  0  0  0  0
  -24.4202  -27.8170   18.8069 N   0  0  0  0  0  0  0  0  0  0  0  0
  -24.8464  -26.4154   15.5021 N   0  3  0  0  0  0  0  0  0  0  0  0
  -22.6359  -14.7809   21.1983 O   0  0  0  0  0  0  0  0  0  0  0  0
  -28.2557  -27.2429   23.4436 O   0  0  0  0  0  0  0  0  0  0  0  0
  -26.0266  -29.5995   20.3724 O   0  0  0  0  0  0  0  0  0  0  0  0
  -24.7006  -25.5991   18.1908 O   0  0  0  0  0  0  0  0  0  0  0  0
  -31.8521  -14.8288   20.2374 O   0  0  0  0  0  0  0  0  0  0  0  0
  -21.4646   -7.1107   21.8172 O   0  0  0  0  0  0  0  0  0  0  0  0
  -29.5834  -21.9523   21.2255 O   0  0  0  0  0  0  0  0  0  1  0  0
  -23.7811   -3.1182   24.8333 F   0  0  0  0  0  0  0  0  0  0  0  0
  -30.8233  -16.9252   19.1253 F   0  0  0  0  0  0  0  0  0  0  0  0
  -20.3604   -6.3337   24.2296 F   0  0  0  0  0  0  0  0  0  0  0  0
  1  2  1  0  0  0  0
  1  5  2  0  0  0  0
  2  6  2  0  0  0  0
  3  8  2  0  0  0  0
  3 16  1  0  0  0  0
  4  9  1  0  0  0  0
  4 16  2  0  0  0  0
  5 18  1  0  0  0  0
  6 20  1  0  0  0  0
  7 10  2  0  0  0  0
  7 19  1  0  0  0  0
  8 26  1  0  0  0  0
  9 26  2  0  0  0  0
 10 27  1  0  0  0  0
 11 12  2  0  0  0  0
 11 28  1  0  0  0  0
 12 29  1  0  0  0  0
 13 21  1  0  0  0  0
 13 27  2  0  0  0  0
 14 22  1  0  0  0  0
 14 30  2  0  0  0  0
 15 29  2  0  0  0  0
 15 31  1  0  0  0  0
 16 32  1  0  0  0  0
 17 32  1  0  0  0  0
 17 33  2  0  0  0  0
 17 34  1  0  0  0  0
 18 20  2  0  0  0  0
 18 39  1  0  0  0  0
 19 21  2  0  0  0  0
 19 40  1  0  0  0  0
 20 48  1  0  0  0  0
 21 41  1  0  0  0  0
 22 23  2  0  0  0  0
 22 58  1  0  0  0  0
 23 24  1  0  0  0  0
 23 51  1  0  0  0  0
 24 25  2  0  0  0  0
 24 52  1  0  0  0  0
 25 30  1  0  0  0  0
 25 68  1  0  0  0  0
 26 77  1  0  0  0  0
 27 78  1  0  0  0  0
 28 31  2  0  0  0  0
 28 77  1  0  0  0  0
 29 79  1  0  0  0  0
 30 80  1  0  0  0  0
 31 81  1  0  0  0  0
 32 62  2  0  0  0  0
 33 63  1  0  0  0  0
 33 66  1  0  0  0  0
 34 67  1  0  0  0  0
 34 72  2  0  0  0  0
 35 49  1  0  0  0  0
 35 69  1  0  0  0  0
 35 73  2  0  0  0  0
 36 59  1  0  0  0  0
 36 64  1  0  0  0  0
 36 74  2  0  0  0  0
 37 60  1  0  0  0  0
 37 70  1  0  0  0  0
 37 75  2  0  0  0  0
 38 65  1  0  0  0  0
 38 68  1  0  0  0  0
 38 76  2  0  0  0  0
 39 42  1  0  0  0  0
 40 49  1  0  0  0  0
 41 64  1  0  0  0  0
 42 44  1  0  0  0  0
 43 45  1  0  0  0  0
 43 46  1  0  0  0  0
 44 48  1  0  0  0  0
 45 50  1  0  0  0  0
 46 65  1  0  0  0  0
 47 50  1  0  0  0  0
 47 65  1  0  0  0  0
 48 69  1  0  0  0  0
 49 64  1  0  0  0  0
 50 63  1  0  0  0  0
 53 60  1  0  0  0  0
 54 61  1  0  0  0  0
 55 61  1  0  0  0  0
 56 61  1  0  0  0  0
 57 71  1  0  0  0  0
 58 78  1  0  0  0  0
 59 61  1  0  0  0  0
 59 70  1  0  0  0  0
 60 71  1  0  0  0  0
 62 63  1  0  0  0  0
M  CHG  1  71   1
M  ISO  4  38 100  58 101  68 100  78 101
M  END
> <Batch ID>
0019

> <Smiles>
CNC(C)C(=O)NC(C(=O)N1Cc2cc([101O:1][101CH2:1]c3cc(F)c([100NH:0][100C:0](=O)N4CCCC(n5nc(-c6ccc(Oc7ccc(F)cc7F)cc6)c(C(N)=O)c5N)C4)c(C)c3C)ccc2CC1C(=O)NC1CCCc2ccccc21)C(C)(C)C

> <Shape>
0.352

> <Color>
0.207

> <Negative vol penalty>
0.000

$$$$

  -OEChem-04052316073D

 90 97  0     1  0  0  0  0  0999 V2000
  -30.1873  -35.7620   19.8504 C   0  0  0  0  0  0  0  0  0  0  0  0
  -30.1501  -34.3874   20.0616 C   0  0  0  0  0  0  0  0  0  0  0  0
  -28.8028  -13.3778   21.8986 C   0  0  0  0  0  0  0  0  0  0  0  0
  -27.3971  -14.8945   20.6494 C   0  0  0  0  0  0  0  0  0  0  0  0
  -29.2620  -36.5891   20.4856 C   0  0  0  0  0  0  0  0  0  0  0  0
  -29.1880  -33.8392   20.9091 C   0  0  0  0  0  0  0  0  0  0  0  0
  -27.0124  -29.7025   18.9601 C   0  0  0  0  0  0  0  0  0  0  0  0
  -27.9189  -12.3339   21.6258 C   0  0  0  0  0  0  0  0  0  0  0  0
  -26.5131  -13.8506   20.3765 C   0  0  0  0  0  0  0  0  0  0  0  0
  -27.7360  -28.5125   19.0237 C   0  0  0  0  0  0  0  0  0  0  0  0
  -24.9384  -11.2296   22.7754 C   0  0  0  0  0  0  0  0  0  0  0  0
  -24.5904  -10.3841   23.8287 C   0  0  0  0  0  0  0  0  0  0  0  0
  -26.4434  -27.8361   20.9449 C   0  0  0  0  0  0  0  0  0  0  0  0
  -25.4974   -8.5011   22.6169 C   0  0  0  0  0  0  0  0  0  0  0  0
  -28.5419  -14.6582   21.4104 C   0  0  0  0  0  0  0  0  0  0  0  0
  -30.5650  -16.1340   20.9239 C   0  0  0  0  0  0  0  0  0  0  0  0
  -28.2820  -36.0497   21.3338 C   0  0  0  0  0  0  0  0  0  0  0  0
  -26.0045  -29.9735   19.8967 C   0  0  0  0  0  0  0  0  0  0  0  0
  -28.2495  -34.6600   21.5574 C   0  0  0  0  0  0  0  0  0  0  0  0
  -25.7067  -29.0291   20.8895 C   0  0  0  0  0  0  0  0  0  0  0  0
  -26.7741  -12.5702   20.8647 C   0  0  0  0  0  0  0  0  0  0  0  0
  -27.4535  -27.5804   20.0179 C   0  0  0  0  0  0  0  0  0  0  0  0
  -25.5659  -10.7108   21.6427 C   0  0  0  0  0  0  0  0  0  0  0  0
  -24.8699   -9.0198   23.7495 C   0  0  0  0  0  0  0  0  0  0  0  0
  -25.8454   -9.3466   21.5635 C   0  0  0  0  0  0  0  0  0  0  0  0
  -29.4543  -15.7372   21.6924 C   0  0  0  0  0  0  0  0  0  0  0  0
  -31.0974  -17.1962   21.6129 C   0  0  0  0  0  0  0  0  0  0  0  0
  -31.0703  -15.5910   19.6969 C   0  0  0  0  0  0  0  0  0  0  0  0
  -25.5386  -32.2100   22.1068 C   0  0  0  0  0  0  0  0  0  0  0  0
  -22.6525  -30.7601   22.4073 C   0  0  0  0  0  0  0  0  0  0  0  0
  -20.7710  -27.9410   22.0085 C   0  0  0  0  0  0  0  0  0  0  0  0
  -28.7600  -21.1450   25.4593 C   0  0  0  0  0  0  0  0  0  0  0  0
  -27.3327  -36.9885   22.0354 C   0  0  0  0  0  0  0  0  0  0  0  0
  -25.2149  -31.2500   19.7982 C   0  0  0  0  0  0  0  0  0  0  0  0
  -24.6207  -29.2632   21.9064 C   0  0  0  0  0  0  0  0  0  0  0  0
  -26.1097  -36.2902   22.6243 C   0  0  0  0  0  0  0  0  0  0  0  0
  -31.5092  -18.9588   26.0417 C   0  0  0  0  0  0  0  0  0  0  0  0
  -26.5260  -35.0344   23.3836 C   0  0  0  0  0  0  0  0  0  0  0  0
  -31.3945  -17.9210   24.9237 C   0  0  0  0  0  0  0  0  0  0  0  0
  -30.1367  -19.3969   26.5480 C   0  0  0  0  0  0  0  0  0  0  0  0
  -29.0996  -18.8377   24.3834 C   0  0  0  0  0  0  0  0  0  0  0  0
  -27.2054  -34.0252   22.4502 C   0  0  1  0  0  0  0  0  0  0  0  0
  -24.5581  -31.6494   21.1159 C   0  0  1  0  0  0  0  0  0  0  0  0
  -30.4570  -18.4066   23.8019 C   0  0  2  0  0  0  0  0  0  0  0  0
  -31.9474  -20.2973   18.4627 C   0  0  0  0  0  0  0  0  0  0  0  0
  -18.4544  -27.0500   22.3788 C   0  0  0  0  0  0  0  0  0  0  0  0
  -33.7865  -21.7147   20.3213 C   0  0  0  0  0  0  0  0  0  0  0  0
  -27.4372  -23.7358   19.2145 C   0  0  0  0  0  0  0  0  0  0  0  0
  -23.2270  -30.5145   25.3939 C   0  0  0  0  0  0  0  0  0  0  0  0
  -21.3866  -28.8232   25.5379 C   0  0  0  0  0  0  0  0  0  0  0  0
  -20.8771  -31.1613   24.8333 C   0  0  0  0  0  0  0  0  0  0  0  0
  -34.2476  -24.6262   21.8833 C   0  0  0  0  0  0  0  0  0  0  0  0
  -34.6168  -24.7471   19.4203 C   0  0  0  0  0  0  0  0  0  0  0  0
  -32.9877  -26.2787   20.5033 C   0  0  0  0  0  0  0  0  0  0  0  0
  -20.3846  -27.4199   19.1210 C   0  0  0  0  0  0  0  0  0  0  0  0
  -31.4302  -24.5101   18.0604 C   0  0  0  0  0  0  0  0  0  0  0  0
  -31.5435  -21.5851   19.1716 C   0  0  0  0  0  0  0  0  0  0  0  0
  -28.6506  -23.3431   22.1026 C   0  0  0  0  0  0  0  0  0  0  0  0
  -28.2871  -23.7775   23.5256 C   0  0  0  0  0  0  0  0  0  0  0  0
  -29.6032  -24.3186   21.3985 C   0  0  0  0  0  0  0  0  0  0  0  0
  -27.3652  -22.7964   24.2401 C   0  0  0  0  0  0  0  0  0  0  0  0
  -28.6594  -25.8914   18.8563 C   0  0  0  0  0  0  0  0  0  1  0  0
  -22.1069  -29.6277   23.2433 C   0  0  1  0  0  0  0  0  0  0  0  0
  -19.3991  -27.7239   21.3959 C   0  0  2  0  0  0  0  0  0  0  0  0
  -32.7466  -22.5008   19.5006 C   0  0  1  0  0  0  0  0  0  0  0  0
  -28.8095  -24.3631   18.9463 C   0  0  1  0  0  0  0  0  0  0  0  0
  -29.9128  -23.9194   19.9444 C   0  0  1  0  0  0  0  0  0  0  0  0
  -32.3813  -23.8191   20.2558 C   0  0  1  0  0  0  0  0  0  0  0  0
  -21.9212  -30.0278   24.7343 C   0  0  0  0  0  0  0  0  0  0  0  0
  -33.5450  -24.8367   20.5327 C   0  0  0  0  0  0  0  0  0  0  0  0
  -29.2898  -16.4862   22.7860 N   0  0  0  0  0  0  0  0  0  0  0  0
  -30.3043  -17.3643   22.7096 N   0  0  0  0  0  0  0  0  0  0  0  0
  -23.8810  -30.5291   21.7724 N   0  0  0  0  0  0  0  0  0  0  0  0
  -29.2972  -19.8474   25.4352 N   0  0  0  0  0  0  0  0  0  0  0  0
  -32.1619  -17.9934   21.3815 N   0  0  0  0  0  0  0  0  0  0  0  0
  -30.4029  -14.4996   19.1243 N   0  0  0  0  0  0  0  0  0  0  0  0
  -26.2175  -33.3262   21.6565 N   0  0  0  0  0  0  0  0  0  0  0  0
  -20.8810  -29.1885   22.5854 N   0  0  0  0  0  0  0  0  0  0  0  0
  -27.9811  -21.4940   24.3628 N   0  0  0  0  0  0  0  0  0  0  0  0
  -19.5040  -26.8662   20.1816 N   0  3  0  0  0  0  0  0  0  0  0  0
  -31.2330  -24.4940   19.5533 N   0  3  1  0  0  0  0  0  0  0  0  0
  -32.0932  -16.0493   19.1338 O   0  0  0  0  0  0  0  0  0  0  0  0
  -25.6686  -31.6708   23.1995 O   0  0  0  0  0  0  0  0  0  0  0  0
  -22.0088  -31.8084   22.3151 O   0  0  0  0  0  0  0  0  0  0  0  0
  -21.6552  -27.0878   21.9816 O   0  0  0  0  0  0  0  0  0  0  0  0
  -28.9642  -21.9360   26.3864 O   0  0  0  0  0  0  0  0  0  0  0  0
  -25.9115  -11.5517   20.5981 O   0  0  0  0  0  0  0  0  0  0  0  0
  -28.1640  -26.4098   20.0831 O   0  0  0  0  0  0  0  0  0  1  0  0
  -24.5370   -8.2083   24.7618 F   0  0  0  0  0  0  0  0  0  0  0  0
  -26.4491   -8.8426   20.4785 F   0  0  0  0  0  0  0  0  0  0  0  0
  1  2  1  0  0  0  0
  1  5  2  0  0  0  0
  2  6  2  0  0  0  0
  3  8  2  0  0  0  0
  3 15  1  0  0  0  0
  4  9  1  0  0  0  0
  4 15  2  0  0  0  0
  5 17  1  0  0  0  0
  6 19  1  0  0  0  0
  7 10  2  0  0  0  0
  7 18  1  0  0  0  0
  8 21  1  0  0  0  0
  9 21  2  0  0  0  0
 10 22  1  0  0  0  0
 11 12  2  0  0  0  0
 11 23  1  0  0  0  0
 12 24  1  0  0  0  0
 13 20  1  0  0  0  0
 13 22  2  0  0  0  0
 14 24  2  0  0  0  0
 14 25  1  0  0  0  0
 15 26  1  0  0  0  0
 16 26  1  0  0  0  0
 16 27  2  0  0  0  0
 16 28  1  0  0  0  0
 17 19  2  0  0  0  0
 17 33  1  0  0  0  0
 18 20  2  0  0  0  0
 18 34  1  0  0  0  0
 19 42  1  0  0  0  0
 20 35  1  0  0  0  0
 21 87  1  0  0  0  0
 22 88  1  0  0  0  0
 23 25  2  0  0  0  0
 23 87  1  0  0  0  0
 24 89  1  0  0  0  0
 25 90  1  0  0  0  0
 26 71  2  0  0  0  0
 27 72  1  0  0  0  0
 27 75  1  0  0  0  0
 28 76  1  0  0  0  0
 28 82  2  0  0  0  0
 29 43  1  0  0  0  0
 29 77  1  0  0  0  0
 29 83  2  0  0  0  0
 30 63  1  0  0  0  0
 30 73  1  0  0  0  0
 30 84  2  0  0  0  0
 31 64  1  0  0  0  0
 31 78  1  0  0  0  0
 31 85  2  0  0  0  0
 32 74  1  0  0  0  0
 32 79  1  0  0  0  0
 32 86  2  0  0  0  0
 33 36  1  0  0  0  0
 34 43  1  0  0  0  0
 35 73  1  0  0  0  0
 36 38  1  0  0  0  0
 37 39  1  0  0  0  0
 37 40  1  0  0  0  0
 38 42  1  0  0  0  0
 39 44  1  0  0  0  0
 40 74  1  0  0  0  0
 41 44  1  0  0  0  0
 41 74  1  0  0  0  0
 42 77  1  0  0  0  0
 43 73  1  0  0  0  0
 44 72  1  0  0  0  0
 45 57  1  0  0  0  0
 46 64  1  0  0  0  0
 47 65  1  0  0  0  0
 48 66  1  0  0  0  0
 49 69  1  0  0  0  0
 50 69  1  0  0  0  0
 51 69  1  0  0  0  0
 52 70  1  0  0  0  0
 53 70  1  0  0  0  0
 54 70  1  0  0  0  0
 55 80  1  0  0  0  0
 56 81  1  0  0  0  0
 57 65  1  0  0  0  0
 58 59  1  0  0  0  0
 58 60  1  0  0  0  0
 59 61  1  0  0  0  0
 60 67  1  0  0  0  0
 61 79  1  0  0  0  0
 62 66  1  0  0  0  0
 62 88  1  0  0  0  0
 63 69  1  0  0  0  0
 63 78  1  0  0  0  0
 64 80  1  0  0  0  0
 65 68  1  0  0  0  0
 66 67  1  0  0  0  0
 67 81  1  0  0  0  0
 68 70  1  0  0  0  0
 68 81  1  0  0  0  0
 71 72  1  0  0  0  0
M  CHG  2  80   1  81   1
M  ISO  4  32 100  62 101  79 100  88 101
M  END
> <Batch ID>
0019

> <Smiles>
CCC(C)C(N(C)C(CCCC[100NH:0][100C:0](=O)N1CCCC(n2nc(-c3ccc(Oc4ccc(F)cc4F)cc3)c(C(N)=O)c2N)C1)C(C)[101CH2:1][101O:1]c1ccc2c(c1)CN(C(=O)C(NC(=O)C(C)NC)C(C)(C)C)C(C(=O)NC1CCCc3ccccc31)C2)C(C)(C)C

> <Shape>
0.241

> <Color>
0.073

> <Negative vol penalty>
0.000

$$$$

  -OEChem-04052316073D

 88 96  0     1  0  0  0  0  0999 V2000
  -32.1048  -23.5750   27.8658 C   0  0  0  0  0  0  0  0  0  0  0  0
  -31.3526  -23.1700   26.7678 C   0  0  0  0  0  0  0  0  0  0  0  0
  -23.1875   -9.8463   19.9338 C   0  0  0  0  0  0  0  0  0  0  0  0
  -23.5692  -10.0280   22.3125 C   0  0  0  0  0  0  0  0  0  0  0  0
  -32.0758  -24.9072   28.2760 C   0  0  0  0  0  0  0  0  0  0  0  0
  -30.5701  -24.0968   26.0800 C   0  0  0  0  0  0  0  0  0  0  0  0
  -31.0177  -23.6679   21.0540 C   0  0  0  0  0  0  0  0  0  0  0  0
  -28.5433  -18.5314   21.6280 C   0  0  0  0  0  0  0  0  0  0  0  0
  -28.3919  -19.5148   20.6504 C   0  0  0  0  0  0  0  0  0  0  0  0
  -22.4140   -8.7050   20.1451 C   0  0  0  0  0  0  0  0  0  0  0  0
  -22.7957   -8.8867   22.5238 C   0  0  0  0  0  0  0  0  0  0  0  0
  -30.3177  -22.6310   20.4387 C   0  0  0  0  0  0  0  0  0  0  0  0
  -23.1749   -5.5371   22.2647 C   0  0  0  0  0  0  0  0  0  0  0  0
  -23.6678   -4.5739   23.1449 C   0  0  0  0  0  0  0  0  0  0  0  0
  -28.5983  -24.1901   19.7812 C   0  0  0  0  0  0  0  0  0  0  0  0
  -21.7143   -4.8488   24.5397 C   0  0  0  0  0  0  0  0  0  0  0  0
  -23.7651  -10.5078   21.0175 C   0  0  0  0  0  0  0  0  0  0  0  0
  -24.1199  -13.0219   20.7695 C   0  0  0  0  0  0  0  0  0  0  0  0
  -31.3001  -25.8528   27.5871 C   0  0  0  0  0  0  0  0  0  0  0  0
  -30.5070  -24.9739   21.0471 C   0  0  0  0  0  0  0  0  0  0  0  0
  -30.5296  -25.4427   26.4822 C   0  0  0  0  0  0  0  0  0  0  0  0
  -29.2950  -25.2422   20.3950 C   0  0  0  0  0  0  0  0  0  0  0  0
  -29.7033  -17.7576   21.6651 C   0  0  0  0  0  0  0  0  0  0  0  0
  -29.4005  -19.7244   19.7100 C   0  0  0  0  0  0  0  0  0  0  0  0
  -22.2181   -8.2252   21.4401 C   0  0  0  0  0  0  0  0  0  0  0  0
  -29.1064  -22.8915   19.8046 C   0  0  0  0  0  0  0  0  0  0  0  0
  -21.9516   -6.1562   22.5219 C   0  0  0  0  0  0  0  0  0  0  0  0
  -22.9376   -4.2297   24.2824 C   0  0  0  0  0  0  0  0  0  0  0  0
  -21.2214   -5.8120   23.6594 C   0  0  0  0  0  0  0  0  0  0  0  0
  -30.7119  -17.9672   20.7247 C   0  0  0  0  0  0  0  0  0  0  0  0
  -30.5605  -18.9506   19.7471 C   0  0  0  0  0  0  0  0  0  0  0  0
  -24.5647  -11.6866   20.7999 C   0  0  0  0  0  0  0  0  0  0  0  0
  -25.2557  -13.7568   20.5320 C   0  0  0  0  0  0  0  0  0  0  0  0
  -22.7982  -13.5506   20.9407 C   0  0  0  0  0  0  0  0  0  0  0  0
  -29.5763  -27.0305   23.2849 C   0  0  0  0  0  0  0  0  0  0  0  0
  -30.3270  -16.4978   25.0275 C   0  0  0  0  0  0  0  0  0  0  0  0
  -29.2959  -29.0493   20.7614 C   0  0  0  0  0  0  0  0  0  0  0  0
  -28.8591  -29.4416   17.3996 C   0  0  0  0  0  0  0  0  0  0  0  0
  -31.0649  -12.7308   21.5572 C   0  0  0  0  0  0  0  0  0  0  0  0
  -31.2637  -27.2719   28.0966 C   0  0  0  0  0  0  0  0  0  0  0  0
  -31.2874  -26.0861   21.6923 C   0  0  0  0  0  0  0  0  0  0  0  0
  -28.7136  -26.6306   20.3417 C   0  0  0  0  0  0  0  0  0  0  0  0
  -30.7011  -28.2678   27.0856 C   0  0  0  0  0  0  0  0  0  0  0  0
  -29.5392  -13.4532   18.4224 C   0  0  0  0  0  0  0  0  0  0  0  0
  -29.4202  -27.7262   26.4588 C   0  0  0  0  0  0  0  0  0  0  0  0
  -28.0511  -13.2028   18.6735 C   0  0  0  0  0  0  0  0  0  0  0  0
  -30.4148  -12.4593   19.1823 C   0  0  0  0  0  0  0  0  0  0  0  0
  -28.6607  -12.1305   20.8820 C   0  0  0  0  0  0  0  0  0  0  0  0
  -29.6877  -26.4235   25.6953 C   0  0  1  0  0  0  0  0  0  0  0  0
  -30.4208  -27.2841   22.0683 C   0  0  1  0  0  0  0  0  0  0  0  0
  -27.7391  -13.1432   20.1809 C   0  0  2  0  0  0  0  0  0  0  0  0
  -30.6723  -16.9208   26.4357 C   0  0  0  0  0  0  0  0  0  0  0  0
  -28.4822  -20.2727   17.4298 C   0  0  0  0  0  0  0  0  0  0  0  0
  -28.6334  -31.2124   15.6358 C   0  0  0  0  0  0  0  0  0  0  0  0
  -26.4306  -29.5812   21.6656 C   0  0  0  0  0  0  0  0  0  0  0  0
  -25.9745  -30.5633   19.4082 C   0  0  0  0  0  0  0  0  0  0  0  0
  -27.6769  -31.6102   20.9011 C   0  0  0  0  0  0  0  0  0  0  0  0
  -31.2788  -28.4995   15.9795 C   0  0  0  0  0  0  0  0  0  0  0  0
  -29.8175  -16.7166   22.7326 C   0  0  0  0  0  0  0  0  0  0  0  0
  -30.2371  -15.0098   24.7439 C   0  0  0  0  0  0  0  0  0  0  0  0
  -31.6047  -14.4631   24.3366 C   0  0  0  0  0  0  0  0  0  0  0  0
  -31.5590  -12.9826   23.9762 C   0  0  0  0  0  0  0  0  0  0  0  0
  -29.1881  -20.8021   18.6716 C   0  0  1  0  0  0  0  0  0  1  0  0
  -28.1951  -29.3993   19.7895 C   0  0  1  0  0  0  0  0  0  0  0  0
  -29.5917  -30.2970   16.3817 C   0  0  2  0  0  0  0  0  0  0  0  0
  -27.0790  -30.2619   20.4436 C   0  0  0  0  0  0  0  0  0  0  0  0
  -25.8804  -11.5766   20.5977 N   0  0  0  0  0  0  0  0  0  0  0  0
  -30.1487  -17.2977   24.0380 N   0  0  0  0  0  0  0  0  0  0  0  0
  -26.2721  -12.8522   20.4378 N   0  0  0  0  0  0  0  0  0  0  0  0
  -29.5110  -27.6833   20.9926 N   0  0  0  0  0  0  0  0  0  0  0  0
  -30.0695  -12.4526   20.6059 N   0  0  0  0  0  0  0  0  0  0  0  0
  -25.4740  -15.0821   20.3964 N   0  0  0  0  0  0  0  0  0  0  0  0
  -21.7460  -12.6555   21.1772 N   0  0  0  0  0  0  0  0  0  0  0  0
  -30.3014  -26.7049   24.4152 N   0  0  0  0  0  0  0  0  0  0  0  0
  -28.8454  -30.0306   18.6462 N   0  0  0  0  0  0  0  0  0  0  0  0
  -30.6518  -12.7102   22.8837 N   0  0  0  0  0  0  0  0  0  0  0  0
  -30.2886  -29.4345   15.3859 N   0  3  0  0  0  0  0  0  0  0  0  0
  -22.5549  -14.7791   20.8694 O   0  0  0  0  0  0  0  0  0  0  0  0
  -28.3571  -27.1248   23.2045 O   0  0  0  0  0  0  0  0  0  0  0  0
  -29.9459  -29.9545   21.2905 O   0  0  0  0  0  0  0  0  0  0  0  0
  -28.3468  -28.3610   17.1162 O   0  0  0  0  0  0  0  0  0  0  0  0
  -32.2338  -12.9844   21.2470 O   0  0  0  0  0  0  0  0  0  0  0  0
  -21.4632   -7.1116   21.6466 O   0  0  0  0  0  0  0  0  0  0  0  0
  -28.4208  -21.8812   19.2038 O   0  0  0  0  0  0  0  0  0  1  0  0
  -23.4104   -3.3037   25.1269 F   0  0  0  0  0  0  0  0  0  0  0  0
  -20.0450   -6.4024   23.9113 F   0  0  0  0  0  0  0  0  0  0  0  0
  -32.1427  -16.9872   20.7987 Cl  0  0  0  0  0  0  0  0  0  0  0  0
  -31.7964  -19.2371   18.5623 Cl  0  0  0  0  0  0  0  0  0  0  0  0
  1  2  1  0  0  0  0
  1  5  2  0  0  0  0
  2  6  2  0  0  0  0
  3 10  2  0  0  0  0
  3 17  1  0  0  0  0
  4 11  1  0  0  0  0
  4 17  2  0  0  0  0
  5 19  1  0  0  0  0
  6 21  1  0  0  0  0
  7 12  2  0  0  0  0
  7 20  1  0  0  0  0
  8  9  2  0  0  0  0
  8 23  1  0  0  0  0
  9 24  1  0  0  0  0
 10 25  1  0  0  0  0
 11 25  2  0  0  0  0
 12 26  1  0  0  0  0
 13 14  2  0  0  0  0
 13 27  1  0  0  0  0
 14 28  1  0  0  0  0
 15 22  1  0  0  0  0
 15 26  2  0  0  0  0
 16 28  2  0  0  0  0
 16 29  1  0  0  0  0
 17 32  1  0  0  0  0
 18 32  1  0  0  0  0
 18 33  2  0  0  0  0
 18 34  1  0  0  0  0
 19 21  2  0  0  0  0
 19 40  1  0  0  0  0
 20 22  2  0  0  0  0
 20 41  1  0  0  0  0
 21 49  1  0  0  0  0
 22 42  1  0  0  0  0
 23 30  2  0  0  0  0
 23 59  1  0  0  0  0
 24 31  2  0  0  0  0
 24 63  1  0  0  0  0
 25 83  1  0  0  0  0
 26 84  1  0  0  0  0
 27 29  2  0  0  0  0
 27 83  1  0  0  0  0
 28 85  1  0  0  0  0
 29 86  1  0  0  0  0
 30 31  1  0  0  0  0
 30 87  1  0  0  0  0
 31 88  1  0  0  0  0
 32 67  2  0  0  0  0
 33 69  1  0  0  0  0
 33 72  1  0  0  0  0
 34 73  1  0  0  0  0
 34 78  2  0  0  0  0
 35 50  1  0  0  0  0
 35 74  1  0  0  0  0
 35 79  2  0  0  0  0
 36 52  1  0  0  0  0
 36 60  1  0  0  0  0
 36 68  2  0  0  0  0
 37 64  1  0  0  0  0
 37 70  1  0  0  0  0
 37 80  2  0  0  0  0
 38 65  1  0  0  0  0
 38 75  1  0  0  0  0
 38 81  2  0  0  0  0
 39 71  1  0  0  0  0
 39 76  1  0  0  0  0
 39 82  2  0  0  0  0
 40 43  1  0  0  0  0
 41 50  1  0  0  0  0
 42 70  1  0  0  0  0
 43 45  1  0  0  0  0
 44 46  1  0  0  0  0
 44 47  1  0  0  0  0
 45 49  1  0  0  0  0
 46 51  1  0  0  0  0
 47 71  1  0  0  0  0
 48 51  1  0  0  0  0
 48 71  1  0  0  0  0
 49 74  1  0  0  0  0
 50 70  1  0  0  0  0
 51 69  1  0  0  0  0
 53 63  1  0  0  0  0
 54 65  1  0  0  0  0
 55 66  1  0  0  0  0
 56 66  1  0  0  0  0
 57 66  1  0  0  0  0
 58 77  1  0  0  0  0
 59 68  1  0  0  0  0
 60 61  1  0  0  0  0
 61 62  1  0  0  0  0
 62 76  1  0  0  0  0
 63 84  1  0  0  0  0
 64 66  1  0  0  0  0
 64 75  1  0  0  0  0
 65 77  1  0  0  0  0
 67 69  1  0  0  0  0
M  CHG  1  77   1
M  ISO  4  39 100  63 101  76 100  84 101
M  END
> <Batch ID>
0019

> <Smiles>
C=C(CCC[100NH:0][100C:0](=O)N1CCCC(n2nc(-c3ccc(Oc4ccc(F)cc4F)cc3)c(C(N)=O)c2N)C1)NCc1ccc([101CH:1](C)[101O:1]c2ccc3c(c2)CN(C(=O)C(NC(=O)C(C)NC)C(C)(C)C)C(C(=O)NC2CCCc4ccccc42)C3)c(Cl)c1Cl

> <Shape>
0.269

> <Color>
0.191

> <Negative vol penalty>
0.000

$$$$

  -OEChem-04052316073D

 84 92  0     1  0  0  0  0  0999 V2000
  -16.6318  -23.6427   24.3379 C   0  0  0  0  0  0  0  0  0  0  0  0
  -17.4455  -23.1898   23.3043 C   0  0  0  0  0  0  0  0  0  0  0  0
  -25.7287  -13.9535   21.5478 C   0  0  0  0  0  0  0  0  0  0  0  0
  -25.0818  -14.7410   19.3573 C   0  0  0  0  0  0  0  0  0  0  0  0
  -16.5704  -25.0048   24.6295 C   0  0  0  0  0  0  0  0  0  0  0  0
  -18.1974  -24.0989   22.5610 C   0  0  0  0  0  0  0  0  0  0  0  0
  -23.7569  -23.1845   20.1606 C   0  0  0  0  0  0  0  0  0  0  0  0
  -24.7067  -13.0051   21.5087 C   0  0  0  0  0  0  0  0  0  0  0  0
  -24.0598  -13.7925   19.3181 C   0  0  0  0  0  0  0  0  0  0  0  0
  -24.1795  -22.8397   18.8775 C   0  0  0  0  0  0  0  0  0  0  0  0
  -24.1645   -9.9846   20.0889 C   0  0  0  0  0  0  0  0  0  0  0  0
  -24.4704   -8.6851   20.4930 C   0  0  0  0  0  0  0  0  0  0  0  0
  -24.5469  -25.1710   18.3784 C   0  0  0  0  0  0  0  0  0  0  0  0
  -22.8033   -8.8345   22.2353 C   0  0  0  0  0  0  0  0  0  0  0  0
  -25.9162  -14.8216   20.4721 C   0  0  0  0  0  0  0  0  0  0  0  0
  -28.2964  -15.6436   20.0637 C   0  0  0  0  0  0  0  0  0  0  0  0
  -17.3294  -25.9300   23.8956 C   0  0  0  0  0  0  0  0  0  0  0  0
  -23.7158  -24.5284   20.5592 C   0  0  0  0  0  0  0  0  0  0  0  0
  -18.1451  -25.4748   22.8422 C   0  0  0  0  0  0  0  0  0  0  0  0
  -24.1259  -25.5301   19.6680 C   0  0  0  0  0  0  0  0  0  0  0  0
  -30.1243  -23.5129   18.4187 C   0  0  0  0  0  0  0  0  0  0  0  0
  -23.8723  -12.9245   20.3938 C   0  0  0  0  0  0  0  0  0  0  0  0
  -24.5718  -23.8331   17.9853 C   0  0  0  0  0  0  0  0  0  0  0  0
  -23.1781  -10.7092   20.7581 C   0  0  0  0  0  0  0  0  0  0  0  0
  -23.7898   -8.1100   21.5661 C   0  0  0  0  0  0  0  0  0  0  0  0
  -22.4975  -10.1341   21.8312 C   0  0  0  0  0  0  0  0  0  0  0  0
  -26.9714  -15.8019   20.5122 C   0  0  0  0  0  0  0  0  0  0  0  0
  -30.5943  -23.9615   17.1698 C   0  0  0  0  0  0  0  0  0  0  0  0
  -28.8931  -16.8535   20.3216 C   0  0  0  0  0  0  0  0  0  0  0  0
  -28.9421  -22.8754   18.1318 C   0  0  0  0  0  0  0  0  0  0  0  0
  -28.9311  -14.5046   19.4674 C   0  0  0  0  0  0  0  0  0  0  0  0
  -21.4233  -26.5210   21.4962 C   0  0  0  0  0  0  0  0  0  0  0  0
  -23.9213  -28.5146   22.0511 C   0  0  0  0  0  0  0  0  0  0  0  0
  -27.1438  -29.3877   21.3440 C   0  0  0  0  0  0  0  0  0  0  0  0
  -27.7285  -22.5107   20.3091 C   0  0  0  0  0  0  0  0  0  0  0  0
  -17.1940  -27.3973   24.2169 C   0  0  0  0  0  0  0  0  0  0  0  0
  -23.2829  -24.8818   21.9557 C   0  0  0  0  0  0  0  0  0  0  0  0
  -24.1195  -26.9860   20.0537 C   0  0  0  0  0  0  0  0  0  0  0  0
  -18.3092  -28.2558   23.6255 C   0  0  0  0  0  0  0  0  0  0  0  0
  -27.9121  -20.6502   23.3393 C   0  0  0  0  0  0  0  0  0  0  0  0
  -18.5482  -27.8881   22.1645 C   0  0  0  0  0  0  0  0  0  0  0  0
  -27.8180  -19.1943   22.8770 C   0  0  0  0  0  0  0  0  0  0  0  0
  -27.0274  -21.5701   22.4997 C   0  0  0  0  0  0  0  0  0  0  0  0
  -27.1419  -20.0219   20.5868 C   0  0  0  0  0  0  0  0  0  0  0  0
  -18.9948  -26.4273   22.0293 C   0  0  1  0  0  0  0  0  0  0  0  0
  -22.7920  -26.3207   22.0829 C   0  0  1  0  0  0  0  0  0  0  0  0
  -28.0654  -19.0672   21.3610 C   0  0  2  0  0  0  0  0  0  0  0  0
  -30.8901  -25.1659   20.1607 C   0  0  0  0  0  0  0  0  0  0  0  0
  -32.1340  -22.9954   19.8496 C   0  0  0  0  0  0  0  0  0  0  0  0
  -29.3198  -30.6212   21.5459 C   0  0  0  0  0  0  0  0  0  0  0  0
  -28.1322  -21.3719   14.9671 C   0  0  0  0  0  0  0  0  0  0  0  0
  -22.4914  -30.5841   20.3242 C   0  0  0  0  0  0  0  0  0  0  0  0
  -24.6521  -31.8383   20.1608 C   0  0  0  0  0  0  0  0  0  0  0  0
  -23.5685  -31.5085   22.3833 C   0  0  0  0  0  0  0  0  0  0  0  0
  -28.1641  -27.4908   23.3737 C   0  0  0  0  0  0  0  0  0  0  0  0
  -26.8539  -23.5348   15.2035 C   0  0  0  0  0  0  0  0  0  0  0  0
  -25.9442  -24.3555   16.1146 C   0  0  0  0  0  0  0  0  0  1  0  0
  -30.7525  -23.6831   19.7420 C   0  0  0  0  0  0  0  0  0  0  0  0
  -24.6701  -29.5423   21.2375 C   0  0  1  0  0  0  0  0  0  0  0  0
  -28.3201  -29.7142   22.2463 C   0  0  2  0  0  0  0  0  0  0  0  0
  -27.6305  -22.4346   15.9522 C   0  0  2  0  0  0  0  0  0  0  0  0
  -23.8439  -30.8411   21.0182 C   0  0  0  0  0  0  0  0  0  0  0  0
  -26.7395  -17.0167   21.0168 N   0  0  0  0  0  0  0  0  0  0  0  0
  -29.7773  -23.6363   16.1643 N   0  0  0  0  0  0  0  0  0  0  0  0
  -27.9269  -17.6326   20.8870 N   0  0  0  0  0  0  0  0  0  0  0  0
  -28.7821  -22.9766   16.7811 N   0  0  0  0  0  0  0  0  0  0  0  0
  -23.6821  -27.2815   21.4281 N   0  0  0  0  0  0  0  0  0  0  0  0
  -27.3205  -21.3983   21.0751 N   0  0  0  0  0  0  0  0  0  0  0  0
  -30.1447  -17.3163   20.1175 N   0  0  0  0  0  0  0  0  0  0  0  0
  -28.1726  -13.3420   19.2743 N   0  0  0  0  0  0  0  0  0  0  0  0
  -28.0108  -22.2197   18.9749 N   0  0  0  0  0  0  0  0  0  0  0  0
  -20.3908  -26.2906   22.3852 N   0  0  0  0  0  0  0  0  0  0  0  0
  -25.9438  -29.7520   21.9173 N   0  0  0  0  0  0  0  0  0  0  0  0
  -29.0235  -28.4648   22.6528 N   0  3  0  0  0  0  0  0  0  0  0  0
  -30.1395  -14.5121   19.1312 O   0  0  0  0  0  0  0  0  0  0  0  0
  -21.3122  -26.8609   20.3241 O   0  0  0  0  0  0  0  0  0  0  0  0
  -23.5681  -28.7929   23.1998 O   0  0  0  0  0  0  0  0  0  0  0  0
  -27.2764  -28.8654   20.2394 O   0  0  0  0  0  0  0  0  0  0  0  0
  -27.8468  -23.6333   20.8070 O   0  0  0  0  0  0  0  0  0  0  0  0
  -22.8751  -11.9990   20.3552 O   0  0  0  0  0  0  0  0  0  0  0  0
  -24.9841  -23.4993   16.7321 O   0  0  0  0  0  0  0  0  0  1  0  0
  -24.0825   -6.8615   21.9531 F   0  0  0  0  0  0  0  0  0  0  0  0
  -21.5481  -10.8248   22.4772 F   0  0  0  0  0  0  0  0  0  0  0  0
  -32.0266  -24.8225   16.8798 Cl  0  0  0  0  0  0  0  0  0  0  0  0
  1  2  1  0  0  0  0
  1  5  2  0  0  0  0
  2  6  2  0  0  0  0
  3  8  2  0  0  0  0
  3 15  1  0  0  0  0
  4  9  1  0  0  0  0
  4 15  2  0  0  0  0
  5 17  1  0  0  0  0
  6 19  1  0  0  0  0
  7 10  2  0  0  0  0
  7 18  1  0  0  0  0
  8 22  1  0  0  0  0
  9 22  2  0  0  0  0
 10 23  1  0  0  0  0
 11 12  2  0  0  0  0
 11 24  1  0  0  0  0
 12 25  1  0  0  0  0
 13 20  1  0  0  0  0
 13 23  2  0  0  0  0
 14 25  2  0  0  0  0
 14 26  1  0  0  0  0
 15 27  1  0  0  0  0
 16 27  1  0  0  0  0
 16 29  2  0  0  0  0
 16 31  1  0  0  0  0
 17 19  2  0  0  0  0
 17 36  1  0  0  0  0
 18 20  2  0  0  0  0
 18 37  1  0  0  0  0
 19 45  1  0  0  0  0
 20 38  1  0  0  0  0
 21 28  1  0  0  0  0
 21 30  2  0  0  0  0
 21 58  1  0  0  0  0
 22 80  1  0  0  0  0
 23 81  1  0  0  0  0
 24 26  2  0  0  0  0
 24 80  1  0  0  0  0
 25 82  1  0  0  0  0
 26 83  1  0  0  0  0
 27 63  2  0  0  0  0
 28 64  2  0  0  0  0
 28 84  1  0  0  0  0
 29 65  1  0  0  0  0
 29 69  1  0  0  0  0
 30 66  1  0  0  0  0
 30 71  1  0  0  0  0
 31 70  1  0  0  0  0
 31 75  2  0  0  0  0
 32 46  1  0  0  0  0
 32 72  1  0  0  0  0
 32 76  2  0  0  0  0
 33 59  1  0  0  0  0
 33 67  1  0  0  0  0
 33 77  2  0  0  0  0
 34 60  1  0  0  0  0
 34 73  1  0  0  0  0
 34 78  2  0  0  0  0
 35 68  1  0  0  0  0
 35 71  1  0  0  0  0
 35 79  2  0  0  0  0
 36 39  1  0  0  0  0
 37 46  1  0  0  0  0
 38 67  1  0  0  0  0
 39 41  1  0  0  0  0
 40 42  1  0  0  0  0
 40 43  1  0  0  0  0
 41 45  1  0  0  0  0
 42 47  1  0  0  0  0
 43 68  1  0  0  0  0
 44 47  1  0  0  0  0
 44 68  1  0  0  0  0
 45 72  1  0  0  0  0
 46 67  1  0  0  0  0
 47 65  1  0  0  0  0
 48 58  1  0  0  0  0
 49 58  1  0  0  0  0
 50 60  1  0  0  0  0
 51 61  1  0  0  0  0
 52 62  1  0  0  0  0
 53 62  1  0  0  0  0
 54 62  1  0  0  0  0
 55 74  1  0  0  0  0
 56 57  1  0  0  0  0
 56 61  1  0  0  0  0
 57 81  1  0  0  0  0
 59 62  1  0  0  0  0
 59 73  1  0  0  0  0
 60 74  1  0  0  0  0
 61 66  1  0  0  0  0
 63 65  1  0  0  0  0
 64 66  1  0  0  0  0
M  CHG  1  74   1
M  ISO  4  35 100  57 101  71 100  81 101
M  END
> <Batch ID>
0019

> <Smiles>
CNC(C)C(=O)NC(C(=O)N1Cc2cc([101O:1][101CH2:1]CC(C)n3nc(Cl)c(C(C)C)c3[100NH:0][100C:0](=O)N3CCCC(n4nc(-c5ccc(Oc6ccc(F)cc6F)cc5)c(C(N)=O)c4N)C3)ccc2CC1C(=O)NC1CCCc2ccccc21)C(C)(C)C

> <Shape>
0.255

> <Color>
0.056

> <Negative vol penalty>
0.000

$$$$

  -OEChem-04052316073D

 83 91  0     1  0  0  0  0  0999 V2000
  -28.9020  -23.4048   28.9892 C   0  0  0  0  0  0  0  0  0  0  0  0
  -28.9287  -23.5773   27.6090 C   0  0  0  0  0  0  0  0  0  0  0  0
  -26.2585  -12.8802   21.5564 C   0  0  0  0  0  0  0  0  0  0  0  0
  -25.2292  -14.1228   19.7581 C   0  0  0  0  0  0  0  0  0  0  0  0
  -27.6860  -23.4334   29.6708 C   0  0  0  0  0  0  0  0  0  0  0  0
  -27.7392  -23.7774   26.9094 C   0  0  0  0  0  0  0  0  0  0  0  0
  -28.0930  -27.5069   23.5021 C   0  0  0  0  0  0  0  0  0  0  0  0
  -25.1095  -12.0981   21.6736 C   0  0  0  0  0  0  0  0  0  0  0  0
  -24.0802  -13.3406   19.8753 C   0  0  0  0  0  0  0  0  0  0  0  0
  -28.7408  -27.2142   22.3027 C   0  0  0  0  0  0  0  0  0  0  0  0
  -23.7057   -9.4768   20.0640 C   0  0  0  0  0  0  0  0  0  0  0  0
  -23.8704   -8.0973   20.1878 C   0  0  0  0  0  0  0  0  0  0  0  0
  -26.6020  -26.9315   21.2235 C   0  0  0  0  0  0  0  0  0  0  0  0
  -28.3584  -23.9884   17.5072 C   0  0  0  0  0  0  0  0  0  0  0  0
  -28.9724  -23.1175   19.6754 C   0  0  0  0  0  0  0  0  0  0  0  0
  -22.7491   -8.1553   22.3270 C   0  0  0  0  0  0  0  0  0  0  0  0
  -26.3183  -13.8926   20.5987 C   0  0  0  0  0  0  0  0  0  0  0  0
  -28.6249  -14.4504   19.6626 C   0  0  0  0  0  0  0  0  0  0  0  0
  -26.4819  -23.6435   28.9804 C   0  0  0  0  0  0  0  0  0  0  0  0
  -26.6926  -27.5034   23.5739 C   0  0  0  0  0  0  0  0  0  0  0  0
  -26.5058  -23.8074   27.5822 C   0  0  0  0  0  0  0  0  0  0  0  0
  -25.9388  -27.2270   22.4243 C   0  0  0  0  0  0  0  0  0  0  0  0
  -29.1421  -24.0575   18.6590 C   0  0  0  0  0  0  0  0  0  0  0  0
  -27.4049  -22.9793   17.3719 C   0  0  0  0  0  0  0  0  0  0  0  0
  -27.2352  -22.0393   18.3883 C   0  0  0  0  0  0  0  0  0  0  0  0
  -28.0190  -22.1083   19.5401 C   0  0  0  0  0  0  0  0  0  0  0  0
  -24.0204  -12.3283   20.8331 C   0  0  0  0  0  0  0  0  0  0  0  0
  -27.9953  -26.9236   21.1639 C   0  0  0  0  0  0  0  0  0  0  0  0
  -23.0627  -10.1956   21.0718 C   0  0  0  0  0  0  0  0  0  0  0  0
  -23.3921   -7.4365   21.3193 C   0  0  0  0  0  0  0  0  0  0  0  0
  -22.5844   -9.5349   22.2033 C   0  0  0  0  0  0  0  0  0  0  0  0
  -27.5047  -14.7013   20.4774 C   0  0  0  0  0  0  0  0  0  0  0  0
  -29.4701  -15.5052   19.9066 C   0  0  0  0  0  0  0  0  0  0  0  0
  -28.8788  -13.3612   18.7654 C   0  0  0  0  0  0  0  0  0  0  0  0
  -24.5342  -25.8294   25.1996 C   0  0  0  0  0  0  0  0  0  0  0  0
  -22.4623  -27.9319   23.8544 C   0  0  0  0  0  0  0  0  0  0  0  0
  -21.7847  -30.1101   21.3162 C   0  0  0  0  0  0  0  0  0  0  0  0
  -28.5717  -21.1062   21.7844 C   0  0  0  0  0  0  0  0  0  0  0  0
  -25.1876  -23.6191   29.7543 C   0  0  0  0  0  0  0  0  0  0  0  0
  -26.0088  -27.8474   24.8687 C   0  0  0  0  0  0  0  0  0  0  0  0
  -24.4328  -27.2301   22.4438 C   0  0  0  0  0  0  0  0  0  0  0  0
  -24.0079  -24.2101   28.9868 C   0  0  0  0  0  0  0  0  0  0  0  0
  -30.6432  -18.6517   23.3209 C   0  0  0  0  0  0  0  0  0  0  0  0
  -23.9710  -23.6656   27.5623 C   0  0  0  0  0  0  0  0  0  0  0  0
  -30.1796  -17.3379   22.6875 C   0  0  0  0  0  0  0  0  0  0  0  0
  -29.4781  -19.6125   23.5513 C   0  0  0  0  0  0  0  0  0  0  0  0
  -28.1852  -18.5638   21.7353 C   0  0  0  0  0  0  0  0  0  0  0  0
  -25.2390  -24.0516   26.7912 C   0  0  1  0  0  0  0  0  0  0  0  0
  -24.5831  -27.3107   24.9525 C   0  0  1  0  0  0  0  0  0  0  0  0
  -29.3329  -17.5893   21.4243 C   0  0  2  0  0  0  0  0  0  0  0  0
  -26.5775  -22.9292   16.1293 C   0  0  0  0  0  0  0  0  0  0  0  0
  -26.2101  -20.9591   18.2386 C   0  0  0  0  0  0  0  0  0  0  0  0
  -19.9948  -31.6508   20.4676 C   0  0  0  0  0  0  0  0  0  0  0  0
  -30.2567  -26.1335   17.5974 C   0  0  0  0  0  0  0  0  0  0  0  0
  -31.5939  -24.5315   18.9477 C   0  0  0  0  0  0  0  0  0  0  0  0
  -20.8799  -25.5294   22.8374 C   0  0  0  0  0  0  0  0  0  0  0  0
  -19.7011  -27.0658   21.2505 C   0  0  0  0  0  0  0  0  0  0  0  0
  -19.4785  -27.4074   23.7115 C   0  0  0  0  0  0  0  0  0  0  0  0
  -23.5450  -32.4769   21.5585 C   0  0  0  0  0  0  0  0  0  0  0  0
  -29.9066  -26.0151   20.0786 C   0  0  0  0  0  0  0  0  0  1  0  0
  -21.6638  -27.9753   22.5740 C   0  0  1  0  0  0  0  0  0  0  0  0
  -21.2459  -31.5294   21.3236 C   0  0  2  0  0  0  0  0  0  0  0  0
  -30.1939  -25.1726   18.8090 C   0  0  0  0  0  0  0  0  0  0  0  0
  -20.4592  -26.9924   22.5931 C   0  0  0  0  0  0  0  0  0  0  0  0
  -27.6244  -15.8271   21.1862 N   0  0  0  0  0  0  0  0  0  0  0  0
  -28.8298  -16.2929   20.8175 N   0  0  0  0  0  0  0  0  0  0  0  0
  -23.8106  -27.5663   23.7351 N   0  0  0  0  0  0  0  0  0  0  0  0
  -28.7242  -19.8061   22.3108 N   0  0  0  0  0  0  0  0  0  0  0  0
  -30.6911  -15.8264   19.4287 N   0  0  0  0  0  0  0  0  0  0  0  0
  -27.9042  -12.3626   18.6342 N   0  0  0  0  0  0  0  0  0  0  0  0
  -27.8639  -21.1630   20.5842 N   0  0  0  0  0  0  0  0  0  0  0  0
  -25.1685  -25.4316   26.3610 N   0  0  0  0  0  0  0  0  0  0  0  0
  -21.2927  -29.3715   22.3715 N   0  0  0  0  0  0  0  0  0  0  0  0
  -22.2699  -32.4749   20.7961 N   0  3  0  0  0  0  0  0  0  0  0  0
  -29.9455  -13.2676   18.1120 O   0  0  0  0  0  0  0  0  0  0  0  0
  -23.9619  -25.1016   24.3969 O   0  0  0  0  0  0  0  0  0  0  0  0
  -21.9118  -28.2189   24.9204 O   0  0  0  0  0  0  0  0  0  0  0  0
  -22.5612  -29.6969   20.4578 O   0  0  0  0  0  0  0  0  0  0  0  0
  -29.0583  -22.0933   22.3420 O   0  0  0  0  0  0  0  0  0  0  0  0
  -22.8992  -11.5651   20.9471 O   0  0  0  0  0  0  0  0  0  0  0  0
  -28.6251  -26.6370   19.9921 O   0  0  0  0  0  0  0  0  0  1  0  0
  -23.5491   -6.1115   21.4373 F   0  0  0  0  0  0  0  0  0  0  0  0
  -21.9648  -10.2199   23.1742 F   0  0  0  0  0  0  0  0  0  0  0  0
  1  2  1  0  0  0  0
  1  5  2  0  0  0  0
  2  6  2  0  0  0  0
  3  8  2  0  0  0  0
  3 17  1  0  0  0  0
  4  9  1  0  0  0  0
  4 17  2  0  0  0  0
  5 19  1  0  0  0  0
  6 21  1  0  0  0  0
  7 10  2  0  0  0  0
  7 20  1  0  0  0  0
  8 27  1  0  0  0  0
  9 27  2  0  0  0  0
 10 28  1  0  0  0  0
 11 12  2  0  0  0  0
 11 29  1  0  0  0  0
 12 30  1  0  0  0  0
 13 22  1  0  0  0  0
 13 28  2  0  0  0  0
 14 23  1  0  0  0  0
 14 24  2  0  0  0  0
 15 23  2  0  0  0  0
 15 26  1  0  0  0  0
 16 30  2  0  0  0  0
 16 31  1  0  0  0  0
 17 32  1  0  0  0  0
 18 32  1  0  0  0  0
 18 33  2  0  0  0  0
 18 34  1  0  0  0  0
 19 21  2  0  0  0  0
 19 39  1  0  0  0  0
 20 22  2  0  0  0  0
 20 40  1  0  0  0  0
 21 48  1  0  0  0  0
 22 41  1  0  0  0  0
 23 63  1  0  0  0  0
 24 25  1  0  0  0  0
 24 51  1  0  0  0  0
 25 26  2  0  0  0  0
 25 52  1  0  0  0  0
 26 71  1  0  0  0  0
 27 80  1  0  0  0  0
 28 81  1  0  0  0  0
 29 31  2  0  0  0  0
 29 80  1  0  0  0  0
 30 82  1  0  0  0  0
 31 83  1  0  0  0  0
 32 65  2  0  0  0  0
 33 66  1  0  0  0  0
 33 69  1  0  0  0  0
 34 70  1  0  0  0  0
 34 75  2  0  0  0  0
 35 49  1  0  0  0  0
 35 72  1  0  0  0  0
 35 76  2  0  0  0  0
 36 61  1  0  0  0  0
 36 67  1  0  0  0  0
 36 77  2  0  0  0  0
 37 62  1  0  0  0  0
 37 73  1  0  0  0  0
 37 78  2  0  0  0  0
 38 68  1  0  0  0  0
 38 71  1  0  0  0  0
 38 79  2  0  0  0  0
 39 42  1  0  0  0  0
 40 49  1  0  0  0  0
 41 67  1  0  0  0  0
 42 44  1  0  0  0  0
 43 45  1  0  0  0  0
 43 46  1  0  0  0  0
 44 48  1  0  0  0  0
 45 50  1  0  0  0  0
 46 68  1  0  0  0  0
 47 50  1  0  0  0  0
 47 68  1  0  0  0  0
 48 72  1  0  0  0  0
 49 67  1  0  0  0  0
 50 66  1  0  0  0  0
 53 62  1  0  0  0  0
 54 63  1  0  0  0  0
 55 63  1  0  0  0  0
 56 64  1  0  0  0  0
 57 64  1  0  0  0  0
 58 64  1  0  0  0  0
 59 74  1  0  0  0  0
 60 63  1  0  0  0  0
 60 81  1  0  0  0  0
 61 64  1  0  0  0  0
 61 73  1  0  0  0  0
 62 74  1  0  0  0  0
 65 66  1  0  0  0  0
M  CHG  1  74   1
M  ISO  4  38 100  60 101  71 100  81 101
M  END
> <Batch ID>
0019

> <Smiles>
CNC(C)C(=O)NC(C(=O)N1Cc2cc([101O:1][101CH2:1]C(C)(C)c3cc(C)c(C)c([100NH:0][100C:0](=O)N4CCCC(n5nc(-c6ccc(Oc7ccc(F)cc7F)cc6)c(C(N)=O)c5N)C4)c3)ccc2CC1C(=O)NC1CCCc2ccccc21)C(C)(C)C

> <Shape>
0.248

> <Color>
0.071

> <Negative vol penalty>
0.000

$$$$

  -OEChem-04052316073D

 84 92  0     1  0  0  0  0  0999 V2000
  -28.3834  -33.6599   24.1932 C   0  0  0  0  0  0  0  0  0  0  0  0
  -28.7542  -32.3598   24.5215 C   0  0  0  0  0  0  0  0  0  0  0  0
  -22.9951   -9.9022   19.9845 C   0  0  0  0  0  0  0  0  0  0  0  0
  -23.7131   -9.9616   22.2906 C   0  0  0  0  0  0  0  0  0  0  0  0
  -27.2020  -33.8900   23.4894 C   0  0  0  0  0  0  0  0  0  0  0  0
  -27.9431  -31.2891   24.1471 C   0  0  0  0  0  0  0  0  0  0  0  0
  -30.5897  -27.4337   22.2040 C   0  0  0  0  0  0  0  0  0  0  0  0
  -22.2234   -8.7720   20.2539 C   0  0  0  0  0  0  0  0  0  0  0  0
  -22.9413   -8.8314   22.5600 C   0  0  0  0  0  0  0  0  0  0  0  0
  -31.2584  -26.6035   23.1025 C   0  0  0  0  0  0  0  0  0  0  0  0
  -21.4441   -5.7499   23.7736 C   0  0  0  0  0  0  0  0  0  0  0  0
  -22.0237   -4.7356   24.5356 C   0  0  0  0  0  0  0  0  0  0  0  0
  -29.4773  -24.9864   22.9249 C   0  0  0  0  0  0  0  0  0  0  0  0
  -31.2295  -18.3785   23.6942 C   0  0  0  0  0  0  0  0  0  0  0  0
  -31.5269  -19.0498   21.3924 C   0  0  0  0  0  0  0  0  0  0  0  0
  -23.7545   -4.4737   22.8703 C   0  0  0  0  0  0  0  0  0  0  0  0
  -23.7400  -10.4970   21.0029 C   0  0  0  0  0  0  0  0  0  0  0  0
  -24.1356  -13.0102   20.8159 C   0  0  0  0  0  0  0  0  0  0  0  0
  -26.3810  -32.8208   23.0978 C   0  0  0  0  0  0  0  0  0  0  0  0
  -29.3524  -27.0506   21.6666 C   0  0  0  0  0  0  0  0  0  0  0  0
  -26.7489  -31.5052   23.4386 C   0  0  0  0  0  0  0  0  0  0  0  0
  -28.7961  -25.8123   22.0178 C   0  0  0  0  0  0  0  0  0  0  0  0
  -30.7173  -17.1523   23.2704 C   0  0  0  0  0  0  0  0  0  0  0  0
  -31.0148  -17.8235   20.9686 C   0  0  0  0  0  0  0  0  0  0  0  0
  -31.6342  -19.3273   22.7551 C   0  0  0  0  0  0  0  0  0  0  0  0
  -30.6100  -16.8747   21.9077 C   0  0  0  0  0  0  0  0  0  0  0  0
  -22.1964   -8.2366   21.5416 C   0  0  0  0  0  0  0  0  0  0  0  0
  -30.7009  -25.3810   23.4654 C   0  0  0  0  0  0  0  0  0  0  0  0
  -22.0195   -6.1261   22.5599 C   0  0  0  0  0  0  0  0  0  0  0  0
  -23.1790   -4.0975   24.0840 C   0  0  0  0  0  0  0  0  0  0  0  0
  -23.1748   -5.4880   22.1083 C   0  0  0  0  0  0  0  0  0  0  0  0
  -24.5379  -11.6642   20.7251 C   0  0  0  0  0  0  0  0  0  0  0  0
  -25.2493  -13.7268   20.4516 C   0  0  0  0  0  0  0  0  0  0  0  0
  -22.8685  -13.5634   21.1957 C   0  0  0  0  0  0  0  0  0  0  0  0
  -26.4013  -28.2272   21.7693 C   0  0  0  0  0  0  0  0  0  0  0  0
  -25.7992  -25.8537   19.6418 C   0  0  0  0  0  0  0  0  0  0  0  0
  -26.6808  -22.8134   18.3668 C   0  0  0  0  0  0  0  0  0  0  0  0
  -30.7316  -14.6680   20.6986 C   0  0  0  0  0  0  0  0  0  0  0  0
  -25.0895  -33.1225   22.3796 C   0  0  0  0  0  0  0  0  0  0  0  0
  -28.6565  -27.9455   20.6780 C   0  0  0  0  0  0  0  0  0  0  0  0
  -27.4799  -25.3457   21.4535 C   0  0  0  0  0  0  0  0  0  0  0  0
  -24.4753  -31.9051   21.6935 C   0  0  0  0  0  0  0  0  0  0  0  0
  -29.6114  -12.2081   18.3810 C   0  0  0  0  0  0  0  0  0  0  0  0
  -24.4781  -30.7042   22.6340 C   0  0  0  0  0  0  0  0  0  0  0  0
  -28.1585  -11.9581   18.7917 C   0  0  0  0  0  0  0  0  0  0  0  0
  -30.5089  -12.4540   19.5925 C   0  0  0  0  0  0  0  0  0  0  0  0
  -28.5924  -13.2566   20.9160 C   0  0  0  0  0  0  0  0  0  0  0  0
  -25.9081  -30.3157   23.0285 C   0  0  1  0  0  0  0  0  0  0  0  0
  -27.1560  -27.6844   20.5888 C   0  0  1  0  0  0  0  0  0  0  0  0
  -27.6378  -13.0682   19.7256 C   0  0  2  0  0  0  0  0  0  0  0  0
  -30.2917  -16.1566   24.3004 C   0  0  0  0  0  0  0  0  0  0  0  0
  -30.9110  -17.5553   19.5020 C   0  0  0  0  0  0  0  0  0  0  0  0
  -25.9758  -21.1130   16.6611 C   0  0  0  0  0  0  0  0  0  0  0  0
  -33.5268  -20.2288   25.1331 C   0  0  0  0  0  0  0  0  0  0  0  0
  -23.5416  -24.9464   21.4830 C   0  0  0  0  0  0  0  0  0  0  0  0
  -23.5122  -22.7640   20.2565 C   0  0  0  0  0  0  0  0  0  0  0  0
  -22.9894  -24.8807   19.0447 C   0  0  0  0  0  0  0  0  0  0  0  0
  -29.2293  -23.0729   16.8845 C   0  0  0  0  0  0  0  0  0  0  0  0
  -32.3949  -22.4363   24.6964 C   0  0  0  0  0  0  0  0  0  0  0  0
  -31.1497  -23.1637   24.1990 C   0  0  0  0  0  0  0  0  0  1  0  0
  -25.3728  -24.4092   19.7440 C   0  0  1  0  0  0  0  0  0  0  0  0
  -26.8452  -22.3299   16.9372 C   0  0  2  0  0  0  0  0  0  0  0  0
  -32.2868  -20.9137   24.5671 C   0  0  1  0  0  0  0  0  0  0  0  0
  -23.8779  -24.2594   20.1444 C   0  0  0  0  0  0  0  0  0  0  0  0
  -25.8079  -11.5309   20.3337 N   0  0  0  0  0  0  0  0  0  0  0  0
  -26.2133  -12.8024   20.1752 N   0  0  0  0  0  0  0  0  0  0  0  0
  -26.8349  -26.2588   20.4955 N   0  0  0  0  0  0  0  0  0  0  0  0
  -29.9553  -13.5211   20.4289 N   0  0  0  0  0  0  0  0  0  0  0  0
  -25.4882  -15.0511   20.3438 N   0  0  0  0  0  0  0  0  0  0  0  0
  -21.8322  -12.6849   21.5401 N   0  0  0  0  0  0  0  0  0  0  0  0
  -30.0885  -15.6295   21.4775 N   0  0  0  0  0  0  0  0  0  0  0  0
  -32.1424  -20.5437   23.1746 N   0  0  0  0  0  0  0  0  0  0  0  0
  -26.5490  -29.5887   21.9538 N   0  0  0  0  0  0  0  0  0  0  0  0
  -25.7142  -23.7915   18.4671 N   0  0  0  0  0  0  0  0  0  0  0  0
  -28.2654  -21.9621   16.6748 N   0  3  0  0  0  0  0  0  0  0  0  0
  -22.6565  -14.7996   21.2127 O   0  0  0  0  0  0  0  0  0  0  0  0
  -25.7332  -27.4674   22.4605 O   0  0  0  0  0  0  0  0  0  0  0  0
  -25.2389  -26.5936   18.8291 O   0  0  0  0  0  0  0  0  0  0  0  0
  -27.3411  -22.3653   19.3015 O   0  0  0  0  0  0  0  0  0  0  0  0
  -31.8723  -14.8003   20.2476 O   0  0  0  0  0  0  0  0  0  0  0  0
  -21.4433   -7.1338   21.8049 O   0  0  0  0  0  0  0  0  0  0  0  0
  -31.3512  -24.5691   24.3427 O   0  0  0  0  0  0  0  0  0  1  0  0
  -23.7364   -3.1245   24.8166 F   0  0  0  0  0  0  0  0  0  0  0  0
  -23.7328   -5.8459   20.9437 F   0  0  0  0  0  0  0  0  0  0  0  0
  1  2  1  0  0  0  0
  1  5  2  0  0  0  0
  2  6  2  0  0  0  0
  3  8  2  0  0  0  0
  3 17  1  0  0  0  0
  4  9  1  0  0  0  0
  4 17  2  0  0  0  0
  5 19  1  0  0  0  0
  6 21  1  0  0  0  0
  7 10  2  0  0  0  0
  7 20  1  0  0  0  0
  8 27  1  0  0  0  0
  9 27  2  0  0  0  0
 10 28  1  0  0  0  0
 11 12  2  0  0  0  0
 11 29  1  0  0  0  0
 12 30  1  0  0  0  0
 13 22  1  0  0  0  0
 13 28  2  0  0  0  0
 14 23  2  0  0  0  0
 14 25  1  0  0  0  0
 15 24  1  0  0  0  0
 15 25  2  0  0  0  0
 16 30  2  0  0  0  0
 16 31  1  0  0  0  0
 17 32  1  0  0  0  0
 18 32  1  0  0  0  0
 18 33  2  0  0  0  0
 18 34  1  0  0  0  0
 19 21  2  0  0  0  0
 19 39  1  0  0  0  0
 20 22  2  0  0  0  0
 20 40  1  0  0  0  0
 21 48  1  0  0  0  0
 22 41  1  0  0  0  0
 23 26  1  0  0  0  0
 23 51  1  0  0  0  0
 24 26  2  0  0  0  0
 24 52  1  0  0  0  0
 25 72  1  0  0  0  0
 26 71  1  0  0  0  0
 27 81  1  0  0  0  0
 28 82  1  0  0  0  0
 29 31  2  0  0  0  0
 29 81  1  0  0  0  0
 30 83  1  0  0  0  0
 31 84  1  0  0  0  0
 32 65  2  0  0  0  0
 33 66  1  0  0  0  0
 33 69  1  0  0  0  0
 34 70  1  0  0  0  0
 34 76  2  0  0  0  0
 35 49  1  0  0  0  0
 35 73  1  0  0  0  0
 35 77  2  0  0  0  0
 36 61  1  0  0  0  0
 36 67  1  0  0  0  0
 36 78  2  0  0  0  0
 37 62  1  0  0  0  0
 37 74  1  0  0  0  0
 37 79  2  0  0  0  0
 38 68  1  0  0  0  0
 38 71  1  0  0  0  0
 38 80  2  0  0  0  0
 39 42  1  0  0  0  0
 40 49  1  0  0  0  0
 41 67  1  0  0  0  0
 42 44  1  0  0  0  0
 43 45  1  0  0  0  0
 43 46  1  0  0  0  0
 44 48  1  0  0  0  0
 45 50  1  0  0  0  0
 46 68  1  0  0  0  0
 47 50  1  0  0  0  0
 47 68  1  0  0  0  0
 48 73  1  0  0  0  0
 49 67  1  0  0  0  0
 50 66  1  0  0  0  0
 53 62  1  0  0  0  0
 54 63  1  0  0  0  0
 55 64  1  0  0  0  0
 56 64  1  0  0  0  0
 57 64  1  0  0  0  0
 58 75  1  0  0  0  0
 59 60  1  0  0  0  0
 59 63  1  0  0  0  0
 60 82  1  0  0  0  0
 61 64  1  0  0  0  0
 61 74  1  0  0  0  0
 62 75  1  0  0  0  0
 63 72  1  0  0  0  0
 65 66  1  0  0  0  0
M  CHG  1  75   1
M  ISO  4  38 100  60 101  71 100  82 101
M  END
> <Batch ID>
0019

> <Smiles>
CNC(C)C(=O)NC(C(=O)N1Cc2cc([101O:1][101CH2:1]CC(C)Nc3cc(C)c([100NH:0][100C:0](=O)N4CCCC(n5nc(-c6ccc(Oc7ccc(F)cc7F)cc6)c(C(N)=O)c5N)C4)c(C)c3)ccc2CC1C(=O)NC1CCCc2ccccc21)C(C)(C)C

> <Shape>
0.295

> <Color>
0.203

> <Negative vol penalty>
0.000

$$$$

  -OEChem-04052316073D

 86 94  0     1  0  0  0  0  0999 V2000
  -17.4179  -17.9957   21.4788 C   0  0  0  0  0  0  0  0  0  0  0  0
  -18.7576  -18.0974   21.8397 C   0  0  0  0  0  0  0  0  0  0  0  0
  -23.2888   -9.7995   19.9126 C   0  0  0  0  0  0  0  0  0  0  0  0
  -23.7391   -9.9397   22.2821 C   0  0  0  0  0  0  0  0  0  0  0  0
  -16.4864  -17.5039   22.3923 C   0  0  0  0  0  0  0  0  0  0  0  0
  -19.1665  -17.7083   23.1148 C   0  0  0  0  0  0  0  0  0  0  0  0
  -24.4926  -15.0958   24.6356 C   0  0  0  0  0  0  0  0  0  0  0  0
  -22.5625   -8.6269   20.1200 C   0  0  0  0  0  0  0  0  0  0  0  0
  -23.0128   -8.7671   22.4896 C   0  0  0  0  0  0  0  0  0  0  0  0
  -25.6735  -15.6133   25.1661 C   0  0  0  0  0  0  0  0  0  0  0  0
  -20.9736   -6.0067   23.6896 C   0  0  0  0  0  0  0  0  0  0  0  0
  -20.0718   -5.9812   24.7534 C   0  0  0  0  0  0  0  0  0  0  0  0
  -24.9445  -14.9912   27.3799 C   0  0  0  0  0  0  0  0  0  0  0  0
  -30.5312  -15.7124   26.2973 C   0  0  0  0  0  0  0  0  0  0  0  0
  -18.8624   -7.8284   23.7724 C   0  0  0  0  0  0  0  0  0  0  0  0
  -23.8772  -10.4559   20.9937 C   0  0  0  0  0  0  0  0  0  0  0  0
  -24.1365  -12.9860   20.7955 C   0  0  0  0  0  0  0  0  0  0  0  0
  -16.8857  -17.0995   23.6759 C   0  0  0  0  0  0  0  0  0  0  0  0
  -23.5223  -14.5310   25.4758 C   0  0  0  0  0  0  0  0  0  0  0  0
  -18.2393  -17.2119   24.0468 C   0  0  0  0  0  0  0  0  0  0  0  0
  -23.7533  -14.4649   26.8573 C   0  0  0  0  0  0  0  0  0  0  0  0
  -31.1529  -15.1260   25.1950 C   0  0  0  0  0  0  0  0  0  0  0  0
  -29.7567  -14.9337   27.1573 C   0  0  0  0  0  0  0  0  0  0  0  0
  -31.0001  -13.7609   24.9525 C   0  0  0  0  0  0  0  0  0  0  0  0
  -30.2256  -12.9822   25.8124 C   0  0  0  0  0  0  0  0  0  0  0  0
  -22.4244   -8.1107   21.4085 C   0  0  0  0  0  0  0  0  0  0  0  0
  -25.8983  -15.5637   26.5387 C   0  0  0  0  0  0  0  0  0  0  0  0
  -20.8198   -6.9431   22.6672 C   0  0  0  0  0  0  0  0  0  0  0  0
  -19.0162   -6.8920   24.7948 C   0  0  0  0  0  0  0  0  0  0  0  0
  -19.7642   -7.8539   22.7086 C   0  0  0  0  0  0  0  0  0  0  0  0
  -29.6039  -13.5686   26.9148 C   0  0  0  0  0  0  0  0  0  0  0  0
  -24.6281  -11.6669   20.7799 C   0  0  0  0  0  0  0  0  0  0  0  0
  -25.2379  -13.7660   20.5409 C   0  0  0  0  0  0  0  0  0  0  0  0
  -22.8034  -13.4635   21.0202 C   0  0  0  0  0  0  0  0  0  0  0  0
  -20.4946  -15.2015   26.1739 C   0  0  0  0  0  0  0  0  0  0  0  0
  -20.6715  -12.4242   27.8407 C   0  0  0  0  0  0  0  0  0  0  0  0
  -22.6192  -10.1311   29.4514 C   0  0  0  0  0  0  0  0  0  0  0  0
  -31.1088  -12.9231   21.3614 C   0  0  0  0  0  0  0  0  0  0  0  0
  -15.8350  -16.6185   24.6451 C   0  0  0  0  0  0  0  0  0  0  0  0
  -22.2656  -13.9530   24.8851 C   0  0  0  0  0  0  0  0  0  0  0  0
  -22.7522  -13.8506   27.8001 C   0  0  0  0  0  0  0  0  0  0  0  0
  -16.4104  -15.8763   25.8485 C   0  0  0  0  0  0  0  0  0  0  0  0
  -29.4604  -13.6630   18.2935 C   0  0  0  0  0  0  0  0  0  0  0  0
  -17.5908  -16.6443   26.4349 C   0  0  0  0  0  0  0  0  0  0  0  0
  -27.9907  -13.3543   18.5842 C   0  0  0  0  0  0  0  0  0  0  0  0
  -30.3936  -12.6835   19.0018 C   0  0  0  0  0  0  0  0  0  0  0  0
  -28.7067  -12.2537   20.7464 C   0  0  0  0  0  0  0  0  0  0  0  0
  -18.7257  -16.7767   25.4121 C   0  0  1  0  0  0  0  0  0  0  0  0
  -21.1194  -13.8652   25.8881 C   0  0  1  0  0  0  0  0  0  0  0  0
  -27.7288  -13.2490   20.0987 C   0  0  2  0  0  0  0  0  0  0  0  0
  -31.9765  -15.9820   24.2898 C   0  0  0  0  0  0  0  0  0  0  0  0
  -30.0745  -11.5181   25.5357 C   0  0  0  0  0  0  0  0  0  0  0  0
  -31.0362  -14.9926   29.9841 C   0  0  0  0  0  0  0  0  0  0  0  0
  -23.2025   -8.0122   30.6628 C   0  0  0  0  0  0  0  0  0  0  0  0
  -29.3855  -17.1453   28.4480 C   0  0  0  0  0  0  0  0  0  0  0  0
  -19.6634  -13.9656   30.2733 C   0  0  0  0  0  0  0  0  0  0  0  0
  -20.4350  -12.0658   31.7098 C   0  0  0  0  0  0  0  0  0  0  0  0
  -18.6648  -11.6900   29.9929 C   0  0  0  0  0  0  0  0  0  0  0  0
  -23.1068   -8.6803   26.9184 C   0  0  0  0  0  0  0  0  0  0  0  0
  -31.6703  -13.1365   23.7694 C   0  0  0  0  0  0  0  0  0  0  0  0
  -29.5368  -14.9570   29.7017 C   0  0  0  0  0  0  0  0  0  0  0  0
  -27.5448  -15.4610   28.2518 C   0  0  0  0  0  0  0  0  0  1  0  0
  -21.0553  -12.0464   29.2509 C   0  0  1  0  0  0  0  0  0  0  0  0
  -22.6626   -8.6155   29.3755 C   0  0  2  0  0  0  0  0  0  0  0  0
  -29.0889  -15.6264   28.3625 C   0  0  2  0  0  0  0  0  0  0  0  0
  -19.9728  -12.4553   30.2895 C   0  0  0  0  0  0  0  0  0  0  0  0
  -25.9397  -11.6084   20.5346 N   0  0  0  0  0  0  0  0  0  0  0  0
  -26.2816  -12.9004   20.3936 N   0  0  0  0  0  0  0  0  0  0  0  0
  -21.5362  -13.3047   27.1750 N   0  0  0  0  0  0  0  0  0  0  0  0
  -30.0941  -12.6318   20.4348 N   0  0  0  0  0  0  0  0  0  0  0  0
  -25.4058  -15.1009   20.4307 N   0  0  0  0  0  0  0  0  0  0  0  0
  -21.7908  -12.5264   21.2673 N   0  0  0  0  0  0  0  0  0  0  0  0
  -19.4655  -15.5367   25.3148 N   0  0  0  0  0  0  0  0  0  0  0  0
  -21.3490  -10.6176   29.2251 N   0  0  0  0  0  0  0  0  0  0  0  0
  -30.7389  -12.8574   22.6991 N   0  0  0  0  0  0  0  0  0  0  0  0
  -23.5352   -8.1782   28.2493 N   0  3  0  0  0  0  0  0  0  0  0  0
  -22.5154  -14.6839   20.9860 O   0  0  0  0  0  0  0  0  0  0  0  0
  -20.9141  -15.8776   27.1058 O   0  0  0  0  0  0  0  0  0  0  0  0
  -19.6462  -11.9499   27.3453 O   0  0  0  0  0  0  0  0  0  0  0  0
  -23.6119  -10.8147   29.6915 O   0  0  0  0  0  0  0  0  0  0  0  0
  -32.2579  -13.2251   21.0215 O   0  0  0  0  0  0  0  0  0  0  0  0
  -21.7155   -6.9667   21.6113 O   0  0  0  0  0  0  0  0  0  0  0  0
  -27.0498  -16.0686   27.0593 O   0  0  0  0  0  0  0  0  0  1  0  0
  -18.1494   -6.8664   25.8157 F   0  0  0  0  0  0  0  0  0  0  0  0
  -19.6106   -8.7551   21.7287 F   0  0  0  0  0  0  0  0  0  0  0  0
  -28.6405  -12.6048   27.9844 Cl  0  0  0  0  0  0  0  0  0  0  0  0
  1  2  1  0  0  0  0
  1  5  2  0  0  0  0
  2  6  2  0  0  0  0
  3  8  2  0  0  0  0
  3 16  1  0  0  0  0
  4  9  1  0  0  0  0
  4 16  2  0  0  0  0
  5 18  1  0  0  0  0
  6 20  1  0  0  0  0
  7 10  2  0  0  0  0
  7 19  1  0  0  0  0
  8 26  1  0  0  0  0
  9 26  2  0  0  0  0
 10 27  1  0  0  0  0
 11 12  2  0  0  0  0
 11 28  1  0  0  0  0
 12 29  1  0  0  0  0
 13 21  1  0  0  0  0
 13 27  2  0  0  0  0
 14 22  2  0  0  0  0
 14 23  1  0  0  0  0
 15 29  2  0  0  0  0
 15 30  1  0  0  0  0
 16 32  1  0  0  0  0
 17 32  1  0  0  0  0
 17 33  2  0  0  0  0
 17 34  1  0  0  0  0
 18 20  2  0  0  0  0
 18 39  1  0  0  0  0
 19 21  2  0  0  0  0
 19 40  1  0  0  0  0
 20 48  1  0  0  0  0
 21 41  1  0  0  0  0
 22 24  1  0  0  0  0
 22 51  1  0  0  0  0
 23 31  2  0  0  0  0
 23 65  1  0  0  0  0
 24 25  2  0  0  0  0
 24 60  1  0  0  0  0
 25 31  1  0  0  0  0
 25 52  1  0  0  0  0
 26 82  1  0  0  0  0
 27 83  1  0  0  0  0
 28 30  2  0  0  0  0
 28 82  1  0  0  0  0
 29 84  1  0  0  0  0
 30 85  1  0  0  0  0
 31 86  1  0  0  0  0
 32 67  2  0  0  0  0
 33 68  1  0  0  0  0
 33 71  1  0  0  0  0
 34 72  1  0  0  0  0
 34 77  2  0  0  0  0
 35 49  1  0  0  0  0
 35 73  1  0  0  0  0
 35 78  2  0  0  0  0
 36 63  1  0  0  0  0
 36 69  1  0  0  0  0
 36 79  2  0  0  0  0
 37 64  1  0  0  0  0
 37 74  1  0  0  0  0
 37 80  2  0  0  0  0
 38 70  1  0  0  0  0
 38 75  1  0  0  0  0
 38 81  2  0  0  0  0
 39 42  1  0  0  0  0
 40 49  1  0  0  0  0
 41 69  1  0  0  0  0
 42 44  1  0  0  0  0
 43 45  1  0  0  0  0
 43 46  1  0  0  0  0
 44 48  1  0  0  0  0
 45 50  1  0  0  0  0
 46 70  1  0  0  0  0
 47 50  1  0  0  0  0
 47 70  1  0  0  0  0
 48 73  1  0  0  0  0
 49 69  1  0  0  0  0
 50 68  1  0  0  0  0
 53 61  1  0  0  0  0
 54 64  1  0  0  0  0
 55 65  1  0  0  0  0
 56 66  1  0  0  0  0
 57 66  1  0  0  0  0
 58 66  1  0  0  0  0
 59 76  1  0  0  0  0
 60 75  1  0  0  0  0
 61 65  1  0  0  0  0
 62 65  1  0  0  0  0
 62 83  1  0  0  0  0
 63 66  1  0  0  0  0
 63 74  1  0  0  0  0
 64 76  1  0  0  0  0
 67 68  1  0  0  0  0
M  CHG  1  76   1
M  ISO  4  38 100  62 101  75 100  83 101
M  END
> <Batch ID>
0019

> <Smiles>
CCC(C)(c1cc(C)c(C[100NH:0][100C:0](=O)N2CCCC(n3nc(-c4ccc(Oc5ccc(F)cc5F)cc4)c(C(N)=O)c3N)C2)c(C)c1Cl)[101CH2:1][101O:1]c1ccc2c(c1)CN(C(=O)C(NC(=O)C(C)NC)C(C)(C)C)C(C(=O)NC1CCCc3ccccc31)C2

> <Shape>
0.128

> <Color>
0.174

> <Negative vol penalty>
0.000

$$$$

  -OEChem-04052316073D

 84 93  0     1  0  0  0  0  0999 V2000
  -24.1787  -22.0201   31.1028 C   0  0  0  0  0  0  0  0  0  0  0  0
  -25.1825  -21.8808   30.1496 C   0  0  0  0  0  0  0  0  0  0  0  0
  -23.0989   -9.8422   21.4291 C   0  0  0  0  0  0  0  0  0  0  0  0
  -23.8533  -10.7074   23.5549 C   0  0  0  0  0  0  0  0  0  0  0  0
  -23.2172  -23.0195   30.9600 C   0  0  0  0  0  0  0  0  0  0  0  0
  -25.2246  -22.7404   29.0524 C   0  0  0  0  0  0  0  0  0  0  0  0
  -30.2271  -24.8618   26.2275 C   0  0  0  0  0  0  0  0  0  0  0  0
  -22.3898   -8.8387   22.0891 C   0  0  0  0  0  0  0  0  0  0  0  0
  -23.1442   -9.7039   24.2150 C   0  0  0  0  0  0  0  0  0  0  0  0
  -30.8894  -24.4629   25.0673 C   0  0  0  0  0  0  0  0  0  0  0  0
  -20.6720   -5.8324   23.2004 C   0  0  0  0  0  0  0  0  0  0  0  0
  -20.7685   -4.5331   22.7023 C   0  0  0  0  0  0  0  0  0  0  0  0
  -29.6920  -26.1407   23.8141 C   0  0  0  0  0  0  0  0  0  0  0  0
  -29.5310  -18.3493   21.0961 C   0  0  0  0  0  0  0  0  0  0  0  0
  -23.1566   -4.5708   23.0665 C   0  0  0  0  0  0  0  0  0  0  0  0
  -31.9819  -18.9065   20.0508 C   0  0  0  0  0  0  0  0  0  0  0  0
  -23.8307  -10.7766   22.1620 C   0  0  0  0  0  0  0  0  0  0  0  0
  -24.0962  -13.0927   21.1262 C   0  0  0  0  0  0  0  0  0  0  0  0
  -23.2532  -23.8979   29.8656 C   0  0  0  0  0  0  0  0  0  0  0  0
  -29.2827  -25.8976   26.1876 C   0  0  0  0  0  0  0  0  0  0  0  0
  -24.2618  -23.7517   28.8941 C   0  0  0  0  0  0  0  0  0  0  0  0
  -29.0210  -26.5526   24.9757 C   0  0  0  0  0  0  0  0  0  0  0  0
  -29.9575  -19.6792   21.0389 C   0  0  0  0  0  0  0  0  0  0  0  0
  -31.2289  -19.9771   20.5330 C   0  0  0  0  0  0  0  0  0  0  0  0
  -22.4124   -8.7695   23.4820 C   0  0  0  0  0  0  0  0  0  0  0  0
  -30.6198  -25.1004   23.8598 C   0  0  0  0  0  0  0  0  0  0  0  0
  -21.8178   -6.5009   23.6315 C   0  0  0  0  0  0  0  0  0  0  0  0
  -22.0107   -3.9023   22.6354 C   0  0  0  0  0  0  0  0  0  0  0  0
  -23.0601   -5.8701   23.5646 C   0  0  0  0  0  0  0  0  0  0  0  0
  -24.5639  -11.8131   21.4807 C   0  0  0  0  0  0  0  0  0  0  0  0
  -30.3743  -17.3662   20.6073 C   0  0  0  0  0  0  0  0  0  0  0  0
  -25.1659  -13.6893   20.5047 C   0  0  0  0  0  0  0  0  0  0  0  0
  -22.8098  -13.6887   21.3397 C   0  0  0  0  0  0  0  0  0  0  0  0
  -26.1713  -26.1210   26.7981 C   0  0  0  0  0  0  0  0  0  0  0  0
  -26.6989  -29.2839   26.3084 C   0  0  0  0  0  0  0  0  0  0  0  0
  -28.6198  -31.7126   24.8738 C   0  0  0  0  0  0  0  0  0  0  0  0
  -30.5975  -14.8845   20.2365 C   0  0  0  0  0  0  0  0  0  0  0  0
  -22.1645  -24.9327   29.7292 C   0  0  0  0  0  0  0  0  0  0  0  0
  -28.5965  -26.3339   27.4529 C   0  0  0  0  0  0  0  0  0  0  0  0
  -29.0627  -20.7740   21.5459 C   0  0  0  0  0  0  0  0  0  0  0  0
  -28.0308  -27.6837   24.8833 C   0  0  0  0  0  0  0  0  0  0  0  0
  -22.4987  -26.0409   28.7339 C   0  0  0  0  0  0  0  0  0  0  0  0
  -29.5618  -11.7419   18.9218 C   0  0  0  0  0  0  0  0  0  0  0  0
  -23.0543  -25.4490   27.4426 C   0  0  0  0  0  0  0  0  0  0  0  0
  -28.1307  -11.5855   19.4412 C   0  0  0  0  0  0  0  0  0  0  0  0
  -30.4670  -12.4197   19.9489 C   0  0  0  0  0  0  0  0  0  0  0  0
  -28.5360  -13.5425   20.9881 C   0  0  0  0  0  0  0  0  0  0  0  0
  -29.3364  -22.0877   20.8320 C   0  0  0  0  0  0  0  0  0  0  0  0
  -24.3555  -24.6805   27.7030 C   0  0  1  0  0  0  0  0  0  0  0  0
  -31.7530  -21.3978   20.4692 C   0  0  2  0  0  0  0  0  0  0  0  0
  -27.2770  -27.0561   27.1986 C   0  0  1  0  0  0  0  0  0  0  0  0
  -27.5714  -12.9234   19.9634 C   0  0  2  0  0  0  0  0  0  0  0  0
  -33.0772  -21.5276   21.2356 C   0  0  0  0  0  0  0  0  0  0  0  0
  -28.7793  -34.2040   24.6191 C   0  0  0  0  0  0  0  0  0  0  0  0
  -24.4343  -29.2175   24.2647 C   0  0  0  0  0  0  0  0  0  0  0  0
  -25.2572  -31.4123   23.3850 C   0  0  0  0  0  0  0  0  0  0  0  0
  -24.4501  -31.2376   25.7389 C   0  0  0  0  0  0  0  0  0  0  0  0
  -31.2568  -31.7974   26.2146 C   0  0  0  0  0  0  0  0  0  0  0  0
  -31.0541  -23.8429   20.4937 C   0  0  0  0  0  0  0  0  0  0  0  0
  -30.5626  -24.8712   21.4934 C   0  0  0  0  0  0  0  0  0  1  0  0
  -26.6678  -30.1998   25.1088 C   0  0  1  0  0  0  0  0  0  0  0  0
  -29.2079  -32.9946   25.4353 C   0  0  2  0  0  0  0  0  0  0  0  0
  -25.2196  -30.4942   24.6254 C   0  0  0  0  0  0  0  0  0  0  0  0
  -31.5893  -17.6122   20.0770 N   0  0  0  0  0  0  0  0  0  0  0  0
  -25.8320  -11.6080   21.1147 N   0  0  0  0  0  0  0  0  0  0  0  0
  -26.1701  -12.7666   20.5237 N   0  0  0  0  0  0  0  0  0  0  0  0
  -27.3810  -28.0696   26.1468 N   0  0  0  0  0  0  0  0  0  0  0  0
  -29.8752  -13.6829   20.3950 N   0  0  0  0  0  0  0  0  0  0  0  0
  -25.3360  -14.9078   19.9492 N   0  0  0  0  0  0  0  0  0  0  0  0
  -21.8251  -12.9363   21.9944 N   0  0  0  0  0  0  0  0  0  0  0  0
  -29.9207  -16.0252   20.6670 N   0  0  0  0  0  0  0  0  0  0  0  0
  -25.4619  -25.5996   27.8632 N   0  0  0  0  0  0  0  0  0  0  0  0
  -27.4261  -31.3886   25.4831 N   0  0  0  0  0  0  0  0  0  0  0  0
  -30.7878  -22.4580   21.0317 N   0  3  1  0  0  0  0  0  0  0  0  0
  -30.6967  -32.9274   25.4297 N   0  3  0  0  0  0  0  0  0  0  0  0
  -22.5362  -14.8480   20.9464 O   0  0  0  0  0  0  0  0  0  0  0  0
  -25.9751  -25.8907   25.6105 O   0  0  0  0  0  0  0  0  0  0  0  0
  -26.1447  -29.6361   27.3527 O   0  0  0  0  0  0  0  0  0  0  0  0
  -29.1631  -31.0656   23.9812 O   0  0  0  0  0  0  0  0  0  0  0  0
  -31.7220  -14.9036   19.7293 O   0  0  0  0  0  0  0  0  0  0  0  0
  -21.7203   -7.7906   24.1265 O   0  0  0  0  0  0  0  0  0  0  0  0
  -31.2643  -24.7126   22.7258 O   0  0  0  0  0  0  0  0  0  1  0  0
  -22.1030   -2.6540   22.1585 F   0  0  0  0  0  0  0  0  0  0  0  0
  -24.1642   -6.5069   23.9783 F   0  0  0  0  0  0  0  0  0  0  0  0
  1  2  1  0  0  0  0
  1  5  2  0  0  0  0
  2  6  2  0  0  0  0
  3  8  2  0  0  0  0
  3 17  1  0  0  0  0
  4  9  1  0  0  0  0
  4 17  2  0  0  0  0
  5 19  1  0  0  0  0
  6 21  1  0  0  0  0
  7 10  2  0  0  0  0
  7 20  1  0  0  0  0
  8 25  1  0  0  0  0
  9 25  2  0  0  0  0
 10 26  1  0  0  0  0
 11 12  2  0  0  0  0
 11 27  1  0  0  0  0
 12 28  1  0  0  0  0
 13 22  1  0  0  0  0
 13 26  2  0  0  0  0
 14 23  1  0  0  0  0
 14 31  2  0  0  0  0
 15 28  2  0  0  0  0
 15 29  1  0  0  0  0
 16 24  1  0  0  0  0
 16 64  2  0  0  0  0
 17 30  1  0  0  0  0
 18 30  1  0  0  0  0
 18 32  2  0  0  0  0
 18 33  1  0  0  0  0
 19 21  2  0  0  0  0
 19 38  1  0  0  0  0
 20 22  2  0  0  0  0
 20 39  1  0  0  0  0
 21 49  1  0  0  0  0
 22 41  1  0  0  0  0
 23 24  2  0  0  0  0
 23 40  1  0  0  0  0
 24 50  1  0  0  0  0
 25 81  1  0  0  0  0
 26 82  1  0  0  0  0
 27 29  2  0  0  0  0
 27 81  1  0  0  0  0
 28 83  1  0  0  0  0
 29 84  1  0  0  0  0
 30 65  2  0  0  0  0
 31 64  1  0  0  0  0
 31 71  1  0  0  0  0
 32 66  1  0  0  0  0
 32 69  1  0  0  0  0
 33 70  1  0  0  0  0
 33 76  2  0  0  0  0
 34 51  1  0  0  0  0
 34 72  1  0  0  0  0
 34 77  2  0  0  0  0
 35 61  1  0  0  0  0
 35 67  1  0  0  0  0
 35 78  2  0  0  0  0
 36 62  1  0  0  0  0
 36 73  1  0  0  0  0
 36 79  2  0  0  0  0
 37 68  1  0  0  0  0
 37 71  1  0  0  0  0
 37 80  2  0  0  0  0
 38 42  1  0  0  0  0
 39 51  1  0  0  0  0
 40 48  1  0  0  0  0
 41 67  1  0  0  0  0
 42 44  1  0  0  0  0
 43 45  1  0  0  0  0
 43 46  1  0  0  0  0
 44 49  1  0  0  0  0
 45 52  1  0  0  0  0
 46 68  1  0  0  0  0
 47 52  1  0  0  0  0
 47 68  1  0  0  0  0
 48 74  1  0  0  0  0
 49 72  1  0  0  0  0
 50 53  1  0  0  0  0
 50 74  1  0  0  0  0
 51 67  1  0  0  0  0
 52 66  1  0  0  0  0
 54 62  1  0  0  0  0
 55 63  1  0  0  0  0
 56 63  1  0  0  0  0
 57 63  1  0  0  0  0
 58 75  1  0  0  0  0
 59 60  1  0  0  0  0
 59 74  1  0  0  0  0
 60 82  1  0  0  0  0
 61 63  1  0  0  0  0
 61 73  1  0  0  0  0
 62 75  1  0  0  0  0
 65 66  1  0  0  0  0
M  CHG  2  74   1  75   1
M  ISO  4  37 100  60 101  71 100  82 101
M  END
> <Batch ID>
0019

> <Smiles>
CNC(C)C(=O)NC(C(=O)N1Cc2cc([101O:1][101CH2:1]CN3CCc4cc([100NH:0][100C:0](=O)N5CCCC(n6nc(-c7ccc(Oc8ccc(F)cc8F)cc7)c(C(N)=O)c6N)C5)ncc4C3C)ccc2CC1C(=O)NC1CCCc2ccccc21)C(C)(C)C

> <Shape>
0.232

> <Color>
0.151

> <Negative vol penalty>
0.000

$$$$

  -OEChem-04052316073D

 78 86  0     1  0  0  0  0  0999 V2000
  -30.6640  -31.3123   25.6284 C   0  0  0  0  0  0  0  0  0  0  0  0
  -30.4587  -30.0107   25.1823 C   0  0  0  0  0  0  0  0  0  0  0  0
  -24.6100   -9.1991   21.9653 C   0  0  0  0  0  0  0  0  0  0  0  0
  -23.0964  -10.0844   20.3032 C   0  0  0  0  0  0  0  0  0  0  0  0
  -29.6133  -32.2286   25.6090 C   0  0  0  0  0  0  0  0  0  0  0  0
  -29.2021  -29.6242   24.7175 C   0  0  0  0  0  0  0  0  0  0  0  0
  -28.0050  -25.6600   20.2056 C   0  0  0  0  0  0  0  0  0  0  0  0
  -23.5573   -8.4938   22.5482 C   0  0  0  0  0  0  0  0  0  0  0  0
  -22.0437   -9.3790   20.8862 C   0  0  0  0  0  0  0  0  0  0  0  0
  -27.6557  -24.3103   20.2109 C   0  0  0  0  0  0  0  0  0  0  0  0
  -21.8331   -5.6471   21.9507 C   0  0  0  0  0  0  0  0  0  0  0  0
  -22.0604   -4.3166   22.3023 C   0  0  0  0  0  0  0  0  0  0  0  0
  -25.3270  -24.9184   20.0487 C   0  0  0  0  0  0  0  0  0  0  0  0
  -21.5667   -4.8416   24.6083 C   0  0  0  0  0  0  0  0  0  0  0  0
  -24.3796   -9.9945   20.8428 C   0  0  0  0  0  0  0  0  0  0  0  0
  -26.3267  -10.2778   19.2192 C   0  0  0  0  0  0  0  0  0  0  0  0
  -28.3457  -31.8558   25.1347 C   0  0  0  0  0  0  0  0  0  0  0  0
  -27.0155  -26.6510   20.1326 C   0  0  0  0  0  0  0  0  0  0  0  0
  -28.1331  -30.5360   24.6930 C   0  0  0  0  0  0  0  0  0  0  0  0
  -25.6664  -26.2799   20.0399 C   0  0  0  0  0  0  0  0  0  0  0  0
  -22.2741   -8.5837   22.0087 C   0  0  0  0  0  0  0  0  0  0  0  0
  -26.3164  -23.9393   20.1354 C   0  0  0  0  0  0  0  0  0  0  0  0
  -21.4727   -6.5750   22.9279 C   0  0  0  0  0  0  0  0  0  0  0  0
  -21.9272   -3.9138   23.6310 C   0  0  0  0  0  0  0  0  0  0  0  0
  -21.3395   -6.1722   24.2567 C   0  0  0  0  0  0  0  0  0  0  0  0
  -25.4665  -10.7238   20.2404 C   0  0  0  0  0  0  0  0  0  0  0  0
  -27.1794  -11.3327   19.0035 C   0  0  0  0  0  0  0  0  0  0  0  0
  -26.3527   -9.0222   18.5274 C   0  0  0  0  0  0  0  0  0  0  0  0
  -26.0699  -29.0207   22.0284 C   0  0  0  0  0  0  0  0  0  0  0  0
  -24.1671  -29.7579   19.5068 C   0  0  0  0  0  0  0  0  0  0  0  0
  -22.5545  -28.7059   16.6890 C   0  0  0  0  0  0  0  0  0  0  0  0
  -28.2122  -16.5625   18.2663 C   0  0  0  0  0  0  0  0  0  0  0  0
  -27.2283  -32.8679   25.1771 C   0  0  0  0  0  0  0  0  0  0  0  0
  -27.4103  -28.1020   20.1008 C   0  0  0  0  0  0  0  0  0  0  0  0
  -24.5672  -27.3047   19.9394 C   0  0  0  0  0  0  0  0  0  0  0  0
  -26.0256  -32.4837   24.3190 C   0  0  0  0  0  0  0  0  0  0  0  0
  -27.9267  -15.5709   21.6437 C   0  0  0  0  0  0  0  0  0  0  0  0
  -25.6456  -31.0253   24.5549 C   0  0  0  0  0  0  0  0  0  0  0  0
  -27.3181  -14.1767   21.4993 C   0  0  0  0  0  0  0  0  0  0  0  0
  -27.1618  -19.9287   17.8057 C   0  0  0  0  0  0  0  0  0  0  0  0
  -28.2513  -19.6217   20.0697 C   0  0  0  0  0  0  0  0  0  0  0  0
  -26.2556  -21.0076   18.3926 C   0  0  0  0  0  0  0  0  0  0  0  0
  -27.3424  -20.7024   20.6493 C   0  0  0  0  0  0  0  0  0  0  0  0
  -27.3293  -16.5648   20.6458 C   0  0  0  0  0  0  0  0  0  0  0  0
  -26.7846  -14.7161   19.0939 C   0  0  0  0  0  0  0  0  0  0  0  0
  -26.7908  -30.0858   24.1583 C   0  0  1  0  0  0  0  0  0  0  0  0
  -26.2879  -29.0364   20.5418 C   0  0  1  0  0  0  0  0  0  0  0  0
  -27.4104  -13.6841   20.0447 C   0  0  2  0  0  0  0  0  0  0  0  0
  -27.5962  -18.9227   18.8755 C   0  0  0  0  0  0  0  0  0  0  0  0
  -26.9083  -21.7064   19.5830 C   0  0  0  0  0  0  0  0  0  1  0  0
  -21.0466  -29.5279   14.8593 C   0  0  0  0  0  0  0  0  0  0  0  0
  -21.8042  -29.7118   21.4368 C   0  0  0  0  0  0  0  0  0  0  0  0
  -20.2782  -29.5874   19.4558 C   0  0  0  0  0  0  0  0  0  0  0  0
  -21.7529  -31.5748   19.7692 C   0  0  0  0  0  0  0  0  0  0  0  0
  -29.5899  -18.4676   17.5241 C   0  0  0  0  0  0  0  0  0  0  0  0
  -24.5493  -28.0651   14.5987 C   0  0  0  0  0  0  0  0  0  0  0  0
  -22.7751  -29.3711   19.0688 C   0  0  1  0  0  0  0  0  0  0  0  0
  -22.4858  -29.2911   15.2900 C   0  0  2  0  0  0  0  0  0  0  0  0
  -21.6730  -30.0418   19.9365 C   0  0  0  0  0  0  0  0  0  0  0  0
  -25.7471  -11.9652   20.6455 N   0  0  0  0  0  0  0  0  0  0  0  0
  -26.7933  -12.3083   19.8749 N   0  0  0  0  0  0  0  0  0  0  0  0
  -25.0036  -28.7106   19.9184 N   0  0  0  0  0  0  0  0  0  0  0  0
  -27.3946  -16.0354   19.2767 N   0  0  0  0  0  0  0  0  0  0  0  0
  -28.2143  -11.5117   18.1553 N   0  0  0  0  0  0  0  0  0  0  0  0
  -25.4051   -8.0492   18.8732 N   0  0  0  0  0  0  0  0  0  0  0  0
  -26.8439  -29.9327   22.7202 N   0  0  0  0  0  0  0  0  0  0  0  0
  -22.6917  -29.6880   17.6472 N   0  0  0  0  0  0  0  0  0  0  0  0
  -28.4890  -17.9370   18.3158 N   0  0  0  0  0  0  0  0  0  0  0  0
  -23.1236  -28.3670   14.3101 N   0  3  0  0  0  0  0  0  0  0  0  0
  -27.2018   -8.7646   17.6407 O   0  0  0  0  0  0  0  0  0  0  0  0
  -25.2584  -28.2400   22.5118 O   0  0  0  0  0  0  0  0  0  0  0  0
  -24.5023  -30.9447   19.4778 O   0  0  0  0  0  0  0  0  0  0  0  0
  -22.4891  -27.4987   16.9101 O   0  0  0  0  0  0  0  0  0  0  0  0
  -28.6645  -15.8466   17.3634 O   0  0  0  0  0  0  0  0  0  0  0  0
  -21.2467   -7.8954   22.5771 O   0  0  0  0  0  0  0  0  0  0  0  0
  -25.9727  -22.6226   20.1411 O   0  0  0  0  0  0  0  0  0  1  0  0
  -22.1439   -2.6358   23.9683 F   0  0  0  0  0  0  0  0  0  0  0  0
  -20.9923   -7.0587   25.1997 F   0  0  0  0  0  0  0  0  0  0  0  0
  1  2  1  0  0  0  0
  1  5  2  0  0  0  0
  2  6  2  0  0  0  0
  3  8  2  0  0  0  0
  3 15  1  0  0  0  0
  4  9  1  0  0  0  0
  4 15  2  0  0  0  0
  5 17  1  0  0  0  0
  6 19  1  0  0  0  0
  7 10  2  0  0  0  0
  7 18  1  0  0  0  0
  8 21  1  0  0  0  0
  9 21  2  0  0  0  0
 10 22  1  0  0  0  0
 11 12  2  0  0  0  0
 11 23  1  0  0  0  0
 12 24  1  0  0  0  0
 13 20  1  0  0  0  0
 13 22  2  0  0  0  0
 14 24  2  0  0  0  0
 14 25  1  0  0  0  0
 15 26  1  0  0  0  0
 16 26  1  0  0  0  0
 16 27  2  0  0  0  0
 16 28  1  0  0  0  0
 17 19  2  0  0  0  0
 17 33  1  0  0  0  0
 18 20  2  0  0  0  0
 18 34  1  0  0  0  0
 19 46  1  0  0  0  0
 20 35  1  0  0  0  0
 21 75  1  0  0  0  0
 22 76  1  0  0  0  0
 23 25  2  0  0  0  0
 23 75  1  0  0  0  0
 24 77  1  0  0  0  0
 25 78  1  0  0  0  0
 26 60  2  0  0  0  0
 27 61  1  0  0  0  0
 27 64  1  0  0  0  0
 28 65  1  0  0  0  0
 28 70  2  0  0  0  0
 29 47  1  0  0  0  0
 29 66  1  0  0  0  0
 29 71  2  0  0  0  0
 30 57  1  0  0  0  0
 30 62  1  0  0  0  0
 30 72  2  0  0  0  0
 31 58  1  0  0  0  0
 31 67  1  0  0  0  0
 31 73  2  0  0  0  0
 32 63  1  0  0  0  0
 32 68  1  0  0  0  0
 32 74  2  0  0  0  0
 33 36  1  0  0  0  0
 34 47  1  0  0  0  0
 35 62  1  0  0  0  0
 36 38  1  0  0  0  0
 37 39  1  0  0  0  0
 37 44  1  0  0  0  0
 38 46  1  0  0  0  0
 39 48  1  0  0  0  0
 40 42  1  0  0  0  0
 40 49  1  0  0  0  0
 41 43  1  0  0  0  0
 41 49  1  0  0  0  0
 42 50  1  0  0  0  0
 43 50  1  0  0  0  0
 44 63  1  0  0  0  0
 45 48  1  0  0  0  0
 45 63  1  0  0  0  0
 46 66  1  0  0  0  0
 47 62  1  0  0  0  0
 48 61  1  0  0  0  0
 49 68  1  0  0  0  0
 50 76  1  0  0  0  0
 51 58  1  0  0  0  0
 52 59  1  0  0  0  0
 53 59  1  0  0  0  0
 54 59  1  0  0  0  0
 55 68  1  0  0  0  0
 56 69  1  0  0  0  0
 57 59  1  0  0  0  0
 57 67  1  0  0  0  0
 58 69  1  0  0  0  0
 60 61  1  0  0  0  0
M  CHG  1  69   1
M  ISO  4  32 100  50 101  68 100  76 101
M  END
> <Batch ID>
0019

> <Smiles>
CNC(C)C(=O)NC(C(=O)N1Cc2cc([101O:1][101CH:1]3CCC([100N:0](C)[100C:0](=O)N4CCCC(n5nc(-c6ccc(Oc7ccc(F)cc7F)cc6)c(C(N)=O)c5N)C4)CC3)ccc2CC1C(=O)NC1CCCc2ccccc21)C(C)(C)C

> <Shape>
0.271

> <Color>
0.072

> <Negative vol penalty>
0.000

$$$$

  -OEChem-04052316073D

 81 89  0     1  0  0  0  0  0999 V2000
  -19.9316  -25.0137   24.5914 C   0  0  0  0  0  0  0  0  0  0  0  0
  -21.0341  -24.9952   23.7432 C   0  0  0  0  0  0  0  0  0  0  0  0
  -29.2704  -11.9297   17.6588 C   0  0  0  0  0  0  0  0  0  0  0  0
  -30.5703  -12.7275   19.5326 C   0  0  0  0  0  0  0  0  0  0  0  0
  -18.9848  -26.0311   24.4799 C   0  0  0  0  0  0  0  0  0  0  0  0
  -21.1900  -25.9936   22.7823 C   0  0  0  0  0  0  0  0  0  0  0  0
  -25.9254  -27.7776   22.5849 C   0  0  0  0  0  0  0  0  0  0  0  0
  -30.2514  -10.9772   17.3837 C   0  0  0  0  0  0  0  0  0  0  0  0
  -31.5514  -11.7749   19.2575 C   0  0  0  0  0  0  0  0  0  0  0  0
  -26.8717  -26.9995   21.9195 C   0  0  0  0  0  0  0  0  0  0  0  0
  -33.2845  -10.8843   15.8949 C   0  0  0  0  0  0  0  0  0  0  0  0
  -33.6763  -10.7237   14.5659 C   0  0  0  0  0  0  0  0  0  0  0  0
  -26.6536  -28.4089   19.9739 C   0  0  0  0  0  0  0  0  0  0  0  0
  -32.9762   -8.4125   14.6388 C   0  0  0  0  0  0  0  0  0  0  0  0
  -29.4298  -12.8049   18.7332 C   0  0  0  0  0  0  0  0  0  0  0  0
  -27.2977  -13.6395   19.8581 C   0  0  0  0  0  0  0  0  0  0  0  0
  -19.1342  -27.0479   23.5236 C   0  0  0  0  0  0  0  0  0  0  0  0
  -25.3270  -28.8725   21.9449 C   0  0  0  0  0  0  0  0  0  0  0  0
  -20.2437  -27.0249   22.6571 C   0  0  0  0  0  0  0  0  0  0  0  0
  -25.7019  -29.2008   20.6343 C   0  0  0  0  0  0  0  0  0  0  0  0
  -31.3919  -10.8997   18.1831 C   0  0  0  0  0  0  0  0  0  0  0  0
  -27.2338  -27.3133   20.6128 C   0  0  0  0  0  0  0  0  0  0  0  0
  -32.7386   -9.8090   16.5959 C   0  0  0  0  0  0  0  0  0  0  0  0
  -33.5221   -9.4879   13.9378 C   0  0  0  0  0  0  0  0  0  0  0  0
  -32.5844   -8.5731   15.9679 C   0  0  0  0  0  0  0  0  0  0  0  0
  -28.4169  -13.7895   19.0175 C   0  0  0  0  0  0  0  0  0  0  0  0
  -26.6530  -14.8504   19.7909 C   0  0  0  0  0  0  0  0  0  0  0  0
  -26.8784  -12.5068   20.6307 C   0  0  0  0  0  0  0  0  0  0  0  0
  -22.3548  -29.6379   21.1181 C   0  0  0  0  0  0  0  0  0  0  0  0
  -23.7268  -32.4578   20.2889 C   0  0  0  0  0  0  0  0  0  0  0  0
  -26.5430  -34.1474   19.3609 C   0  0  0  0  0  0  0  0  0  0  0  0
  -28.6169  -20.2920   18.6129 C   0  0  0  0  0  0  0  0  0  0  0  0
  -18.0601  -28.1005   23.4094 C   0  0  0  0  0  0  0  0  0  0  0  0
  -24.3276  -29.7179   22.6858 C   0  0  0  0  0  0  0  0  0  0  0  0
  -25.1040  -30.3782   19.9098 C   0  0  0  0  0  0  0  0  0  0  0  0
  -18.4936  -29.3293   22.6141 C   0  0  0  0  0  0  0  0  0  0  0  0
  -25.9636  -18.5680   16.8563 C   0  0  0  0  0  0  0  0  0  0  0  0
  -19.1906  -28.9111   21.3233 C   0  0  0  0  0  0  0  0  0  0  0  0
  -26.1942  -17.1223   17.3003 C   0  0  0  0  0  0  0  0  0  0  0  0
  -27.7472  -23.9320   18.6453 C   0  0  0  0  0  0  0  0  0  0  0  0
  -30.0721  -23.2645   18.2805 C   0  0  0  0  0  0  0  0  0  0  0  0
  -27.2861  -19.3015   16.6531 C   0  0  0  0  0  0  0  0  0  0  0  0
  -28.4190  -17.8433   18.2853 C   0  0  0  0  0  0  0  0  0  0  0  0
  -20.4606  -28.1040   21.6186 C   0  0  1  0  0  0  0  0  0  0  0  0
  -23.4041  -30.5019   21.7585 C   0  0  1  0  0  0  0  0  0  0  0  0
  -28.5762  -25.1064   18.0993 C   0  0  2  0  0  0  0  0  0  0  0  0
  -27.1197  -17.0545   18.5295 C   0  0  2  0  0  0  0  0  0  0  0  0
  -28.7274  -22.7630   18.8108 C   0  0  2  0  0  0  0  0  0  0  0  0
  -30.0335  -24.7872   18.5098 C   0  0  0  0  0  0  0  0  0  0  0  0
  -30.3460  -25.1256   19.9783 C   0  0  0  0  0  0  0  0  0  0  0  0
  -31.0499  -25.4997   17.6102 C   0  0  0  0  0  0  0  0  0  0  0  0
  -27.3441  -36.4360   18.7146 C   0  0  0  0  0  0  0  0  0  0  0  0
  -28.8526  -27.5931   17.9310 C   0  0  0  0  0  0  0  0  0  0  0  0
  -26.5575  -26.6013   18.1720 C   0  0  0  0  0  0  0  0  0  0  0  0
  -22.4604  -32.1203   17.5335 C   0  0  0  0  0  0  0  0  0  0  0  0
  -24.0279  -33.8737   16.6752 C   0  0  0  0  0  0  0  0  0  0  0  0
  -22.3675  -34.4467   18.4464 C   0  0  0  0  0  0  0  0  0  0  0  0
  -28.4153  -34.2652   21.6499 C   0  0  0  0  0  0  0  0  0  0  0  0
  -24.3625  -33.0098   19.0358 C   0  0  1  0  0  0  0  0  0  0  0  0
  -27.1449  -35.4503   19.8554 C   0  0  2  0  0  0  0  0  0  0  0  0
  -28.0331  -26.4586   18.5423 C   0  0  0  0  0  0  0  0  0  1  0  0
  -23.3146  -33.3393   17.9354 C   0  0  0  0  0  0  0  0  0  0  0  0
  -28.4824  -15.0002   18.4573 N   0  0  0  0  0  0  0  0  0  0  0  0
  -27.3961  -15.6220   18.9467 N   0  0  0  0  0  0  0  0  0  0  0  0
  -24.1266  -31.1704   20.6743 N   0  0  0  0  0  0  0  0  0  0  0  0
  -28.1120  -19.2148   17.8658 N   0  0  0  0  0  0  0  0  0  0  0  0
  -25.5286  -15.3198   20.3720 N   0  0  0  0  0  0  0  0  0  0  0  0
  -27.6567  -11.3422   20.5857 N   0  0  0  0  0  0  0  0  0  0  0  0
  -21.5369  -28.9843   22.0201 N   0  0  0  0  0  0  0  0  0  0  0  0
  -25.1674  -34.1519   19.4555 N   0  0  0  0  0  0  0  0  0  0  0  0
  -28.2862  -21.5578   18.1446 N   0  0  0  0  0  0  0  0  0  0  0  0
  -28.4668  -35.1999   20.4963 N   0  3  0  0  0  0  0  0  0  0  0  0
  -25.8352  -12.5215   21.3272 O   0  0  0  0  0  0  0  0  0  0  0  0
  -22.2908  -29.5704   19.8962 O   0  0  0  0  0  0  0  0  0  0  0  0
  -22.9111  -33.1465   20.9070 O   0  0  0  0  0  0  0  0  0  0  0  0
  -27.2247  -33.2199   18.9300 O   0  0  0  0  0  0  0  0  0  0  0  0
  -29.3072  -20.1373   19.6261 O   0  0  0  0  0  0  0  0  0  0  0  0
  -32.3494   -9.9702   17.9151 O   0  0  0  0  0  0  0  0  0  0  0  0
  -28.1567  -26.5551   19.9607 O   0  0  0  0  0  0  0  0  0  1  0  0
  -33.8970   -9.3342   12.6611 F   0  0  0  0  0  0  0  0  0  0  0  0
  -32.0595   -7.5367   16.6358 F   0  0  0  0  0  0  0  0  0  0  0  0
  1  2  1  0  0  0  0
  1  5  2  0  0  0  0
  2  6  2  0  0  0  0
  3  8  2  0  0  0  0
  3 15  1  0  0  0  0
  4  9  1  0  0  0  0
  4 15  2  0  0  0  0
  5 17  1  0  0  0  0
  6 19  1  0  0  0  0
  7 10  2  0  0  0  0
  7 18  1  0  0  0  0
  8 21  1  0  0  0  0
  9 21  2  0  0  0  0
 10 22  1  0  0  0  0
 11 12  2  0  0  0  0
 11 23  1  0  0  0  0
 12 24  1  0  0  0  0
 13 20  1  0  0  0  0
 13 22  2  0  0  0  0
 14 24  2  0  0  0  0
 14 25  1  0  0  0  0
 15 26  1  0  0  0  0
 16 26  1  0  0  0  0
 16 27  2  0  0  0  0
 16 28  1  0  0  0  0
 17 19  2  0  0  0  0
 17 33  1  0  0  0  0
 18 20  2  0  0  0  0
 18 34  1  0  0  0  0
 19 44  1  0  0  0  0
 20 35  1  0  0  0  0
 21 78  1  0  0  0  0
 22 79  1  0  0  0  0
 23 25  2  0  0  0  0
 23 78  1  0  0  0  0
 24 80  1  0  0  0  0
 25 81  1  0  0  0  0
 26 63  2  0  0  0  0
 27 64  1  0  0  0  0
 27 67  1  0  0  0  0
 28 68  1  0  0  0  0
 28 73  2  0  0  0  0
 29 45  1  0  0  0  0
 29 69  1  0  0  0  0
 29 74  2  0  0  0  0
 30 59  1  0  0  0  0
 30 65  1  0  0  0  0
 30 75  2  0  0  0  0
 31 60  1  0  0  0  0
 31 70  1  0  0  0  0
 31 76  2  0  0  0  0
 32 66  1  0  0  0  0
 32 71  1  0  0  0  0
 32 77  2  0  0  0  0
 33 36  1  0  0  0  0
 34 45  1  0  0  0  0
 35 65  1  0  0  0  0
 36 38  1  0  0  0  0
 37 39  1  0  0  0  0
 37 42  1  0  0  0  0
 38 44  1  0  0  0  0
 39 47  1  0  0  0  0
 40 46  1  0  0  0  0
 40 48  1  0  0  0  0
 41 48  1  0  0  0  0
 41 49  1  0  0  0  0
 42 66  1  0  0  0  0
 43 47  1  0  0  0  0
 43 66  1  0  0  0  0
 44 69  1  0  0  0  0
 45 65  1  0  0  0  0
 46 49  1  0  0  0  0
 46 61  1  0  0  0  0
 47 64  1  0  0  0  0
 48 71  1  0  0  0  0
 49 50  1  0  0  0  0
 49 51  1  0  0  0  0
 52 60  1  0  0  0  0
 53 61  1  0  0  0  0
 54 61  1  0  0  0  0
 55 62  1  0  0  0  0
 56 62  1  0  0  0  0
 57 62  1  0  0  0  0
 58 72  1  0  0  0  0
 59 62  1  0  0  0  0
 59 70  1  0  0  0  0
 60 72  1  0  0  0  0
 61 79  1  0  0  0  0
 63 64  1  0  0  0  0
M  CHG  1  72   1
M  ISO  4  32 100  61 101  71 100  79 101
M  END
> <Batch ID>
0019

> <Smiles>
CNC(C)C(=O)NC(C(=O)N1Cc2cc([101O:1][101C:1](C)(C)C3CC([100NH:0][100C:0](=O)N4CCCC(n5nc(-c6ccc(Oc7ccc(F)cc7F)cc6)c(C(N)=O)c5N)C4)CC3(C)C)ccc2CC1C(=O)NC1CCCc2ccccc21)C(C)(C)C

> <Shape>
0.235

> <Color>
0.136

> <Negative vol penalty>
0.000

$$$$

  -OEChem-04052316073D

 81 89  0     1  0  0  0  0  0999 V2000
  -28.8045  -32.1634   20.5892 C   0  0  0  0  0  0  0  0  0  0  0  0
  -29.1758  -30.8246   20.5174 C   0  0  0  0  0  0  0  0  0  0  0  0
  -23.0793   -9.8628   19.9414 C   0  0  0  0  0  0  0  0  0  0  0  0
  -23.8346   -9.8761   22.2362 C   0  0  0  0  0  0  0  0  0  0  0  0
  -28.1697  -32.6492   21.7316 C   0  0  0  0  0  0  0  0  0  0  0  0
  -28.9136  -29.9710   21.5884 C   0  0  0  0  0  0  0  0  0  0  0  0
  -27.4347  -24.0356   21.2892 C   0  0  0  0  0  0  0  0  0  0  0  0
  -22.3364   -8.7093   20.1926 C   0  0  0  0  0  0  0  0  0  0  0  0
  -23.0916   -8.7227   22.4875 C   0  0  0  0  0  0  0  0  0  0  0  0
  -28.1881  -22.8724   21.4411 C   0  0  0  0  0  0  0  0  0  0  0  0
  -19.8632   -7.9223   23.0854 C   0  0  0  0  0  0  0  0  0  0  0  0
  -19.1040   -7.8842   24.2549 C   0  0  0  0  0  0  0  0  0  0  0  0
  -27.5055  -22.7392   23.7510 C   0  0  0  0  0  0  0  0  0  0  0  0
  -32.2189  -18.2301   23.1471 C   0  0  0  0  0  0  0  0  0  0  0  0
  -20.3463   -5.9500   24.9984 C   0  0  0  0  0  0  0  0  0  0  0  0
  -23.8285  -10.4462   20.9632 C   0  0  0  0  0  0  0  0  0  0  0  0
  -24.1674  -12.9715   20.8379 C   0  0  0  0  0  0  0  0  0  0  0  0
  -27.8909  -31.7990   22.8133 C   0  0  0  0  0  0  0  0  0  0  0  0
  -26.7186  -24.5662   22.3718 C   0  0  0  0  0  0  0  0  0  0  0  0
  -28.2757  -30.4462   22.7469 C   0  0  0  0  0  0  0  0  0  0  0  0
  -26.7417  -23.9078   23.6095 C   0  0  0  0  0  0  0  0  0  0  0  0
  -31.5468  -19.4059   22.8132 C   0  0  0  0  0  0  0  0  0  0  0  0
  -30.3893  -19.3511   22.0368 C   0  0  0  0  0  0  0  0  0  0  0  0
  -29.9038  -18.1205   21.5944 C   0  0  0  0  0  0  0  0  0  0  0  0
  -30.5759  -16.9448   21.9283 C   0  0  0  0  0  0  0  0  0  0  0  0
  -22.3425   -8.1393   21.4656 C   0  0  0  0  0  0  0  0  0  0  0  0
  -28.2260  -22.2256   22.6729 C   0  0  0  0  0  0  0  0  0  0  0  0
  -20.8640   -6.9742   22.8724 C   0  0  0  0  0  0  0  0  0  0  0  0
  -19.3455   -6.8981   25.2114 C   0  0  0  0  0  0  0  0  0  0  0  0
  -21.1055   -5.9881   23.8289 C   0  0  0  0  0  0  0  0  0  0  0  0
  -31.7334  -16.9995   22.7046 C   0  0  0  0  0  0  0  0  0  0  0  0
  -24.5966  -11.6374   20.7042 C   0  0  0  0  0  0  0  0  0  0  0  0
  -25.2594  -13.7214   20.4750 C   0  0  0  0  0  0  0  0  0  0  0  0
  -22.8955  -13.4867   21.2530 C   0  0  0  0  0  0  0  0  0  0  0  0
  -26.8093  -27.2947   24.0000 C   0  0  0  0  0  0  0  0  0  0  0  0
  -24.1728  -26.0708   25.4399 C   0  0  0  0  0  0  0  0  0  0  0  0
  -22.3532  -23.3115   26.2897 C   0  0  0  0  0  0  0  0  0  0  0  0
  -30.7239  -14.7742   20.6582 C   0  0  0  0  0  0  0  0  0  0  0  0
  -27.2453  -32.3805   24.0460 C   0  0  0  0  0  0  0  0  0  0  0  0
  -25.8892  -25.8070   22.1845 C   0  0  0  0  0  0  0  0  0  0  0  0
  -25.9743  -24.4254   24.7976 C   0  0  0  0  0  0  0  0  0  0  0  0
  -26.6670  -31.3258   24.9859 C   0  0  0  0  0  0  0  0  0  0  0  0
  -29.6172  -12.3534   18.2934 C   0  0  0  0  0  0  0  0  0  0  0  0
  -27.6677  -30.1943   25.1989 C   0  0  0  0  0  0  0  0  0  0  0  0
  -28.1771  -12.0611   18.7208 C   0  0  0  0  0  0  0  0  0  0  0  0
  -30.5297  -12.5862   19.4963 C   0  0  0  0  0  0  0  0  0  0  0  0
  -28.6190  -13.3116   20.8720 C   0  0  0  0  0  0  0  0  0  0  0  0
  -27.9861  -29.4835   23.8780 C   0  0  1  0  0  0  0  0  0  0  0  0
  -25.6116  -26.5432   23.4915 C   0  0  1  0  0  0  0  0  0  0  0  0
  -27.6488  -13.1343   19.6927 C   0  0  2  0  0  0  0  0  0  0  0  0
  -32.0876  -20.7104   23.3005 C   0  0  0  0  0  0  0  0  0  0  0  0
  -28.6606  -18.0689   20.7614 C   0  0  0  0  0  0  0  0  0  0  0  0
  -20.2635  -22.6252   27.4978 C   0  0  0  0  0  0  0  0  0  0  0  0
  -25.5639  -26.5491   28.1130 C   0  0  0  0  0  0  0  0  0  0  0  0
  -23.8960  -25.0144   29.1764 C   0  0  0  0  0  0  0  0  0  0  0  0
  -23.1300  -27.1233   28.0862 C   0  0  0  0  0  0  0  0  0  0  0  0
  -21.1967  -22.1082   23.8456 C   0  0  0  0  0  0  0  0  0  0  0  0
  -29.6691  -20.6178   21.6788 C   0  0  0  0  0  0  0  0  0  1  0  0
  -23.9209  -25.2006   26.6475 C   0  0  1  0  0  0  0  0  0  0  0  0
  -20.8734  -23.0003   26.1561 C   0  0  2  0  0  0  0  0  0  0  0  0
  -24.1438  -25.9629   27.9841 C   0  0  0  0  0  0  0  0  0  0  0  0
  -25.8624  -11.5421   20.2887 N   0  0  0  0  0  0  0  0  0  0  0  0
  -26.2380  -12.8259   20.1580 N   0  0  0  0  0  0  0  0  0  0  0  0
  -25.1832  -25.6452   24.5660 N   0  0  0  0  0  0  0  0  0  0  0  0
  -29.9676  -13.6184   20.3701 N   0  0  0  0  0  0  0  0  0  0  0  0
  -25.4683  -15.0530   20.3992 N   0  0  0  0  0  0  0  0  0  0  0  0
  -21.8840  -12.5771   21.5904 N   0  0  0  0  0  0  0  0  0  0  0  0
  -30.0738  -15.7004   21.4731 N   0  0  0  0  0  0  0  0  0  0  0  0
  -26.9111  -28.5849   23.5157 N   0  0  0  0  0  0  0  0  0  0  0  0
  -22.5763  -24.6579   26.4862 N   0  0  0  0  0  0  0  0  0  0  0  0
  -20.6657  -21.8662   25.2118 N   0  3  0  0  0  0  0  0  0  0  0  0
  -22.6576  -14.7172   21.3069 O   0  0  0  0  0  0  0  0  0  0  0  0
  -27.5828  -26.7453   24.7755 O   0  0  0  0  0  0  0  0  0  0  0  0
  -23.4930  -27.0867   25.2741 O   0  0  0  0  0  0  0  0  0  0  0  0
  -23.2239  -22.4461   26.2297 O   0  0  0  0  0  0  0  0  0  0  0  0
  -31.8537  -14.9432   20.1924 O   0  0  0  0  0  0  0  0  0  0  0  0
  -21.6174   -7.0138   21.7112 O   0  0  0  0  0  0  0  0  0  0  0  0
  -28.9611  -21.0904   22.8241 O   0  0  0  0  0  0  0  0  0  1  0  0
  -18.6174   -6.8626   26.3351 F   0  0  0  0  0  0  0  0  0  0  0  0
  -22.0664   -5.0753   23.6304 F   0  0  0  0  0  0  0  0  0  0  0  0
  -32.5994  -15.5694   23.1430 Cl  0  0  0  0  0  0  0  0  0  0  0  0
  1  2  1  0  0  0  0
  1  5  2  0  0  0  0
  2  6  2  0  0  0  0
  3  8  2  0  0  0  0
  3 16  1  0  0  0  0
  4  9  1  0  0  0  0
  4 16  2  0  0  0  0
  5 18  1  0  0  0  0
  6 20  1  0  0  0  0
  7 10  2  0  0  0  0
  7 19  1  0  0  0  0
  8 26  1  0  0  0  0
  9 26  2  0  0  0  0
 10 27  1  0  0  0  0
 11 12  2  0  0  0  0
 11 28  1  0  0  0  0
 12 29  1  0  0  0  0
 13 21  1  0  0  0  0
 13 27  2  0  0  0  0
 14 22  2  0  0  0  0
 14 31  1  0  0  0  0
 15 29  2  0  0  0  0
 15 30  1  0  0  0  0
 16 32  1  0  0  0  0
 17 32  1  0  0  0  0
 17 33  2  0  0  0  0
 17 34  1  0  0  0  0
 18 20  2  0  0  0  0
 18 39  1  0  0  0  0
 19 21  2  0  0  0  0
 19 40  1  0  0  0  0
 20 48  1  0  0  0  0
 21 41  1  0  0  0  0
 22 23  1  0  0  0  0
 22 51  1  0  0  0  0
 23 24  2  0  0  0  0
 23 58  1  0  0  0  0
 24 25  1  0  0  0  0
 24 52  1  0  0  0  0
 25 31  2  0  0  0  0
 25 68  1  0  0  0  0
 26 77  1  0  0  0  0
 27 78  1  0  0  0  0
 28 30  2  0  0  0  0
 28 77  1  0  0  0  0
 29 79  1  0  0  0  0
 30 80  1  0  0  0  0
 31 81  1  0  0  0  0
 32 62  2  0  0  0  0
 33 63  1  0  0  0  0
 33 66  1  0  0  0  0
 34 67  1  0  0  0  0
 34 72  2  0  0  0  0
 35 49  1  0  0  0  0
 35 69  1  0  0  0  0
 35 73  2  0  0  0  0
 36 59  1  0  0  0  0
 36 64  1  0  0  0  0
 36 74  2  0  0  0  0
 37 60  1  0  0  0  0
 37 70  1  0  0  0  0
 37 75  2  0  0  0  0
 38 65  1  0  0  0  0
 38 68  1  0  0  0  0
 38 76  2  0  0  0  0
 39 42  1  0  0  0  0
 40 49  1  0  0  0  0
 41 64  1  0  0  0  0
 42 44  1  0  0  0  0
 43 45  1  0  0  0  0
 43 46  1  0  0  0  0
 44 48  1  0  0  0  0
 45 50  1  0  0  0  0
 46 65  1  0  0  0  0
 47 50  1  0  0  0  0
 47 65  1  0  0  0  0
 48 69  1  0  0  0  0
 49 64  1  0  0  0  0
 50 63  1  0  0  0  0
 53 60  1  0  0  0  0
 54 61  1  0  0  0  0
 55 61  1  0  0  0  0
 56 61  1  0  0  0  0
 57 71  1  0  0  0  0
 58 78  1  0  0  0  0
 59 61  1  0  0  0  0
 59 70  1  0  0  0  0
 60 71  1  0  0  0  0
 62 63  1  0  0  0  0
M  CHG  1  71   1
M  ISO  4  38 100  58 101  68 100  78 101
M  END
> <Batch ID>
0019

> <Smiles>
CNC(C)C(=O)NC(C(=O)N1Cc2cc([101O:1][101CH2:1]c3c(C)cc(Cl)c([100NH:0][100C:0](=O)N4CCCC(n5nc(-c6ccc(Oc7ccc(F)cc7F)cc6)c(C(N)=O)c5N)C4)c3C)ccc2CC1C(=O)NC1CCCc2ccccc21)C(C)(C)C

> <Shape>
0.237

> <Color>
0.200

> <Negative vol penalty>
0.000

$$$$

  -OEChem-04052316073D

 81 89  0     1  0  0  0  0  0999 V2000
  -34.9328  -26.1926   36.1068 C   0  0  0  0  0  0  0  0  0  0  0  0
  -34.0158  -25.1750   35.8639 C   0  0  0  0  0  0  0  0  0  0  0  0
  -22.6954  -10.1750   20.1721 C   0  0  0  0  0  0  0  0  0  0  0  0
  -24.2790   -9.4661   21.8533 C   0  0  0  0  0  0  0  0  0  0  0  0
  -34.6940  -27.4761   35.6173 C   0  0  0  0  0  0  0  0  0  0  0  0
  -32.8588  -25.4405   35.1323 C   0  0  0  0  0  0  0  0  0  0  0  0
  -31.4111  -21.8568   29.0534 C   0  0  0  0  0  0  0  0  0  0  0  0
  -21.9518   -9.0139   20.3828 C   0  0  0  0  0  0  0  0  0  0  0  0
  -23.5354   -8.3049   22.0642 C   0  0  0  0  0  0  0  0  0  0  0  0
  -30.9590  -21.0682   27.9953 C   0  0  0  0  0  0  0  0  0  0  0  0
  -20.7170   -7.4174   23.7042 C   0  0  0  0  0  0  0  0  0  0  0  0
  -20.4769   -7.0341   25.0236 C   0  0  0  0  0  0  0  0  0  0  0  0
  -29.0025  -22.4717   27.7712 C   0  0  0  0  0  0  0  0  0  0  0  0
  -21.6189   -4.9428   24.6238 C   0  0  0  0  0  0  0  0  0  0  0  0
  -23.8590  -10.4011   20.9073 C   0  0  0  0  0  0  0  0  0  0  0  0
  -24.1942  -12.9294   20.8527 C   0  0  0  0  0  0  0  0  0  0  0  0
  -33.5382  -27.7552   34.8710 C   0  0  0  0  0  0  0  0  0  0  0  0
  -30.6674  -22.9663   29.4650 C   0  0  0  0  0  0  0  0  0  0  0  0
  -32.6037  -26.7292   34.6335 C   0  0  0  0  0  0  0  0  0  0  0  0
  -29.4566  -23.2726   28.8224 C   0  0  0  0  0  0  0  0  0  0  0  0
  -22.3718   -8.0788   21.3289 C   0  0  0  0  0  0  0  0  0  0  0  0
  -29.7575  -21.3747   27.3559 C   0  0  0  0  0  0  0  0  0  0  0  0
  -21.4080   -6.5634   22.8445 C   0  0  0  0  0  0  0  0  0  0  0  0
  -20.9278   -5.7968   25.4835 C   0  0  0  0  0  0  0  0  0  0  0  0
  -21.8589   -5.3262   23.3043 C   0  0  0  0  0  0  0  0  0  0  0  0
  -24.6279  -11.6001   20.6896 C   0  0  0  0  0  0  0  0  0  0  0  0
  -25.2891  -13.6906   20.5238 C   0  0  0  0  0  0  0  0  0  0  0  0
  -22.9159  -13.4313   21.2647 C   0  0  0  0  0  0  0  0  0  0  0  0
  -30.3808  -25.8846   31.8053 C   0  0  0  0  0  0  0  0  0  0  0  0
  -29.4528  -26.8588   29.0485 C   0  0  0  0  0  0  0  0  0  0  0  0
  -28.7167  -28.6806   26.2599 C   0  0  0  0  0  0  0  0  0  0  0  0
  -30.6734  -14.7838   20.6755 C   0  0  0  0  0  0  0  0  0  0  0  0
  -33.3002  -29.1690   34.4029 C   0  0  0  0  0  0  0  0  0  0  0  0
  -31.0851  -23.8078   30.6402 C   0  0  0  0  0  0  0  0  0  0  0  0
  -28.6724  -24.4553   29.3216 C   0  0  0  0  0  0  0  0  0  0  0  0
  -32.2330  -29.2796   33.3171 C   0  0  0  0  0  0  0  0  0  0  0  0
  -29.6651  -12.4172   18.3499 C   0  0  0  0  0  0  0  0  0  0  0  0
  -31.0023  -28.4602   33.6926 C   0  0  0  0  0  0  0  0  0  0  0  0
  -30.5061  -19.4855   21.6572 C   0  0  0  0  0  0  0  0  0  0  0  0
  -31.8835  -18.4644   23.5140 C   0  0  0  0  0  0  0  0  0  0  0  0
  -28.2286  -12.0913   18.7564 C   0  0  0  0  0  0  0  0  0  0  0  0
  -29.8523  -18.1288   21.3932 C   0  0  0  0  0  0  0  0  0  0  0  0
  -31.2327  -17.1057   23.2527 C   0  0  0  0  0  0  0  0  0  0  0  0
  -30.5568  -12.5691   19.5765 C   0  0  0  0  0  0  0  0  0  0  0  0
  -28.6390  -13.2923   20.9623 C   0  0  0  0  0  0  0  0  0  0  0  0
  -31.3491  -26.9722   33.8229 C   0  0  1  0  0  0  0  0  0  0  0  0
  -30.7351  -25.2971   30.4709 C   0  0  1  0  0  0  0  0  0  0  0  0
  -30.9952  -19.6475   23.1036 C   0  0  0  0  0  0  0  0  0  0  0  0
  -27.6901  -13.1286   19.7572 C   0  0  2  0  0  0  0  0  0  0  0  0
  -30.7724  -16.9757   21.7997 C   0  0  0  0  0  0  0  0  0  0  0  0
  -27.4889  -30.7404   25.5200 C   0  0  0  0  0  0  0  0  0  0  0  0
  -29.0093  -21.0702   23.6824 C   0  0  0  0  0  0  0  0  0  0  0  0
  -26.8009  -25.3831   29.3537 C   0  0  0  0  0  0  0  0  0  0  0  0
  -25.7812  -27.0344   27.7720 C   0  0  0  0  0  0  0  0  0  0  0  0
  -26.7189  -27.8106   29.9494 C   0  0  0  0  0  0  0  0  0  0  0  0
  -29.0771  -15.3505   22.5558 C   0  0  0  0  0  0  0  0  0  0  0  0
  -31.1922  -29.9223   25.2164 C   0  0  0  0  0  0  0  0  0  0  0  0
  -30.3228  -19.9719   25.5201 C   0  0  0  0  0  0  0  0  0  1  0  0
  -28.2940  -27.0833   28.1104 C   0  0  1  0  0  0  0  0  0  0  0  0
  -28.8235  -30.1670   25.9702 C   0  0  2  0  0  0  0  0  0  0  0  0
  -29.8291  -19.8435   24.0764 C   0  0  2  0  0  0  0  0  0  0  0  0
  -26.9214  -26.8125   28.7886 C   0  0  0  0  0  0  0  0  0  0  0  0
  -25.8992  -11.5180   20.2881 N   0  0  0  0  0  0  0  0  0  0  0  0
  -26.2736  -12.8054   20.1961 N   0  0  0  0  0  0  0  0  0  0  0  0
  -29.5806  -25.5786   29.6009 N   0  0  0  0  0  0  0  0  0  0  0  0
  -30.0126  -13.5579   20.5076 N   0  0  0  0  0  0  0  0  0  0  0  0
  -25.4961  -15.0241   20.4857 N   0  0  0  0  0  0  0  0  0  0  0  0
  -21.9021  -12.5113   21.5650 N   0  0  0  0  0  0  0  0  0  0  0  0
  -31.4654  -26.3639   32.5148 N   0  0  0  0  0  0  0  0  0  0  0  0
  -28.4465  -28.4377   27.5900 N   0  0  0  0  0  0  0  0  0  0  0  0
  -30.1157  -15.6938   21.5863 N   0  0  0  0  0  0  0  0  0  0  0  0
  -29.8275  -30.4147   24.8970 N   0  3  0  0  0  0  0  0  0  0  0  0
  -22.6747  -14.6594   21.3478 O   0  0  0  0  0  0  0  0  0  0  0  0
  -29.2096  -25.9037   32.1653 O   0  0  0  0  0  0  0  0  0  0  0  0
  -30.2221  -27.7930   29.2912 O   0  0  0  0  0  0  0  0  0  0  0  0
  -28.8551  -27.8213   25.3923 O   0  0  0  0  0  0  0  0  0  0  0  0
  -31.7094  -15.0491   20.0522 O   0  0  0  0  0  0  0  0  0  0  0  0
  -21.6463   -6.9458   21.5350 O   0  0  0  0  0  0  0  0  0  0  0  0
  -29.3243  -20.6033   26.3206 O   0  0  0  0  0  0  0  0  0  1  0  0
  -20.6985   -5.4295   26.7510 F   0  0  0  0  0  0  0  0  0  0  0  0
  -22.5244   -4.5020   22.4835 F   0  0  0  0  0  0  0  0  0  0  0  0
  1  2  1  0  0  0  0
  1  5  2  0  0  0  0
  2  6  2  0  0  0  0
  3  8  2  0  0  0  0
  3 15  1  0  0  0  0
  4  9  1  0  0  0  0
  4 15  2  0  0  0  0
  5 17  1  0  0  0  0
  6 19  1  0  0  0  0
  7 10  2  0  0  0  0
  7 18  1  0  0  0  0
  8 21  1  0  0  0  0
  9 21  2  0  0  0  0
 10 22  1  0  0  0  0
 11 12  2  0  0  0  0
 11 23  1  0  0  0  0
 12 24  1  0  0  0  0
 13 20  1  0  0  0  0
 13 22  2  0  0  0  0
 14 24  2  0  0  0  0
 14 25  1  0  0  0  0
 15 26  1  0  0  0  0
 16 26  1  0  0  0  0
 16 27  2  0  0  0  0
 16 28  1  0  0  0  0
 17 19  2  0  0  0  0
 17 33  1  0  0  0  0
 18 20  2  0  0  0  0
 18 34  1  0  0  0  0
 19 46  1  0  0  0  0
 20 35  1  0  0  0  0
 21 78  1  0  0  0  0
 22 79  1  0  0  0  0
 23 25  2  0  0  0  0
 23 78  1  0  0  0  0
 24 80  1  0  0  0  0
 25 81  1  0  0  0  0
 26 63  2  0  0  0  0
 27 64  1  0  0  0  0
 27 67  1  0  0  0  0
 28 68  1  0  0  0  0
 28 73  2  0  0  0  0
 29 47  1  0  0  0  0
 29 69  1  0  0  0  0
 29 74  2  0  0  0  0
 30 59  1  0  0  0  0
 30 65  1  0  0  0  0
 30 75  2  0  0  0  0
 31 60  1  0  0  0  0
 31 70  1  0  0  0  0
 31 76  2  0  0  0  0
 32 66  1  0  0  0  0
 32 71  1  0  0  0  0
 32 77  2  0  0  0  0
 33 36  1  0  0  0  0
 34 47  1  0  0  0  0
 35 65  1  0  0  0  0
 36 38  1  0  0  0  0
 37 41  1  0  0  0  0
 37 44  1  0  0  0  0
 38 46  1  0  0  0  0
 39 42  1  0  0  0  0
 39 48  1  0  0  0  0
 40 43  1  0  0  0  0
 40 48  1  0  0  0  0
 41 49  1  0  0  0  0
 42 50  1  0  0  0  0
 43 50  1  0  0  0  0
 44 66  1  0  0  0  0
 45 49  1  0  0  0  0
 45 66  1  0  0  0  0
 46 69  1  0  0  0  0
 47 65  1  0  0  0  0
 48 61  1  0  0  0  0
 49 64  1  0  0  0  0
 50 71  1  0  0  0  0
 51 60  1  0  0  0  0
 52 61  1  0  0  0  0
 53 62  1  0  0  0  0
 54 62  1  0  0  0  0
 55 62  1  0  0  0  0
 56 71  1  0  0  0  0
 57 72  1  0  0  0  0
 58 61  1  0  0  0  0
 58 79  1  0  0  0  0
 59 62  1  0  0  0  0
 59 70  1  0  0  0  0
 60 72  1  0  0  0  0
 63 64  1  0  0  0  0
M  CHG  1  72   1
M  ISO  4  32 100  58 101  71 100  79 101
M  END
> <Batch ID>
0019

> <Smiles>
CNC(C)C(=O)NC(C(=O)N1Cc2cc([101O:1][101CH2:1]C(C)C3CCC([100N:0](C)[100C:0](=O)N4CCCC(n5nc(-c6ccc(Oc7ccc(F)cc7F)cc6)c(C(N)=O)c5N)C4)CC3)ccc2CC1C(=O)NC1CCCc2ccccc21)C(C)(C)C

> <Shape>
0.207

> <Color>
0.204

> <Negative vol penalty>
0.000

$$$$

  -OEChem-04052316073D

 84 92  0     1  0  0  0  0  0999 V2000
  -28.6564  -12.5998   36.4938 C   0  0  0  0  0  0  0  0  0  0  0  0
  -29.1365  -13.3264   35.4089 C   0  0  0  0  0  0  0  0  0  0  0  0
  -23.0758   -9.8677   19.9394 C   0  0  0  0  0  0  0  0  0  0  0  0
  -23.8349   -9.8740   22.2331 C   0  0  0  0  0  0  0  0  0  0  0  0
  -27.6105  -11.6949   36.3173 C   0  0  0  0  0  0  0  0  0  0  0  0
  -28.5717  -13.1477   34.1466 C   0  0  0  0  0  0  0  0  0  0  0  0
  -27.7957  -17.4149   29.8230 C   0  0  0  0  0  0  0  0  0  0  0  0
  -22.3315   -8.7147   20.1889 C   0  0  0  0  0  0  0  0  0  0  0  0
  -23.0906   -8.7209   22.4825 C   0  0  0  0  0  0  0  0  0  0  0  0
  -28.5339  -17.7445   28.6871 C   0  0  0  0  0  0  0  0  0  0  0  0
  -21.1045   -5.9840   23.8178 C   0  0  0  0  0  0  0  0  0  0  0  0
  -20.3478   -5.9403   24.9887 C   0  0  0  0  0  0  0  0  0  0  0  0
  -27.0675  -16.3779   27.3450 C   0  0  0  0  0  0  0  0  0  0  0  0
  -31.8933  -18.3422   24.1920 C   0  0  0  0  0  0  0  0  0  0  0  0
  -32.0656  -16.5901   22.5375 C   0  0  0  0  0  0  0  0  0  0  0  0
  -19.1040   -7.8781   24.2572 C   0  0  0  0  0  0  0  0  0  0  0  0
  -23.8275  -10.4473   20.9615 C   0  0  0  0  0  0  0  0  0  0  0  0
  -24.1701  -12.9724   20.8423 C   0  0  0  0  0  0  0  0  0  0  0  0
  -27.0261  -11.5121   35.0541 C   0  0  0  0  0  0  0  0  0  0  0  0
  -26.6925  -16.5543   29.7299 C   0  0  0  0  0  0  0  0  0  0  0  0
  -27.5179  -12.2385   33.9528 C   0  0  0  0  0  0  0  0  0  0  0  0
  -26.3154  -16.0410   28.4807 C   0  0  0  0  0  0  0  0  0  0  0  0
  -32.6732  -17.4668   23.4363 C   0  0  0  0  0  0  0  0  0  0  0  0
  -30.5057  -18.3408   24.0490 C   0  0  0  0  0  0  0  0  0  0  0  0
  -29.8982  -17.4641   23.1502 C   0  0  0  0  0  0  0  0  0  0  0  0
  -30.6781  -16.5887   22.3944 C   0  0  0  0  0  0  0  0  0  0  0  0
  -22.3389   -8.1413   21.4604 C   0  0  0  0  0  0  0  0  0  0  0  0
  -28.1716  -17.2236   27.4483 C   0  0  0  0  0  0  0  0  0  0  0  0
  -20.8610   -6.9748   22.8666 C   0  0  0  0  0  0  0  0  0  0  0  0
  -19.3475   -6.8874   25.2084 C   0  0  0  0  0  0  0  0  0  0  0  0
  -19.8607   -7.9218   23.0863 C   0  0  0  0  0  0  0  0  0  0  0  0
  -24.5970  -11.6381   20.7044 C   0  0  0  0  0  0  0  0  0  0  0  0
  -25.2625  -13.7217   20.4795 C   0  0  0  0  0  0  0  0  0  0  0  0
  -22.8996  -13.4885   21.2609 C   0  0  0  0  0  0  0  0  0  0  0  0
  -25.9581  -13.7097   30.9435 C   0  0  0  0  0  0  0  0  0  0  0  0
  -23.0874  -14.2898   29.5490 C   0  0  0  0  0  0  0  0  0  0  0  0
  -21.3155  -15.9392   27.1434 C   0  0  0  0  0  0  0  0  0  0  0  0
  -30.7289  -14.7658   20.6564 C   0  0  0  0  0  0  0  0  0  0  0  0
  -25.9293  -10.4880   34.9030 C   0  0  0  0  0  0  0  0  0  0  0  0
  -25.8905  -16.2299   30.9603 C   0  0  0  0  0  0  0  0  0  0  0  0
  -25.1272  -15.1289   28.3240 C   0  0  0  0  0  0  0  0  0  0  0  0
  -25.1358  -10.6320   33.6068 C   0  0  0  0  0  0  0  0  0  0  0  0
  -29.6147  -12.3529   18.2871 C   0  0  0  0  0  0  0  0  0  0  0  0
  -26.0784  -10.8143   32.4214 C   0  0  0  0  0  0  0  0  0  0  0  0
  -28.1748  -12.0616   18.7161 C   0  0  0  0  0  0  0  0  0  0  0  0
  -30.5295  -12.5812   19.4891 C   0  0  0  0  0  0  0  0  0  0  0  0
  -28.6222  -13.3058   20.8699 C   0  0  0  0  0  0  0  0  0  0  0  0
  -26.9147  -12.0906   32.5728 C   0  0  1  0  0  0  0  0  0  0  0  0
  -25.0951  -14.9345   30.8307 C   0  0  1  0  0  0  0  0  0  0  0  0
  -27.6498  -13.1331   19.6917 C   0  0  2  0  0  0  0  0  0  0  0  0
  -28.4089  -17.4660   23.0011 C   0  0  0  0  0  0  0  0  0  0  0  0
  -18.9925  -16.1808   26.2255 C   0  0  0  0  0  0  0  0  0  0  0  0
  -34.5734  -17.1268   25.0548 C   0  0  0  0  0  0  0  0  0  0  0  0
  -34.7614  -18.8625   23.2415 C   0  0  0  0  0  0  0  0  0  0  0  0
  -34.9254  -16.4437   22.6903 C   0  0  0  0  0  0  0  0  0  0  0  0
  -23.3609  -11.5903   28.1532 C   0  0  0  0  0  0  0  0  0  0  0  0
  -21.5512  -12.3011   26.5757 C   0  0  0  0  0  0  0  0  0  0  0  0
  -21.0670  -12.0920   29.0138 C   0  0  0  0  0  0  0  0  0  0  0  0
  -21.2351  -18.8260   27.7905 C   0  0  0  0  0  0  0  0  0  0  0  0
  -29.6853  -19.2969   24.8803 C   0  0  0  0  0  0  0  0  0  0  0  0
  -29.5240  -18.8219   26.3202 C   0  0  0  0  0  0  0  0  0  1  0  0
  -22.4836  -14.0183   28.1923 C   0  0  1  0  0  0  0  0  0  0  0  0
  -20.0177  -16.7241   27.2085 C   0  0  2  0  0  0  0  0  0  0  0  0
  -34.1566  -17.4672   23.5903 C   0  0  0  0  0  0  0  0  0  0  0  0
  -22.1393  -12.5161   27.9867 C   0  0  0  0  0  0  0  0  0  0  0  0
  -25.8620  -11.5420   20.2865 N   0  0  0  0  0  0  0  0  0  0  0  0
  -26.2393  -12.8255   20.1586 N   0  0  0  0  0  0  0  0  0  0  0  0
  -24.3785  -14.8362   29.5575 N   0  0  0  0  0  0  0  0  0  0  0  0
  -29.9705  -13.6119   20.3666 N   0  0  0  0  0  0  0  0  0  0  0  0
  -25.4733  -15.0531   20.4069 N   0  0  0  0  0  0  0  0  0  0  0  0
  -21.8873  -12.5795   21.5976 N   0  0  0  0  0  0  0  0  0  0  0  0
  -30.0815  -15.6908   21.4748 N   0  0  0  0  0  0  0  0  0  0  0  0
  -26.1240  -13.2556   32.2381 N   0  0  0  0  0  0  0  0  0  0  0  0
  -21.3403  -14.9159   28.0672 N   0  0  0  0  0  0  0  0  0  0  0  0
  -20.2632  -18.1584   26.8868 N   0  3  0  0  0  0  0  0  0  0  0  0
  -22.6636  -14.7191   21.3184 O   0  0  0  0  0  0  0  0  0  0  0  0
  -26.4368  -13.2125   29.9309 O   0  0  0  0  0  0  0  0  0  0  0  0
  -22.4345  -14.0333   30.5637 O   0  0  0  0  0  0  0  0  0  0  0  0
  -22.2155  -16.2048   26.3498 O   0  0  0  0  0  0  0  0  0  0  0  0
  -31.8582  -14.9344   20.1892 O   0  0  0  0  0  0  0  0  0  0  0  0
  -21.6126   -7.0164   21.7042 O   0  0  0  0  0  0  0  0  0  0  0  0
  -28.8909  -17.5431   26.3381 O   0  0  0  0  0  0  0  0  0  1  0  0
  -18.6199   -6.8444   26.3322 F   0  0  0  0  0  0  0  0  0  0  0  0
  -19.6214   -8.8753   22.1756 F   0  0  0  0  0  0  0  0  0  0  0  0
  1  2  1  0  0  0  0
  1  5  2  0  0  0  0
  2  6  2  0  0  0  0
  3  8  2  0  0  0  0
  3 17  1  0  0  0  0
  4  9  1  0  0  0  0
  4 17  2  0  0  0  0
  5 19  1  0  0  0  0
  6 21  1  0  0  0  0
  7 10  2  0  0  0  0
  7 20  1  0  0  0  0
  8 27  1  0  0  0  0
  9 27  2  0  0  0  0
 10 28  1  0  0  0  0
 11 12  2  0  0  0  0
 11 29  1  0  0  0  0
 12 30  1  0  0  0  0
 13 22  1  0  0  0  0
 13 28  2  0  0  0  0
 14 23  2  0  0  0  0
 14 24  1  0  0  0  0
 15 23  1  0  0  0  0
 15 26  2  0  0  0  0
 16 30  2  0  0  0  0
 16 31  1  0  0  0  0
 17 32  1  0  0  0  0
 18 32  1  0  0  0  0
 18 33  2  0  0  0  0
 18 34  1  0  0  0  0
 19 21  2  0  0  0  0
 19 39  1  0  0  0  0
 20 22  2  0  0  0  0
 20 40  1  0  0  0  0
 21 48  1  0  0  0  0
 22 41  1  0  0  0  0
 23 64  1  0  0  0  0
 24 25  2  0  0  0  0
 24 60  1  0  0  0  0
 25 26  1  0  0  0  0
 25 51  1  0  0  0  0
 26 72  1  0  0  0  0
 27 81  1  0  0  0  0
 28 82  1  0  0  0  0
 29 31  2  0  0  0  0
 29 81  1  0  0  0  0
 30 83  1  0  0  0  0
 31 84  1  0  0  0  0
 32 66  2  0  0  0  0
 33 67  1  0  0  0  0
 33 70  1  0  0  0  0
 34 71  1  0  0  0  0
 34 76  2  0  0  0  0
 35 49  1  0  0  0  0
 35 73  1  0  0  0  0
 35 77  2  0  0  0  0
 36 62  1  0  0  0  0
 36 68  1  0  0  0  0
 36 78  2  0  0  0  0
 37 63  1  0  0  0  0
 37 74  1  0  0  0  0
 37 79  2  0  0  0  0
 38 69  1  0  0  0  0
 38 72  1  0  0  0  0
 38 80  2  0  0  0  0
 39 42  1  0  0  0  0
 40 49  1  0  0  0  0
 41 68  1  0  0  0  0
 42 44  1  0  0  0  0
 43 45  1  0  0  0  0
 43 46  1  0  0  0  0
 44 48  1  0  0  0  0
 45 50  1  0  0  0  0
 46 69  1  0  0  0  0
 47 50  1  0  0  0  0
 47 69  1  0  0  0  0
 48 73  1  0  0  0  0
 49 68  1  0  0  0  0
 50 67  1  0  0  0  0
 52 63  1  0  0  0  0
 53 64  1  0  0  0  0
 54 64  1  0  0  0  0
 55 64  1  0  0  0  0
 56 65  1  0  0  0  0
 57 65  1  0  0  0  0
 58 65  1  0  0  0  0
 59 75  1  0  0  0  0
 60 61  1  0  0  0  0
 61 82  1  0  0  0  0
 62 65  1  0  0  0  0
 62 74  1  0  0  0  0
 63 75  1  0  0  0  0
 66 67  1  0  0  0  0
M  CHG  1  75   1
M  ISO  4  38 100  61 101  72 100  82 101
M  END
> <Batch ID>
0019

> <Smiles>
CNC(C)C(=O)NC(C(=O)N1Cc2cc([101O:1][101CH2:1]Cc3cc(C(C)(C)C)cc([100NH:0][100C:0](=O)N4CCCC(n5nc(-c6ccc(Oc7ccc(F)cc7F)cc6)c(C(N)=O)c5N)C4)c3C)ccc2CC1C(=O)NC1CCCc2ccccc21)C(C)(C)C

> <Shape>
0.162

> <Color>
0.196

> <Negative vol penalty>
0.000

$$$$

  -OEChem-04052316073D

 86 94  0     1  0  0  0  0  0999 V2000
  -30.0401  -32.2454   25.2131 C   0  0  0  0  0  0  0  0  0  0  0  0
  -30.5102  -30.9785   25.5437 C   0  0  0  0  0  0  0  0  0  0  0  0
  -23.0037   -9.8895   19.9812 C   0  0  0  0  0  0  0  0  0  0  0  0
  -23.7242   -9.9475   22.2865 C   0  0  0  0  0  0  0  0  0  0  0  0
  -28.6679  -32.4862   25.1586 C   0  0  0  0  0  0  0  0  0  0  0  0
  -29.6084  -29.9519   25.8212 C   0  0  0  0  0  0  0  0  0  0  0  0
  -30.2832  -24.0063   24.5172 C   0  0  0  0  0  0  0  0  0  0  0  0
  -22.2379   -8.7549   20.2490 C   0  0  0  0  0  0  0  0  0  0  0  0
  -22.9583   -8.8128   22.5544 C   0  0  0  0  0  0  0  0  0  0  0  0
  -30.6957  -22.9185   25.2854 C   0  0  0  0  0  0  0  0  0  0  0  0
  -23.2072   -5.4729   22.0920 C   0  0  0  0  0  0  0  0  0  0  0  0
  -23.7943   -4.4584   22.8480 C   0  0  0  0  0  0  0  0  0  0  0  0
  -28.3902  -22.3711   25.7374 C   0  0  0  0  0  0  0  0  0  0  0  0
  -22.0668   -4.7039   24.5191 C   0  0  0  0  0  0  0  0  0  0  0  0
  -23.7469  -10.4858   20.9999 C   0  0  0  0  0  0  0  0  0  0  0  0
  -24.1299  -13.0013   20.8179 C   0  0  0  0  0  0  0  0  0  0  0  0
  -27.7486  -31.4595   25.4261 C   0  0  0  0  0  0  0  0  0  0  0  0
  -28.9190  -24.2916   24.3620 C   0  0  0  0  0  0  0  0  0  0  0  0
  -28.2226  -30.1795   25.7716 C   0  0  0  0  0  0  0  0  0  0  0  0
  -27.9629  -23.4616   24.9646 C   0  0  0  0  0  0  0  0  0  0  0  0
  -22.2151   -8.2166   21.5356 C   0  0  0  0  0  0  0  0  0  0  0  0
  -29.7493  -22.1023   25.8980 C   0  0  0  0  0  0  0  0  0  0  0  0
  -22.0499   -6.1031   22.5495 C   0  0  0  0  0  0  0  0  0  0  0  0
  -23.2241   -4.0739   24.0615 C   0  0  0  0  0  0  0  0  0  0  0  0
  -21.4797   -5.7185   23.7630 C   0  0  0  0  0  0  0  0  0  0  0  0
  -31.8033  -16.4670   23.1464 C   0  0  0  0  0  0  0  0  0  0  0  0
  -24.5387  -11.6575   20.7237 C   0  0  0  0  0  0  0  0  0  0  0  0
  -31.8673  -17.6922   23.8367 C   0  0  0  0  0  0  0  0  0  0  0  0
  -25.2396  -13.7241   20.4538 C   0  0  0  0  0  0  0  0  0  0  0  0
  -30.6654  -16.5620   22.3831 C   0  0  0  0  0  0  0  0  0  0  0  0
  -22.8605  -13.5474   21.2004 C   0  0  0  0  0  0  0  0  0  0  0  0
  -27.0392  -26.7405   25.1188 C   0  0  0  0  0  0  0  0  0  0  0  0
  -24.8228  -25.0470   23.4630 C   0  0  0  0  0  0  0  0  0  0  0  0
  -23.7650  -22.0171   22.3022 C   0  0  0  0  0  0  0  0  0  0  0  0
  -30.7176  -14.6916   20.6963 C   0  0  0  0  0  0  0  0  0  0  0  0
  -26.2751  -31.7797   25.4011 C   0  0  0  0  0  0  0  0  0  0  0  0
  -28.4897  -25.4530   23.5081 C   0  0  0  0  0  0  0  0  0  0  0  0
  -26.4858  -23.7130   24.8123 C   0  0  0  0  0  0  0  0  0  0  0  0
  -25.3836  -30.5419   25.3426 C   0  0  0  0  0  0  0  0  0  0  0  0
  -29.6065  -12.2315   18.3746 C   0  0  0  0  0  0  0  0  0  0  0  0
  -25.8470  -29.5020   26.3578 C   0  0  0  0  0  0  0  0  0  0  0  0
  -28.1554  -11.9734   18.7865 C   0  0  0  0  0  0  0  0  0  0  0  0
  -30.5044  -12.4790   19.5855 C   0  0  0  0  0  0  0  0  0  0  0  0
  -28.5855  -13.2693   20.9131 C   0  0  0  0  0  0  0  0  0  0  0  0
  -27.2755  -29.0337   26.0550 C   0  0  1  0  0  0  0  0  0  0  0  0
  -27.0871  -25.9526   23.8403 C   0  0  1  0  0  0  0  0  0  0  0  0
  -27.6304  -13.0788   19.7235 C   0  0  2  0  0  0  0  0  0  0  0  0
  -31.8654  -16.3071   28.1675 C   0  0  0  0  0  0  0  0  0  0  0  0
  -27.7678  -18.3106   23.0647 C   0  0  0  0  0  0  0  0  0  0  0  0
  -21.8984  -20.9438   21.0133 C   0  0  0  0  0  0  0  0  0  0  0  0
  -23.0125  -25.2630   25.9097 C   0  0  0  0  0  0  0  0  0  0  0  0
  -21.6138  -23.4210   24.9508 C   0  0  0  0  0  0  0  0  0  0  0  0
  -21.8477  -25.5776   23.7191 C   0  0  0  0  0  0  0  0  0  0  0  0
  -33.7315  -18.5737   27.2060 C   0  0  0  0  0  0  0  0  0  0  0  0
  -25.6098  -21.0785   20.1869 C   0  0  0  0  0  0  0  0  0  0  0  0
  -32.9138  -18.1517   24.8277 C   0  0  0  0  0  0  0  0  0  0  0  0
  -32.2504  -16.5785   26.7165 C   0  0  0  0  0  0  0  0  0  0  0  0
  -31.2859  -18.9289   26.6391 C   0  0  0  0  0  0  0  0  0  0  0  0
  -28.9344  -18.3632   22.0932 C   0  0  0  0  0  0  0  0  0  0  0  0
  -31.3770  -20.4117   26.2830 C   0  0  0  0  0  0  0  0  0  1  0  0
  -23.8088  -23.9846   23.8126 C   0  0  1  0  0  0  0  0  0  0  0  0
  -23.2788  -21.5767   20.9332 C   0  0  2  0  0  0  0  0  0  0  0  0
  -22.5985  -24.5577   24.6027 C   0  0  0  0  0  0  0  0  0  0  0  0
  -32.5531  -18.0663   26.3488 C   0  0  1  0  0  0  0  0  0  0  0  0
  -25.8089  -11.5313   20.3304 N   0  0  0  0  0  0  0  0  0  0  0  0
  -30.8511  -18.5059   23.5383 N   0  0  0  0  0  0  0  0  0  0  0  0
  -26.2078  -12.8051   20.1742 N   0  0  0  0  0  0  0  0  0  0  0  0
  -30.1377  -17.7906   22.6519 N   0  0  0  0  0  0  0  0  0  0  0  0
  -26.1162  -24.8645   23.9727 N   0  0  0  0  0  0  0  0  0  0  0  0
  -29.9465  -13.5416   20.4249 N   0  0  0  0  0  0  0  0  0  0  0  0
  -25.4718  -15.0498   20.3487 N   0  0  0  0  0  0  0  0  0  0  0  0
  -21.8290  -12.6630   21.5443 N   0  0  0  0  0  0  0  0  0  0  0  0
  -30.0707  -15.6482   21.4780 N   0  0  0  0  0  0  0  0  0  0  0  0
  -27.2764  -28.0921   24.9560 N   0  0  0  0  0  0  0  0  0  0  0  0
  -23.4490  -23.3349   22.5569 N   0  0  0  0  0  0  0  0  0  0  0  0
  -24.2190  -20.5811   20.3452 N   0  3  0  0  0  0  0  0  0  0  0  0
  -22.6424  -14.7825   21.2204 O   0  0  0  0  0  0  0  0  0  0  0  0
  -26.8031  -26.1651   26.1747 O   0  0  0  0  0  0  0  0  0  0  0  0
  -24.4818  -25.9997   22.7577 O   0  0  0  0  0  0  0  0  0  0  0  0
  -24.3618  -21.2660   23.0705 O   0  0  0  0  0  0  0  0  0  0  0  0
  -31.8570  -14.8306   20.2442 O   0  0  0  0  0  0  0  0  0  0  0  0
  -21.4677   -7.1096   21.7974 O   0  0  0  0  0  0  0  0  0  0  0  0
  -30.1492  -21.0403   26.6490 O   0  0  0  0  0  0  0  0  0  1  0  0
  -23.7872   -3.0985   24.7867 F   0  0  0  0  0  0  0  0  0  0  0  0
  -20.3673   -6.3194   24.2072 F   0  0  0  0  0  0  0  0  0  0  0  0
  -32.9020  -15.1827   23.2558 Cl  0  0  0  0  0  0  0  0  0  0  0  0
  1  2  1  0  0  0  0
  1  5  2  0  0  0  0
  2  6  2  0  0  0  0
  3  8  2  0  0  0  0
  3 15  1  0  0  0  0
  4  9  1  0  0  0  0
  4 15  2  0  0  0  0
  5 17  1  0  0  0  0
  6 19  1  0  0  0  0
  7 10  2  0  0  0  0
  7 18  1  0  0  0  0
  8 21  1  0  0  0  0
  9 21  2  0  0  0  0
 10 22  1  0  0  0  0
 11 12  2  0  0  0  0
 11 23  1  0  0  0  0
 12 24  1  0  0  0  0
 13 20  1  0  0  0  0
 13 22  2  0  0  0  0
 14 24  2  0  0  0  0
 14 25  1  0  0  0  0
 15 27  1  0  0  0  0
 16 27  1  0  0  0  0
 16 29  2  0  0  0  0
 16 31  1  0  0  0  0
 17 19  2  0  0  0  0
 17 36  1  0  0  0  0
 18 20  2  0  0  0  0
 18 37  1  0  0  0  0
 19 45  1  0  0  0  0
 20 38  1  0  0  0  0
 21 82  1  0  0  0  0
 22 83  1  0  0  0  0
 23 25  2  0  0  0  0
 23 82  1  0  0  0  0
 24 84  1  0  0  0  0
 25 85  1  0  0  0  0
 26 28  1  0  0  0  0
 26 30  2  0  0  0  0
 26 86  1  0  0  0  0
 27 65  2  0  0  0  0
 28 56  1  0  0  0  0
 28 66  2  0  0  0  0
 29 67  1  0  0  0  0
 29 71  1  0  0  0  0
 30 68  1  0  0  0  0
 30 73  1  0  0  0  0
 31 72  1  0  0  0  0
 31 77  2  0  0  0  0
 32 46  1  0  0  0  0
 32 74  1  0  0  0  0
 32 78  2  0  0  0  0
 33 61  1  0  0  0  0
 33 69  1  0  0  0  0
 33 79  2  0  0  0  0
 34 62  1  0  0  0  0
 34 75  1  0  0  0  0
 34 80  2  0  0  0  0
 35 70  1  0  0  0  0
 35 73  1  0  0  0  0
 35 81  2  0  0  0  0
 36 39  1  0  0  0  0
 37 46  1  0  0  0  0
 38 69  1  0  0  0  0
 39 41  1  0  0  0  0
 40 42  1  0  0  0  0
 40 43  1  0  0  0  0
 41 45  1  0  0  0  0
 42 47  1  0  0  0  0
 43 70  1  0  0  0  0
 44 47  1  0  0  0  0
 44 70  1  0  0  0  0
 45 74  1  0  0  0  0
 46 69  1  0  0  0  0
 47 67  1  0  0  0  0
 48 57  1  0  0  0  0
 49 59  1  0  0  0  0
 50 62  1  0  0  0  0
 51 63  1  0  0  0  0
 52 63  1  0  0  0  0
 53 63  1  0  0  0  0
 54 64  1  0  0  0  0
 55 76  1  0  0  0  0
 56 64  1  0  0  0  0
 57 64  1  0  0  0  0
 58 60  1  0  0  0  0
 58 64  1  0  0  0  0
 59 68  1  0  0  0  0
 60 83  1  0  0  0  0
 61 63  1  0  0  0  0
 61 75  1  0  0  0  0
 62 76  1  0  0  0  0
 65 67  1  0  0  0  0
 66 68  1  0  0  0  0
M  CHG  1  76   1
M  ISO  4  35 100  60 101  73 100  83 101
M  END
> <Batch ID>
0019

> <Smiles>
CCn1nc(CC(C)(CC)C[101CH2:1][101O:1]c2ccc3c(c2)CN(C(=O)C(NC(=O)C(C)NC)C(C)(C)C)C(C(=O)NC2CCCc4ccccc42)C3)c(Cl)c1[100NH:0][100C:0](=O)N1CCCC(n2nc(-c3ccc(Oc4ccc(F)cc4F)cc3)c(C(N)=O)c2N)C1

> <Shape>
0.221

> <Color>
0.189

> <Negative vol penalty>
0.000

$$$$

  -OEChem-04052316073D

 84 92  0     1  0  0  0  0  0999 V2000
  -21.6843  -11.8306   21.1977 C   0  0  0  0  0  0  0  0  0  0  0  0
  -21.8529  -13.0518   21.8425 C   0  0  0  0  0  0  0  0  0  0  0  0
  -25.0142  -28.0742   19.1197 C   0  0  0  0  0  0  0  0  0  0  0  0
  -25.7738  -28.0566   21.4131 C   0  0  0  0  0  0  0  0  0  0  0  0
  -22.7690  -11.2192   20.5704 C   0  0  0  0  0  0  0  0  0  0  0  0
  -23.1068  -13.6616   21.8614 C   0  0  0  0  0  0  0  0  0  0  0  0
  -22.8723  -18.6169   20.8440 C   0  0  0  0  0  0  0  0  0  0  0  0
  -26.1759  -28.7463   18.7400 C   0  0  0  0  0  0  0  0  0  0  0  0
  -26.9356  -28.7287   21.0335 C   0  0  0  0  0  0  0  0  0  0  0  0
  -22.4551  -19.4593   21.8737 C   0  0  0  0  0  0  0  0  0  0  0  0
  -30.2677  -30.1206   20.6110 C   0  0  0  0  0  0  0  0  0  0  0  0
  -31.4803  -29.6629   21.1263 C   0  0  0  0  0  0  0  0  0  0  0  0
  -24.7534  -20.0370   22.3242 C   0  0  0  0  0  0  0  0  0  0  0  0
  -31.1056  -27.5100   20.0959 C   0  0  0  0  0  0  0  0  0  0  0  0
  -17.2602  -21.2782   24.9143 C   0  0  0  0  0  0  0  0  0  0  0  0
  -24.8131  -27.7294   20.4563 C   0  0  0  0  0  0  0  0  0  0  0  0
  -23.4154  -25.6429   20.9042 C   0  0  0  0  0  0  0  0  0  0  0  0
  -24.0346  -11.8265   20.5733 C   0  0  0  0  0  0  0  0  0  0  0  0
  -24.2362  -18.4697   20.5534 C   0  0  0  0  0  0  0  0  0  0  0  0
  -24.2097  -13.0571   21.2347 C   0  0  0  0  0  0  0  0  0  0  0  0
  -25.1852  -19.1942   21.2887 C   0  0  0  0  0  0  0  0  0  0  0  0
  -17.9541  -23.3949   25.8495 C   0  0  0  0  0  0  0  0  0  0  0  0
  -19.3705  -21.4510   26.0779 C   0  0  0  0  0  0  0  0  0  0  0  0
  -27.1367  -29.0735   19.6969 C   0  0  0  0  0  0  0  0  0  0  0  0
  -23.3958  -20.1673   22.6158 C   0  0  0  0  0  0  0  0  0  0  0  0
  -29.4739  -29.2730   19.8382 C   0  0  0  0  0  0  0  0  0  0  0  0
  -31.8993  -28.3576   20.8688 C   0  0  0  0  0  0  0  0  0  0  0  0
  -29.8929  -27.9677   19.5807 C   0  0  0  0  0  0  0  0  0  0  0  0
  -17.0194  -22.6317   25.1499 C   0  0  0  0  0  0  0  0  0  0  0  0
  -18.4357  -20.6878   25.3783 C   0  0  0  0  0  0  0  0  0  0  0  0
  -19.1297  -22.8045   26.3135 C   0  0  0  0  0  0  0  0  0  0  0  0
  -23.6129  -27.0357   20.8492 C   0  0  0  0  0  0  0  0  0  0  0  0
  -22.1189  -25.4966   21.3334 C   0  0  0  0  0  0  0  0  0  0  0  0
  -24.3227  -24.5767   20.5950 C   0  0  0  0  0  0  0  0  0  0  0  0
  -26.2893  -16.0434   20.5944 C   0  0  0  0  0  0  0  0  0  0  0  0
  -28.2974  -18.2292   19.2859 C   0  0  0  0  0  0  0  0  0  0  0  0
  -29.1135  -21.5129   18.8413 C   0  0  0  0  0  0  0  0  0  0  0  0
  -17.9311  -26.9123   24.7398 C   0  0  0  0  0  0  0  0  0  0  0  0
  -25.1877  -11.1046   19.9224 C   0  0  0  0  0  0  0  0  0  0  0  0
  -24.6683  -17.5777   19.4220 C   0  0  0  0  0  0  0  0  0  0  0  0
  -26.6601  -19.0868   21.0032 C   0  0  0  0  0  0  0  0  0  0  0  0
  -26.3990  -11.9976   19.6664 C   0  0  0  0  0  0  0  0  0  0  0  0
  -18.4100  -28.9008   21.8255 C   0  0  0  0  0  0  0  0  0  0  0  0
  -26.7168  -12.8334   20.9023 C   0  0  0  0  0  0  0  0  0  0  0  0
  -19.7919  -28.4825   21.3203 C   0  0  0  0  0  0  0  0  0  0  0  0
  -18.3491  -28.9207   23.3512 C   0  0  0  0  0  0  0  0  0  0  0  0
  -20.1545  -27.2496   23.4991 C   0  0  0  0  0  0  0  0  0  0  0  0
  -25.5487  -13.7620   21.2556 C   0  0  1  0  0  0  0  0  0  0  0  0
  -26.1145  -17.1090   19.5496 C   0  0  1  0  0  0  0  0  0  0  0  0
  -20.2486  -27.1606   21.9663 C   0  0  2  0  0  0  0  0  0  0  0  0
  -30.8304  -22.9866   17.7559 C   0  0  0  0  0  0  0  0  0  0  0  0
  -30.2761  -17.5574   21.5092 C   0  0  0  0  0  0  0  0  0  0  0  0
  -31.5081  -19.6651   20.9544 C   0  0  0  0  0  0  0  0  0  0  0  0
  -31.3068  -17.8547   19.2501 C   0  0  0  0  0  0  0  0  0  0  0  0
  -27.0843  -22.8032   17.1160 C   0  0  0  0  0  0  0  0  0  0  0  0
  -20.6396  -20.8080   26.5773 C   0  0  0  0  0  0  0  0  0  0  0  0
  -17.6563  -24.8418   26.0802 C   0  0  0  0  0  0  0  0  0  0  0  0
  -21.8737  -21.1482   25.7389 C   0  0  0  0  0  0  0  0  0  0  0  0
  -21.7893  -20.6370   24.3053 C   0  0  0  0  0  0  0  0  0  1  0  0
  -29.2749  -19.2431   19.8294 C   0  0  1  0  0  0  0  0  0  0  0  0
  -29.4831  -22.2995   17.5966 C   0  0  2  0  0  0  0  0  0  0  0  0
  -30.5639  -18.5808   20.3927 C   0  0  0  0  0  0  0  0  0  0  0  0
  -22.5286  -27.7250   21.2142 N   0  0  0  0  0  0  0  0  0  0  0  0
  -21.6373  -26.7614   21.5025 N   0  0  0  0  0  0  0  0  0  0  0  0
  -27.0332  -18.1968   19.8913 N   0  0  0  0  0  0  0  0  0  0  0  0
  -18.7933  -27.6376   23.9009 N   0  0  0  0  0  0  0  0  0  0  0  0
  -21.3552  -24.4108   21.5788 N   0  0  0  0  0  0  0  0  0  0  0  0
  -25.6170  -24.9035   20.1680 N   0  0  0  0  0  0  0  0  0  0  0  0
  -25.5309  -14.9096   20.3741 N   0  0  0  0  0  0  0  0  0  0  0  0
  -29.5151  -20.1969   18.7519 N   0  0  0  0  0  0  0  0  0  0  0  0
  -18.4276  -25.7037   25.2124 N   0  0  0  0  0  0  0  0  0  0  0  0
  -28.4544  -23.3410   17.3176 N   0  3  0  0  0  0  0  0  0  0  0  0
  -23.9902  -23.3701   20.6787 O   0  0  0  0  0  0  0  0  0  0  0  0
  -27.0566  -16.2352   21.5305 O   0  0  0  0  0  0  0  0  0  0  0  0
  -28.6404  -17.4978   18.3536 O   0  0  0  0  0  0  0  0  0  0  0  0
  -28.5305  -22.0166   19.7989 O   0  0  0  0  0  0  0  0  0  0  0  0
  -16.8004  -27.3098   25.0407 O   0  0  0  0  0  0  0  0  0  0  0  0
  -28.2706  -29.7291   19.3267 O   0  0  0  0  0  0  0  0  0  0  0  0
  -22.9914  -20.9896   23.6218 O   0  0  0  0  0  0  0  0  0  1  0  0
  -33.0646  -27.9187   21.3624 F   0  0  0  0  0  0  0  0  0  0  0  0
  -29.1352  -27.1491   18.8379 F   0  0  0  0  0  0  0  0  0  0  0  0
  -15.8861  -23.1884   24.6996 F   0  0  0  0  0  0  0  0  0  0  0  0
  -18.6922  -19.0091   25.0638 Cl  0  0  0  0  0  0  0  0  0  0  0  0
  -20.2871  -23.7579   27.1820 Cl  0  0  0  0  0  0  0  0  0  0  0  0
  1  2  1  0  0  0  0
  1  5  2  0  0  0  0
  2  6  2  0  0  0  0
  3  8  2  0  0  0  0
  3 16  1  0  0  0  0
  4  9  1  0  0  0  0
  4 16  2  0  0  0  0
  5 18  1  0  0  0  0
  6 20  1  0  0  0  0
  7 10  2  0  0  0  0
  7 19  1  0  0  0  0
  8 24  1  0  0  0  0
  9 24  2  0  0  0  0
 10 25  1  0  0  0  0
 11 12  2  0  0  0  0
 11 26  1  0  0  0  0
 12 27  1  0  0  0  0
 13 21  1  0  0  0  0
 13 25  2  0  0  0  0
 14 27  2  0  0  0  0
 14 28  1  0  0  0  0
 15 29  1  0  0  0  0
 15 30  2  0  0  0  0
 16 32  1  0  0  0  0
 17 32  1  0  0  0  0
 17 33  2  0  0  0  0
 17 34  1  0  0  0  0
 18 20  2  0  0  0  0
 18 39  1  0  0  0  0
 19 21  2  0  0  0  0
 19 40  1  0  0  0  0
 20 48  1  0  0  0  0
 21 41  1  0  0  0  0
 22 29  2  0  0  0  0
 22 31  1  0  0  0  0
 22 57  1  0  0  0  0
 23 30  1  0  0  0  0
 23 31  2  0  0  0  0
 23 56  1  0  0  0  0
 24 78  1  0  0  0  0
 25 79  1  0  0  0  0
 26 28  2  0  0  0  0
 26 78  1  0  0  0  0
 27 80  1  0  0  0  0
 28 81  1  0  0  0  0
 29 82  1  0  0  0  0
 30 83  1  0  0  0  0
 31 84  1  0  0  0  0
 32 63  2  0  0  0  0
 33 64  1  0  0  0  0
 33 67  1  0  0  0  0
 34 68  1  0  0  0  0
 34 73  2  0  0  0  0
 35 49  1  0  0  0  0
 35 69  1  0  0  0  0
 35 74  2  0  0  0  0
 36 60  1  0  0  0  0
 36 65  1  0  0  0  0
 36 75  2  0  0  0  0
 37 61  1  0  0  0  0
 37 70  1  0  0  0  0
 37 76  2  0  0  0  0
 38 66  1  0  0  0  0
 38 71  1  0  0  0  0
 38 77  2  0  0  0  0
 39 42  1  0  0  0  0
 40 49  1  0  0  0  0
 41 65  1  0  0  0  0
 42 44  1  0  0  0  0
 43 45  1  0  0  0  0
 43 46  1  0  0  0  0
 44 48  1  0  0  0  0
 45 50  1  0  0  0  0
 46 66  1  0  0  0  0
 47 50  1  0  0  0  0
 47 66  1  0  0  0  0
 48 69  1  0  0  0  0
 49 65  1  0  0  0  0
 50 64  1  0  0  0  0
 51 61  1  0  0  0  0
 52 62  1  0  0  0  0
 53 62  1  0  0  0  0
 54 62  1  0  0  0  0
 55 72  1  0  0  0  0
 56 58  1  0  0  0  0
 57 71  1  0  0  0  0
 58 59  1  0  0  0  0
 59 79  1  0  0  0  0
 60 62  1  0  0  0  0
 60 70  1  0  0  0  0
 61 72  1  0  0  0  0
 63 64  1  0  0  0  0
M  CHG  1  72   1
M  ISO  4  38 100  59 101  71 100  79 101
M  END
> <Batch ID>
0019

> <Smiles>
CNC(C)C(=O)NC(C(=O)N1Cc2cc([101O:1][101CH2:1]CCc3c(Cl)cc(F)c(C[100NH:0][100C:0](=O)N4CCCC(n5nc(-c6ccc(Oc7ccc(F)cc7F)cc6)c(C(N)=O)c5N)C4)c3Cl)ccc2CC1C(=O)NC1CCCc2ccccc21)C(C)(C)C

> <Shape>
0.205

> <Color>
0.077

> <Negative vol penalty>
0.000

$$$$

  -OEChem-04052316073D

 81 89  0     1  0  0  0  0  0999 V2000
  -28.5899  -31.3652   26.5476 C   0  0  0  0  0  0  0  0  0  0  0  0
  -28.8947  -30.2150   25.8267 C   0  0  0  0  0  0  0  0  0  0  0  0
  -23.0020   -9.8912   19.9819 C   0  0  0  0  0  0  0  0  0  0  0  0
  -23.7242   -9.9468   22.2867 C   0  0  0  0  0  0  0  0  0  0  0  0
  -28.3806  -31.2889   27.9239 C   0  0  0  0  0  0  0  0  0  0  0  0
  -28.9913  -28.9880   26.4820 C   0  0  0  0  0  0  0  0  0  0  0  0
  -27.4032  -23.5005   24.2748 C   0  0  0  0  0  0  0  0  0  0  0  0
  -22.2357   -8.7568   20.2494 C   0  0  0  0  0  0  0  0  0  0  0  0
  -22.9579   -8.8125   22.5543 C   0  0  0  0  0  0  0  0  0  0  0  0
  -28.1456  -22.4706   23.6986 C   0  0  0  0  0  0  0  0  0  0  0  0
  -23.2045   -5.4728   22.0889 C   0  0  0  0  0  0  0  0  0  0  0  0
  -23.7916   -4.4573   22.8437 C   0  0  0  0  0  0  0  0  0  0  0  0
  -28.2709  -21.3702   25.8416 C   0  0  0  0  0  0  0  0  0  0  0  0
  -32.0551  -16.5286   22.5378 C   0  0  0  0  0  0  0  0  0  0  0  0
  -22.0654   -4.7025   24.5162 C   0  0  0  0  0  0  0  0  0  0  0  0
  -23.7463  -10.4862   21.0006 C   0  0  0  0  0  0  0  0  0  0  0  0
  -24.1306  -13.0016   20.8203 C   0  0  0  0  0  0  0  0  0  0  0  0
  -28.4652  -30.0587   28.5948 C   0  0  0  0  0  0  0  0  0  0  0  0
  -27.0980  -23.4784   25.6433 C   0  0  0  0  0  0  0  0  0  0  0  0
  -28.7843  -28.8954   27.8688 C   0  0  0  0  0  0  0  0  0  0  0  0
  -27.5224  -22.3998   26.4322 C   0  0  0  0  0  0  0  0  0  0  0  0
  -31.9133  -18.3242   24.1480 C   0  0  0  0  0  0  0  0  0  0  0  0
  -30.5273  -18.3532   23.9936 C   0  0  0  0  0  0  0  0  0  0  0  0
  -30.6692  -16.5575   22.3834 C   0  0  0  0  0  0  0  0  0  0  0  0
  -22.2136   -8.2174   21.5355 C   0  0  0  0  0  0  0  0  0  0  0  0
  -28.5820  -21.4067   24.4826 C   0  0  0  0  0  0  0  0  0  0  0  0
  -22.0479   -6.1032   22.5478 C   0  0  0  0  0  0  0  0  0  0  0  0
  -23.2220   -4.0721   24.0573 C   0  0  0  0  0  0  0  0  0  0  0  0
  -21.4783   -5.7180   23.7615 C   0  0  0  0  0  0  0  0  0  0  0  0
  -32.6772  -17.4119   23.4202 C   0  0  0  0  0  0  0  0  0  0  0  0
  -29.9053  -17.4699   23.1113 C   0  0  0  0  0  0  0  0  0  0  0  0
  -24.5386  -11.6577   20.7248 C   0  0  0  0  0  0  0  0  0  0  0  0
  -25.2405  -13.7241   20.4560 C   0  0  0  0  0  0  0  0  0  0  0  0
  -22.8619  -13.5481   21.2042 C   0  0  0  0  0  0  0  0  0  0  0  0
  -27.7702  -25.3513   28.1220 C   0  0  0  0  0  0  0  0  0  0  0  0
  -25.7463  -23.3535   29.6825 C   0  0  0  0  0  0  0  0  0  0  0  0
  -24.2710  -20.2812   29.8583 C   0  0  0  0  0  0  0  0  0  0  0  0
  -30.7191  -14.6884   20.6952 C   0  0  0  0  0  0  0  0  0  0  0  0
  -28.2774  -30.0335   30.0911 C   0  0  0  0  0  0  0  0  0  0  0  0
  -26.2735  -24.5837   26.2441 C   0  0  0  0  0  0  0  0  0  0  0  0
  -27.2038  -22.3186   27.9020 C   0  0  0  0  0  0  0  0  0  0  0  0
  -28.0292  -28.6349   30.6503 C   0  0  0  0  0  0  0  0  0  0  0  0
  -29.6051  -12.2306   18.3725 C   0  0  0  0  0  0  0  0  0  0  0  0
  -29.0255  -27.6405   30.0626 C   0  0  0  0  0  0  0  0  0  0  0  0
  -28.1541  -11.9730   18.7852 C   0  0  0  0  0  0  0  0  0  0  0  0
  -30.5039  -12.4767   19.5829 C   0  0  0  0  0  0  0  0  0  0  0  0
  -28.5865  -13.2671   20.9125 C   0  0  0  0  0  0  0  0  0  0  0  0
  -28.8735  -27.5419   28.5399 C   0  0  1  0  0  0  0  0  0  0  0  0
  -26.4598  -24.7158   27.7525 C   0  0  1  0  0  0  0  0  0  0  0  0
  -27.6304  -13.0780   19.7234 C   0  0  2  0  0  0  0  0  0  0  0  0
  -32.5700  -19.2762   25.0995 C   0  0  0  0  0  0  0  0  0  0  0  0
  -22.6936  -18.9311   31.2677 C   0  0  0  0  0  0  0  0  0  0  0  0
  -27.9572  -22.9238   31.7409 C   0  0  0  0  0  0  0  0  0  0  0  0
  -26.7156  -20.9060   32.5503 C   0  0  0  0  0  0  0  0  0  0  0  0
  -25.6633  -23.1622   32.7081 C   0  0  0  0  0  0  0  0  0  0  0  0
  -22.3461  -19.9883   27.6294 C   0  0  0  0  0  0  0  0  0  0  0  0
  -29.7221  -19.3415   24.7849 C   0  0  0  0  0  0  0  0  0  1  0  0
  -25.8980  -22.0596   30.4451 C   0  0  1  0  0  0  0  0  0  0  0  0
  -22.8267  -19.8683   30.0775 C   0  0  2  0  0  0  0  0  0  0  0  0
  -26.5663  -22.2651   31.8339 C   0  0  0  0  0  0  0  0  0  0  0  0
  -25.8084  -11.5311   20.3305 N   0  0  0  0  0  0  0  0  0  0  0  0
  -26.2079  -12.8048   20.1750 N   0  0  0  0  0  0  0  0  0  0  0  0
  -26.4003  -23.4266   28.4444 N   0  0  0  0  0  0  0  0  0  0  0  0
  -29.9473  -13.5390   20.4235 N   0  0  0  0  0  0  0  0  0  0  0  0
  -25.4734  -15.0497   20.3518 N   0  0  0  0  0  0  0  0  0  0  0  0
  -21.8301  -12.6641   21.5481 N   0  0  0  0  0  0  0  0  0  0  0  0
  -30.0734  -15.6447   21.4782 N   0  0  0  0  0  0  0  0  0  0  0  0
  -27.7251  -26.7303   28.1981 N   0  0  0  0  0  0  0  0  0  0  0  0
  -24.5683  -21.4624   30.5045 N   0  0  0  0  0  0  0  0  0  0  0  0
  -22.2978  -19.1729   28.8702 N   0  3  0  0  0  0  0  0  0  0  0  0
  -22.6445  -14.7834   21.2254 O   0  0  0  0  0  0  0  0  0  0  0  0
  -28.7494  -24.6429   28.3247 O   0  0  0  0  0  0  0  0  0  0  0  0
  -25.0664  -24.2632   30.1641 O   0  0  0  0  0  0  0  0  0  0  0  0
  -25.0579  -19.6198   29.1845 O   0  0  0  0  0  0  0  0  0  0  0  0
  -31.8583  -14.8270   20.2424 O   0  0  0  0  0  0  0  0  0  0  0  0
  -21.4658   -7.1107   21.7970 O   0  0  0  0  0  0  0  0  0  0  0  0
  -29.3073  -20.4005   23.9229 O   0  0  0  0  0  0  0  0  0  1  0  0
  -23.7850   -3.0958   24.7813 F   0  0  0  0  0  0  0  0  0  0  0  0
  -20.3666   -6.3191   24.2069 F   0  0  0  0  0  0  0  0  0  0  0  0
  -34.3944  -17.3400   23.5864 Cl  0  0  0  0  0  0  0  0  0  0  0  0
  -28.1816  -17.5070   22.9208 Cl  0  0  0  0  0  0  0  0  0  0  0  0
  1  2  1  0  0  0  0
  1  5  2  0  0  0  0
  2  6  2  0  0  0  0
  3  8  2  0  0  0  0
  3 16  1  0  0  0  0
  4  9  1  0  0  0  0
  4 16  2  0  0  0  0
  5 18  1  0  0  0  0
  6 20  1  0  0  0  0
  7 10  2  0  0  0  0
  7 19  1  0  0  0  0
  8 25  1  0  0  0  0
  9 25  2  0  0  0  0
 10 26  1  0  0  0  0
 11 12  2  0  0  0  0
 11 27  1  0  0  0  0
 12 28  1  0  0  0  0
 13 21  1  0  0  0  0
 13 26  2  0  0  0  0
 14 24  2  0  0  0  0
 14 30  1  0  0  0  0
 15 28  2  0  0  0  0
 15 29  1  0  0  0  0
 16 32  1  0  0  0  0
 17 32  1  0  0  0  0
 17 33  2  0  0  0  0
 17 34  1  0  0  0  0
 18 20  2  0  0  0  0
 18 39  1  0  0  0  0
 19 21  2  0  0  0  0
 19 40  1  0  0  0  0
 20 48  1  0  0  0  0
 21 41  1  0  0  0  0
 22 23  1  0  0  0  0
 22 30  2  0  0  0  0
 22 51  1  0  0  0  0
 23 31  2  0  0  0  0
 23 57  1  0  0  0  0
 24 31  1  0  0  0  0
 24 67  1  0  0  0  0
 25 76  1  0  0  0  0
 26 77  1  0  0  0  0
 27 29  2  0  0  0  0
 27 76  1  0  0  0  0
 28 78  1  0  0  0  0
 29 79  1  0  0  0  0
 30 80  1  0  0  0  0
 31 81  1  0  0  0  0
 32 61  2  0  0  0  0
 33 62  1  0  0  0  0
 33 65  1  0  0  0  0
 34 66  1  0  0  0  0
 34 71  2  0  0  0  0
 35 49  1  0  0  0  0
 35 68  1  0  0  0  0
 35 72  2  0  0  0  0
 36 58  1  0  0  0  0
 36 63  1  0  0  0  0
 36 73  2  0  0  0  0
 37 59  1  0  0  0  0
 37 69  1  0  0  0  0
 37 74  2  0  0  0  0
 38 64  1  0  0  0  0
 38 67  1  0  0  0  0
 38 75  2  0  0  0  0
 39 42  1  0  0  0  0
 40 49  1  0  0  0  0
 41 63  1  0  0  0  0
 42 44  1  0  0  0  0
 43 45  1  0  0  0  0
 43 46  1  0  0  0  0
 44 48  1  0  0  0  0
 45 50  1  0  0  0  0
 46 64  1  0  0  0  0
 47 50  1  0  0  0  0
 47 64  1  0  0  0  0
 48 68  1  0  0  0  0
 49 63  1  0  0  0  0
 50 62  1  0  0  0  0
 52 59  1  0  0  0  0
 53 60  1  0  0  0  0
 54 60  1  0  0  0  0
 55 60  1  0  0  0  0
 56 70  1  0  0  0  0
 57 77  1  0  0  0  0
 58 60  1  0  0  0  0
 58 69  1  0  0  0  0
 59 70  1  0  0  0  0
 61 62  1  0  0  0  0
M  CHG  1  70   1
M  ISO  4  38 100  57 101  67 100  77 101
M  END
> <Batch ID>
0019

> <Smiles>
CNC(C)C(=O)NC(C(=O)N1Cc2cc([101O:1][101CH2:1]c3c(C)c(Cl)cc([100NH:0][100C:0](=O)N4CCCC(n5nc(-c6ccc(Oc7ccc(F)cc7F)cc6)c(C(N)=O)c5N)C4)c3Cl)ccc2CC1C(=O)NC1CCCc2ccccc21)C(C)(C)C

> <Shape>
0.184

> <Color>
0.206

> <Negative vol penalty>
0.000

$$$$

  -OEChem-04052316073D

 82 90  0     1  0  0  0  0  0999 V2000
  -18.3266  -28.2729   22.4608 C   0  0  0  0  0  0  0  0  0  0  0  0
  -19.5850  -28.7209   22.8497 C   0  0  0  0  0  0  0  0  0  0  0  0
  -24.7814  -16.8313   23.7414 C   0  0  0  0  0  0  0  0  0  0  0  0
  -23.7912  -18.3960   22.1896 C   0  0  0  0  0  0  0  0  0  0  0  0
  -18.1692  -26.9756   21.9750 C   0  0  0  0  0  0  0  0  0  0  0  0
  -20.6865  -27.8713   22.7540 C   0  0  0  0  0  0  0  0  0  0  0  0
  -24.7409  -30.1634   20.7658 C   0  0  0  0  0  0  0  0  0  0  0  0
  -24.3050  -15.7685   22.9738 C   0  0  0  0  0  0  0  0  0  0  0  0
  -23.3149  -17.3333   21.4219 C   0  0  0  0  0  0  0  0  0  0  0  0
  -25.4716  -31.0046   21.6038 C   0  0  0  0  0  0  0  0  0  0  0  0
  -25.1672  -14.1748   20.1190 C   0  0  0  0  0  0  0  0  0  0  0  0
  -26.0431  -13.1218   19.8555 C   0  0  0  0  0  0  0  0  0  0  0  0
  -27.0909  -29.2493   21.9438 C   0  0  0  0  0  0  0  0  0  0  0  0
  -28.1199  -28.2568   24.4437 C   0  0  0  0  0  0  0  0  0  0  0  0
  -25.5003  -28.2908   25.4023 C   0  0  0  0  0  0  0  0  0  0  0  0
  -24.5365  -11.5916   20.9627 C   0  0  0  0  0  0  0  0  0  0  0  0
  -24.5244  -18.1450   23.3494 C   0  0  0  0  0  0  0  0  0  0  0  0
  -26.3576  -19.5342   24.4526 C   0  0  0  0  0  0  0  0  0  0  0  0
  -19.2710  -26.1129   21.8643 C   0  0  0  0  0  0  0  0  0  0  0  0
  -25.1747  -28.8530   20.5187 C   0  0  0  0  0  0  0  0  0  0  0  0
  -20.5435  -26.5607   22.2675 C   0  0  0  0  0  0  0  0  0  0  0  0
  -26.3653  -28.3943   21.1003 C   0  0  0  0  0  0  0  0  0  0  0  0
  -27.4188  -29.4605   24.5145 C   0  0  0  0  0  0  0  0  0  0  0  0
  -27.5112  -27.0700   24.8521 C   0  0  0  0  0  0  0  0  0  0  0  0
  -26.1090  -29.4775   24.9939 C   0  0  0  0  0  0  0  0  0  0  0  0
  -26.2014  -27.0870   25.3314 C   0  0  0  0  0  0  0  0  0  0  0  0
  -23.5718  -16.0195   21.8140 C   0  0  0  0  0  0  0  0  0  0  0  0
  -26.6453  -30.5467   22.1953 C   0  0  0  0  0  0  0  0  0  0  0  0
  -23.9760  -13.9363   20.8044 C   0  0  0  0  0  0  0  0  0  0  0  0
  -25.7278  -11.8302   20.2774 C   0  0  0  0  0  0  0  0  0  0  0  0
  -23.6606  -12.6447   21.2262 C   0  0  0  0  0  0  0  0  0  0  0  0
  -25.0157  -19.2433   24.1423 C   0  0  0  0  0  0  0  0  0  0  0  0
  -26.2934  -20.6687   25.2242 C   0  0  0  0  0  0  0  0  0  0  0  0
  -27.5551  -18.8411   24.0769 C   0  0  0  0  0  0  0  0  0  0  0  0
  -23.9815  -25.9563   21.0563 C   0  0  0  0  0  0  0  0  0  0  0  0
  -26.5690  -24.9998   19.3497 C   0  0  0  0  0  0  0  0  0  0  0  0
  -30.0488  -25.1779   18.4134 C   0  0  0  0  0  0  0  0  0  0  0  0
  -24.2708  -25.7541   26.2493 C   0  0  0  0  0  0  0  0  0  0  0  0
  -19.0435  -24.7035   21.3778 C   0  0  0  0  0  0  0  0  0  0  0  0
  -24.3894  -27.9670   19.5911 C   0  0  0  0  0  0  0  0  0  0  0  0
  -26.8849  -27.0027   20.8510 C   0  0  0  0  0  0  0  0  0  0  0  0
  -20.3255  -23.9903   20.9560 C   0  0  0  0  0  0  0  0  0  0  0  0
  -22.3278  -22.9830   27.3550 C   0  0  0  0  0  0  0  0  0  0  0  0
  -21.4174  -24.1919   22.0019 C   0  0  0  0  0  0  0  0  0  0  0  0
  -22.9643  -21.7869   26.6433 C   0  0  0  0  0  0  0  0  0  0  0  0
  -22.3209  -24.2300   26.4726 C   0  0  0  0  0  0  0  0  0  0  0  0
  -24.2630  -23.4055   25.2008 C   0  0  0  0  0  0  0  0  0  0  0  0
  -21.7669  -25.6771   22.1554 C   0  0  1  0  0  0  0  0  0  0  0  0
  -24.6522  -26.4815   19.8185 C   0  0  1  0  0  0  0  0  0  0  0  0
  -24.3515  -22.1430   26.0737 C   0  0  2  0  0  0  0  0  0  0  0  0
  -28.2860  -25.7952   24.7653 C   0  0  0  0  0  0  0  0  0  0  0  0
  -25.3387  -30.7542   25.0786 C   0  0  0  0  0  0  0  0  0  0  0  0
  -31.3430  -23.8906   16.6914 C   0  0  0  0  0  0  0  0  0  0  0  0
  -28.1843  -31.7575   25.2129 C   0  0  0  0  0  0  0  0  0  0  0  0
  -29.5042  -30.4573   23.4994 C   0  0  0  0  0  0  0  0  0  0  0  0
  -27.2620  -23.1492   21.6745 C   0  0  0  0  0  0  0  0  0  0  0  0
  -29.5644  -22.9232   20.7173 C   0  0  0  0  0  0  0  0  0  0  0  0
  -27.5892  -22.1443   19.4079 C   0  0  0  0  0  0  0  0  0  0  0  0
  -30.9735  -27.6567   17.0869 C   0  0  0  0  0  0  0  0  0  0  0  0
  -27.9922  -24.6247   19.6857 C   0  0  1  0  0  0  0  0  0  0  0  0
  -30.6112  -25.1868   17.0034 C   0  0  2  0  0  0  0  0  0  0  0  0
  -28.1059  -30.7464   24.0615 C   0  0  0  0  0  0  0  0  0  1  0  0
  -28.0914  -23.2360   20.3778 C   0  0  0  0  0  0  0  0  0  0  0  0
  -24.1614  -20.1219   24.6735 N   0  0  0  0  0  0  0  0  0  0  0  0
  -24.9685  -20.9761   25.3255 N   0  0  0  0  0  0  0  0  0  0  0  0
  -26.0782  -26.1722   19.9416 N   0  0  0  0  0  0  0  0  0  0  0  0
  -23.6691  -24.5082   25.9728 N   0  0  0  0  0  0  0  0  0  0  0  0
  -27.2415  -21.4233   25.8192 N   0  0  0  0  0  0  0  0  0  0  0  0
  -28.0293  -17.8235   24.9159 N   0  0  0  0  0  0  0  0  0  0  0  0
  -25.5660  -25.8921   25.7511 N   0  0  0  0  0  0  0  0  0  0  0  0
  -22.6087  -26.1138   21.0623 N   0  0  0  0  0  0  0  0  0  0  0  0
  -28.7460  -24.7271   18.4408 N   0  0  0  0  0  0  0  0  0  0  0  0
  -31.5662  -26.3182   16.8338 N   0  3  0  0  0  0  0  0  0  0  0  0
  -28.1951  -19.1271   23.0366 O   0  0  0  0  0  0  0  0  0  0  0  0
  -24.6592  -25.4446   21.9398 O   0  0  0  0  0  0  0  0  0  0  0  0
  -25.9192  -24.2830   18.5845 O   0  0  0  0  0  0  0  0  0  0  0  0
  -30.7013  -25.5318   19.3930 O   0  0  0  0  0  0  0  0  0  0  0  0
  -23.6910  -26.6236   26.9049 O   0  0  0  0  0  0  0  0  0  0  0  0
  -23.1071  -14.9828   21.0645 O   0  0  0  0  0  0  0  0  0  0  0  0
  -27.3600  -31.3654   23.0142 O   0  0  0  0  0  0  0  0  0  1  0  0
  -26.5683  -10.8187   20.0229 F   0  0  0  0  0  0  0  0  0  0  0  0
  -22.5171  -12.4093   21.8841 F   0  0  0  0  0  0  0  0  0  0  0  0
  1  2  1  0  0  0  0
  1  5  2  0  0  0  0
  2  6  2  0  0  0  0
  3  8  2  0  0  0  0
  3 17  1  0  0  0  0
  4  9  1  0  0  0  0
  4 17  2  0  0  0  0
  5 19  1  0  0  0  0
  6 21  1  0  0  0  0
  7 10  2  0  0  0  0
  7 20  1  0  0  0  0
  8 27  1  0  0  0  0
  9 27  2  0  0  0  0
 10 28  1  0  0  0  0
 11 12  2  0  0  0  0
 11 29  1  0  0  0  0
 12 30  1  0  0  0  0
 13 22  1  0  0  0  0
 13 28  2  0  0  0  0
 14 23  1  0  0  0  0
 14 24  2  0  0  0  0
 15 25  1  0  0  0  0
 15 26  2  0  0  0  0
 16 30  2  0  0  0  0
 16 31  1  0  0  0  0
 17 32  1  0  0  0  0
 18 32  1  0  0  0  0
 18 33  2  0  0  0  0
 18 34  1  0  0  0  0
 19 21  2  0  0  0  0
 19 39  1  0  0  0  0
 20 22  2  0  0  0  0
 20 40  1  0  0  0  0
 21 48  1  0  0  0  0
 22 41  1  0  0  0  0
 23 25  2  0  0  0  0
 23 62  1  0  0  0  0
 24 26  1  0  0  0  0
 24 51  1  0  0  0  0
 25 52  1  0  0  0  0
 26 70  1  0  0  0  0
 27 79  1  0  0  0  0
 28 80  1  0  0  0  0
 29 31  2  0  0  0  0
 29 79  1  0  0  0  0
 30 81  1  0  0  0  0
 31 82  1  0  0  0  0
 32 64  2  0  0  0  0
 33 65  1  0  0  0  0
 33 68  1  0  0  0  0
 34 69  1  0  0  0  0
 34 74  2  0  0  0  0
 35 49  1  0  0  0  0
 35 71  1  0  0  0  0
 35 75  2  0  0  0  0
 36 60  1  0  0  0  0
 36 66  1  0  0  0  0
 36 76  2  0  0  0  0
 37 61  1  0  0  0  0
 37 72  1  0  0  0  0
 37 77  2  0  0  0  0
 38 67  1  0  0  0  0
 38 70  1  0  0  0  0
 38 78  2  0  0  0  0
 39 42  1  0  0  0  0
 40 49  1  0  0  0  0
 41 66  1  0  0  0  0
 42 44  1  0  0  0  0
 43 45  1  0  0  0  0
 43 46  1  0  0  0  0
 44 48  1  0  0  0  0
 45 50  1  0  0  0  0
 46 67  1  0  0  0  0
 47 50  1  0  0  0  0
 47 67  1  0  0  0  0
 48 71  1  0  0  0  0
 49 66  1  0  0  0  0
 50 65  1  0  0  0  0
 53 61  1  0  0  0  0
 54 62  1  0  0  0  0
 55 62  1  0  0  0  0
 56 63  1  0  0  0  0
 57 63  1  0  0  0  0
 58 63  1  0  0  0  0
 59 73  1  0  0  0  0
 60 63  1  0  0  0  0
 60 72  1  0  0  0  0
 61 73  1  0  0  0  0
 62 80  1  0  0  0  0
 64 65  1  0  0  0  0
M  CHG  1  73   1
M  ISO  4  38 100  62 101  70 100  80 101
M  END
> <Batch ID>
0019

> <Smiles>
CNC(C)C(=O)NC(C(=O)N1Cc2cc([101O:1][101C:1](C)(C)c3cc(C)c([100NH:0][100C:0](=O)N4CCCC(n5nc(-c6ccc(Oc7ccc(F)cc7F)cc6)c(C(N)=O)c5N)C4)cc3C)ccc2CC1C(=O)NC1CCCc2ccccc21)C(C)(C)C

> <Shape>
0.221

> <Color>
0.073

> <Negative vol penalty>
0.000

$$$$

  -OEChem-04052316073D

 81 89  0     1  0  0  0  0  0999 V2000
  -29.4446  -35.0227   23.9141 C   0  0  0  0  0  0  0  0  0  0  0  0
  -30.0223  -33.9421   23.2554 C   0  0  0  0  0  0  0  0  0  0  0  0
  -24.2503   -9.2938   21.4740 C   0  0  0  0  0  0  0  0  0  0  0  0
  -24.7719  -10.5486   23.4716 C   0  0  0  0  0  0  0  0  0  0  0  0
  -28.2192  -34.8691   24.5612 C   0  0  0  0  0  0  0  0  0  0  0  0
  -29.3754  -32.7069   23.2443 C   0  0  0  0  0  0  0  0  0  0  0  0
  -28.4314  -26.9363   19.1060 C   0  0  0  0  0  0  0  0  0  0  0  0
  -23.9353   -8.1818   22.2547 C   0  0  0  0  0  0  0  0  0  0  0  0
  -24.4569   -9.4365   24.2524 C   0  0  0  0  0  0  0  0  0  0  0  0
  -28.5414  -25.5472   19.1534 C   0  0  0  0  0  0  0  0  0  0  0  0
  -22.6475   -5.1247   23.7417 C   0  0  0  0  0  0  0  0  0  0  0  0
  -21.4838   -4.4218   23.4296 C   0  0  0  0  0  0  0  0  0  0  0  0
  -26.3903  -25.4199   20.2376 C   0  0  0  0  0  0  0  0  0  0  0  0
  -20.1744   -6.4127   23.8285 C   0  0  0  0  0  0  0  0  0  0  0  0
  -24.6687  -10.4773   22.0824 C   0  0  0  0  0  0  0  0  0  0  0  0
  -24.1213  -12.6495   20.8620 C   0  0  0  0  0  0  0  0  0  0  0  0
  -27.5523  -33.6339   24.5498 C   0  0  0  0  0  0  0  0  0  0  0  0
  -27.3030  -27.5793   19.6348 C   0  0  0  0  0  0  0  0  0  0  0  0
  -28.1406  -32.5363   23.8929 C   0  0  0  0  0  0  0  0  0  0  0  0
  -26.2672  -26.8170   20.1934 C   0  0  0  0  0  0  0  0  0  0  0  0
  -27.6614  -19.2839   18.8758 C   0  0  0  0  0  0  0  0  0  0  0  0
  -27.6910  -20.6664   18.7313 C   0  0  0  0  0  0  0  0  0  0  0  0
  -28.6519  -18.6463   19.6145 C   0  0  0  0  0  0  0  0  0  0  0  0
  -24.0385   -8.2531   23.6439 C   0  0  0  0  0  0  0  0  0  0  0  0
  -27.5221  -24.7890   19.7219 C   0  0  0  0  0  0  0  0  0  0  0  0
  -22.5747   -6.4715   24.0973 C   0  0  0  0  0  0  0  0  0  0  0  0
  -20.2473   -5.0658   23.4730 C   0  0  0  0  0  0  0  0  0  0  0  0
  -21.3381   -7.1155   24.1407 C   0  0  0  0  0  0  0  0  0  0  0  0
  -24.9948  -11.6262   21.2764 C   0  0  0  0  0  0  0  0  0  0  0  0
  -28.7242  -21.3602   19.3403 C   0  0  0  0  0  0  0  0  0  0  0  0
  -29.6423  -19.4305   20.1838 C   0  0  0  0  0  0  0  0  0  0  0  0
  -24.9111  -13.4972   20.1243 C   0  0  0  0  0  0  0  0  0  0  0  0
  -22.7213  -12.8187   21.1208 C   0  0  0  0  0  0  0  0  0  0  0  0
  -26.8054  -29.6772   21.9704 C   0  0  0  0  0  0  0  0  0  0  0  0
  -23.7711  -29.6454   20.8241 C   0  0  0  0  0  0  0  0  0  0  0  0
  -21.3415  -27.9775   19.1030 C   0  0  0  0  0  0  0  0  0  0  0  0
  -29.6412  -16.3407   19.3867 C   0  0  0  0  0  0  0  0  0  0  0  0
  -26.2523  -33.5038   25.3034 C   0  0  0  0  0  0  0  0  0  0  0  0
  -27.1874  -29.0767   19.5518 C   0  0  0  0  0  0  0  0  0  0  0  0
  -25.0259  -27.4577   20.7566 C   0  0  0  0  0  0  0  0  0  0  0  0
  -25.4516  -32.2600   24.9264 C   0  0  0  0  0  0  0  0  0  0  0  0
  -29.6297  -12.9242   18.3844 C   0  0  0  0  0  0  0  0  0  0  0  0
  -26.3564  -31.0324   24.8934 C   0  0  0  0  0  0  0  0  0  0  0  0
  -28.3510  -12.3661   19.0133 C   0  0  0  0  0  0  0  0  0  0  0  0
  -30.3079  -13.9487   19.2922 C   0  0  0  0  0  0  0  0  0  0  0  0
  -28.1628  -14.4844   20.3788 C   0  0  0  0  0  0  0  0  0  0  0  0
  -27.4577  -31.1869   23.8375 C   0  0  1  0  0  0  0  0  0  0  0  0
  -26.2270  -29.6599   20.5838 C   0  0  1  0  0  0  0  0  0  0  0  0
  -27.4095  -13.4964   19.4732 C   0  0  2  0  0  0  0  0  0  0  0  0
  -26.5655  -18.4892   18.2385 C   0  0  0  0  0  0  0  0  0  0  0  0
  -26.6430  -21.3806   17.9452 C   0  0  0  0  0  0  0  0  0  0  0  0
  -30.7344  -18.8059   20.9908 C   0  0  0  0  0  0  0  0  0  0  0  0
  -18.9531  -28.1897   18.3629 C   0  0  0  0  0  0  0  0  0  0  0  0
  -22.8389  -29.0220   23.6618 C   0  0  0  0  0  0  0  0  0  0  0  0
  -20.6337  -28.3180   22.7081 C   0  0  0  0  0  0  0  0  0  0  0  0
  -21.4147  -30.6713   22.4345 C   0  0  0  0  0  0  0  0  0  0  0  0
  -22.0925  -27.8265   16.2443 C   0  0  0  0  0  0  0  0  0  0  0  0
  -28.8093  -22.8534   19.2194 C   0  0  0  0  0  0  0  0  0  1  0  0
  -22.5304  -28.8326   21.1054 C   0  0  1  0  0  0  0  0  0  0  0  0
  -20.4092  -28.4224   17.9907 C   0  0  2  0  0  0  0  0  0  0  0  0
  -21.8786  -29.1987   22.4687 C   0  0  0  0  0  0  0  0  0  0  0  0
  -26.2438  -11.8055   20.8383 N   0  0  0  0  0  0  0  0  0  0  0  0
  -29.7041  -20.7758   20.0655 N   0  0  0  0  0  0  0  0  0  0  0  0
  -26.1608  -12.9513   20.1408 N   0  0  0  0  0  0  0  0  0  0  0  0
  -24.9625  -28.9252   20.6577 N   0  0  0  0  0  0  0  0  0  0  0  0
  -29.3567  -14.9911   19.6841 N   0  0  0  0  0  0  0  0  0  0  0  0
  -24.6514  -14.6489   19.4696 N   0  0  0  0  0  0  0  0  0  0  0  0
  -22.0641  -11.8545   21.8971 N   0  0  0  0  0  0  0  0  0  0  0  0
  -28.6489  -17.2388   19.7782 N   0  0  0  0  0  0  0  0  0  0  0  0
  -26.9266  -30.9419   22.5138 N   0  0  0  0  0  0  0  0  0  0  0  0
  -21.6525  -29.0163   19.9548 N   0  0  0  0  0  0  0  0  0  0  0  0
  -20.7003  -27.6690   16.7383 N   0  3  0  0  0  0  0  0  0  0  0  0
  -22.0688  -13.7873   20.6631 O   0  0  0  0  0  0  0  0  0  0  0  0
  -27.1173  -28.6211   22.5081 O   0  0  0  0  0  0  0  0  0  0  0  0
  -23.6849  -30.8736   20.7475 O   0  0  0  0  0  0  0  0  0  0  0  0
  -21.7499  -26.8231   19.2080 O   0  0  0  0  0  0  0  0  0  0  0  0
  -30.6754  -16.6722   18.8016 O   0  0  0  0  0  0  0  0  0  0  0  0
  -23.7309   -7.1681   24.4061 O   0  0  0  0  0  0  0  0  0  0  0  0
  -27.6273  -23.4331   19.7700 O   0  0  0  0  0  0  0  0  0  1  0  0
  -19.1300   -4.3911   23.1717 F   0  0  0  0  0  0  0  0  0  0  0  0
  -21.2619   -8.4096   24.4804 F   0  0  0  0  0  0  0  0  0  0  0  0
  1  2  1  0  0  0  0
  1  5  2  0  0  0  0
  2  6  2  0  0  0  0
  3  8  2  0  0  0  0
  3 15  1  0  0  0  0
  4  9  1  0  0  0  0
  4 15  2  0  0  0  0
  5 17  1  0  0  0  0
  6 19  1  0  0  0  0
  7 10  2  0  0  0  0
  7 18  1  0  0  0  0
  8 24  1  0  0  0  0
  9 24  2  0  0  0  0
 10 25  1  0  0  0  0
 11 12  2  0  0  0  0
 11 26  1  0  0  0  0
 12 27  1  0  0  0  0
 13 20  1  0  0  0  0
 13 25  2  0  0  0  0
 14 27  2  0  0  0  0
 14 28  1  0  0  0  0
 15 29  1  0  0  0  0
 16 29  1  0  0  0  0
 16 32  2  0  0  0  0
 16 33  1  0  0  0  0
 17 19  2  0  0  0  0
 17 38  1  0  0  0  0
 18 20  2  0  0  0  0
 18 39  1  0  0  0  0
 19 47  1  0  0  0  0
 20 40  1  0  0  0  0
 21 22  1  0  0  0  0
 21 23  2  0  0  0  0
 21 50  1  0  0  0  0
 22 30  2  0  0  0  0
 22 51  1  0  0  0  0
 23 31  1  0  0  0  0
 23 69  1  0  0  0  0
 24 78  1  0  0  0  0
 25 79  1  0  0  0  0
 26 28  2  0  0  0  0
 26 78  1  0  0  0  0
 27 80  1  0  0  0  0
 28 81  1  0  0  0  0
 29 62  2  0  0  0  0
 30 58  1  0  0  0  0
 30 63  1  0  0  0  0
 31 52  1  0  0  0  0
 31 63  2  0  0  0  0
 32 64  1  0  0  0  0
 32 67  1  0  0  0  0
 33 68  1  0  0  0  0
 33 73  2  0  0  0  0
 34 48  1  0  0  0  0
 34 70  1  0  0  0  0
 34 74  2  0  0  0  0
 35 59  1  0  0  0  0
 35 65  1  0  0  0  0
 35 75  2  0  0  0  0
 36 60  1  0  0  0  0
 36 71  1  0  0  0  0
 36 76  2  0  0  0  0
 37 66  1  0  0  0  0
 37 69  1  0  0  0  0
 37 77  2  0  0  0  0
 38 41  1  0  0  0  0
 39 48  1  0  0  0  0
 40 65  1  0  0  0  0
 41 43  1  0  0  0  0
 42 44  1  0  0  0  0
 42 45  1  0  0  0  0
 43 47  1  0  0  0  0
 44 49  1  0  0  0  0
 45 66  1  0  0  0  0
 46 49  1  0  0  0  0
 46 66  1  0  0  0  0
 47 70  1  0  0  0  0
 48 65  1  0  0  0  0
 49 64  1  0  0  0  0
 53 60  1  0  0  0  0
 54 61  1  0  0  0  0
 55 61  1  0  0  0  0
 56 61  1  0  0  0  0
 57 72  1  0  0  0  0
 58 79  1  0  0  0  0
 59 61  1  0  0  0  0
 59 71  1  0  0  0  0
 60 72  1  0  0  0  0
 62 64  1  0  0  0  0
M  CHG  1  72   1
M  ISO  4  37 100  58 101  69 100  79 101
M  END
> <Batch ID>
0019

> <Smiles>
CNC(C)C(=O)NC(C(=O)N1Cc2cc([101O:1][101CH2:1]c3nc(C)c([100NH:0][100C:0](=O)N4CCCC(n5nc(-c6ccc(Oc7ccc(F)cc7F)cc6)c(C(N)=O)c5N)C4)c(C)c3C)ccc2CC1C(=O)NC1CCCc2ccccc21)C(C)(C)C

> <Shape>
0.337

> <Color>
0.123

> <Negative vol penalty>
0.000

$$$$

  -OEChem-04052316073D

 92100  0     1  0  0  0  0  0999 V2000
  -32.2691  -13.5808   21.5396 C   0  0  0  0  0  0  0  0  0  0  0  0
  -31.3538  -14.3871   22.2066 C   0  0  0  0  0  0  0  0  0  0  0  0
  -29.8393  -23.0425   20.6988 C   0  0  0  0  0  0  0  0  0  0  0  0
  -27.7080  -22.2102   19.9233 C   0  0  0  0  0  0  0  0  0  0  0  0
  -31.8570  -12.8229   20.4455 C   0  0  0  0  0  0  0  0  0  0  0  0
  -30.0236  -14.4267   21.7873 C   0  0  0  0  0  0  0  0  0  0  0  0
  -25.3501  -17.8073   23.7513 C   0  0  0  0  0  0  0  0  0  0  0  0
  -30.0752  -21.8319   21.3501 C   0  0  0  0  0  0  0  0  0  0  0  0
  -27.9438  -20.9995   20.5746 C   0  0  0  0  0  0  0  0  0  0  0  0
  -24.7627  -19.0323   23.4379 C   0  0  0  0  0  0  0  0  0  0  0  0
  -31.3986  -18.8302   22.9166 C   0  0  0  0  0  0  0  0  0  0  0  0
  -32.6628  -18.2567   22.7815 C   0  0  0  0  0  0  0  0  0  0  0  0
  -23.1314  -17.8940   22.0732 C   0  0  0  0  0  0  0  0  0  0  0  0
  -32.3540  -18.1397   20.3881 C   0  0  0  0  0  0  0  0  0  0  0  0
  -28.6557  -23.2317   19.9854 C   0  0  0  0  0  0  0  0  0  0  0  0
  -28.7603  -24.8194   17.9914 C   0  0  0  0  0  0  0  0  0  0  0  0
  -30.5237  -12.8633   20.0056 C   0  0  0  0  0  0  0  0  0  0  0  0
  -24.8383  -16.6154   23.2185 C   0  0  0  0  0  0  0  0  0  0  0  0
  -29.5829  -13.6507   20.7000 C   0  0  0  0  0  0  0  0  0  0  0  0
  -23.7125  -16.6550   22.3835 C   0  0  0  0  0  0  0  0  0  0  0  0
  -29.1274  -20.8103   21.2880 C   0  0  0  0  0  0  0  0  0  0  0  0
  -23.6550  -19.0760   22.5964 C   0  0  0  0  0  0  0  0  0  0  0  0
  -30.6120  -19.0585   21.7875 C   0  0  0  0  0  0  0  0  0  0  0  0
  -33.1406  -17.9114   21.5173 C   0  0  0  0  0  0  0  0  0  0  0  0
  -31.0897  -18.7132   20.5233 C   0  0  0  0  0  0  0  0  0  0  0  0
  -28.4112  -24.4824   19.3129 C   0  0  0  0  0  0  0  0  0  0  0  0
  -28.3124  -26.1084   17.8361 C   0  0  0  0  0  0  0  0  0  0  0  0
  -29.4294  -24.0370   16.9934 C   0  0  0  0  0  0  0  0  0  0  0  0
  -25.9756  -14.3399   21.3126 C   0  0  0  0  0  0  0  0  0  0  0  0
  -26.8127  -31.6351   24.3965 C   0  0  0  0  0  0  0  0  0  0  0  0
  -23.1605  -12.8885   22.0132 C   0  0  0  0  0  0  0  0  0  0  0  0
  -19.9140  -13.1959   23.0196 C   0  0  0  0  0  0  0  0  0  0  0  0
  -27.4418  -30.5250   21.4435 C   0  0  0  0  0  0  0  0  0  0  0  0
  -30.1301  -12.0167   18.8208 C   0  0  0  0  0  0  0  0  0  0  0  0
  -25.4669  -15.2998   23.5877 C   0  0  0  0  0  0  0  0  0  0  0  0
  -23.1122  -15.4021   21.8017 C   0  0  0  0  0  0  0  0  0  0  0  0
  -28.8186  -12.4615   18.1818 C   0  0  0  0  0  0  0  0  0  0  0  0
  -25.3593  -34.0137   22.8817 C   0  0  0  0  0  0  0  0  0  0  0  0
  -26.2049  -34.0073   21.6148 C   0  0  0  0  0  0  0  0  0  0  0  0
  -24.9619  -29.1322   19.4094 C   0  0  0  0  0  0  0  0  0  0  0  0
  -27.7498  -12.6289   19.2515 C   0  0  0  0  0  0  0  0  0  0  0  0
  -24.8332  -32.6164   23.2067 C   0  0  0  0  0  0  0  0  0  0  0  0
  -25.6028  -27.8016   19.0157 C   0  0  0  0  0  0  0  0  0  0  0  0
  -25.2110  -29.4746   20.8793 C   0  0  0  0  0  0  0  0  0  0  0  0
  -27.3216  -32.9743   21.6934 C   0  0  0  0  0  0  0  0  0  0  0  0
  -27.2808  -28.1200   20.8738 C   0  0  0  0  0  0  0  0  0  0  0  0
  -28.1377  -13.7332   20.2430 C   0  0  1  0  0  0  0  0  0  0  0  0
  -25.1769  -14.1945   22.5770 C   0  0  1  0  0  0  0  0  0  0  0  0
  -25.9209  -31.5431   23.1896 C   0  0  1  0  0  0  0  0  0  0  0  0
  -27.0961  -27.7754   19.3877 C   0  0  1  0  0  0  0  0  0  0  0  0
  -17.8516  -11.8365   23.4620 C   0  0  0  0  0  0  0  0  0  0  0  0
  -22.6911  -12.6278   19.0096 C   0  0  0  0  0  0  0  0  0  0  0  0
  -20.2804  -12.1601   19.4974 C   0  0  0  0  0  0  0  0  0  0  0  0
  -22.0453  -10.6143   20.3450 C   0  0  0  0  0  0  0  0  0  0  0  0
  -20.6349  -21.5868   23.3546 C   0  0  0  0  0  0  0  0  0  0  0  0
  -22.0240  -23.0145   21.8103 C   0  0  0  0  0  0  0  0  0  0  0  0
  -27.1841  -30.9211   26.7626 C   0  0  0  0  0  0  0  0  0  0  0  0
  -19.8418  -14.0169   25.8621 C   0  0  0  0  0  0  0  0  0  0  0  0
  -21.9538  -22.6958   25.6049 C   0  0  0  0  0  0  0  0  0  0  0  0
  -24.1531  -27.8373   25.1120 C   0  0  0  0  0  0  0  0  0  0  0  0
  -24.4226  -26.4181   24.6066 C   0  0  0  0  0  0  0  0  0  0  0  0
  -25.4348  -28.6774   25.1088 C   0  0  0  0  0  0  0  0  0  0  0  0
  -23.1943  -25.5034   24.6723 C   0  0  0  0  0  0  0  0  0  0  0  0
  -25.1931  -30.1169   25.5509 C   0  0  0  0  0  0  0  0  0  0  0  0
  -23.3829  -24.0950   24.1215 C   0  0  0  0  0  0  0  0  0  0  0  0
  -23.1642  -21.3041   23.2679 C   0  0  0  0  0  0  0  0  0  1  0  0
  -21.7767  -12.8917   21.4096 C   0  0  1  0  0  0  0  0  0  0  0  0
  -19.1080  -12.4456   24.0645 C   0  0  2  0  0  0  0  0  0  0  0  0
  -21.7106  -12.0975   20.0746 C   0  0  0  0  0  0  0  0  0  0  0  0
  -21.9848  -22.2777   23.1501 C   0  0  0  0  0  0  0  0  0  0  0  0
  -27.7897  -25.4772   19.9517 N   0  0  0  0  0  0  0  0  0  0  0  0
  -27.7448  -26.4520   19.0277 N   0  0  0  0  0  0  0  0  0  0  0  0
  -23.7664  -14.1408   22.1872 N   0  0  0  0  0  0  0  0  0  0  0  0
  -26.6438  -29.3984   21.1951 N   0  0  0  0  0  0  0  0  0  0  0  0
  -26.8020  -31.6419   22.0124 N   0  0  0  0  0  0  0  0  0  0  0  0
  -28.3528  -26.9703   16.7978 N   0  0  0  0  0  0  0  0  0  0  0  0
  -29.8214  -22.7316   17.3197 N   0  0  0  0  0  0  0  0  0  0  0  0
  -27.2095  -13.7191   21.3521 N   0  0  0  0  0  0  0  0  0  0  0  0
  -20.8782  -12.3945   22.4459 N   0  0  0  0  0  0  0  0  0  0  0  0
  -26.4132  -30.9196   25.5259 N   0  0  0  0  0  0  0  0  0  0  0  0
  -18.7032  -13.3652   25.1652 N   0  3  0  0  0  0  0  0  0  0  0  0
  -22.1297  -23.3143   24.2386 N   0  3  1  0  0  0  0  0  0  0  0  0
  -29.6872  -24.4882   15.8517 O   0  0  0  0  0  0  0  0  0  0  0  0
  -25.5065  -14.9676   20.3705 O   0  0  0  0  0  0  0  0  0  0  0  0
  -27.8354  -32.3230   24.3381 O   0  0  0  0  0  0  0  0  0  0  0  0
  -23.6815  -11.8149   22.3255 O   0  0  0  0  0  0  0  0  0  0  0  0
  -19.7064  -14.3741   22.7378 O   0  0  0  0  0  0  0  0  0  0  0  0
  -28.6492  -30.5378   21.1739 O   0  0  0  0  0  0  0  0  0  0  0  0
  -29.3573  -19.6287   21.9232 O   0  0  0  0  0  0  0  0  0  0  0  0
  -23.0762  -20.2786   22.2862 O   0  0  0  0  0  0  0  0  0  1  0  0
  -34.3553  -17.3621   21.3875 F   0  0  0  0  0  0  0  0  0  0  0  0
  -30.3391  -18.9312   19.4348 F   0  0  0  0  0  0  0  0  0  0  0  0
  1  2  1  0  0  0  0
  1  5  2  0  0  0  0
  2  6  2  0  0  0  0
  3  8  2  0  0  0  0
  3 15  1  0  0  0  0
  4  9  1  0  0  0  0
  4 15  2  0  0  0  0
  5 17  1  0  0  0  0
  6 19  1  0  0  0  0
  7 10  2  0  0  0  0
  7 18  1  0  0  0  0
  8 21  1  0  0  0  0
  9 21  2  0  0  0  0
 10 22  1  0  0  0  0
 11 12  2  0  0  0  0
 11 23  1  0  0  0  0
 12 24  1  0  0  0  0
 13 20  1  0  0  0  0
 13 22  2  0  0  0  0
 14 24  2  0  0  0  0
 14 25  1  0  0  0  0
 15 26  1  0  0  0  0
 16 26  1  0  0  0  0
 16 27  2  0  0  0  0
 16 28  1  0  0  0  0
 17 19  2  0  0  0  0
 17 34  1  0  0  0  0
 18 20  2  0  0  0  0
 18 35  1  0  0  0  0
 19 47  1  0  0  0  0
 20 36  1  0  0  0  0
 21 89  1  0  0  0  0
 22 90  1  0  0  0  0
 23 25  2  0  0  0  0
 23 89  1  0  0  0  0
 24 91  1  0  0  0  0
 25 92  1  0  0  0  0
 26 71  2  0  0  0  0
 27 72  1  0  0  0  0
 27 76  1  0  0  0  0
 28 77  1  0  0  0  0
 28 83  2  0  0  0  0
 29 48  1  0  0  0  0
 29 78  1  0  0  0  0
 29 84  2  0  0  0  0
 30 49  1  0  0  0  0
 30 80  1  0  0  0  0
 30 85  2  0  0  0  0
 31 67  1  0  0  0  0
 31 73  1  0  0  0  0
 31 86  2  0  0  0  0
 32 68  1  0  0  0  0
 32 79  1  0  0  0  0
 32 87  2  0  0  0  0
 33 74  1  0  0  0  0
 33 75  1  0  0  0  0
 33 88  2  0  0  0  0
 34 37  1  0  0  0  0
 35 48  1  0  0  0  0
 36 73  1  0  0  0  0
 37 41  1  0  0  0  0
 38 39  1  0  0  0  0
 38 42  1  0  0  0  0
 39 45  1  0  0  0  0
 40 43  1  0  0  0  0
 40 44  1  0  0  0  0
 41 47  1  0  0  0  0
 42 49  1  0  0  0  0
 43 50  1  0  0  0  0
 44 74  1  0  0  0  0
 45 75  1  0  0  0  0
 46 50  1  0  0  0  0
 46 74  1  0  0  0  0
 47 78  1  0  0  0  0
 48 73  1  0  0  0  0
 49 75  1  0  0  0  0
 50 72  1  0  0  0  0
 51 68  1  0  0  0  0
 52 69  1  0  0  0  0
 53 69  1  0  0  0  0
 54 69  1  0  0  0  0
 55 70  1  0  0  0  0
 56 70  1  0  0  0  0
 57 80  1  0  0  0  0
 58 81  1  0  0  0  0
 59 82  1  0  0  0  0
 60 61  1  0  0  0  0
 60 62  1  0  0  0  0
 61 63  1  0  0  0  0
 62 64  1  0  0  0  0
 63 65  1  0  0  0  0
 64 80  1  0  0  0  0
 65 82  1  0  0  0  0
 66 70  1  0  0  0  0
 66 90  1  0  0  0  0
 67 69  1  0  0  0  0
 67 79  1  0  0  0  0
 68 81  1  0  0  0  0
 70 82  1  0  0  0  0
 71 72  1  0  0  0  0
M  CHG  2  81   1  82   1
M  ISO  4  33 100  66 101  75 100  90 101
M  END
> <Batch ID>
0019

> <Smiles>
CNC(C)C(=O)NC(C(=O)N1Cc2cc([101O:1][101CH2:1]C(C)(C)N(C)CCCCCCN(C)C(=O)C3CCCC[100N:0]3[100C:0](=O)N3CCCC(n4nc(-c5ccc(Oc6ccc(F)cc6F)cc5)c(C(N)=O)c4N)C3)ccc2CC1C(=O)NC1CCCc2ccccc21)C(C)(C)C

> <Shape>
0.266

> <Color>
0.057

> <Negative vol penalty>
0.000

$$$$

  -OEChem-04052316073D

 83 91  0     1  0  0  0  0  0999 V2000
  -32.7527  -36.1345   20.0558 C   0  0  0  0  0  0  0  0  0  0  0  0
  -32.7083  -34.9131   19.3912 C   0  0  0  0  0  0  0  0  0  0  0  0
  -23.3665  -11.5613   19.2746 C   0  0  0  0  0  0  0  0  0  0  0  0
  -23.8934  -10.1946   21.1960 C   0  0  0  0  0  0  0  0  0  0  0  0
  -32.3075  -36.2262   21.3739 C   0  0  0  0  0  0  0  0  0  0  0  0
  -32.2195  -33.7824   20.0447 C   0  0  0  0  0  0  0  0  0  0  0  0
  -28.6321  -27.7135   18.7736 C   0  0  0  0  0  0  0  0  0  0  0  0
  -22.6816  -10.4903   18.7007 C   0  0  0  0  0  0  0  0  0  0  0  0
  -23.2084   -9.1236   20.6221 C   0  0  0  0  0  0  0  0  0  0  0  0
  -28.7314  -26.3391   18.9856 C   0  0  0  0  0  0  0  0  0  0  0  0
  -19.6650   -8.9987   19.0303 C   0  0  0  0  0  0  0  0  0  0  0  0
  -18.4188   -9.2573   18.4597 C   0  0  0  0  0  0  0  0  0  0  0  0
  -27.9156  -26.6335   21.2366 C   0  0  0  0  0  0  0  0  0  0  0  0
  -19.2372   -8.4848   16.3219 C   0  0  0  0  0  0  0  0  0  0  0  0
  -23.9725  -11.4134   20.5223 C   0  0  0  0  0  0  0  0  0  0  0  0
  -24.1523  -13.5096   21.9650 C   0  0  0  0  0  0  0  0  0  0  0  0
  -31.8040  -35.0981   22.0407 C   0  0  0  0  0  0  0  0  0  0  0  0
  -28.1834  -28.5609   19.7968 C   0  0  0  0  0  0  0  0  0  0  0  0
  -31.7684  -33.8588   21.3734 C   0  0  0  0  0  0  0  0  0  0  0  0
  -27.8091  -28.0180   21.0342 C   0  0  0  0  0  0  0  0  0  0  0  0
  -29.9418  -21.7486   20.6192 C   0  0  0  0  0  0  0  0  0  0  0  0
  -27.9693  -21.3541   19.2812 C   0  0  0  0  0  0  0  0  0  0  0  0
  -28.9529  -22.2214   19.7566 C   0  0  0  0  0  0  0  0  0  0  0  0
  -29.9473  -20.4085   21.0063 C   0  0  0  0  0  0  0  0  0  0  0  0
  -27.9746  -20.0140   19.6683 C   0  0  0  0  0  0  0  0  0  0  0  0
  -28.9637  -19.5412   20.5309 C   0  0  0  0  0  0  0  0  0  0  0  0
  -22.6025   -9.2715   19.3744 C   0  0  0  0  0  0  0  0  0  0  0  0
  -28.3758  -25.7992   20.2181 C   0  0  0  0  0  0  0  0  0  0  0  0
  -20.6974   -8.4832   18.2466 C   0  0  0  0  0  0  0  0  0  0  0  0
  -18.2048   -9.0003   17.1055 C   0  0  0  0  0  0  0  0  0  0  0  0
  -20.4835   -8.2262   16.8924 C   0  0  0  0  0  0  0  0  0  0  0  0
  -24.6807  -12.5192   21.1155 C   0  0  0  0  0  0  0  0  0  0  0  0
  -25.2217  -14.3226   22.2512 C   0  0  0  0  0  0  0  0  0  0  0  0
  -22.8145  -13.6793   22.4521 C   0  0  0  0  0  0  0  0  0  0  0  0
  -29.4496  -30.9823   21.4208 C   0  0  0  0  0  0  0  0  0  0  0  0
  -26.4590  -31.2074   22.6570 C   0  0  0  0  0  0  0  0  0  0  0  0
  -23.4962  -29.6718   23.3712 C   0  0  0  0  0  0  0  0  0  0  0  0
  -29.6689  -17.1790   20.1876 C   0  0  0  0  0  0  0  0  0  0  0  0
  -31.3782  -35.2360   23.4809 C   0  0  0  0  0  0  0  0  0  0  0  0
  -28.0567  -30.0382   19.5435 C   0  0  0  0  0  0  0  0  0  0  0  0
  -27.3022  -28.8822   22.1587 C   0  0  0  0  0  0  0  0  0  0  0  0
  -30.5261  -34.0713   23.9784 C   0  0  0  0  0  0  0  0  0  0  0  0
  -30.1597  -13.7240   21.3844 C   0  0  0  0  0  0  0  0  0  0  0  0
  -31.1482  -32.7407   23.5668 C   0  0  0  0  0  0  0  0  0  0  0  0
  -28.7358  -13.1720   21.4243 C   0  0  0  0  0  0  0  0  0  0  0  0
  -30.3233  -14.7928   20.3078 C   0  0  0  0  0  0  0  0  0  0  0  0
  -27.9176  -15.3586   20.4575 C   0  0  0  0  0  0  0  0  0  0  0  0
  -31.2220  -32.6151   22.0402 C   0  0  1  0  0  0  0  0  0  0  0  0
  -28.0756  -30.8677   20.8237 C   0  0  1  0  0  0  0  0  0  0  0  0
  -27.7097  -14.3102   21.5609 C   0  0  1  0  0  0  0  0  0  0  0  0
  -30.9960  -22.6797   21.1295 C   0  0  0  0  0  0  0  0  0  0  0  0
  -26.9074  -21.8621   18.3569 C   0  0  0  0  0  0  0  0  0  0  0  0
  -31.0111  -19.9056   21.9323 C   0  0  0  0  0  0  0  0  0  0  0  0
  -26.9170  -19.0866   19.1556 C   0  0  0  0  0  0  0  0  0  0  0  0
  -21.2560  -30.1025   24.4170 C   0  0  0  0  0  0  0  0  0  0  0  0
  -27.7295  -31.0732   25.4279 C   0  0  0  0  0  0  0  0  0  0  0  0
  -25.4667  -30.5520   26.3638 C   0  0  0  0  0  0  0  0  0  0  0  0
  -25.8674  -32.7287   25.2131 C   0  0  0  0  0  0  0  0  0  0  0  0
  -28.4433  -17.8056   22.2552 C   0  0  0  0  0  0  0  0  0  0  0  0
  -22.0724  -29.0656   20.8484 C   0  0  0  0  0  0  0  0  0  0  0  0
  -28.9456  -23.6632   19.3414 C   0  0  0  0  0  0  0  0  0  1  0  0
  -25.7448  -30.6070   23.8438 C   0  0  1  0  0  0  0  0  0  0  0  0
  -22.0585  -30.0926   23.1252 C   0  0  2  0  0  0  0  0  0  0  0  0
  -26.2135  -31.2239   25.1918 C   0  0  0  0  0  0  0  0  0  0  0  0
  -25.9843  -12.6860   20.8773 N   0  0  0  0  0  0  0  0  0  0  0  0
  -26.2841  -13.7908   21.5814 N   0  0  0  0  0  0  0  0  0  0  0  0
  -27.2021  -30.3213   21.8642 N   0  0  0  0  0  0  0  0  0  0  0  0
  -29.3077  -15.8390   20.4329 N   0  0  0  0  0  0  0  0  0  0  0  0
  -25.3474  -15.4336   23.0078 N   0  0  0  0  0  0  0  0  0  0  0  0
  -21.8383  -12.7533   22.0601 N   0  0  0  0  0  0  0  0  0  0  0  0
  -29.9234  -32.2781   21.4975 N   0  0  0  0  0  0  0  0  0  0  0  0
  -24.3178  -30.7590   23.5811 N   0  0  0  0  0  0  0  0  0  0  0  0
  -28.9695  -18.1540   20.9314 N   0  0  0  0  0  0  0  0  0  0  0  0
  -21.4008  -29.1563   22.1704 N   0  3  0  0  0  0  0  0  0  0  0  0
  -22.4908  -14.6336   23.1991 O   0  0  0  0  0  0  0  0  0  0  0  0
  -30.0359  -29.9702   21.7864 O   0  0  0  0  0  0  0  0  0  0  0  0
  -26.3555  -32.4168   22.4373 O   0  0  0  0  0  0  0  0  0  0  0  0
  -23.8538  -28.4959   23.3801 O   0  0  0  0  0  0  0  0  0  0  0  0
  -30.5654  -17.4776   19.3897 O   0  0  0  0  0  0  0  0  0  0  0  0
  -21.9339   -8.2263   18.8147 O   0  0  0  0  0  0  0  0  0  0  0  0
  -28.4724  -24.4581   20.4279 O   0  0  0  0  0  0  0  0  0  1  0  0
  -17.0075   -9.2472   16.5581 F   0  0  0  0  0  0  0  0  0  0  0  0
  -21.4712   -7.7299   16.1348 F   0  0  0  0  0  0  0  0  0  0  0  0
  1  2  1  0  0  0  0
  1  5  2  0  0  0  0
  2  6  2  0  0  0  0
  3  8  2  0  0  0  0
  3 15  1  0  0  0  0
  4  9  1  0  0  0  0
  4 15  2  0  0  0  0
  5 17  1  0  0  0  0
  6 19  1  0  0  0  0
  7 10  2  0  0  0  0
  7 18  1  0  0  0  0
  8 27  1  0  0  0  0
  9 27  2  0  0  0  0
 10 28  1  0  0  0  0
 11 12  2  0  0  0  0
 11 29  1  0  0  0  0
 12 30  1  0  0  0  0
 13 20  1  0  0  0  0
 13 28  2  0  0  0  0
 14 30  2  0  0  0  0
 14 31  1  0  0  0  0
 15 32  1  0  0  0  0
 16 32  1  0  0  0  0
 16 33  2  0  0  0  0
 16 34  1  0  0  0  0
 17 19  2  0  0  0  0
 17 39  1  0  0  0  0
 18 20  2  0  0  0  0
 18 40  1  0  0  0  0
 19 48  1  0  0  0  0
 20 41  1  0  0  0  0
 21 23  1  0  0  0  0
 21 24  2  0  0  0  0
 21 51  1  0  0  0  0
 22 23  2  0  0  0  0
 22 25  1  0  0  0  0
 22 52  1  0  0  0  0
 23 61  1  0  0  0  0
 24 26  1  0  0  0  0
 24 53  1  0  0  0  0
 25 26  2  0  0  0  0
 25 54  1  0  0  0  0
 26 73  1  0  0  0  0
 27 80  1  0  0  0  0
 28 81  1  0  0  0  0
 29 31  2  0  0  0  0
 29 80  1  0  0  0  0
 30 82  1  0  0  0  0
 31 83  1  0  0  0  0
 32 65  2  0  0  0  0
 33 66  1  0  0  0  0
 33 69  1  0  0  0  0
 34 70  1  0  0  0  0
 34 75  2  0  0  0  0
 35 49  1  0  0  0  0
 35 71  1  0  0  0  0
 35 76  2  0  0  0  0
 36 62  1  0  0  0  0
 36 67  1  0  0  0  0
 36 77  2  0  0  0  0
 37 63  1  0  0  0  0
 37 72  1  0  0  0  0
 37 78  2  0  0  0  0
 38 68  1  0  0  0  0
 38 73  1  0  0  0  0
 38 79  2  0  0  0  0
 39 42  1  0  0  0  0
 40 49  1  0  0  0  0
 41 67  1  0  0  0  0
 42 44  1  0  0  0  0
 43 45  1  0  0  0  0
 43 46  1  0  0  0  0
 44 48  1  0  0  0  0
 45 50  1  0  0  0  0
 46 68  1  0  0  0  0
 47 50  1  0  0  0  0
 47 68  1  0  0  0  0
 48 71  1  0  0  0  0
 49 67  1  0  0  0  0
 50 66  1  0  0  0  0
 55 63  1  0  0  0  0
 56 64  1  0  0  0  0
 57 64  1  0  0  0  0
 58 64  1  0  0  0  0
 59 73  1  0  0  0  0
 60 74  1  0  0  0  0
 61 81  1  0  0  0  0
 62 64  1  0  0  0  0
 62 72  1  0  0  0  0
 63 74  1  0  0  0  0
 65 66  1  0  0  0  0
M  CHG  1  74   1
M  ISO  4  38 100  61 101  73 100  81 101
M  END
> <Batch ID>
0019

> <Smiles>
CNC(C)C(=O)NC(C(=O)N1Cc2cc([101O:1][101CH2:1]c3c(C)c(C)c([100N:0](C)[100C:0](=O)N4CCCC(n5nc(-c6ccc(Oc7ccc(F)cc7F)cc6)c(C(N)=O)c5N)C4)c(C)c3C)ccc2CC1C(=O)NC1CCCc2ccccc21)C(C)(C)C

> <Shape>
0.262

> <Color>
0.101

> <Negative vol penalty>
0.000

$$$$

  -OEChem-04052316073D

 83 91  0     1  0  0  0  0  0999 V2000
  -21.6745  -11.8663   21.1964 C   0  0  0  0  0  0  0  0  0  0  0  0
  -21.8481  -13.0849   21.8447 C   0  0  0  0  0  0  0  0  0  0  0  0
  -25.0078  -28.0494   19.1143 C   0  0  0  0  0  0  0  0  0  0  0  0
  -25.7713  -28.0243   21.4064 C   0  0  0  0  0  0  0  0  0  0  0  0
  -22.7566  -11.2527   20.5666 C   0  0  0  0  0  0  0  0  0  0  0  0
  -23.1042  -13.6901   21.8646 C   0  0  0  0  0  0  0  0  0  0  0  0
  -22.8874  -18.6492   20.8622 C   0  0  0  0  0  0  0  0  0  0  0  0
  -18.4857  -20.6900   25.4094 C   0  0  0  0  0  0  0  0  0  0  0  0
  -26.1722  -28.7164   18.7337 C   0  0  0  0  0  0  0  0  0  0  0  0
  -26.9358  -28.6913   21.0258 C   0  0  0  0  0  0  0  0  0  0  0  0
  -22.4740  -19.4900   21.8946 C   0  0  0  0  0  0  0  0  0  0  0  0
  -30.2738  -30.0676   20.5998 C   0  0  0  0  0  0  0  0  0  0  0  0
  -31.4851  -29.6031   21.1122 C   0  0  0  0  0  0  0  0  0  0  0  0
  -17.3007  -21.2499   24.9320 C   0  0  0  0  0  0  0  0  0  0  0  0
  -24.7747  -20.0580   22.3454 C   0  0  0  0  0  0  0  0  0  0  0  0
  -31.0981  -27.4538   20.0789 C   0  0  0  0  0  0  0  0  0  0  0  0
  -24.8073  -27.7033   20.4507 C   0  0  0  0  0  0  0  0  0  0  0  0
  -23.4003  -25.6229   20.8975 C   0  0  0  0  0  0  0  0  0  0  0  0
  -24.0244  -11.8554   20.5705 C   0  0  0  0  0  0  0  0  0  0  0  0
  -24.2506  -18.4978   20.5702 C   0  0  0  0  0  0  0  0  0  0  0  0
  -24.2045  -13.0833   21.2355 C   0  0  0  0  0  0  0  0  0  0  0  0
  -25.2027  -19.2166   21.3071 C   0  0  0  0  0  0  0  0  0  0  0  0
  -19.3993  -21.4806   26.1066 C   0  0  0  0  0  0  0  0  0  0  0  0
  -17.9429  -23.3909   25.8488 C   0  0  0  0  0  0  0  0  0  0  0  0
  -27.1362  -29.0373   19.6894 C   0  0  0  0  0  0  0  0  0  0  0  0
  -23.4178  -20.1923   22.6383 C   0  0  0  0  0  0  0  0  0  0  0  0
  -29.4746  -29.2252   19.8270 C   0  0  0  0  0  0  0  0  0  0  0  0
  -31.8973  -28.2963   20.8518 C   0  0  0  0  0  0  0  0  0  0  0  0
  -29.8867  -27.9183   19.5665 C   0  0  0  0  0  0  0  0  0  0  0  0
  -17.0293  -22.6003   25.1516 C   0  0  0  0  0  0  0  0  0  0  0  0
  -19.1279  -22.8311   26.3263 C   0  0  0  0  0  0  0  0  0  0  0  0
  -23.6045  -27.0148   20.8446 C   0  0  0  0  0  0  0  0  0  0  0  0
  -22.1038  -25.4823   21.3288 C   0  0  0  0  0  0  0  0  0  0  0  0
  -24.3019  -24.5528   20.5850 C   0  0  0  0  0  0  0  0  0  0  0  0
  -26.2948  -16.0639   20.6028 C   0  0  0  0  0  0  0  0  0  0  0  0
  -28.3101  -18.2460   19.2995 C   0  0  0  0  0  0  0  0  0  0  0  0
  -29.1381  -21.5281   18.8643 C   0  0  0  0  0  0  0  0  0  0  0  0
  -17.9289  -26.9127   24.7449 C   0  0  0  0  0  0  0  0  0  0  0  0
  -25.1745  -11.1311   19.9168 C   0  0  0  0  0  0  0  0  0  0  0  0
  -24.6788  -17.6076   19.4360 C   0  0  0  0  0  0  0  0  0  0  0  0
  -26.6771  -19.1046   21.0204 C   0  0  0  0  0  0  0  0  0  0  0  0
  -26.3889  -12.0205   19.6627 C   0  0  0  0  0  0  0  0  0  0  0  0
  -18.4124  -28.9037   21.8330 C   0  0  0  0  0  0  0  0  0  0  0  0
  -26.7105  -12.8513   20.9009 C   0  0  0  0  0  0  0  0  0  0  0  0
  -19.7914  -28.4795   21.3247 C   0  0  0  0  0  0  0  0  0  0  0  0
  -18.3543  -28.9213   23.3589 C   0  0  0  0  0  0  0  0  0  0  0  0
  -20.1517  -27.2412   23.5008 C   0  0  0  0  0  0  0  0  0  0  0  0
  -25.5461  -13.7832   21.2577 C   0  0  1  0  0  0  0  0  0  0  0  0
  -26.1233  -17.1331   19.5612 C   0  0  1  0  0  0  0  0  0  0  0  0
  -20.2428  -27.1543   21.9677 C   0  0  2  0  0  0  0  0  0  0  0  0
  -30.8598  -22.9986   17.7822 C   0  0  0  0  0  0  0  0  0  0  0  0
  -30.2877  -17.5603   21.5197 C   0  0  0  0  0  0  0  0  0  0  0  0
  -31.5272  -19.6651   20.9703 C   0  0  0  0  0  0  0  0  0  0  0  0
  -31.3182  -17.8605   19.2608 C   0  0  0  0  0  0  0  0  0  0  0  0
  -27.1127  -22.8309   17.1441 C   0  0  0  0  0  0  0  0  0  0  0  0
  -20.6664  -20.8314   26.6033 C   0  0  0  0  0  0  0  0  0  0  0  0
  -17.6464  -24.8413   26.0823 C   0  0  0  0  0  0  0  0  0  0  0  0
  -21.9012  -21.1696   25.7651 C   0  0  0  0  0  0  0  0  0  0  0  0
  -21.8141  -20.6630   24.3301 C   0  0  0  0  0  0  0  0  0  1  0  0
  -29.2917  -19.2547   19.8454 C   0  0  1  0  0  0  0  0  0  0  0  0
  -29.5098  -22.3169   17.6217 C   0  0  2  0  0  0  0  0  0  0  0  0
  -30.5786  -18.5860   20.4060 C   0  0  0  0  0  0  0  0  0  0  0  0
  -22.5242  -27.7088   21.2125 N   0  0  0  0  0  0  0  0  0  0  0  0
  -21.6287  -26.7491   21.5008 N   0  0  0  0  0  0  0  0  0  0  0  0
  -27.0462  -18.2166   19.9056 N   0  0  0  0  0  0  0  0  0  0  0  0
  -18.7932  -27.6351   23.9057 N   0  0  0  0  0  0  0  0  0  0  0  0
  -21.3353  -24.3998   21.5737 N   0  0  0  0  0  0  0  0  0  0  0  0
  -25.5970  -24.8741   20.1563 N   0  0  0  0  0  0  0  0  0  0  0  0
  -25.5320  -14.9335   20.3796 N   0  0  0  0  0  0  0  0  0  0  0  0
  -29.5348  -20.2108   18.7706 N   0  0  0  0  0  0  0  0  0  0  0  0
  -18.4204  -25.7008   25.2146 N   0  0  0  0  0  0  0  0  0  0  0  0
  -28.4848  -23.3631   17.3464 N   0  3  0  0  0  0  0  0  0  0  0  0
  -23.9636  -23.3477   20.6673 O   0  0  0  0  0  0  0  0  0  0  0  0
  -27.0634  -16.2500   21.5389 O   0  0  0  0  0  0  0  0  0  0  0  0
  -28.6499  -17.5162   18.3649 O   0  0  0  0  0  0  0  0  0  0  0  0
  -28.5575  -22.0311   19.8237 O   0  0  0  0  0  0  0  0  0  0  0  0
  -16.8007  -27.3151   25.0484 O   0  0  0  0  0  0  0  0  0  0  0  0
  -28.2726  -29.6880   19.3183 O   0  0  0  0  0  0  0  0  0  0  0  0
  -23.0170  -21.0132   23.6469 O   0  0  0  0  0  0  0  0  0  1  0  0
  -33.0612  -27.8508   21.3426 F   0  0  0  0  0  0  0  0  0  0  0  0
  -29.1237  -27.1047   18.8237 F   0  0  0  0  0  0  0  0  0  0  0  0
  -15.5501  -23.2513   24.5427 Cl  0  0  0  0  0  0  0  0  0  0  0  0
  -20.2670  -23.8076   27.1929 Cl  0  0  0  0  0  0  0  0  0  0  0  0
  1  2  1  0  0  0  0
  1  5  2  0  0  0  0
  2  6  2  0  0  0  0
  3  9  2  0  0  0  0
  3 17  1  0  0  0  0
  4 10  1  0  0  0  0
  4 17  2  0  0  0  0
  5 19  1  0  0  0  0
  6 21  1  0  0  0  0
  7 11  2  0  0  0  0
  7 20  1  0  0  0  0
  8 14  2  0  0  0  0
  8 23  1  0  0  0  0
  9 25  1  0  0  0  0
 10 25  2  0  0  0  0
 11 26  1  0  0  0  0
 12 13  2  0  0  0  0
 12 27  1  0  0  0  0
 13 28  1  0  0  0  0
 14 30  1  0  0  0  0
 15 22  1  0  0  0  0
 15 26  2  0  0  0  0
 16 28  2  0  0  0  0
 16 29  1  0  0  0  0
 17 32  1  0  0  0  0
 18 32  1  0  0  0  0
 18 33  2  0  0  0  0
 18 34  1  0  0  0  0
 19 21  2  0  0  0  0
 19 39  1  0  0  0  0
 20 22  2  0  0  0  0
 20 40  1  0  0  0  0
 21 48  1  0  0  0  0
 22 41  1  0  0  0  0
 23 31  2  0  0  0  0
 23 56  1  0  0  0  0
 24 30  2  0  0  0  0
 24 31  1  0  0  0  0
 24 57  1  0  0  0  0
 25 78  1  0  0  0  0
 26 79  1  0  0  0  0
 27 29  2  0  0  0  0
 27 78  1  0  0  0  0
 28 80  1  0  0  0  0
 29 81  1  0  0  0  0
 30 82  1  0  0  0  0
 31 83  1  0  0  0  0
 32 63  2  0  0  0  0
 33 64  1  0  0  0  0
 33 67  1  0  0  0  0
 34 68  1  0  0  0  0
 34 73  2  0  0  0  0
 35 49  1  0  0  0  0
 35 69  1  0  0  0  0
 35 74  2  0  0  0  0
 36 60  1  0  0  0  0
 36 65  1  0  0  0  0
 36 75  2  0  0  0  0
 37 61  1  0  0  0  0
 37 70  1  0  0  0  0
 37 76  2  0  0  0  0
 38 66  1  0  0  0  0
 38 71  1  0  0  0  0
 38 77  2  0  0  0  0
 39 42  1  0  0  0  0
 40 49  1  0  0  0  0
 41 65  1  0  0  0  0
 42 44  1  0  0  0  0
 43 45  1  0  0  0  0
 43 46  1  0  0  0  0
 44 48  1  0  0  0  0
 45 50  1  0  0  0  0
 46 66  1  0  0  0  0
 47 50  1  0  0  0  0
 47 66  1  0  0  0  0
 48 69  1  0  0  0  0
 49 65  1  0  0  0  0
 50 64  1  0  0  0  0
 51 61  1  0  0  0  0
 52 62  1  0  0  0  0
 53 62  1  0  0  0  0
 54 62  1  0  0  0  0
 55 72  1  0  0  0  0
 56 58  1  0  0  0  0
 57 71  1  0  0  0  0
 58 59  1  0  0  0  0
 59 79  1  0  0  0  0
 60 62  1  0  0  0  0
 60 70  1  0  0  0  0
 61 72  1  0  0  0  0
 63 64  1  0  0  0  0
M  CHG  1  72   1
M  ISO  4  38 100  59 101  71 100  79 101
M  END
> <Batch ID>
0019

> <Smiles>
CNC(C)C(=O)NC(C(=O)N1Cc2cc([101O:1][101CH2:1]CCc3ccc(Cl)c(C[100NH:0][100C:0](=O)N4CCCC(n5nc(-c6ccc(Oc7ccc(F)cc7F)cc6)c(C(N)=O)c5N)C4)c3Cl)ccc2CC1C(=O)NC1CCCc2ccccc21)C(C)(C)C

> <Shape>
0.206

> <Color>
0.077

> <Negative vol penalty>
0.000

$$$$

  -OEChem-04052316073D

 84 92  0     1  0  0  0  0  0999 V2000
  -27.3684  -22.5647   16.4810 C   0  0  0  0  0  0  0  0  0  0  0  0
  -27.8641  -22.1049   17.6968 C   0  0  0  0  0  0  0  0  0  0  0  0
  -23.0021   -9.8908   19.9812 C   0  0  0  0  0  0  0  0  0  0  0  0
  -23.7259   -9.9441   22.2856 C   0  0  0  0  0  0  0  0  0  0  0  0
  -28.1010  -23.4869   15.7348 C   0  0  0  0  0  0  0  0  0  0  0  0
  -29.0932  -22.5662   18.1667 C   0  0  0  0  0  0  0  0  0  0  0  0
  -28.9636  -23.7771   23.0822 C   0  0  0  0  0  0  0  0  0  0  0  0
  -22.2367   -8.7557   20.2478 C   0  0  0  0  0  0  0  0  0  0  0  0
  -22.9605   -8.8090   22.5523 C   0  0  0  0  0  0  0  0  0  0  0  0
  -29.0157  -22.7273   23.9981 C   0  0  0  0  0  0  0  0  0  0  0  0
  -21.4819   -5.7150   23.7568 C   0  0  0  0  0  0  0  0  0  0  0  0
  -22.0686   -4.7004   24.5130 C   0  0  0  0  0  0  0  0  0  0  0  0
  -31.3670  -23.1469   24.3363 C   0  0  0  0  0  0  0  0  0  0  0  0
  -31.6048  -19.3350   22.7991 C   0  0  0  0  0  0  0  0  0  0  0  0
  -23.7962   -4.4541   22.8421 C   0  0  0  0  0  0  0  0  0  0  0  0
  -23.7468  -10.4851   21.0001 C   0  0  0  0  0  0  0  0  0  0  0  0
  -24.1293  -13.0010   20.8226 C   0  0  0  0  0  0  0  0  0  0  0  0
  -29.3352  -23.9671   16.2003 C   0  0  0  0  0  0  0  0  0  0  0  0
  -30.1172  -24.5139   22.7778 C   0  0  0  0  0  0  0  0  0  0  0  0
  -29.8436  -23.4947   17.4254 C   0  0  0  0  0  0  0  0  0  0  0  0
  -31.3264  -24.2072   23.4181 C   0  0  0  0  0  0  0  0  0  0  0  0
  -31.1996  -18.3720   23.7232 C   0  0  0  0  0  0  0  0  0  0  0  0
  -31.5011  -19.0772   21.4322 C   0  0  0  0  0  0  0  0  0  0  0  0
  -30.6910  -17.1510   23.2804 C   0  0  0  0  0  0  0  0  0  0  0  0
  -30.5873  -16.8931   21.9134 C   0  0  0  0  0  0  0  0  0  0  0  0
  -22.2159   -8.2147   21.5334 C   0  0  0  0  0  0  0  0  0  0  0  0
  -30.2181  -22.4102   24.6232 C   0  0  0  0  0  0  0  0  0  0  0  0
  -22.0522   -6.0991   22.5432 C   0  0  0  0  0  0  0  0  0  0  0  0
  -23.2258   -4.0699   24.0557 C   0  0  0  0  0  0  0  0  0  0  0  0
  -23.2094   -5.4687   22.0858 C   0  0  0  0  0  0  0  0  0  0  0  0
  -30.9924  -17.8562   20.9893 C   0  0  0  0  0  0  0  0  0  0  0  0
  -24.5381  -11.6574   20.7251 C   0  0  0  0  0  0  0  0  0  0  0  0
  -25.2385  -13.7246   20.4584 C   0  0  0  0  0  0  0  0  0  0  0  0
  -22.8605  -13.5462   21.2081 C   0  0  0  0  0  0  0  0  0  0  0  0
  -31.8235  -25.0237   20.1448 C   0  0  0  0  0  0  0  0  0  0  0  0
  -33.4279  -27.0974   22.0547 C   0  0  0  0  0  0  0  0  0  0  0  0
  -34.3277  -28.0237   25.2137 C   0  0  0  0  0  0  0  0  0  0  0  0
  -30.7167  -14.6921   20.6948 C   0  0  0  0  0  0  0  0  0  0  0  0
  -30.1132  -24.9276   15.3361 C   0  0  0  0  0  0  0  0  0  0  0  0
  -30.0386  -25.6606   21.8075 C   0  0  0  0  0  0  0  0  0  0  0  0
  -32.5888  -24.9806   23.1413 C   0  0  0  0  0  0  0  0  0  0  0  0
  -31.2311  -25.6505   16.0830 C   0  0  0  0  0  0  0  0  0  0  0  0
  -29.6025  -12.2364   18.3698 C   0  0  0  0  0  0  0  0  0  0  0  0
  -32.0398  -24.6636   16.9190 C   0  0  0  0  0  0  0  0  0  0  0  0
  -28.1520  -11.9774   18.7833 C   0  0  0  0  0  0  0  0  0  0  0  0
  -30.5021  -12.4816   19.5799 C   0  0  0  0  0  0  0  0  0  0  0  0
  -28.5851  -13.2692   20.9119 C   0  0  0  0  0  0  0  0  0  0  0  0
  -31.1614  -23.9903   17.9804 C   0  0  1  0  0  0  0  0  0  0  0  0
  -31.3876  -26.0130   21.1884 C   0  0  1  0  0  0  0  0  0  0  0  0
  -27.6283  -13.0809   19.7233 C   0  0  2  0  0  0  0  0  0  0  0  0
  -30.2597  -16.1231   24.2797 C   0  0  0  0  0  0  0  0  0  0  0  0
  -33.3124  -19.8310   19.8709 C   0  0  0  0  0  0  0  0  0  0  0  0
  -35.6755  -29.7382   26.4552 C   0  0  0  0  0  0  0  0  0  0  0  0
  -35.9957  -25.6623   21.2442 C   0  0  0  0  0  0  0  0  0  0  0  0
  -37.1372  -26.7556   23.1858 C   0  0  0  0  0  0  0  0  0  0  0  0
  -36.1830  -28.1538   21.3535 C   0  0  0  0  0  0  0  0  0  0  0  0
  -31.9451  -29.0183   26.6604 C   0  0  0  0  0  0  0  0  0  0  0  0
  -31.3240  -18.6754   25.1949 C   0  0  0  0  0  0  0  0  0  0  0  0
  -31.9485  -20.1392   20.4797 C   0  0  0  0  0  0  0  0  0  0  0  0
  -29.9945  -19.0280   25.8656 C   0  0  0  0  0  0  0  0  0  0  0  0
  -29.3627  -20.3034   25.3202 C   0  0  0  0  0  0  0  0  0  1  0  0
  -34.6220  -26.9999   22.9733 C   0  0  1  0  0  0  0  0  0  0  0  0
  -34.3026  -29.3702   25.9142 C   0  0  2  0  0  0  0  0  0  0  0  0
  -35.9613  -26.8769   22.1932 C   0  0  0  0  0  0  0  0  0  0  0  0
  -25.8077  -11.5321   20.3297 N   0  0  0  0  0  0  0  0  0  0  0  0
  -26.2063  -12.8062   20.1755 N   0  0  0  0  0  0  0  0  0  0  0  0
  -32.4622  -26.0887   22.1802 N   0  0  0  0  0  0  0  0  0  0  0  0
  -29.9454  -13.5425   20.4222 N   0  0  0  0  0  0  0  0  0  0  0  0
  -25.4705  -15.0505   20.3556 N   0  0  0  0  0  0  0  0  0  0  0  0
  -21.8295  -12.6611   21.5516 N   0  0  0  0  0  0  0  0  0  0  0  0
  -30.0709  -15.6470   21.4793 N   0  0  0  0  0  0  0  0  0  0  0  0
  -30.9368  -24.8872   19.0938 N   0  0  0  0  0  0  0  0  0  0  0  0
  -34.5508  -28.1566   23.8595 N   0  0  0  0  0  0  0  0  0  0  0  0
  -33.3406  -29.3444   27.0521 N   0  3  0  0  0  0  0  0  0  0  0  0
  -22.6424  -14.7813   21.2309 O   0  0  0  0  0  0  0  0  0  0  0  0
  -32.8863  -24.4294   20.2822 O   0  0  0  0  0  0  0  0  0  0  0  0
  -33.3513  -28.0380   21.2603 O   0  0  0  0  0  0  0  0  0  0  0  0
  -34.1692  -26.9602   25.8089 O   0  0  0  0  0  0  0  0  0  0  0  0
  -31.8555  -14.8320   20.2413 O   0  0  0  0  0  0  0  0  0  0  0  0
  -21.4689   -7.1072   21.7940 O   0  0  0  0  0  0  0  0  0  0  0  0
  -30.2718  -21.3855   25.5171 O   0  0  0  0  0  0  0  0  0  1  0  0
  -23.7900   -3.0966   24.7827 F   0  0  0  0  0  0  0  0  0  0  0  0
  -23.7626   -5.8342   20.9213 F   0  0  0  0  0  0  0  0  0  0  0  0
  -30.8685  -17.5449   19.2876 Cl  0  0  0  0  0  0  0  0  0  0  0  0
  1  2  1  0  0  0  0
  1  5  2  0  0  0  0
  2  6  2  0  0  0  0
  3  8  2  0  0  0  0
  3 16  1  0  0  0  0
  4  9  1  0  0  0  0
  4 16  2  0  0  0  0
  5 18  1  0  0  0  0
  6 20  1  0  0  0  0
  7 10  2  0  0  0  0
  7 19  1  0  0  0  0
  8 26  1  0  0  0  0
  9 26  2  0  0  0  0
 10 27  1  0  0  0  0
 11 12  2  0  0  0  0
 11 28  1  0  0  0  0
 12 29  1  0  0  0  0
 13 21  1  0  0  0  0
 13 27  2  0  0  0  0
 14 22  2  0  0  0  0
 14 23  1  0  0  0  0
 15 29  2  0  0  0  0
 15 30  1  0  0  0  0
 16 32  1  0  0  0  0
 17 32  1  0  0  0  0
 17 33  2  0  0  0  0
 17 34  1  0  0  0  0
 18 20  2  0  0  0  0
 18 39  1  0  0  0  0
 19 21  2  0  0  0  0
 19 40  1  0  0  0  0
 20 48  1  0  0  0  0
 21 41  1  0  0  0  0
 22 24  1  0  0  0  0
 22 58  1  0  0  0  0
 23 31  2  0  0  0  0
 23 59  1  0  0  0  0
 24 25  2  0  0  0  0
 24 51  1  0  0  0  0
 25 31  1  0  0  0  0
 25 71  1  0  0  0  0
 26 80  1  0  0  0  0
 27 81  1  0  0  0  0
 28 30  2  0  0  0  0
 28 80  1  0  0  0  0
 29 82  1  0  0  0  0
 30 83  1  0  0  0  0
 31 84  1  0  0  0  0
 32 65  2  0  0  0  0
 33 66  1  0  0  0  0
 33 69  1  0  0  0  0
 34 70  1  0  0  0  0
 34 75  2  0  0  0  0
 35 49  1  0  0  0  0
 35 72  1  0  0  0  0
 35 76  2  0  0  0  0
 36 62  1  0  0  0  0
 36 67  1  0  0  0  0
 36 77  2  0  0  0  0
 37 63  1  0  0  0  0
 37 73  1  0  0  0  0
 37 78  2  0  0  0  0
 38 68  1  0  0  0  0
 38 71  1  0  0  0  0
 38 79  2  0  0  0  0
 39 42  1  0  0  0  0
 40 49  1  0  0  0  0
 41 67  1  0  0  0  0
 42 44  1  0  0  0  0
 43 45  1  0  0  0  0
 43 46  1  0  0  0  0
 44 48  1  0  0  0  0
 45 50  1  0  0  0  0
 46 68  1  0  0  0  0
 47 50  1  0  0  0  0
 47 68  1  0  0  0  0
 48 72  1  0  0  0  0
 49 67  1  0  0  0  0
 50 66  1  0  0  0  0
 52 59  1  0  0  0  0
 53 63  1  0  0  0  0
 54 64  1  0  0  0  0
 55 64  1  0  0  0  0
 56 64  1  0  0  0  0
 57 74  1  0  0  0  0
 58 60  1  0  0  0  0
 60 61  1  0  0  0  0
 61 81  1  0  0  0  0
 62 64  1  0  0  0  0
 62 73  1  0  0  0  0
 63 74  1  0  0  0  0
 65 66  1  0  0  0  0
M  CHG  1  74   1
M  ISO  4  38 100  61 101  71 100  81 101
M  END
> <Batch ID>
0019

> <Smiles>
CCc1cc(CC[101CH2:1][101O:1]c2ccc3c(c2)CN(C(=O)C(NC(=O)C(C)NC)C(C)(C)C)C(C(=O)NC2CCCc4ccccc42)C3)c(C)c([100NH:0][100C:0](=O)N2CCCC(n3nc(-c4ccc(Oc5ccc(F)cc5F)cc4)c(C(N)=O)c3N)C2)c1Cl

> <Shape>
0.223

> <Color>
0.202

> <Negative vol penalty>
0.000

$$$$

  -OEChem-04052316073D

 81 89  0     1  0  0  0  0  0999 V2000
  -29.7822  -24.8242   17.2837 C   0  0  0  0  0  0  0  0  0  0  0  0
  -28.5567  -24.8294   17.9422 C   0  0  0  0  0  0  0  0  0  0  0  0
  -27.0402  -15.9459   20.0316 C   0  0  0  0  0  0  0  0  0  0  0  0
  -27.1158  -17.8389   21.5309 C   0  0  0  0  0  0  0  0  0  0  0  0
  -30.8435  -25.5783   17.7826 C   0  0  0  0  0  0  0  0  0  0  0  0
  -28.3922  -25.5879   19.1007 C   0  0  0  0  0  0  0  0  0  0  0  0
  -24.0443  -28.1841   19.1218 C   0  0  0  0  0  0  0  0  0  0  0  0
  -28.3508  -16.2092   19.6332 C   0  0  0  0  0  0  0  0  0  0  0  0
  -28.4264  -18.1021   21.1326 C   0  0  0  0  0  0  0  0  0  0  0  0
  -22.8822  -27.4773   19.4281 C   0  0  0  0  0  0  0  0  0  0  0  0
  -29.9892  -19.5489   18.5067 C   0  0  0  0  0  0  0  0  0  0  0  0
  -30.3272  -20.8724   18.2242 C   0  0  0  0  0  0  0  0  0  0  0  0
  -22.9695  -28.3239   21.6853 C   0  0  0  0  0  0  0  0  0  0  0  0
  -19.9090  -23.8452   23.2358 C   0  0  0  0  0  0  0  0  0  0  0  0
  -19.4342  -24.2366   20.8995 C   0  0  0  0  0  0  0  0  0  0  0  0
  -32.0053  -20.8146   19.9614 C   0  0  0  0  0  0  0  0  0  0  0  0
  -26.4227  -16.7609   20.9804 C   0  0  0  0  0  0  0  0  0  0  0  0
  -24.6519  -15.6653   22.4541 C   0  0  0  0  0  0  0  0  0  0  0  0
  -30.6891  -26.3540   18.9424 C   0  0  0  0  0  0  0  0  0  0  0  0
  -24.6849  -28.9586   20.0996 C   0  0  0  0  0  0  0  0  0  0  0  0
  -29.4529  -26.3520   19.6163 C   0  0  0  0  0  0  0  0  0  0  0  0
  -24.1382  -29.0416   21.3882 C   0  0  0  0  0  0  0  0  0  0  0  0
  -19.5897  -24.7211   22.1983 C   0  0  0  0  0  0  0  0  0  0  0  0
  -19.9177  -22.0004   21.6758 C   0  0  0  0  0  0  0  0  0  0  0  0
  -29.0439  -17.2872   20.1837 C   0  0  0  0  0  0  0  0  0  0  0  0
  -22.3462  -27.5449   20.7108 C   0  0  0  0  0  0  0  0  0  0  0  0
  -30.6591  -18.8583   19.5167 C   0  0  0  0  0  0  0  0  0  0  0  0
  -31.3353  -21.5052   18.9515 C   0  0  0  0  0  0  0  0  0  0  0  0
  -31.6672  -19.4911   20.2440 C   0  0  0  0  0  0  0  0  0  0  0  0
  -20.0731  -22.4848   22.9745 C   0  0  0  0  0  0  0  0  0  0  0  0
  -19.5982  -22.8763   20.6383 C   0  0  0  0  0  0  0  0  0  0  0  0
  -25.0687  -16.4898   21.3919 C   0  0  0  0  0  0  0  0  0  0  0  0
  -23.2807  -15.7406   22.4296 C   0  0  0  0  0  0  0  0  0  0  0  0
  -25.4343  -14.9000   23.3803 C   0  0  0  0  0  0  0  0  0  0  0  0
  -27.5440  -28.9030   21.4876 C   0  0  0  0  0  0  0  0  0  0  0  0
  -26.5129  -31.6686   22.8332 C   0  0  0  0  0  0  0  0  0  0  0  0
  -23.8819  -33.6228   23.7849 C   0  0  0  0  0  0  0  0  0  0  0  0
  -19.4541  -19.8665   20.4196 C   0  0  0  0  0  0  0  0  0  0  0  0
  -31.8791  -27.1156   19.4702 C   0  0  0  0  0  0  0  0  0  0  0  0
  -25.9228  -29.7363   19.7459 C   0  0  0  0  0  0  0  0  0  0  0  0
  -24.7763  -29.8751   22.4682 C   0  0  0  0  0  0  0  0  0  0  0  0
  -31.5114  -28.1871   20.4934 C   0  0  0  0  0  0  0  0  0  0  0  0
  -19.6227  -16.4528   19.4219 C   0  0  0  0  0  0  0  0  0  0  0  0
  -30.5365  -27.6282   21.5249 C   0  0  0  0  0  0  0  0  0  0  0  0
  -20.9980  -15.9981   19.9159 C   0  0  0  0  0  0  0  0  0  0  0  0
  -19.6489  -17.8951   18.9193 C   0  0  0  0  0  0  0  0  0  0  0  0
  -21.5784  -18.4176   20.3591 C   0  0  0  0  0  0  0  0  0  0  0  0
  -29.2280  -27.1815   20.8619 C   0  0  1  0  0  0  0  0  0  0  0  0
  -26.7779  -30.0834   20.9607 C   0  0  1  0  0  0  0  0  0  0  0  0
  -21.5874  -16.9923   20.9355 C   0  0  2  0  0  0  0  0  0  0  0  0
  -23.3531  -35.8112   24.8933 C   0  0  0  0  0  0  0  0  0  0  0  0
  -27.1940  -30.4550   25.5486 C   0  0  0  0  0  0  0  0  0  0  0  0
  -25.7979  -32.2374   26.6174 C   0  0  0  0  0  0  0  0  0  0  0  0
  -27.8190  -32.8633   25.2959 C   0  0  0  0  0  0  0  0  0  0  0  0
  -22.4938  -34.6396   21.3770 C   0  0  0  0  0  0  0  0  0  0  0  0
  -19.4131  -26.1932   22.4810 C   0  0  0  0  0  0  0  0  0  0  0  0
  -20.7183  -26.9700   22.3465 C   0  0  0  0  0  0  0  0  0  1  0  0
  -25.7590  -32.0298   24.0903 C   0  0  1  0  0  0  0  0  0  0  0  0
  -23.5940  -35.0980   23.5719 C   0  0  2  0  0  0  0  0  0  0  0  0
  -26.6313  -31.8791   25.3685 C   0  0  0  0  0  0  0  0  0  0  0  0
  -24.0451  -17.0477   20.7399 N   0  0  0  0  0  0  0  0  0  0  0  0
  -22.9715  -16.5729   21.3942 N   0  0  0  0  0  0  0  0  0  0  0  0
  -25.9887  -30.6121   22.0750 N   0  0  0  0  0  0  0  0  0  0  0  0
  -20.2157  -18.7801   19.9393 N   0  0  0  0  0  0  0  0  0  0  0  0
  -22.3213  -15.1753   23.1927 N   0  0  0  0  0  0  0  0  0  0  0  0
  -26.8306  -14.9352   23.2642 N   0  0  0  0  0  0  0  0  0  0  0  0
  -20.0837  -20.6183   21.4111 N   0  0  0  0  0  0  0  0  0  0  0  0
  -28.3955  -28.3272   20.5641 N   0  0  0  0  0  0  0  0  0  0  0  0
  -25.2350  -33.3750   23.8797 N   0  0  0  0  0  0  0  0  0  0  0  0
  -22.3859  -35.2719   22.7169 N   0  3  0  0  0  0  0  0  0  0  0  0
  -24.9102  -14.1924   24.2737 O   0  0  0  0  0  0  0  0  0  0  0  0
  -27.3760  -28.5422   22.6466 O   0  0  0  0  0  0  0  0  0  0  0  0
  -27.5254  -32.3051   22.5313 O   0  0  0  0  0  0  0  0  0  0  0  0
  -22.9950  -32.7756   23.8633 O   0  0  0  0  0  0  0  0  0  0  0  0
  -18.3158  -20.0955   20.0030 O   0  0  0  0  0  0  0  0  0  0  0  0
  -30.3229  -17.5442   19.7954 O   0  0  0  0  0  0  0  0  0  0  0  0
  -21.2124  -26.8555   21.0126 O   0  0  0  0  0  0  0  0  0  1  0  0
  -31.6609  -22.7756   18.6790 F   0  0  0  0  0  0  0  0  0  0  0  0
  -32.3152  -18.8324   21.2146 F   0  0  0  0  0  0  0  0  0  0  0  0
  -20.4676  -21.4394   24.2933 Cl  0  0  0  0  0  0  0  0  0  0  0  0
  -19.3945  -22.3245   19.0128 Cl  0  0  0  0  0  0  0  0  0  0  0  0
  1  2  1  0  0  0  0
  1  5  2  0  0  0  0
  2  6  2  0  0  0  0
  3  8  2  0  0  0  0
  3 17  1  0  0  0  0
  4  9  1  0  0  0  0
  4 17  2  0  0  0  0
  5 19  1  0  0  0  0
  6 21  1  0  0  0  0
  7 10  2  0  0  0  0
  7 20  1  0  0  0  0
  8 25  1  0  0  0  0
  9 25  2  0  0  0  0
 10 26  1  0  0  0  0
 11 12  2  0  0  0  0
 11 27  1  0  0  0  0
 12 28  1  0  0  0  0
 13 22  1  0  0  0  0
 13 26  2  0  0  0  0
 14 23  1  0  0  0  0
 14 30  2  0  0  0  0
 15 23  2  0  0  0  0
 15 31  1  0  0  0  0
 16 28  2  0  0  0  0
 16 29  1  0  0  0  0
 17 32  1  0  0  0  0
 18 32  1  0  0  0  0
 18 33  2  0  0  0  0
 18 34  1  0  0  0  0
 19 21  2  0  0  0  0
 19 39  1  0  0  0  0
 20 22  2  0  0  0  0
 20 40  1  0  0  0  0
 21 48  1  0  0  0  0
 22 41  1  0  0  0  0
 23 56  1  0  0  0  0
 24 30  1  0  0  0  0
 24 31  2  0  0  0  0
 24 67  1  0  0  0  0
 25 76  1  0  0  0  0
 26 77  1  0  0  0  0
 27 29  2  0  0  0  0
 27 76  1  0  0  0  0
 28 78  1  0  0  0  0
 29 79  1  0  0  0  0
 30 80  1  0  0  0  0
 31 81  1  0  0  0  0
 32 61  2  0  0  0  0
 33 62  1  0  0  0  0
 33 65  1  0  0  0  0
 34 66  1  0  0  0  0
 34 71  2  0  0  0  0
 35 49  1  0  0  0  0
 35 68  1  0  0  0  0
 35 72  2  0  0  0  0
 36 58  1  0  0  0  0
 36 63  1  0  0  0  0
 36 73  2  0  0  0  0
 37 59  1  0  0  0  0
 37 69  1  0  0  0  0
 37 74  2  0  0  0  0
 38 64  1  0  0  0  0
 38 67  1  0  0  0  0
 38 75  2  0  0  0  0
 39 42  1  0  0  0  0
 40 49  1  0  0  0  0
 41 63  1  0  0  0  0
 42 44  1  0  0  0  0
 43 45  1  0  0  0  0
 43 46  1  0  0  0  0
 44 48  1  0  0  0  0
 45 50  1  0  0  0  0
 46 64  1  0  0  0  0
 47 50  1  0  0  0  0
 47 64  1  0  0  0  0
 48 68  1  0  0  0  0
 49 63  1  0  0  0  0
 50 62  1  0  0  0  0
 51 59  1  0  0  0  0
 52 60  1  0  0  0  0
 53 60  1  0  0  0  0
 54 60  1  0  0  0  0
 55 70  1  0  0  0  0
 56 57  1  0  0  0  0
 57 77  1  0  0  0  0
 58 60  1  0  0  0  0
 58 69  1  0  0  0  0
 59 70  1  0  0  0  0
 61 62  1  0  0  0  0
M  CHG  1  70   1
M  ISO  4  38 100  57 101  67 100  77 101
M  END
> <Batch ID>
0019

> <Smiles>
CNC(C)C(=O)NC(C(=O)N1Cc2cc([101O:1][101CH2:1]Cc3cc(Cl)c([100NH:0][100C:0](=O)N4CCCC(n5nc(-c6ccc(Oc7ccc(F)cc7F)cc6)c(C(N)=O)c5N)C4)c(Cl)c3)ccc2CC1C(=O)NC1CCCc2ccccc21)C(C)(C)C

> <Shape>
0.230

> <Color>
0.066

> <Negative vol penalty>
0.000

$$$$

  -OEChem-04052316073D

 81 89  0     1  0  0  0  0  0999 V2000
  -23.9934  -37.9667   20.4812 C   0  0  0  0  0  0  0  0  0  0  0  0
  -24.9243  -37.0015   20.1104 C   0  0  0  0  0  0  0  0  0  0  0  0
  -26.3768  -12.6876   21.3238 C   0  0  0  0  0  0  0  0  0  0  0  0
  -25.8939  -13.4439   19.0806 C   0  0  0  0  0  0  0  0  0  0  0  0
  -23.2074  -37.7755   21.6167 C   0  0  0  0  0  0  0  0  0  0  0  0
  -25.0703  -35.8450   20.8756 C   0  0  0  0  0  0  0  0  0  0  0  0
  -26.4015  -30.2255   18.8373 C   0  0  0  0  0  0  0  0  0  0  0  0
  -25.8065  -11.4493   21.0291 C   0  0  0  0  0  0  0  0  0  0  0  0
  -25.3236  -12.2055   18.7859 C   0  0  0  0  0  0  0  0  0  0  0  0
  -27.5954  -29.5080   18.7769 C   0  0  0  0  0  0  0  0  0  0  0  0
  -24.1534   -8.2107   20.9772 C   0  0  0  0  0  0  0  0  0  0  0  0
  -23.2859   -7.6545   21.9172 C   0  0  0  0  0  0  0  0  0  0  0  0
  -27.0422  -28.4241   20.8598 C   0  0  0  0  0  0  0  0  0  0  0  0
  -29.5464  -24.8288   20.3133 C   0  0  0  0  0  0  0  0  0  0  0  0
  -28.9796  -24.3374   18.0168 C   0  0  0  0  0  0  0  0  0  0  0  0
  -21.8344   -9.5752   21.7143 C   0  0  0  0  0  0  0  0  0  0  0  0
  -26.4205  -13.6849   20.3495 C   0  0  0  0  0  0  0  0  0  0  0  0
  -28.3557  -15.3411   20.4903 C   0  0  0  0  0  0  0  0  0  0  0  0
  -23.3371  -36.6116   22.3908 C   0  0  0  0  0  0  0  0  0  0  0  0
  -25.5227  -30.0554   19.9167 C   0  0  0  0  0  0  0  0  0  0  0  0
  -24.2862  -35.6387   22.0234 C   0  0  0  0  0  0  0  0  0  0  0  0
  -25.8367  -29.1387   20.9302 C   0  0  0  0  0  0  0  0  0  0  0  0
  -29.6333  -25.1357   18.9555 C   0  0  0  0  0  0  0  0  0  0  0  0
  -28.8060  -23.7235   20.7326 C   0  0  0  0  0  0  0  0  0  0  0  0
  -28.2391  -23.2322   18.4360 C   0  0  0  0  0  0  0  0  0  0  0  0
  -28.1523  -22.9252   19.7939 C   0  0  0  0  0  0  0  0  0  0  0  0
  -25.2799  -11.2082   19.7602 C   0  0  0  0  0  0  0  0  0  0  0  0
  -27.9173  -28.6092   19.7897 C   0  0  0  0  0  0  0  0  0  0  0  0
  -23.8615   -9.4493   20.4058 C   0  0  0  0  0  0  0  0  0  0  0  0
  -22.1264   -8.3367   22.2857 C   0  0  0  0  0  0  0  0  0  0  0  0
  -22.7020  -10.1315   20.7743 C   0  0  0  0  0  0  0  0  0  0  0  0
  -27.0091  -14.9645   20.6535 C   0  0  0  0  0  0  0  0  0  0  0  0
  -28.4018  -16.6452   20.9191 C   0  0  0  0  0  0  0  0  0  0  0  0
  -29.4656  -14.5803   19.9954 C   0  0  0  0  0  0  0  0  0  0  0  0
  -24.3824  -31.9492   22.2008 C   0  0  0  0  0  0  0  0  0  0  0  0
  -22.5700  -29.3536   22.9078 C   0  0  0  0  0  0  0  0  0  0  0  0
  -22.1753  -25.9671   22.7560 C   0  0  0  0  0  0  0  0  0  0  0  0
  -26.2991  -21.7985   21.0755 C   0  0  0  0  0  0  0  0  0  0  0  0
  -22.4985  -36.4711   23.6365 C   0  0  0  0  0  0  0  0  0  0  0  0
  -24.2263  -30.8172   19.9536 C   0  0  0  0  0  0  0  0  0  0  0  0
  -24.9177  -28.9046   22.1003 C   0  0  0  0  0  0  0  0  0  0  0  0
  -22.4520  -35.0461   24.1819 C   0  0  0  0  0  0  0  0  0  0  0  0
  -24.9593  -19.4300   23.3717 C   0  0  0  0  0  0  0  0  0  0  0  0
  -23.8527  -34.4434   24.2209 C   0  0  0  0  0  0  0  0  0  0  0  0
  -25.4839  -18.0881   22.8558 C   0  0  0  0  0  0  0  0  0  0  0  0
  -24.6138  -20.3816   22.2277 C   0  0  0  0  0  0  0  0  0  0  0  0
  -26.2133  -19.2507   20.7337 C   0  0  0  0  0  0  0  0  0  0  0  0
  -24.4566  -34.3595   22.8138 C   0  0  1  0  0  0  0  0  0  0  0  0
  -23.6477  -30.9443   21.3594 C   0  0  1  0  0  0  0  0  0  0  0  0
  -26.6359  -18.2823   21.8505 C   0  0  2  0  0  0  0  0  0  0  0  0
  -28.7320  -23.4199   22.1942 C   0  0  0  0  0  0  0  0  0  0  0  0
  -27.5495  -22.3960   17.4067 C   0  0  0  0  0  0  0  0  0  0  0  0
  -20.6119  -24.1328   23.4547 C   0  0  0  0  0  0  0  0  0  0  0  0
  -23.5980  -29.5717   25.7724 C   0  0  0  0  0  0  0  0  0  0  0  0
  -22.7913  -27.2345   26.1660 C   0  0  0  0  0  0  0  0  0  0  0  0
  -21.1642  -29.0309   25.5758 C   0  0  0  0  0  0  0  0  0  0  0  0
  -21.6811  -25.1619   19.9513 C   0  0  0  0  0  0  0  0  0  0  0  0
  -30.4348  -26.3316   18.5018 C   0  0  0  0  0  0  0  0  0  0  0  0
  -29.5943  -27.6022   18.4372 C   0  0  0  0  0  0  0  0  0  1  0  0
  -22.7326  -28.1472   23.8006 C   0  0  1  0  0  0  0  0  0  0  0  0
  -20.9909  -25.1082   22.3512 C   0  0  2  0  0  0  0  0  0  0  0  0
  -22.5900  -28.5017   25.3078 C   0  0  0  0  0  0  0  0  0  0  0  0
  -26.2544  -15.9496   21.1475 N   0  0  0  0  0  0  0  0  0  0  0  0
  -27.1297  -16.9581   21.2985 N   0  0  0  0  0  0  0  0  0  0  0  0
  -23.6649  -29.6779   22.0944 N   0  0  0  0  0  0  0  0  0  0  0  0
  -25.7534  -20.5202   21.3182 N   0  0  0  0  0  0  0  0  0  0  0  0
  -29.4061  -17.5432   21.0049 N   0  0  0  0  0  0  0  0  0  0  0  0
  -29.2427  -13.2551   19.5974 N   0  0  0  0  0  0  0  0  0  0  0  0
  -27.3999  -21.8025   20.2196 N   0  0  0  0  0  0  0  0  0  0  0  0
  -23.8972  -33.2383   22.0898 N   0  0  0  0  0  0  0  0  0  0  0  0
  -21.7727  -27.1561   23.3265 N   0  0  0  0  0  0  0  0  0  0  0  0
  -21.3131  -24.3270   21.1237 N   0  3  0  0  0  0  0  0  0  0  0  0
  -30.6240  -15.0562   19.9240 O   0  0  0  0  0  0  0  0  0  0  0  0
  -25.3193  -31.5820   22.9002 O   0  0  0  0  0  0  0  0  0  0  0  0
  -21.5079  -29.9807   22.9261 O   0  0  0  0  0  0  0  0  0  0  0  0
  -23.3411  -25.6166   22.5867 O   0  0  0  0  0  0  0  0  0  0  0  0
  -25.8416  -22.8116   21.6106 O   0  0  0  0  0  0  0  0  0  0  0  0
  -24.7235   -9.9999   19.4722 O   0  0  0  0  0  0  0  0  0  0  0  0
  -29.0822  -27.9081   19.7335 O   0  0  0  0  0  0  0  0  0  1  0  0
  -21.2926   -7.8016   23.1871 F   0  0  0  0  0  0  0  0  0  0  0  0
  -22.4157  -11.3212   20.2280 F   0  0  0  0  0  0  0  0  0  0  0  0
  1  2  1  0  0  0  0
  1  5  2  0  0  0  0
  2  6  2  0  0  0  0
  3  8  2  0  0  0  0
  3 17  1  0  0  0  0
  4  9  1  0  0  0  0
  4 17  2  0  0  0  0
  5 19  1  0  0  0  0
  6 21  1  0  0  0  0
  7 10  2  0  0  0  0
  7 20  1  0  0  0  0
  8 27  1  0  0  0  0
  9 27  2  0  0  0  0
 10 28  1  0  0  0  0
 11 12  2  0  0  0  0
 11 29  1  0  0  0  0
 12 30  1  0  0  0  0
 13 22  1  0  0  0  0
 13 28  2  0  0  0  0
 14 23  1  0  0  0  0
 14 24  2  0  0  0  0
 15 23  2  0  0  0  0
 15 25  1  0  0  0  0
 16 30  2  0  0  0  0
 16 31  1  0  0  0  0
 17 32  1  0  0  0  0
 18 32  1  0  0  0  0
 18 33  2  0  0  0  0
 18 34  1  0  0  0  0
 19 21  2  0  0  0  0
 19 39  1  0  0  0  0
 20 22  2  0  0  0  0
 20 40  1  0  0  0  0
 21 48  1  0  0  0  0
 22 41  1  0  0  0  0
 23 58  1  0  0  0  0
 24 26  1  0  0  0  0
 24 51  1  0  0  0  0
 25 26  2  0  0  0  0
 25 52  1  0  0  0  0
 26 69  1  0  0  0  0
 27 78  1  0  0  0  0
 28 79  1  0  0  0  0
 29 31  2  0  0  0  0
 29 78  1  0  0  0  0
 30 80  1  0  0  0  0
 31 81  1  0  0  0  0
 32 63  2  0  0  0  0
 33 64  1  0  0  0  0
 33 67  1  0  0  0  0
 34 68  1  0  0  0  0
 34 73  2  0  0  0  0
 35 49  1  0  0  0  0
 35 70  1  0  0  0  0
 35 74  2  0  0  0  0
 36 60  1  0  0  0  0
 36 65  1  0  0  0  0
 36 75  2  0  0  0  0
 37 61  1  0  0  0  0
 37 71  1  0  0  0  0
 37 76  2  0  0  0  0
 38 66  1  0  0  0  0
 38 69  1  0  0  0  0
 38 77  2  0  0  0  0
 39 42  1  0  0  0  0
 40 49  1  0  0  0  0
 41 65  1  0  0  0  0
 42 44  1  0  0  0  0
 43 45  1  0  0  0  0
 43 46  1  0  0  0  0
 44 48  1  0  0  0  0
 45 50  1  0  0  0  0
 46 66  1  0  0  0  0
 47 50  1  0  0  0  0
 47 66  1  0  0  0  0
 48 70  1  0  0  0  0
 49 65  1  0  0  0  0
 50 64  1  0  0  0  0
 53 61  1  0  0  0  0
 54 62  1  0  0  0  0
 55 62  1  0  0  0  0
 56 62  1  0  0  0  0
 57 72  1  0  0  0  0
 58 59  1  0  0  0  0
 59 79  1  0  0  0  0
 60 62  1  0  0  0  0
 60 71  1  0  0  0  0
 61 72  1  0  0  0  0
 63 64  1  0  0  0  0
M  CHG  1  72   1
M  ISO  4  38 100  59 101  69 100  79 101
M  END
> <Batch ID>
0019

> <Smiles>
CNC(C)C(=O)NC(C(=O)N1Cc2cc([101O:1][101CH2:1]Cc3cc(C)c([100NH:0][100C:0](=O)N4CCCC(n5nc(-c6ccc(Oc7ccc(F)cc7F)cc6)c(C(N)=O)c5N)C4)c(C)c3)ccc2CC1C(=O)NC1CCCc2ccccc21)C(C)(C)C

> <Shape>
0.256

> <Color>
0.062

> <Negative vol penalty>
0.000

$$$$

  -OEChem-04052316073D

 83 91  0     1  0  0  0  0  0999 V2000
  -16.4068  -28.8687   23.3878 C   0  0  0  0  0  0  0  0  0  0  0  0
  -17.2712  -28.3747   22.4161 C   0  0  0  0  0  0  0  0  0  0  0  0
  -28.9961  -12.8738   20.9786 C   0  0  0  0  0  0  0  0  0  0  0  0
  -29.6112  -13.8046   18.8357 C   0  0  0  0  0  0  0  0  0  0  0  0
  -16.8564  -29.8238   24.2986 C   0  0  0  0  0  0  0  0  0  0  0  0
  -18.5855  -28.8364   22.3539 C   0  0  0  0  0  0  0  0  0  0  0  0
  -23.5481  -25.6154   20.7714 C   0  0  0  0  0  0  0  0  0  0  0  0
  -28.5275  -11.7233   20.3444 C   0  0  0  0  0  0  0  0  0  0  0  0
  -29.1427  -12.6540   18.2014 C   0  0  0  0  0  0  0  0  0  0  0  0
  -24.2568  -25.5117   19.5752 C   0  0  0  0  0  0  0  0  0  0  0  0
  -29.8381   -8.9135   18.9951 C   0  0  0  0  0  0  0  0  0  0  0  0
  -30.1916   -7.6810   19.5442 C   0  0  0  0  0  0  0  0  0  0  0  0
  -25.8131  -27.1796   20.3597 C   0  0  0  0  0  0  0  0  0  0  0  0
  -28.0988  -23.5969   18.7199 C   0  0  0  0  0  0  0  0  0  0  0  0
  -27.8559   -7.1553   19.8682 C   0  0  0  0  0  0  0  0  0  0  0  0
  -29.5379  -13.9145   20.2242 C   0  0  0  0  0  0  0  0  0  0  0  0
  -31.3246  -15.3411   21.3557 C   0  0  0  0  0  0  0  0  0  0  0  0
  -18.1797  -30.2904   24.2536 C   0  0  0  0  0  0  0  0  0  0  0  0
  -23.9609  -26.5115   21.7679 C   0  0  0  0  0  0  0  0  0  0  0  0
  -19.0529  -29.7996   23.2641 C   0  0  0  0  0  0  0  0  0  0  0  0
  -25.1093  -27.2910   21.5686 C   0  0  0  0  0  0  0  0  0  0  0  0
  -28.5319  -22.2521   18.6151 C   0  0  0  0  0  0  0  0  0  0  0  0
  -28.6008  -11.6133   18.9558 C   0  0  0  0  0  0  0  0  0  0  0  0
  -25.3878  -26.2959   19.3681 C   0  0  0  0  0  0  0  0  0  0  0  0
  -28.4934   -9.2670   18.8827 C   0  0  0  0  0  0  0  0  0  0  0  0
  -29.2006   -6.8018   19.9807 C   0  0  0  0  0  0  0  0  0  0  0  0
  -27.5023   -8.3878   19.3192 C   0  0  0  0  0  0  0  0  0  0  0  0
  -30.0216  -15.1035   20.8787 C   0  0  0  0  0  0  0  0  0  0  0  0
  -28.4545  -24.2357   17.5526 C   0  0  0  0  0  0  0  0  0  0  0  0
  -29.1394  -22.1101   17.3870 C   0  0  0  0  0  0  0  0  0  0  0  0
  -31.2700  -16.6059   21.8885 C   0  0  0  0  0  0  0  0  0  0  0  0
  -32.4810  -14.4942   21.3204 C   0  0  0  0  0  0  0  0  0  0  0  0
  -22.6708  -29.0545   23.1722 C   0  0  0  0  0  0  0  0  0  0  0  0
  -25.3154  -28.8782   25.0423 C   0  0  0  0  0  0  0  0  0  0  0  0
  -28.5457  -27.8374   25.4014 C   0  0  0  0  0  0  0  0  0  0  0  0
  -27.7697  -21.3323   20.8331 C   0  0  0  0  0  0  0  0  0  0  0  0
  -18.6065  -31.3582   25.2295 C   0  0  0  0  0  0  0  0  0  0  0  0
  -23.2009  -26.5922   23.0634 C   0  0  0  0  0  0  0  0  0  0  0  0
  -25.6058  -28.2536   22.6152 C   0  0  0  0  0  0  0  0  0  0  0  0
  -20.1210  -31.5194   25.3321 C   0  0  0  0  0  0  0  0  0  0  0  0
  -28.2237  -19.6725   23.9501 C   0  0  0  0  0  0  0  0  0  0  0  0
  -20.7485  -31.5633   23.9424 C   0  0  0  0  0  0  0  0  0  0  0  0
  -28.8604  -18.3366   23.5602 C   0  0  0  0  0  0  0  0  0  0  0  0
  -27.1852  -20.1263   22.9257 C   0  0  0  0  0  0  0  0  0  0  0  0
  -28.2979  -18.8347   21.1472 C   0  0  0  0  0  0  0  0  0  0  0  0
  -20.4928  -30.2575   23.1801 C   0  0  1  0  0  0  0  0  0  0  0  0
  -23.4151  -27.9105   23.8006 C   0  0  1  0  0  0  0  0  0  0  0  0
  -29.3971  -18.3685   22.1157 C   0  0  2  0  0  0  0  0  0  0  0  0
  -29.7672  -20.9254   16.7624 C   0  0  0  0  0  0  0  0  0  0  0  0
  -30.5146  -26.4855   18.1235 C   0  0  0  0  0  0  0  0  0  0  0  0
  -30.4574  -27.8723   27.0267 C   0  0  0  0  0  0  0  0  0  0  0  0
  -27.3885  -25.8454   15.8298 C   0  0  0  0  0  0  0  0  0  0  0  0
  -25.8456  -31.8027   24.3520 C   0  0  0  0  0  0  0  0  0  0  0  0
  -28.1864  -31.5033   25.1881 C   0  0  0  0  0  0  0  0  0  0  0  0
  -26.2601  -31.2038   26.7445 C   0  0  0  0  0  0  0  0  0  0  0  0
  -29.6173  -23.5968   15.4309 C   0  0  0  0  0  0  0  0  0  0  0  0
  -28.6118  -24.8831   25.5657 C   0  0  0  0  0  0  0  0  0  0  0  0
  -29.6025  -26.4223   16.9015 C   0  0  0  0  0  0  0  0  0  0  0  0
  -27.4832  -26.4566   18.2548 C   0  0  0  0  0  0  0  0  0  1  0  0
  -26.7103  -29.4519   24.9781 C   0  0  1  0  0  0  0  0  0  0  0  0
  -29.2468  -27.0991   26.5274 C   0  0  2  0  0  0  0  0  0  0  0  0
  -28.2343  -25.6997   17.1204 C   0  0  2  0  0  0  0  0  0  0  0  0
  -26.7404  -30.9738   25.2950 C   0  0  0  0  0  0  0  0  0  0  0  0
  -29.1992  -16.1346   21.0900 N   0  0  0  0  0  0  0  0  0  0  0  0
  -29.0867  -23.3224   16.7499 N   0  0  0  0  0  0  0  0  0  0  0  0
  -29.9874  -17.0323   21.7056 N   0  0  0  0  0  0  0  0  0  0  0  0
  -24.8250  -28.3010   23.8624 N   0  0  0  0  0  0  0  0  0  0  0  0
  -27.7660  -20.1360   21.5813 N   0  0  0  0  0  0  0  0  0  0  0  0
  -32.1944  -17.3837   22.4909 N   0  0  0  0  0  0  0  0  0  0  0  0
  -32.3625  -13.2257   20.7362 N   0  0  0  0  0  0  0  0  0  0  0  0
  -28.3777  -21.2282   19.5824 N   0  0  0  0  0  0  0  0  0  0  0  0
  -21.3834  -29.2168   23.6473 N   0  0  0  0  0  0  0  0  0  0  0  0
  -27.5275  -28.6391   25.8725 N   0  0  0  0  0  0  0  0  0  0  0  0
  -29.7040  -25.7591   26.0625 N   0  3  0  0  0  0  0  0  0  0  0  0
  -33.5823  -14.8454   21.8074 O   0  0  0  0  0  0  0  0  0  0  0  0
  -23.2241  -29.7402   22.3205 O   0  0  0  0  0  0  0  0  0  0  0  0
  -24.6869  -28.9337   26.1022 O   0  0  0  0  0  0  0  0  0  0  0  0
  -28.8712  -27.7179   24.2223 O   0  0  0  0  0  0  0  0  0  0  0  0
  -27.2945  -22.3791   21.2806 O   0  0  0  0  0  0  0  0  0  0  0  0
  -28.1439  -10.4906   18.3366 O   0  0  0  0  0  0  0  0  0  0  0  0
  -26.0811  -26.1970   18.2012 O   0  0  0  0  0  0  0  0  0  1  0  0
  -29.5402   -5.6176   20.5065 F   0  0  0  0  0  0  0  0  0  0  0  0
  -26.2088   -8.7213   19.2127 F   0  0  0  0  0  0  0  0  0  0  0  0
  1  2  1  0  0  0  0
  1  5  2  0  0  0  0
  2  6  2  0  0  0  0
  3  8  2  0  0  0  0
  3 16  1  0  0  0  0
  4  9  1  0  0  0  0
  4 16  2  0  0  0  0
  5 18  1  0  0  0  0
  6 20  1  0  0  0  0
  7 10  2  0  0  0  0
  7 19  1  0  0  0  0
  8 23  1  0  0  0  0
  9 23  2  0  0  0  0
 10 24  1  0  0  0  0
 11 12  2  0  0  0  0
 11 25  1  0  0  0  0
 12 26  1  0  0  0  0
 13 21  1  0  0  0  0
 13 24  2  0  0  0  0
 14 22  1  0  0  0  0
 14 29  2  0  0  0  0
 15 26  2  0  0  0  0
 15 27  1  0  0  0  0
 16 28  1  0  0  0  0
 17 28  1  0  0  0  0
 17 31  2  0  0  0  0
 17 32  1  0  0  0  0
 18 20  2  0  0  0  0
 18 37  1  0  0  0  0
 19 21  2  0  0  0  0
 19 38  1  0  0  0  0
 20 46  1  0  0  0  0
 21 39  1  0  0  0  0
 22 30  2  0  0  0  0
 22 71  1  0  0  0  0
 23 80  1  0  0  0  0
 24 81  1  0  0  0  0
 25 27  2  0  0  0  0
 25 80  1  0  0  0  0
 26 82  1  0  0  0  0
 27 83  1  0  0  0  0
 28 64  2  0  0  0  0
 29 62  1  0  0  0  0
 29 65  1  0  0  0  0
 30 49  1  0  0  0  0
 30 65  1  0  0  0  0
 31 66  1  0  0  0  0
 31 69  1  0  0  0  0
 32 70  1  0  0  0  0
 32 75  2  0  0  0  0
 33 47  1  0  0  0  0
 33 72  1  0  0  0  0
 33 76  2  0  0  0  0
 34 60  1  0  0  0  0
 34 67  1  0  0  0  0
 34 77  2  0  0  0  0
 35 61  1  0  0  0  0
 35 73  1  0  0  0  0
 35 78  2  0  0  0  0
 36 68  1  0  0  0  0
 36 71  1  0  0  0  0
 36 79  2  0  0  0  0
 37 40  1  0  0  0  0
 38 47  1  0  0  0  0
 39 67  1  0  0  0  0
 40 42  1  0  0  0  0
 41 43  1  0  0  0  0
 41 44  1  0  0  0  0
 42 46  1  0  0  0  0
 43 48  1  0  0  0  0
 44 68  1  0  0  0  0
 45 48  1  0  0  0  0
 45 68  1  0  0  0  0
 46 72  1  0  0  0  0
 47 67  1  0  0  0  0
 48 66  1  0  0  0  0
 50 58  1  0  0  0  0
 51 61  1  0  0  0  0
 52 62  1  0  0  0  0
 53 63  1  0  0  0  0
 54 63  1  0  0  0  0
 55 63  1  0  0  0  0
 56 65  1  0  0  0  0
 57 74  1  0  0  0  0
 58 62  1  0  0  0  0
 59 62  1  0  0  0  0
 59 81  1  0  0  0  0
 60 63  1  0  0  0  0
 60 73  1  0  0  0  0
 61 74  1  0  0  0  0
 64 66  1  0  0  0  0
M  CHG  1  74   1
M  ISO  4  36 100  59 101  71 100  81 101
M  END
> <Batch ID>
0019

> <Smiles>
CCC(C)(c1cc([100NH:0][100C:0](=O)N2CCCC(n3nc(-c4ccc(Oc5ccc(F)cc5F)cc4)c(C(N)=O)c3N)C2)c(C)n1C)[101CH2:1][101O:1]c1ccc2c(c1)CN(C(=O)C(NC(=O)C(C)NC)C(C)(C)C)C(C(=O)NC1CCCc3ccccc31)C2

> <Shape>
0.241

> <Color>
0.063

> <Negative vol penalty>
0.000

$$$$

  -OEChem-04052316073D

 82 90  0     1  0  0  0  0  0999 V2000
  -31.5325  -31.9936   16.9105 C   0  0  0  0  0  0  0  0  0  0  0  0
  -31.1317  -30.7239   17.3134 C   0  0  0  0  0  0  0  0  0  0  0  0
  -23.1105   -9.8763   19.9002 C   0  0  0  0  0  0  0  0  0  0  0  0
  -23.8406   -9.8535   22.2031 C   0  0  0  0  0  0  0  0  0  0  0  0
  -32.8899  -32.3009   16.8262 C   0  0  0  0  0  0  0  0  0  0  0  0
  -32.0881  -29.7602   17.6314 C   0  0  0  0  0  0  0  0  0  0  0  0
  -31.6529  -25.4192   21.9293 C   0  0  0  0  0  0  0  0  0  0  0  0
  -22.3826   -8.7069   20.1193 C   0  0  0  0  0  0  0  0  0  0  0  0
  -23.1126   -8.6840   22.4223 C   0  0  0  0  0  0  0  0  0  0  0  0
  -31.3139  -24.0682   21.8670 C   0  0  0  0  0  0  0  0  0  0  0  0
  -19.8906   -7.8230   22.9676 C   0  0  0  0  0  0  0  0  0  0  0  0
  -19.1194   -7.7493   24.1275 C   0  0  0  0  0  0  0  0  0  0  0  0
  -33.6546  -23.4913   21.7794 C   0  0  0  0  0  0  0  0  0  0  0  0
  -30.0883  -19.2890   22.8670 C   0  0  0  0  0  0  0  0  0  0  0  0
  -20.3829   -5.8190   24.8449 C   0  0  0  0  0  0  0  0  0  0  0  0
  -23.8396  -10.4496   20.9420 C   0  0  0  0  0  0  0  0  0  0  0  0
  -24.1414  -12.9818   20.8724 C   0  0  0  0  0  0  0  0  0  0  0  0
  -33.8633  -31.3434   17.1525 C   0  0  0  0  0  0  0  0  0  0  0  0
  -32.9972  -25.8175   21.9060 C   0  0  0  0  0  0  0  0  0  0  0  0
  -33.4597  -30.0545   17.5501 C   0  0  0  0  0  0  0  0  0  0  0  0
  -34.0080  -24.8477   21.8440 C   0  0  0  0  0  0  0  0  0  0  0  0
  -30.4434  -19.9677   21.7013 C   0  0  0  0  0  0  0  0  0  0  0  0
  -30.6496  -19.2597   20.5174 C   0  0  0  0  0  0  0  0  0  0  0  0
  -30.1455  -17.1942   21.6648 C   0  0  0  0  0  0  0  0  0  0  0  0
  -22.3836   -8.1107   21.3803 C   0  0  0  0  0  0  0  0  0  0  0  0
  -32.3148  -23.1042   21.7892 C   0  0  0  0  0  0  0  0  0  0  0  0
  -20.9079   -6.8947   22.7463 C   0  0  0  0  0  0  0  0  0  0  0  0
  -30.5006  -17.8729   20.4990 C   0  0  0  0  0  0  0  0  0  0  0  0
  -19.3655   -6.7473   25.0662 C   0  0  0  0  0  0  0  0  0  0  0  0
  -21.1541   -5.8927   23.6850 C   0  0  0  0  0  0  0  0  0  0  0  0
  -29.9393  -17.9022   22.8487 C   0  0  0  0  0  0  0  0  0  0  0  0
  -24.5923  -11.6574   20.7161 C   0  0  0  0  0  0  0  0  0  0  0  0
  -25.2256  -13.7554   20.5373 C   0  0  0  0  0  0  0  0  0  0  0  0
  -22.8573  -13.4691   21.2839 C   0  0  0  0  0  0  0  0  0  0  0  0
  -34.7822  -27.5755   19.9497 C   0  0  0  0  0  0  0  0  0  0  0  0
  -37.0259  -27.1610   22.2555 C   0  0  0  0  0  0  0  0  0  0  0  0
  -38.1893  -25.2924   24.8634 C   0  0  0  0  0  0  0  0  0  0  0  0
  -30.6712  -14.8861   20.8028 C   0  0  0  0  0  0  0  0  0  0  0  0
  -35.3190  -31.7073   17.0007 C   0  0  0  0  0  0  0  0  0  0  0  0
  -33.3469  -27.2774   22.0008 C   0  0  0  0  0  0  0  0  0  0  0  0
  -35.4668  -25.2222   21.8365 C   0  0  0  0  0  0  0  0  0  0  0  0
  -36.2650  -30.7458   17.7154 C   0  0  0  0  0  0  0  0  0  0  0  0
  -29.6272  -12.4985   18.3766 C   0  0  0  0  0  0  0  0  0  0  0  0
  -35.8803  -29.2997   17.4192 C   0  0  0  0  0  0  0  0  0  0  0  0
  -28.1871  -12.1758   18.7818 C   0  0  0  0  0  0  0  0  0  0  0  0
  -30.5229  -12.7200   19.5942 C   0  0  0  0  0  0  0  0  0  0  0  0
  -28.5867  -13.3879   20.9632 C   0  0  0  0  0  0  0  0  0  0  0  0
  -34.4669  -28.9898   17.9271 C   0  0  1  0  0  0  0  0  0  0  0  0
  -34.7339  -27.5964   21.4514 C   0  0  1  0  0  0  0  0  0  0  0  0
  -27.6320  -13.2206   19.7697 C   0  0  2  0  0  0  0  0  0  0  0  0
  -31.0305  -19.9844   19.2657 C   0  0  0  0  0  0  0  0  0  0  0  0
  -40.0655  -25.1837   26.5264 C   0  0  0  0  0  0  0  0  0  0  0  0
  -38.8947  -26.1280   20.0760 C   0  0  0  0  0  0  0  0  0  0  0  0
  -40.3490  -25.1695   21.8744 C   0  0  0  0  0  0  0  0  0  0  0  0
  -39.9793  -27.6335   21.7528 C   0  0  0  0  0  0  0  0  0  0  0  0
  -36.3293  -25.5373   27.1524 C   0  0  0  0  0  0  0  0  0  0  0  0
  -29.5712  -16.9949   18.4938 C   0  0  0  0  0  0  0  0  0  0  0  0
  -30.5974  -21.4595   21.7472 C   0  0  0  0  0  0  0  0  0  1  0  0
  -38.0980  -26.1348   22.5318 C   0  0  1  0  0  0  0  0  0  0  0  0
  -38.6553  -25.6838   26.2541 C   0  0  2  0  0  0  0  0  0  0  0  0
  -39.3028  -26.2591   21.5569 C   0  0  0  0  0  0  0  0  0  0  0  0
  -25.8638  -11.5897   20.3129 N   0  0  0  0  0  0  0  0  0  0  0  0
  -26.2211  -12.8814   20.2128 N   0  0  0  0  0  0  0  0  0  0  0  0
  -35.7578  -26.6627   21.9246 N   0  0  0  0  0  0  0  0  0  0  0  0
  -29.9358  -13.7253   20.4827 N   0  0  0  0  0  0  0  0  0  0  0  0
  -25.4150  -15.0912   20.4912 N   0  0  0  0  0  0  0  0  0  0  0  0
  -21.8562  -12.5376   21.5913 N   0  0  0  0  0  0  0  0  0  0  0  0
  -29.9982  -15.7853   21.6293 N   0  0  0  0  0  0  0  0  0  0  0  0
  -34.4778  -28.7875   19.3601 N   0  0  0  0  0  0  0  0  0  0  0  0
  -38.4509  -26.2821   23.9397 N   0  0  0  0  0  0  0  0  0  0  0  0
  -37.7458  -25.1099   27.2858 N   0  3  0  0  0  0  0  0  0  0  0  0
  -22.6001  -14.6945   21.3605 O   0  0  0  0  0  0  0  0  0  0  0  0
  -35.0755  -26.5369   19.3691 O   0  0  0  0  0  0  0  0  0  0  0  0
  -37.3015  -28.3606   22.3374 O   0  0  0  0  0  0  0  0  0  0  0  0
  -37.6507  -24.2147   24.6201 O   0  0  0  0  0  0  0  0  0  0  0  0
  -31.8033  -15.0817   20.3533 O   0  0  0  0  0  0  0  0  0  0  0  0
  -21.6732   -6.9697   21.5946 O   0  0  0  0  0  0  0  0  0  0  0  0
  -30.7035  -17.1845   19.3378 O   0  0  0  0  0  0  0  0  0  0  0  0
  -31.9867  -21.7849   21.7276 O   0  0  0  0  0  0  0  0  0  1  0  0
  -18.6259   -6.6776   26.1808 F   0  0  0  0  0  0  0  0  0  0  0  0
  -22.1308   -4.9988   23.4784 F   0  0  0  0  0  0  0  0  0  0  0  0
  -29.4984  -17.1039   24.3166 Cl  0  0  0  0  0  0  0  0  0  0  0  0
  1  2  1  0  0  0  0
  1  5  2  0  0  0  0
  2  6  2  0  0  0  0
  3  8  2  0  0  0  0
  3 16  1  0  0  0  0
  4  9  1  0  0  0  0
  4 16  2  0  0  0  0
  5 18  1  0  0  0  0
  6 20  1  0  0  0  0
  7 10  2  0  0  0  0
  7 19  1  0  0  0  0
  8 25  1  0  0  0  0
  9 25  2  0  0  0  0
 10 26  1  0  0  0  0
 11 12  2  0  0  0  0
 11 27  1  0  0  0  0
 12 29  1  0  0  0  0
 13 21  1  0  0  0  0
 13 26  2  0  0  0  0
 14 22  1  0  0  0  0
 14 31  2  0  0  0  0
 15 29  2  0  0  0  0
 15 30  1  0  0  0  0
 16 32  1  0  0  0  0
 17 32  1  0  0  0  0
 17 33  2  0  0  0  0
 17 34  1  0  0  0  0
 18 20  2  0  0  0  0
 18 39  1  0  0  0  0
 19 21  2  0  0  0  0
 19 40  1  0  0  0  0
 20 48  1  0  0  0  0
 21 41  1  0  0  0  0
 22 23  2  0  0  0  0
 22 58  1  0  0  0  0
 23 28  1  0  0  0  0
 23 51  1  0  0  0  0
 24 28  2  0  0  0  0
 24 31  1  0  0  0  0
 24 68  1  0  0  0  0
 25 77  1  0  0  0  0
 26 79  1  0  0  0  0
 27 30  2  0  0  0  0
 27 77  1  0  0  0  0
 28 78  1  0  0  0  0
 29 80  1  0  0  0  0
 30 81  1  0  0  0  0
 31 82  1  0  0  0  0
 32 62  2  0  0  0  0
 33 63  1  0  0  0  0
 33 66  1  0  0  0  0
 34 67  1  0  0  0  0
 34 72  2  0  0  0  0
 35 49  1  0  0  0  0
 35 69  1  0  0  0  0
 35 73  2  0  0  0  0
 36 59  1  0  0  0  0
 36 64  1  0  0  0  0
 36 74  2  0  0  0  0
 37 60  1  0  0  0  0
 37 70  1  0  0  0  0
 37 75  2  0  0  0  0
 38 65  1  0  0  0  0
 38 68  1  0  0  0  0
 38 76  2  0  0  0  0
 39 42  1  0  0  0  0
 40 49  1  0  0  0  0
 41 64  1  0  0  0  0
 42 44  1  0  0  0  0
 43 45  1  0  0  0  0
 43 46  1  0  0  0  0
 44 48  1  0  0  0  0
 45 50  1  0  0  0  0
 46 65  1  0  0  0  0
 47 50  1  0  0  0  0
 47 65  1  0  0  0  0
 48 69  1  0  0  0  0
 49 64  1  0  0  0  0
 50 63  1  0  0  0  0
 52 60  1  0  0  0  0
 53 61  1  0  0  0  0
 54 61  1  0  0  0  0
 55 61  1  0  0  0  0
 56 71  1  0  0  0  0
 57 78  1  0  0  0  0
 58 79  1  0  0  0  0
 59 61  1  0  0  0  0
 59 70  1  0  0  0  0
 60 71  1  0  0  0  0
 62 63  1  0  0  0  0
M  CHG  1  71   1
M  ISO  4  38 100  58 101  68 100  79 101
M  END
> <Batch ID>
0019

> <Smiles>
CNC(C)C(=O)NC(C(=O)N1Cc2cc([101O:1][101CH2:1]c3cc(Cl)c([100NH:0][100C:0](=O)N4CCCC(n5nc(-c6ccc(Oc7ccc(F)cc7F)cc6)c(C(N)=O)c5N)C4)c(OC)c3C)ccc2CC1C(=O)NC1CCCc2ccccc21)C(C)(C)C

> <Shape>
0.192

> <Color>
0.205

> <Negative vol penalty>
0.000

$$$$

  -OEChem-04052316073D

 83 91  0     1  0  0  0  0  0999 V2000
  -26.8639  -37.7263   24.6880 C   0  0  0  0  0  0  0  0  0  0  0  0
  -27.5416  -36.9472   23.7558 C   0  0  0  0  0  0  0  0  0  0  0  0
  -24.9875  -13.8656   21.6586 C   0  0  0  0  0  0  0  0  0  0  0  0
  -26.2037  -13.1651   19.6921 C   0  0  0  0  0  0  0  0  0  0  0  0
  -26.0552  -37.1180   25.6471 C   0  0  0  0  0  0  0  0  0  0  0  0
  -27.4119  -35.5591   23.7829 C   0  0  0  0  0  0  0  0  0  0  0  0
  -27.3003  -29.8762   19.4229 C   0  0  0  0  0  0  0  0  0  0  0  0
  -24.4229  -12.5943   21.7623 C   0  0  0  0  0  0  0  0  0  0  0  0
  -25.6392  -11.8938   19.7959 C   0  0  0  0  0  0  0  0  0  0  0  0
  -27.9076  -28.6319   19.2596 C   0  0  0  0  0  0  0  0  0  0  0  0
  -25.3520   -9.5394   22.8747 C   0  0  0  0  0  0  0  0  0  0  0  0
  -25.3186   -8.9460   24.1366 C   0  0  0  0  0  0  0  0  0  0  0  0
  -26.4204  -27.6959   20.9124 C   0  0  0  0  0  0  0  0  0  0  0  0
  -30.8091  -22.9126   18.9228 C   0  0  0  0  0  0  0  0  0  0  0  0
  -22.9082   -8.8318   24.0191 C   0  0  0  0  0  0  0  0  0  0  0  0
  -25.8778  -14.1510   20.6234 C   0  0  0  0  0  0  0  0  0  0  0  0
  -27.6616  -15.9118   21.0983 C   0  0  0  0  0  0  0  0  0  0  0  0
  -25.9079  -35.7224   25.6799 C   0  0  0  0  0  0  0  0  0  0  0  0
  -26.2540  -30.0425   20.3417 C   0  0  0  0  0  0  0  0  0  0  0  0
  -26.6016  -34.9314   24.7442 C   0  0  0  0  0  0  0  0  0  0  0  0
  -25.7999  -28.9428   21.0836 C   0  0  0  0  0  0  0  0  0  0  0  0
  -30.8739  -24.3144   19.1172 C   0  0  0  0  0  0  0  0  0  0  0  0
  -24.7488  -11.6084   20.8310 C   0  0  0  0  0  0  0  0  0  0  0  0
  -27.4696  -27.5422   20.0064 C   0  0  0  0  0  0  0  0  0  0  0  0
  -24.1635   -9.7792   22.1851 C   0  0  0  0  0  0  0  0  0  0  0  0
  -24.0968   -8.5921   24.7088 C   0  0  0  0  0  0  0  0  0  0  0  0
  -22.9416   -9.4253   22.7573 C   0  0  0  0  0  0  0  0  0  0  0  0
  -26.4609  -15.4642   20.5154 C   0  0  0  0  0  0  0  0  0  0  0  0
  -29.5195  -22.6088   18.5461 C   0  0  0  0  0  0  0  0  0  0  0  0
  -29.6219  -24.8246   18.8535 C   0  0  0  0  0  0  0  0  0  0  0  0
  -27.7703  -17.2212   20.6981 C   0  0  0  0  0  0  0  0  0  0  0  0
  -28.5952  -15.2069   21.9274 C   0  0  0  0  0  0  0  0  0  0  0  0
  -25.8279  -31.7872   22.9643 C   0  0  0  0  0  0  0  0  0  0  0  0
  -22.8090  -30.6141   22.7836 C   0  0  0  0  0  0  0  0  0  0  0  0
  -20.7170  -28.1576   21.6718 C   0  0  0  0  0  0  0  0  0  0  0  0
  -27.4253  -20.8219   16.3126 C   0  0  0  0  0  0  0  0  0  0  0  0
  -25.0601  -35.1072   26.7650 C   0  0  0  0  0  0  0  0  0  0  0  0
  -25.5917  -31.3852   20.4867 C   0  0  0  0  0  0  0  0  0  0  0  0
  -24.6667  -29.0640   22.0684 C   0  0  0  0  0  0  0  0  0  0  0  0
  -24.6800  -33.6544   26.4910 C   0  0  0  0  0  0  0  0  0  0  0  0
  -24.4464  -20.2797   18.4418 C   0  0  0  0  0  0  0  0  0  0  0  0
  -25.8998  -32.8605   26.0343 C   0  0  0  0  0  0  0  0  0  0  0  0
  -24.7841  -18.9750   19.1611 C   0  0  0  0  0  0  0  0  0  0  0  0
  -25.1232  -20.3667   17.0772 C   0  0  0  0  0  0  0  0  0  0  0  0
  -26.9359  -18.8692   17.8425 C   0  0  0  0  0  0  0  0  0  0  0  0
  -26.4667  -33.4242   24.7258 C   0  0  1  0  0  0  0  0  0  0  0  0
  -24.8772  -31.5577   21.8236 C   0  0  1  0  0  0  0  0  0  0  0  0
  -26.3070  -18.7705   19.2404 C   0  0  2  0  0  0  0  0  0  0  0  0
  -32.0681  -25.0802   19.5265 C   0  0  0  0  0  0  0  0  0  0  0  0
  -18.3088  -27.4532   21.7128 C   0  0  0  0  0  0  0  0  0  0  0  0
  -30.1304  -19.5110   15.5884 C   0  0  0  0  0  0  0  0  0  0  0  0
  -29.8895  -21.8817   14.7849 C   0  0  0  0  0  0  0  0  0  0  0  0
  -23.1358  -29.6735   25.6677 C   0  0  0  0  0  0  0  0  0  0  0  0
  -21.1455  -28.1911   25.3363 C   0  0  0  0  0  0  0  0  0  0  0  0
  -20.9015  -30.6660   25.1409 C   0  0  0  0  0  0  0  0  0  0  0  0
  -27.4069  -23.8916   18.1552 C   0  0  0  0  0  0  0  0  0  0  0  0
  -20.5009  -28.3129   18.7242 C   0  0  0  0  0  0  0  0  0  0  0  0
  -28.9114  -21.3023   18.2205 C   0  0  0  0  0  0  0  0  0  0  0  0
  -29.1246  -26.2394   18.9021 C   0  0  0  0  0  0  0  0  0  1  0  0
  -22.1034  -29.3913   23.3181 C   0  0  1  0  0  0  0  0  0  0  0  0
  -19.3805  -28.2210   20.9546 C   0  0  2  0  0  0  0  0  0  0  0  0
  -29.9323  -20.9644   16.0003 C   0  0  0  0  0  0  0  0  0  0  0  0
  -21.8442  -29.4783   24.8487 C   0  0  0  0  0  0  0  0  0  0  0  0
  -25.8505  -16.4123   19.7995 N   0  0  0  0  0  0  0  0  0  0  0  0
  -28.8067  -23.7787   18.5076 N   0  0  0  0  0  0  0  0  0  0  0  0
  -26.6708  -17.4687   19.9300 N   0  0  0  0  0  0  0  0  0  0  0  0
  -24.0556  -30.3989   22.1790 N   0  0  0  0  0  0  0  0  0  0  0  0
  -26.5632  -20.1258   17.1757 N   0  0  0  0  0  0  0  0  0  0  0  0
  -28.6982  -18.1734   20.9319 N   0  0  0  0  0  0  0  0  0  0  0  0
  -28.3304  -13.8670   22.2418 N   0  0  0  0  0  0  0  0  0  0  0  0
  -25.6592  -33.0016   23.6016 N   0  0  0  0  0  0  0  0  0  0  0  0
  -20.8954  -29.2335   22.5155 N   0  0  0  0  0  0  0  0  0  0  0  0
  -28.7122  -21.1117   16.7909 N   0  0  0  0  0  0  0  0  0  0  0  0
  -19.4979  -27.6385   19.5879 N   0  3  0  0  0  0  0  0  0  0  0  0
  -29.6251  -15.7541   22.3895 O   0  0  0  0  0  0  0  0  0  0  0  0
  -26.6523  -30.9256   23.2464 O   0  0  0  0  0  0  0  0  0  0  0  0
  -22.2706  -31.7187   22.8918 O   0  0  0  0  0  0  0  0  0  0  0  0
  -21.5207  -27.2432   21.5033 O   0  0  0  0  0  0  0  0  0  0  0  0
  -27.0622  -21.1731   15.1827 O   0  0  0  0  0  0  0  0  0  0  0  0
  -24.1983  -10.3677   20.9321 O   0  0  0  0  0  0  0  0  0  0  0  0
  -28.0610  -26.3267   19.8494 O   0  0  0  0  0  0  0  0  0  1  0  0
  -24.0650   -8.0208   25.9199 F   0  0  0  0  0  0  0  0  0  0  0  0
  -21.7965   -9.6520   22.0990 F   0  0  0  0  0  0  0  0  0  0  0  0
  1  2  1  0  0  0  0
  1  5  2  0  0  0  0
  2  6  2  0  0  0  0
  3  8  2  0  0  0  0
  3 16  1  0  0  0  0
  4  9  1  0  0  0  0
  4 16  2  0  0  0  0
  5 18  1  0  0  0  0
  6 20  1  0  0  0  0
  7 10  2  0  0  0  0
  7 19  1  0  0  0  0
  8 23  1  0  0  0  0
  9 23  2  0  0  0  0
 10 24  1  0  0  0  0
 11 12  2  0  0  0  0
 11 25  1  0  0  0  0
 12 26  1  0  0  0  0
 13 21  1  0  0  0  0
 13 24  2  0  0  0  0
 14 22  1  0  0  0  0
 14 29  2  0  0  0  0
 15 26  2  0  0  0  0
 15 27  1  0  0  0  0
 16 28  1  0  0  0  0
 17 28  1  0  0  0  0
 17 31  2  0  0  0  0
 17 32  1  0  0  0  0
 18 20  2  0  0  0  0
 18 37  1  0  0  0  0
 19 21  2  0  0  0  0
 19 38  1  0  0  0  0
 20 46  1  0  0  0  0
 21 39  1  0  0  0  0
 22 30  2  0  0  0  0
 22 49  1  0  0  0  0
 23 80  1  0  0  0  0
 24 81  1  0  0  0  0
 25 27  2  0  0  0  0
 25 80  1  0  0  0  0
 26 82  1  0  0  0  0
 27 83  1  0  0  0  0
 28 64  2  0  0  0  0
 29 58  1  0  0  0  0
 29 65  1  0  0  0  0
 30 59  1  0  0  0  0
 30 65  1  0  0  0  0
 31 66  1  0  0  0  0
 31 69  1  0  0  0  0
 32 70  1  0  0  0  0
 32 75  2  0  0  0  0
 33 47  1  0  0  0  0
 33 71  1  0  0  0  0
 33 76  2  0  0  0  0
 34 60  1  0  0  0  0
 34 67  1  0  0  0  0
 34 77  2  0  0  0  0
 35 61  1  0  0  0  0
 35 72  1  0  0  0  0
 35 78  2  0  0  0  0
 36 68  1  0  0  0  0
 36 73  1  0  0  0  0
 36 79  2  0  0  0  0
 37 40  1  0  0  0  0
 38 47  1  0  0  0  0
 39 67  1  0  0  0  0
 40 42  1  0  0  0  0
 41 43  1  0  0  0  0
 41 44  1  0  0  0  0
 42 46  1  0  0  0  0
 43 48  1  0  0  0  0
 44 68  1  0  0  0  0
 45 48  1  0  0  0  0
 45 68  1  0  0  0  0
 46 71  1  0  0  0  0
 47 67  1  0  0  0  0
 48 66  1  0  0  0  0
 50 61  1  0  0  0  0
 51 62  1  0  0  0  0
 52 62  1  0  0  0  0
 53 63  1  0  0  0  0
 54 63  1  0  0  0  0
 55 63  1  0  0  0  0
 56 65  1  0  0  0  0
 57 74  1  0  0  0  0
 58 73  1  0  0  0  0
 59 81  1  0  0  0  0
 60 63  1  0  0  0  0
 60 72  1  0  0  0  0
 61 74  1  0  0  0  0
 62 73  1  0  0  0  0
 64 66  1  0  0  0  0
M  CHG  1  74   1
M  ISO  4  36 100  59 101  73 100  81 101
M  END
> <Batch ID>
0019

> <Smiles>
CNC(C)C(=O)NC(C(=O)N1Cc2cc([101O:1][101CH2:1]c3c(C)cc(C[100N:0](C(C)C)[100C:0](=O)N4CCCC(n5nc(-c6ccc(Oc7ccc(F)cc7F)cc6)c(C(N)=O)c5N)C4)n3C)ccc2CC1C(=O)NC1CCCc2ccccc21)C(C)(C)C

> <Shape>
0.289

> <Color>
0.081

> <Negative vol penalty>
0.000

$$$$

  -OEChem-04052316073D

 77 84  0     1  0  0  0  0  0999 V2000
  -26.5111  -21.9259   18.2538 C   0  0  0  0  0  0  0  0  0  0  0  0
  -25.5812  -21.6512   17.5450 C   0  0  0  0  0  0  0  0  0  0  0  0
  -16.8725  -29.3479   24.2202 C   0  0  0  0  0  0  0  0  0  0  0  0
  -17.2444  -28.3958   23.2765 C   0  0  0  0  0  0  0  0  0  0  0  0
  -24.9489  -14.9316   20.6297 C   0  0  0  0  0  0  0  0  0  0  0  0
  -26.5270  -14.5148   22.4110 C   0  0  0  0  0  0  0  0  0  0  0  0
  -17.6337  -30.5053   24.3784 C   0  0  0  0  0  0  0  0  0  0  0  0
  -18.3772  -28.6011   22.4896 C   0  0  0  0  0  0  0  0  0  0  0  0
  -22.2797  -24.3350   20.4705 C   0  0  0  0  0  0  0  0  0  0  0  0
  -25.0531  -13.6005   20.2259 C   0  0  0  0  0  0  0  0  0  0  0  0
  -26.6311  -13.1837   22.0073 C   0  0  0  0  0  0  0  0  0  0  0  0
  -22.3965  -23.6736   19.2488 C   0  0  0  0  0  0  0  0  0  0  0  0
  -27.0383   -9.5868   21.6683 C   0  0  0  0  0  0  0  0  0  0  0  0
  -27.0003   -8.6036   22.6570 C   0  0  0  0  0  0  0  0  0  0  0  0
  -24.0650  -25.2701   18.5510 C   0  0  0  0  0  0  0  0  0  0  0  0
  -24.7997   -9.3516   23.3164 C   0  0  0  0  0  0  0  0  0  0  0  0
  -25.6860  -15.3887   21.7222 C   0  0  0  0  0  0  0  0  0  0  0  0
  -24.6706  -17.3016   23.0704 C   0  0  0  0  0  0  0  0  0  0  0  0
  -18.7818  -30.7204   23.5998 C   0  0  0  0  0  0  0  0  0  0  0  0
  -23.0480  -25.4772   20.7379 C   0  0  0  0  0  0  0  0  0  0  0  0
  -19.1536  -29.7631   22.6366 C   0  0  0  0  0  0  0  0  0  0  0  0
  -23.9579  -25.9426   19.7779 C   0  0  0  0  0  0  0  0  0  0  0  0
  -25.8941  -12.7265   20.9147 C   0  0  0  0  0  0  0  0  0  0  0  0
  -23.2872  -24.1428   18.2877 C   0  0  0  0  0  0  0  0  0  0  0  0
  -25.9570  -10.4525   21.5037 C   0  0  0  0  0  0  0  0  0  0  0  0
  -25.8810   -8.4860   23.4810 C   0  0  0  0  0  0  0  0  0  0  0  0
  -24.8377  -10.3349   22.3277 C   0  0  0  0  0  0  0  0  0  0  0  0
  -25.5793  -16.7638   22.1393 C   0  0  0  0  0  0  0  0  0  0  0  0
  -24.9758  -18.6400   23.1143 C   0  0  0  0  0  0  0  0  0  0  0  0
  -27.6297  -22.2575   19.1082 C   0  0  0  0  0  0  0  0  0  0  0  0
  -23.6426  -16.6496   23.8279 C   0  0  0  0  0  0  0  0  0  0  0  0
  -22.3942  -28.5240   21.3654 C   0  0  0  0  0  0  0  0  0  0  0  0
  -25.5957  -28.7050   21.8552 C   0  0  0  0  0  0  0  0  0  0  0  0
  -28.6987  -27.4279   21.2327 C   0  0  0  0  0  0  0  0  0  0  0  0
  -19.5460  -32.0089   23.7739 C   0  0  0  0  0  0  0  0  0  0  0  0
  -22.9296  -26.1636   22.0711 C   0  0  0  0  0  0  0  0  0  0  0  0
  -24.8203  -27.1527   20.0237 C   0  0  0  0  0  0  0  0  0  0  0  0
  -20.9438  -31.9755   23.1612 C   0  0  0  0  0  0  0  0  0  0  0  0
  -28.6069  -21.6852   22.5226 C   0  0  0  0  0  0  0  0  0  0  0  0
  -20.8965  -31.3852   21.7554 C   0  0  0  0  0  0  0  0  0  0  0  0
  -27.8872  -20.3856   22.8813 C   0  0  0  0  0  0  0  0  0  0  0  0
  -29.0448  -21.6964   21.0615 C   0  0  0  0  0  0  0  0  0  0  0  0
  -27.2045  -20.1499   20.4518 C   0  0  0  0  0  0  0  0  0  0  0  0
  -20.3898  -29.9382   21.7814 C   0  0  1  0  0  0  0  0  0  0  0  0
  -23.3876  -27.6184   22.0368 C   0  0  1  0  0  0  0  0  0  0  0  0
  -26.7225  -20.1139   21.9126 C   0  0  1  0  0  0  0  0  0  0  0  0
  -31.1855  -27.1531   21.4270 C   0  0  0  0  0  0  0  0  0  0  0  0
  -21.9121  -21.8334   16.2374 C   0  0  0  0  0  0  0  0  0  0  0  0
  -24.8127  -21.6283   15.2114 C   0  0  0  0  0  0  0  0  0  0  0  0
  -24.1727  -19.7932   16.7831 C   0  0  0  0  0  0  0  0  0  0  0  0
  -25.6421  -31.0220   19.8705 C   0  0  0  0  0  0  0  0  0  0  0  0
  -28.1232  -30.7340   19.6989 C   0  0  0  0  0  0  0  0  0  0  0  0
  -27.0885  -31.3449   21.8850 C   0  0  0  0  0  0  0  0  0  0  0  0
  -28.4291  -25.5228   23.4814 C   0  0  0  0  0  0  0  0  0  0  0  0
  -26.7951  -28.9997   20.9871 C   0  0  1  0  0  0  0  0  0  0  0  0
  -29.8536  -27.0910   22.1585 C   0  0  2  0  0  0  0  0  0  0  0  0
  -23.1551  -22.0942   17.0870 C   0  0  1  0  0  0  0  0  0  1  0  0
  -24.4334  -21.3092   16.6691 C   0  0  0  0  0  0  0  0  0  0  0  0
  -26.8947  -30.5035   20.6047 C   0  0  0  0  0  0  0  0  0  0  0  0
  -26.4001  -17.6853   21.6285 N   0  0  0  0  0  0  0  0  0  0  0  0
  -26.0083  -18.8157   22.2406 N   0  0  0  0  0  0  0  0  0  0  0  0
  -27.9226  -21.4005   20.1710 N   0  0  0  0  0  0  0  0  0  0  0  0
  -24.6636  -27.7930   21.3401 N   0  0  0  0  0  0  0  0  0  0  0  0
  -24.4590  -19.6720   23.8146 N   0  0  0  0  0  0  0  0  0  0  0  0
  -23.4640  -15.2694   23.6622 N   0  0  0  0  0  0  0  0  0  0  0  0
  -21.4394  -29.0429   22.2188 N   0  0  0  0  0  0  0  0  0  0  0  0
  -27.9560  -28.4882   21.7075 N   0  0  0  0  0  0  0  0  0  0  0  0
  -29.6872  -25.7191   22.7161 N   0  3  0  0  0  0  0  0  0  0  0  0
  -28.2492  -23.2810   18.8351 O   0  0  0  0  0  0  0  0  0  0  0  0
  -22.8935  -17.2753   24.6158 O   0  0  0  0  0  0  0  0  0  0  0  0
  -22.4880  -28.7373   20.1623 O   0  0  0  0  0  0  0  0  0  0  0  0
  -25.4933  -29.2579   22.9531 O   0  0  0  0  0  0  0  0  0  0  0  0
  -28.4796  -26.8145   20.1905 O   0  0  0  0  0  0  0  0  0  0  0  0
  -25.9958  -11.4276   20.5212 O   0  0  0  0  0  0  0  0  0  0  0  0
  -23.4027  -23.4995   17.0941 O   0  0  0  0  0  0  0  0  0  1  0  0
  -25.8441   -7.5408   24.4294 F   0  0  0  0  0  0  0  0  0  0  0  0
  -23.7953  -11.1628   22.1736 F   0  0  0  0  0  0  0  0  0  0  0  0
  1  2  3  0  0  0  0
  1 30  1  0  0  0  0
  2 58  1  0  0  0  0
  3  4  1  0  0  0  0
  3  7  2  0  0  0  0
  4  8  2  0  0  0  0
  5 10  2  0  0  0  0
  5 17  1  0  0  0  0
  6 11  1  0  0  0  0
  6 17  2  0  0  0  0
  7 19  1  0  0  0  0
  8 21  1  0  0  0  0
  9 12  2  0  0  0  0
  9 20  1  0  0  0  0
 10 23  1  0  0  0  0
 11 23  2  0  0  0  0
 12 24  1  0  0  0  0
 13 14  2  0  0  0  0
 13 25  1  0  0  0  0
 14 26  1  0  0  0  0
 15 22  1  0  0  0  0
 15 24  2  0  0  0  0
 16 26  2  0  0  0  0
 16 27  1  0  0  0  0
 17 28  1  0  0  0  0
 18 28  1  0  0  0  0
 18 29  2  0  0  0  0
 18 31  1  0  0  0  0
 19 21  2  0  0  0  0
 19 35  1  0  0  0  0
 20 22  2  0  0  0  0
 20 36  1  0  0  0  0
 21 44  1  0  0  0  0
 22 37  1  0  0  0  0
 23 74  1  0  0  0  0
 24 75  1  0  0  0  0
 25 27  2  0  0  0  0
 25 74  1  0  0  0  0
 26 76  1  0  0  0  0
 27 77  1  0  0  0  0
 28 60  2  0  0  0  0
 29 61  1  0  0  0  0
 29 64  1  0  0  0  0
 30 62  1  0  0  0  0
 30 69  2  0  0  0  0
 31 65  1  0  0  0  0
 31 70  2  0  0  0  0
 32 45  1  0  0  0  0
 32 66  1  0  0  0  0
 32 71  2  0  0  0  0
 33 55  1  0  0  0  0
 33 63  1  0  0  0  0
 33 72  2  0  0  0  0
 34 56  1  0  0  0  0
 34 67  1  0  0  0  0
 34 73  2  0  0  0  0
 35 38  1  0  0  0  0
 36 45  1  0  0  0  0
 37 63  1  0  0  0  0
 38 40  1  0  0  0  0
 39 41  1  0  0  0  0
 39 42  1  0  0  0  0
 40 44  1  0  0  0  0
 41 46  1  0  0  0  0
 42 62  1  0  0  0  0
 43 46  1  0  0  0  0
 43 62  1  0  0  0  0
 44 66  1  0  0  0  0
 45 63  1  0  0  0  0
 46 61  1  0  0  0  0
 47 56  1  0  0  0  0
 48 57  1  0  0  0  0
 49 58  1  0  0  0  0
 50 58  1  0  0  0  0
 51 59  1  0  0  0  0
 52 59  1  0  0  0  0
 53 59  1  0  0  0  0
 54 68  1  0  0  0  0
 55 59  1  0  0  0  0
 55 67  1  0  0  0  0
 56 68  1  0  0  0  0
 57 58  1  0  0  0  0
 57 75  1  0  0  0  0
 60 61  1  0  0  0  0
M  CHG  1  68   1
M  ISO  4   1 100  30 100  57 101  75 101
M  END
> <Batch ID>
0019

> <Smiles>
CNC(C)C(=O)NC(C(=O)N1Cc2cc([101O:1][101CH:1](C)C(C)(C)C#[100C:0][100C:0](=O)N3CCCC(n4nc(-c5ccc(Oc6ccc(F)cc6F)cc5)c(C(N)=O)c4N)C3)ccc2CC1C(=O)NC1CCCc2ccccc21)C(C)(C)C

> <Shape>
0.185

> <Color>
0.089

> <Negative vol penalty>
0.000

$$$$

  -OEChem-04052316073D

 85 93  0     1  0  0  0  0  0999 V2000
  -17.8128  -33.1313   22.4305 C   0  0  0  0  0  0  0  0  0  0  0  0
  -19.1409  -33.0627   22.8391 C   0  0  0  0  0  0  0  0  0  0  0  0
  -24.1439   -9.0059   19.9931 C   0  0  0  0  0  0  0  0  0  0  0  0
  -23.0100  -10.6257   21.3813 C   0  0  0  0  0  0  0  0  0  0  0  0
  -17.0135  -31.9895   22.4672 C   0  0  0  0  0  0  0  0  0  0  0  0
  -19.6702  -31.8524   23.2855 C   0  0  0  0  0  0  0  0  0  0  0  0
  -25.3717  -28.8766   20.0407 C   0  0  0  0  0  0  0  0  0  0  0  0
  -23.3993   -7.9823   20.5791 C   0  0  0  0  0  0  0  0  0  0  0  0
  -22.2653   -9.6022   21.9674 C   0  0  0  0  0  0  0  0  0  0  0  0
  -26.5881  -28.3494   19.6062 C   0  0  0  0  0  0  0  0  0  0  0  0
  -19.8092   -7.4559   23.5734 C   0  0  0  0  0  0  0  0  0  0  0  0
  -18.4391   -7.6608   23.7358 C   0  0  0  0  0  0  0  0  0  0  0  0
  -26.3392  -26.4897   21.1318 C   0  0  0  0  0  0  0  0  0  0  0  0
  -27.3759  -20.9518   19.4836 C   0  0  0  0  0  0  0  0  0  0  0  0
  -18.1958   -7.9267   21.3468 C   0  0  0  0  0  0  0  0  0  0  0  0
  -23.9493  -10.3276   20.3942 C   0  0  0  0  0  0  0  0  0  0  0  0
  -24.3836  -12.1325   18.6445 C   0  0  0  0  0  0  0  0  0  0  0  0
  -17.5360  -30.7624   22.9052 C   0  0  0  0  0  0  0  0  0  0  0  0
  -24.6261  -28.2034   21.0124 C   0  0  0  0  0  0  0  0  0  0  0  0
  -18.8768  -30.6933   23.3293 C   0  0  0  0  0  0  0  0  0  0  0  0
  -25.1141  -27.0064   21.5619 C   0  0  0  0  0  0  0  0  0  0  0  0
  -28.3391  -21.3149   18.5424 C   0  0  0  0  0  0  0  0  0  0  0  0
  -27.3044  -19.6342   19.9358 C   0  0  0  0  0  0  0  0  0  0  0  0
  -29.2308  -20.3604   18.0531 C   0  0  0  0  0  0  0  0  0  0  0  0
  -29.1593  -19.0427   18.5052 C   0  0  0  0  0  0  0  0  0  0  0  0
  -28.1961  -18.6796   19.4465 C   0  0  0  0  0  0  0  0  0  0  0  0
  -22.4600   -8.2805   21.5662 C   0  0  0  0  0  0  0  0  0  0  0  0
  -27.0707  -27.1591   20.1506 C   0  0  0  0  0  0  0  0  0  0  0  0
  -20.3727   -7.4864   22.2978 C   0  0  0  0  0  0  0  0  0  0  0  0
  -17.6324   -7.8962   22.6225 C   0  0  0  0  0  0  0  0  0  0  0  0
  -19.5660   -7.7218   21.1845 C   0  0  0  0  0  0  0  0  0  0  0  0
  -24.7186  -11.3853   19.7896 C   0  0  0  0  0  0  0  0  0  0  0  0
  -25.4323  -13.0048   18.4847 C   0  0  0  0  0  0  0  0  0  0  0  0
  -23.2276  -12.0458   17.8007 C   0  0  0  0  0  0  0  0  0  0  0  0
  -21.5122  -28.1133   23.1031 C   0  0  0  0  0  0  0  0  0  0  0  0
  -22.0469  -25.2382   22.1767 C   0  0  0  0  0  0  0  0  0  0  0  0
  -22.7499  -22.2941   20.6035 C   0  0  0  0  0  0  0  0  0  0  0  0
  -29.1208  -16.6203   20.5648 C   0  0  0  0  0  0  0  0  0  0  0  0
  -16.6203  -29.5658   22.9718 C   0  0  0  0  0  0  0  0  0  0  0  0
  -23.3404  -28.7662   21.5546 C   0  0  0  0  0  0  0  0  0  0  0  0
  -24.2948  -26.3347   22.6298 C   0  0  0  0  0  0  0  0  0  0  0  0
  -17.3617  -28.2380   23.1040 C   0  0  0  0  0  0  0  0  0  0  0  0
  -29.9579  -13.1644   20.7465 C   0  0  0  0  0  0  0  0  0  0  0  0
  -18.4475  -28.3368   24.1708 C   0  0  0  0  0  0  0  0  0  0  0  0
  -28.6419  -12.4549   20.4196 C   0  0  0  0  0  0  0  0  0  0  0  0
  -29.7301  -14.4309   21.5698 C   0  0  0  0  0  0  0  0  0  0  0  0
  -27.4489  -14.6687   20.6707 C   0  0  0  0  0  0  0  0  0  0  0  0
  -19.4942  -29.3931   23.7965 C   0  0  1  0  0  0  0  0  0  0  0  0
  -22.3075  -27.6807   21.9066 C   0  0  1  0  0  0  0  0  0  0  0  0
  -27.6221  -13.4223   19.7873 C   0  0  2  0  0  0  0  0  0  0  0  0
  -26.2623  -19.2763   20.9455 C   0  0  0  0  0  0  0  0  0  0  0  0
  -30.2625  -20.7532   17.0436 C   0  0  0  0  0  0  0  0  0  0  0  0
  -30.1185  -18.0221   17.9768 C   0  0  0  0  0  0  0  0  0  0  0  0
  -21.9439  -19.9260   20.4037 C   0  0  0  0  0  0  0  0  0  0  0  0
  -30.7394  -25.4152   18.8393 C   0  0  0  0  0  0  0  0  0  0  0  0
  -23.2456  -24.6036   24.9088 C   0  0  0  0  0  0  0  0  0  0  0  0
  -23.2813  -22.1877   24.2531 C   0  0  0  0  0  0  0  0  0  0  0  0
  -21.1095  -23.4056   24.4027 C   0  0  0  0  0  0  0  0  0  0  0  0
  -22.2481  -22.5872   17.7016 C   0  0  0  0  0  0  0  0  0  0  0  0
  -28.3954  -22.7393   18.0738 C   0  0  0  0  0  0  0  0  0  0  0  0
  -28.4045  -25.2289   19.7594 C   0  0  0  0  0  0  0  0  0  1  0  0
  -22.6821  -23.9066   22.4875 C   0  0  1  0  0  0  0  0  0  0  0  0
  -21.8697  -21.3313   19.8272 C   0  0  2  0  0  0  0  0  0  0  0  0
  -29.3614  -24.8018   18.6533 C   0  0  2  0  0  0  0  0  0  0  0  0
  -22.5930  -23.5454   23.9972 C   0  0  0  0  0  0  0  0  0  0  0  0
  -25.8888  -11.7509   20.3197 N   0  0  0  0  0  0  0  0  0  0  0  0
  -26.2983  -12.7373   19.5040 N   0  0  0  0  0  0  0  0  0  0  0  0
  -22.8699  -26.3676   22.2649 N   0  0  0  0  0  0  0  0  0  0  0  0
  -28.7560  -15.3011   20.9074 N   0  0  0  0  0  0  0  0  0  0  0  0
  -25.6892  -13.9669   17.5732 N   0  0  0  0  0  0  0  0  0  0  0  0
  -22.2459  -11.0939   18.1081 N   0  0  0  0  0  0  0  0  0  0  0  0
  -28.1237  -17.3426   19.9099 N   0  0  0  0  0  0  0  0  0  0  0  0
  -20.4004  -28.8739   22.7947 N   0  0  0  0  0  0  0  0  0  0  0  0
  -22.0484  -22.9354   21.6023 N   0  0  0  0  0  0  0  0  0  0  0  0
  -22.2948  -21.2768   18.3998 N   0  3  0  0  0  0  0  0  0  0  0  0
  -23.0778  -12.7792   16.7941 O   0  0  0  0  0  0  0  0  0  0  0  0
  -21.8783  -27.7809   24.2243 O   0  0  0  0  0  0  0  0  0  0  0  0
  -20.8523  -25.2795   21.8694 O   0  0  0  0  0  0  0  0  0  0  0  0
  -23.9417  -22.4579   20.3516 O   0  0  0  0  0  0  0  0  0  0  0  0
  -30.2448  -17.0669   20.8082 O   0  0  0  0  0  0  0  0  0  0  0  0
  -21.7330   -7.2820   22.1382 O   0  0  0  0  0  0  0  0  0  0  0  0
  -28.2567  -26.6477   19.7187 O   0  0  0  0  0  0  0  0  0  1  0  0
  -29.5061  -23.3825   18.6794 O   0  0  0  0  0  0  0  0  0  0  0  0
  -16.3165   -8.0915   22.7784 F   0  0  0  0  0  0  0  0  0  0  0  0
  -20.1014   -7.7511   19.9563 F   0  0  0  0  0  0  0  0  0  0  0  0
  1  2  1  0  0  0  0
  1  5  2  0  0  0  0
  2  6  2  0  0  0  0
  3  8  2  0  0  0  0
  3 16  1  0  0  0  0
  4  9  1  0  0  0  0
  4 16  2  0  0  0  0
  5 18  1  0  0  0  0
  6 20  1  0  0  0  0
  7 10  2  0  0  0  0
  7 19  1  0  0  0  0
  8 27  1  0  0  0  0
  9 27  2  0  0  0  0
 10 28  1  0  0  0  0
 11 12  2  0  0  0  0
 11 29  1  0  0  0  0
 12 30  1  0  0  0  0
 13 21  1  0  0  0  0
 13 28  2  0  0  0  0
 14 22  1  0  0  0  0
 14 23  2  0  0  0  0
 15 30  2  0  0  0  0
 15 31  1  0  0  0  0
 16 32  1  0  0  0  0
 17 32  1  0  0  0  0
 17 33  2  0  0  0  0
 17 34  1  0  0  0  0
 18 20  2  0  0  0  0
 18 39  1  0  0  0  0
 19 21  2  0  0  0  0
 19 40  1  0  0  0  0
 20 48  1  0  0  0  0
 21 41  1  0  0  0  0
 22 24  2  0  0  0  0
 22 60  1  0  0  0  0
 23 26  1  0  0  0  0
 23 51  1  0  0  0  0
 24 25  1  0  0  0  0
 24 52  1  0  0  0  0
 25 26  2  0  0  0  0
 25 53  1  0  0  0  0
 26 72  1  0  0  0  0
 27 81  1  0  0  0  0
 28 82  1  0  0  0  0
 29 31  2  0  0  0  0
 29 81  1  0  0  0  0
 30 84  1  0  0  0  0
 31 85  1  0  0  0  0
 32 66  2  0  0  0  0
 33 67  1  0  0  0  0
 33 70  1  0  0  0  0
 34 71  1  0  0  0  0
 34 76  2  0  0  0  0
 35 49  1  0  0  0  0
 35 73  1  0  0  0  0
 35 77  2  0  0  0  0
 36 62  1  0  0  0  0
 36 68  1  0  0  0  0
 36 78  2  0  0  0  0
 37 63  1  0  0  0  0
 37 74  1  0  0  0  0
 37 79  2  0  0  0  0
 38 69  1  0  0  0  0
 38 72  1  0  0  0  0
 38 80  2  0  0  0  0
 39 42  1  0  0  0  0
 40 49  1  0  0  0  0
 41 68  1  0  0  0  0
 42 44  1  0  0  0  0
 43 45  1  0  0  0  0
 43 46  1  0  0  0  0
 44 48  1  0  0  0  0
 45 50  1  0  0  0  0
 46 69  1  0  0  0  0
 47 50  1  0  0  0  0
 47 69  1  0  0  0  0
 48 73  1  0  0  0  0
 49 68  1  0  0  0  0
 50 67  1  0  0  0  0
 54 63  1  0  0  0  0
 55 64  1  0  0  0  0
 56 65  1  0  0  0  0
 57 65  1  0  0  0  0
 58 65  1  0  0  0  0
 59 75  1  0  0  0  0
 60 83  1  0  0  0  0
 61 64  1  0  0  0  0
 61 82  1  0  0  0  0
 62 65  1  0  0  0  0
 62 74  1  0  0  0  0
 63 75  1  0  0  0  0
 64 83  1  0  0  0  0
 66 67  1  0  0  0  0
M  CHG  1  75   1
M  ISO  4  38 100  61 101  72 100  82 101
M  END
> <Batch ID>
0019

> <Smiles>
CNC(C)C(=O)NC(C(=O)N1Cc2cc([101O:1][101CH2:1]C(C)OCc3cc(C)c([100NH:0][100C:0](=O)N4CCCC(n5nc(-c6ccc(Oc7ccc(F)cc7F)cc6)c(C(N)=O)c5N)C4)c(C)c3C)ccc2CC1C(=O)NC1CCCc2ccccc21)C(C)(C)C

> <Shape>
0.246

> <Color>
0.128

> <Negative vol penalty>
0.000

$$$$

  -OEChem-04052316073D

 90 98  0     1  0  0  0  0  0999 V2000
  -28.1169  -24.3832   17.2244 C   0  0  0  0  0  0  0  0  0  0  0  0
  -26.9070  -24.6642   17.8510 C   0  0  0  0  0  0  0  0  0  0  0  0
  -26.2448  -11.2354   17.8330 C   0  0  0  0  0  0  0  0  0  0  0  0
  -27.2084  -11.1977   20.0482 C   0  0  0  0  0  0  0  0  0  0  0  0
  -29.3095  -24.8570   17.7696 C   0  0  0  0  0  0  0  0  0  0  0  0
  -26.8891  -25.4182   19.0238 C   0  0  0  0  0  0  0  0  0  0  0  0
  -23.2730  -28.9635   18.9989 C   0  0  0  0  0  0  0  0  0  0  0  0
  -27.1467  -10.2531   17.4240 C   0  0  0  0  0  0  0  0  0  0  0  0
  -28.1103  -10.2153   19.6392 C   0  0  0  0  0  0  0  0  0  0  0  0
  -21.9686  -28.5443   19.2570 C   0  0  0  0  0  0  0  0  0  0  0  0
  -31.0004  -10.0588   17.8917 C   0  0  0  0  0  0  0  0  0  0  0  0
  -32.3360  -10.2096   18.2645 C   0  0  0  0  0  0  0  0  0  0  0  0
  -22.1819  -29.3042   21.5366 C   0  0  0  0  0  0  0  0  0  0  0  0
  -24.4529  -23.4801   22.4340 C   0  0  0  0  0  0  0  0  0  0  0  0
  -32.2412   -8.1086   19.4536 C   0  0  0  0  0  0  0  0  0  0  0  0
  -26.2757  -11.7077   19.1451 C   0  0  0  0  0  0  0  0  0  0  0  0
  -24.0654  -12.5256   20.1215 C   0  0  0  0  0  0  0  0  0  0  0  0
  -29.3053  -25.6254   18.9444 C   0  0  0  0  0  0  0  0  0  0  0  0
  -24.0468  -29.5472   20.0124 C   0  0  0  0  0  0  0  0  0  0  0  0
  -28.0828  -25.9016   19.5860 C   0  0  0  0  0  0  0  0  0  0  0  0
  -23.4950  -29.7322   21.2881 C   0  0  0  0  0  0  0  0  0  0  0  0
  -23.3621  -24.1181   21.8436 C   0  0  0  0  0  0  0  0  0  0  0  0
  -24.3969  -22.1136   22.7085 C   0  0  0  0  0  0  0  0  0  0  0  0
  -22.2152  -23.3897   21.5278 C   0  0  0  0  0  0  0  0  0  0  0  0
  -28.0794   -9.7430   18.3270 C   0  0  0  0  0  0  0  0  0  0  0  0
  -21.4239  -28.7120   20.5267 C   0  0  0  0  0  0  0  0  0  0  0  0
  -30.2851   -8.9330   18.2999 C   0  0  0  0  0  0  0  0  0  0  0  0
  -23.2500  -21.3852   22.3927 C   0  0  0  0  0  0  0  0  0  0  0  0
  -32.9564   -9.2345   19.0454 C   0  0  0  0  0  0  0  0  0  0  0  0
  -30.9056   -7.9578   19.0808 C   0  0  0  0  0  0  0  0  0  0  0  0
  -22.1591  -22.0233   21.8023 C   0  0  0  0  0  0  0  0  0  0  0  0
  -25.3447  -12.7228   19.5681 C   0  0  0  0  0  0  0  0  0  0  0  0
  -23.5910  -13.7940   20.3503 C   0  0  0  0  0  0  0  0  0  0  0  0
  -23.3682  -11.3049   20.4035 C   0  0  0  0  0  0  0  0  0  0  0  0
  -26.7684  -28.7945   21.4718 C   0  0  0  0  0  0  0  0  0  0  0  0
  -26.3736  -31.6993   22.8605 C   0  0  0  0  0  0  0  0  0  0  0  0
  -24.2462  -34.1994   23.7935 C   0  0  0  0  0  0  0  0  0  0  0  0
  -26.3636  -18.9101   21.3471 C   0  0  0  0  0  0  0  0  0  0  0  0
  -30.6238  -26.0756   19.5220 C   0  0  0  0  0  0  0  0  0  0  0  0
  -25.4430  -30.0183   19.7107 C   0  0  0  0  0  0  0  0  0  0  0  0
  -24.2770  -30.3718   22.4052 C   0  0  0  0  0  0  0  0  0  0  0  0
  -30.4862  -27.1842   20.5624 C   0  0  0  0  0  0  0  0  0  0  0  0
  -23.9554  -18.2793   18.7202 C   0  0  0  0  0  0  0  0  0  0  0  0
  -29.3758  -26.8511   21.5538 C   0  0  0  0  0  0  0  0  0  0  0  0
  -23.9224  -16.7500   18.6988 C   0  0  0  0  0  0  0  0  0  0  0  0
  -25.3659  -18.7981   18.9839 C   0  0  0  0  0  0  0  0  0  0  0  0
  -25.9607  -16.7449   20.2104 C   0  0  0  0  0  0  0  0  0  0  0  0
  -28.0202  -26.7372   20.8461 C   0  0  1  0  0  0  0  0  0  0  0  0
  -26.3174  -30.1316   20.9556 C   0  0  1  0  0  0  0  0  0  0  0  0
  -24.5578  -16.1579   19.9707 C   0  0  2  0  0  0  0  0  0  0  0  0
  -23.4452  -25.5817   21.5582 C   0  0  0  0  0  0  0  0  0  0  0  0
  -22.6608  -18.1533   24.0193 C   0  0  0  0  0  0  0  0  0  0  0  0
  -24.2114  -36.4297   24.9434 C   0  0  0  0  0  0  0  0  0  0  0  0
  -17.9302  -24.6308   21.1428 C   0  0  0  0  0  0  0  0  0  0  0  0
  -26.6663  -30.3090   25.5607 C   0  0  0  0  0  0  0  0  0  0  0  0
  -25.6948  -32.3494   26.6383 C   0  0  0  0  0  0  0  0  0  0  0  0
  -27.8463  -32.5070   25.3858 C   0  0  0  0  0  0  0  0  0  0  0  0
  -23.2109  -35.5592   21.3773 C   0  0  0  0  0  0  0  0  0  0  0  0
  -25.5740  -21.4469   23.3403 C   0  0  0  0  0  0  0  0  0  0  0  0
  -21.0315  -24.0571   20.8918 C   0  0  0  0  0  0  0  0  0  0  0  0
  -18.7477  -26.8374   22.0610 C   0  0  0  0  0  0  0  0  0  0  0  0
  -26.7111  -21.1502   22.3563 C   0  0  0  0  0  0  0  0  0  0  0  0
  -22.6721  -19.6644   23.9291 C   0  0  0  0  0  0  0  0  0  0  0  0
  -19.8591  -27.8800   22.1127 C   0  0  0  0  0  0  0  0  0  1  0  0
  -25.6868  -32.2041   24.1065 C   0  0  1  0  0  0  0  0  0  0  0  0
  -24.3192  -35.7047   23.6109 C   0  0  2  0  0  0  0  0  0  0  0  0
  -19.0989  -25.6036   21.2273 C   0  0  1  0  0  0  0  0  0  0  0  0
  -26.4592  -31.8285   25.4025 C   0  0  0  0  0  0  0  0  0  0  0  0
  -25.6628  -14.0149   19.4523 N   0  0  0  0  0  0  0  0  0  0  0  0
  -24.5764  -14.6410   19.9360 N   0  0  0  0  0  0  0  0  0  0  0  0
  -25.6400  -30.8102   22.0623 N   0  0  0  0  0  0  0  0  0  0  0  0
  -25.9060  -18.2106   20.2181 N   0  0  0  0  0  0  0  0  0  0  0  0
  -22.4311  -14.2564   20.8635 N   0  0  0  0  0  0  0  0  0  0  0  0
  -24.0011  -10.0901   20.1067 N   0  0  0  0  0  0  0  0  0  0  0  0
  -27.4894  -28.0520   20.5562 N   0  0  0  0  0  0  0  0  0  0  0  0
  -25.4998  -33.6385   23.9168 N   0  0  0  0  0  0  0  0  0  0  0  0
  -26.2839  -20.2953   21.2711 N   0  0  0  0  0  0  0  0  0  0  0  0
  -23.2127  -36.1739   22.7297 N   0  3  0  0  0  0  0  0  0  0  0  0
  -20.2492  -24.8865   21.8448 N   0  3  0  0  0  0  0  0  0  0  0  0
  -22.2115  -11.2920   20.8886 O   0  0  0  0  0  0  0  0  0  0  0  0
  -26.4846  -28.4618   22.6165 O   0  0  0  0  0  0  0  0  0  0  0  0
  -27.5161  -32.0854   22.6012 O   0  0  0  0  0  0  0  0  0  0  0  0
  -23.1833  -33.5834   23.8274 O   0  0  0  0  0  0  0  0  0  0  0  0
  -26.8057  -18.3420   22.3515 O   0  0  0  0  0  0  0  0  0  0  0  0
  -28.9594   -8.7843   17.9283 O   0  0  0  0  0  0  0  0  0  0  0  0
  -20.1511  -28.3032   20.7815 O   0  0  0  0  0  0  0  0  0  1  0  0
  -23.1807  -20.0498   22.6537 O   0  0  0  0  0  0  0  0  0  0  0  0
  -34.2395   -9.3787   19.4020 F   0  0  0  0  0  0  0  0  0  0  0  0
  -30.2240   -6.8735   19.4750 F   0  0  0  0  0  0  0  0  0  0  0  0
  -21.0586  -21.3195   21.4988 F   0  0  0  0  0  0  0  0  0  0  0  0
  1  2  1  0  0  0  0
  1  5  2  0  0  0  0
  2  6  2  0  0  0  0
  3  8  2  0  0  0  0
  3 16  1  0  0  0  0
  4  9  1  0  0  0  0
  4 16  2  0  0  0  0
  5 18  1  0  0  0  0
  6 20  1  0  0  0  0
  7 10  2  0  0  0  0
  7 19  1  0  0  0  0
  8 25  1  0  0  0  0
  9 25  2  0  0  0  0
 10 26  1  0  0  0  0
 11 12  2  0  0  0  0
 11 27  1  0  0  0  0
 12 29  1  0  0  0  0
 13 21  1  0  0  0  0
 13 26  2  0  0  0  0
 14 22  1  0  0  0  0
 14 23  2  0  0  0  0
 15 29  2  0  0  0  0
 15 30  1  0  0  0  0
 16 32  1  0  0  0  0
 17 32  1  0  0  0  0
 17 33  2  0  0  0  0
 17 34  1  0  0  0  0
 18 20  2  0  0  0  0
 18 39  1  0  0  0  0
 19 21  2  0  0  0  0
 19 40  1  0  0  0  0
 20 48  1  0  0  0  0
 21 41  1  0  0  0  0
 22 24  2  0  0  0  0
 22 51  1  0  0  0  0
 23 28  1  0  0  0  0
 23 59  1  0  0  0  0
 24 31  1  0  0  0  0
 24 60  1  0  0  0  0
 25 85  1  0  0  0  0
 26 86  1  0  0  0  0
 27 30  2  0  0  0  0
 27 85  1  0  0  0  0
 28 31  2  0  0  0  0
 28 87  1  0  0  0  0
 29 88  1  0  0  0  0
 30 89  1  0  0  0  0
 31 90  1  0  0  0  0
 32 69  2  0  0  0  0
 33 70  1  0  0  0  0
 33 73  1  0  0  0  0
 34 74  1  0  0  0  0
 34 80  2  0  0  0  0
 35 49  1  0  0  0  0
 35 75  1  0  0  0  0
 35 81  2  0  0  0  0
 36 65  1  0  0  0  0
 36 71  1  0  0  0  0
 36 82  2  0  0  0  0
 37 66  1  0  0  0  0
 37 76  1  0  0  0  0
 37 83  2  0  0  0  0
 38 72  1  0  0  0  0
 38 77  1  0  0  0  0
 38 84  2  0  0  0  0
 39 42  1  0  0  0  0
 40 49  1  0  0  0  0
 41 71  1  0  0  0  0
 42 44  1  0  0  0  0
 43 45  1  0  0  0  0
 43 46  1  0  0  0  0
 44 48  1  0  0  0  0
 45 50  1  0  0  0  0
 46 72  1  0  0  0  0
 47 50  1  0  0  0  0
 47 72  1  0  0  0  0
 48 75  1  0  0  0  0
 49 71  1  0  0  0  0
 50 70  1  0  0  0  0
 52 63  1  0  0  0  0
 53 66  1  0  0  0  0
 54 67  1  0  0  0  0
 55 68  1  0  0  0  0
 56 68  1  0  0  0  0
 57 68  1  0  0  0  0
 58 78  1  0  0  0  0
 59 62  1  0  0  0  0
 60 79  1  0  0  0  0
 61 64  1  0  0  0  0
 61 67  1  0  0  0  0
 62 77  1  0  0  0  0
 63 87  1  0  0  0  0
 64 86  1  0  0  0  0
 65 68  1  0  0  0  0
 65 76  1  0  0  0  0
 66 78  1  0  0  0  0
 67 79  1  0  0  0  0
 69 70  1  0  0  0  0
M  CHG  2  78   1  79   1
M  ISO  4  38 100  64 101  77 100  86 101
M  END
> <Batch ID>
0019

> <Smiles>
CCOc1c(CC[100NH:0][100C:0](=O)N2CCCC(n3nc(-c4ccc(Oc5ccc(F)cc5F)cc4)c(C(N)=O)c3N)C2)cc(C)c(CNC(C)C[101CH2:1][101O:1]c2ccc3c(c2)CN(C(=O)C(NC(=O)C(C)NC)C(C)(C)C)C(C(=O)NC2CCCc4ccccc42)C3)c1F

> <Shape>
0.262

> <Color>
0.073

> <Negative vol penalty>
0.000

$$$$

  -OEChem-04052316073D

 94103  0     1  0  0  0  0  0999 V2000
  -28.7498  -32.2366    8.6357 C   0  0  0  0  0  0  0  0  0  0  0  0
  -29.8379  -31.3697    8.6324 C   0  0  0  0  0  0  0  0  0  0  0  0
  -22.6552  -10.2789   20.2564 C   0  0  0  0  0  0  0  0  0  0  0  0
  -24.3655   -9.2417   21.6113 C   0  0  0  0  0  0  0  0  0  0  0  0
  -28.3587  -32.8580    9.8209 C   0  0  0  0  0  0  0  0  0  0  0  0
  -30.5362  -31.1245    9.8142 C   0  0  0  0  0  0  0  0  0  0  0  0
  -31.1511  -24.4452   12.4409 C   0  0  0  0  0  0  0  0  0  0  0  0
  -21.8947   -9.1115   20.3227 C   0  0  0  0  0  0  0  0  0  0  0  0
  -23.6050   -8.0743   21.6777 C   0  0  0  0  0  0  0  0  0  0  0  0
  -31.4923  -23.1712   12.8955 C   0  0  0  0  0  0  0  0  0  0  0  0
  -21.9505   -4.9444   22.5051 C   0  0  0  0  0  0  0  0  0  0  0  0
  -21.8235   -4.3219   23.7469 C   0  0  0  0  0  0  0  0  0  0  0  0
  -32.6591  -24.1436   14.7773 C   0  0  0  0  0  0  0  0  0  0  0  0
  -20.7984   -6.3179   24.6426 C   0  0  0  0  0  0  0  0  0  0  0  0
  -23.8907  -10.3440   20.9007 C   0  0  0  0  0  0  0  0  0  0  0  0
  -24.3077  -12.8319   21.2799 C   0  0  0  0  0  0  0  0  0  0  0  0
  -29.0466  -32.6129   11.0198 C   0  0  0  0  0  0  0  0  0  0  0  0
  -31.5500  -25.5740   13.1619 C   0  0  0  0  0  0  0  0  0  0  0  0
  -30.1547  -31.7443   11.0163 C   0  0  0  0  0  0  0  0  0  0  0  0
  -32.3097  -25.4218   14.3335 C   0  0  0  0  0  0  0  0  0  0  0  0
  -22.3695   -8.0092   21.0333 C   0  0  0  0  0  0  0  0  0  0  0  0
  -32.2446  -23.0209   14.0607 C   0  0  0  0  0  0  0  0  0  0  0  0
  -21.5015   -6.2536   22.3321 C   0  0  0  0  0  0  0  0  0  0  0  0
  -21.2474   -5.0086   24.8156 C   0  0  0  0  0  0  0  0  0  0  0  0
  -20.9254   -6.9404   23.4008 C   0  0  0  0  0  0  0  0  0  0  0  0
  -24.6770  -11.5494   20.8321 C   0  0  0  0  0  0  0  0  0  0  0  0
  -25.3925  -13.6226   20.9893 C   0  0  0  0  0  0  0  0  0  0  0  0
  -23.0928  -13.2693   21.9030 C   0  0  0  0  0  0  0  0  0  0  0  0
  -31.5213  -29.3152   13.4422 C   0  0  0  0  0  0  0  0  0  0  0  0
  -31.1327  -28.2064   16.2759 C   0  0  0  0  0  0  0  0  0  0  0  0
  -30.3069  -26.5902   19.1644 C   0  0  0  0  0  0  0  0  0  0  0  0
  -30.8019  -14.5774   20.8014 C   0  0  0  0  0  0  0  0  0  0  0  0
  -28.6160  -33.3444   12.2664 C   0  0  0  0  0  0  0  0  0  0  0  0
  -31.2577  -26.9678   12.6763 C   0  0  0  0  0  0  0  0  0  0  0  0
  -32.7463  -26.6658   15.0579 C   0  0  0  0  0  0  0  0  0  0  0  0
  -29.1776  -32.7412   13.5513 C   0  0  0  0  0  0  0  0  0  0  0  0
  -29.4946  -12.7046   18.1918 C   0  0  0  0  0  0  0  0  0  0  0  0
  -30.6680  -32.4540   13.3993 C   0  0  0  0  0  0  0  0  0  0  0  0
  -28.4320  -19.4926   20.0186 C   0  0  0  0  0  0  0  0  0  0  0  0
  -29.1766  -19.8463   18.7273 C   0  0  0  0  0  0  0  0  0  0  0  0
  -33.0164  -17.4002   23.6708 C   0  0  0  0  0  0  0  0  0  0  0  0
  -28.0927  -12.3326   18.6727 C   0  0  0  0  0  0  0  0  0  0  0  0
  -32.2441  -16.1599   23.2288 C   0  0  0  0  0  0  0  0  0  0  0  0
  -30.6591  -18.5854   20.1374 C   0  0  0  0  0  0  0  0  0  0  0  0
  -30.9356  -18.7991   23.3866 C   0  0  0  0  0  0  0  0  0  0  0  0
  -30.5036  -12.6094   19.3301 C   0  0  0  0  0  0  0  0  0  0  0  0
  -28.7529  -13.0930   21.0100 C   0  0  0  0  0  0  0  0  0  0  0  0
  -30.9222  -31.4338   12.2831 C   0  0  1  0  0  0  0  0  0  0  0  0
  -30.9936  -27.9626   13.8207 C   0  0  1  0  0  0  0  0  0  0  0  0
  -29.5042  -19.0519   21.0198 C   0  0  2  0  0  0  0  0  0  0  0  0
  -30.6629  -19.6298   19.0246 C   0  0  1  0  0  0  0  0  0  0  0  0
  -32.0928  -18.4331   24.3252 C   0  0  2  0  0  0  0  0  0  0  0  0
  -30.1437  -17.5590   22.9364 C   0  0  2  0  0  0  0  0  0  0  0  0
  -27.6886  -13.1735   19.8963 C   0  0  2  0  0  0  0  0  0  0  0  0
  -31.0842  -16.5185   22.2948 C   0  0  2  0  0  0  0  0  0  0  0  0
  -29.7486  -27.0217   21.5726 C   0  0  0  0  0  0  0  0  0  0  0  0
  -27.8098  -18.4752   22.7803 C   0  0  0  0  0  0  0  0  0  0  0  0
  -32.9225  -18.9432   18.1985 C   0  0  0  0  0  0  0  0  0  0  0  0
  -34.0066  -19.2960   25.6963 C   0  0  0  0  0  0  0  0  0  0  0  0
  -31.9397  -20.6868   25.4132 C   0  0  0  0  0  0  0  0  0  0  0  0
  -33.4885  -20.3338   23.4734 C   0  0  0  0  0  0  0  0  0  0  0  0
  -34.0801  -28.7294   16.8616 C   0  0  0  0  0  0  0  0  0  0  0  0
  -33.6216  -28.2077   19.2670 C   0  0  0  0  0  0  0  0  0  0  0  0
  -32.4884  -30.1429   18.1743 C   0  0  0  0  0  0  0  0  0  0  0  0
  -29.4124  -14.8094   22.9038 C   0  0  0  0  0  0  0  0  0  0  0  0
  -27.6213  -25.3800   18.8791 C   0  0  0  0  0  0  0  0  0  0  0  0
  -31.7493  -19.6603   15.2886 C   0  0  0  0  0  0  0  0  0  0  0  0
  -31.4141  -20.2395   16.6636 C   0  0  0  0  0  0  0  0  0  0  0  0
  -31.6574  -20.7201   14.1985 C   0  0  0  0  0  0  0  0  0  1  0  0
  -31.7820  -27.7913   17.5719 C   0  0  1  0  0  0  0  0  0  0  0  0
  -29.1946  -26.8284   20.1696 C   0  0  2  0  0  0  0  0  0  0  0  0
  -29.0206  -17.9832   21.9853 C   0  0  1  0  0  0  0  0  0  0  0  0
  -31.4676  -19.1989   17.7974 C   0  0  2  0  0  0  0  0  0  0  0  0
  -32.8780  -19.6813   24.7251 C   0  0  0  0  0  0  0  0  0  0  0  0
  -32.9869  -28.6989   17.9484 C   0  0  0  0  0  0  0  0  0  0  0  0
  -25.9007  -11.5225   20.2974 N   0  0  0  0  0  0  0  0  0  0  0  0
  -26.3097  -12.7979   20.4074 N   0  0  0  0  0  0  0  0  0  0  0  0
  -31.6405  -27.6353   15.1027 N   0  0  0  0  0  0  0  0  0  0  0  0
  -30.0855  -13.4158   20.4772 N   0  0  0  0  0  0  0  0  0  0  0  0
  -25.6417  -14.9360   21.1773 N   0  0  0  0  0  0  0  0  0  0  0  0
  -23.0050  -13.2241   23.3011 N   0  0  0  0  0  0  0  0  0  0  0  0
  -30.6201  -30.0954   12.7432 N   0  0  0  0  0  0  0  0  0  0  0  0
  -30.7190  -27.7645   18.5707 N   0  0  0  0  0  0  0  0  0  0  0  0
  -30.3656  -15.3103   21.9153 N   0  0  0  0  0  0  0  0  0  0  0  0
  -28.2578  -25.6695   20.1898 N   0  3  0  0  0  0  0  0  0  0  0  0
  -22.1080  -13.6725   21.2388 O   0  0  0  0  0  0  0  0  0  0  0  0
  -32.6618  -29.6299   13.7616 O   0  0  0  0  0  0  0  0  0  0  0  0
  -30.2041  -29.0191   16.2997 O   0  0  0  0  0  0  0  0  0  0  0  0
  -30.7670  -25.4745   18.9319 O   0  0  0  0  0  0  0  0  0  0  0  0
  -31.7827  -14.9370   20.1373 O   0  0  0  0  0  0  0  0  0  0  0  0
  -21.6276   -6.8700   21.0985 O   0  0  0  0  0  0  0  0  0  0  0  0
  -32.5704  -21.7741   14.5014 O   0  0  0  0  0  0  0  0  0  1  0  0
  -21.1241   -4.4102   26.0076 F   0  0  0  0  0  0  0  0  0  0  0  0
  -20.4911   -8.1979   23.2404 F   0  0  0  0  0  0  0  0  0  0  0  0
  1  2  1  0  0  0  0
  1  5  2  0  0  0  0
  2  6  2  0  0  0  0
  3  8  2  0  0  0  0
  3 15  1  0  0  0  0
  4  9  1  0  0  0  0
  4 15  2  0  0  0  0
  5 17  1  0  0  0  0
  6 19  1  0  0  0  0
  7 10  2  0  0  0  0
  7 18  1  0  0  0  0
  8 21  1  0  0  0  0
  9 21  2  0  0  0  0
 10 22  1  0  0  0  0
 11 12  2  0  0  0  0
 11 23  1  0  0  0  0
 12 24  1  0  0  0  0
 13 20  1  0  0  0  0
 13 22  2  0  0  0  0
 14 24  2  0  0  0  0
 14 25  1  0  0  0  0
 15 26  1  0  0  0  0
 16 26  1  0  0  0  0
 16 27  2  0  0  0  0
 16 28  1  0  0  0  0
 17 19  2  0  0  0  0
 17 33  1  0  0  0  0
 18 20  2  0  0  0  0
 18 34  1  0  0  0  0
 19 48  1  0  0  0  0
 20 35  1  0  0  0  0
 21 91  1  0  0  0  0
 22 92  1  0  0  0  0
 23 25  2  0  0  0  0
 23 91  1  0  0  0  0
 24 93  1  0  0  0  0
 25 94  1  0  0  0  0
 26 76  2  0  0  0  0
 27 77  1  0  0  0  0
 27 80  1  0  0  0  0
 28 81  1  0  0  0  0
 28 86  2  0  0  0  0
 29 49  1  0  0  0  0
 29 82  1  0  0  0  0
 29 87  2  0  0  0  0
 30 70  1  0  0  0  0
 30 78  1  0  0  0  0
 30 88  2  0  0  0  0
 31 71  1  0  0  0  0
 31 83  1  0  0  0  0
 31 89  2  0  0  0  0
 32 79  1  0  0  0  0
 32 84  1  0  0  0  0
 32 90  2  0  0  0  0
 33 36  1  0  0  0  0
 34 49  1  0  0  0  0
 35 78  1  0  0  0  0
 36 38  1  0  0  0  0
 37 42  1  0  0  0  0
 37 46  1  0  0  0  0
 38 48  1  0  0  0  0
 39 40  1  0  0  0  0
 39 50  1  0  0  0  0
 40 51  1  0  0  0  0
 41 43  1  0  0  0  0
 41 52  1  0  0  0  0
 42 54  1  0  0  0  0
 43 55  1  0  0  0  0
 44 50  1  0  0  0  0
 44 51  1  0  0  0  0
 45 52  1  0  0  0  0
 45 53  1  0  0  0  0
 46 79  1  0  0  0  0
 47 54  1  0  0  0  0
 47 79  1  0  0  0  0
 48 82  1  0  0  0  0
 49 78  1  0  0  0  0
 50 72  1  0  0  0  0
 51 73  1  0  0  0  0
 52 74  1  0  0  0  0
 53 55  1  0  0  0  0
 53 72  1  0  0  0  0
 54 77  1  0  0  0  0
 55 84  1  0  0  0  0
 56 71  1  0  0  0  0
 57 72  1  0  0  0  0
 58 73  1  0  0  0  0
 59 74  1  0  0  0  0
 60 74  1  0  0  0  0
 61 74  1  0  0  0  0
 62 75  1  0  0  0  0
 63 75  1  0  0  0  0
 64 75  1  0  0  0  0
 65 84  1  0  0  0  0
 66 85  1  0  0  0  0
 67 68  1  0  0  0  0
 67 69  1  0  0  0  0
 68 73  1  0  0  0  0
 69 92  1  0  0  0  0
 70 75  1  0  0  0  0
 70 83  1  0  0  0  0
 71 85  1  0  0  0  0
 76 77  1  0  0  0  0
M  CHG  1  85   1
M  ISO  4  32 100  69 101  84 100  92 101
M  END
> <Batch ID>
0019

> <Smiles>
CNC(C)C(=O)NC(C(=O)N1Cc2cc([101O:1][101CH2:1]CCC(C)C3CCC(C(C)C4CC(C(C)(C)C)CCC4[100N:0](C)[100C:0](=O)N4CCCC(n5nc(-c6ccc(Oc7ccc(F)cc7F)cc6)c(C(N)=O)c5N)C4)C3)ccc2CC1C(=O)NC1CCCc2ccccc21)C(C)(C)C

> <Shape>
0.247

> <Color>
0.174

> <Negative vol penalty>
0.000

$$$$

  -OEChem-04052316073D

 82 90  0     1  0  0  0  0  0999 V2000
  -30.0834  -33.4926   25.8766 C   0  0  0  0  0  0  0  0  0  0  0  0
  -30.8274  -32.3727   25.5191 C   0  0  0  0  0  0  0  0  0  0  0  0
  -23.0027   -9.8807   19.9879 C   0  0  0  0  0  0  0  0  0  0  0  0
  -23.7178   -9.9543   22.2944 C   0  0  0  0  0  0  0  0  0  0  0  0
  -28.6927  -33.4143   25.9361 C   0  0  0  0  0  0  0  0  0  0  0  0
  -30.1809  -31.1735   25.2219 C   0  0  0  0  0  0  0  0  0  0  0  0
  -30.7830  -25.3967   21.0287 C   0  0  0  0  0  0  0  0  0  0  0  0
  -22.2369   -8.7474   20.2614 C   0  0  0  0  0  0  0  0  0  0  0  0
  -22.9519   -8.8211   22.5681 C   0  0  0  0  0  0  0  0  0  0  0  0
  -30.7862  -24.0047   21.1068 C   0  0  0  0  0  0  0  0  0  0  0  0
  -23.2037   -5.4783   22.1284 C   0  0  0  0  0  0  0  0  0  0  0  0
  -23.7896   -4.4691   22.8925 C   0  0  0  0  0  0  0  0  0  0  0  0
  -28.3746  -24.0084   21.1658 C   0  0  0  0  0  0  0  0  0  0  0  0
  -22.0580   -4.7248   24.5579 C   0  0  0  0  0  0  0  0  0  0  0  0
  -23.7432  -10.4841   21.0044 C   0  0  0  0  0  0  0  0  0  0  0  0
  -24.1252  -12.9986   20.8066 C   0  0  0  0  0  0  0  0  0  0  0  0
  -28.0283  -32.2161   25.6302 C   0  0  0  0  0  0  0  0  0  0  0  0
  -29.5738  -26.1068   21.0295 C   0  0  0  0  0  0  0  0  0  0  0  0
  -28.7800  -31.0787   25.2787 C   0  0  0  0  0  0  0  0  0  0  0  0
  -28.3587  -25.4093   21.0850 C   0  0  0  0  0  0  0  0  0  0  0  0
  -30.2581  -19.2135   22.5156 C   0  0  0  0  0  0  0  0  0  0  0  0
  -30.6427  -19.8173   21.3185 C   0  0  0  0  0  0  0  0  0  0  0  0
  -30.0641  -17.8332   22.5697 C   0  0  0  0  0  0  0  0  0  0  0  0
  -30.8330  -19.0409   20.1754 C   0  0  0  0  0  0  0  0  0  0  0  0
  -30.2544  -17.0568   21.4267 C   0  0  0  0  0  0  0  0  0  0  0  0
  -22.2114   -8.2176   21.5515 C   0  0  0  0  0  0  0  0  0  0  0  0
  -29.5820  -23.3105   21.1783 C   0  0  0  0  0  0  0  0  0  0  0  0
  -22.0450   -6.1108   22.5790 C   0  0  0  0  0  0  0  0  0  0  0  0
  -23.2168   -4.0923   24.1072 C   0  0  0  0  0  0  0  0  0  0  0  0
  -21.4721   -5.7340   23.7937 C   0  0  0  0  0  0  0  0  0  0  0  0
  -30.6389  -17.6606   20.2295 C   0  0  0  0  0  0  0  0  0  0  0  0
  -24.5349  -11.6544   20.7223 C   0  0  0  0  0  0  0  0  0  0  0  0
  -25.2353  -13.7196   20.4403 C   0  0  0  0  0  0  0  0  0  0  0  0
  -22.8547  -13.5464   21.1825 C   0  0  0  0  0  0  0  0  0  0  0  0
  -28.2409  -28.2645   22.9457 C   0  0  0  0  0  0  0  0  0  0  0  0
  -25.9910  -28.3755   20.6117 C   0  0  0  0  0  0  0  0  0  0  0  0
  -24.4433  -26.8118   18.0028 C   0  0  0  0  0  0  0  0  0  0  0  0
  -30.7122  -14.6919   20.6890 C   0  0  0  0  0  0  0  0  0  0  0  0
  -26.5260  -32.1669   25.7543 C   0  0  0  0  0  0  0  0  0  0  0  0
  -29.5866  -27.6067   20.9178 C   0  0  0  0  0  0  0  0  0  0  0  0
  -27.0328  -26.1236   21.0687 C   0  0  0  0  0  0  0  0  0  0  0  0
  -25.8967  -30.9614   25.0606 C   0  0  0  0  0  0  0  0  0  0  0  0
  -29.6080  -12.2156   18.3812 C   0  0  0  0  0  0  0  0  0  0  0  0
  -26.6603  -29.6873   25.4073 C   0  0  0  0  0  0  0  0  0  0  0  0
  -28.1561  -11.9594   18.7915 C   0  0  0  0  0  0  0  0  0  0  0  0
  -30.5029  -12.4718   19.5926 C   0  0  0  0  0  0  0  0  0  0  0  0
  -28.5804  -13.2699   20.9104 C   0  0  0  0  0  0  0  0  0  0  0  0
  -28.1138  -29.7667   24.9251 C   0  0  1  0  0  0  0  0  0  0  0  0
  -28.3107  -28.2561   21.4448 C   0  0  1  0  0  0  0  0  0  0  0  0
  -27.6283  -13.0708   19.7198 C   0  0  2  0  0  0  0  0  0  0  0  0
  -30.0543  -20.0465   23.7420 C   0  0  0  0  0  0  0  0  0  0  0  0
  -29.6516  -17.1879   23.8558 C   0  0  0  0  0  0  0  0  0  0  0  0
  -31.2448  -19.6663   18.8826 C   0  0  0  0  0  0  0  0  0  0  0  0
  -22.6159  -27.1385   16.3142 C   0  0  0  0  0  0  0  0  0  0  0  0
  -23.9028  -27.8470   22.7727 C   0  0  0  0  0  0  0  0  0  0  0  0
  -22.2821  -27.2458   20.9616 C   0  0  0  0  0  0  0  0  0  0  0  0
  -23.2323  -29.5498   21.0683 C   0  0  0  0  0  0  0  0  0  0  0  0
  -26.3346  -26.5763   15.7387 C   0  0  0  0  0  0  0  0  0  0  0  0
  -30.8526  -21.3018   21.2582 C   0  0  0  0  0  0  0  0  0  1  0  0
  -24.7069  -27.6340   20.3285 C   0  0  1  0  0  0  0  0  0  0  0  0
  -24.1017  -27.2879   16.6024 C   0  0  2  0  0  0  0  0  0  0  0  0
  -23.5559  -28.0555   21.2851 C   0  0  0  0  0  0  0  0  0  0  0  0
  -25.8061  -11.5263   20.3328 N   0  0  0  0  0  0  0  0  0  0  0  0
  -26.2047  -12.7993   20.1690 N   0  0  0  0  0  0  0  0  0  0  0  0
  -27.0979  -27.5907   20.9647 N   0  0  0  0  0  0  0  0  0  0  0  0
  -29.9424  -13.5396   20.4236 N   0  0  0  0  0  0  0  0  0  0  0  0
  -25.4671  -15.0447   20.3269 N   0  0  0  0  0  0  0  0  0  0  0  0
  -21.8228  -12.6638   21.5298 N   0  0  0  0  0  0  0  0  0  0  0  0
  -30.0629  -15.6533   21.4628 N   0  0  0  0  0  0  0  0  0  0  0  0
  -28.1870  -29.5294   23.4994 N   0  0  0  0  0  0  0  0  0  0  0  0
  -24.4165  -27.8458   18.9145 N   0  0  0  0  0  0  0  0  0  0  0  0
  -24.8586  -26.5005   15.5885 N   0  3  0  0  0  0  0  0  0  0  0  0
  -22.6358  -14.7816   21.1938 O   0  0  0  0  0  0  0  0  0  0  0  0
  -28.2349  -27.2020   23.5562 O   0  0  0  0  0  0  0  0  0  0  0  0
  -26.0130  -29.6051   20.5160 O   0  0  0  0  0  0  0  0  0  0  0  0
  -24.7039  -25.6391   18.2626 O   0  0  0  0  0  0  0  0  0  0  0  0
  -31.8526  -14.8285   20.2387 O   0  0  0  0  0  0  0  0  0  0  0  0
  -21.4640   -7.1120   21.8189 O   0  0  0  0  0  0  0  0  0  0  0  0
  -29.5823  -21.9518   21.2553 O   0  0  0  0  0  0  0  0  0  1  0  0
  -23.7787   -3.1221   24.8401 F   0  0  0  0  0  0  0  0  0  0  0  0
  -20.3583   -6.3372   24.2313 F   0  0  0  0  0  0  0  0  0  0  0  0
  -30.8228  -16.9157   19.1289 F   0  0  0  0  0  0  0  0  0  0  0  0
  1  2  1  0  0  0  0
  1  5  2  0  0  0  0
  2  6  2  0  0  0  0
  3  8  2  0  0  0  0
  3 15  1  0  0  0  0
  4  9  1  0  0  0  0
  4 15  2  0  0  0  0
  5 17  1  0  0  0  0
  6 19  1  0  0  0  0
  7 10  2  0  0  0  0
  7 18  1  0  0  0  0
  8 26  1  0  0  0  0
  9 26  2  0  0  0  0
 10 27  1  0  0  0  0
 11 12  2  0  0  0  0
 11 28  1  0  0  0  0
 12 29  1  0  0  0  0
 13 20  1  0  0  0  0
 13 27  2  0  0  0  0
 14 29  2  0  0  0  0
 14 30  1  0  0  0  0
 15 32  1  0  0  0  0
 16 32  1  0  0  0  0
 16 33  2  0  0  0  0
 16 34  1  0  0  0  0
 17 19  2  0  0  0  0
 17 39  1  0  0  0  0
 18 20  2  0  0  0  0
 18 40  1  0  0  0  0
 19 48  1  0  0  0  0
 20 41  1  0  0  0  0
 21 22  1  0  0  0  0
 21 23  2  0  0  0  0
 21 51  1  0  0  0  0
 22 24  2  0  0  0  0
 22 59  1  0  0  0  0
 23 25  1  0  0  0  0
 23 52  1  0  0  0  0
 24 31  1  0  0  0  0
 24 53  1  0  0  0  0
 25 31  2  0  0  0  0
 25 69  1  0  0  0  0
 26 78  1  0  0  0  0
 27 79  1  0  0  0  0
 28 30  2  0  0  0  0
 28 78  1  0  0  0  0
 29 80  1  0  0  0  0
 30 81  1  0  0  0  0
 31 82  1  0  0  0  0
 32 63  2  0  0  0  0
 33 64  1  0  0  0  0
 33 67  1  0  0  0  0
 34 68  1  0  0  0  0
 34 73  2  0  0  0  0
 35 49  1  0  0  0  0
 35 70  1  0  0  0  0
 35 74  2  0  0  0  0
 36 60  1  0  0  0  0
 36 65  1  0  0  0  0
 36 75  2  0  0  0  0
 37 61  1  0  0  0  0
 37 71  1  0  0  0  0
 37 76  2  0  0  0  0
 38 66  1  0  0  0  0
 38 69  1  0  0  0  0
 38 77  2  0  0  0  0
 39 42  1  0  0  0  0
 40 49  1  0  0  0  0
 41 65  1  0  0  0  0
 42 44  1  0  0  0  0
 43 45  1  0  0  0  0
 43 46  1  0  0  0  0
 44 48  1  0  0  0  0
 45 50  1  0  0  0  0
 46 66  1  0  0  0  0
 47 50  1  0  0  0  0
 47 66  1  0  0  0  0
 48 70  1  0  0  0  0
 49 65  1  0  0  0  0
 50 64  1  0  0  0  0
 54 61  1  0  0  0  0
 55 62  1  0  0  0  0
 56 62  1  0  0  0  0
 57 62  1  0  0  0  0
 58 72  1  0  0  0  0
 59 79  1  0  0  0  0
 60 62  1  0  0  0  0
 60 71  1  0  0  0  0
 61 72  1  0  0  0  0
 63 64  1  0  0  0  0
M  CHG  1  72   1
M  ISO  4  38 100  59 101  69 100  79 101
M  END
> <Batch ID>
0019

> <Smiles>
CNC(C)C(=O)NC(C(=O)N1Cc2cc([101O:1][101CH2:1]c3c(C)c(C)c([100NH:0][100C:0](=O)N4CCCC(n5nc(-c6ccc(Oc7ccc(F)cc7F)cc6)c(C(N)=O)c5N)C4)c(F)c3C)ccc2CC1C(=O)NC1CCCc2ccccc21)C(C)(C)C

> <Shape>
0.349

> <Color>
0.207

> <Negative vol penalty>
0.000

$$$$

  -OEChem-04052316073D

 82 90  0     1  0  0  0  0  0999 V2000
  -24.6336  -19.4114   22.6939 C   0  0  0  0  0  0  0  0  0  0  0  0
  -25.3117  -18.2674   23.1025 C   0  0  0  0  0  0  0  0  0  0  0  0
  -23.1884   -9.8170   19.9312 C   0  0  0  0  0  0  0  0  0  0  0  0
  -23.5558  -10.0003   22.3121 C   0  0  0  0  0  0  0  0  0  0  0  0
  -23.8990  -20.1526   23.6184 C   0  0  0  0  0  0  0  0  0  0  0  0
  -25.2564  -17.8646   24.4364 C   0  0  0  0  0  0  0  0  0  0  0  0
  -24.4603  -12.8881   24.9316 C   0  0  0  0  0  0  0  0  0  0  0  0
  -22.4190   -8.6721   20.1381 C   0  0  0  0  0  0  0  0  0  0  0  0
  -22.7863   -8.8554   22.5190 C   0  0  0  0  0  0  0  0  0  0  0  0
  -25.5525  -12.0454   24.7299 C   0  0  0  0  0  0  0  0  0  0  0  0
  -21.2177   -5.7762   23.6451 C   0  0  0  0  0  0  0  0  0  0  0  0
  -21.7081   -4.8168   24.5309 C   0  0  0  0  0  0  0  0  0  0  0  0
  -25.8437  -11.8614   27.1175 C   0  0  0  0  0  0  0  0  0  0  0  0
  -30.2734  -12.6823   25.0067 C   0  0  0  0  0  0  0  0  0  0  0  0
  -23.6728   -4.5470   23.1509 C   0  0  0  0  0  0  0  0  0  0  0  0
  -23.7569  -10.4811   21.0183 C   0  0  0  0  0  0  0  0  0  0  0  0
  -24.1015  -12.9967   20.7723 C   0  0  0  0  0  0  0  0  0  0  0  0
  -23.8268  -19.7533   24.9623 C   0  0  0  0  0  0  0  0  0  0  0  0
  -24.0576  -13.2331   26.2298 C   0  0  0  0  0  0  0  0  0  0  0  0
  -24.5212  -18.6020   25.3801 C   0  0  0  0  0  0  0  0  0  0  0  0
  -24.7445  -12.7066   27.3330 C   0  0  0  0  0  0  0  0  0  0  0  0
  -30.0880  -11.2910   24.8811 C   0  0  0  0  0  0  0  0  0  0  0  0
  -22.2179   -8.1913   21.4319 C   0  0  0  0  0  0  0  0  0  0  0  0
  -26.2462  -11.5342   25.8229 C   0  0  0  0  0  0  0  0  0  0  0  0
  -21.9548   -6.1210   22.5122 C   0  0  0  0  0  0  0  0  0  0  0  0
  -22.9357   -4.2022   24.2838 C   0  0  0  0  0  0  0  0  0  0  0  0
  -23.1824   -5.5064   22.2651 C   0  0  0  0  0  0  0  0  0  0  0  0
  -24.5523  -11.6635   20.8052 C   0  0  0  0  0  0  0  0  0  0  0  0
  -30.6737  -13.1551   23.7769 C   0  0  0  0  0  0  0  0  0  0  0  0
  -30.3821  -10.9569   23.5790 C   0  0  0  0  0  0  0  0  0  0  0  0
  -25.2352  -13.7369   20.5412 C   0  0  0  0  0  0  0  0  0  0  0  0
  -22.7765  -13.5194   20.9361 C   0  0  0  0  0  0  0  0  0  0  0  0
  -23.8398  -15.9515   27.8627 C   0  0  0  0  0  0  0  0  0  0  0  0
  -22.4662  -14.0444   30.0985 C   0  0  0  0  0  0  0  0  0  0  0  0
  -22.0910  -10.9117   31.3993 C   0  0  0  0  0  0  0  0  0  0  0  0
  -31.0809  -12.1177   21.5207 C   0  0  0  0  0  0  0  0  0  0  0  0
  -23.0588  -20.6131   25.9348 C   0  0  0  0  0  0  0  0  0  0  0  0
  -22.8609  -14.1219   26.4308 C   0  0  0  0  0  0  0  0  0  0  0  0
  -24.3399  -13.0302   28.7472 C   0  0  0  0  0  0  0  0  0  0  0  0
  -22.7445  -19.9100   27.2528 C   0  0  0  0  0  0  0  0  0  0  0  0
  -29.5299  -13.5195   18.4815 C   0  0  0  0  0  0  0  0  0  0  0  0
  -23.9841  -19.2004   27.7882 C   0  0  0  0  0  0  0  0  0  0  0  0
  -28.0433  -13.2444   18.7033 C   0  0  0  0  0  0  0  0  0  0  0  0
  -30.4079  -12.4997   19.2001 C   0  0  0  0  0  0  0  0  0  0  0  0
  -28.6362  -12.0965   20.8738 C   0  0  0  0  0  0  0  0  0  0  0  0
  -24.4651  -18.1190   26.8132 C   0  0  1  0  0  0  0  0  0  0  0  0
  -22.8555  -14.8187   27.7880 C   0  0  1  0  0  0  0  0  0  0  0  0
  -27.7231  -13.1347   20.2043 C   0  0  2  0  0  0  0  0  0  0  0  0
  -30.3359   -9.6117   22.9563 C   0  0  0  0  0  0  0  0  0  0  0  0
  -20.9340   -9.6725   33.2494 C   0  0  0  0  0  0  0  0  0  0  0  0
  -31.4009  -15.2916   24.8960 C   0  0  0  0  0  0  0  0  0  0  0  0
  -30.4191  -15.3567   22.5791 C   0  0  0  0  0  0  0  0  0  0  0  0
  -32.7216  -14.4938   22.9464 C   0  0  0  0  0  0  0  0  0  0  0  0
  -24.4984  -15.1348   32.0963 C   0  0  0  0  0  0  0  0  0  0  0  0
  -23.9334  -13.2216   33.6091 C   0  0  0  0  0  0  0  0  0  0  0  0
  -22.1790  -14.8862   32.9980 C   0  0  0  0  0  0  0  0  0  0  0  0
  -20.5837   -9.2295   29.4868 C   0  0  0  0  0  0  0  0  0  0  0  0
  -29.6737  -10.3465   25.9832 C   0  0  0  0  0  0  0  0  0  0  0  0
  -28.3435  -10.7412   26.6155 C   0  0  0  0  0  0  0  0  0  1  0  0
  -22.9714  -13.2270   31.2627 C   0  0  1  0  0  0  0  0  0  0  0  0
  -20.8536  -10.1294   31.8012 C   0  0  2  0  0  0  0  0  0  0  0  0
  -31.2749  -14.4861   23.5594 C   0  0  0  0  0  0  0  0  0  0  0  0
  -23.4046  -14.1126   32.4650 C   0  0  0  0  0  0  0  0  0  0  0  0
  -25.8696  -11.5596   20.6104 N   0  0  0  0  0  0  0  0  0  0  0  0
  -30.6938  -12.1076   22.8723 N   0  0  0  0  0  0  0  0  0  0  0  0
  -26.2563  -12.8370   20.4528 N   0  0  0  0  0  0  0  0  0  0  0  0
  -23.1673  -13.9086   28.8919 N   0  0  0  0  0  0  0  0  0  0  0  0
  -30.0558  -12.3910   20.6149 N   0  0  0  0  0  0  0  0  0  0  0  0
  -25.4482  -15.0631   20.4070 N   0  0  0  0  0  0  0  0  0  0  0  0
  -21.7270  -12.6195   21.1666 N   0  0  0  0  0  0  0  0  0  0  0  0
  -23.6344  -16.9386   26.9178 N   0  0  0  0  0  0  0  0  0  0  0  0
  -21.9175  -12.2681   31.5761 N   0  0  0  0  0  0  0  0  0  0  0  0
  -20.6984   -8.9256   30.9365 N   0  3  0  0  0  0  0  0  0  0  0  0
  -22.5279  -14.7468   20.8634 O   0  0  0  0  0  0  0  0  0  0  0  0
  -24.7195  -15.9322   28.7156 O   0  0  0  0  0  0  0  0  0  0  0  0
  -21.4813  -14.7711   30.2519 O   0  0  0  0  0  0  0  0  0  0  0  0
  -23.1108  -10.3730   30.9747 O   0  0  0  0  0  0  0  0  0  0  0  0
  -32.2682  -11.9540   21.2670 O   0  0  0  0  0  0  0  0  0  0  0  0
  -21.4670   -7.0743   21.6342 O   0  0  0  0  0  0  0  0  0  0  0  0
  -27.3130  -10.7120   25.6288 O   0  0  0  0  0  0  0  0  0  1  0  0
  -23.4072   -3.2820   25.1353 F   0  0  0  0  0  0  0  0  0  0  0  0
  -23.8956   -5.8344   21.1790 F   0  0  0  0  0  0  0  0  0  0  0  0
  1  2  1  0  0  0  0
  1  5  2  0  0  0  0
  2  6  2  0  0  0  0
  3  8  2  0  0  0  0
  3 16  1  0  0  0  0
  4  9  1  0  0  0  0
  4 16  2  0  0  0  0
  5 18  1  0  0  0  0
  6 20  1  0  0  0  0
  7 10  2  0  0  0  0
  7 19  1  0  0  0  0
  8 23  1  0  0  0  0
  9 23  2  0  0  0  0
 10 24  1  0  0  0  0
 11 12  2  0  0  0  0
 11 25  1  0  0  0  0
 12 26  1  0  0  0  0
 13 21  1  0  0  0  0
 13 24  2  0  0  0  0
 14 22  1  0  0  0  0
 14 29  2  0  0  0  0
 15 26  2  0  0  0  0
 15 27  1  0  0  0  0
 16 28  1  0  0  0  0
 17 28  1  0  0  0  0
 17 31  2  0  0  0  0
 17 32  1  0  0  0  0
 18 20  2  0  0  0  0
 18 37  1  0  0  0  0
 19 21  2  0  0  0  0
 19 38  1  0  0  0  0
 20 46  1  0  0  0  0
 21 39  1  0  0  0  0
 22 30  2  0  0  0  0
 22 58  1  0  0  0  0
 23 79  1  0  0  0  0
 24 80  1  0  0  0  0
 25 27  2  0  0  0  0
 25 79  1  0  0  0  0
 26 81  1  0  0  0  0
 27 82  1  0  0  0  0
 28 64  2  0  0  0  0
 29 62  1  0  0  0  0
 29 65  1  0  0  0  0
 30 49  1  0  0  0  0
 30 65  1  0  0  0  0
 31 66  1  0  0  0  0
 31 69  1  0  0  0  0
 32 70  1  0  0  0  0
 32 74  2  0  0  0  0
 33 47  1  0  0  0  0
 33 71  1  0  0  0  0
 33 75  2  0  0  0  0
 34 60  1  0  0  0  0
 34 67  1  0  0  0  0
 34 76  2  0  0  0  0
 35 61  1  0  0  0  0
 35 72  1  0  0  0  0
 35 77  2  0  0  0  0
 36 65  1  0  0  0  0
 36 68  1  0  0  0  0
 36 78  2  0  0  0  0
 37 40  1  0  0  0  0
 38 47  1  0  0  0  0
 39 67  1  0  0  0  0
 40 42  1  0  0  0  0
 41 43  1  0  0  0  0
 41 44  1  0  0  0  0
 42 46  1  0  0  0  0
 43 48  1  0  0  0  0
 44 68  1  0  0  0  0
 45 48  1  0  0  0  0
 45 68  1  0  0  0  0
 46 71  1  0  0  0  0
 47 67  1  0  0  0  0
 48 66  1  0  0  0  0
 50 61  1  0  0  0  0
 51 62  1  0  0  0  0
 52 62  1  0  0  0  0
 53 62  1  0  0  0  0
 54 63  1  0  0  0  0
 55 63  1  0  0  0  0
 56 63  1  0  0  0  0
 57 73  1  0  0  0  0
 58 59  1  0  0  0  0
 59 80  1  0  0  0  0
 60 63  1  0  0  0  0
 60 72  1  0  0  0  0
 61 73  1  0  0  0  0
 64 66  1  0  0  0  0
M  CHG  1  73   1
M  ISO  4  36 100  59 101  65 100  80 101
M  END
> <Batch ID>
0019

> <Smiles>
CNC(C)C(=O)NC(C(=O)N1Cc2cc([101O:1][101CH2:1]Cc3cc(C(C)(C)C)[100n:0]([100C:0](=O)N4CCCC(n5nc(-c6ccc(Oc7ccc(F)cc7F)cc6)c(C(N)=O)c5N)C4)c3C)ccc2CC1C(=O)NC1CCCc2ccccc21)C(C)(C)C

> <Shape>
0.144

> <Color>
0.190

> <Negative vol penalty>
0.000

$$$$

  -OEChem-04052316073D

 83 91  0     1  0  0  0  0  0999 V2000
  -20.0288  -17.7570   18.6386 C   0  0  0  0  0  0  0  0  0  0  0  0
  -21.1496  -18.3554   19.2052 C   0  0  0  0  0  0  0  0  0  0  0  0
  -23.0739   -9.8689   19.9423 C   0  0  0  0  0  0  0  0  0  0  0  0
  -23.8310   -9.8789   22.2366 C   0  0  0  0  0  0  0  0  0  0  0  0
  -18.7575  -18.2580   18.9157 C   0  0  0  0  0  0  0  0  0  0  0  0
  -20.9999  -19.4558   20.0485 C   0  0  0  0  0  0  0  0  0  0  0  0
  -23.8544  -19.1114   24.2172 C   0  0  0  0  0  0  0  0  0  0  0  0
  -22.3289   -8.7166   20.1931 C   0  0  0  0  0  0  0  0  0  0  0  0
  -23.0859   -8.7266   22.4875 C   0  0  0  0  0  0  0  0  0  0  0  0
  -25.2109  -19.4055   24.0861 C   0  0  0  0  0  0  0  0  0  0  0  0
  -19.3783   -7.9243   21.6420 C   0  0  0  0  0  0  0  0  0  0  0  0
  -18.0720   -7.8782   21.1553 C   0  0  0  0  0  0  0  0  0  0  0  0
  -24.8142  -21.6077   24.9872 C   0  0  0  0  0  0  0  0  0  0  0  0
  -32.2321  -18.2158   23.1480 C   0  0  0  0  0  0  0  0  0  0  0  0
  -18.6320   -5.9327   19.8367 C   0  0  0  0  0  0  0  0  0  0  0  0
  -23.8250  -10.4500   20.9641 C   0  0  0  0  0  0  0  0  0  0  0  0
  -24.1687  -12.9747   20.8406 C   0  0  0  0  0  0  0  0  0  0  0  0
  -18.5914  -19.3591   19.7704 C   0  0  0  0  0  0  0  0  0  0  0  0
  -22.9643  -20.0687   24.7250 C   0  0  0  0  0  0  0  0  0  0  0  0
  -19.7253  -19.9728   20.3362 C   0  0  0  0  0  0  0  0  0  0  0  0
  -23.4474  -21.3224   25.1261 C   0  0  0  0  0  0  0  0  0  0  0  0
  -31.5620  -19.3931   22.8156 C   0  0  0  0  0  0  0  0  0  0  0  0
  -30.4038  -19.3413   22.0401 C   0  0  0  0  0  0  0  0  0  0  0  0
  -29.9156  -18.1120   21.5970 C   0  0  0  0  0  0  0  0  0  0  0  0
  -30.5856  -16.9347   21.9293 C   0  0  0  0  0  0  0  0  0  0  0  0
  -22.3349   -8.1455   21.4657 C   0  0  0  0  0  0  0  0  0  0  0  0
  -25.6905  -20.6548   24.4685 C   0  0  0  0  0  0  0  0  0  0  0  0
  -20.3115   -6.9747   21.2261 C   0  0  0  0  0  0  0  0  0  0  0  0
  -17.6988   -6.8824   20.2526 C   0  0  0  0  0  0  0  0  0  0  0  0
  -19.9383   -5.9789   20.3235 C   0  0  0  0  0  0  0  0  0  0  0  0
  -31.7439  -16.9866   22.7048 C   0  0  0  0  0  0  0  0  0  0  0  0
  -24.5952  -11.6399   20.7054 C   0  0  0  0  0  0  0  0  0  0  0  0
  -25.2618  -13.7229   20.4775 C   0  0  0  0  0  0  0  0  0  0  0  0
  -22.8981  -13.4920   21.2571 C   0  0  0  0  0  0  0  0  0  0  0  0
  -20.4172  -21.5908   23.5852 C   0  0  0  0  0  0  0  0  0  0  0  0
  -20.2136  -22.7131   26.6219 C   0  0  0  0  0  0  0  0  0  0  0  0
  -21.7958  -23.4171   29.5626 C   0  0  0  0  0  0  0  0  0  0  0  0
  -30.7285  -14.7649   20.6573 C   0  0  0  0  0  0  0  0  0  0  0  0
  -17.2007  -19.8945   20.0027 C   0  0  0  0  0  0  0  0  0  0  0  0
  -21.5084  -19.7265   24.8850 C   0  0  0  0  0  0  0  0  0  0  0  0
  -22.5365  -22.3779   25.6960 C   0  0  0  0  0  0  0  0  0  0  0  0
  -17.1014  -20.8312   21.2040 C   0  0  0  0  0  0  0  0  0  0  0  0
  -29.6153  -12.3483   18.2914 C   0  0  0  0  0  0  0  0  0  0  0  0
  -18.2383  -21.8480   21.1835 C   0  0  0  0  0  0  0  0  0  0  0  0
  -28.1749  -12.0583   18.7196 C   0  0  0  0  0  0  0  0  0  0  0  0
  -30.5291  -12.5783   19.4938 C   0  0  0  0  0  0  0  0  0  0  0  0
  -28.6210  -13.3062   20.8716 C   0  0  0  0  0  0  0  0  0  0  0  0
  -19.6020  -21.1528   21.2756 C   0  0  1  0  0  0  0  0  0  0  0  0
  -20.6074  -20.9565   24.9340 C   0  0  1  0  0  0  0  0  0  0  0  0
  -27.6495  -13.1318   19.6928 C   0  0  2  0  0  0  0  0  0  0  0  0
  -32.1057  -20.6962   23.3036 C   0  0  0  0  0  0  0  0  0  0  0  0
  -28.6717  -18.0635   20.7650 C   0  0  0  0  0  0  0  0  0  0  0  0
  -21.3749  -24.3622   31.8489 C   0  0  0  0  0  0  0  0  0  0  0  0
  -20.1515  -25.5273   25.4445 C   0  0  0  0  0  0  0  0  0  0  0  0
  -20.6875  -26.4170   27.7226 C   0  0  0  0  0  0  0  0  0  0  0  0
  -18.5684  -25.1563   27.3446 C   0  0  0  0  0  0  0  0  0  0  0  0
  -22.5872  -20.8881   30.8806 C   0  0  0  0  0  0  0  0  0  0  0  0
  -29.6822  -20.6159   21.6819 C   0  0  0  0  0  0  0  0  0  0  0  0
  -28.8614  -21.2031   22.8321 C   0  0  0  0  0  0  0  0  0  0  0  0
  -27.7219  -20.2974   23.2845 C   0  0  0  0  0  0  0  0  0  1  0  0
  -20.7672  -23.9085   27.3593 C   0  0  1  0  0  0  0  0  0  0  0  0
  -21.4336  -23.1001   31.0024 C   0  0  2  0  0  0  0  0  0  0  0  0
  -20.0607  -25.2333   26.9552 C   0  0  0  0  0  0  0  0  0  0  0  0
  -25.8605  -11.5426   20.2889 N   0  0  0  0  0  0  0  0  0  0  0  0
  -26.2384  -12.8257   20.1590 N   0  0  0  0  0  0  0  0  0  0  0  0
  -21.1202  -21.9976   25.8269 N   0  0  0  0  0  0  0  0  0  0  0  0
  -29.9698  -13.6108   20.3689 N   0  0  0  0  0  0  0  0  0  0  0  0
  -25.4732  -15.0541   20.4027 N   0  0  0  0  0  0  0  0  0  0  0  0
  -21.8851  -12.5841   21.5946 N   0  0  0  0  0  0  0  0  0  0  0  0
  -30.0808  -15.6917   21.4735 N   0  0  0  0  0  0  0  0  0  0  0  0
  -19.8708  -20.7458   22.6382 N   0  0  0  0  0  0  0  0  0  0  0  0
  -20.6739  -23.5907   28.7801 N   0  0  0  0  0  0  0  0  0  0  0  0
  -22.4422  -22.1800   31.5997 N   0  3  0  0  0  0  0  0  0  0  0  0
  -22.6626  -14.7229   21.3123 O   0  0  0  0  0  0  0  0  0  0  0  0
  -20.7408  -22.7607   23.4167 O   0  0  0  0  0  0  0  0  0  0  0  0
  -19.0224  -22.4206   26.7523 O   0  0  0  0  0  0  0  0  0  0  0  0
  -22.9578  -23.5057   29.1722 O   0  0  0  0  0  0  0  0  0  0  0  0
  -31.8583  -14.9322   20.1908 O   0  0  0  0  0  0  0  0  0  0  0  0
  -21.6079   -7.0213   21.7109 O   0  0  0  0  0  0  0  0  0  0  0  0
  -27.0140  -20.9447   24.3410 O   0  0  0  0  0  0  0  0  0  1  0  0
  -16.4439   -6.8374   19.7864 F   0  0  0  0  0  0  0  0  0  0  0  0
  -20.8301   -5.0631   19.9211 F   0  0  0  0  0  0  0  0  0  0  0  0
  -32.6074  -15.5544   23.1414 Cl  0  0  0  0  0  0  0  0  0  0  0  0
  1  2  1  0  0  0  0
  1  5  2  0  0  0  0
  2  6  2  0  0  0  0
  3  8  2  0  0  0  0
  3 16  1  0  0  0  0
  4  9  1  0  0  0  0
  4 16  2  0  0  0  0
  5 18  1  0  0  0  0
  6 20  1  0  0  0  0
  7 10  2  0  0  0  0
  7 19  1  0  0  0  0
  8 26  1  0  0  0  0
  9 26  2  0  0  0  0
 10 27  1  0  0  0  0
 11 12  2  0  0  0  0
 11 28  1  0  0  0  0
 12 29  1  0  0  0  0
 13 21  1  0  0  0  0
 13 27  2  0  0  0  0
 14 22  2  0  0  0  0
 14 31  1  0  0  0  0
 15 29  2  0  0  0  0
 15 30  1  0  0  0  0
 16 32  1  0  0  0  0
 17 32  1  0  0  0  0
 17 33  2  0  0  0  0
 17 34  1  0  0  0  0
 18 20  2  0  0  0  0
 18 39  1  0  0  0  0
 19 21  2  0  0  0  0
 19 40  1  0  0  0  0
 20 48  1  0  0  0  0
 21 41  1  0  0  0  0
 22 23  1  0  0  0  0
 22 51  1  0  0  0  0
 23 24  2  0  0  0  0
 23 58  1  0  0  0  0
 24 25  1  0  0  0  0
 24 52  1  0  0  0  0
 25 31  2  0  0  0  0
 25 70  1  0  0  0  0
 26 79  1  0  0  0  0
 27 80  1  0  0  0  0
 28 30  2  0  0  0  0
 28 79  1  0  0  0  0
 29 81  1  0  0  0  0
 30 82  1  0  0  0  0
 31 83  1  0  0  0  0
 32 64  2  0  0  0  0
 33 65  1  0  0  0  0
 33 68  1  0  0  0  0
 34 69  1  0  0  0  0
 34 74  2  0  0  0  0
 35 49  1  0  0  0  0
 35 71  1  0  0  0  0
 35 75  2  0  0  0  0
 36 61  1  0  0  0  0
 36 66  1  0  0  0  0
 36 76  2  0  0  0  0
 37 62  1  0  0  0  0
 37 72  1  0  0  0  0
 37 77  2  0  0  0  0
 38 67  1  0  0  0  0
 38 70  1  0  0  0  0
 38 78  2  0  0  0  0
 39 42  1  0  0  0  0
 40 49  1  0  0  0  0
 41 66  1  0  0  0  0
 42 44  1  0  0  0  0
 43 45  1  0  0  0  0
 43 46  1  0  0  0  0
 44 48  1  0  0  0  0
 45 50  1  0  0  0  0
 46 67  1  0  0  0  0
 47 50  1  0  0  0  0
 47 67  1  0  0  0  0
 48 71  1  0  0  0  0
 49 66  1  0  0  0  0
 50 65  1  0  0  0  0
 53 62  1  0  0  0  0
 54 63  1  0  0  0  0
 55 63  1  0  0  0  0
 56 63  1  0  0  0  0
 57 73  1  0  0  0  0
 58 59  1  0  0  0  0
 59 60  1  0  0  0  0
 60 80  1  0  0  0  0
 61 63  1  0  0  0  0
 61 72  1  0  0  0  0
 62 73  1  0  0  0  0
 64 65  1  0  0  0  0
M  CHG  1  73   1
M  ISO  4  38 100  60 101  70 100  80 101
M  END
> <Batch ID>
0019

> <Smiles>
CNC(C)C(=O)NC(C(=O)N1Cc2cc([101O:1][101CH2:1]CCc3c(C)cc(Cl)c([100NH:0][100C:0](=O)N4CCCC(n5nc(-c6ccc(Oc7ccc(F)cc7F)cc6)c(C(N)=O)c5N)C4)c3C)ccc2CC1C(=O)NC1CCCc2ccccc21)C(C)(C)C

> <Shape>
0.167

> <Color>
0.200

> <Negative vol penalty>
0.000

$$$$

  -OEChem-04052316073D

 81 89  0     1  0  0  0  0  0999 V2000
  -23.3811  -17.4168   33.6615 C   0  0  0  0  0  0  0  0  0  0  0  0
  -24.6142  -16.9908   33.1784 C   0  0  0  0  0  0  0  0  0  0  0  0
  -23.1908   -9.8195   19.9319 C   0  0  0  0  0  0  0  0  0  0  0  0
  -23.5711   -9.9994   22.3110 C   0  0  0  0  0  0  0  0  0  0  0  0
  -22.4851  -16.4912   34.1948 C   0  0  0  0  0  0  0  0  0  0  0  0
  -24.9524  -15.6390   33.2292 C   0  0  0  0  0  0  0  0  0  0  0  0
  -27.0380  -13.9948   28.9173 C   0  0  0  0  0  0  0  0  0  0  0  0
  -31.4939  -15.7370   24.9349 C   0  0  0  0  0  0  0  0  0  0  0  0
  -32.0120  -15.1284   26.0780 C   0  0  0  0  0  0  0  0  0  0  0  0
  -22.4252   -8.6725   20.1409 C   0  0  0  0  0  0  0  0  0  0  0  0
  -22.8054   -8.8523   22.5201 C   0  0  0  0  0  0  0  0  0  0  0  0
  -28.3769  -14.3141   28.6954 C   0  0  0  0  0  0  0  0  0  0  0  0
  -23.2078   -5.5059   22.2547 C   0  0  0  0  0  0  0  0  0  0  0  0
  -23.7074   -4.5446   23.1332 C   0  0  0  0  0  0  0  0  0  0  0  0
  -29.0173  -12.1027   29.4157 C   0  0  0  0  0  0  0  0  0  0  0  0
  -21.7519   -4.8033   24.5283 C   0  0  0  0  0  0  0  0  0  0  0  0
  -23.7638  -10.4830   21.0169 C   0  0  0  0  0  0  0  0  0  0  0  0
  -24.1011  -12.9999   20.7736 C   0  0  0  0  0  0  0  0  0  0  0  0
  -22.8086  -15.1260   34.2433 C   0  0  0  0  0  0  0  0  0  0  0  0
  -26.6790  -12.7286   29.4012 C   0  0  0  0  0  0  0  0  0  0  0  0
  -24.0604  -14.6944   33.7648 C   0  0  0  0  0  0  0  0  0  0  0  0
  -27.6730  -11.7690   29.6404 C   0  0  0  0  0  0  0  0  0  0  0  0
  -31.0197  -14.9544   23.8821 C   0  0  0  0  0  0  0  0  0  0  0  0
  -32.0560  -13.7372   26.1684 C   0  0  0  0  0  0  0  0  0  0  0  0
  -31.0636  -13.5631   23.9725 C   0  0  0  0  0  0  0  0  0  0  0  0
  -22.2325   -8.1889   21.4350 C   0  0  0  0  0  0  0  0  0  0  0  0
  -29.3670  -13.3689   28.9473 C   0  0  0  0  0  0  0  0  0  0  0  0
  -21.9803   -6.1160   22.5130 C   0  0  0  0  0  0  0  0  0  0  0  0
  -22.9794   -4.1932   24.2700 C   0  0  0  0  0  0  0  0  0  0  0  0
  -21.2523   -5.7647   23.6498 C   0  0  0  0  0  0  0  0  0  0  0  0
  -31.5818  -12.9545   25.1157 C   0  0  0  0  0  0  0  0  0  0  0  0
  -24.5552  -11.6676   20.8015 C   0  0  0  0  0  0  0  0  0  0  0  0
  -25.2318  -13.7431   20.5375 C   0  0  0  0  0  0  0  0  0  0  0  0
  -22.7758  -13.5191   20.9457 C   0  0  0  0  0  0  0  0  0  0  0  0
  -25.2345  -11.6554   32.0215 C   0  0  0  0  0  0  0  0  0  0  0  0
  -25.4002   -8.8084   30.4757 C   0  0  0  0  0  0  0  0  0  0  0  0
  -26.9416   -6.8735   28.1248 C   0  0  0  0  0  0  0  0  0  0  0  0
  -31.0376  -12.7849   21.5767 C   0  0  0  0  0  0  0  0  0  0  0  0
  -21.8268  -14.1692   34.8721 C   0  0  0  0  0  0  0  0  0  0  0  0
  -25.2282  -12.3909   29.6100 C   0  0  0  0  0  0  0  0  0  0  0  0
  -27.3384  -10.3885   30.1413 C   0  0  0  0  0  0  0  0  0  0  0  0
  -22.1095  -12.7049   34.5463 C   0  0  0  0  0  0  0  0  0  0  0  0
  -29.5221  -13.4667   18.4278 C   0  0  0  0  0  0  0  0  0  0  0  0
  -23.5915  -12.3936   34.7303 C   0  0  0  0  0  0  0  0  0  0  0  0
  -28.0343  -13.2098   18.6782 C   0  0  0  0  0  0  0  0  0  0  0  0
  -30.4043  -12.4818   19.1930 C   0  0  0  0  0  0  0  0  0  0  0  0
  -28.6461  -12.1391   20.8842 C   0  0  0  0  0  0  0  0  0  0  0  0
  -24.4537  -13.2331   33.7799 C   0  0  1  0  0  0  0  0  0  0  0  0
  -25.0173  -11.2434   30.5929 C   0  0  1  0  0  0  0  0  0  0  0  0
  -27.7192  -13.1473   20.1857 C   0  0  2  0  0  0  0  0  0  0  0  0
  -30.4696  -15.6379   22.6721 C   0  0  0  0  0  0  0  0  0  0  0  0
  -27.3441   -4.8903   26.6408 C   0  0  0  0  0  0  0  0  0  0  0  0
  -26.7531   -7.6773   32.9657 C   0  0  0  0  0  0  0  0  0  0  0  0
  -27.5048   -5.7277   31.5865 C   0  0  0  0  0  0  0  0  0  0  0  0
  -25.0693   -6.1578   31.9120 C   0  0  0  0  0  0  0  0  0  0  0  0
  -25.1949   -7.9636   25.9988 C   0  0  0  0  0  0  0  0  0  0  0  0
  -32.6276  -13.1246   27.4239 C   0  0  0  0  0  0  0  0  0  0  0  0
  -31.5429  -12.6077   28.3627 C   0  0  0  0  0  0  0  0  0  1  0  0
  -26.4076   -7.6862   30.4070 C   0  0  1  0  0  0  0  0  0  0  0  0
  -26.3842   -6.0118   27.0063 C   0  0  2  0  0  0  0  0  0  0  0  0
  -26.4405   -6.8388   31.7102 C   0  0  0  0  0  0  0  0  0  0  0  0
  -25.8716  -11.5672   20.5992 N   0  0  0  0  0  0  0  0  0  0  0  0
  -26.2545  -12.8458   20.4418 N   0  0  0  0  0  0  0  0  0  0  0  0
  -25.9062  -10.1085   30.3360 N   0  0  0  0  0  0  0  0  0  0  0  0
  -30.0518  -12.4798   20.6144 N   0  0  0  0  0  0  0  0  0  0  0  0
  -25.4410  -15.0701   20.4045 N   0  0  0  0  0  0  0  0  0  0  0  0
  -21.7298  -12.6163   21.1804 N   0  0  0  0  0  0  0  0  0  0  0  0
  -30.5779  -12.7840   22.8932 N   0  0  0  0  0  0  0  0  0  0  0  0
  -24.4125  -12.6837   32.4416 N   0  0  0  0  0  0  0  0  0  0  0  0
  -26.0871   -6.9229   29.2058 N   0  0  0  0  0  0  0  0  0  0  0  0
  -26.1401   -6.8367   25.7894 N   0  3  0  0  0  0  0  0  0  0  0  0
  -22.5240  -14.7460   20.8766 O   0  0  0  0  0  0  0  0  0  0  0  0
  -26.0839  -11.0819   32.6932 O   0  0  0  0  0  0  0  0  0  0  0  0
  -24.2072   -8.5409   30.6399 O   0  0  0  0  0  0  0  0  0  0  0  0
  -28.0283   -7.4427   28.0487 O   0  0  0  0  0  0  0  0  0  0  0  0
  -32.1972  -13.0555   21.2544 O   0  0  0  0  0  0  0  0  0  0  0  0
  -21.4853   -7.0697   21.6394 O   0  0  0  0  0  0  0  0  0  0  0  0
  -30.6747  -13.6781   28.7322 O   0  0  0  0  0  0  0  0  0  1  0  0
  -23.4586   -3.2689   25.1127 F   0  0  0  0  0  0  0  0  0  0  0  0
  -20.0719   -6.3465   23.9026 F   0  0  0  0  0  0  0  0  0  0  0  0
  -31.6432  -11.2256   25.2368 Cl  0  0  0  0  0  0  0  0  0  0  0  0
  1  2  1  0  0  0  0
  1  5  2  0  0  0  0
  2  6  2  0  0  0  0
  3 10  2  0  0  0  0
  3 17  1  0  0  0  0
  4 11  1  0  0  0  0
  4 17  2  0  0  0  0
  5 19  1  0  0  0  0
  6 21  1  0  0  0  0
  7 12  2  0  0  0  0
  7 20  1  0  0  0  0
  8  9  2  0  0  0  0
  8 23  1  0  0  0  0
  9 24  1  0  0  0  0
 10 26  1  0  0  0  0
 11 26  2  0  0  0  0
 12 27  1  0  0  0  0
 13 14  2  0  0  0  0
 13 28  1  0  0  0  0
 14 29  1  0  0  0  0
 15 22  1  0  0  0  0
 15 27  2  0  0  0  0
 16 29  2  0  0  0  0
 16 30  1  0  0  0  0
 17 32  1  0  0  0  0
 18 32  1  0  0  0  0
 18 33  2  0  0  0  0
 18 34  1  0  0  0  0
 19 21  2  0  0  0  0
 19 39  1  0  0  0  0
 20 22  2  0  0  0  0
 20 40  1  0  0  0  0
 21 48  1  0  0  0  0
 22 41  1  0  0  0  0
 23 25  2  0  0  0  0
 23 51  1  0  0  0  0
 24 31  2  0  0  0  0
 24 57  1  0  0  0  0
 25 31  1  0  0  0  0
 25 68  1  0  0  0  0
 26 77  1  0  0  0  0
 27 78  1  0  0  0  0
 28 30  2  0  0  0  0
 28 77  1  0  0  0  0
 29 79  1  0  0  0  0
 30 80  1  0  0  0  0
 31 81  1  0  0  0  0
 32 62  2  0  0  0  0
 33 63  1  0  0  0  0
 33 66  1  0  0  0  0
 34 67  1  0  0  0  0
 34 72  2  0  0  0  0
 35 49  1  0  0  0  0
 35 69  1  0  0  0  0
 35 73  2  0  0  0  0
 36 59  1  0  0  0  0
 36 64  1  0  0  0  0
 36 74  2  0  0  0  0
 37 60  1  0  0  0  0
 37 70  1  0  0  0  0
 37 75  2  0  0  0  0
 38 65  1  0  0  0  0
 38 68  1  0  0  0  0
 38 76  2  0  0  0  0
 39 42  1  0  0  0  0
 40 49  1  0  0  0  0
 41 64  1  0  0  0  0
 42 44  1  0  0  0  0
 43 45  1  0  0  0  0
 43 46  1  0  0  0  0
 44 48  1  0  0  0  0
 45 50  1  0  0  0  0
 46 65  1  0  0  0  0
 47 50  1  0  0  0  0
 47 65  1  0  0  0  0
 48 69  1  0  0  0  0
 49 64  1  0  0  0  0
 50 63  1  0  0  0  0
 52 60  1  0  0  0  0
 53 61  1  0  0  0  0
 54 61  1  0  0  0  0
 55 61  1  0  0  0  0
 56 71  1  0  0  0  0
 57 58  1  0  0  0  0
 58 78  1  0  0  0  0
 59 61  1  0  0  0  0
 59 70  1  0  0  0  0
 60 71  1  0  0  0  0
 62 63  1  0  0  0  0
M  CHG  1  71   1
M  ISO  4  38 100  58 101  68 100  78 101
M  END
> <Batch ID>
0019

> <Smiles>
CNC(C)C(=O)NC(C(=O)N1Cc2cc([101O:1][101CH2:1]Cc3ccc(C)c([100NH:0][100C:0](=O)N4CCCC(n5nc(-c6ccc(Oc7ccc(F)cc7F)cc6)c(C(N)=O)c5N)C4)c3Cl)ccc2CC1C(=O)NC1CCCc2ccccc21)C(C)(C)C

> <Shape>
0.148

> <Color>
0.190

> <Negative vol penalty>
0.000

$$$$

  -OEChem-04052316073D

 84 92  0     1  0  0  0  0  0999 V2000
  -23.6729  -21.9929   17.9858 C   0  0  0  0  0  0  0  0  0  0  0  0
  -23.5647  -22.8397   19.0832 C   0  0  0  0  0  0  0  0  0  0  0  0
  -27.7384  -14.6559   21.8569 C   0  0  0  0  0  0  0  0  0  0  0  0
  -27.2695  -14.9830   19.5095 C   0  0  0  0  0  0  0  0  0  0  0  0
  -22.7478  -22.0818   16.9478 C   0  0  0  0  0  0  0  0  0  0  0  0
  -22.5245  -23.7673   19.1486 C   0  0  0  0  0  0  0  0  0  0  0  0
  -22.0357  -26.2850   23.3469 C   0  0  0  0  0  0  0  0  0  0  0  0
  -27.0420  -13.4477   21.8277 C   0  0  0  0  0  0  0  0  0  0  0  0
  -26.5732  -13.7747   19.4803 C   0  0  0  0  0  0  0  0  0  0  0  0
  -22.9256  -27.2862   23.7333 C   0  0  0  0  0  0  0  0  0  0  0  0
  -23.8194  -12.4290   21.8698 C   0  0  0  0  0  0  0  0  0  0  0  0
  -22.9273  -12.1707   22.9105 C   0  0  0  0  0  0  0  0  0  0  0  0
  -21.3131  -28.9602   23.0877 C   0  0  0  0  0  0  0  0  0  0  0  0
  -25.1182  -28.5611   19.7187 C   0  0  0  0  0  0  0  0  0  0  0  0
  -27.0732  -28.6582   21.1348 C   0  0  0  0  0  0  0  0  0  0  0  0
  -24.1858  -10.1940   23.4987 C   0  0  0  0  0  0  0  0  0  0  0  0
  -27.8521  -15.4236   20.6978 C   0  0  0  0  0  0  0  0  0  0  0  0
  -29.9427  -16.8692   20.4808 C   0  0  0  0  0  0  0  0  0  0  0  0
  -21.7033  -23.0198   16.9955 C   0  0  0  0  0  0  0  0  0  0  0  0
  -20.7799  -26.6145   22.8169 C   0  0  0  0  0  0  0  0  0  0  0  0
  -21.5668  -23.8561   18.1221 C   0  0  0  0  0  0  0  0  0  0  0  0
  -20.4081  -27.9612   22.6977 C   0  0  0  0  0  0  0  0  0  0  0  0
  -26.7900  -26.8216   19.5908 C   0  0  0  0  0  0  0  0  0  0  0  0
  -26.4594  -13.0071   20.6394 C   0  0  0  0  0  0  0  0  0  0  0  0
  -22.5655  -28.6241   23.6010 C   0  0  0  0  0  0  0  0  0  0  0  0
  -24.8947  -11.5698   21.6435 C   0  0  0  0  0  0  0  0  0  0  0  0
  -25.8643  -29.2056   20.7054 C   0  0  0  0  0  0  0  0  0  0  0  0
  -23.1105  -11.0533   23.7249 C   0  0  0  0  0  0  0  0  0  0  0  0
  -25.0779  -10.4523   22.4580 C   0  0  0  0  0  0  0  0  0  0  0  0
  -25.5811  -27.3690   19.1614 C   0  0  0  0  0  0  0  0  0  0  0  0
  -27.5361  -27.4661   20.5775 C   0  0  0  0  0  0  0  0  0  0  0  0
  -28.5709  -16.6720   20.7275 C   0  0  0  0  0  0  0  0  0  0  0  0
  -30.1278  -18.2218   20.6314 C   0  0  0  0  0  0  0  0  0  0  0  0
  -30.9590  -15.9150   20.1453 C   0  0  0  0  0  0  0  0  0  0  0  0
  -19.3222  -26.1296   20.0342 C   0  0  0  0  0  0  0  0  0  0  0  0
  -16.7884  -27.4429   21.5761 C   0  0  0  0  0  0  0  0  0  0  0  0
  -15.6497  -29.4500   24.0904 C   0  0  0  0  0  0  0  0  0  0  0  0
  -27.4505  -23.1219   19.5209 C   0  0  0  0  0  0  0  0  0  0  0  0
  -20.7253  -23.0677   15.8481 C   0  0  0  0  0  0  0  0  0  0  0  0
  -19.8209  -25.5223   22.4297 C   0  0  0  0  0  0  0  0  0  0  0  0
  -19.0638  -28.3675   22.1534 C   0  0  0  0  0  0  0  0  0  0  0  0
  -19.9305  -24.3686   15.7984 C   0  0  0  0  0  0  0  0  0  0  0  0
  -27.6476  -21.8474   22.9024 C   0  0  0  0  0  0  0  0  0  0  0  0
  -19.3471  -24.6740   17.1699 C   0  0  0  0  0  0  0  0  0  0  0  0
  -28.0432  -20.3904   22.6557 C   0  0  0  0  0  0  0  0  0  0  0  0
  -26.6708  -22.3425   21.8398 C   0  0  0  0  0  0  0  0  0  0  0  0
  -27.5526  -20.7378   20.1902 C   0  0  0  0  0  0  0  0  0  0  0  0
  -20.4615  -24.8937   18.2008 C   0  0  1  0  0  0  0  0  0  0  0  0
  -18.7695  -25.9795   21.4233 C   0  0  1  0  0  0  0  0  0  0  0  0
  -28.5564  -20.1849   21.2181 C   0  0  2  0  0  0  0  0  0  0  0  0
  -13.5298  -30.3619   25.0762 C   0  0  0  0  0  0  0  0  0  0  0  0
  -16.5700  -29.4250   19.2667 C   0  0  0  0  0  0  0  0  0  0  0  0
  -15.1114  -30.8500   20.7194 C   0  0  0  0  0  0  0  0  0  0  0  0
  -14.3810  -28.5470   20.0985 C   0  0  0  0  0  0  0  0  0  0  0  0
  -16.1632  -28.1447   26.6965 C   0  0  0  0  0  0  0  0  0  0  0  0
  -27.2871  -25.5409   18.9928 C   0  0  0  0  0  0  0  0  0  0  0  0
  -24.7217  -31.5131   23.2610 C   0  0  0  0  0  0  0  0  0  0  0  0
  -23.3569  -30.8427   23.2735 C   0  0  0  0  0  0  0  0  0  1  0  0
  -25.7775  -30.6417   22.5990 C   0  0  0  0  0  0  0  0  0  0  0  0
  -16.2602  -28.8446   21.7634 C   0  0  1  0  0  0  0  0  0  0  0  0
  -14.5608  -29.2451   25.1280 C   0  0  2  0  0  0  0  0  0  0  0  0
  -15.6068  -29.4093   20.4705 C   0  0  0  0  0  0  0  0  0  0  0  0
  -27.9298  -17.8084   21.0134 N   0  0  0  0  0  0  0  0  0  0  0  0
  -28.9032  -18.7326   20.9473 N   0  0  0  0  0  0  0  0  0  0  0  0
  -18.1635  -27.2631   21.7828 N   0  0  0  0  0  0  0  0  0  0  0  0
  -27.2273  -22.1350   20.4954 N   0  0  0  0  0  0  0  0  0  0  0  0
  -31.2168  -19.0121   20.5233 N   0  0  0  0  0  0  0  0  0  0  0  0
  -30.5969  -14.5659   20.0304 N   0  0  0  0  0  0  0  0  0  0  0  0
  -19.8750  -24.9720   19.5205 N   0  0  0  0  0  0  0  0  0  0  0  0
  -15.3631  -28.7927   22.9127 N   0  0  0  0  0  0  0  0  0  0  0  0
  -27.1094  -24.4183   19.8868 N   0  0  0  0  0  0  0  0  0  0  0  0
  -15.1492  -29.2119   26.4968 N   0  3  0  0  0  0  0  0  0  0  0  0
  -32.1558  -16.2466   19.9692 O   0  0  0  0  0  0  0  0  0  0  0  0
  -19.2510  -27.2148   19.4696 O   0  0  0  0  0  0  0  0  0  0  0  0
  -16.0084  -26.5392   21.2652 O   0  0  0  0  0  0  0  0  0  0  0  0
  -16.6524  -30.1285   24.3021 O   0  0  0  0  0  0  0  0  0  0  0  0
  -27.9241  -22.8674   18.4083 O   0  0  0  0  0  0  0  0  0  0  0  0
  -25.7800  -11.8280   20.6104 O   0  0  0  0  0  0  0  0  0  0  0  0
  -23.4325  -29.6034   23.9768 O   0  0  0  0  0  0  0  0  0  1  0  0
  -25.4096  -30.3774   21.2520 O   0  0  0  0  0  0  0  0  0  0  0  0
  -22.2546  -10.8062   24.7252 F   0  0  0  0  0  0  0  0  0  0  0  0
  -26.1098   -9.6239   22.2462 F   0  0  0  0  0  0  0  0  0  0  0  0
  -24.6264  -26.6054   17.9422 Cl  0  0  0  0  0  0  0  0  0  0  0  0
  -29.0375  -26.8228   21.1392 Cl  0  0  0  0  0  0  0  0  0  0  0  0
  1  2  1  0  0  0  0
  1  5  2  0  0  0  0
  2  6  2  0  0  0  0
  3  8  2  0  0  0  0
  3 17  1  0  0  0  0
  4  9  1  0  0  0  0
  4 17  2  0  0  0  0
  5 19  1  0  0  0  0
  6 21  1  0  0  0  0
  7 10  2  0  0  0  0
  7 20  1  0  0  0  0
  8 24  1  0  0  0  0
  9 24  2  0  0  0  0
 10 25  1  0  0  0  0
 11 12  2  0  0  0  0
 11 26  1  0  0  0  0
 12 28  1  0  0  0  0
 13 22  1  0  0  0  0
 13 25  2  0  0  0  0
 14 27  1  0  0  0  0
 14 30  2  0  0  0  0
 15 27  2  0  0  0  0
 15 31  1  0  0  0  0
 16 28  2  0  0  0  0
 16 29  1  0  0  0  0
 17 32  1  0  0  0  0
 18 32  1  0  0  0  0
 18 33  2  0  0  0  0
 18 34  1  0  0  0  0
 19 21  2  0  0  0  0
 19 39  1  0  0  0  0
 20 22  2  0  0  0  0
 20 40  1  0  0  0  0
 21 48  1  0  0  0  0
 22 41  1  0  0  0  0
 23 30  1  0  0  0  0
 23 31  2  0  0  0  0
 23 56  1  0  0  0  0
 24 78  1  0  0  0  0
 25 79  1  0  0  0  0
 26 29  2  0  0  0  0
 26 78  1  0  0  0  0
 27 80  1  0  0  0  0
 28 81  1  0  0  0  0
 29 82  1  0  0  0  0
 30 83  1  0  0  0  0
 31 84  1  0  0  0  0
 32 63  2  0  0  0  0
 33 64  1  0  0  0  0
 33 67  1  0  0  0  0
 34 68  1  0  0  0  0
 34 73  2  0  0  0  0
 35 49  1  0  0  0  0
 35 69  1  0  0  0  0
 35 74  2  0  0  0  0
 36 60  1  0  0  0  0
 36 65  1  0  0  0  0
 36 75  2  0  0  0  0
 37 61  1  0  0  0  0
 37 70  1  0  0  0  0
 37 76  2  0  0  0  0
 38 66  1  0  0  0  0
 38 71  1  0  0  0  0
 38 77  2  0  0  0  0
 39 42  1  0  0  0  0
 40 49  1  0  0  0  0
 41 65  1  0  0  0  0
 42 44  1  0  0  0  0
 43 45  1  0  0  0  0
 43 46  1  0  0  0  0
 44 48  1  0  0  0  0
 45 50  1  0  0  0  0
 46 66  1  0  0  0  0
 47 50  1  0  0  0  0
 47 66  1  0  0  0  0
 48 69  1  0  0  0  0
 49 65  1  0  0  0  0
 50 64  1  0  0  0  0
 51 61  1  0  0  0  0
 52 62  1  0  0  0  0
 53 62  1  0  0  0  0
 54 62  1  0  0  0  0
 55 72  1  0  0  0  0
 56 71  1  0  0  0  0
 57 58  1  0  0  0  0
 57 59  1  0  0  0  0
 58 79  1  0  0  0  0
 59 80  1  0  0  0  0
 60 62  1  0  0  0  0
 60 70  1  0  0  0  0
 61 72  1  0  0  0  0
 63 64  1  0  0  0  0
M  CHG  1  72   1
M  ISO  4  38 100  58 101  71 100  79 101
M  END
> <Batch ID>
0019

> <Smiles>
CNC(C)C(=O)NC(C(=O)N1Cc2cc([101O:1][101CH2:1]CCOc3cc(Cl)c(C[100NH:0][100C:0](=O)N4CCCC(n5nc(-c6ccc(Oc7ccc(F)cc7F)cc6)c(C(N)=O)c5N)C4)c(Cl)c3)ccc2CC1C(=O)NC1CCCc2ccccc21)C(C)(C)C

> <Shape>
0.256

> <Color>
0.060

> <Negative vol penalty>
0.000

$$$$

  -OEChem-04052316073D

 84 92  0     1  0  0  0  0  0999 V2000
  -27.5773  -25.5429   29.8130 C   0  0  0  0  0  0  0  0  0  0  0  0
  -27.6945  -24.1686   29.6314 C   0  0  0  0  0  0  0  0  0  0  0  0
  -23.1861   -9.8256   19.9344 C   0  0  0  0  0  0  0  0  0  0  0  0
  -23.5700  -10.0041   22.3130 C   0  0  0  0  0  0  0  0  0  0  0  0
  -26.8806  -26.3112   28.8812 C   0  0  0  0  0  0  0  0  0  0  0  0
  -27.1141  -23.5616   28.5183 C   0  0  0  0  0  0  0  0  0  0  0  0
  -30.2041  -20.2221   26.2946 C   0  0  0  0  0  0  0  0  0  0  0  0
  -22.4160   -8.6818   20.1445 C   0  0  0  0  0  0  0  0  0  0  0  0
  -22.7999   -8.8603   22.5231 C   0  0  0  0  0  0  0  0  0  0  0  0
  -30.3328  -18.9727   26.8998 C   0  0  0  0  0  0  0  0  0  0  0  0
  -23.1879   -5.5122   22.2575 C   0  0  0  0  0  0  0  0  0  0  0  0
  -23.6845   -4.5488   23.1355 C   0  0  0  0  0  0  0  0  0  0  0  0
  -28.7832  -18.0451   25.3006 C   0  0  0  0  0  0  0  0  0  0  0  0
  -30.6160  -13.5401   25.3037 C   0  0  0  0  0  0  0  0  0  0  0  0
  -21.7318   -4.8158   24.5330 C   0  0  0  0  0  0  0  0  0  0  0  0
  -32.1154  -14.4412   23.8861 C   0  0  0  0  0  0  0  0  0  0  0  0
  -23.7632  -10.4868   21.0186 C   0  0  0  0  0  0  0  0  0  0  0  0
  -24.1108  -13.0022   20.7747 C   0  0  0  0  0  0  0  0  0  0  0  0
  -26.2996  -25.7146   27.7510 C   0  0  0  0  0  0  0  0  0  0  0  0
  -29.3541  -20.3950   25.1927 C   0  0  0  0  0  0  0  0  0  0  0  0
  -26.4078  -24.3224   27.5711 C   0  0  0  0  0  0  0  0  0  0  0  0
  -28.6474  -19.2971   24.6816 C   0  0  0  0  0  0  0  0  0  0  0  0
  -31.0795  -13.5369   23.9649 C   0  0  0  0  0  0  0  0  0  0  0  0
  -22.2228   -8.1991   21.4388 C   0  0  0  0  0  0  0  0  0  0  0  0
  -29.6202  -17.8846   26.4046 C   0  0  0  0  0  0  0  0  0  0  0  0
  -21.9633   -6.1275   22.5173 C   0  0  0  0  0  0  0  0  0  0  0  0
  -22.9565   -4.2006   24.2732 C   0  0  0  0  0  0  0  0  0  0  0  0
  -21.2352   -5.7792   23.6550 C   0  0  0  0  0  0  0  0  0  0  0  0
  -24.5593  -11.6681   20.8022 C   0  0  0  0  0  0  0  0  0  0  0  0
  -31.3827  -14.4465   26.0022 C   0  0  0  0  0  0  0  0  0  0  0  0
  -25.2442  -13.7406   20.5372 C   0  0  0  0  0  0  0  0  0  0  0  0
  -22.7879  -13.5270   20.9484 C   0  0  0  0  0  0  0  0  0  0  0  0
  -26.7575  -22.1347   24.6140 C   0  0  0  0  0  0  0  0  0  0  0  0
  -27.1374  -20.9905   21.6025 C   0  0  0  0  0  0  0  0  0  0  0  0
  -28.3917  -18.5574   19.5644 C   0  0  0  0  0  0  0  0  0  0  0  0
  -31.0472  -12.7583   21.5693 C   0  0  0  0  0  0  0  0  0  0  0  0
  -25.5158  -26.5794   26.7958 C   0  0  0  0  0  0  0  0  0  0  0  0
  -29.2468  -21.7433   24.5346 C   0  0  0  0  0  0  0  0  0  0  0  0
  -27.7374  -19.4256   23.4884 C   0  0  0  0  0  0  0  0  0  0  0  0
  -25.2503  -25.9127   25.4485 C   0  0  0  0  0  0  0  0  0  0  0  0
  -29.5307  -13.4459   18.4221 C   0  0  0  0  0  0  0  0  0  0  0  0
  -24.7579  -24.4829   25.6482 C   0  0  0  0  0  0  0  0  0  0  0  0
  -28.0422  -13.1953   18.6744 C   0  0  0  0  0  0  0  0  0  0  0  0
  -30.4098  -12.4575   19.1864 C   0  0  0  0  0  0  0  0  0  0  0  0
  -28.6522  -12.1224   20.8798 C   0  0  0  0  0  0  0  0  0  0  0  0
  -25.8133  -23.6308   26.3635 C   0  0  1  0  0  0  0  0  0  0  0  0
  -27.9581  -21.9179   23.7370 C   0  0  1  0  0  0  0  0  0  0  0  0
  -27.7287  -13.1344   20.1823 C   0  0  2  0  0  0  0  0  0  0  0  0
  -34.1111  -19.5061   24.0638 C   0  0  0  0  0  0  0  0  0  0  0  0
  -28.5090  -17.8754   17.1523 C   0  0  0  0  0  0  0  0  0  0  0  0
  -32.6345  -14.5812   28.2592 C   0  0  0  0  0  0  0  0  0  0  0  0
  -30.2083  -14.0461   28.1885 C   0  0  0  0  0  0  0  0  0  0  0  0
  -24.2419  -20.0371   21.7338 C   0  0  0  0  0  0  0  0  0  0  0  0
  -24.7070  -18.5745   19.7557 C   0  0  0  0  0  0  0  0  0  0  0  0
  -24.9079  -21.0521   19.5474 C   0  0  0  0  0  0  0  0  0  0  0  0
  -31.3464  -18.7247   19.5406 C   0  0  0  0  0  0  0  0  0  0  0  0
  -34.2183  -18.2714   24.9443 C   0  0  0  0  0  0  0  0  0  0  0  0
  -33.1487  -17.2385   24.5929 C   0  0  0  0  0  0  0  0  0  0  0  0
  -33.2880  -15.9843   25.4544 C   0  0  0  0  0  0  0  0  0  0  0  0
  -30.9936  -16.3657   27.6139 C   0  0  0  0  0  0  0  0  0  1  0  0
  -26.6544  -19.7725   20.8528 C   0  0  1  0  0  0  0  0  0  0  0  0
  -29.1933  -18.6357   18.2777 C   0  0  2  0  0  0  0  0  0  0  0  0
  -31.3223  -14.8558   27.4858 C   0  0  0  0  0  0  0  0  0  0  0  0
  -25.1434  -19.8567   20.4961 C   0  0  0  0  0  0  0  0  0  0  0  0
  -25.8750  -11.5621   20.5983 N   0  0  0  0  0  0  0  0  0  0  0  0
  -32.2907  -14.9884   25.1304 N   0  0  0  0  0  0  0  0  0  0  0  0
  -26.2630  -12.8390   20.4403 N   0  0  0  0  0  0  0  0  0  0  0  0
  -27.6611  -20.7657   22.8836 N   0  0  0  0  0  0  0  0  0  0  0  0
  -30.0590  -12.4572   20.6083 N   0  0  0  0  0  0  0  0  0  0  0  0
  -25.4588  -15.0667   20.4037 N   0  0  0  0  0  0  0  0  0  0  0  0
  -21.7383  -12.6286   21.1845 N   0  0  0  0  0  0  0  0  0  0  0  0
  -30.5892  -12.7596   22.8864 N   0  0  0  0  0  0  0  0  0  0  0  0
  -26.8562  -23.2379   25.4402 N   0  0  0  0  0  0  0  0  0  0  0  0
  -27.5339  -19.6287   19.6978 N   0  0  0  0  0  0  0  0  0  0  0  0
  -30.5519  -18.0568   18.4778 N   0  3  0  0  0  0  0  0  0  0  0  0
  -22.5411  -14.7550   20.8795 O   0  0  0  0  0  0  0  0  0  0  0  0
  -25.8111  -21.3593   24.5451 O   0  0  0  0  0  0  0  0  0  0  0  0
  -27.0597  -22.0996   21.0683 O   0  0  0  0  0  0  0  0  0  0  0  0
  -28.5116  -17.6360   20.3689 O   0  0  0  0  0  0  0  0  0  0  0  0
  -32.2076  -13.0241   21.2455 O   0  0  0  0  0  0  0  0  0  0  0  0
  -21.4712   -7.0831   21.6443 O   0  0  0  0  0  0  0  0  0  0  0  0
  -29.7435  -16.6642   26.9938 O   0  0  0  0  0  0  0  0  0  1  0  0
  -23.4328   -3.2743   25.1155 F   0  0  0  0  0  0  0  0  0  0  0  0
  -20.0576   -6.3660   23.9093 F   0  0  0  0  0  0  0  0  0  0  0  0
  1  2  1  0  0  0  0
  1  5  2  0  0  0  0
  2  6  2  0  0  0  0
  3  8  2  0  0  0  0
  3 17  1  0  0  0  0
  4  9  1  0  0  0  0
  4 17  2  0  0  0  0
  5 19  1  0  0  0  0
  6 21  1  0  0  0  0
  7 10  2  0  0  0  0
  7 20  1  0  0  0  0
  8 24  1  0  0  0  0
  9 24  2  0  0  0  0
 10 25  1  0  0  0  0
 11 12  2  0  0  0  0
 11 26  1  0  0  0  0
 12 27  1  0  0  0  0
 13 22  1  0  0  0  0
 13 25  2  0  0  0  0
 14 23  1  0  0  0  0
 14 30  2  0  0  0  0
 15 27  2  0  0  0  0
 15 28  1  0  0  0  0
 16 23  2  0  0  0  0
 16 66  1  0  0  0  0
 17 29  1  0  0  0  0
 18 29  1  0  0  0  0
 18 31  2  0  0  0  0
 18 32  1  0  0  0  0
 19 21  2  0  0  0  0
 19 37  1  0  0  0  0
 20 22  2  0  0  0  0
 20 38  1  0  0  0  0
 21 46  1  0  0  0  0
 22 39  1  0  0  0  0
 23 72  1  0  0  0  0
 24 81  1  0  0  0  0
 25 82  1  0  0  0  0
 26 28  2  0  0  0  0
 26 81  1  0  0  0  0
 27 83  1  0  0  0  0
 28 84  1  0  0  0  0
 29 65  2  0  0  0  0
 30 63  1  0  0  0  0
 30 66  1  0  0  0  0
 31 67  1  0  0  0  0
 31 70  1  0  0  0  0
 32 71  1  0  0  0  0
 32 76  2  0  0  0  0
 33 47  1  0  0  0  0
 33 73  1  0  0  0  0
 33 77  2  0  0  0  0
 34 61  1  0  0  0  0
 34 68  1  0  0  0  0
 34 78  2  0  0  0  0
 35 62  1  0  0  0  0
 35 74  1  0  0  0  0
 35 79  2  0  0  0  0
 36 69  1  0  0  0  0
 36 72  1  0  0  0  0
 36 80  2  0  0  0  0
 37 40  1  0  0  0  0
 38 47  1  0  0  0  0
 39 68  1  0  0  0  0
 40 42  1  0  0  0  0
 41 43  1  0  0  0  0
 41 44  1  0  0  0  0
 42 46  1  0  0  0  0
 43 48  1  0  0  0  0
 44 69  1  0  0  0  0
 45 48  1  0  0  0  0
 45 69  1  0  0  0  0
 46 73  1  0  0  0  0
 47 68  1  0  0  0  0
 48 67  1  0  0  0  0
 49 57  1  0  0  0  0
 50 62  1  0  0  0  0
 51 63  1  0  0  0  0
 52 63  1  0  0  0  0
 53 64  1  0  0  0  0
 54 64  1  0  0  0  0
 55 64  1  0  0  0  0
 56 75  1  0  0  0  0
 57 58  1  0  0  0  0
 58 59  1  0  0  0  0
 59 66  1  0  0  0  0
 60 63  1  0  0  0  0
 60 82  1  0  0  0  0
 61 64  1  0  0  0  0
 61 74  1  0  0  0  0
 62 75  1  0  0  0  0
 65 67  1  0  0  0  0
M  CHG  1  75   1
M  ISO  4  36 100  60 101  72 100  82 101
M  END
> <Batch ID>
0019

> <Smiles>
CCCCn1cc([100NH:0][100C:0](=O)N2CCCC(n3nc(-c4ccc(Oc5ccc(F)cc5F)cc4)c(C(N)=O)c3N)C2)cc1C(C)(C)[101CH2:1][101O:1]c1ccc2c(c1)CN(C(=O)C(NC(=O)C(C)NC)C(C)(C)C)C(C(=O)NC1CCCc3ccccc31)C2

> <Shape>
0.182

> <Color>
0.183

> <Negative vol penalty>
0.000

$$$$

  -OEChem-04052316073D

 98106  0     1  0  0  0  0  0999 V2000
  -27.9661  -24.3542   16.7274 C   0  0  0  0  0  0  0  0  0  0  0  0
  -26.7868  -24.5748   17.4317 C   0  0  0  0  0  0  0  0  0  0  0  0
  -27.4540  -15.5621   19.0780 C   0  0  0  0  0  0  0  0  0  0  0  0
  -25.5481  -16.2171   20.4106 C   0  0  0  0  0  0  0  0  0  0  0  0
  -29.1738  -24.8461   17.2208 C   0  0  0  0  0  0  0  0  0  0  0  0
  -26.8147  -25.2865   18.6305 C   0  0  0  0  0  0  0  0  0  0  0  0
  -23.1003  -28.7145   18.9415 C   0  0  0  0  0  0  0  0  0  0  0  0
  -27.2496  -14.2307   19.4401 C   0  0  0  0  0  0  0  0  0  0  0  0
  -25.3437  -14.8856   20.7727 C   0  0  0  0  0  0  0  0  0  0  0  0
  -21.8260  -28.2457   19.2579 C   0  0  0  0  0  0  0  0  0  0  0  0
  -24.1024  -11.6140   21.7595 C   0  0  0  0  0  0  0  0  0  0  0  0
  -22.7974  -11.1230   21.7186 C   0  0  0  0  0  0  0  0  0  0  0  0
  -22.1487  -28.9318   21.5479 C   0  0  0  0  0  0  0  0  0  0  0  0
  -22.6852  -11.6177   19.3564 C   0  0  0  0  0  0  0  0  0  0  0  0
  -26.6032  -16.5553   19.5633 C   0  0  0  0  0  0  0  0  0  0  0  0
  -26.8015  -18.4705   17.8899 C   0  0  0  0  0  0  0  0  0  0  0  0
  -29.2151  -25.5725   18.4214 C   0  0  0  0  0  0  0  0  0  0  0  0
  -23.9140  -29.2866   19.9300 C   0  0  0  0  0  0  0  0  0  0  0  0
  -28.0243  -25.7874   19.1411 C   0  0  0  0  0  0  0  0  0  0  0  0
  -23.4319  -29.4095   21.2410 C   0  0  0  0  0  0  0  0  0  0  0  0
  -26.1945  -13.8924   20.2874 C   0  0  0  0  0  0  0  0  0  0  0  0
  -21.3511  -28.3516   20.5619 C   0  0  0  0  0  0  0  0  0  0  0  0
  -24.6987  -12.1069   20.5988 C   0  0  0  0  0  0  0  0  0  0  0  0
  -22.0889  -11.1248   20.5171 C   0  0  0  0  0  0  0  0  0  0  0  0
  -23.9902  -12.1087   19.3973 C   0  0  0  0  0  0  0  0  0  0  0  0
  -26.8142  -17.9309   19.1900 C   0  0  0  0  0  0  0  0  0  0  0  0
  -27.0515  -19.8088   18.0711 C   0  0  0  0  0  0  0  0  0  0  0  0
  -26.5831  -17.8202   16.6309 C   0  0  0  0  0  0  0  0  0  0  0  0
  -26.7367  -28.5698   21.2035 C   0  0  0  0  0  0  0  0  0  0  0  0
  -19.9930  -24.2453   21.1903 C   0  0  0  0  0  0  0  0  0  0  0  0
  -18.0092  -24.6697   18.5954 C   0  0  0  0  0  0  0  0  0  0  0  0
  -26.3376  -31.4104   22.7181 C   0  0  0  0  0  0  0  0  0  0  0  0
  -24.1951  -33.8080   23.8617 C   0  0  0  0  0  0  0  0  0  0  0  0
  -26.2042  -23.5267   22.6874 C   0  0  0  0  0  0  0  0  0  0  0  0
  -30.5510  -26.0436   18.9391 C   0  0  0  0  0  0  0  0  0  0  0  0
  -25.2758  -29.8119   19.5668 C   0  0  0  0  0  0  0  0  0  0  0  0
  -24.2582  -30.0341   22.3344 C   0  0  0  0  0  0  0  0  0  0  0  0
  -30.4413  -27.1103   20.0256 C   0  0  0  0  0  0  0  0  0  0  0  0
  -29.2798  -22.8343   21.0329 C   0  0  0  0  0  0  0  0  0  0  0  0
  -29.4007  -26.7079   21.0657 C   0  0  0  0  0  0  0  0  0  0  0  0
  -28.9955  -21.5478   20.2557 C   0  0  0  0  0  0  0  0  0  0  0  0
  -21.1940  -22.4981   19.8225 C   0  0  0  0  0  0  0  0  0  0  0  0
  -28.5668  -22.8471   22.3832 C   0  0  0  0  0  0  0  0  0  0  0  0
  -26.8297  -21.3149   21.5415 C   0  0  0  0  0  0  0  0  0  0  0  0
  -23.3301  -22.8906   20.8132 C   0  0  0  0  0  0  0  0  0  0  0  0
  -28.0102  -26.5761   20.4326 C   0  0  1  0  0  0  0  0  0  0  0  0
  -26.2173  -29.9092   20.7632 C   0  0  1  0  0  0  0  0  0  0  0  0
  -20.9413  -23.0923   21.2102 C   0  0  1  0  0  0  0  0  0  0  0  0
  -27.4822  -21.2799   20.1490 C   0  0  2  0  0  0  0  0  0  0  0  0
  -22.6401  -22.8654   19.4509 C   0  0  0  0  0  0  0  0  0  0  0  0
  -19.3926  -24.2678   18.1159 C   0  0  0  0  0  0  0  0  0  0  0  0
  -23.2693  -21.8151   18.5319 C   0  0  0  0  0  0  0  0  0  0  0  0
  -22.7069  -24.2372   18.7588 C   0  0  0  0  0  0  0  0  0  0  0  0
  -16.6299  -26.2022   22.6559 C   0  0  0  0  0  0  0  0  0  0  0  0
  -24.1613  -35.9945   25.0927 C   0  0  0  0  0  0  0  0  0  0  0  0
  -23.9211  -22.7520   25.8903 C   0  0  0  0  0  0  0  0  0  0  0  0
  -25.4600  -24.6687   25.4753 C   0  0  0  0  0  0  0  0  0  0  0  0
  -21.3731  -23.9106   23.9414 C   0  0  0  0  0  0  0  0  0  0  0  0
  -26.8274  -29.9365   25.3445 C   0  0  0  0  0  0  0  0  0  0  0  0
  -25.8602  -31.9064   26.5496 C   0  0  0  0  0  0  0  0  0  0  0  0
  -27.9299  -32.1755   25.1833 C   0  0  0  0  0  0  0  0  0  0  0  0
  -17.2059  -27.4233   19.8676 C   0  0  0  0  0  0  0  0  0  0  0  0
  -18.0659  -22.6502   20.9850 C   0  0  0  0  0  0  0  0  0  0  0  0
  -22.9817  -35.2179   21.5598 C   0  0  0  0  0  0  0  0  0  0  0  0
  -18.0148  -26.5070   22.0944 C   0  0  0  0  0  0  0  0  0  0  0  0
  -19.6099  -26.7951   20.1135 C   0  0  0  0  0  0  0  0  0  1  0  0
  -17.8614  -24.9435   20.1031 C   0  0  2  0  0  0  0  0  0  0  0  0
  -25.7096  -31.8495   24.0188 C   0  0  1  0  0  0  0  0  0  0  0  0
  -24.2130  -35.3203   23.7306 C   0  0  2  0  0  0  0  0  0  0  0  0
  -24.0952  -24.0707   25.1205 C   0  0  0  0  0  0  0  0  0  0  0  0
  -23.9157  -23.8490   23.5920 C   0  0  2  0  0  0  0  0  0  0  0  0
  -22.5371  -23.2944   23.1688 C   0  0  2  0  0  0  0  0  0  0  0  0
  -26.5667  -31.4534   25.2541 C   0  0  0  0  0  0  0  0  0  0  0  0
  -18.1647  -26.4186   20.5426 C   0  0  2  0  0  0  0  0  0  0  0  0
  -27.0535  -18.8513   20.1279 N   0  0  0  0  0  0  0  0  0  0  0  0
  -16.9501  -24.7945   17.8502 N   0  0  0  0  0  0  0  0  0  0  0  0
  -27.1936  -19.9827   19.4163 N   0  0  0  0  0  0  0  0  0  0  0  0
  -25.5855  -30.5270   21.9309 N   0  0  0  0  0  0  0  0  0  0  0  0
  -27.1351  -22.5885   22.2119 N   0  0  0  0  0  0  0  0  0  0  0  0
  -27.1616  -20.8421   17.2093 N   0  0  0  0  0  0  0  0  0  0  0  0
  -25.2718  -17.7297   16.1442 N   0  0  0  0  0  0  0  0  0  0  0  0
  -27.4250  -27.8828   20.2218 N   0  0  0  0  0  0  0  0  0  0  0  0
  -25.4697  -33.2830   23.8928 N   0  0  0  0  0  0  0  0  0  0  0  0
  -24.9780  -23.0086   23.0860 N   0  0  0  0  0  0  0  0  0  0  0  0
  -18.6827  -23.9609   20.7713 N   0  0  0  0  0  0  0  0  0  0  0  0
  -22.3034  -23.5386   21.7115 N   0  3  1  0  0  0  0  0  0  0  0  0
  -23.0439  -35.7848   22.9316 N   0  3  0  0  0  0  0  0  0  0  0  0
  -27.5209  -17.3192   15.9653 O   0  0  0  0  0  0  0  0  0  0  0  0
  -26.5297  -28.1884   22.3496 O   0  0  0  0  0  0  0  0  0  0  0  0
  -20.3942  -25.3606   21.5331 O   0  0  0  0  0  0  0  0  0  0  0  0
  -27.4512  -31.8411   22.4085 O   0  0  0  0  0  0  0  0  0  0  0  0
  -23.1546  -33.1579   23.9334 O   0  0  0  0  0  0  0  0  0  0  0  0
  -26.4458  -24.7371   22.7470 O   0  0  0  0  0  0  0  0  0  0  0  0
  -25.9946  -12.5933   20.6408 O   0  0  0  0  0  0  0  0  0  0  0  0
  -20.0991  -27.8910   20.8757 O   0  0  0  0  0  0  0  0  0  1  0  0
  -20.8363  -10.6519   20.4778 F   0  0  0  0  0  0  0  0  0  0  0  0
  -24.5582  -12.5798   18.2787 F   0  0  0  0  0  0  0  0  0  0  0  0
  -15.5430  -25.2695   18.7406 Cl  0  0  0  0  0  0  0  0  0  0  0  0
  1  2  1  0  0  0  0
  1  5  2  0  0  0  0
  2  6  2  0  0  0  0
  3  8  2  0  0  0  0
  3 15  1  0  0  0  0
  4  9  1  0  0  0  0
  4 15  2  0  0  0  0
  5 17  1  0  0  0  0
  6 19  1  0  0  0  0
  7 10  2  0  0  0  0
  7 18  1  0  0  0  0
  8 21  1  0  0  0  0
  9 21  2  0  0  0  0
 10 22  1  0  0  0  0
 11 12  2  0  0  0  0
 11 23  1  0  0  0  0
 12 24  1  0  0  0  0
 13 20  1  0  0  0  0
 13 22  2  0  0  0  0
 14 24  2  0  0  0  0
 14 25  1  0  0  0  0
 15 26  1  0  0  0  0
 16 26  1  0  0  0  0
 16 27  2  0  0  0  0
 16 28  1  0  0  0  0
 17 19  2  0  0  0  0
 17 35  1  0  0  0  0
 18 20  2  0  0  0  0
 18 36  1  0  0  0  0
 19 46  1  0  0  0  0
 20 37  1  0  0  0  0
 21 94  1  0  0  0  0
 22 95  1  0  0  0  0
 23 25  2  0  0  0  0
 23 94  1  0  0  0  0
 24 96  1  0  0  0  0
 25 97  1  0  0  0  0
 26 75  2  0  0  0  0
 27 77  1  0  0  0  0
 27 80  1  0  0  0  0
 28 81  1  0  0  0  0
 28 88  2  0  0  0  0
 29 47  1  0  0  0  0
 29 82  1  0  0  0  0
 29 89  2  0  0  0  0
 30 48  1  0  0  0  0
 30 85  1  0  0  0  0
 30 90  2  0  0  0  0
 31 51  1  0  0  0  0
 31 67  1  0  0  0  0
 31 76  2  0  0  0  0
 32 68  1  0  0  0  0
 32 78  1  0  0  0  0
 32 91  2  0  0  0  0
 33 69  1  0  0  0  0
 33 83  1  0  0  0  0
 33 92  2  0  0  0  0
 34 79  1  0  0  0  0
 34 84  1  0  0  0  0
 34 93  2  0  0  0  0
 35 38  1  0  0  0  0
 36 47  1  0  0  0  0
 37 78  1  0  0  0  0
 38 40  1  0  0  0  0
 39 41  1  0  0  0  0
 39 43  1  0  0  0  0
 40 46  1  0  0  0  0
 41 49  1  0  0  0  0
 42 48  1  0  0  0  0
 42 50  1  0  0  0  0
 43 79  1  0  0  0  0
 44 49  1  0  0  0  0
 44 79  1  0  0  0  0
 45 50  1  0  0  0  0
 45 86  1  0  0  0  0
 46 82  1  0  0  0  0
 47 78  1  0  0  0  0
 48 86  1  0  0  0  0
 49 77  1  0  0  0  0
 50 52  1  0  0  0  0
 50 53  1  0  0  0  0
 54 65  1  0  0  0  0
 55 69  1  0  0  0  0
 56 70  1  0  0  0  0
 57 70  1  0  0  0  0
 58 72  1  0  0  0  0
 59 73  1  0  0  0  0
 60 73  1  0  0  0  0
 61 73  1  0  0  0  0
 62 74  1  0  0  0  0
 63 85  1  0  0  0  0
 64 87  1  0  0  0  0
 65 74  1  0  0  0  0
 66 74  1  0  0  0  0
 66 95  1  0  0  0  0
 67 74  1  0  0  0  0
 67 85  1  0  0  0  0
 68 73  1  0  0  0  0
 68 83  1  0  0  0  0
 69 87  1  0  0  0  0
 70 71  1  0  0  0  0
 71 72  1  0  0  0  0
 71 84  1  0  0  0  0
 72 86  1  0  0  0  0
 75 77  1  0  0  0  0
 76 98  1  0  0  0  0
M  CHG  2  86   1  87   1
M  ISO  4  34 100  66 101  84 100  95 101
M  END
> <Batch ID>
0019

> <Smiles>
CCC(C)(C(C(C)=NCl)N(C)C(=O)C1CC(C)(C)CN1C(C)C([100NH:0][100C:0](=O)N1CCCC(n2nc(-c3ccc(Oc4ccc(F)cc4F)cc3)c(C(N)=O)c2N)C1)C(C)C)[101CH2:1][101O:1]c1ccc2c(c1)CN(C(=O)C(NC(=O)C(C)NC)C(C)(C)C)C(C(=O)NC1CCCc3ccccc31)C2

> <Shape>
0.282

> <Color>
0.055

> <Negative vol penalty>
0.000

$$$$

  -OEChem-04052316073D

 83 91  0     1  0  0  0  0  0999 V2000
  -31.5454  -33.5952   22.3647 C   0  0  0  0  0  0  0  0  0  0  0  0
  -31.1919  -32.6231   21.4344 C   0  0  0  0  0  0  0  0  0  0  0  0
  -23.8660   -9.9412   22.1316 C   0  0  0  0  0  0  0  0  0  0  0  0
  -22.3944  -10.4765   20.2917 C   0  0  0  0  0  0  0  0  0  0  0  0
  -30.9517  -33.5997   23.6263 C   0  0  0  0  0  0  0  0  0  0  0  0
  -30.2453  -31.6543   21.7655 C   0  0  0  0  0  0  0  0  0  0  0  0
  -26.1234  -29.1039   18.0224 C   0  0  0  0  0  0  0  0  0  0  0  0
  -23.3472   -8.6470   22.1701 C   0  0  0  0  0  0  0  0  0  0  0  0
  -21.8757   -9.1822   20.3301 C   0  0  0  0  0  0  0  0  0  0  0  0
  -26.1074  -27.8940   17.3297 C   0  0  0  0  0  0  0  0  0  0  0  0
  -22.1549   -5.3102   22.9870 C   0  0  0  0  0  0  0  0  0  0  0  0
  -21.8343   -4.7751   24.2346 C   0  0  0  0  0  0  0  0  0  0  0  0
  -24.8334  -26.8941   19.1175 C   0  0  0  0  0  0  0  0  0  0  0  0
  -22.4857  -21.0741   19.5039 C   0  0  0  0  0  0  0  0  0  0  0  0
  -20.2583   -6.5696   24.5993 C   0  0  0  0  0  0  0  0  0  0  0  0
  -23.3895  -10.8560   21.1925 C   0  0  0  0  0  0  0  0  0  0  0  0
  -25.0266  -12.6460   20.4028 C   0  0  0  0  0  0  0  0  0  0  0  0
  -29.9903  -32.6362   23.9696 C   0  0  0  0  0  0  0  0  0  0  0  0
  -25.5028  -29.2151   19.2750 C   0  0  0  0  0  0  0  0  0  0  0  0
  -29.6392  -31.6451   23.0333 C   0  0  0  0  0  0  0  0  0  0  0  0
  -24.8407  -28.1072   19.8229 C   0  0  0  0  0  0  0  0  0  0  0  0
  -22.3509  -22.0547   18.5212 C   0  0  0  0  0  0  0  0  0  0  0  0
  -23.8538  -20.8227   17.0857 C   0  0  0  0  0  0  0  0  0  0  0  0
  -23.0349  -21.9290   17.3120 C   0  0  0  0  0  0  0  0  0  0  0  0
  -23.9886  -19.8421   18.0685 C   0  0  0  0  0  0  0  0  0  0  0  0
  -23.3047  -19.9678   19.2777 C   0  0  0  0  0  0  0  0  0  0  0  0
  -22.3521   -8.2675   21.2693 C   0  0  0  0  0  0  0  0  0  0  0  0
  -25.4648  -26.7882   17.8785 C   0  0  0  0  0  0  0  0  0  0  0  0
  -21.5272   -6.4750   22.5455 C   0  0  0  0  0  0  0  0  0  0  0  0
  -20.8860   -5.4047   25.0408 C   0  0  0  0  0  0  0  0  0  0  0  0
  -20.5789   -7.1047   23.3517 C   0  0  0  0  0  0  0  0  0  0  0  0
  -23.9246  -12.1933   21.1527 C   0  0  0  0  0  0  0  0  0  0  0  0
  -25.1261  -13.9809   20.7104 C   0  0  0  0  0  0  0  0  0  0  0  0
  -25.8836  -11.9244   19.5080 C   0  0  0  0  0  0  0  0  0  0  0  0
  -26.4977  -29.8780   22.2202 C   0  0  0  0  0  0  0  0  0  0  0  0
  -23.3234  -29.8233   22.8858 C   0  0  0  0  0  0  0  0  0  0  0  0
  -20.2055  -28.7194   22.0450 C   0  0  0  0  0  0  0  0  0  0  0  0
  -22.8069  -18.9747   21.5387 C   0  0  0  0  0  0  0  0  0  0  0  0
  -29.4108  -32.6531   25.3620 C   0  0  0  0  0  0  0  0  0  0  0  0
  -25.5060  -30.5345   19.9973 C   0  0  0  0  0  0  0  0  0  0  0  0
  -24.1421  -28.1800   21.1552 C   0  0  0  0  0  0  0  0  0  0  0  0
  -28.1416  -31.8168   25.5036 C   0  0  0  0  0  0  0  0  0  0  0  0
  -22.8214  -16.7167   24.2916 C   0  0  0  0  0  0  0  0  0  0  0  0
  -28.3261  -30.4514   24.8489 C   0  0  0  0  0  0  0  0  0  0  0  0
  -23.2004  -15.3758   23.6587 C   0  0  0  0  0  0  0  0  0  0  0  0
  -21.9271  -17.5456   23.3714 C   0  0  0  0  0  0  0  0  0  0  0  0
  -22.8296  -16.4075   21.3816 C   0  0  0  0  0  0  0  0  0  0  0  0
  -28.5983  -30.5922   23.3464 C   0  0  1  0  0  0  0  0  0  0  0  0
  -25.2840  -30.3935   21.5000 C   0  0  1  0  0  0  0  0  0  0  0  0
  -23.7832  -15.5649   22.2444 C   0  0  2  0  0  0  0  0  0  0  0  0
  -21.4707  -23.2313   18.7900 C   0  0  0  0  0  0  0  0  0  0  0  0
  -24.5874  -20.6885   15.7884 C   0  0  0  0  0  0  0  0  0  0  0  0
  -24.8694  -18.6567   17.8240 C   0  0  0  0  0  0  0  0  0  0  0  0
  -17.8141  -28.8083   22.8004 C   0  0  0  0  0  0  0  0  0  0  0  0
  -23.9480  -27.8099   25.0917 C   0  0  0  0  0  0  0  0  0  0  0  0
  -21.5126  -27.2332   25.1589 C   0  0  0  0  0  0  0  0  0  0  0  0
  -22.2602  -29.5477   25.7128 C   0  0  0  0  0  0  0  0  0  0  0  0
  -19.3415  -30.0358   19.5391 C   0  0  0  0  0  0  0  0  0  0  0  0
  -22.8878  -22.9915   16.2523 C   0  0  0  0  0  0  0  0  0  0  0  0
  -24.0912  -23.9313   16.1511 C   0  0  0  0  0  0  0  0  0  0  0  0
  -24.3211  -24.7558   17.4124 C   0  0  0  0  0  0  0  0  0  1  0  0
  -22.3384  -28.7613   23.3112 C   0  0  1  0  0  0  0  0  0  0  0  0
  -18.8787  -29.4466   21.9218 C   0  0  2  0  0  0  0  0  0  0  0  0
  -22.5295  -28.3358   24.7944 C   0  0  0  0  0  0  0  0  0  0  0  0
  -23.3642  -13.1619   21.8820 N   0  0  0  0  0  0  0  0  0  0  0  0
  -24.1172  -14.2365   21.5918 N   0  0  0  0  0  0  0  0  0  0  0  0
  -24.1784  -29.4902   21.8257 N   0  0  0  0  0  0  0  0  0  0  0  0
  -22.5453  -17.6864   22.0512 N   0  0  0  0  0  0  0  0  0  0  0  0
  -25.9774  -14.9491   20.3102 N   0  0  0  0  0  0  0  0  0  0  0  0
  -25.6407  -10.5589   19.3060 N   0  0  0  0  0  0  0  0  0  0  0  0
  -23.4265  -18.9833   20.2894 N   0  0  0  0  0  0  0  0  0  0  0  0
  -27.3691  -30.8675   22.6338 N   0  0  0  0  0  0  0  0  0  0  0  0
  -21.0127  -29.2888   23.0070 N   0  0  0  0  0  0  0  0  0  0  0  0
  -18.4018  -29.4187   20.5102 N   0  3  0  0  0  0  0  0  0  0  0  0
  -26.8465  -12.4705   18.9182 O   0  0  0  0  0  0  0  0  0  0  0  0
  -26.6329  -28.6718   22.3896 O   0  0  0  0  0  0  0  0  0  0  0  0
  -23.3290  -30.9109   23.4677 O   0  0  0  0  0  0  0  0  0  0  0  0
  -20.4953  -27.7415   21.3591 O   0  0  0  0  0  0  0  0  0  0  0  0
  -22.5284  -19.9948   22.1741 O   0  0  0  0  0  0  0  0  0  0  0  0
  -21.8459   -7.0046   21.3063 O   0  0  0  0  0  0  0  0  0  0  0  0
  -25.4483  -25.6059   17.2048 O   0  0  0  0  0  0  0  0  0  1  0  0
  -20.5772   -4.8899   26.2381 F   0  0  0  0  0  0  0  0  0  0  0  0
  -19.9716   -8.2233   22.9325 F   0  0  0  0  0  0  0  0  0  0  0  0
  1  2  1  0  0  0  0
  1  5  2  0  0  0  0
  2  6  2  0  0  0  0
  3  8  2  0  0  0  0
  3 16  1  0  0  0  0
  4  9  1  0  0  0  0
  4 16  2  0  0  0  0
  5 18  1  0  0  0  0
  6 20  1  0  0  0  0
  7 10  2  0  0  0  0
  7 19  1  0  0  0  0
  8 27  1  0  0  0  0
  9 27  2  0  0  0  0
 10 28  1  0  0  0  0
 11 12  2  0  0  0  0
 11 29  1  0  0  0  0
 12 30  1  0  0  0  0
 13 21  1  0  0  0  0
 13 28  2  0  0  0  0
 14 22  2  0  0  0  0
 14 26  1  0  0  0  0
 15 30  2  0  0  0  0
 15 31  1  0  0  0  0
 16 32  1  0  0  0  0
 17 32  1  0  0  0  0
 17 33  2  0  0  0  0
 17 34  1  0  0  0  0
 18 20  2  0  0  0  0
 18 39  1  0  0  0  0
 19 21  2  0  0  0  0
 19 40  1  0  0  0  0
 20 48  1  0  0  0  0
 21 41  1  0  0  0  0
 22 24  1  0  0  0  0
 22 51  1  0  0  0  0
 23 24  2  0  0  0  0
 23 25  1  0  0  0  0
 23 52  1  0  0  0  0
 24 59  1  0  0  0  0
 25 26  2  0  0  0  0
 25 53  1  0  0  0  0
 26 71  1  0  0  0  0
 27 80  1  0  0  0  0
 28 81  1  0  0  0  0
 29 31  2  0  0  0  0
 29 80  1  0  0  0  0
 30 82  1  0  0  0  0
 31 83  1  0  0  0  0
 32 65  2  0  0  0  0
 33 66  1  0  0  0  0
 33 69  1  0  0  0  0
 34 70  1  0  0  0  0
 34 75  2  0  0  0  0
 35 49  1  0  0  0  0
 35 72  1  0  0  0  0
 35 76  2  0  0  0  0
 36 62  1  0  0  0  0
 36 67  1  0  0  0  0
 36 77  2  0  0  0  0
 37 63  1  0  0  0  0
 37 73  1  0  0  0  0
 37 78  2  0  0  0  0
 38 68  1  0  0  0  0
 38 71  1  0  0  0  0
 38 79  2  0  0  0  0
 39 42  1  0  0  0  0
 40 49  1  0  0  0  0
 41 67  1  0  0  0  0
 42 44  1  0  0  0  0
 43 45  1  0  0  0  0
 43 46  1  0  0  0  0
 44 48  1  0  0  0  0
 45 50  1  0  0  0  0
 46 68  1  0  0  0  0
 47 50  1  0  0  0  0
 47 68  1  0  0  0  0
 48 72  1  0  0  0  0
 49 67  1  0  0  0  0
 50 66  1  0  0  0  0
 54 63  1  0  0  0  0
 55 64  1  0  0  0  0
 56 64  1  0  0  0  0
 57 64  1  0  0  0  0
 58 74  1  0  0  0  0
 59 60  1  0  0  0  0
 60 61  1  0  0  0  0
 61 81  1  0  0  0  0
 62 64  1  0  0  0  0
 62 73  1  0  0  0  0
 63 74  1  0  0  0  0
 65 66  1  0  0  0  0
M  CHG  1  74   1
M  ISO  4  38 100  61 101  71 100  81 101
M  END
> <Batch ID>
0019

> <Smiles>
CNC(C)C(=O)NC(C(=O)N1Cc2cc([101O:1][101CH2:1]CCc3c(C)cc([100NH:0][100C:0](=O)N4CCCC(n5nc(-c6ccc(Oc7ccc(F)cc7F)cc6)c(C(N)=O)c5N)C4)c(C)c3C)ccc2CC1C(=O)NC1CCCc2ccccc21)C(C)(C)C

> <Shape>
0.221

> <Color>
0.106

> <Negative vol penalty>
0.000

$$$$

  -OEChem-04052316073D

 87 95  0     1  0  0  0  0  0999 V2000
  -18.2170  -25.4942   21.4725 C   0  0  0  0  0  0  0  0  0  0  0  0
  -19.5362  -25.5597   21.0356 C   0  0  0  0  0  0  0  0  0  0  0  0
  -22.4369  -10.5109   21.0321 C   0  0  0  0  0  0  0  0  0  0  0  0
  -24.4245   -9.1376   21.0544 C   0  0  0  0  0  0  0  0  0  0  0  0
  -17.5345  -26.6641   21.8030 C   0  0  0  0  0  0  0  0  0  0  0  0
  -20.1733  -26.7955   20.9279 C   0  0  0  0  0  0  0  0  0  0  0  0
  -24.8661  -26.7342   22.8302 C   0  0  0  0  0  0  0  0  0  0  0  0
  -21.6507   -9.3763   21.2323 C   0  0  0  0  0  0  0  0  0  0  0  0
  -23.6383   -8.0029   21.2547 C   0  0  0  0  0  0  0  0  0  0  0  0
  -25.8641  -26.1593   22.0446 C   0  0  0  0  0  0  0  0  0  0  0  0
  -22.0346   -6.5080   23.8265 C   0  0  0  0  0  0  0  0  0  0  0  0
  -22.4534   -5.5935   24.7929 C   0  0  0  0  0  0  0  0  0  0  0  0
  -26.5730  -28.3573   21.3475 C   0  0  0  0  0  0  0  0  0  0  0  0
  -27.9853  -19.2680   19.8490 C   0  0  0  0  0  0  0  0  0  0  0  0
  -22.6022   -3.8745   23.1017 C   0  0  0  0  0  0  0  0  0  0  0  0
  -23.8238  -10.3915   20.9431 C   0  0  0  0  0  0  0  0  0  0  0  0
  -24.5825  -12.4532   19.6464 C   0  0  0  0  0  0  0  0  0  0  0  0
  -18.1665  -27.9140   21.7086 C   0  0  0  0  0  0  0  0  0  0  0  0
  -24.7067  -28.1267   22.8720 C   0  0  0  0  0  0  0  0  0  0  0  0
  -19.4981  -27.9833   21.2563 C   0  0  0  0  0  0  0  0  0  0  0  0
  -25.5738  -28.9474   22.1365 C   0  0  0  0  0  0  0  0  0  0  0  0
  -28.8559  -20.0763   19.1181 C   0  0  0  0  0  0  0  0  0  0  0  0
  -28.4913  -18.2468   20.6533 C   0  0  0  0  0  0  0  0  0  0  0  0
  -30.2325  -19.8634   19.1913 C   0  0  0  0  0  0  0  0  0  0  0  0
  -30.7385  -18.8422   19.9956 C   0  0  0  0  0  0  0  0  0  0  0  0
  -22.2513   -8.1223   21.3436 C   0  0  0  0  0  0  0  0  0  0  0  0
  -26.7159  -26.9707   21.3008 C   0  0  0  0  0  0  0  0  0  0  0  0
  -21.8996   -6.1057   22.4977 C   0  0  0  0  0  0  0  0  0  0  0  0
  -22.7372   -4.2768   24.4305 C   0  0  0  0  0  0  0  0  0  0  0  0
  -22.1834   -4.7890   22.1353 C   0  0  0  0  0  0  0  0  0  0  0  0
  -29.8679  -18.0339   20.7266 C   0  0  0  0  0  0  0  0  0  0  0  0
  -24.6365  -11.5631   20.7357 C   0  0  0  0  0  0  0  0  0  0  0  0
  -25.5489  -13.3900   19.9202 C   0  0  0  0  0  0  0  0  0  0  0  0
  -23.7345  -12.4349   18.4904 C   0  0  0  0  0  0  0  0  0  0  0  0
  -22.3808  -30.1431   22.0797 C   0  0  0  0  0  0  0  0  0  0  0  0
  -24.3567  -32.3378   23.4220 C   0  0  0  0  0  0  0  0  0  0  0  0
  -27.5326  -33.2196   24.3066 C   0  0  0  0  0  0  0  0  0  0  0  0
  -27.7461  -16.8343   23.8732 C   0  0  0  0  0  0  0  0  0  0  0  0
  -17.3729  -29.1551   22.0318 C   0  0  0  0  0  0  0  0  0  0  0  0
  -23.6424  -28.7324   23.7453 C   0  0  0  0  0  0  0  0  0  0  0  0
  -25.4575  -30.4488   22.1628 C   0  0  0  0  0  0  0  0  0  0  0  0
  -18.2394  -30.3931   22.2480 C   0  0  0  0  0  0  0  0  0  0  0  0
  -29.1963  -13.4601   23.4112 C   0  0  0  0  0  0  0  0  0  0  0  0
  -19.2867  -30.5109   21.1452 C   0  0  0  0  0  0  0  0  0  0  0  0
  -28.0963  -12.7268   22.6455 C   0  0  0  0  0  0  0  0  0  0  0  0
  -28.6306  -14.5688   24.2936 C   0  0  0  0  0  0  0  0  0  0  0  0
  -26.6778  -14.8114   22.7964 C   0  0  0  0  0  0  0  0  0  0  0  0
  -20.2312  -29.3029   21.1500 C   0  0  1  0  0  0  0  0  0  0  0  0
  -23.2420  -30.1390   23.3109 C   0  0  1  0  0  0  0  0  0  0  0  0
  -27.2185  -13.7184   21.8623 C   0  0  2  0  0  0  0  0  0  0  0  0
  -31.1621  -20.7342   18.4064 C   0  0  0  0  0  0  0  0  0  0  0  0
  -32.2195  -18.6302   20.0619 C   0  0  0  0  0  0  0  0  0  0  0  0
  -29.3679  -34.5823   25.3419 C   0  0  0  0  0  0  0  0  0  0  0  0
  -24.1373  -33.9353   20.8316 C   0  0  0  0  0  0  0  0  0  0  0  0
  -26.1476  -35.2434   21.5499 C   0  0  0  0  0  0  0  0  0  0  0  0
  -24.0622  -35.3138   22.9170 C   0  0  0  0  0  0  0  0  0  0  0  0
  -27.4737  -19.1725   23.1395 C   0  0  0  0  0  0  0  0  0  0  0  0
  -27.2563  -31.8304   26.9052 C   0  0  0  0  0  0  0  0  0  0  0  0
  -27.5205  -17.4056   21.4186 C   0  0  0  0  0  0  0  0  0  0  0  0
  -28.2859  -21.1675   18.2606 C   0  0  0  0  0  0  0  0  0  0  0  0
  -28.1860  -24.9722   18.6795 C   0  0  0  0  0  0  0  0  0  0  0  0
  -27.9716  -23.6310   17.9942 C   0  0  0  0  0  0  0  0  0  0  0  0
  -27.4310  -25.1160   19.9952 C   0  0  0  0  0  0  0  0  0  1  0  0
  -25.4758  -33.2176   22.9196 C   0  0  1  0  0  0  0  0  0  0  0  0
  -28.0988  -33.7842   25.5970 C   0  0  2  0  0  0  0  0  0  0  0  0
  -24.9569  -34.3992   22.0523 C   0  0  0  0  0  0  0  0  0  0  0  0
  -25.5640  -11.9038   21.6344 N   0  0  0  0  0  0  0  0  0  0  0  0
  -26.1017  -13.0183   21.1103 N   0  0  0  0  0  0  0  0  0  0  0  0
  -24.3970  -30.9931   23.0269 N   0  0  0  0  0  0  0  0  0  0  0  0
  -27.7658  -15.4716   23.5332 N   0  0  0  0  0  0  0  0  0  0  0  0
  -25.9713  -14.4871   19.2566 N   0  0  0  0  0  0  0  0  0  0  0  0
  -24.1712  -11.7433   17.3523 N   0  0  0  0  0  0  0  0  0  0  0  0
  -21.2060  -29.4278   22.2124 N   0  0  0  0  0  0  0  0  0  0  0  0
  -26.2324  -33.6282   24.0975 N   0  0  0  0  0  0  0  0  0  0  0  0
  -27.4929  -17.7480   22.8389 N   0  0  0  0  0  0  0  0  0  0  0  0
  -28.4196  -32.6824   26.5478 N   0  3  0  0  0  0  0  0  0  0  0  0
  -28.4672  -22.5246   18.8461 N   0  3  0  0  0  0  0  0  0  0  0  0
  -22.6298  -13.0285   18.4618 O   0  0  0  0  0  0  0  0  0  0  0  0
  -22.7538  -30.7516   21.0835 O   0  0  0  0  0  0  0  0  0  0  0  0
  -23.4829  -32.8240   24.1443 O   0  0  0  0  0  0  0  0  0  0  0  0
  -28.1803  -32.4920   23.5572 O   0  0  0  0  0  0  0  0  0  0  0  0
  -27.9530  -17.2132   25.0332 O   0  0  0  0  0  0  0  0  0  0  0  0
  -21.4844   -7.0150   21.5393 O   0  0  0  0  0  0  0  0  0  0  0  0
  -27.6905  -26.4122   20.5326 O   0  0  0  0  0  0  0  0  0  1  0  0
  -23.1409   -3.3991   25.3584 F   0  0  0  0  0  0  0  0  0  0  0  0
  -22.0566   -4.3970   20.8602 F   0  0  0  0  0  0  0  0  0  0  0  0
  -30.4926  -16.7641   21.7258 Cl  0  0  0  0  0  0  0  0  0  0  0  0
  1  2  1  0  0  0  0
  1  5  2  0  0  0  0
  2  6  2  0  0  0  0
  3  8  2  0  0  0  0
  3 16  1  0  0  0  0
  4  9  1  0  0  0  0
  4 16  2  0  0  0  0
  5 18  1  0  0  0  0
  6 20  1  0  0  0  0
  7 10  2  0  0  0  0
  7 19  1  0  0  0  0
  8 26  1  0  0  0  0
  9 26  2  0  0  0  0
 10 27  1  0  0  0  0
 11 12  2  0  0  0  0
 11 28  1  0  0  0  0
 12 29  1  0  0  0  0
 13 21  1  0  0  0  0
 13 27  2  0  0  0  0
 14 22  1  0  0  0  0
 14 23  2  0  0  0  0
 15 29  2  0  0  0  0
 15 30  1  0  0  0  0
 16 32  1  0  0  0  0
 17 32  1  0  0  0  0
 17 33  2  0  0  0  0
 17 34  1  0  0  0  0
 18 20  2  0  0  0  0
 18 39  1  0  0  0  0
 19 21  2  0  0  0  0
 19 40  1  0  0  0  0
 20 48  1  0  0  0  0
 21 41  1  0  0  0  0
 22 24  2  0  0  0  0
 22 60  1  0  0  0  0
 23 31  1  0  0  0  0
 23 59  1  0  0  0  0
 24 25  1  0  0  0  0
 24 51  1  0  0  0  0
 25 31  2  0  0  0  0
 25 52  1  0  0  0  0
 26 83  1  0  0  0  0
 27 84  1  0  0  0  0
 28 30  2  0  0  0  0
 28 83  1  0  0  0  0
 29 85  1  0  0  0  0
 30 86  1  0  0  0  0
 31 87  1  0  0  0  0
 32 67  2  0  0  0  0
 33 68  1  0  0  0  0
 33 71  1  0  0  0  0
 34 72  1  0  0  0  0
 34 78  2  0  0  0  0
 35 49  1  0  0  0  0
 35 73  1  0  0  0  0
 35 79  2  0  0  0  0
 36 64  1  0  0  0  0
 36 69  1  0  0  0  0
 36 80  2  0  0  0  0
 37 65  1  0  0  0  0
 37 74  1  0  0  0  0
 37 81  2  0  0  0  0
 38 70  1  0  0  0  0
 38 75  1  0  0  0  0
 38 82  2  0  0  0  0
 39 42  1  0  0  0  0
 40 49  1  0  0  0  0
 41 69  1  0  0  0  0
 42 44  1  0  0  0  0
 43 45  1  0  0  0  0
 43 46  1  0  0  0  0
 44 48  1  0  0  0  0
 45 50  1  0  0  0  0
 46 70  1  0  0  0  0
 47 50  1  0  0  0  0
 47 70  1  0  0  0  0
 48 73  1  0  0  0  0
 49 69  1  0  0  0  0
 50 68  1  0  0  0  0
 53 65  1  0  0  0  0
 54 66  1  0  0  0  0
 55 66  1  0  0  0  0
 56 66  1  0  0  0  0
 57 75  1  0  0  0  0
 58 76  1  0  0  0  0
 59 75  1  0  0  0  0
 60 77  1  0  0  0  0
 61 62  1  0  0  0  0
 61 63  1  0  0  0  0
 62 77  1  0  0  0  0
 63 84  1  0  0  0  0
 64 66  1  0  0  0  0
 64 74  1  0  0  0  0
 65 76  1  0  0  0  0
 67 68  1  0  0  0  0
M  CHG  2  76   1  77   1
M  ISO  4  38 100  63 101  75 100  84 101
M  END
> <Batch ID>
0019

> <Smiles>
CNC(C)C(=O)NC(C(=O)N1Cc2cc([101O:1][101CH2:1]CCNCc3cc(C[100N:0](C)[100C:0](=O)N4CCCC(n5nc(-c6ccc(Oc7ccc(F)cc7F)cc6)c(C(N)=O)c5N)C4)c(Cl)c(C)c3C)ccc2CC1C(=O)NC1CCCc2ccccc21)C(C)(C)C

> <Shape>
0.313

> <Color>
0.137

> <Negative vol penalty>
0.000

$$$$

  -OEChem-04052316073D

 91 99  0     1  0  0  0  0  0999 V2000
  -28.7001  -17.7748   19.0175 C   0  0  0  0  0  0  0  0  0  0  0  0
  -27.7178  -18.5217   18.3752 C   0  0  0  0  0  0  0  0  0  0  0  0
  -25.1232  -16.2765   20.6551 C   0  0  0  0  0  0  0  0  0  0  0  0
  -23.9504  -14.9355   22.2871 C   0  0  0  0  0  0  0  0  0  0  0  0
  -29.3412  -18.2900   20.1434 C   0  0  0  0  0  0  0  0  0  0  0  0
  -27.3753  -19.7838   18.8589 C   0  0  0  0  0  0  0  0  0  0  0  0
  -25.1718  -26.2171   16.6063 C   0  0  0  0  0  0  0  0  0  0  0  0
  -25.7481  -15.1309   20.1628 C   0  0  0  0  0  0  0  0  0  0  0  0
  -24.5753  -13.7898   21.7947 C   0  0  0  0  0  0  0  0  0  0  0  0
  -24.1695  -27.1565   16.8443 C   0  0  0  0  0  0  0  0  0  0  0  0
  -28.3297  -13.1318   21.0364 C   0  0  0  0  0  0  0  0  0  0  0  0
  -29.6999  -13.1994   20.7844 C   0  0  0  0  0  0  0  0  0  0  0  0
  -25.3997  -27.9776   18.7499 C   0  0  0  0  0  0  0  0  0  0  0  0
  -20.4220  -26.9963   21.5040 C   0  0  0  0  0  0  0  0  0  0  0  0
  -29.2984  -12.6744   18.4605 C   0  0  0  0  0  0  0  0  0  0  0  0
  -24.2243  -16.1789   21.7173 C   0  0  0  0  0  0  0  0  0  0  0  0
  -22.3555  -17.9133   21.8008 C   0  0  0  0  0  0  0  0  0  0  0  0
  -29.0132  -19.5631   20.6355 C   0  0  0  0  0  0  0  0  0  0  0  0
  -26.2924  -26.1436   17.4462 C   0  0  0  0  0  0  0  0  0  0  0  0
  -28.0116  -20.3160   19.9932 C   0  0  0  0  0  0  0  0  0  0  0  0
  -26.4162  -27.0381   18.5189 C   0  0  0  0  0  0  0  0  0  0  0  0
  -19.4295  -26.0492   21.7557 C   0  0  0  0  0  0  0  0  0  0  0  0
  -18.6192  -27.3878   23.5966 C   0  0  0  0  0  0  0  0  0  0  0  0
  -18.5280  -26.2450   22.8020 C   0  0  0  0  0  0  0  0  0  0  0  0
  -19.6118  -28.3349   23.3449 C   0  0  0  0  0  0  0  0  0  0  0  0
  -20.5133  -28.1391   22.2986 C   0  0  0  0  0  0  0  0  0  0  0  0
  -25.4742  -13.8875   20.7325 C   0  0  0  0  0  0  0  0  0  0  0  0
  -24.2819  -28.0350   17.9179 C   0  0  0  0  0  0  0  0  0  0  0  0
  -27.4438  -12.8353   20.0005 C   0  0  0  0  0  0  0  0  0  0  0  0
  -30.1843  -12.9708   19.4964 C   0  0  0  0  0  0  0  0  0  0  0  0
  -27.9282  -12.6067   18.7126 C   0  0  0  0  0  0  0  0  0  0  0  0
  -23.5788  -17.3621   22.2267 C   0  0  0  0  0  0  0  0  0  0  0  0
  -22.1851  -19.0232   22.5917 C   0  0  0  0  0  0  0  0  0  0  0  0
  -21.4537  -17.4623   20.7815 C   0  0  0  0  0  0  0  0  0  0  0  0
  -27.5176  -23.9230   19.3623 C   0  0  0  0  0  0  0  0  0  0  0  0
  -29.9367  -26.0645   19.6532 C   0  0  0  0  0  0  0  0  0  0  0  0
  -30.9705  -29.3112   19.4615 C   0  0  0  0  0  0  0  0  0  0  0  0
  -22.3528  -21.5151   27.5825 C   0  0  0  0  0  0  0  0  0  0  0  0
  -29.7001  -20.0581   21.8835 C   0  0  0  0  0  0  0  0  0  0  0  0
  -27.3778  -25.1424   17.1602 C   0  0  0  0  0  0  0  0  0  0  0  0
  -27.6090  -27.0137   19.4382 C   0  0  0  0  0  0  0  0  0  0  0  0
  -29.5431  -21.5595   22.1106 C   0  0  0  0  0  0  0  0  0  0  0  0
  -25.3927  -21.3488   25.7364 C   0  0  0  0  0  0  0  0  0  0  0  0
  -28.0911  -21.9810   21.9082 C   0  0  0  0  0  0  0  0  0  0  0  0
  -25.0928  -20.3380   24.6281 C   0  0  0  0  0  0  0  0  0  0  0  0
  -24.7089  -20.9680   27.0477 C   0  0  0  0  0  0  0  0  0  0  0  0
  -22.9553  -19.7303   25.8366 C   0  0  0  0  0  0  0  0  0  0  0  0
  -27.6298  -21.6994   20.4731 C   0  0  1  0  0  0  0  0  0  0  0  0
  -28.2275  -24.8161   18.3845 C   0  0  1  0  0  0  0  0  0  0  0  0
  -23.5777  -20.1017   24.4798 C   0  0  2  0  0  0  0  0  0  0  0  0
  -19.3527  -24.8348   20.8894 C   0  0  0  0  0  0  0  0  0  0  0  0
  -17.6521  -27.5971   24.7191 C   0  0  0  0  0  0  0  0  0  0  0  0
  -19.7067  -29.5624   24.1961 C   0  0  0  0  0  0  0  0  0  0  0  0
  -32.9949  -30.7568   19.7926 C   0  0  0  0  0  0  0  0  0  0  0  0
  -29.5774  -25.8709   22.6770 C   0  0  0  0  0  0  0  0  0  0  0  0
  -30.9145  -27.9757   22.9006 C   0  0  0  0  0  0  0  0  0  0  0  0
  -31.9573  -25.9369   21.9113 C   0  0  0  0  0  0  0  0  0  0  0  0
  -22.8251  -28.9586   22.6785 C   0  0  0  0  0  0  0  0  0  0  0  0
  -30.9562  -30.1799   16.6324 C   0  0  0  0  0  0  0  0  0  0  0  0
  -17.4652  -25.2269   23.0707 C   0  0  0  0  0  0  0  0  0  0  0  0
  -17.9701  -23.9593   23.7798 C   0  0  0  0  0  0  0  0  0  0  0  0
  -18.5341  -24.2430   25.1757 C   0  0  0  0  0  0  0  0  0  0  0  0
  -19.0011  -22.9543   25.8573 C   0  0  0  0  0  0  0  0  0  0  0  0
  -19.5285  -23.2329   27.2679 C   0  0  0  0  0  0  0  0  0  0  0  0
  -21.6359  -29.7464   19.6839 C   0  0  0  0  0  0  0  0  0  0  0  0
  -19.9473  -21.9614   27.9986 C   0  0  0  0  0  0  0  0  0  0  0  0
  -21.3022  -30.1697   21.1093 C   0  0  0  0  0  0  0  0  0  0  0  0
  -23.0963  -29.3467   19.5084 C   0  0  0  0  0  0  0  0  0  1  0  0
  -30.2358  -27.2206   20.5768 C   0  0  1  0  0  0  0  0  0  0  0  0
  -32.1792  -29.9460   18.7977 C   0  0  2  0  0  0  0  0  0  0  0  0
  -30.6477  -26.7505   22.0004 C   0  0  0  0  0  0  0  0  0  0  0  0
  -24.1456  -18.0640   23.2116 N   0  0  0  0  0  0  0  0  0  0  0  0
  -23.2745  -19.0678   23.4111 N   0  0  0  0  0  0  0  0  0  0  0  0
  -28.6406  -26.0124   19.1209 N   0  0  0  0  0  0  0  0  0  0  0  0
  -23.2741  -20.7596   26.8384 N   0  0  0  0  0  0  0  0  0  0  0  0
  -21.2113  -19.9557   22.6592 N   0  0  0  0  0  0  0  0  0  0  0  0
  -21.7817  -16.3038   20.0641 N   0  0  0  0  0  0  0  0  0  0  0  0
  -28.1421  -22.7081   19.5706 N   0  0  0  0  0  0  0  0  0  0  0  0
  -31.2420  -28.0329   19.9013 N   0  0  0  0  0  0  0  0  0  0  0  0
  -21.0128  -21.2598   27.3181 N   0  0  0  0  0  0  0  0  0  0  0  0
  -21.5181  -29.0795   22.0297 N   0  0  3  0  0  0  0  0  0  0  0  0
  -31.7486  -30.8511   17.6948 N   0  3  0  0  0  0  0  0  0  0  0  0
  -20.3966  -18.0778   20.5035 O   0  0  0  0  0  0  0  0  0  0  0  0
  -26.4809  -24.3084   19.8901 O   0  0  0  0  0  0  0  0  0  0  0  0
  -30.8225  -25.2421   19.4072 O   0  0  0  0  0  0  0  0  0  0  0  0
  -29.8944  -29.8927   19.5816 O   0  0  0  0  0  0  0  0  0  0  0  0
  -22.6989  -22.3586   28.4166 O   0  0  0  0  0  0  0  0  0  0  0  0
  -26.0837  -12.7693   20.2522 O   0  0  0  0  0  0  0  0  0  0  0  0
  -23.3046  -28.9523   18.1529 O   0  0  0  0  0  0  0  0  0  1  0  0
  -31.5000  -13.0373   19.2542 F   0  0  0  0  0  0  0  0  0  0  0  0
  -27.0819  -12.3227   17.7131 F   0  0  0  0  0  0  0  0  0  0  0  0
  1  2  1  0  0  0  0
  1  5  2  0  0  0  0
  2  6  2  0  0  0  0
  3  8  2  0  0  0  0
  3 16  1  0  0  0  0
  4  9  1  0  0  0  0
  4 16  2  0  0  0  0
  5 18  1  0  0  0  0
  6 20  1  0  0  0  0
  7 10  2  0  0  0  0
  7 19  1  0  0  0  0
  8 27  1  0  0  0  0
  9 27  2  0  0  0  0
 10 28  1  0  0  0  0
 11 12  2  0  0  0  0
 11 29  1  0  0  0  0
 12 30  1  0  0  0  0
 13 21  1  0  0  0  0
 13 28  2  0  0  0  0
 14 22  2  0  0  0  0
 14 26  1  0  0  0  0
 15 30  2  0  0  0  0
 15 31  1  0  0  0  0
 16 32  1  0  0  0  0
 17 32  1  0  0  0  0
 17 33  2  0  0  0  0
 17 34  1  0  0  0  0
 18 20  2  0  0  0  0
 18 39  1  0  0  0  0
 19 21  2  0  0  0  0
 19 40  1  0  0  0  0
 20 48  1  0  0  0  0
 21 41  1  0  0  0  0
 22 24  1  0  0  0  0
 22 51  1  0  0  0  0
 23 24  2  0  0  0  0
 23 25  1  0  0  0  0
 23 52  1  0  0  0  0
 24 60  1  0  0  0  0
 25 26  2  0  0  0  0
 25 53  1  0  0  0  0
 26 81  1  0  0  0  0
 27 88  1  0  0  0  0
 28 89  1  0  0  0  0
 29 31  2  0  0  0  0
 29 88  1  0  0  0  0
 30 90  1  0  0  0  0
 31 91  1  0  0  0  0
 32 72  2  0  0  0  0
 33 73  1  0  0  0  0
 33 76  1  0  0  0  0
 34 77  1  0  0  0  0
 34 83  2  0  0  0  0
 35 49  1  0  0  0  0
 35 78  1  0  0  0  0
 35 84  2  0  0  0  0
 36 69  1  0  0  0  0
 36 74  1  0  0  0  0
 36 85  2  0  0  0  0
 37 70  1  0  0  0  0
 37 79  1  0  0  0  0
 37 86  2  0  0  0  0
 38 75  1  0  0  0  0
 38 80  1  0  0  0  0
 38 87  2  0  0  0  0
 39 42  1  0  0  0  0
 40 49  1  0  0  0  0
 41 74  1  0  0  0  0
 42 44  1  0  0  0  0
 43 45  1  0  0  0  0
 43 46  1  0  0  0  0
 44 48  1  0  0  0  0
 45 50  1  0  0  0  0
 46 75  1  0  0  0  0
 47 50  1  0  0  0  0
 47 75  1  0  0  0  0
 48 78  1  0  0  0  0
 49 74  1  0  0  0  0
 50 73  1  0  0  0  0
 54 70  1  0  0  0  0
 55 71  1  0  0  0  0
 56 71  1  0  0  0  0
 57 71  1  0  0  0  0
 58 81  1  0  0  0  0
 59 82  1  0  0  0  0
 60 61  1  0  0  0  0
 61 62  1  0  0  0  0
 62 63  1  0  0  0  0
 63 64  1  0  0  0  0
 64 66  1  0  0  0  0
 65 67  1  0  0  0  0
 65 68  1  0  0  0  0
 66 80  1  0  0  0  0
 67 81  1  0  0  0  0
 68 89  1  0  0  0  0
 69 71  1  0  0  0  0
 69 79  1  0  0  0  0
 70 82  1  0  0  0  0
 72 73  1  0  0  0  0
M  CHG  1  82   1
M  ISO  4  38 100  68 101  80 100  89 101
M  END
> <Batch ID>
0019

> <Smiles>
CNC(C)C(=O)NC(C(=O)N1Cc2cc([101O:1][101CH2:1]CCN(C)c3cc(C)c(CCCCCC[100NH:0][100C:0](=O)N4CCCC(n5nc(-c6ccc(Oc7ccc(F)cc7F)cc6)c(C(N)=O)c5N)C4)c(C)c3C)ccc2CC1C(=O)NC1CCCc2ccccc21)C(C)(C)C

> <Shape>
0.252

> <Color>
0.057

> <Negative vol penalty>
0.000

$$$$

  -OEChem-04052316073D

 96104  0     1  0  0  0  0  0999 V2000
  -35.3586  -18.5804   17.7771 C   0  0  0  0  0  0  0  0  0  0  0  0
  -34.0368  -18.6301   18.2083 C   0  0  0  0  0  0  0  0  0  0  0  0
  -23.0863   -9.8576   19.9485 C   0  0  0  0  0  0  0  0  0  0  0  0
  -23.8453   -9.8812   22.2421 C   0  0  0  0  0  0  0  0  0  0  0  0
  -36.1817  -19.6958   17.9265 C   0  0  0  0  0  0  0  0  0  0  0  0
  -33.5378  -19.7948   18.7902 C   0  0  0  0  0  0  0  0  0  0  0  0
  -27.8488  -22.0089   18.3013 C   0  0  0  0  0  0  0  0  0  0  0  0
  -22.3492   -8.7014   20.2043 C   0  0  0  0  0  0  0  0  0  0  0  0
  -23.1081   -8.7250   22.4979 C   0  0  0  0  0  0  0  0  0  0  0  0
  -26.7384  -21.9359   19.1413 C   0  0  0  0  0  0  0  0  0  0  0  0
  -19.8845   -7.9113   23.1035 C   0  0  0  0  0  0  0  0  0  0  0  0
  -19.1274   -7.8730   24.2743 C   0  0  0  0  0  0  0  0  0  0  0  0
  -27.3030  -24.0917   20.0650 C   0  0  0  0  0  0  0  0  0  0  0  0
  -20.3800   -5.9468   25.0214 C   0  0  0  0  0  0  0  0  0  0  0  0
  -23.8344  -10.4475   20.9674 C   0  0  0  0  0  0  0  0  0  0  0  0
  -24.1613  -12.9740   20.8342 C   0  0  0  0  0  0  0  0  0  0  0  0
  -35.6898  -20.8780   18.5018 C   0  0  0  0  0  0  0  0  0  0  0  0
  -28.7022  -23.1208   18.3446 C   0  0  0  0  0  0  0  0  0  0  0  0
  -34.3555  -20.9266   18.9488 C   0  0  0  0  0  0  0  0  0  0  0  0
  -28.4221  -24.1775   19.2227 C   0  0  0  0  0  0  0  0  0  0  0  0
  -22.3600   -8.1351   21.4789 C   0  0  0  0  0  0  0  0  0  0  0  0
  -26.4670  -22.9761   20.0254 C   0  0  0  0  0  0  0  0  0  0  0  0
  -20.8893   -6.9672   22.8915 C   0  0  0  0  0  0  0  0  0  0  0  0
  -19.3751   -6.8908   25.2333 C   0  0  0  0  0  0  0  0  0  0  0  0
  -21.1371   -5.9851   23.8505 C   0  0  0  0  0  0  0  0  0  0  0  0
  -24.5965  -11.6415   20.7036 C   0  0  0  0  0  0  0  0  0  0  0  0
  -25.2492  -13.7280   20.4673 C   0  0  0  0  0  0  0  0  0  0  0  0
  -22.8877  -13.4844   21.2500 C   0  0  0  0  0  0  0  0  0  0  0  0
  -31.7719  -23.5667   19.0386 C   0  0  0  0  0  0  0  0  0  0  0  0
  -25.8200  -18.6089   21.9785 C   0  0  0  0  0  0  0  0  0  0  0  0
  -31.1487  -26.5987   18.0687 C   0  0  0  0  0  0  0  0  0  0  0  0
  -28.8447  -29.0686   17.5805 C   0  0  0  0  0  0  0  0  0  0  0  0
  -30.7267  -14.7804   20.6522 C   0  0  0  0  0  0  0  0  0  0  0  0
  -36.6308  -22.0422   18.6855 C   0  0  0  0  0  0  0  0  0  0  0  0
  -29.8807  -23.1964   17.4131 C   0  0  0  0  0  0  0  0  0  0  0  0
  -29.2957  -25.4024   19.2936 C   0  0  0  0  0  0  0  0  0  0  0  0
  -35.9186  -23.3620   18.9706 C   0  0  0  0  0  0  0  0  0  0  0  0
  -24.9773  -17.1273   25.0439 C   0  0  0  0  0  0  0  0  0  0  0  0
  -29.6041  -12.3767   18.2776 C   0  0  0  0  0  0  0  0  0  0  0  0
  -34.8430  -23.1691   20.0348 C   0  0  0  0  0  0  0  0  0  0  0  0
  -28.1683  -12.0767   18.7116 C   0  0  0  0  0  0  0  0  0  0  0  0
  -24.6477  -16.8673   23.5640 C   0  0  0  0  0  0  0  0  0  0  0  0
  -25.7932  -18.3522   24.5966 C   0  0  0  0  0  0  0  0  0  0  0  0
  -30.5195  -12.6092   19.4776 C   0  0  0  0  0  0  0  0  0  0  0  0
  -28.6129  -13.3363   20.8597 C   0  0  0  0  0  0  0  0  0  0  0  0
  -33.7704  -22.1802   19.5623 C   0  0  1  0  0  0  0  0  0  0  0  0
  -30.9714  -24.1428   17.9050 C   0  0  1  0  0  0  0  0  0  0  0  0
  -27.6403  -13.1498   19.6827 C   0  0  2  0  0  0  0  0  0  0  0  0
  -24.9784  -18.3639   23.2645 C   0  0  0  0  0  0  0  0  0  0  0  0
  -28.6415  -31.4492   16.8131 C   0  0  0  0  0  0  0  0  0  0  0  0
  -21.7513  -21.9656   20.4463 C   0  0  0  0  0  0  0  0  0  0  0  0
  -24.9514  -21.3562   24.3440 C   0  0  0  0  0  0  0  0  0  0  0  0
  -22.9607  -18.9828   24.6130 C   0  0  0  0  0  0  0  0  0  0  0  0
  -22.8194  -18.8997   22.1400 C   0  0  0  0  0  0  0  0  0  0  0  0
  -32.2923  -27.5523   20.7319 C   0  0  0  0  0  0  0  0  0  0  0  0
  -31.2133  -29.7737   20.3203 C   0  0  0  0  0  0  0  0  0  0  0  0
  -32.9631  -28.9299   18.7554 C   0  0  0  0  0  0  0  0  0  0  0  0
  -22.5129  -25.4275   22.6109 C   0  0  0  0  0  0  0  0  0  0  0  0
  -22.3468  -24.1245   24.7185 C   0  0  0  0  0  0  0  0  0  0  0  0
  -20.6630  -23.7930   22.8923 C   0  0  0  0  0  0  0  0  0  0  0  0
  -27.0598  -28.3167   15.3427 C   0  0  0  0  0  0  0  0  0  0  0  0
  -28.9640  -18.4238   20.8939 C   0  0  0  0  0  0  0  0  0  0  0  0
  -29.7918  -18.0717   22.1357 C   0  0  0  0  0  0  0  0  0  0  0  0
  -27.9694  -19.5510   21.1567 C   0  0  0  0  0  0  0  0  0  0  0  0
  -30.7794  -16.9378   21.8778 C   0  0  0  0  0  0  0  0  0  0  0  0
  -24.2543  -22.1758   20.3709 C   0  0  0  0  0  0  0  0  0  1  0  0
  -30.6720  -27.8610   18.7456 C   0  0  1  0  0  0  0  0  0  0  0  0
  -28.5873  -29.9867   16.3994 C   0  0  2  0  0  0  0  0  0  0  0  0
  -22.9531  -22.7760   20.9442 C   0  0  2  0  0  0  0  0  0  0  0  0
  -24.0942  -20.7959   23.2092 C   0  0  1  0  0  0  0  0  0  0  0  0
  -23.0485  -22.9471   22.4899 C   0  0  1  0  0  0  0  0  0  0  0  0
  -23.7438  -19.2804   23.3163 C   0  0  0  0  0  0  0  0  0  0  0  0
  -31.7696  -28.5054   19.6386 C   0  0  0  0  0  0  0  0  0  0  0  0
  -22.1562  -24.0340   23.1909 C   0  0  0  0  0  0  0  0  0  0  0  0
  -25.8621  -11.5510   20.2863 N   0  0  0  0  0  0  0  0  0  0  0  0
  -26.2314  -12.8361   20.1513 N   0  0  0  0  0  0  0  0  0  0  0  0
  -30.4396  -25.4266   18.3671 N   0  0  0  0  0  0  0  0  0  0  0  0
  -29.9625  -13.6391   20.3580 N   0  0  0  0  0  0  0  0  0  0  0  0
  -25.4517  -15.0602   20.3874 N   0  0  0  0  0  0  0  0  0  0  0  0
  -21.8810  -12.5711   21.5917 N   0  0  0  0  0  0  0  0  0  0  0  0
  -32.8641  -22.8226   18.6348 N   0  0  0  0  0  0  0  0  0  0  0  0
  -27.0321  -19.2311   22.2094 N   0  0  0  0  0  0  0  0  0  0  0  0
  -30.1778  -28.7316   17.6844 N   0  0  0  0  0  0  0  0  0  0  0  0
  -30.1218  -15.7101   21.4891 N   0  0  0  0  0  0  0  0  0  0  0  0
  -27.2443  -29.7134   15.8139 N   0  3  0  0  0  0  0  0  0  0  0  0
  -22.8628  -21.6195   23.1590 N   0  3  0  0  0  0  0  0  0  0  0  0
  -22.6441  -14.7139   21.3007 O   0  0  0  0  0  0  0  0  0  0  0  0
  -31.4252  -23.7824   20.1940 O   0  0  0  0  0  0  0  0  0  0  0  0
  -25.3806  -18.2519   20.8917 O   0  0  0  0  0  0  0  0  0  0  0  0
  -32.1102  -26.6520   17.2978 O   0  0  0  0  0  0  0  0  0  0  0  0
  -27.9532  -28.6912   18.3376 O   0  0  0  0  0  0  0  0  0  0  0  0
  -31.8618  -14.9602   20.1980 O   0  0  0  0  0  0  0  0  0  0  0  0
  -21.6407   -7.0070   21.7289 O   0  0  0  0  0  0  0  0  0  0  0  0
  -25.3773  -22.9066   20.8521 O   0  0  0  0  0  0  0  0  0  1  0  0
  -18.6490   -6.8551   26.3583 F   0  0  0  0  0  0  0  0  0  0  0  0
  -22.1019   -5.0762   23.6530 F   0  0  0  0  0  0  0  0  0  0  0  0
  1  2  1  0  0  0  0
  1  5  2  0  0  0  0
  2  6  2  0  0  0  0
  3  8  2  0  0  0  0
  3 15  1  0  0  0  0
  4  9  1  0  0  0  0
  4 15  2  0  0  0  0
  5 17  1  0  0  0  0
  6 19  1  0  0  0  0
  7 10  2  0  0  0  0
  7 18  1  0  0  0  0
  8 21  1  0  0  0  0
  9 21  2  0  0  0  0
 10 22  1  0  0  0  0
 11 12  2  0  0  0  0
 11 23  1  0  0  0  0
 12 24  1  0  0  0  0
 13 20  1  0  0  0  0
 13 22  2  0  0  0  0
 14 24  2  0  0  0  0
 14 25  1  0  0  0  0
 15 26  1  0  0  0  0
 16 26  1  0  0  0  0
 16 27  2  0  0  0  0
 16 28  1  0  0  0  0
 17 19  2  0  0  0  0
 17 34  1  0  0  0  0
 18 20  2  0  0  0  0
 18 35  1  0  0  0  0
 19 46  1  0  0  0  0
 20 36  1  0  0  0  0
 21 93  1  0  0  0  0
 22 94  1  0  0  0  0
 23 25  2  0  0  0  0
 23 93  1  0  0  0  0
 24 95  1  0  0  0  0
 25 96  1  0  0  0  0
 26 75  2  0  0  0  0
 27 76  1  0  0  0  0
 27 79  1  0  0  0  0
 28 80  1  0  0  0  0
 28 87  2  0  0  0  0
 29 47  1  0  0  0  0
 29 81  1  0  0  0  0
 29 88  2  0  0  0  0
 30 49  1  0  0  0  0
 30 82  1  0  0  0  0
 30 89  2  0  0  0  0
 31 67  1  0  0  0  0
 31 77  1  0  0  0  0
 31 90  2  0  0  0  0
 32 68  1  0  0  0  0
 32 83  1  0  0  0  0
 32 91  2  0  0  0  0
 33 78  1  0  0  0  0
 33 84  1  0  0  0  0
 33 92  2  0  0  0  0
 34 37  1  0  0  0  0
 35 47  1  0  0  0  0
 36 77  1  0  0  0  0
 37 40  1  0  0  0  0
 38 42  1  0  0  0  0
 38 43  1  0  0  0  0
 39 41  1  0  0  0  0
 39 44  1  0  0  0  0
 40 46  1  0  0  0  0
 41 48  1  0  0  0  0
 42 49  1  0  0  0  0
 43 49  1  0  0  0  0
 44 78  1  0  0  0  0
 45 48  1  0  0  0  0
 45 78  1  0  0  0  0
 46 81  1  0  0  0  0
 47 77  1  0  0  0  0
 48 76  1  0  0  0  0
 49 72  1  0  0  0  0
 50 68  1  0  0  0  0
 51 69  1  0  0  0  0
 52 70  1  0  0  0  0
 53 72  1  0  0  0  0
 54 72  1  0  0  0  0
 55 73  1  0  0  0  0
 56 73  1  0  0  0  0
 57 73  1  0  0  0  0
 58 74  1  0  0  0  0
 59 74  1  0  0  0  0
 60 74  1  0  0  0  0
 61 85  1  0  0  0  0
 62 63  1  0  0  0  0
 62 64  1  0  0  0  0
 63 65  1  0  0  0  0
 64 82  1  0  0  0  0
 65 84  1  0  0  0  0
 66 69  1  0  0  0  0
 66 94  1  0  0  0  0
 67 73  1  0  0  0  0
 67 83  1  0  0  0  0
 68 85  1  0  0  0  0
 69 71  1  0  0  0  0
 70 72  1  0  0  0  0
 70 86  1  0  0  0  0
 71 74  1  0  0  0  0
 71 86  1  0  0  0  0
 75 76  1  0  0  0  0
M  CHG  2  85   1  86   1
M  ISO  4  33 100  66 101  84 100  94 101
M  END
> <Batch ID>
0019

> <Smiles>
CNC(C)C(=O)NC(C(=O)N1Cc2cc([101O:1][101CH2:1]C(C)C(NC(C)C(C)(C)C3(C(=O)NCCCC[100NH:0][100C:0](=O)N4CCCC(n5nc(-c6ccc(Oc7ccc(F)cc7F)cc6)c(C(N)=O)c5N)C4)CCC3)C(C)(C)C)ccc2CC1C(=O)NC1CCCc2ccccc21)C(C)(C)C

> <Shape>
0.232

> <Color>
0.174

> <Negative vol penalty>
0.000

$$$$

  -OEChem-04052316073D

 83 91  0     1  0  0  0  0  0999 V2000
  -19.2820  -33.8960   21.3083 C   0  0  0  0  0  0  0  0  0  0  0  0
  -20.5842  -33.5607   20.9517 C   0  0  0  0  0  0  0  0  0  0  0  0
  -25.2019  -15.1910   20.2001 C   0  0  0  0  0  0  0  0  0  0  0  0
  -27.5741  -14.8078   19.9491 C   0  0  0  0  0  0  0  0  0  0  0  0
  -18.6341  -33.1900   22.3211 C   0  0  0  0  0  0  0  0  0  0  0  0
  -21.2397  -32.5198   21.6083 C   0  0  0  0  0  0  0  0  0  0  0  0
  -25.2595  -28.5883   19.1813 C   0  0  0  0  0  0  0  0  0  0  0  0
  -25.0032  -13.8259   20.4062 C   0  0  0  0  0  0  0  0  0  0  0  0
  -27.3754  -13.4427   20.1553 C   0  0  0  0  0  0  0  0  0  0  0  0
  -26.6531  -28.5488   19.1865 C   0  0  0  0  0  0  0  0  0  0  0  0
  -25.3687  -11.6090   22.9330 C   0  0  0  0  0  0  0  0  0  0  0  0
  -24.5298  -11.2269   23.9798 C   0  0  0  0  0  0  0  0  0  0  0  0
  -26.5975  -27.0456   21.0723 C   0  0  0  0  0  0  0  0  0  0  0  0
  -31.0860  -26.4512   17.4699 C   0  0  0  0  0  0  0  0  0  0  0  0
  -23.0777  -10.1066   22.4071 C   0  0  0  0  0  0  0  0  0  0  0  0
  -26.4874  -15.6820   19.9715 C   0  0  0  0  0  0  0  0  0  0  0  0
  -26.9549  -18.0706   20.7356 C   0  0  0  0  0  0  0  0  0  0  0  0
  -19.2785  -32.1336   22.9839 C   0  0  0  0  0  0  0  0  0  0  0  0
  -24.5234  -27.8640   20.1300 C   0  0  0  0  0  0  0  0  0  0  0  0
  -20.6003  -31.7998   22.6318 C   0  0  0  0  0  0  0  0  0  0  0  0
  -25.1945  -27.0755   21.0754 C   0  0  0  0  0  0  0  0  0  0  0  0
  -30.5682  -25.7624   18.5612 C   0  0  0  0  0  0  0  0  0  0  0  0
  -26.0899  -12.9517   20.3838 C   0  0  0  0  0  0  0  0  0  0  0  0
  -27.3224  -27.7797   20.1339 C   0  0  0  0  0  0  0  0  0  0  0  0
  -25.0621  -11.2401   21.6232 C   0  0  0  0  0  0  0  0  0  0  0  0
  -23.3843  -10.4756   23.7169 C   0  0  0  0  0  0  0  0  0  0  0  0
  -23.9166  -10.4888   21.3603 C   0  0  0  0  0  0  0  0  0  0  0  0
  -29.9353  -24.5396   18.3677 C   0  0  0  0  0  0  0  0  0  0  0  0
  -26.6932  -17.0920   19.7580 C   0  0  0  0  0  0  0  0  0  0  0  0
  -30.9461  -25.8788   16.2159 C   0  0  0  0  0  0  0  0  0  0  0  0
  -29.8466  -24.0529   17.0735 C   0  0  0  0  0  0  0  0  0  0  0  0
  -27.0700  -19.2416   20.0271 C   0  0  0  0  0  0  0  0  0  0  0  0
  -27.0827  -17.9333   22.1570 C   0  0  0  0  0  0  0  0  0  0  0  0
  -22.4855  -28.6273   22.4469 C   0  0  0  0  0  0  0  0  0  0  0  0
  -22.1467  -25.4094   22.6763 C   0  0  0  0  0  0  0  0  0  0  0  0
  -23.4730  -22.3110   22.1402 C   0  0  0  0  0  0  0  0  0  0  0  0
  -29.0001  -22.1338   15.6782 C   0  0  0  0  0  0  0  0  0  0  0  0
  -18.5544  -31.4303   24.1045 C   0  0  0  0  0  0  0  0  0  0  0  0
  -23.0200  -27.8960   20.0942 C   0  0  0  0  0  0  0  0  0  0  0  0
  -24.4503  -26.2635   22.1027 C   0  0  0  0  0  0  0  0  0  0  0  0
  -19.1854  -30.0962   24.4947 C   0  0  0  0  0  0  0  0  0  0  0  0
  -25.9963  -20.2851   15.1918 C   0  0  0  0  0  0  0  0  0  0  0  0
  -20.6975  -30.2411   24.6335 C   0  0  0  0  0  0  0  0  0  0  0  0
  -25.9314  -19.3700   16.4168 C   0  0  0  0  0  0  0  0  0  0  0  0
  -27.4304  -20.4740   14.7004 C   0  0  0  0  0  0  0  0  0  0  0  0
  -28.3191  -20.0041   16.9495 C   0  0  0  0  0  0  0  0  0  0  0  0
  -21.3358  -30.6607   23.3038 C   0  0  1  0  0  0  0  0  0  0  0  0
  -22.3825  -27.5261   21.4299 C   0  0  1  0  0  0  0  0  0  0  0  0
  -26.9014  -19.8359   17.5202 C   0  0  2  0  0  0  0  0  0  0  0  0
  -31.4902  -26.5898   15.0221 C   0  0  0  0  0  0  0  0  0  0  0  0
  -22.9776  -19.8727   22.4666 C   0  0  0  0  0  0  0  0  0  0  0  0
  -31.4272  -27.7186   20.0153 C   0  0  0  0  0  0  0  0  0  0  0  0
  -31.5142  -25.3823   20.8590 C   0  0  0  0  0  0  0  0  0  0  0  0
  -22.7874  -25.6794   25.6473 C   0  0  0  0  0  0  0  0  0  0  0  0
  -23.2126  -23.2128   25.7084 C   0  0  0  0  0  0  0  0  0  0  0  0
  -20.9459  -24.0718   25.1191 C   0  0  0  0  0  0  0  0  0  0  0  0
  -23.5816  -21.7805   19.2306 C   0  0  0  0  0  0  0  0  0  0  0  0
  -29.2946  -26.5397   20.6120 C   0  0  0  0  0  0  0  0  0  1  0  0
  -22.8345  -24.3148   23.4560 C   0  0  1  0  0  0  0  0  0  0  0  0
  -22.8850  -21.0575   21.5177 C   0  0  2  0  0  0  0  0  0  0  0  0
  -30.6971  -26.3544   19.9772 C   0  0  0  0  0  0  0  0  0  0  0  0
  -22.4595  -24.3364   24.9647 C   0  0  0  0  0  0  0  0  0  0  0  0
  -26.6447  -17.5974   18.5226 N   0  0  0  0  0  0  0  0  0  0  0  0
  -30.3375  -24.6932   15.9887 N   0  0  0  0  0  0  0  0  0  0  0  0
  -26.8774  -18.9064   18.7191 N   0  0  0  0  0  0  0  0  0  0  0  0
  -22.9814  -26.3326   22.0308 N   0  0  0  0  0  0  0  0  0  0  0  0
  -28.2908  -20.9200   15.7984 N   0  0  0  0  0  0  0  0  0  0  0  0
  -27.3160  -20.5150   20.4015 N   0  0  0  0  0  0  0  0  0  0  0  0
  -26.9357  -16.6587   22.7211 N   0  0  0  0  0  0  0  0  0  0  0  0
  -29.2007  -22.8062   16.8833 N   0  0  0  0  0  0  0  0  0  0  0  0
  -21.4365  -29.5261   22.4112 N   0  0  0  0  0  0  0  0  0  0  0  0
  -22.5102  -23.0647   22.7774 N   0  0  0  0  0  0  0  0  0  0  0  0
  -23.6113  -20.7126   20.2629 N   0  3  0  0  0  0  0  0  0  0  0  0
  -27.3038  -18.9146   22.9065 O   0  0  0  0  0  0  0  0  0  0  0  0
  -23.4448  -28.6584   23.2088 O   0  0  0  0  0  0  0  0  0  0  0  0
  -20.9142  -25.4399   22.6355 O   0  0  0  0  0  0  0  0  0  0  0  0
  -24.6677  -22.5914   22.0714 O   0  0  0  0  0  0  0  0  0  0  0  0
  -29.3764  -22.5599   14.5833 O   0  0  0  0  0  0  0  0  0  0  0  0
  -25.8964  -11.6196   20.5852 O   0  0  0  0  0  0  0  0  0  0  0  0
  -28.6826  -27.7400   20.1416 O   0  0  0  0  0  0  0  0  0  1  0  0
  -22.5796  -10.1074   24.7224 F   0  0  0  0  0  0  0  0  0  0  0  0
  -23.6174  -10.1303   20.1042 F   0  0  0  0  0  0  0  0  0  0  0  0
  -29.4283  -23.8584   19.4046 F   0  0  0  0  0  0  0  0  0  0  0  0
  1  2  1  0  0  0  0
  1  5  2  0  0  0  0
  2  6  2  0  0  0  0
  3  8  2  0  0  0  0
  3 16  1  0  0  0  0
  4  9  1  0  0  0  0
  4 16  2  0  0  0  0
  5 18  1  0  0  0  0
  6 20  1  0  0  0  0
  7 10  2  0  0  0  0
  7 19  1  0  0  0  0
  8 23  1  0  0  0  0
  9 23  2  0  0  0  0
 10 24  1  0  0  0  0
 11 12  2  0  0  0  0
 11 25  1  0  0  0  0
 12 26  1  0  0  0  0
 13 21  1  0  0  0  0
 13 24  2  0  0  0  0
 14 22  1  0  0  0  0
 14 30  2  0  0  0  0
 15 26  2  0  0  0  0
 15 27  1  0  0  0  0
 16 29  1  0  0  0  0
 17 29  1  0  0  0  0
 17 32  2  0  0  0  0
 17 33  1  0  0  0  0
 18 20  2  0  0  0  0
 18 38  1  0  0  0  0
 19 21  2  0  0  0  0
 19 39  1  0  0  0  0
 20 47  1  0  0  0  0
 21 40  1  0  0  0  0
 22 28  2  0  0  0  0
 22 61  1  0  0  0  0
 23 79  1  0  0  0  0
 24 80  1  0  0  0  0
 25 27  2  0  0  0  0
 25 79  1  0  0  0  0
 26 81  1  0  0  0  0
 27 82  1  0  0  0  0
 28 31  1  0  0  0  0
 28 83  1  0  0  0  0
 29 63  2  0  0  0  0
 30 50  1  0  0  0  0
 30 64  1  0  0  0  0
 31 64  2  0  0  0  0
 31 70  1  0  0  0  0
 32 65  1  0  0  0  0
 32 68  1  0  0  0  0
 33 69  1  0  0  0  0
 33 74  2  0  0  0  0
 34 48  1  0  0  0  0
 34 71  1  0  0  0  0
 34 75  2  0  0  0  0
 35 59  1  0  0  0  0
 35 66  1  0  0  0  0
 35 76  2  0  0  0  0
 36 60  1  0  0  0  0
 36 72  1  0  0  0  0
 36 77  2  0  0  0  0
 37 67  1  0  0  0  0
 37 70  1  0  0  0  0
 37 78  2  0  0  0  0
 38 41  1  0  0  0  0
 39 48  1  0  0  0  0
 40 66  1  0  0  0  0
 41 43  1  0  0  0  0
 42 44  1  0  0  0  0
 42 45  1  0  0  0  0
 43 47  1  0  0  0  0
 44 49  1  0  0  0  0
 45 67  1  0  0  0  0
 46 49  1  0  0  0  0
 46 67  1  0  0  0  0
 47 71  1  0  0  0  0
 48 66  1  0  0  0  0
 49 65  1  0  0  0  0
 51 60  1  0  0  0  0
 52 61  1  0  0  0  0
 53 61  1  0  0  0  0
 54 62  1  0  0  0  0
 55 62  1  0  0  0  0
 56 62  1  0  0  0  0
 57 73  1  0  0  0  0
 58 61  1  0  0  0  0
 58 80  1  0  0  0  0
 59 62  1  0  0  0  0
 59 72  1  0  0  0  0
 60 73  1  0  0  0  0
 63 65  1  0  0  0  0
M  CHG  1  73   1
M  ISO  4  37 100  58 101  70 100  80 101
M  END
> <Batch ID>
0019

> <Smiles>
CNC(C)C(=O)NC(C(=O)N1Cc2cc([101O:1][101CH2:1]C(C)(C)c3cc(C)nc([100NH:0][100C:0](=O)N4CCCC(n5nc(-c6ccc(Oc7ccc(F)cc7F)cc6)c(C(N)=O)c5N)C4)c3F)ccc2CC1C(=O)NC1CCCc2ccccc21)C(C)(C)C

> <Shape>
0.198

> <Color>
0.079

> <Negative vol penalty>
0.000

$$$$

  -OEChem-04052316073D

 81 89  0     1  0  0  0  0  0999 V2000
  -35.5981  -32.0721   16.6702 C   0  0  0  0  0  0  0  0  0  0  0  0
  -35.8727  -30.7250   16.8831 C   0  0  0  0  0  0  0  0  0  0  0  0
  -23.0049   -9.8687   19.9774 C   0  0  0  0  0  0  0  0  0  0  0  0
  -23.7287   -9.9247   22.2818 C   0  0  0  0  0  0  0  0  0  0  0  0
  -34.4034  -32.6207   17.1345 C   0  0  0  0  0  0  0  0  0  0  0  0
  -34.9531  -29.9259   17.5614 C   0  0  0  0  0  0  0  0  0  0  0  0
  -32.4789  -23.2064   17.7674 C   0  0  0  0  0  0  0  0  0  0  0  0
  -22.2450   -8.7298   20.2438 C   0  0  0  0  0  0  0  0  0  0  0  0
  -22.9687   -8.7857   22.5482 C   0  0  0  0  0  0  0  0  0  0  0  0
  -32.2605  -22.1662   18.6697 C   0  0  0  0  0  0  0  0  0  0  0  0
  -23.2331   -5.4481   22.0774 C   0  0  0  0  0  0  0  0  0  0  0  0
  -23.8263   -4.4347   22.8301 C   0  0  0  0  0  0  0  0  0  0  0  0
  -30.1943  -23.2042   19.3569 C   0  0  0  0  0  0  0  0  0  0  0  0
  -31.1696  -18.4038   23.7057 C   0  0  0  0  0  0  0  0  0  0  0  0
  -22.1002   -4.6679   24.5044 C   0  0  0  0  0  0  0  0  0  0  0  0
  -23.7468  -10.4661   20.9965 C   0  0  0  0  0  0  0  0  0  0  0  0
  -24.1172  -12.9839   20.8199 C   0  0  0  0  0  0  0  0  0  0  0  0
  -33.4643  -31.8257   17.8103 C   0  0  0  0  0  0  0  0  0  0  0  0
  -31.5604  -24.2606   17.6607 C   0  0  0  0  0  0  0  0  0  0  0  0
  -33.7452  -30.4647   18.0363 C   0  0  0  0  0  0  0  0  0  0  0  0
  -30.4020  -24.2552   18.4507 C   0  0  0  0  0  0  0  0  0  0  0  0
  -31.5675  -19.3603   22.7716 C   0  0  0  0  0  0  0  0  0  0  0  0
  -30.6642  -17.1769   23.2755 C   0  0  0  0  0  0  0  0  0  0  0  0
  -31.4599  -19.0900   21.4075 C   0  0  0  0  0  0  0  0  0  0  0  0
  -30.9544  -17.8631   20.9773 C   0  0  0  0  0  0  0  0  0  0  0  0
  -30.5566  -16.9066   21.9113 C   0  0  0  0  0  0  0  0  0  0  0  0
  -22.2269   -8.1883   21.5291 C   0  0  0  0  0  0  0  0  0  0  0  0
  -31.1195  -22.1665   19.4667 C   0  0  0  0  0  0  0  0  0  0  0  0
  -22.0735   -6.0716   22.5382 C   0  0  0  0  0  0  0  0  0  0  0  0
  -23.2599   -4.0445   24.0436 C   0  0  0  0  0  0  0  0  0  0  0  0
  -21.5070   -5.6814   23.7517 C   0  0  0  0  0  0  0  0  0  0  0  0
  -24.5324  -11.6424   20.7218 C   0  0  0  0  0  0  0  0  0  0  0  0
  -25.2228  -13.7130   20.4557 C   0  0  0  0  0  0  0  0  0  0  0  0
  -22.8459  -13.5229   21.2056 C   0  0  0  0  0  0  0  0  0  0  0  0
  -31.6835  -27.4002   18.1422 C   0  0  0  0  0  0  0  0  0  0  0  0
  -28.6760  -27.3109   16.9301 C   0  0  0  0  0  0  0  0  0  0  0  0
  -25.8424  -25.5026   16.3406 C   0  0  0  0  0  0  0  0  0  0  0  0
  -30.6964  -14.7067   20.6919 C   0  0  0  0  0  0  0  0  0  0  0  0
  -32.2079  -32.4742   18.3352 C   0  0  0  0  0  0  0  0  0  0  0  0
  -31.7972  -25.3615   16.6634 C   0  0  0  0  0  0  0  0  0  0  0  0
  -29.3751  -25.3532   18.3599 C   0  0  0  0  0  0  0  0  0  0  0  0
  -31.1195  -31.4738   18.7159 C   0  0  0  0  0  0  0  0  0  0  0  0
  -29.5938  -12.2465   18.3662 C   0  0  0  0  0  0  0  0  0  0  0  0
  -31.7067  -30.3355   19.5442 C   0  0  0  0  0  0  0  0  0  0  0  0
  -28.1445  -11.9804   18.7798 C   0  0  0  0  0  0  0  0  0  0  0  0
  -30.4923  -12.4956   19.5763 C   0  0  0  0  0  0  0  0  0  0  0  0
  -28.5717  -13.2735   20.9087 C   0  0  0  0  0  0  0  0  0  0  0  0
  -32.7617  -29.5598   18.7461 C   0  0  1  0  0  0  0  0  0  0  0  0
  -31.0518  -26.6479   17.0053 C   0  0  1  0  0  0  0  0  0  0  0  0
  -27.6157  -13.0811   19.7202 C   0  0  2  0  0  0  0  0  0  0  0  0
  -32.1067  -20.6654   23.2587 C   0  0  0  0  0  0  0  0  0  0  0  0
  -30.2475  -16.1721   24.3004 C   0  0  0  0  0  0  0  0  0  0  0  0
  -30.8408  -17.5781   19.5121 C   0  0  0  0  0  0  0  0  0  0  0  0
  -23.5388  -25.7118   15.3676 C   0  0  0  0  0  0  0  0  0  0  0  0
  -27.7598  -28.8061   19.4271 C   0  0  0  0  0  0  0  0  0  0  0  0
  -25.4078  -28.1533   18.8701 C   0  0  0  0  0  0  0  0  0  0  0  0
  -26.7075  -29.5887   17.2976 C   0  0  0  0  0  0  0  0  0  0  0  0
  -26.3993  -23.4497   14.2828 C   0  0  0  0  0  0  0  0  0  0  0  0
  -31.8887  -20.1212   20.4054 C   0  0  0  0  0  0  0  0  0  1  0  0
  -27.2936  -27.1387   17.5118 C   0  0  1  0  0  0  0  0  0  0  0  0
  -24.9892  -25.3446   15.0950 C   0  0  2  0  0  0  0  0  0  0  0  0
  -26.8123  -28.4019   18.2800 C   0  0  0  0  0  0  0  0  0  0  0  0
  -25.8026  -11.5233   20.3263 N   0  0  0  0  0  0  0  0  0  0  0  0
  -26.1951  -12.7994   20.1724 N   0  0  0  0  0  0  0  0  0  0  0  0
  -29.6547  -26.4106   17.3743 N   0  0  0  0  0  0  0  0  0  0  0  0
  -29.9306  -13.5535   20.4191 N   0  0  0  0  0  0  0  0  0  0  0  0
  -25.4485  -15.0400   20.3534 N   0  0  0  0  0  0  0  0  0  0  0  0
  -21.8192  -12.6328   21.5490 N   0  0  0  0  0  0  0  0  0  0  0  0
  -30.0461  -15.6582   21.4769 N   0  0  0  0  0  0  0  0  0  0  0  0
  -32.1252  -28.6650   17.8034 N   0  0  0  0  0  0  0  0  0  0  0  0
  -26.4298  -26.7485   16.4027 N   0  0  0  0  0  0  0  0  0  0  0  0
  -25.0344  -23.9357   14.6114 N   0  3  0  0  0  0  0  0  0  0  0  0
  -22.6218  -14.7569   21.2289 O   0  0  0  0  0  0  0  0  0  0  0  0
  -31.7630  -26.8728   19.2455 O   0  0  0  0  0  0  0  0  0  0  0  0
  -28.8783  -28.2066   16.1064 O   0  0  0  0  0  0  0  0  0  0  0  0
  -25.9717  -24.6112   17.1769 O   0  0  0  0  0  0  0  0  0  0  0  0
  -31.8344  -14.8522   20.2384 O   0  0  0  0  0  0  0  0  0  0  0  0
  -21.4853   -7.0770   21.7894 O   0  0  0  0  0  0  0  0  0  0  0  0
  -30.9043  -21.1528   20.3487 O   0  0  0  0  0  0  0  0  0  1  0  0
  -23.8288   -3.0702   24.7655 F   0  0  0  0  0  0  0  0  0  0  0  0
  -20.3924   -6.2758   24.1991 F   0  0  0  0  0  0  0  0  0  0  0  0
  1  2  1  0  0  0  0
  1  5  2  0  0  0  0
  2  6  2  0  0  0  0
  3  8  2  0  0  0  0
  3 16  1  0  0  0  0
  4  9  1  0  0  0  0
  4 16  2  0  0  0  0
  5 18  1  0  0  0  0
  6 20  1  0  0  0  0
  7 10  2  0  0  0  0
  7 19  1  0  0  0  0
  8 27  1  0  0  0  0
  9 27  2  0  0  0  0
 10 28  1  0  0  0  0
 11 12  2  0  0  0  0
 11 29  1  0  0  0  0
 12 30  1  0  0  0  0
 13 21  1  0  0  0  0
 13 28  2  0  0  0  0
 14 22  2  0  0  0  0
 14 23  1  0  0  0  0
 15 30  2  0  0  0  0
 15 31  1  0  0  0  0
 16 32  1  0  0  0  0
 17 32  1  0  0  0  0
 17 33  2  0  0  0  0
 17 34  1  0  0  0  0
 18 20  2  0  0  0  0
 18 39  1  0  0  0  0
 19 21  2  0  0  0  0
 19 40  1  0  0  0  0
 20 48  1  0  0  0  0
 21 41  1  0  0  0  0
 22 24  1  0  0  0  0
 22 51  1  0  0  0  0
 23 26  2  0  0  0  0
 23 52  1  0  0  0  0
 24 25  2  0  0  0  0
 24 59  1  0  0  0  0
 25 26  1  0  0  0  0
 25 53  1  0  0  0  0
 26 69  1  0  0  0  0
 27 78  1  0  0  0  0
 28 79  1  0  0  0  0
 29 31  2  0  0  0  0
 29 78  1  0  0  0  0
 30 80  1  0  0  0  0
 31 81  1  0  0  0  0
 32 63  2  0  0  0  0
 33 64  1  0  0  0  0
 33 67  1  0  0  0  0
 34 68  1  0  0  0  0
 34 73  2  0  0  0  0
 35 49  1  0  0  0  0
 35 70  1  0  0  0  0
 35 74  2  0  0  0  0
 36 60  1  0  0  0  0
 36 65  1  0  0  0  0
 36 75  2  0  0  0  0
 37 61  1  0  0  0  0
 37 71  1  0  0  0  0
 37 76  2  0  0  0  0
 38 66  1  0  0  0  0
 38 69  1  0  0  0  0
 38 77  2  0  0  0  0
 39 42  1  0  0  0  0
 40 49  1  0  0  0  0
 41 65  1  0  0  0  0
 42 44  1  0  0  0  0
 43 45  1  0  0  0  0
 43 46  1  0  0  0  0
 44 48  1  0  0  0  0
 45 50  1  0  0  0  0
 46 66  1  0  0  0  0
 47 50  1  0  0  0  0
 47 66  1  0  0  0  0
 48 70  1  0  0  0  0
 49 65  1  0  0  0  0
 50 64  1  0  0  0  0
 54 61  1  0  0  0  0
 55 62  1  0  0  0  0
 56 62  1  0  0  0  0
 57 62  1  0  0  0  0
 58 72  1  0  0  0  0
 59 79  1  0  0  0  0
 60 62  1  0  0  0  0
 60 71  1  0  0  0  0
 61 72  1  0  0  0  0
 63 64  1  0  0  0  0
M  CHG  1  72   1
M  ISO  4  38 100  59 101  69 100  79 101
M  END
> <Batch ID>
0019

> <Smiles>
CNC(C)C(=O)NC(C(=O)N1Cc2cc([101O:1][101CH2:1]c3c(C)cc(C)c([100NH:0][100C:0](=O)N4CCCC(n5nc(-c6ccc(Oc7ccc(F)cc7F)cc6)c(C(N)=O)c5N)C4)c3C)ccc2CC1C(=O)NC1CCCc2ccccc21)C(C)(C)C

> <Shape>
0.247

> <Color>
0.208

> <Negative vol penalty>
0.000

$$$$

  -OEChem-04052316073D

 84 92  0     1  0  0  0  0  0999 V2000
  -22.5666   -7.9779   20.7590 C   0  0  0  0  0  0  0  0  0  0  0  0
  -21.7303   -9.0435   20.4418 C   0  0  0  0  0  0  0  0  0  0  0  0
  -28.6858  -26.4550   19.3051 C   0  0  0  0  0  0  0  0  0  0  0  0
  -26.6389  -25.3419   18.6662 C   0  0  0  0  0  0  0  0  0  0  0  0
  -23.7607   -8.2093   21.4405 C   0  0  0  0  0  0  0  0  0  0  0  0
  -22.0872  -10.3411   20.8069 C   0  0  0  0  0  0  0  0  0  0  0  0
  -21.5121  -17.1253   18.5798 C   0  0  0  0  0  0  0  0  0  0  0  0
  -29.3628  -25.2363   19.2596 C   0  0  0  0  0  0  0  0  0  0  0  0
  -27.3159  -24.1232   18.6206 C   0  0  0  0  0  0  0  0  0  0  0  0
  -21.1011  -18.3772   19.0352 C   0  0  0  0  0  0  0  0  0  0  0  0
  -31.7085  -22.4752   18.9605 C   0  0  0  0  0  0  0  0  0  0  0  0
  -32.9524  -22.4474   18.3300 C   0  0  0  0  0  0  0  0  0  0  0  0
  -23.2260  -18.6664   20.1399 C   0  0  0  0  0  0  0  0  0  0  0  0
  -18.9554  -22.3869   21.3402 C   0  0  0  0  0  0  0  0  0  0  0  0
  -20.8394  -23.2313   20.0855 C   0  0  0  0  0  0  0  0  0  0  0  0
  -31.9238  -23.1756   16.2687 C   0  0  0  0  0  0  0  0  0  0  0  0
  -27.3239  -26.5078   19.0084 C   0  0  0  0  0  0  0  0  0  0  0  0
  -26.4534  -28.6844   18.0022 C   0  0  0  0  0  0  0  0  0  0  0  0
  -24.1371   -9.5115   21.8056 C   0  0  0  0  0  0  0  0  0  0  0  0
  -22.7812  -16.6290   18.9107 C   0  0  0  0  0  0  0  0  0  0  0  0
  -23.2869  -10.5900   21.4951 C   0  0  0  0  0  0  0  0  0  0  0  0
  -23.6517  -17.4089   19.6853 C   0  0  0  0  0  0  0  0  0  0  0  0
  -20.0094  -22.1719   20.4523 C   0  0  0  0  0  0  0  0  0  0  0  0
  -18.7312  -23.6612   21.8613 C   0  0  0  0  0  0  0  0  0  0  0  0
  -19.5612  -24.7206   21.4945 C   0  0  0  0  0  0  0  0  0  0  0  0
  -28.6778  -24.0704   18.9174 C   0  0  0  0  0  0  0  0  0  0  0  0
  -21.9569  -19.1468   19.8178 C   0  0  0  0  0  0  0  0  0  0  0  0
  -30.5722  -22.8531   18.2451 C   0  0  0  0  0  0  0  0  0  0  0  0
  -33.0601  -22.7976   16.9841 C   0  0  0  0  0  0  0  0  0  0  0  0
  -30.6799  -23.2034   16.8992 C   0  0  0  0  0  0  0  0  0  0  0  0
  -20.6152  -24.5056   20.6066 C   0  0  0  0  0  0  0  0  0  0  0  0
  -26.6239  -27.7663   19.0558 C   0  0  0  0  0  0  0  0  0  0  0  0
  -25.7232  -29.7085   18.5540 C   0  0  0  0  0  0  0  0  0  0  0  0
  -26.9137  -28.6173   16.6460 C   0  0  0  0  0  0  0  0  0  0  0  0
  -23.8536  -14.1104   20.5264 C   0  0  0  0  0  0  0  0  0  0  0  0
  -26.7404  -15.1620   19.4858 C   0  0  0  0  0  0  0  0  0  0  0  0
  -29.1379  -17.7491   18.7268 C   0  0  0  0  0  0  0  0  0  0  0  0
  -21.9428  -29.9842   23.1890 C   0  0  0  0  0  0  0  0  0  0  0  0
  -25.4148   -9.7069   22.5828 C   0  0  0  0  0  0  0  0  0  0  0  0
  -23.2197  -15.2880   18.3892 C   0  0  0  0  0  0  0  0  0  0  0  0
  -25.0321  -16.9303   20.0514 C   0  0  0  0  0  0  0  0  0  0  0  0
  -25.9000  -11.1541   22.6034 C   0  0  0  0  0  0  0  0  0  0  0  0
  -24.9082  -31.9001   22.7282 C   0  0  0  0  0  0  0  0  0  0  0  0
  -24.7462  -12.0995   22.9225 C   0  0  0  0  0  0  0  0  0  0  0  0
  -25.6688  -31.1407   21.6397 C   0  0  0  0  0  0  0  0  0  0  0  0
  -24.1727  -30.9496   23.6704 C   0  0  0  0  0  0  0  0  0  0  0  0
  -24.0395  -29.2254   21.9146 C   0  0  0  0  0  0  0  0  0  0  0  0
  -23.6513  -12.0147   21.8522 C   0  0  1  0  0  0  0  0  0  0  0  0
  -24.3389  -14.6623   19.2159 C   0  0  1  0  0  0  0  0  0  0  0  0
  -24.7516  -30.1435   20.9065 C   0  0  2  0  0  0  0  0  0  0  0  0
  -17.5935  -23.8590   22.8100 C   0  0  0  0  0  0  0  0  0  0  0  0
  -31.4425  -17.6006   17.7450 C   0  0  0  0  0  0  0  0  0  0  0  0
  -27.6625  -15.1239   22.3941 C   0  0  0  0  0  0  0  0  0  0  0  0
  -29.6038  -16.5561   21.7245 C   0  0  0  0  0  0  0  0  0  0  0  0
  -29.3477  -14.2724   20.7541 C   0  0  0  0  0  0  0  0  0  0  0  0
  -28.4578  -19.6351   16.5497 C   0  0  0  0  0  0  0  0  0  0  0  0
  -20.2494  -20.8005   19.8930 C   0  0  0  0  0  0  0  0  0  1  0  0
  -19.4231  -27.8603   23.6104 C   0  0  0  0  0  0  0  0  0  0  0  0
  -19.9197  -26.4618   23.2452 C   0  0  0  0  0  0  0  0  0  0  0  0
  -19.7772  -28.9340   22.5838 C   0  0  0  0  0  0  0  0  0  0  0  0
  -27.7844  -16.1162   20.0136 C   0  0  1  0  0  0  0  0  0  0  0  0
  -29.9727  -17.8726   17.4650 C   0  0  2  0  0  0  0  0  0  0  0  0
  -28.5729  -15.5256   21.2165 C   0  0  0  0  0  0  0  0  0  0  0  0
  -26.0486  -28.1716   20.1910 N   0  0  0  0  0  0  0  0  0  0  0  0
  -25.5095  -29.3556   19.8540 N   0  0  0  0  0  0  0  0  0  0  0  0
  -25.4123  -15.6099   19.5229 N   0  0  0  0  0  0  0  0  0  0  0  0
  -23.3191  -30.0316   22.9124 N   0  0  0  0  0  0  0  0  0  0  0  0
  -25.2497  -30.8676   18.0492 N   0  0  0  0  0  0  0  0  0  0  0  0
  -27.6503  -27.4943   16.2452 N   0  0  0  0  0  0  0  0  0  0  0  0
  -19.3231  -26.0087   22.0300 N   0  0  0  0  0  0  0  0  0  0  0  0
  -24.0437  -12.7491   20.6685 N   0  0  0  0  0  0  0  0  0  0  0  0
  -28.6183  -16.4803   18.8733 N   0  0  0  0  0  0  0  0  0  0  0  0
  -21.2052  -29.0918   22.4208 N   0  0  0  0  0  0  0  0  0  0  0  0
  -29.8490  -19.2437   16.8941 N   0  3  0  0  0  0  0  0  0  0  0  0
  -26.6928  -29.5339   15.8186 O   0  0  0  0  0  0  0  0  0  0  0  0
  -23.3456  -14.8641   21.3484 O   0  0  0  0  0  0  0  0  0  0  0  0
  -27.0911  -14.0626   19.0498 O   0  0  0  0  0  0  0  0  0  0  0  0
  -28.9670  -18.6836   19.5066 O   0  0  0  0  0  0  0  0  0  0  0  0
  -21.4098  -30.6891   24.0528 O   0  0  0  0  0  0  0  0  0  0  0  0
  -29.3381  -22.8810   18.8727 O   0  0  0  0  0  0  0  0  0  0  0  0
  -21.5580  -20.3688   20.2642 O   0  0  0  0  0  0  0  0  0  1  0  0
  -34.2549  -22.7724   16.3792 F   0  0  0  0  0  0  0  0  0  0  0  0
  -29.5920  -23.5685   16.2071 F   0  0  0  0  0  0  0  0  0  0  0  0
  -21.6691  -25.7877   20.1253 Cl  0  0  0  0  0  0  0  0  0  0  0  0
  1  2  1  0  0  0  0
  1  5  2  0  0  0  0
  2  6  2  0  0  0  0
  3  8  2  0  0  0  0
  3 17  1  0  0  0  0
  4  9  1  0  0  0  0
  4 17  2  0  0  0  0
  5 19  1  0  0  0  0
  6 21  1  0  0  0  0
  7 10  2  0  0  0  0
  7 20  1  0  0  0  0
  8 26  1  0  0  0  0
  9 26  2  0  0  0  0
 10 27  1  0  0  0  0
 11 12  2  0  0  0  0
 11 28  1  0  0  0  0
 12 29  1  0  0  0  0
 13 22  1  0  0  0  0
 13 27  2  0  0  0  0
 14 23  1  0  0  0  0
 14 24  2  0  0  0  0
 15 23  2  0  0  0  0
 15 31  1  0  0  0  0
 16 29  2  0  0  0  0
 16 30  1  0  0  0  0
 17 32  1  0  0  0  0
 18 32  1  0  0  0  0
 18 33  2  0  0  0  0
 18 34  1  0  0  0  0
 19 21  2  0  0  0  0
 19 39  1  0  0  0  0
 20 22  2  0  0  0  0
 20 40  1  0  0  0  0
 21 48  1  0  0  0  0
 22 41  1  0  0  0  0
 23 57  1  0  0  0  0
 24 25  1  0  0  0  0
 24 51  1  0  0  0  0
 25 31  2  0  0  0  0
 25 70  1  0  0  0  0
 26 80  1  0  0  0  0
 27 81  1  0  0  0  0
 28 30  2  0  0  0  0
 28 80  1  0  0  0  0
 29 82  1  0  0  0  0
 30 83  1  0  0  0  0
 31 84  1  0  0  0  0
 32 64  2  0  0  0  0
 33 65  1  0  0  0  0
 33 68  1  0  0  0  0
 34 69  1  0  0  0  0
 34 75  2  0  0  0  0
 35 49  1  0  0  0  0
 35 71  1  0  0  0  0
 35 76  2  0  0  0  0
 36 61  1  0  0  0  0
 36 66  1  0  0  0  0
 36 77  2  0  0  0  0
 37 62  1  0  0  0  0
 37 72  1  0  0  0  0
 37 78  2  0  0  0  0
 38 67  1  0  0  0  0
 38 73  1  0  0  0  0
 38 79  2  0  0  0  0
 39 42  1  0  0  0  0
 40 49  1  0  0  0  0
 41 66  1  0  0  0  0
 42 44  1  0  0  0  0
 43 45  1  0  0  0  0
 43 46  1  0  0  0  0
 44 48  1  0  0  0  0
 45 50  1  0  0  0  0
 46 67  1  0  0  0  0
 47 50  1  0  0  0  0
 47 67  1  0  0  0  0
 48 71  1  0  0  0  0
 49 66  1  0  0  0  0
 50 65  1  0  0  0  0
 52 62  1  0  0  0  0
 53 63  1  0  0  0  0
 54 63  1  0  0  0  0
 55 63  1  0  0  0  0
 56 74  1  0  0  0  0
 57 81  1  0  0  0  0
 58 59  1  0  0  0  0
 58 60  1  0  0  0  0
 59 70  1  0  0  0  0
 60 73  1  0  0  0  0
 61 63  1  0  0  0  0
 61 72  1  0  0  0  0
 62 74  1  0  0  0  0
 64 65  1  0  0  0  0
M  CHG  1  74   1
M  ISO  4  38 100  57 101  73 100  81 101
M  END
> <Batch ID>
0019

> <Smiles>
CNC(C)C(=O)NC(C(=O)N1Cc2cc([101O:1][101CH2:1]c3cc(C)c(NCCC[100NH:0][100C:0](=O)N4CCCC(n5nc(-c6ccc(Oc7ccc(F)cc7F)cc6)c(C(N)=O)c5N)C4)c(Cl)c3)ccc2CC1C(=O)NC1CCCc2ccccc21)C(C)(C)C

> <Shape>
0.248

> <Color>
0.067

> <Negative vol penalty>
0.000

$$$$

  -OEChem-04052316073D

 84 92  0     1  0  0  0  0  0999 V2000
  -29.6238  -11.5915   18.5504 C   0  0  0  0  0  0  0  0  0  0  0  0
  -28.3012  -12.0020   18.6831 C   0  0  0  0  0  0  0  0  0  0  0  0
  -25.1110  -31.6841   23.3927 C   0  0  0  0  0  0  0  0  0  0  0  0
  -25.7796  -29.6500   24.5118 C   0  0  0  0  0  0  0  0  0  0  0  0
  -30.6325  -12.2590   19.2438 C   0  0  0  0  0  0  0  0  0  0  0  0
  -27.9864  -13.0796   19.5102 C   0  0  0  0  0  0  0  0  0  0  0  0
  -23.5789  -17.2379   18.6219 C   0  0  0  0  0  0  0  0  0  0  0  0
  -25.9465  -32.4206   24.2323 C   0  0  0  0  0  0  0  0  0  0  0  0
  -26.6151  -30.3865   25.3514 C   0  0  0  0  0  0  0  0  0  0  0  0
  -22.2867  -17.3585   19.1313 C   0  0  0  0  0  0  0  0  0  0  0  0
  -28.1771  -34.7961   25.8437 C   0  0  0  0  0  0  0  0  0  0  0  0
  -28.9789  -35.7779   25.2618 C   0  0  0  0  0  0  0  0  0  0  0  0
  -23.1050  -18.8566   20.8358 C   0  0  0  0  0  0  0  0  0  0  0  0
  -19.5995  -22.0360   18.4739 C   0  0  0  0  0  0  0  0  0  0  0  0
  -30.0494  -34.0954   23.8979 C   0  0  0  0  0  0  0  0  0  0  0  0
  -25.0275  -30.2987   23.5325 C   0  0  0  0  0  0  0  0  0  0  0  0
  -24.4976  -28.9636   21.4243 C   0  0  0  0  0  0  0  0  0  0  0  0
  -30.3312  -13.3514   20.0723 C   0  0  0  0  0  0  0  0  0  0  0  0
  -24.6475  -17.9183   19.2233 C   0  0  0  0  0  0  0  0  0  0  0  0
  -28.9920  -13.7615   20.2164 C   0  0  0  0  0  0  0  0  0  0  0  0
  -24.4093  -18.7450   20.3305 C   0  0  0  0  0  0  0  0  0  0  0  0
  -19.0810  -20.9060   19.1062 C   0  0  0  0  0  0  0  0  0  0  0  0
  -19.8342  -23.1994   19.2068 C   0  0  0  0  0  0  0  0  0  0  0  0
  -18.7971  -20.9394   20.4715 C   0  0  0  0  0  0  0  0  0  0  0  0
  -19.5503  -23.2328   20.5720 C   0  0  0  0  0  0  0  0  0  0  0  0
  -26.6986  -31.7719   25.2116 C   0  0  0  0  0  0  0  0  0  0  0  0
  -22.0501  -18.1657   20.2401 C   0  0  0  0  0  0  0  0  0  0  0  0
  -28.3115  -33.4638   25.4528 C   0  0  0  0  0  0  0  0  0  0  0  0
  -29.9150  -35.4277   24.2889 C   0  0  0  0  0  0  0  0  0  0  0  0
  -29.2476  -33.1135   24.4799 C   0  0  0  0  0  0  0  0  0  0  0  0
  -19.0318  -22.1028   21.2044 C   0  0  0  0  0  0  0  0  0  0  0  0
  -24.1641  -29.5373   22.6658 C   0  0  0  0  0  0  0  0  0  0  0  0
  -23.3406  -28.3525   21.0066 C   0  0  0  0  0  0  0  0  0  0  0  0
  -25.7419  -28.9815   20.7123 C   0  0  0  0  0  0  0  0  0  0  0  0
  -27.3432  -17.0384   20.6594 C   0  0  0  0  0  0  0  0  0  0  0  0
  -27.9160  -20.2312   20.6810 C   0  0  0  0  0  0  0  0  0  0  0  0
  -26.6554  -23.4015   20.5957 C   0  0  0  0  0  0  0  0  0  0  0  0
  -18.8685  -25.1893   22.0051 C   0  0  0  0  0  0  0  0  0  0  0  0
  -31.4498  -14.0117   20.8386 C   0  0  0  0  0  0  0  0  0  0  0  0
  -26.0310  -17.7988   18.6455 C   0  0  0  0  0  0  0  0  0  0  0  0
  -25.5187  -19.5126   21.0003 C   0  0  0  0  0  0  0  0  0  0  0  0
  -31.0770  -15.3805   21.4022 C   0  0  0  0  0  0  0  0  0  0  0  0
  -18.6217  -28.6479   22.8139 C   0  0  0  0  0  0  0  0  0  0  0  0
  -29.7131  -15.3240   22.0830 C   0  0  0  0  0  0  0  0  0  0  0  0
  -20.0691  -29.1405   22.7454 C   0  0  0  0  0  0  0  0  0  0  0  0
  -18.5307  -27.2318   23.3796 C   0  0  0  0  0  0  0  0  0  0  0  0
  -20.8266  -26.7317   22.6393 C   0  0  0  0  0  0  0  0  0  0  0  0
  -28.6137  -14.9418   21.0847 C   0  0  1  0  0  0  0  0  0  0  0  0
  -27.1292  -18.1314   19.6508 C   0  0  1  0  0  0  0  0  0  0  0  0
  -20.9745  -28.1291   22.0154 C   0  0  2  0  0  0  0  0  0  0  0  0
  -18.8413  -19.6734   18.2968 C   0  0  0  0  0  0  0  0  0  0  0  0
  -20.3914  -24.3924   18.4991 C   0  0  0  0  0  0  0  0  0  0  0  0
  -16.8261  -19.9701   21.6822 C   0  0  0  0  0  0  0  0  0  0  0  0
  -27.3669  -25.8069   20.6676 C   0  0  0  0  0  0  0  0  0  0  0  0
  -28.3847  -20.0002   23.6871 C   0  0  0  0  0  0  0  0  0  0  0  0
  -28.1451  -22.4874   23.8451 C   0  0  0  0  0  0  0  0  0  0  0  0
  -29.9927  -21.4975   22.4926 C   0  0  0  0  0  0  0  0  0  0  0  0
  -25.5263  -23.9362   17.9128 C   0  0  0  0  0  0  0  0  0  0  0  0
  -19.1414  -19.1469   22.2564 C   0  0  0  0  0  0  0  0  0  0  0  0
  -20.6194  -19.1285   21.8778 C   0  0  0  0  0  0  0  0  0  1  0  0
  -18.2339  -19.6967   21.1390 C   0  0  2  0  0  0  0  0  0  0  0  0
  -27.6187  -21.3643   21.6332 C   0  0  1  0  0  0  0  0  0  0  0  0
  -27.0441  -24.6183   19.7755 C   0  0  2  0  0  0  0  0  0  0  0  0
  -28.5145  -21.3215   22.9033 C   0  0  0  0  0  0  0  0  0  0  0  0
  -22.8946  -29.3111   23.0141 N   0  0  0  0  0  0  0  0  0  0  0  0
  -22.4202  -28.5885   21.9851 N   0  0  0  0  0  0  0  0  0  0  0  0
  -26.8551  -19.3580   20.4021 N   0  0  0  0  0  0  0  0  0  0  0  0
  -19.4116  -26.3284   22.6361 N   0  0  0  0  0  0  0  0  0  0  0  0
  -23.0309  -27.6419   19.9014 N   0  0  0  0  0  0  0  0  0  0  0  0
  -26.8297  -29.6548   21.2847 N   0  0  0  0  0  0  0  0  0  0  0  0
  -19.7964  -24.4228   21.3008 N   0  0  0  0  0  0  0  0  0  0  0  0
  -28.2572  -16.0800   20.2651 N   0  0  0  0  0  0  0  0  0  0  0  0
  -27.7416  -22.5931   20.8565 N   0  0  0  0  0  0  0  0  0  0  0  0
  -25.9314  -25.0045   18.8624 N   0  3  0  0  0  0  0  0  0  0  0  0
  -25.8804  -28.4309   19.5937 O   0  0  0  0  0  0  0  0  0  0  0  0
  -26.7260  -17.0636   21.7178 O   0  0  0  0  0  0  0  0  0  0  0  0
  -29.0459  -20.1289   20.1967 O   0  0  0  0  0  0  0  0  0  0  0  0
  -25.5041  -23.1911   20.9709 O   0  0  0  0  0  0  0  0  0  0  0  0
  -17.6639  -24.9290   22.0609 O   0  0  0  0  0  0  0  0  0  0  0  0
  -27.5142  -32.4903   26.0309 O   0  0  0  0  0  0  0  0  0  0  0  0
  -20.7899  -18.2847   20.7397 O   0  0  0  0  0  0  0  0  0  1  0  0
  -30.6838  -36.3709   23.7291 F   0  0  0  0  0  0  0  0  0  0  0  0
  -29.3805  -31.8355   24.0994 F   0  0  0  0  0  0  0  0  0  0  0  0
  -18.6751  -22.1379   22.9020 Cl  0  0  0  0  0  0  0  0  0  0  0  0
  1  2  1  0  0  0  0
  1  5  2  0  0  0  0
  2  6  2  0  0  0  0
  3  8  2  0  0  0  0
  3 16  1  0  0  0  0
  4  9  1  0  0  0  0
  4 16  2  0  0  0  0
  5 18  1  0  0  0  0
  6 20  1  0  0  0  0
  7 10  2  0  0  0  0
  7 19  1  0  0  0  0
  8 26  1  0  0  0  0
  9 26  2  0  0  0  0
 10 27  1  0  0  0  0
 11 12  2  0  0  0  0
 11 28  1  0  0  0  0
 12 29  1  0  0  0  0
 13 21  1  0  0  0  0
 13 27  2  0  0  0  0
 14 22  2  0  0  0  0
 14 23  1  0  0  0  0
 15 29  2  0  0  0  0
 15 30  1  0  0  0  0
 16 32  1  0  0  0  0
 17 32  1  0  0  0  0
 17 33  2  0  0  0  0
 17 34  1  0  0  0  0
 18 20  2  0  0  0  0
 18 39  1  0  0  0  0
 19 21  2  0  0  0  0
 19 40  1  0  0  0  0
 20 48  1  0  0  0  0
 21 41  1  0  0  0  0
 22 24  1  0  0  0  0
 22 51  1  0  0  0  0
 23 25  2  0  0  0  0
 23 52  1  0  0  0  0
 24 31  2  0  0  0  0
 24 61  1  0  0  0  0
 25 31  1  0  0  0  0
 25 71  1  0  0  0  0
 26 80  1  0  0  0  0
 27 81  1  0  0  0  0
 28 30  2  0  0  0  0
 28 80  1  0  0  0  0
 29 82  1  0  0  0  0
 30 83  1  0  0  0  0
 31 84  1  0  0  0  0
 32 65  2  0  0  0  0
 33 66  1  0  0  0  0
 33 69  1  0  0  0  0
 34 70  1  0  0  0  0
 34 75  2  0  0  0  0
 35 49  1  0  0  0  0
 35 72  1  0  0  0  0
 35 76  2  0  0  0  0
 36 62  1  0  0  0  0
 36 67  1  0  0  0  0
 36 77  2  0  0  0  0
 37 63  1  0  0  0  0
 37 73  1  0  0  0  0
 37 78  2  0  0  0  0
 38 68  1  0  0  0  0
 38 71  1  0  0  0  0
 38 79  2  0  0  0  0
 39 42  1  0  0  0  0
 40 49  1  0  0  0  0
 41 67  1  0  0  0  0
 42 44  1  0  0  0  0
 43 45  1  0  0  0  0
 43 46  1  0  0  0  0
 44 48  1  0  0  0  0
 45 50  1  0  0  0  0
 46 68  1  0  0  0  0
 47 50  1  0  0  0  0
 47 68  1  0  0  0  0
 48 72  1  0  0  0  0
 49 67  1  0  0  0  0
 50 66  1  0  0  0  0
 53 61  1  0  0  0  0
 54 63  1  0  0  0  0
 55 64  1  0  0  0  0
 56 64  1  0  0  0  0
 57 64  1  0  0  0  0
 58 74  1  0  0  0  0
 59 60  1  0  0  0  0
 59 61  1  0  0  0  0
 60 81  1  0  0  0  0
 62 64  1  0  0  0  0
 62 73  1  0  0  0  0
 63 74  1  0  0  0  0
 65 66  1  0  0  0  0
M  CHG  1  74   1
M  ISO  4  38 100  60 101  71 100  81 101
M  END
> <Batch ID>
0019

> <Smiles>
CNC(C)C(=O)NC(C(=O)N1Cc2cc([101O:1][101CH2:1]CC(C)c3c(C)cc(C)c([100NH:0][100C:0](=O)N4CCCC(n5nc(-c6ccc(Oc7ccc(F)cc7F)cc6)c(C(N)=O)c5N)C4)c3Cl)ccc2CC1C(=O)NC1CCCc2ccccc21)C(C)(C)C

> <Shape>
0.237

> <Color>
0.059

> <Negative vol penalty>
0.000

$$$$

  -OEChem-04052316073D

 84 92  0     1  0  0  0  0  0999 V2000
  -22.6530   -6.7715   24.1853 C   0  0  0  0  0  0  0  0  0  0  0  0
  -23.8912   -7.3817   24.3581 C   0  0  0  0  0  0  0  0  0  0  0  0
  -25.0177  -31.2367   22.0606 C   0  0  0  0  0  0  0  0  0  0  0  0
  -26.7697  -30.0011   23.1746 C   0  0  0  0  0  0  0  0  0  0  0  0
  -21.9143   -7.0117   23.0274 C   0  0  0  0  0  0  0  0  0  0  0  0
  -24.3921   -8.2315   23.3726 C   0  0  0  0  0  0  0  0  0  0  0  0
  -28.3988  -14.1173   22.5853 C   0  0  0  0  0  0  0  0  0  0  0  0
  -24.8348  -32.0105   23.2065 C   0  0  0  0  0  0  0  0  0  0  0  0
  -26.5868  -30.7750   24.3206 C   0  0  0  0  0  0  0  0  0  0  0  0
  -29.5088  -14.5780   21.8785 C   0  0  0  0  0  0  0  0  0  0  0  0
  -26.8277  -32.6643   27.4175 C   0  0  0  0  0  0  0  0  0  0  0  0
  -27.9657  -33.1499   28.0614 C   0  0  0  0  0  0  0  0  0  0  0  0
  -28.1093  -14.9811   19.9554 C   0  0  0  0  0  0  0  0  0  0  0  0
  -27.5953  -20.7081   19.5862 C   0  0  0  0  0  0  0  0  0  0  0  0
  -28.5922  -34.3418   26.0554 C   0  0  0  0  0  0  0  0  0  0  0  0
  -25.9851  -30.2318   22.0446 C   0  0  0  0  0  0  0  0  0  0  0  0
  -27.0441  -29.6958   19.7866 C   0  0  0  0  0  0  0  0  0  0  0  0
  -22.4021   -7.8725   22.0315 C   0  0  0  0  0  0  0  0  0  0  0  0
  -27.1357  -14.0747   21.9779 C   0  0  0  0  0  0  0  0  0  0  0  0
  -23.6599   -8.4823   22.1997 C   0  0  0  0  0  0  0  0  0  0  0  0
  -26.9845  -14.5218   20.6575 C   0  0  0  0  0  0  0  0  0  0  0  0
  -28.4618  -19.6577   19.8885 C   0  0  0  0  0  0  0  0  0  0  0  0
  -29.4550  -22.2502   19.6142 C   0  0  0  0  0  0  0  0  0  0  0  0
  -30.3215  -21.1997   19.9165 C   0  0  0  0  0  0  0  0  0  0  0  0
  -28.0919  -22.0044   19.4490 C   0  0  0  0  0  0  0  0  0  0  0  0
  -25.6193  -31.7798   24.3365 C   0  0  0  0  0  0  0  0  0  0  0  0
  -29.3647  -15.0073   20.5625 C   0  0  0  0  0  0  0  0  0  0  0  0
  -26.5719  -33.0173   26.0925 C   0  0  0  0  0  0  0  0  0  0  0  0
  -29.8249  -19.9035   20.0537 C   0  0  0  0  0  0  0  0  0  0  0  0
  -28.8479  -33.9887   27.3804 C   0  0  0  0  0  0  0  0  0  0  0  0
  -27.4541  -33.8560   25.4114 C   0  0  0  0  0  0  0  0  0  0  0  0
  -26.1742  -29.4317   20.8614 C   0  0  0  0  0  0  0  0  0  0  0  0
  -26.8527  -28.6446   18.9236 C   0  0  0  0  0  0  0  0  0  0  0  0
  -27.9449  -30.7932   19.5863 C   0  0  0  0  0  0  0  0  0  0  0  0
  -25.0649  -11.7701   21.2674 C   0  0  0  0  0  0  0  0  0  0  0  0
  -23.1761  -14.2657   20.4149 C   0  0  0  0  0  0  0  0  0  0  0  0
  -22.9535  -17.5166   19.4004 C   0  0  0  0  0  0  0  0  0  0  0  0
  -25.8158  -22.9627   18.9519 C   0  0  0  0  0  0  0  0  0  0  0  0
  -21.5890   -8.0642   20.7758 C   0  0  0  0  0  0  0  0  0  0  0  0
  -25.9435  -13.6000   22.7626 C   0  0  0  0  0  0  0  0  0  0  0  0
  -25.6463  -14.5153   19.9664 C   0  0  0  0  0  0  0  0  0  0  0  0
  -22.0219   -9.2718   19.9483 C   0  0  0  0  0  0  0  0  0  0  0  0
  -23.2526  -25.3235   18.2213 C   0  0  0  0  0  0  0  0  0  0  0  0
  -23.5397   -9.3003   19.7992 C   0  0  0  0  0  0  0  0  0  0  0  0
  -23.8283  -26.6502   18.7219 C   0  0  0  0  0  0  0  0  0  0  0  0
  -23.6440  -24.1575   19.1274 C   0  0  0  0  0  0  0  0  0  0  0  0
  -25.6596  -25.3542   19.8855 C   0  0  0  0  0  0  0  0  0  0  0  0
  -24.2258   -9.4300   21.1644 C   0  0  1  0  0  0  0  0  0  0  0  0
  -24.7988  -13.1175   21.8769 C   0  0  1  0  0  0  0  0  0  0  0  0
  -25.3462  -26.5483   18.9692 C   0  0  2  0  0  0  0  0  0  0  0  0
  -27.9115  -18.2770   20.0335 C   0  0  0  0  0  0  0  0  0  0  0  0
  -29.9900  -23.6405   19.4684 C   0  0  0  0  0  0  0  0  0  0  0  0
  -31.7841  -21.4556   20.0972 C   0  0  0  0  0  0  0  0  0  0  0  0
  -21.2771  -19.2657   18.7466 C   0  0  0  0  0  0  0  0  0  0  0  0
  -22.8220  -12.9098   17.7045 C   0  0  0  0  0  0  0  0  0  0  0  0
  -21.9684  -15.0851   16.8059 C   0  0  0  0  0  0  0  0  0  0  0  0
  -20.7388  -13.9277   18.6419 C   0  0  0  0  0  0  0  0  0  0  0  0
  -23.7703  -19.2951   21.6204 C   0  0  0  0  0  0  0  0  0  0  0  0
  -32.2041  -17.1063   19.7605 C   0  0  0  0  0  0  0  0  0  0  0  0
  -31.4863  -16.0801   20.6230 C   0  0  0  0  0  0  0  0  0  1  0  0
  -31.2587  -18.1836   19.2525 C   0  0  0  0  0  0  0  0  0  0  0  0
  -22.9483  -15.0490   19.1446 C   0  0  1  0  0  0  0  0  0  0  0  0
  -22.0881  -18.6659   19.8847 C   0  0  2  0  0  0  0  0  0  0  0  0
  -22.1451  -14.2413   18.0863 C   0  0  0  0  0  0  0  0  0  0  0  0
  -25.4814  -28.3014   20.6983 N   0  0  0  0  0  0  0  0  0  0  0  0
  -25.9159  -27.8460   19.5109 N   0  0  0  0  0  0  0  0  0  0  0  0
  -24.5120  -14.0363   20.7734 N   0  0  0  0  0  0  0  0  0  0  0  0
  -25.0963  -24.1214   19.3129 N   0  0  0  0  0  0  0  0  0  0  0  0
  -27.3959  -28.3347   17.7272 N   0  0  0  0  0  0  0  0  0  0  0  0
  -28.0174  -31.7866   20.5723 N   0  0  0  0  0  0  0  0  0  0  0  0
  -27.1939  -23.0568   19.1428 N   0  0  0  0  0  0  0  0  0  0  0  0
  -24.1570  -10.7962   21.6369 N   0  0  0  0  0  0  0  0  0  0  0  0
  -22.3173  -16.3019   19.5452 N   0  0  0  0  0  0  0  0  0  0  0  0
  -22.9361  -19.7401   20.4746 N   0  3  0  0  0  0  0  0  0  0  0  0
  -28.6520  -30.8985   18.5556 O   0  0  0  0  0  0  0  0  0  0  0  0
  -26.0222  -11.6253   20.5161 O   0  0  0  0  0  0  0  0  0  0  0  0
  -22.2046  -13.8781   21.0687 O   0  0  0  0  0  0  0  0  0  0  0  0
  -24.0797  -17.6803   18.9363 O   0  0  0  0  0  0  0  0  0  0  0  0
  -25.2540  -21.9705   18.4806 O   0  0  0  0  0  0  0  0  0  0  0  0
  -25.4413  -32.5349   25.4548 O   0  0  0  0  0  0  0  0  0  0  0  0
  -30.4465  -15.4569   19.8701 O   0  0  0  0  0  0  0  0  0  1  0  0
  -30.6746  -18.8700   20.3513 O   0  0  0  0  0  0  0  0  0  0  0  0
  -29.9399  -34.4562   27.9994 F   0  0  0  0  0  0  0  0  0  0  0  0
  -27.2131  -34.1996   24.1388 F   0  0  0  0  0  0  0  0  0  0  0  0
  1  2  1  0  0  0  0
  1  5  2  0  0  0  0
  2  6  2  0  0  0  0
  3  8  2  0  0  0  0
  3 16  1  0  0  0  0
  4  9  1  0  0  0  0
  4 16  2  0  0  0  0
  5 18  1  0  0  0  0
  6 20  1  0  0  0  0
  7 10  2  0  0  0  0
  7 19  1  0  0  0  0
  8 26  1  0  0  0  0
  9 26  2  0  0  0  0
 10 27  1  0  0  0  0
 11 12  2  0  0  0  0
 11 28  1  0  0  0  0
 12 30  1  0  0  0  0
 13 21  1  0  0  0  0
 13 27  2  0  0  0  0
 14 22  2  0  0  0  0
 14 25  1  0  0  0  0
 15 30  2  0  0  0  0
 15 31  1  0  0  0  0
 16 32  1  0  0  0  0
 17 32  1  0  0  0  0
 17 33  2  0  0  0  0
 17 34  1  0  0  0  0
 18 20  2  0  0  0  0
 18 39  1  0  0  0  0
 19 21  2  0  0  0  0
 19 40  1  0  0  0  0
 20 48  1  0  0  0  0
 21 41  1  0  0  0  0
 22 29  1  0  0  0  0
 22 51  1  0  0  0  0
 23 24  1  0  0  0  0
 23 25  2  0  0  0  0
 23 52  1  0  0  0  0
 24 29  2  0  0  0  0
 24 53  1  0  0  0  0
 25 71  1  0  0  0  0
 26 80  1  0  0  0  0
 27 81  1  0  0  0  0
 28 31  2  0  0  0  0
 28 80  1  0  0  0  0
 29 82  1  0  0  0  0
 30 83  1  0  0  0  0
 31 84  1  0  0  0  0
 32 65  2  0  0  0  0
 33 66  1  0  0  0  0
 33 69  1  0  0  0  0
 34 70  1  0  0  0  0
 34 75  2  0  0  0  0
 35 49  1  0  0  0  0
 35 72  1  0  0  0  0
 35 76  2  0  0  0  0
 36 62  1  0  0  0  0
 36 67  1  0  0  0  0
 36 77  2  0  0  0  0
 37 63  1  0  0  0  0
 37 73  1  0  0  0  0
 37 78  2  0  0  0  0
 38 68  1  0  0  0  0
 38 71  1  0  0  0  0
 38 79  2  0  0  0  0
 39 42  1  0  0  0  0
 40 49  1  0  0  0  0
 41 67  1  0  0  0  0
 42 44  1  0  0  0  0
 43 45  1  0  0  0  0
 43 46  1  0  0  0  0
 44 48  1  0  0  0  0
 45 50  1  0  0  0  0
 46 68  1  0  0  0  0
 47 50  1  0  0  0  0
 47 68  1  0  0  0  0
 48 72  1  0  0  0  0
 49 67  1  0  0  0  0
 50 66  1  0  0  0  0
 54 63  1  0  0  0  0
 55 64  1  0  0  0  0
 56 64  1  0  0  0  0
 57 64  1  0  0  0  0
 58 74  1  0  0  0  0
 59 60  1  0  0  0  0
 59 61  1  0  0  0  0
 60 81  1  0  0  0  0
 61 82  1  0  0  0  0
 62 64  1  0  0  0  0
 62 73  1  0  0  0  0
 63 74  1  0  0  0  0
 65 66  1  0  0  0  0
M  CHG  1  74   1
M  ISO  4  38 100  60 101  71 100  81 101
M  END
> <Batch ID>
0019

> <Smiles>
CNC(C)C(=O)NC(C(=O)N1Cc2cc([101O:1][101CH2:1]CCOc3c(C)cc([100NH:0][100C:0](=O)N4CCCC(n5nc(-c6ccc(Oc7ccc(F)cc7F)cc6)c(C(N)=O)c5N)C4)c(C)c3C)ccc2CC1C(=O)NC1CCCc2ccccc21)C(C)(C)C

> <Shape>
0.267

> <Color>
0.063

> <Negative vol penalty>
0.000

$$$$

  -OEChem-04052316073D

 83 91  0     1  0  0  0  0  0999 V2000
  -26.6752  -12.1347   17.1438 C   0  0  0  0  0  0  0  0  0  0  0  0
  -25.9862  -13.3102   16.8624 C   0  0  0  0  0  0  0  0  0  0  0  0
  -29.2454  -25.3687   19.6328 C   0  0  0  0  0  0  0  0  0  0  0  0
  -27.3254  -23.9119   19.8003 C   0  0  0  0  0  0  0  0  0  0  0  0
  -26.6751  -11.6213   18.4401 C   0  0  0  0  0  0  0  0  0  0  0  0
  -25.2958  -13.9722   17.8770 C   0  0  0  0  0  0  0  0  0  0  0  0
  -23.4577  -20.5631   19.9981 C   0  0  0  0  0  0  0  0  0  0  0  0
  -30.0747  -24.3223   20.0363 C   0  0  0  0  0  0  0  0  0  0  0  0
  -28.1547  -22.8653   20.2037 C   0  0  0  0  0  0  0  0  0  0  0  0
  -22.3353  -21.2997   20.3741 C   0  0  0  0  0  0  0  0  0  0  0  0
  -29.8104  -19.7111   20.9300 C   0  0  0  0  0  0  0  0  0  0  0  0
  -29.6087  -18.4607   20.3457 C   0  0  0  0  0  0  0  0  0  0  0  0
  -22.4708  -20.3624   22.5927 C   0  0  0  0  0  0  0  0  0  0  0  0
  -19.0245  -24.7318   22.2190 C   0  0  0  0  0  0  0  0  0  0  0  0
  -30.0617  -19.4050   18.1685 C   0  0  0  0  0  0  0  0  0  0  0  0
  -27.8707  -25.1636   19.5149 C   0  0  0  0  0  0  0  0  0  0  0  0
  -26.6451  -26.5783   17.7817 C   0  0  0  0  0  0  0  0  0  0  0  0
  -25.9924  -12.2826   19.4731 C   0  0  0  0  0  0  0  0  0  0  0  0
  -24.0896  -19.7108   20.9150 C   0  0  0  0  0  0  0  0  0  0  0  0
  -25.2855  -13.4664   19.1881 C   0  0  0  0  0  0  0  0  0  0  0  0
  -23.6026  -19.6179   22.2266 C   0  0  0  0  0  0  0  0  0  0  0  0
  -19.3203  -26.0706   21.9627 C   0  0  0  0  0  0  0  0  0  0  0  0
  -19.4513  -24.1382   23.4070 C   0  0  0  0  0  0  0  0  0  0  0  0
  -20.0430  -26.8158   22.8943 C   0  0  0  0  0  0  0  0  0  0  0  0
  -29.5293  -23.0706   20.3217 C   0  0  0  0  0  0  0  0  0  0  0  0
  -21.8400  -21.1972   21.6707 C   0  0  0  0  0  0  0  0  0  0  0  0
  -30.1376  -20.8085   20.1335 C   0  0  0  0  0  0  0  0  0  0  0  0
  -29.7344  -18.3076   18.9649 C   0  0  0  0  0  0  0  0  0  0  0  0
  -30.2633  -20.6555   18.7528 C   0  0  0  0  0  0  0  0  0  0  0  0
  -20.1740  -24.8835   24.3386 C   0  0  0  0  0  0  0  0  0  0  0  0
  -20.4699  -26.2223   24.0823 C   0  0  0  0  0  0  0  0  0  0  0  0
  -27.0135  -26.2444   19.0987 C   0  0  0  0  0  0  0  0  0  0  0  0
  -25.8262  -27.6721   17.9211 C   0  0  0  0  0  0  0  0  0  0  0  0
  -27.0103  -25.9554   16.5430 C   0  0  0  0  0  0  0  0  0  0  0  0
  -24.6326  -16.5824   21.0635 C   0  0  0  0  0  0  0  0  0  0  0  0
  -26.3550  -17.4004   23.6877 C   0  0  0  0  0  0  0  0  0  0  0  0
  -26.9116  -19.6336   26.2076 C   0  0  0  0  0  0  0  0  0  0  0  0
  -22.3904  -29.6478   22.4093 C   0  0  0  0  0  0  0  0  0  0  0  0
  -25.9817  -11.6639   20.8485 C   0  0  0  0  0  0  0  0  0  0  0  0
  -25.3154  -18.9433   20.5015 C   0  0  0  0  0  0  0  0  0  0  0  0
  -24.2568  -18.7327   23.2547 C   0  0  0  0  0  0  0  0  0  0  0  0
  -25.5365  -12.6269   21.9461 C   0  0  0  0  0  0  0  0  0  0  0  0
  -25.0304  -31.4114   20.7978 C   0  0  0  0  0  0  0  0  0  0  0  0
  -24.2812  -13.3805   21.5182 C   0  0  0  0  0  0  0  0  0  0  0  0
  -25.8048  -30.3173   20.0608 C   0  0  0  0  0  0  0  0  0  0  0  0
  -24.4997  -30.9191   22.1424 C   0  0  0  0  0  0  0  0  0  0  0  0
  -24.4717  -28.5892   21.3396 C   0  0  0  0  0  0  0  0  0  0  0  0
  -24.5454  -14.2268   20.2670 C   0  0  1  0  0  0  0  0  0  0  0  0
  -25.5719  -17.7147   21.3688 C   0  0  1  0  0  0  0  0  0  0  0  0
  -24.9788  -29.0213   19.9531 C   0  0  2  0  0  0  0  0  0  0  0  0
  -18.8502  -26.6800   20.6823 C   0  0  0  0  0  0  0  0  0  0  0  0
  -28.0482  -20.6733   28.1886 C   0  0  0  0  0  0  0  0  0  0  0  0
  -24.7261  -15.3428   25.2442 C   0  0  0  0  0  0  0  0  0  0  0  0
  -25.5242  -16.4152   27.3611 C   0  0  0  0  0  0  0  0  0  0  0  0
  -27.1652  -15.3761   25.7958 C   0  0  0  0  0  0  0  0  0  0  0  0
  -28.7250  -21.2146   24.4839 C   0  0  0  0  0  0  0  0  0  0  0  0
  -19.1054  -22.6871   23.6369 C   0  0  0  0  0  0  0  0  0  0  0  0
  -20.3471  -28.2514   22.5943 C   0  0  0  0  0  0  0  0  0  0  0  0
  -20.2905  -21.7615   23.3844 C   0  0  0  0  0  0  0  0  0  1  0  0
  -26.0535  -17.5556   25.1588 C   0  0  1  0  0  0  0  0  0  0  0  0
  -28.1896  -20.2641   26.7308 C   0  0  2  0  0  0  0  0  0  0  0  0
  -25.8535  -16.1877   25.8703 C   0  0  0  0  0  0  0  0  0  0  0  0
  -26.4732  -27.0601   20.0079 N   0  0  0  0  0  0  0  0  0  0  0  0
  -25.7569  -27.9175   19.2610 N   0  0  0  0  0  0  0  0  0  0  0  0
  -25.4487  -17.9976   22.8002 N   0  0  0  0  0  0  0  0  0  0  0  0
  -23.7241  -29.6883   21.9704 N   0  0  0  0  0  0  0  0  0  0  0  0
  -25.1659  -28.4384   17.0271 N   0  0  0  0  0  0  0  0  0  0  0  0
  -27.8598  -24.8413   16.5804 N   0  0  0  0  0  0  0  0  0  0  0  0
  -25.2605  -15.4356   20.6162 N   0  0  0  0  0  0  0  0  0  0  0  0
  -27.1328  -18.3655   25.7134 N   0  0  0  0  0  0  0  0  0  0  0  0
  -21.7254  -28.4454   22.2025 N   0  0  0  0  0  0  0  0  0  0  0  0
  -28.5336  -21.4755   25.9338 N   0  3  0  0  0  0  0  0  0  0  0  0
  -26.6087  -26.3843   15.4347 O   0  0  0  0  0  0  0  0  0  0  0  0
  -23.4275  -16.7372   21.2235 O   0  0  0  0  0  0  0  0  0  0  0  0
  -27.3617  -16.7785   23.3391 O   0  0  0  0  0  0  0  0  0  0  0  0
  -25.8250  -20.2072   26.2379 O   0  0  0  0  0  0  0  0  0  0  0  0
  -21.8320  -30.6134   22.9409 O   0  0  0  0  0  0  0  0  0  0  0  0
  -30.3382  -22.0491   20.7152 O   0  0  0  0  0  0  0  0  0  0  0  0
  -20.7442  -21.9146   22.0401 O   0  0  0  0  0  0  0  0  0  1  0  0
  -29.5423  -17.1065   18.4041 F   0  0  0  0  0  0  0  0  0  0  0  0
  -30.5786  -21.7058   17.9826 F   0  0  0  0  0  0  0  0  0  0  0  0
  -20.6908  -24.1144   25.8067 Cl  0  0  0  0  0  0  0  0  0  0  0  0
  -21.3677  -27.1744   25.2240 Cl  0  0  0  0  0  0  0  0  0  0  0  0
  1  2  1  0  0  0  0
  1  5  2  0  0  0  0
  2  6  2  0  0  0  0
  3  8  2  0  0  0  0
  3 16  1  0  0  0  0
  4  9  1  0  0  0  0
  4 16  2  0  0  0  0
  5 18  1  0  0  0  0
  6 20  1  0  0  0  0
  7 10  2  0  0  0  0
  7 19  1  0  0  0  0
  8 25  1  0  0  0  0
  9 25  2  0  0  0  0
 10 26  1  0  0  0  0
 11 12  2  0  0  0  0
 11 27  1  0  0  0  0
 12 28  1  0  0  0  0
 13 21  1  0  0  0  0
 13 26  2  0  0  0  0
 14 22  2  0  0  0  0
 14 23  1  0  0  0  0
 15 28  2  0  0  0  0
 15 29  1  0  0  0  0
 16 32  1  0  0  0  0
 17 32  1  0  0  0  0
 17 33  2  0  0  0  0
 17 34  1  0  0  0  0
 18 20  2  0  0  0  0
 18 39  1  0  0  0  0
 19 21  2  0  0  0  0
 19 40  1  0  0  0  0
 20 48  1  0  0  0  0
 21 41  1  0  0  0  0
 22 24  1  0  0  0  0
 22 51  1  0  0  0  0
 23 30  2  0  0  0  0
 23 57  1  0  0  0  0
 24 31  2  0  0  0  0
 24 58  1  0  0  0  0
 25 78  1  0  0  0  0
 26 79  1  0  0  0  0
 27 29  2  0  0  0  0
 27 78  1  0  0  0  0
 28 80  1  0  0  0  0
 29 81  1  0  0  0  0
 30 31  1  0  0  0  0
 30 82  1  0  0  0  0
 31 83  1  0  0  0  0
 32 63  2  0  0  0  0
 33 64  1  0  0  0  0
 33 67  1  0  0  0  0
 34 68  1  0  0  0  0
 34 73  2  0  0  0  0
 35 49  1  0  0  0  0
 35 69  1  0  0  0  0
 35 74  2  0  0  0  0
 36 60  1  0  0  0  0
 36 65  1  0  0  0  0
 36 75  2  0  0  0  0
 37 61  1  0  0  0  0
 37 70  1  0  0  0  0
 37 76  2  0  0  0  0
 38 66  1  0  0  0  0
 38 71  1  0  0  0  0
 38 77  2  0  0  0  0
 39 42  1  0  0  0  0
 40 49  1  0  0  0  0
 41 65  1  0  0  0  0
 42 44  1  0  0  0  0
 43 45  1  0  0  0  0
 43 46  1  0  0  0  0
 44 48  1  0  0  0  0
 45 50  1  0  0  0  0
 46 66  1  0  0  0  0
 47 50  1  0  0  0  0
 47 66  1  0  0  0  0
 48 69  1  0  0  0  0
 49 65  1  0  0  0  0
 50 64  1  0  0  0  0
 52 61  1  0  0  0  0
 53 62  1  0  0  0  0
 54 62  1  0  0  0  0
 55 62  1  0  0  0  0
 56 72  1  0  0  0  0
 57 59  1  0  0  0  0
 58 71  1  0  0  0  0
 59 79  1  0  0  0  0
 60 62  1  0  0  0  0
 60 70  1  0  0  0  0
 61 72  1  0  0  0  0
 63 64  1  0  0  0  0
M  CHG  1  72   1
M  ISO  4  38 100  59 101  71 100  79 101
M  END
> <Batch ID>
0019

> <Smiles>
CNC(C)C(=O)NC(C(=O)N1Cc2cc([101O:1][101CH2:1]Cc3cc(C)c(C[100NH:0][100C:0](=O)N4CCCC(n5nc(-c6ccc(Oc7ccc(F)cc7F)cc6)c(C(N)=O)c5N)C4)c(Cl)c3Cl)ccc2CC1C(=O)NC1CCCc2ccccc21)C(C)(C)C

> <Shape>
0.195

> <Color>
0.064

> <Negative vol penalty>
0.000

$$$$

  -OEChem-04052316073D

 86 94  0     1  0  0  0  0  0999 V2000
  -32.5891  -20.9616   23.6083 C   0  0  0  0  0  0  0  0  0  0  0  0
  -31.2718  -21.3173   23.8793 C   0  0  0  0  0  0  0  0  0  0  0  0
  -25.9773  -30.0855   20.2884 C   0  0  0  0  0  0  0  0  0  0  0  0
  -23.8309  -29.2857   21.0566 C   0  0  0  0  0  0  0  0  0  0  0  0
  -32.8843  -20.1874   22.4869 C   0  0  0  0  0  0  0  0  0  0  0  0
  -30.2489  -20.9000   23.0285 C   0  0  0  0  0  0  0  0  0  0  0  0
  -24.5326  -19.3779   24.6137 C   0  0  0  0  0  0  0  0  0  0  0  0
  -25.8476  -31.2127   21.0996 C   0  0  0  0  0  0  0  0  0  0  0  0
  -23.7012  -30.4129   21.8679 C   0  0  0  0  0  0  0  0  0  0  0  0
  -23.3314  -20.0851   24.5850 C   0  0  0  0  0  0  0  0  0  0  0  0
  -26.2456  -34.1233   23.2410 C   0  0  0  0  0  0  0  0  0  0  0  0
  -27.3541  -34.5120   23.9932 C   0  0  0  0  0  0  0  0  0  0  0  0
  -22.8077  -19.0970   22.4476 C   0  0  0  0  0  0  0  0  0  0  0  0
  -27.3372  -32.3759   25.1219 C   0  0  0  0  0  0  0  0  0  0  0  0
  -24.9689  -29.1220   20.2669 C   0  0  0  0  0  0  0  0  0  0  0  0
  -26.1160  -26.9825   19.4829 C   0  0  0  0  0  0  0  0  0  0  0  0
  -31.8634  -19.7523   21.6272 C   0  0  0  0  0  0  0  0  0  0  0  0
  -24.8860  -18.5319   23.5527 C   0  0  0  0  0  0  0  0  0  0  0  0
  -30.5308  -20.1204   21.8938 C   0  0  0  0  0  0  0  0  0  0  0  0
  -24.0127  -18.3782   22.4665 C   0  0  0  0  0  0  0  0  0  0  0  0
  -24.7096  -31.3765   21.8894 C   0  0  0  0  0  0  0  0  0  0  0  0
  -22.4701  -19.9470   23.5005 C   0  0  0  0  0  0  0  0  0  0  0  0
  -25.6828  -32.8609   23.4293 C   0  0  0  0  0  0  0  0  0  0  0  0
  -27.8999  -33.6383   24.9336 C   0  0  0  0  0  0  0  0  0  0  0  0
  -26.2286  -31.9872   24.3698 C   0  0  0  0  0  0  0  0  0  0  0  0
  -25.1020  -27.9576   19.4287 C   0  0  0  0  0  0  0  0  0  0  0  0
  -25.7917  -26.0942   18.4868 C   0  0  0  0  0  0  0  0  0  0  0  0
  -27.2496  -26.8882   20.3556 C   0  0  0  0  0  0  0  0  0  0  0  0
  -27.2663  -18.4481   21.4478 C   0  0  0  0  0  0  0  0  0  0  0  0
  -25.9093  -15.6227   20.6121 C   0  0  0  0  0  0  0  0  0  0  0  0
  -20.5602  -24.7577   15.8490 C   0  0  0  0  0  0  0  0  0  0  0  0
  -23.1179  -13.6609   20.5315 C   0  0  0  0  0  0  0  0  0  0  0  0
  -19.7248  -25.5377   18.0980 C   0  0  0  0  0  0  0  0  0  0  0  0
  -32.2365  -18.9569   20.4013 C   0  0  0  0  0  0  0  0  0  0  0  0
  -26.1729  -17.7555   23.6113 C   0  0  0  0  0  0  0  0  0  0  0  0
  -24.3362  -17.4670   21.3117 C   0  0  0  0  0  0  0  0  0  0  0  0
  -31.0528  -18.2407   19.7563 C   0  0  0  0  0  0  0  0  0  0  0  0
  -23.5835  -25.8397   14.2587 C   0  0  0  0  0  0  0  0  0  0  0  0
  -29.8616  -19.1852   19.6304 C   0  0  0  0  0  0  0  0  0  0  0  0
  -18.4015  -24.5910   22.2816 C   0  0  0  0  0  0  0  0  0  0  0  0
  -20.6345  -25.7670   22.1522 C   0  0  0  0  0  0  0  0  0  0  0  0
  -24.3958  -26.4425   15.4041 C   0  0  0  0  0  0  0  0  0  0  0  0
  -17.8186  -25.5777   21.2693 C   0  0  0  0  0  0  0  0  0  0  0  0
  -20.0599  -26.7485   21.1296 C   0  0  0  0  0  0  0  0  0  0  0  0
  -22.0902  -26.0938   14.4390 C   0  0  0  0  0  0  0  0  0  0  0  0
  -22.3579  -26.2224   16.8953 C   0  0  0  0  0  0  0  0  0  0  0  0
  -29.3908  -19.6662   21.0082 C   0  0  1  0  0  0  0  0  0  0  0  0
  -26.6694  -17.3173   22.2369 C   0  0  1  0  0  0  0  0  0  0  0  0
  -19.5490  -25.2156   23.0851 C   0  0  0  0  0  0  0  0  0  0  0  0
  -23.8693  -25.9618   16.7679 C   0  0  2  0  0  0  0  0  0  0  0  0
  -18.8835  -26.1665   20.3408 C   0  0  0  0  0  0  0  0  0  0  0  0
  -22.3090  -11.4172   19.7513 C   0  0  0  0  0  0  0  0  0  0  0  0
  -19.2910  -24.1449   25.3304 C   0  0  0  0  0  0  0  0  0  0  0  0
  -18.9737  -23.3647   17.0724 C   0  0  0  0  0  0  0  0  0  0  0  0
  -21.3208  -23.6045   17.9059 C   0  0  0  0  0  0  0  0  0  0  0  0
  -25.8356  -16.6506   17.7402 C   0  0  0  0  0  0  0  0  0  0  0  0
  -24.2023  -14.8304   17.2043 C   0  0  0  0  0  0  0  0  0  0  0  0
  -26.5039  -14.2519   17.9728 C   0  0  0  0  0  0  0  0  0  0  0  0
  -22.4281  -12.8229   23.2848 C   0  0  0  0  0  0  0  0  0  0  0  0
  -20.2492  -22.7937   23.4441 C   0  0  0  0  0  0  0  0  0  0  0  0
  -21.2672  -21.8970   24.1381 C   0  0  0  0  0  0  0  0  0  1  0  0
  -24.8448  -15.1971   19.6300 C   0  0  1  0  0  0  0  0  0  0  0  0
  -22.8970  -12.2075   20.9099 C   0  0  2  0  0  0  0  0  0  0  0  0
  -20.1409  -24.1984   24.0589 C   0  0  1  0  0  0  0  0  0  0  0  0
  -20.1502  -24.3367   17.2378 C   0  0  0  0  0  0  0  0  0  0  0  0
  -25.3412  -15.2513   18.1575 C   0  0  0  0  0  0  0  0  0  0  0  0
  -24.2011  -27.7121   18.4736 N   0  0  0  0  0  0  0  0  0  0  0  0
  -24.6479  -26.5727   17.9185 N   0  0  0  0  0  0  0  0  0  0  0  0
  -25.6091  -16.7341   21.4124 N   0  0  0  0  0  0  0  0  0  0  0  0
  -21.6336  -25.6438   15.7551 N   0  0  0  0  0  0  0  0  0  0  0  0
  -26.3762  -24.9583   18.0504 N   0  0  0  0  0  0  0  0  0  0  0  0
  -27.1070  -26.1911   21.5631 N   0  0  0  0  0  0  0  0  0  0  0  0
  -28.6178  -18.6350   21.6666 N   0  0  0  0  0  0  0  0  0  0  0  0
  -19.3304  -25.1848   19.3791 N   0  0  0  0  0  0  0  0  0  0  0  0
  -24.3958  -13.8776   20.0610 N   0  0  0  0  0  0  0  0  0  0  0  0
  -21.9632  -12.1098   22.0673 N   0  3  0  0  0  0  0  0  0  0  0  0
  -28.3516  -27.4207   20.0806 O   0  0  0  0  0  0  0  0  0  0  0  0
  -26.5537  -19.1016   20.6949 O   0  0  0  0  0  0  0  0  0  0  0  0
  -26.9653  -14.9880   20.6722 O   0  0  0  0  0  0  0  0  0  0  0  0
  -19.9457  -24.3090   14.8779 O   0  0  0  0  0  0  0  0  0  0  0  0
  -22.2432  -14.5175   20.6387 O   0  0  0  0  0  0  0  0  0  0  0  0
  -19.7303  -26.6923   17.6723 O   0  0  0  0  0  0  0  0  0  0  0  0
  -24.5828  -32.4762   22.6813 O   0  0  0  0  0  0  0  0  0  0  0  0
  -21.2973  -20.6366   23.4697 O   0  0  0  0  0  0  0  0  0  1  0  0
  -28.9653  -34.0111   25.6547 F   0  0  0  0  0  0  0  0  0  0  0  0
  -25.6931  -30.7728   24.5543 F   0  0  0  0  0  0  0  0  0  0  0  0
  1  2  1  0  0  0  0
  1  5  2  0  0  0  0
  2  6  2  0  0  0  0
  3  8  2  0  0  0  0
  3 15  1  0  0  0  0
  4  9  1  0  0  0  0
  4 15  2  0  0  0  0
  5 17  1  0  0  0  0
  6 19  1  0  0  0  0
  7 10  2  0  0  0  0
  7 18  1  0  0  0  0
  8 21  1  0  0  0  0
  9 21  2  0  0  0  0
 10 22  1  0  0  0  0
 11 12  2  0  0  0  0
 11 23  1  0  0  0  0
 12 24  1  0  0  0  0
 13 20  1  0  0  0  0
 13 22  2  0  0  0  0
 14 24  2  0  0  0  0
 14 25  1  0  0  0  0
 15 26  1  0  0  0  0
 16 26  1  0  0  0  0
 16 27  2  0  0  0  0
 16 28  1  0  0  0  0
 17 19  2  0  0  0  0
 17 34  1  0  0  0  0
 18 20  2  0  0  0  0
 18 35  1  0  0  0  0
 19 47  1  0  0  0  0
 20 36  1  0  0  0  0
 21 83  1  0  0  0  0
 22 84  1  0  0  0  0
 23 25  2  0  0  0  0
 23 83  1  0  0  0  0
 24 85  1  0  0  0  0
 25 86  1  0  0  0  0
 26 67  2  0  0  0  0
 27 68  1  0  0  0  0
 27 71  1  0  0  0  0
 28 72  1  0  0  0  0
 28 77  2  0  0  0  0
 29 48  1  0  0  0  0
 29 73  1  0  0  0  0
 29 78  2  0  0  0  0
 30 62  1  0  0  0  0
 30 69  1  0  0  0  0
 30 79  2  0  0  0  0
 31 65  1  0  0  0  0
 31 70  1  0  0  0  0
 31 80  2  0  0  0  0
 32 63  1  0  0  0  0
 32 75  1  0  0  0  0
 32 81  2  0  0  0  0
 33 65  1  0  0  0  0
 33 74  1  0  0  0  0
 33 82  2  0  0  0  0
 34 37  1  0  0  0  0
 35 48  1  0  0  0  0
 36 69  1  0  0  0  0
 37 39  1  0  0  0  0
 38 42  1  0  0  0  0
 38 45  1  0  0  0  0
 39 47  1  0  0  0  0
 40 43  1  0  0  0  0
 40 49  1  0  0  0  0
 41 44  1  0  0  0  0
 41 49  1  0  0  0  0
 42 50  1  0  0  0  0
 43 51  1  0  0  0  0
 44 51  1  0  0  0  0
 45 70  1  0  0  0  0
 46 50  1  0  0  0  0
 46 70  1  0  0  0  0
 47 73  1  0  0  0  0
 48 69  1  0  0  0  0
 49 64  1  0  0  0  0
 50 68  1  0  0  0  0
 51 74  1  0  0  0  0
 52 63  1  0  0  0  0
 53 64  1  0  0  0  0
 54 65  1  0  0  0  0
 55 65  1  0  0  0  0
 56 66  1  0  0  0  0
 57 66  1  0  0  0  0
 58 66  1  0  0  0  0
 59 76  1  0  0  0  0
 60 61  1  0  0  0  0
 60 64  1  0  0  0  0
 61 84  1  0  0  0  0
 62 66  1  0  0  0  0
 62 75  1  0  0  0  0
 63 76  1  0  0  0  0
 67 68  1  0  0  0  0
M  CHG  1  76   1
M  ISO  4  31 100  61 101  65 100  84 101
M  END
> <Batch ID>
0019

> <Smiles>
CNC(C)C(=O)NC(C(=O)N1Cc2cc([101O:1][101CH2:1]CC(C)C3CCC(NC(=O)[100C:0](C)(C)[100C:0](=O)N4CCCC(n5nc(-c6ccc(Oc7ccc(F)cc7F)cc6)c(C(N)=O)c5N)C4)CC3)ccc2CC1C(=O)NC1CCCc2ccccc21)C(C)(C)C

> <Shape>
0.204

> <Color>
0.064

> <Negative vol penalty>
0.000

$$$$

  -OEChem-04052316073D

 85 94  0     1  0  0  0  0  0999 V2000
  -22.4441  -28.3967    8.8530 C   0  0  0  0  0  0  0  0  0  0  0  0
  -23.2001  -27.5567    9.6644 C   0  0  0  0  0  0  0  0  0  0  0  0
  -23.0738   -9.8702   19.9407 C   0  0  0  0  0  0  0  0  0  0  0  0
  -23.8383   -9.8738   22.2325 C   0  0  0  0  0  0  0  0  0  0  0  0
  -21.2131  -28.8741    9.3009 C   0  0  0  0  0  0  0  0  0  0  0  0
  -22.7258  -27.1944   10.9247 C   0  0  0  0  0  0  0  0  0  0  0  0
  -23.5321  -21.8252   13.7579 C   0  0  0  0  0  0  0  0  0  0  0  0
  -22.3308   -8.7164   20.1903 C   0  0  0  0  0  0  0  0  0  0  0  0
  -23.0952   -8.7200   22.4822 C   0  0  0  0  0  0  0  0  0  0  0  0
  -24.4326  -21.4071   14.7367 C   0  0  0  0  0  0  0  0  0  0  0  0
  -19.8685   -7.9203   23.0900 C   0  0  0  0  0  0  0  0  0  0  0  0
  -19.1140   -7.8783   24.2623 C   0  0  0  0  0  0  0  0  0  0  0  0
  -22.7802  -21.8499   16.4376 C   0  0  0  0  0  0  0  0  0  0  0  0
  -27.9817  -18.3913   19.1362 C   0  0  0  0  0  0  0  0  0  0  0  0
  -20.3574   -5.9400   24.9932 C   0  0  0  0  0  0  0  0  0  0  0  0
  -23.8276  -10.4488   20.9618 C   0  0  0  0  0  0  0  0  0  0  0  0
  -24.1685  -12.9743   20.8451 C   0  0  0  0  0  0  0  0  0  0  0  0
  -20.7191  -28.5097   10.5634 C   0  0  0  0  0  0  0  0  0  0  0  0
  -22.2505  -22.2699   14.1132 C   0  0  0  0  0  0  0  0  0  0  0  0
  -21.4877  -27.6684   11.3904 C   0  0  0  0  0  0  0  0  0  0  0  0
  -21.8645  -22.2707   15.4612 C   0  0  0  0  0  0  0  0  0  0  0  0
  -28.5224  -19.3455   19.9979 C   0  0  0  0  0  0  0  0  0  0  0  0
  -28.3154  -20.7030   19.7534 C   0  0  0  0  0  0  0  0  0  0  0  0
  -27.0269  -20.1521   17.7853 C   0  0  0  0  0  0  0  0  0  0  0  0
  -22.3415   -8.1413   21.4611 C   0  0  0  0  0  0  0  0  0  0  0  0
  -24.0578  -21.4221   16.0770 C   0  0  0  0  0  0  0  0  0  0  0  0
  -20.8675   -6.9721   22.8692 C   0  0  0  0  0  0  0  0  0  0  0  0
  -19.3584   -6.8882   25.2140 C   0  0  0  0  0  0  0  0  0  0  0  0
  -27.2340  -18.7946   18.0298 C   0  0  0  0  0  0  0  0  0  0  0  0
  -21.1120   -5.9820   23.8208 C   0  0  0  0  0  0  0  0  0  0  0  0
  -27.5676  -21.1064   18.6471 C   0  0  0  0  0  0  0  0  0  0  0  0
  -24.5958  -11.6403   20.7044 C   0  0  0  0  0  0  0  0  0  0  0  0
  -25.2597  -13.7246   20.4808 C   0  0  0  0  0  0  0  0  0  0  0  0
  -22.8987  -13.4891   21.2674 C   0  0  0  0  0  0  0  0  0  0  0  0
  -20.6661  -25.0101   13.8216 C   0  0  0  0  0  0  0  0  0  0  0  0
  -18.1994  -23.2578   14.9909 C   0  0  0  0  0  0  0  0  0  0  0  0
  -17.1675  -20.5502   16.7939 C   0  0  0  0  0  0  0  0  0  0  0  0
  -30.7435  -14.7450   20.6596 C   0  0  0  0  0  0  0  0  0  0  0  0
  -19.4047  -29.0888   11.0234 C   0  0  0  0  0  0  0  0  0  0  0  0
  -21.2816  -22.6925   13.0431 C   0  0  0  0  0  0  0  0  0  0  0  0
  -20.4932  -22.7198   15.8931 C   0  0  0  0  0  0  0  0  0  0  0  0
  -18.8018  -28.3566   12.2195 C   0  0  0  0  0  0  0  0  0  0  0  0
  -29.6018  -12.3639   18.2714 C   0  0  0  0  0  0  0  0  0  0  0  0
  -19.8628  -28.1170   13.2889 C   0  0  0  0  0  0  0  0  0  0  0  0
  -28.1653  -12.0691   18.7068 C   0  0  0  0  0  0  0  0  0  0  0  0
  -30.7161  -19.4269   21.3638 C   0  0  0  0  0  0  0  0  0  0  0  0
  -30.5213  -12.5831   19.4708 C   0  0  0  0  0  0  0  0  0  0  0  0
  -28.6221  -13.3114   20.8624 C   0  0  0  0  0  0  0  0  0  0  0  0
  -29.3187  -18.8909   21.1761 C   0  0  2  0  0  0  0  0  0  0  0  0
  -20.9958  -27.2330   12.7537 C   0  0  1  0  0  0  0  0  0  0  0  0
  -20.1807  -23.6118   13.5631 C   0  0  1  0  0  0  0  0  0  0  0  0
  -30.5158  -18.0003   20.9468 C   0  0  2  0  0  0  0  0  0  0  0  0
  -27.6456  -13.1384   19.6864 C   0  0  2  0  0  0  0  0  0  0  0  0
  -28.8854  -21.7420   20.6632 C   0  0  0  0  0  0  0  0  0  0  0  0
  -15.0906  -19.4012   17.6085 C   0  0  0  0  0  0  0  0  0  0  0  0
  -17.8588  -25.4000   17.1368 C   0  0  0  0  0  0  0  0  0  0  0  0
  -16.4611  -23.7784   18.4350 C   0  0  0  0  0  0  0  0  0  0  0  0
  -15.7174  -24.5348   16.1772 C   0  0  0  0  0  0  0  0  0  0  0  0
  -17.8124  -18.0757   15.3039 C   0  0  0  0  0  0  0  0  0  0  0  0
  -26.2228  -20.5851   16.5949 C   0  0  0  0  0  0  0  0  0  1  0  0
  -30.8112  -16.8936   21.8998 C   0  0  0  0  0  0  0  0  0  0  0  0
  -17.6713  -22.9419   16.3694 C   0  0  1  0  0  0  0  0  0  0  0  0
  -16.1302  -19.4811   16.5015 C   0  0  2  0  0  0  0  0  0  0  0  0
  -16.9537  -24.1571   17.0220 C   0  0  0  0  0  0  0  0  0  0  0  0
  -25.8599  -11.5455   20.2834 N   0  0  0  0  0  0  0  0  0  0  0  0
  -26.2362  -12.8294   20.1563 N   0  0  0  0  0  0  0  0  0  0  0  0
  -19.5838  -23.1295   14.8103 N   0  0  0  0  0  0  0  0  0  0  0  0
  -29.9722  -13.6101   20.3595 N   0  0  0  0  0  0  0  0  0  0  0  0
  -25.4696  -15.0563   20.4094 N   0  0  0  0  0  0  0  0  0  0  0  0
  -21.8877  -12.5791   21.6052 N   0  0  0  0  0  0  0  0  0  0  0  0
  -20.5838  -25.8460   12.7244 N   0  0  0  0  0  0  0  0  0  0  0  0
  -16.8299  -21.7591   16.2231 N   0  0  0  0  0  0  0  0  0  0  0  0
  -30.1458  -15.6723   21.5044 N   0  0  0  0  0  0  0  0  0  0  0  0
  -16.7829  -18.1475   16.3726 N   0  3  0  0  0  0  0  0  0  0  0  0
  -22.6622  -14.7195   21.3271 O   0  0  0  0  0  0  0  0  0  0  0  0
  -21.0829  -25.3088   14.9346 O   0  0  0  0  0  0  0  0  0  0  0  0
  -17.4115  -23.5986   14.1050 O   0  0  0  0  0  0  0  0  0  0  0  0
  -18.1745  -20.3354   17.4650 O   0  0  0  0  0  0  0  0  0  0  0  0
  -31.8785  -14.9215   20.2040 O   0  0  0  0  0  0  0  0  0  0  0  0
  -21.6163   -7.0156   21.7051 O   0  0  0  0  0  0  0  0  0  0  0  0
  -24.9350  -21.0150   17.0344 O   0  0  0  0  0  0  0  0  0  1  0  0
  -18.6348   -6.8489   26.3404 F   0  0  0  0  0  0  0  0  0  0  0  0
  -26.7197  -17.8704   17.2064 F   0  0  0  0  0  0  0  0  0  0  0  0
  -22.0712   -5.0691   23.6148 F   0  0  0  0  0  0  0  0  0  0  0  0
  -27.3676  -22.4117   18.4115 F   0  0  0  0  0  0  0  0  0  0  0  0
  1  2  1  0  0  0  0
  1  5  2  0  0  0  0
  2  6  2  0  0  0  0
  3  8  2  0  0  0  0
  3 16  1  0  0  0  0
  4  9  1  0  0  0  0
  4 16  2  0  0  0  0
  5 18  1  0  0  0  0
  6 20  1  0  0  0  0
  7 10  2  0  0  0  0
  7 19  1  0  0  0  0
  8 25  1  0  0  0  0
  9 25  2  0  0  0  0
 10 26  1  0  0  0  0
 11 12  2  0  0  0  0
 11 27  1  0  0  0  0
 12 28  1  0  0  0  0
 13 21  1  0  0  0  0
 13 26  2  0  0  0  0
 14 22  1  0  0  0  0
 14 29  2  0  0  0  0
 15 28  2  0  0  0  0
 15 30  1  0  0  0  0
 16 32  1  0  0  0  0
 17 32  1  0  0  0  0
 17 33  2  0  0  0  0
 17 34  1  0  0  0  0
 18 20  2  0  0  0  0
 18 39  1  0  0  0  0
 19 21  2  0  0  0  0
 19 40  1  0  0  0  0
 20 50  1  0  0  0  0
 21 41  1  0  0  0  0
 22 23  2  0  0  0  0
 22 49  1  0  0  0  0
 23 31  1  0  0  0  0
 23 54  1  0  0  0  0
 24 29  1  0  0  0  0
 24 31  2  0  0  0  0
 24 60  1  0  0  0  0
 25 80  1  0  0  0  0
 26 81  1  0  0  0  0
 27 30  2  0  0  0  0
 27 80  1  0  0  0  0
 28 82  1  0  0  0  0
 29 83  1  0  0  0  0
 30 84  1  0  0  0  0
 31 85  1  0  0  0  0
 32 65  2  0  0  0  0
 33 66  1  0  0  0  0
 33 69  1  0  0  0  0
 34 70  1  0  0  0  0
 34 75  2  0  0  0  0
 35 51  1  0  0  0  0
 35 71  1  0  0  0  0
 35 76  2  0  0  0  0
 36 62  1  0  0  0  0
 36 67  1  0  0  0  0
 36 77  2  0  0  0  0
 37 63  1  0  0  0  0
 37 72  1  0  0  0  0
 37 78  2  0  0  0  0
 38 68  1  0  0  0  0
 38 73  1  0  0  0  0
 38 79  2  0  0  0  0
 39 42  1  0  0  0  0
 40 51  1  0  0  0  0
 41 67  1  0  0  0  0
 42 44  1  0  0  0  0
 43 45  1  0  0  0  0
 43 47  1  0  0  0  0
 44 50  1  0  0  0  0
 45 53  1  0  0  0  0
 46 49  1  0  0  0  0
 46 52  1  0  0  0  0
 47 68  1  0  0  0  0
 48 53  1  0  0  0  0
 48 68  1  0  0  0  0
 49 52  1  0  0  0  0
 50 71  1  0  0  0  0
 51 67  1  0  0  0  0
 52 61  1  0  0  0  0
 53 66  1  0  0  0  0
 55 63  1  0  0  0  0
 56 64  1  0  0  0  0
 57 64  1  0  0  0  0
 58 64  1  0  0  0  0
 59 74  1  0  0  0  0
 60 81  1  0  0  0  0
 61 73  1  0  0  0  0
 62 64  1  0  0  0  0
 62 72  1  0  0  0  0
 63 74  1  0  0  0  0
 65 66  1  0  0  0  0
M  CHG  1  74   1
M  ISO  4  38 100  60 101  73 100  81 101
M  END
> <Batch ID>
0019

> <Smiles>
CNC(C)C(=O)NC(C(=O)N1Cc2cc([101O:1][101CH2:1]c3c(F)cc(C4CC4C[100NH:0][100C:0](=O)N4CCCC(n5nc(-c6ccc(Oc7ccc(F)cc7F)cc6)c(C(N)=O)c5N)C4)c(C)c3F)ccc2CC1C(=O)NC1CCCc2ccccc21)C(C)(C)C

> <Shape>
0.207

> <Color>
0.200

> <Negative vol penalty>
0.000

$$$$

  -OEChem-04052316073D

 93101  0     1  0  0  0  0  0999 V2000
  -24.9182  -19.1824   15.0841 C   0  0  0  0  0  0  0  0  0  0  0  0
  -25.6461  -20.2965   15.4863 C   0  0  0  0  0  0  0  0  0  0  0  0
  -23.7590  -12.1443   19.8974 C   0  0  0  0  0  0  0  0  0  0  0  0
  -25.0536  -13.3052   21.5747 C   0  0  0  0  0  0  0  0  0  0  0  0
  -24.9711  -18.0111   15.8368 C   0  0  0  0  0  0  0  0  0  0  0  0
  -26.4365  -20.2361   16.6346 C   0  0  0  0  0  0  0  0  0  0  0  0
  -29.3213  -24.1102   17.5685 C   0  0  0  0  0  0  0  0  0  0  0  0
  -24.9056  -11.4682   19.4803 C   0  0  0  0  0  0  0  0  0  0  0  0
  -26.2002  -12.6291   21.1577 C   0  0  0  0  0  0  0  0  0  0  0  0
  -28.8196  -25.3362   18.0031 C   0  0  0  0  0  0  0  0  0  0  0  0
  -29.5380  -11.4756   20.2983 C   0  0  0  0  0  0  0  0  0  0  0  0
  -30.7078  -12.2189   20.1409 C   0  0  0  0  0  0  0  0  0  0  0  0
  -29.5585  -24.8372   20.2446 C   0  0  0  0  0  0  0  0  0  0  0  0
  -29.6134  -13.5893   18.4791 C   0  0  0  0  0  0  0  0  0  0  0  0
  -24.0272  -29.4382   22.7608 C   0  0  0  0  0  0  0  0  0  0  0  0
  -23.8331  -13.0629   20.9445 C   0  0  0  0  0  0  0  0  0  0  0  0
  -21.7338  -13.3545   22.3642 C   0  0  0  0  0  0  0  0  0  0  0  0
  -25.7530  -17.9411   17.0016 C   0  0  0  0  0  0  0  0  0  0  0  0
  -29.9368  -23.2323   18.4723 C   0  0  0  0  0  0  0  0  0  0  0  0
  -26.5219  -19.0555   17.3945 C   0  0  0  0  0  0  0  0  0  0  0  0
  -30.0696  -23.6017   19.8184 C   0  0  0  0  0  0  0  0  0  0  0  0
  -23.8117  -29.0942   21.4446 C   0  0  0  0  0  0  0  0  0  0  0  0
  -26.1261  -11.7106   20.1105 C   0  0  0  0  0  0  0  0  0  0  0  0
  -28.9355  -25.6986   19.3419 C   0  0  0  0  0  0  0  0  0  0  0  0
  -28.4059  -11.7892   19.5460 C   0  0  0  0  0  0  0  0  0  0  0  0
  -30.7455  -13.2757   19.2313 C   0  0  0  0  0  0  0  0  0  0  0  0
  -28.4437  -12.8460   18.6365 C   0  0  0  0  0  0  0  0  0  0  0  0
  -22.9589  -27.9629   21.4371 C   0  0  0  0  0  0  0  0  0  0  0  0
  -22.6492  -13.7620   21.3754 C   0  0  0  0  0  0  0  0  0  0  0  0
  -20.7948  -14.3564   22.3967 C   0  0  0  0  0  0  0  0  0  0  0  0
  -22.6790  -27.6502   22.7491 C   0  0  0  0  0  0  0  0  0  0  0  0
  -21.7324  -12.1758   23.1805 C   0  0  0  0  0  0  0  0  0  0  0  0
  -29.3314  -20.2874   19.5044 C   0  0  0  0  0  0  0  0  0  0  0  0
  -32.1865  -20.6444   21.0021 C   0  0  0  0  0  0  0  0  0  0  0  0
  -34.5383  -22.7552   22.2905 C   0  0  0  0  0  0  0  0  0  0  0  0
  -19.5177  -19.6755   22.5507 C   0  0  0  0  0  0  0  0  0  0  0  0
  -25.7800  -16.6459   17.7743 C   0  0  0  0  0  0  0  0  0  0  0  0
  -30.4967  -21.9250   17.9825 C   0  0  0  0  0  0  0  0  0  0  0  0
  -30.7399  -22.7038   20.8248 C   0  0  0  0  0  0  0  0  0  0  0  0
  -26.2861  -16.8163   19.2029 C   0  0  0  0  0  0  0  0  0  0  0  0
  -20.0230  -18.2514   19.2622 C   0  0  0  0  0  0  0  0  0  0  0  0
  -27.5861  -17.6066   19.2030 C   0  0  0  0  0  0  0  0  0  0  0  0
  -20.6802  -16.9139   19.6077 C   0  0  0  0  0  0  0  0  0  0  0  0
  -20.4976  -19.3587   20.1986 C   0  0  0  0  0  0  0  0  0  0  0  0
  -20.9528  -17.7330   21.9941 C   0  0  0  0  0  0  0  0  0  0  0  0
  -27.3644  -19.0227   18.6568 C   0  0  1  0  0  0  0  0  0  0  0  0
  -30.6456  -20.8863   19.0899 C   0  0  1  0  0  0  0  0  0  0  0  0
  -20.4969  -16.5676   21.0972 C   0  0  2  0  0  0  0  0  0  0  0  0
  -36.7457  -22.7521   23.4843 C   0  0  0  0  0  0  0  0  0  0  0  0
  -23.2283  -30.3441   19.3549 C   0  0  0  0  0  0  0  0  0  0  0  0
  -25.2594  -31.0572   20.5829 C   0  0  0  0  0  0  0  0  0  0  0  0
  -30.7784  -19.8799   23.5987 C   0  0  0  0  0  0  0  0  0  0  0  0
  -32.7401  -20.8013   24.8522 C   0  0  0  0  0  0  0  0  0  0  0  0
  -33.0468  -18.8685   23.3052 C   0  0  0  0  0  0  0  0  0  0  0  0
  -24.1845  -29.7640   25.4947 C   0  0  0  0  0  0  0  0  0  0  0  0
  -23.8605  -27.2598   25.5551 C   0  0  0  0  0  0  0  0  0  0  0  0
  -21.9024  -28.7873   25.5970 C   0  0  0  0  0  0  0  0  0  0  0  0
  -35.8664  -24.2099   20.0816 C   0  0  0  0  0  0  0  0  0  0  0  0
  -19.6393  -23.6792   22.7259 C   0  0  0  0  0  0  0  0  0  0  0  0
  -20.4301  -24.7452   23.4859 C   0  0  0  0  0  0  0  0  0  0  0  0
  -18.9091  -22.7380   23.6884 C   0  0  0  0  0  0  0  0  0  0  0  0
  -26.4974  -28.2722   20.0338 C   0  0  0  0  0  0  0  0  0  0  0  0
  -25.2570  -28.8534   19.3445 C   0  0  0  0  0  0  0  0  0  0  0  0
  -21.1896  -25.6603   22.5308 C   0  0  0  0  0  0  0  0  0  0  0  0
  -18.0995  -21.6702   22.9593 C   0  0  0  0  0  0  0  0  0  0  0  0
  -27.3172  -27.4203   19.0721 C   0  0  0  0  0  0  0  0  0  1  0  0
  -32.6306  -21.1703   22.3456 C   0  0  1  0  0  0  0  0  0  0  0  0
  -36.0477  -22.7978   22.1339 C   0  0  2  0  0  0  0  0  0  0  0  0
  -24.4011  -29.8207   20.2220 C   0  0  0  0  0  0  0  0  0  0  0  0
  -32.2846  -20.1963   23.5071 C   0  0  0  0  0  0  0  0  0  0  0  0
  -23.3144  -28.5907   24.9917 C   0  0  0  0  0  0  0  0  0  0  0  0
  -22.3213  -14.9316   20.8198 N   0  0  0  0  0  0  0  0  0  0  0  0
  -23.3335  -28.5538   23.5449 N   0  0  0  0  0  0  0  0  0  0  0  0
  -21.1893  -15.2675   21.4616 N   0  0  0  0  0  0  0  0  0  0  0  0
  -31.2656  -21.4334   20.2983 N   0  0  0  0  0  0  0  0  0  0  0  0
  -20.2779  -18.9742   21.6001 N   0  0  0  0  0  0  0  0  0  0  0  0
  -19.6784  -14.5381   23.1337 N   0  0  0  0  0  0  0  0  0  0  0  0
  -22.7717  -11.2496   23.0183 N   0  0  0  0  0  0  0  0  0  0  0  0
  -21.9232  -26.6701   23.2934 N   0  0  0  0  0  0  0  0  0  0  0  0
  -28.6475  -19.6657   18.4772 N   0  0  0  0  0  0  0  0  0  0  0  0
  -34.0535  -21.4665   22.2180 N   0  0  0  0  0  0  0  0  0  0  0  0
  -18.9173  -20.8443   22.0990 N   0  0  0  0  0  0  0  0  0  0  0  0
  -36.4608  -24.0465   21.4333 N   0  3  0  0  0  0  0  0  0  0  0  0
  -20.8272  -11.9426   24.0170 O   0  0  0  0  0  0  0  0  0  0  0  0
  -28.9656  -20.3812   20.6702 O   0  0  0  0  0  0  0  0  0  0  0  0
  -32.6454  -19.5765   20.5889 O   0  0  0  0  0  0  0  0  0  0  0  0
  -33.8580  -23.7640   22.4639 O   0  0  0  0  0  0  0  0  0  0  0  0
  -19.3797  -19.2859   23.7153 O   0  0  0  0  0  0  0  0  0  0  0  0
  -27.2451  -11.0508   19.7040 O   0  0  0  0  0  0  0  0  0  0  0  0
  -28.4461  -26.8944   19.7689 O   0  0  0  0  0  0  0  0  0  1  0  0
  -31.8685  -13.9904   19.0814 F   0  0  0  0  0  0  0  0  0  0  0  0
  -27.3589  -13.1527   17.9119 F   0  0  0  0  0  0  0  0  0  0  0  0
  -22.4014  -27.1583   20.0455 Cl  0  0  0  0  0  0  0  0  0  0  0  0
  1  2  1  0  0  0  0
  1  5  2  0  0  0  0
  2  6  2  0  0  0  0
  3  8  2  0  0  0  0
  3 16  1  0  0  0  0
  4  9  1  0  0  0  0
  4 16  2  0  0  0  0
  5 18  1  0  0  0  0
  6 20  1  0  0  0  0
  7 10  2  0  0  0  0
  7 19  1  0  0  0  0
  8 23  1  0  0  0  0
  9 23  2  0  0  0  0
 10 24  1  0  0  0  0
 11 12  2  0  0  0  0
 11 25  1  0  0  0  0
 12 26  1  0  0  0  0
 13 21  1  0  0  0  0
 13 24  2  0  0  0  0
 14 26  2  0  0  0  0
 14 27  1  0  0  0  0
 15 22  2  0  0  0  0
 15 73  1  0  0  0  0
 16 29  1  0  0  0  0
 17 29  1  0  0  0  0
 17 30  2  0  0  0  0
 17 32  1  0  0  0  0
 18 20  2  0  0  0  0
 18 37  1  0  0  0  0
 19 21  2  0  0  0  0
 19 38  1  0  0  0  0
 20 46  1  0  0  0  0
 21 39  1  0  0  0  0
 22 28  1  0  0  0  0
 22 69  1  0  0  0  0
 23 89  1  0  0  0  0
 24 90  1  0  0  0  0
 25 27  2  0  0  0  0
 25 89  1  0  0  0  0
 26 91  1  0  0  0  0
 27 92  1  0  0  0  0
 28 31  2  0  0  0  0
 28 93  1  0  0  0  0
 29 72  2  0  0  0  0
 30 74  1  0  0  0  0
 30 77  1  0  0  0  0
 31 73  1  0  0  0  0
 31 79  1  0  0  0  0
 32 78  1  0  0  0  0
 32 84  2  0  0  0  0
 33 47  1  0  0  0  0
 33 80  1  0  0  0  0
 33 85  2  0  0  0  0
 34 67  1  0  0  0  0
 34 75  1  0  0  0  0
 34 86  2  0  0  0  0
 35 68  1  0  0  0  0
 35 81  1  0  0  0  0
 35 87  2  0  0  0  0
 36 76  1  0  0  0  0
 36 82  1  0  0  0  0
 36 88  2  0  0  0  0
 37 40  1  0  0  0  0
 38 47  1  0  0  0  0
 39 75  1  0  0  0  0
 40 42  1  0  0  0  0
 41 43  1  0  0  0  0
 41 44  1  0  0  0  0
 42 46  1  0  0  0  0
 43 48  1  0  0  0  0
 44 76  1  0  0  0  0
 45 48  1  0  0  0  0
 45 76  1  0  0  0  0
 46 80  1  0  0  0  0
 47 75  1  0  0  0  0
 48 74  1  0  0  0  0
 49 68  1  0  0  0  0
 50 69  1  0  0  0  0
 51 69  1  0  0  0  0
 52 70  1  0  0  0  0
 53 70  1  0  0  0  0
 54 70  1  0  0  0  0
 55 71  1  0  0  0  0
 56 71  1  0  0  0  0
 57 71  1  0  0  0  0
 58 83  1  0  0  0  0
 59 60  1  0  0  0  0
 59 61  1  0  0  0  0
 60 64  1  0  0  0  0
 61 65  1  0  0  0  0
 62 63  1  0  0  0  0
 62 66  1  0  0  0  0
 63 69  1  0  0  0  0
 64 79  1  0  0  0  0
 65 82  1  0  0  0  0
 66 90  1  0  0  0  0
 67 70  1  0  0  0  0
 67 81  1  0  0  0  0
 68 83  1  0  0  0  0
 71 73  1  0  0  0  0
 72 74  1  0  0  0  0
M  CHG  1  83   1
M  ISO  4  36 100  66 101  82 100  90 101
M  END
> <Batch ID>
0019

> <Smiles>
CNC(C)C(=O)NC(C(=O)N1Cc2cc([101O:1][101CH2:1]CCC(C)(C)c3cn(C(C)(C)C)c(NCCCCC[100NH:0][100C:0](=O)N4CCCC(n5nc(-c6ccc(Oc7ccc(F)cc7F)cc6)c(C(N)=O)c5N)C4)c3Cl)ccc2CC1C(=O)NC1CCCc2ccccc21)C(C)(C)C

> <Shape>
0.219

> <Color>
0.073

> <Negative vol penalty>
0.000

$$$$

  -OEChem-04052316073D

 81 89  0     1  0  0  0  0  0999 V2000
  -28.1496  -37.0333   21.2706 C   0  0  0  0  0  0  0  0  0  0  0  0
  -28.5492  -35.7141   21.0823 C   0  0  0  0  0  0  0  0  0  0  0  0
  -26.8721  -12.7094   21.7983 C   0  0  0  0  0  0  0  0  0  0  0  0
  -26.2247  -14.3159   20.1140 C   0  0  0  0  0  0  0  0  0  0  0  0
  -27.0352  -37.3170   22.0589 C   0  0  0  0  0  0  0  0  0  0  0  0
  -27.8352  -34.6779   21.6831 C   0  0  0  0  0  0  0  0  0  0  0  0
  -26.8478  -29.0810   19.4014 C   0  0  0  0  0  0  0  0  0  0  0  0
  -25.5543  -12.2588   21.8751 C   0  0  0  0  0  0  0  0  0  0  0  0
  -24.9068  -13.8653   20.1908 C   0  0  0  0  0  0  0  0  0  0  0  0
  -27.4724  -27.8543   19.6226 C   0  0  0  0  0  0  0  0  0  0  0  0
  -22.4296  -10.4401   22.2541 C   0  0  0  0  0  0  0  0  0  0  0  0
  -22.2157   -9.0619   22.2760 C   0  0  0  0  0  0  0  0  0  0  0  0
  -25.7800  -27.2924   21.2472 C   0  0  0  0  0  0  0  0  0  0  0  0
  -30.3461  -22.6446   21.9249 C   0  0  0  0  0  0  0  0  0  0  0  0
  -23.2894   -8.8611   20.1210 C   0  0  0  0  0  0  0  0  0  0  0  0
  -27.2073  -13.7380   20.9178 C   0  0  0  0  0  0  0  0  0  0  0  0
  -29.5834  -13.7238   19.9897 C   0  0  0  0  0  0  0  0  0  0  0  0
  -26.3014  -36.2832   22.6618 C   0  0  0  0  0  0  0  0  0  0  0  0
  -25.6888  -29.4277   20.1107 C   0  0  0  0  0  0  0  0  0  0  0  0
  -26.7107  -34.9482   22.4813 C   0  0  0  0  0  0  0  0  0  0  0  0
  -25.1412  -28.5230   21.0314 C   0  0  0  0  0  0  0  0  0  0  0  0
  -29.8771  -23.9145   21.5888 C   0  0  0  0  0  0  0  0  0  0  0  0
  -29.2285  -24.1186   20.3708 C   0  0  0  0  0  0  0  0  0  0  0  0
  -29.0490  -23.0528   19.4890 C   0  0  0  0  0  0  0  0  0  0  0  0
  -30.1666  -21.5788   21.0431 C   0  0  0  0  0  0  0  0  0  0  0  0
  -24.5716  -12.8367   21.0713 C   0  0  0  0  0  0  0  0  0  0  0  0
  -26.9402  -26.9610   20.5477 C   0  0  0  0  0  0  0  0  0  0  0  0
  -23.0733  -11.0288   21.1657 C   0  0  0  0  0  0  0  0  0  0  0  0
  -22.6456   -8.2724   21.2095 C   0  0  0  0  0  0  0  0  0  0  0  0
  -23.5033  -10.2393   20.0992 C   0  0  0  0  0  0  0  0  0  0  0  0
  -29.5180  -21.7829   19.8252 C   0  0  0  0  0  0  0  0  0  0  0  0
  -28.5683  -14.2043   20.8385 C   0  0  0  0  0  0  0  0  0  0  0  0
  -30.6804  -14.4905   20.2981 C   0  0  0  0  0  0  0  0  0  0  0  0
  -29.5387  -12.6779   19.0099 C   0  0  0  0  0  0  0  0  0  0  0  0
  -24.9174  -31.7338   22.1577 C   0  0  0  0  0  0  0  0  0  0  0  0
  -21.9500  -30.4533   21.8791 C   0  0  0  0  0  0  0  0  0  0  0  0
  -20.0259  -27.7351   21.1337 C   0  0  0  0  0  0  0  0  0  0  0  0
  -31.3159  -19.9673   22.6015 C   0  0  0  0  0  0  0  0  0  0  0  0
  -25.1318  -36.6420   23.5439 C   0  0  0  0  0  0  0  0  0  0  0  0
  -25.0120  -30.7437   19.8411 C   0  0  0  0  0  0  0  0  0  0  0  0
  -23.8875  -28.8389   21.8038 C   0  0  0  0  0  0  0  0  0  0  0  0
  -24.2078  -35.4634   23.8395 C   0  0  0  0  0  0  0  0  0  0  0  0
  -32.6415  -16.9365   23.9183 C   0  0  0  0  0  0  0  0  0  0  0  0
  -25.0200  -34.2346   24.2357 C   0  0  0  0  0  0  0  0  0  0  0  0
  -31.8440  -15.8481   23.1962 C   0  0  0  0  0  0  0  0  0  0  0  0
  -31.7774  -18.1550   24.2379 C   0  0  0  0  0  0  0  0  0  0  0  0
  -30.2586  -17.6341   22.3694 C   0  0  0  0  0  0  0  0  0  0  0  0
  -25.9473  -33.7952   23.0961 C   0  0  1  0  0  0  0  0  0  0  0  0
  -24.1265  -31.2073   20.9937 C   0  0  1  0  0  0  0  0  0  0  0  0
  -31.1027  -16.4132   21.9687 C   0  0  2  0  0  0  0  0  0  0  0  0
  -30.0829  -25.0391   22.5505 C   0  0  0  0  0  0  0  0  0  0  0  0
  -28.3518  -23.2933   18.1855 C   0  0  0  0  0  0  0  0  0  0  0  0
  -17.6341  -26.9824   21.0338 C   0  0  0  0  0  0  0  0  0  0  0  0
  -21.8924  -30.2406   24.9224 C   0  0  0  0  0  0  0  0  0  0  0  0
  -19.9649  -28.6576   24.7056 C   0  0  0  0  0  0  0  0  0  0  0  0
  -19.7469  -31.0047   23.8892 C   0  0  0  0  0  0  0  0  0  0  0  0
  -20.2023  -27.1740   18.2332 C   0  0  0  0  0  0  0  0  0  0  0  0
  -28.7280  -25.4869   20.0123 C   0  0  0  0  0  0  0  0  0  1  0  0
  -21.1808  -29.3712   22.5978 C   0  0  1  0  0  0  0  0  0  0  0  0
  -18.7962  -27.5813   20.2570 C   0  0  2  0  0  0  0  0  0  0  0  0
  -20.7210  -29.8131   24.0158 C   0  0  0  0  0  0  0  0  0  0  0  0
  -28.9835  -15.1992   21.6270 N   0  0  0  0  0  0  0  0  0  0  0  0
  -30.2718  -15.3500   21.2751 N   0  0  0  0  0  0  0  0  0  0  0  0
  -23.2660  -30.1408   21.5097 N   0  0  0  0  0  0  0  0  0  0  0  0
  -31.1096  -18.6380   23.0272 N   0  0  0  0  0  0  0  0  0  0  0  0
  -31.9452  -14.5066   19.8263 N   0  0  0  0  0  0  0  0  0  0  0  0
  -28.3316  -11.9914   18.8202 N   0  0  0  0  0  0  0  0  0  0  0  0
  -30.6555  -20.3035   21.4202 N   0  0  0  0  0  0  0  0  0  0  0  0
  -25.1993  -33.0844   22.0814 N   0  0  0  0  0  0  0  0  0  0  0  0
  -20.0900  -28.9867   21.7086 N   0  0  0  0  0  0  0  0  0  0  0  0
  -19.0942  -26.6932   19.0979 N   0  3  0  0  0  0  0  0  0  0  0  0
  -30.5439  -12.3505   18.3347 O   0  0  0  0  0  0  0  0  0  0  0  0
  -25.2461  -30.9716   23.0591 O   0  0  0  0  0  0  0  0  0  0  0  0
  -21.4011  -31.5334   21.6476 O   0  0  0  0  0  0  0  0  0  0  0  0
  -20.8455  -26.8336   21.2955 O   0  0  0  0  0  0  0  0  0  0  0  0
  -32.0478  -20.7417   23.2233 O   0  0  0  0  0  0  0  0  0  0  0  0
  -23.2857  -12.3971   21.1458 O   0  0  0  0  0  0  0  0  0  0  0  0
  -27.5482  -25.7633   20.7659 O   0  0  0  0  0  0  0  0  0  1  0  0
  -22.4415   -6.9488   21.2313 F   0  0  0  0  0  0  0  0  0  0  0  0
  -24.1234  -10.7990   19.0513 F   0  0  0  0  0  0  0  0  0  0  0  0
  -29.2928  -20.4585   18.7282 Cl  0  0  0  0  0  0  0  0  0  0  0  0
  1  2  1  0  0  0  0
  1  5  2  0  0  0  0
  2  6  2  0  0  0  0
  3  8  2  0  0  0  0
  3 16  1  0  0  0  0
  4  9  1  0  0  0  0
  4 16  2  0  0  0  0
  5 18  1  0  0  0  0
  6 20  1  0  0  0  0
  7 10  2  0  0  0  0
  7 19  1  0  0  0  0
  8 26  1  0  0  0  0
  9 26  2  0  0  0  0
 10 27  1  0  0  0  0
 11 12  2  0  0  0  0
 11 28  1  0  0  0  0
 12 29  1  0  0  0  0
 13 21  1  0  0  0  0
 13 27  2  0  0  0  0
 14 22  2  0  0  0  0
 14 25  1  0  0  0  0
 15 29  2  0  0  0  0
 15 30  1  0  0  0  0
 16 32  1  0  0  0  0
 17 32  1  0  0  0  0
 17 33  2  0  0  0  0
 17 34  1  0  0  0  0
 18 20  2  0  0  0  0
 18 39  1  0  0  0  0
 19 21  2  0  0  0  0
 19 40  1  0  0  0  0
 20 48  1  0  0  0  0
 21 41  1  0  0  0  0
 22 23  1  0  0  0  0
 22 51  1  0  0  0  0
 23 24  2  0  0  0  0
 23 58  1  0  0  0  0
 24 31  1  0  0  0  0
 24 52  1  0  0  0  0
 25 31  2  0  0  0  0
 25 68  1  0  0  0  0
 26 77  1  0  0  0  0
 27 78  1  0  0  0  0
 28 30  2  0  0  0  0
 28 77  1  0  0  0  0
 29 79  1  0  0  0  0
 30 80  1  0  0  0  0
 31 81  1  0  0  0  0
 32 62  2  0  0  0  0
 33 63  1  0  0  0  0
 33 66  1  0  0  0  0
 34 67  1  0  0  0  0
 34 72  2  0  0  0  0
 35 49  1  0  0  0  0
 35 69  1  0  0  0  0
 35 73  2  0  0  0  0
 36 59  1  0  0  0  0
 36 64  1  0  0  0  0
 36 74  2  0  0  0  0
 37 60  1  0  0  0  0
 37 70  1  0  0  0  0
 37 75  2  0  0  0  0
 38 65  1  0  0  0  0
 38 68  1  0  0  0  0
 38 76  2  0  0  0  0
 39 42  1  0  0  0  0
 40 49  1  0  0  0  0
 41 64  1  0  0  0  0
 42 44  1  0  0  0  0
 43 45  1  0  0  0  0
 43 46  1  0  0  0  0
 44 48  1  0  0  0  0
 45 50  1  0  0  0  0
 46 65  1  0  0  0  0
 47 50  1  0  0  0  0
 47 65  1  0  0  0  0
 48 69  1  0  0  0  0
 49 64  1  0  0  0  0
 50 63  1  0  0  0  0
 53 60  1  0  0  0  0
 54 61  1  0  0  0  0
 55 61  1  0  0  0  0
 56 61  1  0  0  0  0
 57 71  1  0  0  0  0
 58 78  1  0  0  0  0
 59 61  1  0  0  0  0
 59 70  1  0  0  0  0
 60 71  1  0  0  0  0
 62 63  1  0  0  0  0
M  CHG  1  71   1
M  ISO  4  38 100  58 101  68 100  78 101
M  END
> <Batch ID>
0019

> <Smiles>
CNC(C)C(=O)NC(C(=O)N1Cc2cc([101O:1][101CH2:1]c3c(C)cc([100NH:0][100C:0](=O)N4CCCC(n5nc(-c6ccc(Oc7ccc(F)cc7F)cc6)c(C(N)=O)c5N)C4)c(Cl)c3C)ccc2CC1C(=O)NC1CCCc2ccccc21)C(C)(C)C

> <Shape>
0.349

> <Color>
0.081

> <Negative vol penalty>
0.000

$$$$

  -OEChem-04052316073D

 82 90  0     1  0  0  0  0  0999 V2000
  -16.7987  -30.4034   24.0265 C   0  0  0  0  0  0  0  0  0  0  0  0
  -17.9976  -30.8020   24.6091 C   0  0  0  0  0  0  0  0  0  0  0  0
  -23.9411  -14.3578   21.4310 C   0  0  0  0  0  0  0  0  0  0  0  0
  -26.3072  -14.4883   21.9017 C   0  0  0  0  0  0  0  0  0  0  0  0
  -16.7826  -29.3396   23.1254 C   0  0  0  0  0  0  0  0  0  0  0  0
  -19.1809  -30.1361   24.2916 C   0  0  0  0  0  0  0  0  0  0  0  0
  -26.2025  -31.3061   23.4889 C   0  0  0  0  0  0  0  0  0  0  0  0
  -24.1123  -13.0680   20.9282 C   0  0  0  0  0  0  0  0  0  0  0  0
  -26.4784  -13.1984   21.3990 C   0  0  0  0  0  0  0  0  0  0  0  0
  -27.4329  -30.8159   23.9244 C   0  0  0  0  0  0  0  0  0  0  0  0
  -23.8675   -9.6039   19.8534 C   0  0  0  0  0  0  0  0  0  0  0  0
  -22.9507   -8.6284   20.2448 C   0  0  0  0  0  0  0  0  0  0  0  0
  -27.2968  -29.0431   22.2942 C   0  0  0  0  0  0  0  0  0  0  0  0
  -23.5765   -8.9666   22.5537 C   0  0  0  0  0  0  0  0  0  0  0  0
  -25.0386  -15.0680   21.9177 C   0  0  0  0  0  0  0  0  0  0  0  0
  -24.5781  -16.7642   23.7665 C   0  0  0  0  0  0  0  0  0  0  0  0
  -17.9679  -28.6666   22.7894 C   0  0  0  0  0  0  0  0  0  0  0  0
  -25.5038  -30.6611   22.4583 C   0  0  0  0  0  0  0  0  0  0  0  0
  -19.1804  -29.0614   23.3862 C   0  0  0  0  0  0  0  0  0  0  0  0
  -26.0590  -29.5286   21.8456 C   0  0  0  0  0  0  0  0  0  0  0  0
  -27.6409  -23.9183   25.6392 C   0  0  0  0  0  0  0  0  0  0  0  0
  -27.7035  -23.6812   24.2438 C   0  0  0  0  0  0  0  0  0  0  0  0
  -25.3809  -12.4883   20.9122 C   0  0  0  0  0  0  0  0  0  0  0  0
  -27.9788  -29.6825   23.3290 C   0  0  0  0  0  0  0  0  0  0  0  0
  -24.6389  -10.2608   20.8121 C   0  0  0  0  0  0  0  0  0  0  0  0
  -22.8051   -8.3097   21.5949 C   0  0  0  0  0  0  0  0  0  0  0  0
  -24.4934   -9.9422   22.1622 C   0  0  0  0  0  0  0  0  0  0  0  0
  -24.8626  -16.4005   22.4366 C   0  0  0  0  0  0  0  0  0  0  0  0
  -28.7016  -24.7341   25.9657 C   0  0  0  0  0  0  0  0  0  0  0  0
  -28.8006  -24.3593   23.7602 C   0  0  0  0  0  0  0  0  0  0  0  0
  -24.5086  -18.1357   23.7400 C   0  0  0  0  0  0  0  0  0  0  0  0
  -24.3933  -15.9364   24.9225 C   0  0  0  0  0  0  0  0  0  0  0  0
  -22.6852  -29.2103   22.2253 C   0  0  0  0  0  0  0  0  0  0  0  0
  -23.4599  -29.0610   19.0789 C   0  0  0  0  0  0  0  0  0  0  0  0
  -25.9004  -29.0522   16.6933 C   0  0  0  0  0  0  0  0  0  0  0  0
  -26.4857  -23.0828   22.1213 C   0  0  0  0  0  0  0  0  0  0  0  0
  -17.8933  -27.4920   21.8463 C   0  0  0  0  0  0  0  0  0  0  0  0
  -24.1903  -31.2181   21.9818 C   0  0  0  0  0  0  0  0  0  0  0  0
  -25.3584  -28.8113   20.7217 C   0  0  0  0  0  0  0  0  0  0  0  0
  -19.2489  -27.0806   21.2776 C   0  0  0  0  0  0  0  0  0  0  0  0
  -24.3759  -21.3524   19.8340 C   0  0  0  0  0  0  0  0  0  0  0  0
  -20.2940  -27.0106   22.3864 C   0  0  0  0  0  0  0  0  0  0  0  0
  -24.2911  -19.9397   20.4166 C   0  0  0  0  0  0  0  0  0  0  0  0
  -25.7637  -21.9619   20.0242 C   0  0  0  0  0  0  0  0  0  0  0  0
  -26.1805  -20.5324   21.9869 C   0  0  0  0  0  0  0  0  0  0  0  0
  -20.4888  -28.3801   23.0483 C   0  0  1  0  0  0  0  0  0  0  0  0
  -23.3236  -30.1817   21.2732 C   0  0  1  0  0  0  0  0  0  0  0  0
  -24.7826  -19.9020   21.8769 C   0  0  2  0  0  0  0  0  0  0  0  0
  -26.6261  -23.3904   26.5749 C   0  0  0  0  0  0  0  0  0  0  0  0
  -29.1104  -25.2880   27.2744 C   0  0  0  0  0  0  0  0  0  0  0  0
  -29.3325  -24.4583   22.3834 C   0  0  0  0  0  0  0  0  0  0  0  0
  -26.2284  -28.8791   14.2114 C   0  0  0  0  0  0  0  0  0  0  0  0
  -22.9421  -26.0575   19.2224 C   0  0  0  0  0  0  0  0  0  0  0  0
  -24.1723  -25.8124   17.0557 C   0  0  0  0  0  0  0  0  0  0  0  0
  -22.0800  -27.1671   17.1535 C   0  0  0  0  0  0  0  0  0  0  0  0
  -27.1457  -31.7334   16.5541 C   0  0  0  0  0  0  0  0  0  0  0  0
  -30.3502  -27.3543   24.7391 C   0  0  0  0  0  0  0  0  0  0  0  0
  -30.6380  -25.8514   24.7264 C   0  0  0  0  0  0  0  0  0  0  0  0
  -29.3923  -27.7952   23.6384 C   0  0  0  0  0  0  0  0  0  1  0  0
  -24.1935  -28.0732   18.2042 C   0  0  1  0  0  0  0  0  0  0  0  0
  -26.0388  -29.8199   15.3911 C   0  0  2  0  0  0  0  0  0  0  0  0
  -23.3595  -26.7897   17.9314 C   0  0  0  0  0  0  0  0  0  0  0  0
  -24.9665  -17.4558   21.6244 N   0  0  0  0  0  0  0  0  0  0  0  0
  -29.3998  -24.9955   24.8158 N   0  0  0  0  0  0  0  0  0  0  0  0
  -24.7460  -18.4961   22.4462 N   0  0  0  0  0  0  0  0  0  0  0  0
  -24.0738  -29.3908   20.2955 N   0  0  0  0  0  0  0  0  0  0  0  0
  -26.1611  -21.8950   21.4323 N   0  0  0  0  0  0  0  0  0  0  0  0
  -24.2680  -19.0565   24.6975 N   0  0  0  0  0  0  0  0  0  0  0  0
  -24.4989  -14.5468   24.7729 N   0  0  0  0  0  0  0  0  0  0  0  0
  -26.8168  -22.8987   23.4633 N   0  0  0  0  0  0  0  0  0  0  0  0
  -21.3036  -29.2346   22.2115 N   0  0  0  0  0  0  0  0  0  0  0  0
  -24.5797  -28.8019   17.0008 N   0  0  0  0  0  0  0  0  0  0  0  0
  -27.2111  -30.7380   15.4532 N   0  3  0  0  0  0  0  0  0  0  0  0
  -24.1257  -16.4138   26.0512 O   0  0  0  0  0  0  0  0  0  0  0  0
  -23.3935  -28.4909   22.9199 O   0  0  0  0  0  0  0  0  0  0  0  0
  -22.3854  -29.5284   18.6935 O   0  0  0  0  0  0  0  0  0  0  0  0
  -26.8673  -28.7056   17.3683 O   0  0  0  0  0  0  0  0  0  0  0  0
  -26.4446  -24.1852   21.5691 O   0  0  0  0  0  0  0  0  0  0  0  0
  -25.5482  -11.2297   20.4220 O   0  0  0  0  0  0  0  0  0  0  0  0
  -29.1792  -29.2015   23.7527 O   0  0  0  0  0  0  0  0  0  1  0  0
  -21.9235   -7.3739   21.9708 F   0  0  0  0  0  0  0  0  0  0  0  0
  -25.2308  -10.5707   23.0880 F   0  0  0  0  0  0  0  0  0  0  0  0
  1  2  1  0  0  0  0
  1  5  2  0  0  0  0
  2  6  2  0  0  0  0
  3  8  2  0  0  0  0
  3 15  1  0  0  0  0
  4  9  1  0  0  0  0
  4 15  2  0  0  0  0
  5 17  1  0  0  0  0
  6 19  1  0  0  0  0
  7 10  2  0  0  0  0
  7 18  1  0  0  0  0
  8 23  1  0  0  0  0
  9 23  2  0  0  0  0
 10 24  1  0  0  0  0
 11 12  2  0  0  0  0
 11 25  1  0  0  0  0
 12 26  1  0  0  0  0
 13 20  1  0  0  0  0
 13 24  2  0  0  0  0
 14 26  2  0  0  0  0
 14 27  1  0  0  0  0
 15 28  1  0  0  0  0
 16 28  1  0  0  0  0
 16 31  2  0  0  0  0
 16 32  1  0  0  0  0
 17 19  2  0  0  0  0
 17 37  1  0  0  0  0
 18 20  2  0  0  0  0
 18 38  1  0  0  0  0
 19 46  1  0  0  0  0
 20 39  1  0  0  0  0
 21 22  1  0  0  0  0
 21 29  2  0  0  0  0
 21 49  1  0  0  0  0
 22 30  2  0  0  0  0
 22 70  1  0  0  0  0
 23 79  1  0  0  0  0
 24 80  1  0  0  0  0
 25 27  2  0  0  0  0
 25 79  1  0  0  0  0
 26 81  1  0  0  0  0
 27 82  1  0  0  0  0
 28 63  2  0  0  0  0
 29 50  1  0  0  0  0
 29 64  1  0  0  0  0
 30 51  1  0  0  0  0
 30 64  1  0  0  0  0
 31 65  1  0  0  0  0
 31 68  1  0  0  0  0
 32 69  1  0  0  0  0
 32 74  2  0  0  0  0
 33 47  1  0  0  0  0
 33 71  1  0  0  0  0
 33 75  2  0  0  0  0
 34 60  1  0  0  0  0
 34 66  1  0  0  0  0
 34 76  2  0  0  0  0
 35 61  1  0  0  0  0
 35 72  1  0  0  0  0
 35 77  2  0  0  0  0
 36 67  1  0  0  0  0
 36 70  1  0  0  0  0
 36 78  2  0  0  0  0
 37 40  1  0  0  0  0
 38 47  1  0  0  0  0
 39 66  1  0  0  0  0
 40 42  1  0  0  0  0
 41 43  1  0  0  0  0
 41 44  1  0  0  0  0
 42 46  1  0  0  0  0
 43 48  1  0  0  0  0
 44 67  1  0  0  0  0
 45 48  1  0  0  0  0
 45 67  1  0  0  0  0
 46 71  1  0  0  0  0
 47 66  1  0  0  0  0
 48 65  1  0  0  0  0
 52 61  1  0  0  0  0
 53 62  1  0  0  0  0
 54 62  1  0  0  0  0
 55 62  1  0  0  0  0
 56 73  1  0  0  0  0
 57 58  1  0  0  0  0
 57 59  1  0  0  0  0
 58 64  1  0  0  0  0
 59 80  1  0  0  0  0
 60 62  1  0  0  0  0
 60 72  1  0  0  0  0
 61 73  1  0  0  0  0
 63 65  1  0  0  0  0
M  CHG  1  73   1
M  ISO  4  36 100  59 101  70 100  80 101
M  END
> <Batch ID>
0019

> <Smiles>
CNC(C)C(=O)NC(C(=O)N1Cc2cc([101O:1][101CH2:1]CCn3c(C)c(C)c([100NH:0][100C:0](=O)N4CCCC(n5nc(-c6ccc(Oc7ccc(F)cc7F)cc6)c(C(N)=O)c5N)C4)c3C)ccc2CC1C(=O)NC1CCCc2ccccc21)C(C)(C)C

> <Shape>
0.210

> <Color>
0.121

> <Negative vol penalty>
0.000

$$$$

  -OEChem-04052316073D

 85 93  0     1  0  0  0  0  0999 V2000
  -17.7778  -13.1116   23.5262 C   0  0  0  0  0  0  0  0  0  0  0  0
  -18.3271  -14.2435   22.9327 C   0  0  0  0  0  0  0  0  0  0  0  0
  -24.3032  -28.8714   22.2876 C   0  0  0  0  0  0  0  0  0  0  0  0
  -25.5223  -30.5368   21.0318 C   0  0  0  0  0  0  0  0  0  0  0  0
  -18.6099  -12.1655   24.1232 C   0  0  0  0  0  0  0  0  0  0  0  0
  -19.7089  -14.4306   22.9368 C   0  0  0  0  0  0  0  0  0  0  0  0
  -23.0833  -17.0438   18.5447 C   0  0  0  0  0  0  0  0  0  0  0  0
  -23.7002  -29.8797   23.0395 C   0  0  0  0  0  0  0  0  0  0  0  0
  -24.9193  -31.5452   21.7837 C   0  0  0  0  0  0  0  0  0  0  0  0
  -23.6030  -18.3295   18.4010 C   0  0  0  0  0  0  0  0  0  0  0  0
  -25.2919  -32.9318   24.8446 C   0  0  0  0  0  0  0  0  0  0  0  0
  -26.1055  -33.9601   25.3203 C   0  0  0  0  0  0  0  0  0  0  0  0
  -25.7045  -17.5757   19.3146 C   0  0  0  0  0  0  0  0  0  0  0  0
  -27.6461  -22.2011   19.3912 C   0  0  0  0  0  0  0  0  0  0  0  0
  -26.9357  -22.8975   21.9976 C   0  0  0  0  0  0  0  0  0  0  0  0
  -24.7896  -35.5702   24.0902 C   0  0  0  0  0  0  0  0  0  0  0  0
  -25.2143  -29.2000   21.2837 C   0  0  0  0  0  0  0  0  0  0  0  0
  -25.3673  -27.5972   19.3050 C   0  0  0  0  0  0  0  0  0  0  0  0
  -20.0032  -12.3362   24.1262 C   0  0  0  0  0  0  0  0  0  0  0  0
  -23.8682  -16.0152   19.0855 C   0  0  0  0  0  0  0  0  0  0  0  0
  -20.5604  -13.4865   23.5356 C   0  0  0  0  0  0  0  0  0  0  0  0
  -25.1933  -16.2772   19.4617 C   0  0  0  0  0  0  0  0  0  0  0  0
  -26.3062  -22.4133   19.7158 C   0  0  0  0  0  0  0  0  0  0  0  0
  -28.6307  -22.3370   20.3698 C   0  0  0  0  0  0  0  0  0  0  0  0
  -25.9510  -22.7615   21.0189 C   0  0  0  0  0  0  0  0  0  0  0  0
  -28.2755  -22.6853   21.6730 C   0  0  0  0  0  0  0  0  0  0  0  0
  -24.0083  -31.2166   22.7876 C   0  0  0  0  0  0  0  0  0  0  0  0
  -24.9128  -18.5963   18.7887 C   0  0  0  0  0  0  0  0  0  0  0  0
  -24.2272  -33.2226   23.9917 C   0  0  0  0  0  0  0  0  0  0  0  0
  -25.8544  -35.2793   24.9431 C   0  0  0  0  0  0  0  0  0  0  0  0
  -23.9760  -34.5419   23.6145 C   0  0  0  0  0  0  0  0  0  0  0  0
  -25.8379  -28.1588   20.5071 C   0  0  0  0  0  0  0  0  0  0  0  0
  -26.3114  -26.6567   18.9727 C   0  0  0  0  0  0  0  0  0  0  0  0
  -24.1826  -27.8988   18.5558 C   0  0  0  0  0  0  0  0  0  0  0  0
  -23.6712  -14.1595   21.6586 C   0  0  0  0  0  0  0  0  0  0  0  0
  -26.2447  -12.7027   20.3255 C   0  0  0  0  0  0  0  0  0  0  0  0
  -28.9309  -12.9136   18.2310 C   0  0  0  0  0  0  0  0  0  0  0  0
  -30.3206  -23.7771   22.5788 C   0  0  0  0  0  0  0  0  0  0  0  0
  -20.8589  -11.3098   24.8253 C   0  0  0  0  0  0  0  0  0  0  0  0
  -23.3015  -14.6274   19.2091 C   0  0  0  0  0  0  0  0  0  0  0  0
  -26.0838  -15.2030   20.0288 C   0  0  0  0  0  0  0  0  0  0  0  0
  -22.3379  -11.3973   24.4577 C   0  0  0  0  0  0  0  0  0  0  0  0
  -30.9581  -25.6602   19.4711 C   0  0  0  0  0  0  0  0  0  0  0  0
  -22.8159  -12.8450   24.5087 C   0  0  0  0  0  0  0  0  0  0  0  0
  -29.6984  -26.5122   19.3249 C   0  0  0  0  0  0  0  0  0  0  0  0
  -31.2755  -25.3643   20.9339 C   0  0  0  0  0  0  0  0  0  0  0  0
  -28.8841  -25.5929   21.5333 C   0  0  0  0  0  0  0  0  0  0  0  0
  -22.0562  -13.7127   23.4980 C   0  0  1  0  0  0  0  0  0  0  0  0
  -24.0245  -13.7772   20.2491 C   0  0  1  0  0  0  0  0  0  0  0  0
  -28.5136  -25.8721   20.0688 C   0  0  1  0  0  0  0  0  0  0  0  0
  -24.5230  -22.9934   21.3898 C   0  0  0  0  0  0  0  0  0  0  0  0
  -30.3876  -20.6197   19.8690 C   0  0  0  0  0  0  0  0  0  0  0  0
  -30.8718  -11.5726   17.3756 C   0  0  0  0  0  0  0  0  0  0  0  0
  -30.1751  -21.1385   24.2409 C   0  0  0  0  0  0  0  0  0  0  0  0
  -28.9876  -23.1766   25.1123 C   0  0  0  0  0  0  0  0  0  0  0  0
  -27.6939  -13.1119   22.9793 C   0  0  0  0  0  0  0  0  0  0  0  0
  -29.8494  -12.6450   21.7944 C   0  0  0  0  0  0  0  0  0  0  0  0
  -28.0850  -10.8854   21.9096 C   0  0  0  0  0  0  0  0  0  0  0  0
  -27.9814  -13.1069   15.4346 C   0  0  0  0  0  0  0  0  0  0  0  0
  -25.2584  -22.2600   18.6402 C   0  0  0  0  0  0  0  0  0  0  0  0
  -30.0581  -22.1038   19.9939 C   0  0  0  0  0  0  0  0  0  0  0  0
  -24.5047  -20.9389   18.7491 C   0  0  0  0  0  0  0  0  0  1  0  0
  -27.7405  -12.8897   20.4074 C   0  0  1  0  0  0  0  0  0  0  0  0
  -29.4289  -11.9884   17.1353 C   0  0  2  0  0  0  0  0  0  0  0  0
  -29.0701  -22.1557   23.9848 C   0  0  0  0  0  0  0  0  0  0  0  0
  -28.3250  -12.4039   21.7638 C   0  0  0  0  0  0  0  0  0  0  0  0
  -26.9913  -27.6199   20.9111 N   0  0  0  0  0  0  0  0  0  0  0  0
  -27.2533  -26.7098   19.9577 N   0  0  0  0  0  0  0  0  0  0  0  0
  -25.4819  -13.8637   20.1358 N   0  0  0  0  0  0  0  0  0  0  0  0
  -30.1187  -24.7989   21.6293 N   0  0  0  0  0  0  0  0  0  0  0  0
  -26.4195  -25.7976   17.9369 N   0  0  0  0  0  0  0  0  0  0  0  0
  -23.3212  -28.8929   19.0394 N   0  0  0  0  0  0  0  0  0  0  0  0
  -22.5677  -13.4969   22.1615 N   0  0  0  0  0  0  0  0  0  0  0  0
  -28.3004  -12.2170   19.2403 N   0  0  0  0  0  0  0  0  0  0  0  0
  -29.2799  -22.8311   22.7001 N   0  0  0  0  0  0  0  0  0  0  0  0
  -29.3492  -12.6652   15.8100 N   0  3  0  0  0  0  0  0  0  0  0  0
  -23.8881  -27.2928   17.4976 O   0  0  0  0  0  0  0  0  0  0  0  0
  -24.3503  -14.9927   22.2470 O   0  0  0  0  0  0  0  0  0  0  0  0
  -25.7711  -11.5676   20.4190 O   0  0  0  0  0  0  0  0  0  0  0  0
  -29.0888  -14.1319   18.1969 O   0  0  0  0  0  0  0  0  0  0  0  0
  -31.3610  -23.7001   23.2431 O   0  0  0  0  0  0  0  0  0  0  0  0
  -23.4199  -32.2007   23.5209 O   0  0  0  0  0  0  0  0  0  0  0  0
  -25.4223  -19.8506   18.6501 O   0  0  0  0  0  0  0  0  0  1  0  0
  -26.6348  -36.2668   25.4012 F   0  0  0  0  0  0  0  0  0  0  0  0
  -22.9539  -34.8276   22.7963 F   0  0  0  0  0  0  0  0  0  0  0  0
  1  2  1  0  0  0  0
  1  5  2  0  0  0  0
  2  6  2  0  0  0  0
  3  8  2  0  0  0  0
  3 17  1  0  0  0  0
  4  9  1  0  0  0  0
  4 17  2  0  0  0  0
  5 19  1  0  0  0  0
  6 21  1  0  0  0  0
  7 10  2  0  0  0  0
  7 20  1  0  0  0  0
  8 27  1  0  0  0  0
  9 27  2  0  0  0  0
 10 28  1  0  0  0  0
 11 12  2  0  0  0  0
 11 29  1  0  0  0  0
 12 30  1  0  0  0  0
 13 22  1  0  0  0  0
 13 28  2  0  0  0  0
 14 23  2  0  0  0  0
 14 24  1  0  0  0  0
 15 25  2  0  0  0  0
 15 26  1  0  0  0  0
 16 30  2  0  0  0  0
 16 31  1  0  0  0  0
 17 32  1  0  0  0  0
 18 32  1  0  0  0  0
 18 33  2  0  0  0  0
 18 34  1  0  0  0  0
 19 21  2  0  0  0  0
 19 39  1  0  0  0  0
 20 22  2  0  0  0  0
 20 40  1  0  0  0  0
 21 48  1  0  0  0  0
 22 41  1  0  0  0  0
 23 25  1  0  0  0  0
 23 60  1  0  0  0  0
 24 26  2  0  0  0  0
 24 61  1  0  0  0  0
 25 51  1  0  0  0  0
 26 75  1  0  0  0  0
 27 82  1  0  0  0  0
 28 83  1  0  0  0  0
 29 31  2  0  0  0  0
 29 82  1  0  0  0  0
 30 84  1  0  0  0  0
 31 85  1  0  0  0  0
 32 67  2  0  0  0  0
 33 68  1  0  0  0  0
 33 71  1  0  0  0  0
 34 72  1  0  0  0  0
 34 77  2  0  0  0  0
 35 49  1  0  0  0  0
 35 73  1  0  0  0  0
 35 78  2  0  0  0  0
 36 63  1  0  0  0  0
 36 69  1  0  0  0  0
 36 79  2  0  0  0  0
 37 64  1  0  0  0  0
 37 74  1  0  0  0  0
 37 80  2  0  0  0  0
 38 70  1  0  0  0  0
 38 75  1  0  0  0  0
 38 81  2  0  0  0  0
 39 42  1  0  0  0  0
 40 49  1  0  0  0  0
 41 69  1  0  0  0  0
 42 44  1  0  0  0  0
 43 45  1  0  0  0  0
 43 46  1  0  0  0  0
 44 48  1  0  0  0  0
 45 50  1  0  0  0  0
 46 70  1  0  0  0  0
 47 50  1  0  0  0  0
 47 70  1  0  0  0  0
 48 73  1  0  0  0  0
 49 69  1  0  0  0  0
 50 68  1  0  0  0  0
 52 61  1  0  0  0  0
 53 64  1  0  0  0  0
 54 65  1  0  0  0  0
 55 65  1  0  0  0  0
 56 66  1  0  0  0  0
 57 66  1  0  0  0  0
 58 66  1  0  0  0  0
 59 76  1  0  0  0  0
 60 62  1  0  0  0  0
 62 83  1  0  0  0  0
 63 66  1  0  0  0  0
 63 74  1  0  0  0  0
 64 76  1  0  0  0  0
 65 75  1  0  0  0  0
 67 68  1  0  0  0  0
M  CHG  1  76   1
M  ISO  4  38 100  62 101  75 100  83 101
M  END
> <Batch ID>
0019

> <Smiles>
CCc1cc(C[101CH2:1][101O:1]c2ccc3c(c2)CN(C(=O)C(NC(=O)C(C)NC)C(C)(C)C)C(C(=O)NC2CCCc4ccccc42)C3)c(C)cc1[100N:0](C(C)C)[100C:0](=O)N1CCCC(n2nc(-c3ccc(Oc4ccc(F)cc4F)cc3)c(C(N)=O)c2N)C1

> <Shape>
0.247

> <Color>
0.060

> <Negative vol penalty>
0.000

$$$$

  -OEChem-04052316073D

 82 90  0     1  0  0  0  0  0999 V2000
  -16.9947  -28.3243   24.4489 C   0  0  0  0  0  0  0  0  0  0  0  0
  -17.7116  -27.3831   23.7169 C   0  0  0  0  0  0  0  0  0  0  0  0
  -26.3969  -13.5172   21.1081 C   0  0  0  0  0  0  0  0  0  0  0  0
  -28.1002  -12.2671   19.9363 C   0  0  0  0  0  0  0  0  0  0  0  0
  -17.2680  -29.6826   24.2928 C   0  0  0  0  0  0  0  0  0  0  0  0
  -18.7014  -27.7998   22.8275 C   0  0  0  0  0  0  0  0  0  0  0  0
  -22.9331  -25.0431   23.1996 C   0  0  0  0  0  0  0  0  0  0  0  0
  -25.7733  -12.3244   21.4741 C   0  0  0  0  0  0  0  0  0  0  0  0
  -27.4766  -11.0743   20.3024 C   0  0  0  0  0  0  0  0  0  0  0  0
  -22.9295  -23.7865   22.5957 C   0  0  0  0  0  0  0  0  0  0  0  0
  -23.7409  -10.0350   20.0415 C   0  0  0  0  0  0  0  0  0  0  0  0
  -22.3547   -9.9609   19.9054 C   0  0  0  0  0  0  0  0  0  0  0  0
  -24.1286  -24.6959   20.7103 C   0  0  0  0  0  0  0  0  0  0  0  0
  -27.8116  -20.6351   20.6792 C   0  0  0  0  0  0  0  0  0  0  0  0
  -22.1441   -9.5455   22.2761 C   0  0  0  0  0  0  0  0  0  0  0  0
  -27.5603  -13.4886   20.3391 C   0  0  0  0  0  0  0  0  0  0  0  0
  -29.2026  -15.4120   20.6726 C   0  0  0  0  0  0  0  0  0  0  0  0
  -18.2682  -30.1156   23.4081 C   0  0  0  0  0  0  0  0  0  0  0  0
  -23.5259  -26.1398   22.5574 C   0  0  0  0  0  0  0  0  0  0  0  0
  -18.9873  -29.1652   22.6584 C   0  0  0  0  0  0  0  0  0  0  0  0
  -24.1406  -25.9648   21.3094 C   0  0  0  0  0  0  0  0  0  0  0  0
  -27.4196  -20.8340   19.3324 C   0  0  0  0  0  0  0  0  0  0  0  0
  -26.3132  -11.1030   21.0714 C   0  0  0  0  0  0  0  0  0  0  0  0
  -23.5248  -23.6134   21.3496 C   0  0  0  0  0  0  0  0  0  0  0  0
  -24.3288   -9.8643   21.2949 C   0  0  0  0  0  0  0  0  0  0  0  0
  -21.5563   -9.7162   21.0226 C   0  0  0  0  0  0  0  0  0  0  0  0
  -23.5303   -9.6196   22.4122 C   0  0  0  0  0  0  0  0  0  0  0  0
  -28.2046  -14.7204   19.9601 C   0  0  0  0  0  0  0  0  0  0  0  0
  -26.6757  -20.3351   21.3982 C   0  0  0  0  0  0  0  0  0  0  0  0
  -26.0560  -20.6496   19.2694 C   0  0  0  0  0  0  0  0  0  0  0  0
  -29.4779  -16.5120   19.8976 C   0  0  0  0  0  0  0  0  0  0  0  0
  -29.8251  -15.0889   21.9231 C   0  0  0  0  0  0  0  0  0  0  0  0
  -22.4796  -28.9385   21.4727 C   0  0  0  0  0  0  0  0  0  0  0  0
  -25.6335  -29.4654   20.9277 C   0  0  0  0  0  0  0  0  0  0  0  0
  -28.7364  -28.1564   20.3747 C   0  0  0  0  0  0  0  0  0  0  0  0
  -27.9637  -20.7512   16.9058 C   0  0  0  0  0  0  0  0  0  0  0  0
  -18.4953  -31.5969   23.2381 C   0  0  0  0  0  0  0  0  0  0  0  0
  -23.5447  -27.4829   23.2342 C   0  0  0  0  0  0  0  0  0  0  0  0
  -24.8083  -27.1056   20.5874 C   0  0  0  0  0  0  0  0  0  0  0  0
  -19.8166  -31.9358   22.5527 C   0  0  0  0  0  0  0  0  0  0  0  0
  -28.1046  -17.6496   15.1728 C   0  0  0  0  0  0  0  0  0  0  0  0
  -20.0185  -31.0603   21.3200 C   0  0  0  0  0  0  0  0  0  0  0  0
  -28.2150  -16.6593   16.3315 C   0  0  0  0  0  0  0  0  0  0  0  0
  -27.1463  -18.7979   15.4904 C   0  0  0  0  0  0  0  0  0  0  0  0
  -27.5660  -18.5164   17.9130 C   0  0  0  0  0  0  0  0  0  0  0  0
  -20.0856  -29.5767   21.7021 C   0  0  1  0  0  0  0  0  0  0  0  0
  -23.7256  -28.6414   22.2581 C   0  0  1  0  0  0  0  0  0  0  0  0
  -28.5668  -17.3819   17.6439 C   0  0  1  0  0  0  0  0  0  0  0  0
  -26.5164  -20.0389   22.8369 C   0  0  0  0  0  0  0  0  0  0  0  0
  -25.1321  -20.7354   18.1175 C   0  0  0  0  0  0  0  0  0  0  0  0
  -28.8142  -23.5696   18.3973 C   0  0  0  0  0  0  0  0  0  0  0  0
  -31.1101  -28.8364   19.9272 C   0  0  0  0  0  0  0  0  0  0  0  0
  -24.8947  -30.1385   18.0448 C   0  0  0  0  0  0  0  0  0  0  0  0
  -27.3092  -29.8743   17.4377 C   0  0  0  0  0  0  0  0  0  0  0  0
  -26.6184  -31.6408   19.0579 C   0  0  0  0  0  0  0  0  0  0  0  0
  -29.7008  -26.8417   22.8446 C   0  0  0  0  0  0  0  0  0  0  0  0
  -24.1797  -20.0693   20.9084 C   0  0  0  0  0  0  0  0  0  0  0  0
  -29.3443  -22.1503   18.4262 C   0  0  0  0  0  0  0  0  0  0  0  0
  -23.5280  -21.2505   21.6191 C   0  0  0  0  0  0  0  0  0  1  0  0
  -26.5753  -29.2165   19.7744 C   0  0  1  0  0  0  0  0  0  0  0  0
  -30.0871  -28.4715   20.9916 C   0  0  2  0  0  0  0  0  0  0  0  0
  -26.3352  -30.1962   18.5912 C   0  0  0  0  0  0  0  0  0  0  0  0
  -27.8686  -15.3300   18.8202 N   0  0  0  0  0  0  0  0  0  0  0  0
  -25.6145  -20.3471   20.5310 N   0  0  0  0  0  0  0  0  0  0  0  0
  -28.6598  -16.4163   18.8106 N   0  0  0  0  0  0  0  0  0  0  0  0
  -24.7951  -28.4007   21.2873 N   0  0  0  0  0  0  0  0  0  0  0  0
  -27.4967  -19.4302   16.7701 N   0  0  0  0  0  0  0  0  0  0  0  0
  -30.3376  -17.5421   20.0468 N   0  0  0  0  0  0  0  0  0  0  0  0
  -29.4241  -13.9216   22.5872 N   0  0  0  0  0  0  0  0  0  0  0  0
  -21.3844  -29.2551   22.2536 N   0  0  0  0  0  0  0  0  0  0  0  0
  -27.9234  -29.2692   20.3296 N   0  0  0  0  0  0  0  0  0  0  0  0
  -28.2752  -21.1676   18.2180 N   0  0  0  0  0  0  0  0  0  0  0  0
  -30.5975  -27.2944   21.7500 N   0  3  0  0  0  0  0  0  0  0  0  0
  -30.6989  -15.8224   22.4445 O   0  0  0  0  0  0  0  0  0  0  0  0
  -22.5099  -28.8859   20.2488 O   0  0  0  0  0  0  0  0  0  0  0  0
  -25.6465  -30.5615   21.4934 O   0  0  0  0  0  0  0  0  0  0  0  0
  -28.4341  -27.0361   19.9697 O   0  0  0  0  0  0  0  0  0  0  0  0
  -28.1157  -21.4928   15.9276 O   0  0  0  0  0  0  0  0  0  0  0  0
  -25.7051   -9.9389   21.4286 O   0  0  0  0  0  0  0  0  0  0  0  0
  -23.5222  -22.3881   20.7576 O   0  0  0  0  0  0  0  0  0  1  0  0
  -20.2251   -9.6466   20.8920 F   0  0  0  0  0  0  0  0  0  0  0  0
  -24.0892   -9.4559   23.6191 F   0  0  0  0  0  0  0  0  0  0  0  0
  1  2  1  0  0  0  0
  1  5  2  0  0  0  0
  2  6  2  0  0  0  0
  3  8  2  0  0  0  0
  3 16  1  0  0  0  0
  4  9  1  0  0  0  0
  4 16  2  0  0  0  0
  5 18  1  0  0  0  0
  6 20  1  0  0  0  0
  7 10  2  0  0  0  0
  7 19  1  0  0  0  0
  8 23  1  0  0  0  0
  9 23  2  0  0  0  0
 10 24  1  0  0  0  0
 11 12  2  0  0  0  0
 11 25  1  0  0  0  0
 12 26  1  0  0  0  0
 13 21  1  0  0  0  0
 13 24  2  0  0  0  0
 14 22  1  0  0  0  0
 14 29  2  0  0  0  0
 15 26  2  0  0  0  0
 15 27  1  0  0  0  0
 16 28  1  0  0  0  0
 17 28  1  0  0  0  0
 17 31  2  0  0  0  0
 17 32  1  0  0  0  0
 18 20  2  0  0  0  0
 18 37  1  0  0  0  0
 19 21  2  0  0  0  0
 19 38  1  0  0  0  0
 20 46  1  0  0  0  0
 21 39  1  0  0  0  0
 22 30  2  0  0  0  0
 22 72  1  0  0  0  0
 23 79  1  0  0  0  0
 24 80  1  0  0  0  0
 25 27  2  0  0  0  0
 25 79  1  0  0  0  0
 26 81  1  0  0  0  0
 27 82  1  0  0  0  0
 28 63  2  0  0  0  0
 29 49  1  0  0  0  0
 29 64  1  0  0  0  0
 30 50  1  0  0  0  0
 30 64  1  0  0  0  0
 31 65  1  0  0  0  0
 31 68  1  0  0  0  0
 32 69  1  0  0  0  0
 32 74  2  0  0  0  0
 33 47  1  0  0  0  0
 33 70  1  0  0  0  0
 33 75  2  0  0  0  0
 34 60  1  0  0  0  0
 34 66  1  0  0  0  0
 34 76  2  0  0  0  0
 35 61  1  0  0  0  0
 35 71  1  0  0  0  0
 35 77  2  0  0  0  0
 36 67  1  0  0  0  0
 36 72  1  0  0  0  0
 36 78  2  0  0  0  0
 37 40  1  0  0  0  0
 38 47  1  0  0  0  0
 39 66  1  0  0  0  0
 40 42  1  0  0  0  0
 41 43  1  0  0  0  0
 41 44  1  0  0  0  0
 42 46  1  0  0  0  0
 43 48  1  0  0  0  0
 44 67  1  0  0  0  0
 45 48  1  0  0  0  0
 45 67  1  0  0  0  0
 46 70  1  0  0  0  0
 47 66  1  0  0  0  0
 48 65  1  0  0  0  0
 51 58  1  0  0  0  0
 52 61  1  0  0  0  0
 53 62  1  0  0  0  0
 54 62  1  0  0  0  0
 55 62  1  0  0  0  0
 56 73  1  0  0  0  0
 57 59  1  0  0  0  0
 57 64  1  0  0  0  0
 58 72  1  0  0  0  0
 59 80  1  0  0  0  0
 60 62  1  0  0  0  0
 60 71  1  0  0  0  0
 61 73  1  0  0  0  0
 63 65  1  0  0  0  0
M  CHG  1  73   1
M  ISO  4  36 100  59 101  72 100  80 101
M  END
> <Batch ID>
0019

> <Smiles>
CC[100N:0](c1cc(C)n(C[101CH2:1][101O:1]c2ccc3c(c2)CN(C(=O)C(NC(=O)C(C)NC)C(C)(C)C)C(C(=O)NC2CCCc4ccccc42)C3)c1C)[100C:0](=O)N1CCCC(n2nc(-c3ccc(Oc4ccc(F)cc4F)cc3)c(C(N)=O)c2N)C1

> <Shape>
0.238

> <Color>
0.088

> <Negative vol penalty>
0.000

$$$$

  -OEChem-04052316073D

 89 97  0     1  0  0  0  0  0999 V2000
  -16.7557  -29.2634   23.8652 C   0  0  0  0  0  0  0  0  0  0  0  0
  -17.2630  -28.8078   22.6526 C   0  0  0  0  0  0  0  0  0  0  0  0
  -26.2750  -12.9440   19.9780 C   0  0  0  0  0  0  0  0  0  0  0  0
  -26.7934  -13.4401   22.2850 C   0  0  0  0  0  0  0  0  0  0  0  0
  -17.4979  -30.1542   24.6395 C   0  0  0  0  0  0  0  0  0  0  0  0
  -18.5125  -29.2437   22.2130 C   0  0  0  0  0  0  0  0  0  0  0  0
  -24.2152  -27.0096   18.4975 C   0  0  0  0  0  0  0  0  0  0  0  0
  -25.8808  -11.6568   20.3433 C   0  0  0  0  0  0  0  0  0  0  0  0
  -26.3992  -12.1529   22.6504 C   0  0  0  0  0  0  0  0  0  0  0  0
  -25.0201  -27.3931   17.4257 C   0  0  0  0  0  0  0  0  0  0  0  0
  -24.3973   -8.3594   20.7195 C   0  0  0  0  0  0  0  0  0  0  0  0
  -23.2111   -7.8658   20.1766 C   0  0  0  0  0  0  0  0  0  0  0  0
  -26.2477  -28.8712   18.8843 C   0  0  0  0  0  0  0  0  0  0  0  0
  -29.5626  -23.3927   19.7732 C   0  0  0  0  0  0  0  0  0  0  0  0
  -21.9890   -9.6859   21.1920 C   0  0  0  0  0  0  0  0  0  0  0  0
  -26.7313  -13.8356   20.9488 C   0  0  0  0  0  0  0  0  0  0  0  0
  -26.3308  -16.3158   20.5064 C   0  0  0  0  0  0  0  0  0  0  0  0
  -18.7613  -30.5937   24.2137 C   0  0  0  0  0  0  0  0  0  0  0  0
  -24.4138  -27.5630   19.7706 C   0  0  0  0  0  0  0  0  0  0  0  0
  -19.2717  -30.1423   22.9816 C   0  0  0  0  0  0  0  0  0  0  0  0
  -25.4456  -28.4911   19.9712 C   0  0  0  0  0  0  0  0  0  0  0  0
  -30.4564  -22.3935   19.3880 C   0  0  0  0  0  0  0  0  0  0  0  0
  -31.4701  -23.9108   17.8045 C   0  0  0  0  0  0  0  0  0  0  0  0
  -30.5763  -24.9100   18.1897 C   0  0  0  0  0  0  0  0  0  0  0  0
  -25.9429  -11.2613   21.6795 C   0  0  0  0  0  0  0  0  0  0  0  0
  -26.0347  -28.3262   17.6184 C   0  0  0  0  0  0  0  0  0  0  0  0
  -24.3794   -9.5162   21.4988 C   0  0  0  0  0  0  0  0  0  0  0  0
  -22.0070   -8.5291   20.4128 C   0  0  0  0  0  0  0  0  0  0  0  0
  -23.1753  -10.1795   21.7350 C   0  0  0  0  0  0  0  0  0  0  0  0
  -29.6226  -24.6510   19.1740 C   0  0  0  0  0  0  0  0  0  0  0  0
  -31.4101  -22.6525   18.4036 C   0  0  0  0  0  0  0  0  0  0  0  0
  -27.1392  -15.1652   20.5720 C   0  0  0  0  0  0  0  0  0  0  0  0
  -27.1845  -17.3125   20.1011 C   0  0  0  0  0  0  0  0  0  0  0  0
  -24.9332  -16.4699   20.7869 C   0  0  0  0  0  0  0  0  0  0  0  0
  -22.6580  -29.3254   21.7492 C   0  0  0  0  0  0  0  0  0  0  0  0
  -25.1500  -28.8410   23.7684 C   0  0  0  0  0  0  0  0  0  0  0  0
  -28.4623  -28.1192   24.1616 C   0  0  0  0  0  0  0  0  0  0  0  0
  -32.2608  -19.7433   20.9007 C   0  0  0  0  0  0  0  0  0  0  0  0
  -19.5060  -31.5938   25.0623 C   0  0  0  0  0  0  0  0  0  0  0  0
  -23.5542  -27.1189   20.9222 C   0  0  0  0  0  0  0  0  0  0  0  0
  -25.7131  -29.0997   21.3227 C   0  0  0  0  0  0  0  0  0  0  0  0
  -20.9847  -31.7158   24.7034 C   0  0  0  0  0  0  0  0  0  0  0  0
  -31.9071  -17.1073   18.3262 C   0  0  0  0  0  0  0  0  0  0  0  0
  -21.1598  -31.8265   23.1922 C   0  0  0  0  0  0  0  0  0  0  0  0
  -30.6018  -16.4225   18.7278 C   0  0  0  0  0  0  0  0  0  0  0  0
  -32.6173  -17.7236   19.5276 C   0  0  0  0  0  0  0  0  0  0  0  0
  -30.4633  -17.9748   20.7157 C   0  0  0  0  0  0  0  0  0  0  0  0
  -20.6340  -30.5729   22.4826 C   0  0  1  0  0  0  0  0  0  0  0  0
  -23.5139  -28.1310   22.0629 C   0  0  1  0  0  0  0  0  0  0  0  0
  -29.6996  -17.3836   19.5213 C   0  0  2  0  0  0  0  0  0  0  0  0
  -32.4884  -24.2057   16.7460 C   0  0  0  0  0  0  0  0  0  0  0  0
  -30.2190  -27.8298   25.9301 C   0  0  0  0  0  0  0  0  0  0  0  0
  -30.8497  -20.8416   23.4230 C   0  0  0  0  0  0  0  0  0  0  0  0
  -32.6683  -22.3322   22.5319 C   0  0  0  0  0  0  0  0  0  0  0  0
  -25.2912  -31.8686   24.1201 C   0  0  0  0  0  0  0  0  0  0  0  0
  -27.5804  -31.5790   25.0918 C   0  0  0  0  0  0  0  0  0  0  0  0
  -25.6075  -30.5578   26.2264 C   0  0  0  0  0  0  0  0  0  0  0  0
  -28.9534  -25.3078   23.3778 C   0  0  0  0  0  0  0  0  0  0  0  0
  -30.3546  -21.0602   20.0571 C   0  0  0  0  0  0  0  0  0  0  0  0
  -30.6495  -26.2589   17.5370 C   0  0  0  0  0  0  0  0  0  0  0  0
  -28.4209  -27.9771   14.9404 C   0  0  0  0  0  0  0  0  0  0  0  0
  -29.5616  -27.8389   15.9374 C   0  0  0  0  0  0  0  0  0  0  0  0
  -27.0439  -27.7370   15.5471 C   0  0  0  0  0  0  0  0  0  1  0  0
  -26.4452  -29.5598   24.0598 C   0  0  1  0  0  0  0  0  0  0  0  0
  -29.1778  -27.1335   25.0676 C   0  0  2  0  0  0  0  0  0  0  0  0
  -31.3252  -21.6755   22.2400 C   0  0  0  0  0  0  0  0  0  0  0  0
  -26.2250  -30.8815   24.8485 C   0  0  0  0  0  0  0  0  0  0  0  0
  -28.4089  -15.4071   20.2351 N   0  0  0  0  0  0  0  0  0  0  0  0
  -28.4047  -16.7212   19.9539 N   0  0  0  0  0  0  0  0  0  0  0  0
  -24.8416  -28.6381   22.4158 N   0  0  0  0  0  0  0  0  0  0  0  0
  -31.7246  -18.5986   20.2884 N   0  0  0  0  0  0  0  0  0  0  0  0
  -27.0029  -18.6283   19.8597 N   0  0  0  0  0  0  0  0  0  0  0  0
  -24.2049  -15.3432   21.1921 N   0  0  0  0  0  0  0  0  0  0  0  0
  -21.5839  -29.4878   22.6033 N   0  0  0  0  0  0  0  0  0  0  0  0
  -27.3038  -28.5950   24.7383 N   0  0  0  0  0  0  0  0  0  0  0  0
  -31.4131  -20.8532   21.0352 N   0  0  0  0  0  0  0  0  0  0  0  0
  -29.8627  -26.0874   24.2567 N   0  3  0  0  0  0  0  0  0  0  0  0
  -29.5555  -26.4915   16.5539 N   0  3  0  0  0  0  0  0  0  0  0  0
  -24.3441  -17.5707   20.6655 O   0  0  0  0  0  0  0  0  0  0  0  0
  -22.9511  -30.0471   20.8031 O   0  0  0  0  0  0  0  0  0  0  0  0
  -24.4417  -28.4669   24.7064 O   0  0  0  0  0  0  0  0  0  0  0  0
  -28.8904  -28.4382   23.0546 O   0  0  0  0  0  0  0  0  0  0  0  0
  -33.4335  -19.7749   21.2954 O   0  0  0  0  0  0  0  0  0  0  0  0
  -25.5581  -10.0055   22.0364 O   0  0  0  0  0  0  0  0  0  0  0  0
  -26.8214  -28.7028   16.5738 O   0  0  0  0  0  0  0  0  0  1  0  0
  -20.8681   -8.0558   19.8901 F   0  0  0  0  0  0  0  0  0  0  0  0
  -23.1520  -11.2919   22.4818 F   0  0  0  0  0  0  0  0  0  0  0  0
  -28.4967  -25.8593   19.6778 Cl  0  0  0  0  0  0  0  0  0  0  0  0
  -32.5190  -21.4088   17.9289 Cl  0  0  0  0  0  0  0  0  0  0  0  0
  1  2  1  0  0  0  0
  1  5  2  0  0  0  0
  2  6  2  0  0  0  0
  3  8  2  0  0  0  0
  3 16  1  0  0  0  0
  4  9  1  0  0  0  0
  4 16  2  0  0  0  0
  5 18  1  0  0  0  0
  6 20  1  0  0  0  0
  7 10  2  0  0  0  0
  7 19  1  0  0  0  0
  8 25  1  0  0  0  0
  9 25  2  0  0  0  0
 10 26  1  0  0  0  0
 11 12  2  0  0  0  0
 11 27  1  0  0  0  0
 12 28  1  0  0  0  0
 13 21  1  0  0  0  0
 13 26  2  0  0  0  0
 14 22  1  0  0  0  0
 14 30  2  0  0  0  0
 15 28  2  0  0  0  0
 15 29  1  0  0  0  0
 16 32  1  0  0  0  0
 17 32  1  0  0  0  0
 17 33  2  0  0  0  0
 17 34  1  0  0  0  0
 18 20  2  0  0  0  0
 18 39  1  0  0  0  0
 19 21  2  0  0  0  0
 19 40  1  0  0  0  0
 20 48  1  0  0  0  0
 21 41  1  0  0  0  0
 22 31  2  0  0  0  0
 22 59  1  0  0  0  0
 23 24  2  0  0  0  0
 23 31  1  0  0  0  0
 23 51  1  0  0  0  0
 24 30  1  0  0  0  0
 24 60  1  0  0  0  0
 25 84  1  0  0  0  0
 26 85  1  0  0  0  0
 27 29  2  0  0  0  0
 27 84  1  0  0  0  0
 28 86  1  0  0  0  0
 29 87  1  0  0  0  0
 30 88  1  0  0  0  0
 31 89  1  0  0  0  0
 32 68  2  0  0  0  0
 33 69  1  0  0  0  0
 33 72  1  0  0  0  0
 34 73  1  0  0  0  0
 34 79  2  0  0  0  0
 35 49  1  0  0  0  0
 35 74  1  0  0  0  0
 35 80  2  0  0  0  0
 36 64  1  0  0  0  0
 36 70  1  0  0  0  0
 36 81  2  0  0  0  0
 37 65  1  0  0  0  0
 37 75  1  0  0  0  0
 37 82  2  0  0  0  0
 38 71  1  0  0  0  0
 38 76  1  0  0  0  0
 38 83  2  0  0  0  0
 39 42  1  0  0  0  0
 40 49  1  0  0  0  0
 41 70  1  0  0  0  0
 42 44  1  0  0  0  0
 43 45  1  0  0  0  0
 43 46  1  0  0  0  0
 44 48  1  0  0  0  0
 45 50  1  0  0  0  0
 46 71  1  0  0  0  0
 47 50  1  0  0  0  0
 47 71  1  0  0  0  0
 48 74  1  0  0  0  0
 49 70  1  0  0  0  0
 50 69  1  0  0  0  0
 52 65  1  0  0  0  0
 53 66  1  0  0  0  0
 54 66  1  0  0  0  0
 55 67  1  0  0  0  0
 56 67  1  0  0  0  0
 57 67  1  0  0  0  0
 58 77  1  0  0  0  0
 59 76  1  0  0  0  0
 60 78  1  0  0  0  0
 61 62  1  0  0  0  0
 61 63  1  0  0  0  0
 62 78  1  0  0  0  0
 63 85  1  0  0  0  0
 64 67  1  0  0  0  0
 64 75  1  0  0  0  0
 65 77  1  0  0  0  0
 66 76  1  0  0  0  0
 68 69  1  0  0  0  0
M  CHG  2  77   1  78   1
M  ISO  4  38 100  63 101  76 100  85 101
M  END
> <Batch ID>
0019

> <Smiles>
CNC(C)C(=O)NC(C(=O)N1Cc2cc([101O:1][101CH2:1]CCNCc3c(Cl)cc(C[100N:0](C(C)C)[100C:0](=O)N4CCCC(n5nc(-c6ccc(Oc7ccc(F)cc7F)cc6)c(C(N)=O)c5N)C4)c(Cl)c3C)ccc2CC1C(=O)NC1CCCc2ccccc21)C(C)(C)C

> <Shape>
0.272

> <Color>
0.075

> <Negative vol penalty>
0.000

$$$$

  -OEChem-04052316073D

 84 92  0     1  0  0  0  0  0999 V2000
  -20.0254  -10.2484   22.5789 C   0  0  0  0  0  0  0  0  0  0  0  0
  -20.8384  -11.1810   23.2150 C   0  0  0  0  0  0  0  0  0  0  0  0
  -26.2405  -28.7602   19.0481 C   0  0  0  0  0  0  0  0  0  0  0  0
  -26.7307  -28.8270   21.4129 C   0  0  0  0  0  0  0  0  0  0  0  0
  -20.5735   -9.3682   21.6467 C   0  0  0  0  0  0  0  0  0  0  0  0
  -22.2003  -11.2332   22.9201 C   0  0  0  0  0  0  0  0  0  0  0  0
  -23.8659  -15.9705   22.2653 C   0  0  0  0  0  0  0  0  0  0  0  0
  -25.3712  -29.8407   19.1978 C   0  0  0  0  0  0  0  0  0  0  0  0
  -25.8615  -29.9076   21.5626 C   0  0  0  0  0  0  0  0  0  0  0  0
  -24.0925  -16.7300   23.4123 C   0  0  0  0  0  0  0  0  0  0  0  0
  -25.9130  -33.2399   21.0023 C   0  0  0  0  0  0  0  0  0  0  0  0
  -26.3479  -34.3174   21.7739 C   0  0  0  0  0  0  0  0  0  0  0  0
  -26.4545  -16.2700   23.2430 C   0  0  0  0  0  0  0  0  0  0  0  0
  -27.1880  -17.9156   27.9450 C   0  0  0  0  0  0  0  0  0  0  0  0
  -24.4842  -33.9933   23.2768 C   0  0  0  0  0  0  0  0  0  0  0  0
  -26.9202  -28.2533   20.1557 C   0  0  0  0  0  0  0  0  0  0  0  0
  -29.1952  -27.1866   19.7152 C   0  0  0  0  0  0  0  0  0  0  0  0
  -21.9410   -9.4161   21.3332 C   0  0  0  0  0  0  0  0  0  0  0  0
  -24.9324  -15.3450   21.6037 C   0  0  0  0  0  0  0  0  0  0  0  0
  -22.7675  -10.3520   21.9839 C   0  0  0  0  0  0  0  0  0  0  0  0
  -26.2391  -15.5052   22.0864 C   0  0  0  0  0  0  0  0  0  0  0  0
  -26.9967  -18.5511   26.7232 C   0  0  0  0  0  0  0  0  0  0  0  0
  -26.8397  -19.9320   26.6812 C   0  0  0  0  0  0  0  0  0  0  0  0
  -25.1817  -30.4144   20.4550 C   0  0  0  0  0  0  0  0  0  0  0  0
  -25.3866  -16.8775   23.9030 C   0  0  0  0  0  0  0  0  0  0  0  0
  -24.7637  -32.5390   21.3679 C   0  0  0  0  0  0  0  0  0  0  0  0
  -25.6335  -34.6942   22.9112 C   0  0  0  0  0  0  0  0  0  0  0  0
  -24.0493  -32.9158   22.5052 C   0  0  0  0  0  0  0  0  0  0  0  0
  -27.8179  -27.1368   20.0019 C   0  0  0  0  0  0  0  0  0  0  0  0
  -27.2142  -18.6999   29.0869 C   0  0  0  0  0  0  0  0  0  0  0  0
  -26.8813  -20.6261   27.8797 C   0  0  0  0  0  0  0  0  0  0  0  0
  -29.5849  -25.8702   19.6725 C   0  0  0  0  0  0  0  0  0  0  0  0
  -30.0464  -28.3213   19.5062 C   0  0  0  0  0  0  0  0  0  0  0  0
  -25.7113  -12.3328   20.9527 C   0  0  0  0  0  0  0  0  0  0  0  0
  -28.1003  -13.7265   19.2579 C   0  0  0  0  0  0  0  0  0  0  0  0
  -30.1078  -16.4442   18.7774 C   0  0  0  0  0  0  0  0  0  0  0  0
  -27.3894  -20.8853   22.1587 C   0  0  0  0  0  0  0  0  0  0  0  0
  -22.4967   -8.4129   20.3537 C   0  0  0  0  0  0  0  0  0  0  0  0
  -24.6746  -14.5511   20.3524 C   0  0  0  0  0  0  0  0  0  0  0  0
  -27.4210  -14.8709   21.4013 C   0  0  0  0  0  0  0  0  0  0  0  0
  -23.8789   -8.7825   19.8214 C   0  0  0  0  0  0  0  0  0  0  0  0
  -27.9073  -21.4986   18.6900 C   0  0  0  0  0  0  0  0  0  0  0  0
  -24.7937   -9.2119   20.9640 C   0  0  0  0  0  0  0  0  0  0  0  0
  -28.0674  -23.0176   18.6070 C   0  0  0  0  0  0  0  0  0  0  0  0
  -26.8782  -21.0963   19.7441 C   0  0  0  0  0  0  0  0  0  0  0  0
  -27.2756  -23.1767   21.0042 C   0  0  0  0  0  0  0  0  0  0  0  0
  -24.2447  -10.4561   21.6726 C   0  0  1  0  0  0  0  0  0  0  0  0
  -25.7721  -13.5346   20.0530 C   0  0  1  0  0  0  0  0  0  0  0  0
  -28.3437  -23.6289   19.9938 C   0  0  2  0  0  0  0  0  0  0  0  0
  -26.1019  -17.6458   31.0714 C   0  0  0  0  0  0  0  0  0  0  0  0
  -27.1072  -22.7178   29.2435 C   0  0  0  0  0  0  0  0  0  0  0  0
  -31.8266  -17.9038   17.6762 C   0  0  0  0  0  0  0  0  0  0  0  0
  -30.0560  -11.9758   20.8137 C   0  0  0  0  0  0  0  0  0  0  0  0
  -31.9037  -13.4837   20.0518 C   0  0  0  0  0  0  0  0  0  0  0  0
  -30.5705  -12.2032   18.3769 C   0  0  0  0  0  0  0  0  0  0  0  0
  -28.0842  -17.7006   17.0209 C   0  0  0  0  0  0  0  0  0  0  0  0
  -26.6354  -20.6412   25.3847 C   0  0  0  0  0  0  0  0  0  0  0  0
  -26.9611  -17.7268   25.4699 C   0  0  0  0  0  0  0  0  0  1  0  0
  -27.4187  -18.0522   30.4156 C   0  0  0  0  0  0  0  0  0  0  0  0
  -26.7203  -22.1111   27.8983 C   0  0  0  0  0  0  0  0  0  0  0  0
  -27.9267  -20.8354   24.5811 C   0  0  0  0  0  0  0  0  0  0  0  0
  -29.5111  -14.1682   19.5637 C   0  0  1  0  0  0  0  0  0  0  0  0
  -30.4817  -17.2109   17.5217 C   0  0  2  0  0  0  0  0  0  0  0  0
  -30.4880  -12.9682   19.7158 C   0  0  0  0  0  0  0  0  0  0  0  0
  -27.3632  -25.8876   20.1320 N   0  0  0  0  0  0  0  0  0  0  0  0
  -27.0652  -20.0436   29.0857 N   0  0  0  0  0  0  0  0  0  0  0  0
  -28.4610  -25.1404   19.9260 N   0  0  0  0  0  0  0  0  0  0  0  0
  -27.1167  -14.0992   20.1850 N   0  0  0  0  0  0  0  0  0  0  0  0
  -27.1987  -21.7077   21.0361 N   0  0  0  0  0  0  0  0  0  0  0  0
  -30.7759  -25.2774   19.4430 N   0  0  0  0  0  0  0  0  0  0  0  0
  -29.4835  -29.6024   19.5859 N   0  0  0  0  0  0  0  0  0  0  0  0
  -24.5152  -11.6435   20.8907 N   0  0  0  0  0  0  0  0  0  0  0  0
  -29.8808  -15.1101   18.5127 N   0  0  0  0  0  0  0  0  0  0  0  0
  -27.6962  -21.5450   23.3426 N   0  0  0  0  0  0  0  0  0  0  0  0
  -29.4519  -18.2451   17.2203 N   0  3  0  0  0  0  0  0  0  0  0  0
  -31.2664  -28.2023   19.2399 O   0  0  0  0  0  0  0  0  0  0  0  0
  -26.6784  -12.0507   21.6504 O   0  0  0  0  0  0  0  0  0  0  0  0
  -27.8780  -13.0808   18.2306 O   0  0  0  0  0  0  0  0  0  0  0  0
  -30.0289  -16.9749   19.8831 O   0  0  0  0  0  0  0  0  0  0  0  0
  -27.2987  -19.6540   22.1085 O   0  0  0  0  0  0  0  0  0  0  0  0
  -24.3337  -31.4690   20.6013 O   0  0  0  0  0  0  0  0  0  0  0  0
  -25.6104  -17.6178   25.0227 O   0  0  0  0  0  0  0  0  0  1  0  0
  -26.0520  -35.7280   23.6529 F   0  0  0  0  0  0  0  0  0  0  0  0
  -22.9451  -32.2456   22.8621 F   0  0  0  0  0  0  0  0  0  0  0  0
  1  2  1  0  0  0  0
  1  5  2  0  0  0  0
  2  6  2  0  0  0  0
  3  8  2  0  0  0  0
  3 16  1  0  0  0  0
  4  9  1  0  0  0  0
  4 16  2  0  0  0  0
  5 18  1  0  0  0  0
  6 20  1  0  0  0  0
  7 10  2  0  0  0  0
  7 19  1  0  0  0  0
  8 24  1  0  0  0  0
  9 24  2  0  0  0  0
 10 25  1  0  0  0  0
 11 12  2  0  0  0  0
 11 26  1  0  0  0  0
 12 27  1  0  0  0  0
 13 21  1  0  0  0  0
 13 25  2  0  0  0  0
 14 22  2  0  0  0  0
 14 30  1  0  0  0  0
 15 27  2  0  0  0  0
 15 28  1  0  0  0  0
 16 29  1  0  0  0  0
 17 29  1  0  0  0  0
 17 32  2  0  0  0  0
 17 33  1  0  0  0  0
 18 20  2  0  0  0  0
 18 38  1  0  0  0  0
 19 21  2  0  0  0  0
 19 39  1  0  0  0  0
 20 47  1  0  0  0  0
 21 40  1  0  0  0  0
 22 23  1  0  0  0  0
 22 58  1  0  0  0  0
 23 31  2  0  0  0  0
 23 57  1  0  0  0  0
 24 81  1  0  0  0  0
 25 82  1  0  0  0  0
 26 28  2  0  0  0  0
 26 81  1  0  0  0  0
 27 83  1  0  0  0  0
 28 84  1  0  0  0  0
 29 65  2  0  0  0  0
 30 59  1  0  0  0  0
 30 66  2  0  0  0  0
 31 60  1  0  0  0  0
 31 66  1  0  0  0  0
 32 67  1  0  0  0  0
 32 70  1  0  0  0  0
 33 71  1  0  0  0  0
 33 76  2  0  0  0  0
 34 48  1  0  0  0  0
 34 72  1  0  0  0  0
 34 77  2  0  0  0  0
 35 62  1  0  0  0  0
 35 68  1  0  0  0  0
 35 78  2  0  0  0  0
 36 63  1  0  0  0  0
 36 73  1  0  0  0  0
 36 79  2  0  0  0  0
 37 69  1  0  0  0  0
 37 74  1  0  0  0  0
 37 80  2  0  0  0  0
 38 41  1  0  0  0  0
 39 48  1  0  0  0  0
 40 68  1  0  0  0  0
 41 43  1  0  0  0  0
 42 44  1  0  0  0  0
 42 45  1  0  0  0  0
 43 47  1  0  0  0  0
 44 49  1  0  0  0  0
 45 69  1  0  0  0  0
 46 49  1  0  0  0  0
 46 69  1  0  0  0  0
 47 72  1  0  0  0  0
 48 68  1  0  0  0  0
 49 67  1  0  0  0  0
 50 59  1  0  0  0  0
 51 60  1  0  0  0  0
 52 63  1  0  0  0  0
 53 64  1  0  0  0  0
 54 64  1  0  0  0  0
 55 64  1  0  0  0  0
 56 75  1  0  0  0  0
 57 61  1  0  0  0  0
 58 82  1  0  0  0  0
 61 74  1  0  0  0  0
 62 64  1  0  0  0  0
 62 73  1  0  0  0  0
 63 75  1  0  0  0  0
 65 67  1  0  0  0  0
M  CHG  1  75   1
M  ISO  4  37 100  58 101  74 100  82 101
M  END
> <Batch ID>
0019

> <Smiles>
CCc1cc([101CH2:1][101O:1]c2ccc3c(c2)CN(C(=O)C(NC(=O)C(C)NC)C(C)(C)C)C(C(=O)NC2CCCc4ccccc42)C3)c(CC[100NH:0][100C:0](=O)N2CCCC(n3nc(-c4ccc(Oc5ccc(F)cc5F)cc4)c(C(N)=O)c3N)C2)c(CC)n1

> <Shape>
0.239

> <Color>
0.058

> <Negative vol penalty>
0.000

$$$$

  -OEChem-04052316073D

 82 90  0     1  0  0  0  0  0999 V2000
  -27.1657  -33.9041   26.9571 C   0  0  0  0  0  0  0  0  0  0  0  0
  -27.6679  -32.9958   26.0307 C   0  0  0  0  0  0  0  0  0  0  0  0
  -26.3240  -12.9200   21.6166 C   0  0  0  0  0  0  0  0  0  0  0  0
  -25.9850  -13.7885   19.3877 C   0  0  0  0  0  0  0  0  0  0  0  0
  -25.8737  -33.7459   27.4568 C   0  0  0  0  0  0  0  0  0  0  0  0
  -26.8789  -31.9281   25.6044 C   0  0  0  0  0  0  0  0  0  0  0  0
  -26.7983  -29.4082   20.0232 C   0  0  0  0  0  0  0  0  0  0  0  0
  -25.0980  -12.2587   21.5454 C   0  0  0  0  0  0  0  0  0  0  0  0
  -24.7590  -13.1271   19.3165 C   0  0  0  0  0  0  0  0  0  0  0  0
  -27.4085  -28.2692   19.4994 C   0  0  0  0  0  0  0  0  0  0  0  0
  -23.8676   -9.4365   20.1474 C   0  0  0  0  0  0  0  0  0  0  0  0
  -23.8189   -8.1127   20.5840 C   0  0  0  0  0  0  0  0  0  0  0  0
  -25.3889  -27.0115   19.8977 C   0  0  0  0  0  0  0  0  0  0  0  0
  -22.1754   -8.7216   22.2469 C   0  0  0  0  0  0  0  0  0  0  0  0
  -26.7675  -13.6850   20.5378 C   0  0  0  0  0  0  0  0  0  0  0  0
  -29.2925  -13.8706   20.2252 C   0  0  0  0  0  0  0  0  0  0  0  0
  -25.0650  -32.6811   27.0292 C   0  0  0  0  0  0  0  0  0  0  0  0
  -25.4803  -29.3545   20.4990 C   0  0  0  0  0  0  0  0  0  0  0  0
  -25.5754  -31.7547   26.0999 C   0  0  0  0  0  0  0  0  0  0  0  0
  -24.7634  -28.1518   20.4247 C   0  0  0  0  0  0  0  0  0  0  0  0
  -27.3514  -23.6489   18.3324 C   0  0  0  0  0  0  0  0  0  0  0  0
  -28.3823  -22.5619   16.4371 C   0  0  0  0  0  0  0  0  0  0  0  0
  -28.6443  -21.6331   18.6520 C   0  0  0  0  0  0  0  0  0  0  0  0
  -24.3155  -12.3622   20.3954 C   0  0  0  0  0  0  0  0  0  0  0  0
  -26.7047  -27.0700   19.4392 C   0  0  0  0  0  0  0  0  0  0  0  0
  -23.0703  -10.4030   20.7606 C   0  0  0  0  0  0  0  0  0  0  0  0
  -22.9728   -7.7552   21.6337 C   0  0  0  0  0  0  0  0  0  0  0  0
  -22.2242  -10.0455   21.8103 C   0  0  0  0  0  0  0  0  0  0  0  0
  -27.6077  -23.5961   16.9624 C   0  0  0  0  0  0  0  0  0  0  0  0
  -27.8698  -22.6674   19.1773 C   0  0  0  0  0  0  0  0  0  0  0  0
  -28.9006  -21.5803   17.2819 C   0  0  0  0  0  0  0  0  0  0  0  0
  -28.0336  -14.3689   20.6110 C   0  0  0  0  0  0  0  0  0  0  0  0
  -30.1646  -14.8976   20.4918 C   0  0  0  0  0  0  0  0  0  0  0  0
  -29.6422  -12.5936   19.6750 C   0  0  0  0  0  0  0  0  0  0  0  0
  -24.0933  -29.8233   23.3204 C   0  0  0  0  0  0  0  0  0  0  0  0
  -21.3660  -29.4540   21.6035 C   0  0  0  0  0  0  0  0  0  0  0  0
  -19.8395  -28.1854   18.8273 C   0  0  0  0  0  0  0  0  0  0  0  0
  -29.4974  -20.8229   20.8796 C   0  0  0  0  0  0  0  0  0  0  0  0
  -23.6920  -32.5243   27.6333 C   0  0  0  0  0  0  0  0  0  0  0  0
  -24.8275  -30.5984   21.0365 C   0  0  0  0  0  0  0  0  0  0  0  0
  -23.3394  -28.0465   20.9036 C   0  0  0  0  0  0  0  0  0  0  0  0
  -22.7854  -31.5797   26.8484 C   0  0  0  0  0  0  0  0  0  0  0  0
  -30.7507  -18.6512   23.4075 C   0  0  0  0  0  0  0  0  0  0  0  0
  -23.5321  -30.2989   26.4891 C   0  0  0  0  0  0  0  0  0  0  0  0
  -30.3160  -17.2607   22.9390 C   0  0  0  0  0  0  0  0  0  0  0  0
  -29.6963  -19.7110   23.0929 C   0  0  0  0  0  0  0  0  0  0  0  0
  -28.8243  -18.3644   21.2233 C   0  0  0  0  0  0  0  0  0  0  0  0
  -24.7412  -30.5977   25.5945 C   0  0  1  0  0  0  0  0  0  0  0  0
  -23.6543  -30.3036   21.9660 C   0  0  1  0  0  0  0  0  0  0  0  0
  -29.8822  -17.2743   21.4600 C   0  0  2  0  0  0  0  0  0  0  0  0
  -28.6327  -22.5430   14.9631 C   0  0  0  0  0  0  0  0  0  0  0  0
  -17.5948  -28.0131   17.7186 C   0  0  0  0  0  0  0  0  0  0  0  0
  -20.5442  -27.3041   23.6067 C   0  0  0  0  0  0  0  0  0  0  0  0
  -18.8207  -26.5306   21.9638 C   0  0  0  0  0  0  0  0  0  0  0  0
  -18.6970  -28.8373   22.9053 C   0  0  0  0  0  0  0  0  0  0  0  0
  -20.7796  -29.6516   16.4345 C   0  0  0  0  0  0  0  0  0  0  0  0
  -26.5186  -24.7618   18.8975 C   0  0  0  0  0  0  0  0  0  1  0  0
  -20.4959  -28.2822   21.2177 C   0  0  1  0  0  0  0  0  0  0  0  0
  -18.8841  -28.8122   17.8279 C   0  0  2  0  0  0  0  0  0  0  0  0
  -19.6669  -27.7397   22.4161 C   0  0  0  0  0  0  0  0  0  0  0  0
  -28.0962  -15.6154   21.0866 N   0  0  0  0  0  0  0  0  0  0  0  0
  -29.4048  -15.9090   21.0015 N   0  0  0  0  0  0  0  0  0  0  0  0
  -22.7470  -29.2887   21.4265 N   0  0  0  0  0  0  0  0  0  0  0  0
  -29.3376  -19.6677   21.6737 N   0  0  0  0  0  0  0  0  0  0  0  0
  -31.4997  -15.0251   20.3376 N   0  0  0  0  0  0  0  0  0  0  0  0
  -28.6229  -11.6548   19.4650 N   0  0  0  0  0  0  0  0  0  0  0  0
  -29.1548  -20.6528   19.5386 N   0  0  0  0  0  0  0  0  0  0  0  0
  -24.3150  -30.8375   24.2324 N   0  0  0  0  0  0  0  0  0  0  0  0
  -19.6897  -28.7274   20.0863 N   0  0  0  0  0  0  0  0  0  0  0  0
  -19.5138  -28.8751   16.4786 N   0  3  0  0  0  0  0  0  0  0  0  0
  -30.8258  -12.2880   19.3936 O   0  0  0  0  0  0  0  0  0  0  0  0
  -24.2200  -28.6214   23.5234 O   0  0  0  0  0  0  0  0  0  0  0  0
  -20.8391  -30.4809   22.0389 O   0  0  0  0  0  0  0  0  0  0  0  0
  -20.6362  -27.3006   18.5225 O   0  0  0  0  0  0  0  0  0  0  0  0
  -29.9338  -21.8774   21.3484 O   0  0  0  0  0  0  0  0  0  0  0  0
  -23.1192  -11.7167   20.3255 O   0  0  0  0  0  0  0  0  0  0  0  0
  -27.2981  -25.9567   18.9290 O   0  0  0  0  0  0  0  0  0  1  0  0
  -22.9249   -6.4836   22.0518 F   0  0  0  0  0  0  0  0  0  0  0  0
  -21.4550  -10.9693   22.4025 F   0  0  0  0  0  0  0  0  0  0  0  0
  -27.1087  -24.5412   16.1516 F   0  0  0  0  0  0  0  0  0  0  0  0
  -27.6207  -22.7216   20.4947 F   0  0  0  0  0  0  0  0  0  0  0  0
  -29.8630  -20.2969   16.6235 Cl  0  0  0  0  0  0  0  0  0  0  0  0
  1  2  1  0  0  0  0
  1  5  2  0  0  0  0
  2  6  2  0  0  0  0
  3  8  2  0  0  0  0
  3 15  1  0  0  0  0
  4  9  1  0  0  0  0
  4 15  2  0  0  0  0
  5 17  1  0  0  0  0
  6 19  1  0  0  0  0
  7 10  2  0  0  0  0
  7 18  1  0  0  0  0
  8 24  1  0  0  0  0
  9 24  2  0  0  0  0
 10 25  1  0  0  0  0
 11 12  2  0  0  0  0
 11 26  1  0  0  0  0
 12 27  1  0  0  0  0
 13 20  1  0  0  0  0
 13 25  2  0  0  0  0
 14 27  2  0  0  0  0
 14 28  1  0  0  0  0
 15 32  1  0  0  0  0
 16 32  1  0  0  0  0
 16 33  2  0  0  0  0
 16 34  1  0  0  0  0
 17 19  2  0  0  0  0
 17 39  1  0  0  0  0
 18 20  2  0  0  0  0
 18 40  1  0  0  0  0
 19 48  1  0  0  0  0
 20 41  1  0  0  0  0
 21 29  1  0  0  0  0
 21 30  2  0  0  0  0
 21 57  1  0  0  0  0
 22 29  2  0  0  0  0
 22 31  1  0  0  0  0
 22 51  1  0  0  0  0
 23 30  1  0  0  0  0
 23 31  2  0  0  0  0
 23 67  1  0  0  0  0
 24 76  1  0  0  0  0
 25 77  1  0  0  0  0
 26 28  2  0  0  0  0
 26 76  1  0  0  0  0
 27 78  1  0  0  0  0
 28 79  1  0  0  0  0
 29 80  1  0  0  0  0
 30 81  1  0  0  0  0
 31 82  1  0  0  0  0
 32 61  2  0  0  0  0
 33 62  1  0  0  0  0
 33 65  1  0  0  0  0
 34 66  1  0  0  0  0
 34 71  2  0  0  0  0
 35 49  1  0  0  0  0
 35 68  1  0  0  0  0
 35 72  2  0  0  0  0
 36 58  1  0  0  0  0
 36 63  1  0  0  0  0
 36 73  2  0  0  0  0
 37 59  1  0  0  0  0
 37 69  1  0  0  0  0
 37 74  2  0  0  0  0
 38 64  1  0  0  0  0
 38 67  1  0  0  0  0
 38 75  2  0  0  0  0
 39 42  1  0  0  0  0
 40 49  1  0  0  0  0
 41 63  1  0  0  0  0
 42 44  1  0  0  0  0
 43 45  1  0  0  0  0
 43 46  1  0  0  0  0
 44 48  1  0  0  0  0
 45 50  1  0  0  0  0
 46 64  1  0  0  0  0
 47 50  1  0  0  0  0
 47 64  1  0  0  0  0
 48 68  1  0  0  0  0
 49 63  1  0  0  0  0
 50 62  1  0  0  0  0
 52 59  1  0  0  0  0
 53 60  1  0  0  0  0
 54 60  1  0  0  0  0
 55 60  1  0  0  0  0
 56 70  1  0  0  0  0
 57 77  1  0  0  0  0
 58 60  1  0  0  0  0
 58 69  1  0  0  0  0
 59 70  1  0  0  0  0
 61 62  1  0  0  0  0
M  CHG  1  70   1
M  ISO  4  38 100  57 101  67 100  77 101
M  END
> <Batch ID>
0019

> <Smiles>
CNC(C)C(=O)NC(C(=O)N1Cc2cc([101O:1][101CH2:1]c3c(F)c(C)c(Cl)c([100NH:0][100C:0](=O)N4CCCC(n5nc(-c6ccc(Oc7ccc(F)cc7F)cc6)c(C(N)=O)c5N)C4)c3F)ccc2CC1C(=O)NC1CCCc2ccccc21)C(C)(C)C

> <Shape>
0.325

> <Color>
0.088

> <Negative vol penalty>
0.000

$$$$

  -OEChem-04052316073D

 82 90  0     1  0  0  0  0  0999 V2000
  -25.4407   -7.7053   32.6949 C   0  0  0  0  0  0  0  0  0  0  0  0
  -26.4451   -8.5952   32.3278 C   0  0  0  0  0  0  0  0  0  0  0  0
  -23.2883   -9.8004   19.9137 C   0  0  0  0  0  0  0  0  0  0  0  0
  -23.7427   -9.9403   22.2824 C   0  0  0  0  0  0  0  0  0  0  0  0
  -24.2811   -7.6091   31.9268 C   0  0  0  0  0  0  0  0  0  0  0  0
  -26.2908   -9.3887   31.1916 C   0  0  0  0  0  0  0  0  0  0  0  0
  -28.3140  -15.1144   30.3979 C   0  0  0  0  0  0  0  0  0  0  0  0
  -22.5629   -8.6274   20.1221 C   0  0  0  0  0  0  0  0  0  0  0  0
  -23.0173   -8.7673   22.4909 C   0  0  0  0  0  0  0  0  0  0  0  0
  -29.4422  -15.6309   29.7623 C   0  0  0  0  0  0  0  0  0  0  0  0
  -19.7711   -7.8544   22.7130 C   0  0  0  0  0  0  0  0  0  0  0  0
  -18.8704   -7.8318   23.7778 C   0  0  0  0  0  0  0  0  0  0  0  0
  -28.1385  -16.0088   27.7682 C   0  0  0  0  0  0  0  0  0  0  0  0
  -31.5916  -15.8352   24.7961 C   0  0  0  0  0  0  0  0  0  0  0  0
  -20.0788   -5.9849   24.7607 C   0  0  0  0  0  0  0  0  0  0  0  0
  -23.8783  -10.4568   20.9938 C   0  0  0  0  0  0  0  0  0  0  0  0
  -24.1359  -12.9870   20.7958 C   0  0  0  0  0  0  0  0  0  0  0  0
  -24.1084   -8.4089   30.7861 C   0  0  0  0  0  0  0  0  0  0  0  0
  -27.0900  -15.0310   29.7186 C   0  0  0  0  0  0  0  0  0  0  0  0
  -25.1284   -9.3023   30.4067 C   0  0  0  0  0  0  0  0  0  0  0  0
  -26.9955  -15.4933   28.3982 C   0  0  0  0  0  0  0  0  0  0  0  0
  -32.1584  -15.2030   25.9027 C   0  0  0  0  0  0  0  0  0  0  0  0
  -31.1037  -15.0755   23.7328 C   0  0  0  0  0  0  0  0  0  0  0  0
  -32.2376  -13.8110   25.9460 C   0  0  0  0  0  0  0  0  0  0  0  0
  -31.7498  -13.0513   24.8826 C   0  0  0  0  0  0  0  0  0  0  0  0
  -31.1829  -13.6836   23.7761 C   0  0  0  0  0  0  0  0  0  0  0  0
  -22.4274   -8.1108   21.4107 C   0  0  0  0  0  0  0  0  0  0  0  0
  -29.3553  -16.0755   28.4463 C   0  0  0  0  0  0  0  0  0  0  0  0
  -20.8256   -6.9422   22.6720 C   0  0  0  0  0  0  0  0  0  0  0  0
  -19.0243   -6.8971   24.8017 C   0  0  0  0  0  0  0  0  0  0  0  0
  -20.9794   -6.0074   23.6958 C   0  0  0  0  0  0  0  0  0  0  0  0
  -24.6282  -11.6683   20.7791 C   0  0  0  0  0  0  0  0  0  0  0  0
  -25.2366  -13.7676   20.5394 C   0  0  0  0  0  0  0  0  0  0  0  0
  -22.8030  -13.4638   21.0229 C   0  0  0  0  0  0  0  0  0  0  0  0
  -25.1591  -12.6571   28.8585 C   0  0  0  0  0  0  0  0  0  0  0  0
  -23.2207  -15.0884   27.9345 C   0  0  0  0  0  0  0  0  0  0  0  0
  -22.9226  -18.3439   26.9548 C   0  0  0  0  0  0  0  0  0  0  0  0
  -31.0987  -12.9563   21.3656 C   0  0  0  0  0  0  0  0  0  0  0  0
  -22.8581   -8.2358   29.9606 C   0  0  0  0  0  0  0  0  0  0  0  0
  -25.8758  -14.4960   30.4271 C   0  0  0  0  0  0  0  0  0  0  0  0
  -25.7000  -15.4443   27.6316 C   0  0  0  0  0  0  0  0  0  0  0  0
  -22.6105   -9.3813   28.9825 C   0  0  0  0  0  0  0  0  0  0  0  0
  -29.4600  -13.6609   18.2842 C   0  0  0  0  0  0  0  0  0  0  0  0
  -23.8917   -9.7276   28.2307 C   0  0  0  0  0  0  0  0  0  0  0  0
  -27.9893  -13.3557   18.5776 C   0  0  0  0  0  0  0  0  0  0  0  0
  -30.3948  -12.6860   18.9978 C   0  0  0  0  0  0  0  0  0  0  0  0
  -28.7046  -12.2563   20.7378 C   0  0  0  0  0  0  0  0  0  0  0  0
  -24.9873  -10.1978   29.1950 C   0  0  1  0  0  0  0  0  0  0  0  0
  -24.8039  -13.9825   29.4707 C   0  0  1  0  0  0  0  0  0  0  0  0
  -27.7267  -13.2520   20.0928 C   0  0  2  0  0  0  0  0  0  0  0  0
  -30.5009  -15.7819   22.5618 C   0  0  0  0  0  0  0  0  0  0  0  0
  -32.8462  -13.1361   27.1343 C   0  0  0  0  0  0  0  0  0  0  0  0
  -31.8374  -11.5578   24.9340 C   0  0  0  0  0  0  0  0  0  0  0  0
  -21.2155  -20.0348   26.2309 C   0  0  0  0  0  0  0  0  0  0  0  0
  -23.0764  -13.7640   25.1895 C   0  0  0  0  0  0  0  0  0  0  0  0
  -22.1865  -15.9177   24.2743 C   0  0  0  0  0  0  0  0  0  0  0  0
  -20.9035  -14.6818   26.0204 C   0  0  0  0  0  0  0  0  0  0  0  0
  -23.5389  -20.1172   29.2428 C   0  0  0  0  0  0  0  0  0  0  0  0
  -32.6772  -16.0484   27.0404 C   0  0  0  0  0  0  0  0  0  0  0  0
  -31.7237  -16.0677   28.2301 C   0  0  0  0  0  0  0  0  0  1  0  0
  -23.0331  -15.8826   26.6645 C   0  0  1  0  0  0  0  0  0  0  0  0
  -21.9848  -19.4494   27.4050 C   0  0  2  0  0  0  0  0  0  0  0  0
  -22.3249  -15.0608   25.5507 C   0  0  0  0  0  0  0  0  0  0  0  0
  -25.9394  -11.6104   20.5315 N   0  0  0  0  0  0  0  0  0  0  0  0
  -26.2805  -12.9026   20.3901 N   0  0  0  0  0  0  0  0  0  0  0  0
  -24.5424  -14.9070   28.3657 N   0  0  0  0  0  0  0  0  0  0  0  0
  -30.0903  -12.6434   20.4297 N   0  0  0  0  0  0  0  0  0  0  0  0
  -25.4036  -15.1027   20.4292 N   0  0  0  0  0  0  0  0  0  0  0  0
  -21.7913  -12.5263   21.2716 N   0  0  0  0  0  0  0  0  0  0  0  0
  -30.6835  -12.9140   22.6962 N   0  0  0  0  0  0  0  0  0  0  0  0
  -24.7497  -11.5663   29.6015 N   0  0  0  0  0  0  0  0  0  0  0  0
  -22.3296  -17.1024   27.0459 N   0  0  0  0  0  0  0  0  0  0  0  0
  -22.7533  -20.5470   28.0574 N   0  3  0  0  0  0  0  0  0  0  0  0
  -22.5144  -14.6841   20.9895 O   0  0  0  0  0  0  0  0  0  0  0  0
  -25.7588  -12.6263   27.7903 O   0  0  0  0  0  0  0  0  0  0  0  0
  -22.2305  -14.6514   28.5263 O   0  0  0  0  0  0  0  0  0  0  0  0
  -24.0656  -18.5604   26.5583 O   0  0  0  0  0  0  0  0  0  0  0  0
  -32.2388  -13.2673   21.0115 O   0  0  0  0  0  0  0  0  0  0  0  0
  -21.7194   -6.9664   21.6145 O   0  0  0  0  0  0  0  0  0  0  0  0
  -30.4552  -16.5795   27.8233 O   0  0  0  0  0  0  0  0  0  1  0  0
  -18.1602   -6.8765   25.8250 F   0  0  0  0  0  0  0  0  0  0  0  0
  -21.9912   -5.1294   23.6625 F   0  0  0  0  0  0  0  0  0  0  0  0
  1  2  1  0  0  0  0
  1  5  2  0  0  0  0
  2  6  2  0  0  0  0
  3  8  2  0  0  0  0
  3 16  1  0  0  0  0
  4  9  1  0  0  0  0
  4 16  2  0  0  0  0
  5 18  1  0  0  0  0
  6 20  1  0  0  0  0
  7 10  2  0  0  0  0
  7 19  1  0  0  0  0
  8 27  1  0  0  0  0
  9 27  2  0  0  0  0
 10 28  1  0  0  0  0
 11 12  2  0  0  0  0
 11 29  1  0  0  0  0
 12 30  1  0  0  0  0
 13 21  1  0  0  0  0
 13 28  2  0  0  0  0
 14 22  1  0  0  0  0
 14 23  2  0  0  0  0
 15 30  2  0  0  0  0
 15 31  1  0  0  0  0
 16 32  1  0  0  0  0
 17 32  1  0  0  0  0
 17 33  2  0  0  0  0
 17 34  1  0  0  0  0
 18 20  2  0  0  0  0
 18 39  1  0  0  0  0
 19 21  2  0  0  0  0
 19 40  1  0  0  0  0
 20 48  1  0  0  0  0
 21 41  1  0  0  0  0
 22 24  2  0  0  0  0
 22 59  1  0  0  0  0
 23 26  1  0  0  0  0
 23 51  1  0  0  0  0
 24 25  1  0  0  0  0
 24 52  1  0  0  0  0
 25 26  2  0  0  0  0
 25 53  1  0  0  0  0
 26 70  1  0  0  0  0
 27 79  1  0  0  0  0
 28 80  1  0  0  0  0
 29 31  2  0  0  0  0
 29 79  1  0  0  0  0
 30 81  1  0  0  0  0
 31 82  1  0  0  0  0
 32 64  2  0  0  0  0
 33 65  1  0  0  0  0
 33 68  1  0  0  0  0
 34 69  1  0  0  0  0
 34 74  2  0  0  0  0
 35 49  1  0  0  0  0
 35 71  1  0  0  0  0
 35 75  2  0  0  0  0
 36 61  1  0  0  0  0
 36 66  1  0  0  0  0
 36 76  2  0  0  0  0
 37 62  1  0  0  0  0
 37 72  1  0  0  0  0
 37 77  2  0  0  0  0
 38 67  1  0  0  0  0
 38 70  1  0  0  0  0
 38 78  2  0  0  0  0
 39 42  1  0  0  0  0
 40 49  1  0  0  0  0
 41 66  1  0  0  0  0
 42 44  1  0  0  0  0
 43 45  1  0  0  0  0
 43 46  1  0  0  0  0
 44 48  1  0  0  0  0
 45 50  1  0  0  0  0
 46 67  1  0  0  0  0
 47 50  1  0  0  0  0
 47 67  1  0  0  0  0
 48 71  1  0  0  0  0
 49 66  1  0  0  0  0
 50 65  1  0  0  0  0
 54 62  1  0  0  0  0
 55 63  1  0  0  0  0
 56 63  1  0  0  0  0
 57 63  1  0  0  0  0
 58 73  1  0  0  0  0
 59 60  1  0  0  0  0
 60 80  1  0  0  0  0
 61 63  1  0  0  0  0
 61 72  1  0  0  0  0
 62 73  1  0  0  0  0
 64 65  1  0  0  0  0
M  CHG  1  73   1
M  ISO  4  38 100  60 101  70 100  80 101
M  END
> <Batch ID>
0019

> <Smiles>
CNC(C)C(=O)NC(C(=O)N1Cc2cc([101O:1][101CH2:1]Cc3cc(C)c([100NH:0][100C:0](=O)N4CCCC(n5nc(-c6ccc(Oc7ccc(F)cc7F)cc6)c(C(N)=O)c5N)C4)c(C)c3C)ccc2CC1C(=O)NC1CCCc2ccccc21)C(C)(C)C

> <Shape>
0.142

> <Color>
0.182

> <Negative vol penalty>
0.000

$$$$

  -OEChem-04052316073D

 90 98  0     1  0  0  0  0  0999 V2000
  -28.9626  -22.5254   18.1153 C   0  0  0  0  0  0  0  0  0  0  0  0
  -27.9646  -23.4887   18.0080 C   0  0  0  0  0  0  0  0  0  0  0  0
  -26.9714  -13.7523   20.9195 C   0  0  0  0  0  0  0  0  0  0  0  0
  -24.6732  -14.1626   20.2974 C   0  0  0  0  0  0  0  0  0  0  0  0
  -29.4244  -22.1387   19.3728 C   0  0  0  0  0  0  0  0  0  0  0  0
  -27.4270  -24.0651   19.1583 C   0  0  0  0  0  0  0  0  0  0  0  0
  -25.4940  -29.8379   19.8248 C   0  0  0  0  0  0  0  0  0  0  0  0
  -26.7654  -12.3803   20.7758 C   0  0  0  0  0  0  0  0  0  0  0  0
  -24.4671  -12.7905   20.1537 C   0  0  0  0  0  0  0  0  0  0  0  0
  -24.2252  -30.4137   19.7761 C   0  0  0  0  0  0  0  0  0  0  0  0
  -23.2363   -9.3756   19.9721 C   0  0  0  0  0  0  0  0  0  0  0  0
  -22.0724   -8.8341   20.5178 C   0  0  0  0  0  0  0  0  0  0  0  0
  -24.0783  -30.2792   22.1801 C   0  0  0  0  0  0  0  0  0  0  0  0
  -18.6782  -27.8123   21.4429 C   0  0  0  0  0  0  0  0  0  0  0  0
  -22.7504   -9.5874   22.7110 C   0  0  0  0  0  0  0  0  0  0  0  0
  -25.9253  -14.6435   20.6803 C   0  0  0  0  0  0  0  0  0  0  0  0
  -26.5665  -16.9648   19.8389 C   0  0  0  0  0  0  0  0  0  0  0  0
  -28.8989  -22.7177   20.5387 C   0  0  0  0  0  0  0  0  0  0  0  0
  -26.0609  -29.4677   21.0528 C   0  0  0  0  0  0  0  0  0  0  0  0
  -27.8812  -23.6849   20.4326 C   0  0  0  0  0  0  0  0  0  0  0  0
  -25.3555  -29.7011   22.2420 C   0  0  0  0  0  0  0  0  0  0  0  0
  -18.8642  -26.4317   21.5140 C   0  0  0  0  0  0  0  0  0  0  0  0
  -19.1476  -28.6329   22.4686 C   0  0  0  0  0  0  0  0  0  0  0  0
  -19.5193  -25.8718   22.6107 C   0  0  0  0  0  0  0  0  0  0  0  0
  -19.8027  -28.0730   23.5653 C   0  0  0  0  0  0  0  0  0  0  0  0
  -19.9886  -26.6924   23.6364 C   0  0  0  0  0  0  0  0  0  0  0  0
  -25.5133  -11.8994   20.3929 C   0  0  0  0  0  0  0  0  0  0  0  0
  -23.5160  -30.6318   20.9536 C   0  0  0  0  0  0  0  0  0  0  0  0
  -24.1573  -10.0229   20.7959 C   0  0  0  0  0  0  0  0  0  0  0  0
  -21.8294   -8.9400   21.8873 C   0  0  0  0  0  0  0  0  0  0  0  0
  -23.9143  -10.1288   22.1653 C   0  0  0  0  0  0  0  0  0  0  0  0
  -26.1374  -16.0609   20.8291 C   0  0  0  0  0  0  0  0  0  0  0  0
  -26.6095  -18.1796   20.4782 C   0  0  0  0  0  0  0  0  0  0  0  0
  -26.8968  -16.7275   18.4640 C   0  0  0  0  0  0  0  0  0  0  0  0
  -27.0197  -26.7266   22.3454 C   0  0  0  0  0  0  0  0  0  0  0  0
  -28.0804  -28.6669   24.7186 C   0  0  0  0  0  0  0  0  0  0  0  0
  -27.8204  -31.6500   26.3559 C   0  0  0  0  0  0  0  0  0  0  0  0
  -24.3118  -21.9173   23.7489 C   0  0  0  0  0  0  0  0  0  0  0  0
  -29.3965  -22.2333   21.8775 C   0  0  0  0  0  0  0  0  0  0  0  0
  -27.4416  -28.8721   21.0905 C   0  0  0  0  0  0  0  0  0  0  0  0
  -25.9281  -29.3403   23.5875 C   0  0  0  0  0  0  0  0  0  0  0  0
  -29.0383  -23.1638   23.0334 C   0  0  0  0  0  0  0  0  0  0  0  0
  -26.2408  -19.3323   25.3901 C   0  0  0  0  0  0  0  0  0  0  0  0
  -27.5728  -23.5785   22.9504 C   0  0  0  0  0  0  0  0  0  0  0  0
  -26.4203  -18.3207   24.2567 C   0  0  0  0  0  0  0  0  0  0  0  0
  -24.8595  -19.9786   25.3407 C   0  0  0  0  0  0  0  0  0  0  0  0
  -24.7086  -19.6203   22.9071 C   0  0  0  0  0  0  0  0  0  0  0  0
  -27.2906  -24.3512   21.6562 C   0  0  1  0  0  0  0  0  0  0  0  0
  -27.7085  -28.0619   22.3553 C   0  0  1  0  0  0  0  0  0  0  0  0
  -26.0937  -18.9484   22.8886 C   0  0  2  0  0  0  0  0  0  0  0  0
  -18.3519  -25.5757   20.4021 C   0  0  0  0  0  0  0  0  0  0  0  0
  -19.7156  -24.3896   22.6809 C   0  0  0  0  0  0  0  0  0  0  0  0
  -20.3039  -28.9591   24.6626 C   0  0  0  0  0  0  0  0  0  0  0  0
  -28.7959  -32.9329   28.2794 C   0  0  0  0  0  0  0  0  0  0  0  0
  -26.5086  -26.9283   26.6722 C   0  0  0  0  0  0  0  0  0  0  0  0
  -26.7292  -28.7564   28.3684 C   0  0  0  0  0  0  0  0  0  0  0  0
  -28.7691  -27.6262   27.4829 C   0  0  0  0  0  0  0  0  0  0  0  0
  -19.8096  -30.4118   19.9802 C   0  0  0  0  0  0  0  0  0  0  0  0
  -19.4509  -32.3940   21.4466 C   0  0  0  0  0  0  0  0  0  0  0  0
  -19.9023  -25.7149   25.9162 C   0  0  0  0  0  0  0  0  0  0  0  0
  -28.7531  -33.8273   24.5815 C   0  0  0  0  0  0  0  0  0  0  0  0
  -18.9329  -30.1250   22.3666 C   0  0  0  0  0  0  0  0  0  0  0  0
  -22.4399  -24.4511   24.8123 C   0  0  0  0  0  0  0  0  0  0  0  0
  -23.9380  -24.1621   24.7378 C   0  0  0  0  0  0  0  0  0  0  0  0
  -22.0878  -25.9354   24.7231 C   0  0  0  0  0  0  0  0  0  0  0  0
  -21.3576  -30.8201   21.9343 C   0  0  0  0  0  0  0  0  0  1  0  0
  -27.4889  -29.2183   25.9934 C   0  0  1  0  0  0  0  0  0  0  0  0
  -28.8709  -32.6581   26.7855 C   0  0  2  0  0  0  0  0  0  0  0  0
  -27.3621  -28.1374   27.1039 C   0  0  0  0  0  0  0  0  0  0  0  0
  -19.8983  -30.9146   21.4341 C   0  0  0  0  0  0  0  0  0  0  0  0
  -25.9231  -16.6510   22.0080 N   0  0  0  0  0  0  0  0  0  0  0  0
  -26.2190  -17.9388   21.7627 N   0  0  0  0  0  0  0  0  0  0  0  0
  -27.2788  -28.7549   23.5716 N   0  0  0  0  0  0  0  0  0  0  0  0
  -24.6187  -20.5732   24.0184 N   0  0  0  0  0  0  0  0  0  0  0  0
  -26.9429  -19.4196   20.0615 N   0  0  0  0  0  0  0  0  0  0  0  0
  -26.7981  -15.4199   17.9691 N   0  0  0  0  0  0  0  0  0  0  0  0
  -27.7629  -25.7145   21.7683 N   0  0  0  0  0  0  0  0  0  0  0  0
  -28.3141  -30.3626   26.3648 N   0  0  0  0  0  0  0  0  0  0  0  0
  -24.2386  -22.7527   24.8568 N   0  0  0  0  0  0  0  0  0  0  0  0
  -20.6531  -26.1245   24.7487 N   0  0  3  0  0  0  0  0  0  0  0  0
  -28.6800  -33.9461   26.0605 N   0  3  0  0  0  0  0  0  0  0  0  0
  -27.2842  -17.6449   17.7012 O   0  0  0  0  0  0  0  0  0  0  0  0
  -25.8978  -26.6218   22.8269 O   0  0  0  0  0  0  0  0  0  0  0  0
  -29.2147  -28.1827   24.7383 O   0  0  0  0  0  0  0  0  0  0  0  0
  -26.6752  -31.9719   26.0470 O   0  0  0  0  0  0  0  0  0  0  0  0
  -24.1221  -22.3430   22.6044 O   0  0  0  0  0  0  0  0  0  0  0  0
  -25.3119  -10.5606   20.2524 O   0  0  0  0  0  0  0  0  0  0  0  0
  -22.2771  -31.1931   20.9088 O   0  0  0  0  0  0  0  0  0  1  0  0
  -20.7110   -8.4214   22.4109 F   0  0  0  0  0  0  0  0  0  0  0  0
  -24.7948  -10.7505   22.9615 F   0  0  0  0  0  0  0  0  0  0  0  0
  1  2  1  0  0  0  0
  1  5  2  0  0  0  0
  2  6  2  0  0  0  0
  3  8  2  0  0  0  0
  3 16  1  0  0  0  0
  4  9  1  0  0  0  0
  4 16  2  0  0  0  0
  5 18  1  0  0  0  0
  6 20  1  0  0  0  0
  7 10  2  0  0  0  0
  7 19  1  0  0  0  0
  8 27  1  0  0  0  0
  9 27  2  0  0  0  0
 10 28  1  0  0  0  0
 11 12  2  0  0  0  0
 11 29  1  0  0  0  0
 12 30  1  0  0  0  0
 13 21  1  0  0  0  0
 13 28  2  0  0  0  0
 14 22  2  0  0  0  0
 14 23  1  0  0  0  0
 15 30  2  0  0  0  0
 15 31  1  0  0  0  0
 16 32  1  0  0  0  0
 17 32  1  0  0  0  0
 17 33  2  0  0  0  0
 17 34  1  0  0  0  0
 18 20  2  0  0  0  0
 18 39  1  0  0  0  0
 19 21  2  0  0  0  0
 19 40  1  0  0  0  0
 20 48  1  0  0  0  0
 21 41  1  0  0  0  0
 22 24  1  0  0  0  0
 22 51  1  0  0  0  0
 23 25  2  0  0  0  0
 23 62  1  0  0  0  0
 24 26  2  0  0  0  0
 24 52  1  0  0  0  0
 25 26  1  0  0  0  0
 25 53  1  0  0  0  0
 26 80  1  0  0  0  0
 27 87  1  0  0  0  0
 28 88  1  0  0  0  0
 29 31  2  0  0  0  0
 29 87  1  0  0  0  0
 30 89  1  0  0  0  0
 31 90  1  0  0  0  0
 32 71  2  0  0  0  0
 33 72  1  0  0  0  0
 33 75  1  0  0  0  0
 34 76  1  0  0  0  0
 34 82  2  0  0  0  0
 35 49  1  0  0  0  0
 35 77  1  0  0  0  0
 35 83  2  0  0  0  0
 36 67  1  0  0  0  0
 36 73  1  0  0  0  0
 36 84  2  0  0  0  0
 37 68  1  0  0  0  0
 37 78  1  0  0  0  0
 37 85  2  0  0  0  0
 38 74  1  0  0  0  0
 38 79  1  0  0  0  0
 38 86  2  0  0  0  0
 39 42  1  0  0  0  0
 40 49  1  0  0  0  0
 41 73  1  0  0  0  0
 42 44  1  0  0  0  0
 43 45  1  0  0  0  0
 43 46  1  0  0  0  0
 44 48  1  0  0  0  0
 45 50  1  0  0  0  0
 46 74  1  0  0  0  0
 47 50  1  0  0  0  0
 47 74  1  0  0  0  0
 48 77  1  0  0  0  0
 49 73  1  0  0  0  0
 50 72  1  0  0  0  0
 54 68  1  0  0  0  0
 55 69  1  0  0  0  0
 56 69  1  0  0  0  0
 57 69  1  0  0  0  0
 58 70  1  0  0  0  0
 59 70  1  0  0  0  0
 60 80  1  0  0  0  0
 61 81  1  0  0  0  0
 62 70  1  0  0  0  0
 63 64  1  0  0  0  0
 63 65  1  0  0  0  0
 64 79  1  0  0  0  0
 65 80  1  0  0  0  0
 66 70  1  0  0  0  0
 66 88  1  0  0  0  0
 67 69  1  0  0  0  0
 67 78  1  0  0  0  0
 68 81  1  0  0  0  0
 71 72  1  0  0  0  0
M  CHG  1  81   1
M  ISO  4  38 100  66 101  79 100  88 101
M  END
> <Batch ID>
0019

> <Smiles>
CNC(C)C(=O)NC(C(=O)N1Cc2cc([101O:1][101CH2:1]C(C)(C)Cc3cc(C)c(C)c(N(C)CCC[100NH:0][100C:0](=O)N4CCCC(n5nc(-c6ccc(Oc7ccc(F)cc7F)cc6)c(C(N)=O)c5N)C4)c3C)ccc2CC1C(=O)NC1CCCc2ccccc21)C(C)(C)C

> <Shape>
0.234

> <Color>
0.067

> <Negative vol penalty>
0.000

$$$$

  -OEChem-04052316073D

 82 90  0     1  0  0  0  0  0999 V2000
  -20.3125  -17.2948   32.7769 C   0  0  0  0  0  0  0  0  0  0  0  0
  -21.5696  -17.1106   32.2102 C   0  0  0  0  0  0  0  0  0  0  0  0
  -23.2887   -9.7995   19.9130 C   0  0  0  0  0  0  0  0  0  0  0  0
  -23.7396   -9.9399   22.2823 C   0  0  0  0  0  0  0  0  0  0  0  0
  -19.1908  -17.4156   31.9577 C   0  0  0  0  0  0  0  0  0  0  0  0
  -21.7056  -17.0460   30.8240 C   0  0  0  0  0  0  0  0  0  0  0  0
  -26.4050  -19.1142   27.4856 C   0  0  0  0  0  0  0  0  0  0  0  0
  -22.5625   -8.6268   20.1206 C   0  0  0  0  0  0  0  0  0  0  0  0
  -23.0134   -8.7672   22.4900 C   0  0  0  0  0  0  0  0  0  0  0  0
  -27.5153  -18.4771   26.9332 C   0  0  0  0  0  0  0  0  0  0  0  0
  -20.9748   -6.0066   23.6906 C   0  0  0  0  0  0  0  0  0  0  0  0
  -20.0733   -5.9811   24.7547 C   0  0  0  0  0  0  0  0  0  0  0  0
  -26.3472  -18.2764   24.8322 C   0  0  0  0  0  0  0  0  0  0  0  0
  -18.8634   -7.8282   23.7740 C   0  0  0  0  0  0  0  0  0  0  0  0
  -32.9072  -16.6934   23.9732 C   0  0  0  0  0  0  0  0  0  0  0  0
  -23.8773  -10.4560   20.9938 C   0  0  0  0  0  0  0  0  0  0  0  0
  -24.1363  -12.9860   20.7955 C   0  0  0  0  0  0  0  0  0  0  0  0
  -19.3144  -17.3622   30.5604 C   0  0  0  0  0  0  0  0  0  0  0  0
  -25.2515  -19.3277   26.7174 C   0  0  0  0  0  0  0  0  0  0  0  0
  -20.5844  -17.1649   29.9853 C   0  0  0  0  0  0  0  0  0  0  0  0
  -25.2245  -18.9187   25.3764 C   0  0  0  0  0  0  0  0  0  0  0  0
  -31.7217  -14.5926   24.1071 C   0  0  0  0  0  0  0  0  0  0  0  0
  -30.7902  -16.5727   25.1312 C   0  0  0  0  0  0  0  0  0  0  0  0
  -22.4248   -8.1107   21.4091 C   0  0  0  0  0  0  0  0  0  0  0  0
  -27.4855  -18.0555   25.6071 C   0  0  0  0  0  0  0  0  0  0  0  0
  -20.8207   -6.9430   22.6683 C   0  0  0  0  0  0  0  0  0  0  0  0
  -19.0176   -6.8918   24.7964 C   0  0  0  0  0  0  0  0  0  0  0  0
  -19.7650   -7.8537   22.7099 C   0  0  0  0  0  0  0  0  0  0  0  0
  -32.8225  -15.3331   23.6765 C   0  0  0  0  0  0  0  0  0  0  0  0
  -31.8911  -17.3132   24.7006 C   0  0  0  0  0  0  0  0  0  0  0  0
  -30.7055  -15.2123   24.8344 C   0  0  0  0  0  0  0  0  0  0  0  0
  -24.6281  -11.6671   20.7799 C   0  0  0  0  0  0  0  0  0  0  0  0
  -25.2377  -13.7661   20.5406 C   0  0  0  0  0  0  0  0  0  0  0  0
  -22.8032  -13.4634   21.0205 C   0  0  0  0  0  0  0  0  0  0  0  0
  -22.2243  -18.3764   26.9038 C   0  0  0  0  0  0  0  0  0  0  0  0
  -21.8390  -20.4105   24.4065 C   0  0  0  0  0  0  0  0  0  0  0  0
  -23.2434  -22.0574   21.7679 C   0  0  0  0  0  0  0  0  0  0  0  0
  -31.1088  -12.9239   21.3596 C   0  0  0  0  0  0  0  0  0  0  0  0
  -18.0669  -17.4504   29.7173 C   0  0  0  0  0  0  0  0  0  0  0  0
  -24.0720  -20.0403   27.3202 C   0  0  0  0  0  0  0  0  0  0  0  0
  -24.0179  -19.1423   24.5032 C   0  0  0  0  0  0  0  0  0  0  0  0
  -18.3457  -17.7462   28.2460 C   0  0  0  0  0  0  0  0  0  0  0  0
  -29.4596  -13.6634   18.2921 C   0  0  0  0  0  0  0  0  0  0  0  0
  -19.4690  -16.8549   27.7258 C   0  0  0  0  0  0  0  0  0  0  0  0
  -27.9900  -13.3546   18.5832 C   0  0  0  0  0  0  0  0  0  0  0  0
  -30.3931  -12.6841   19.0003 C   0  0  0  0  0  0  0  0  0  0  0  0
  -28.7066  -12.2542   20.7452 C   0  0  0  0  0  0  0  0  0  0  0  0
  -20.7758  -17.1145   28.4850 C   0  0  1  0  0  0  0  0  0  0  0  0
  -22.7619  -19.7454   26.5964 C   0  0  1  0  0  0  0  0  0  0  0  0
  -27.7285  -13.2494   20.0978 C   0  0  2  0  0  0  0  0  0  0  0  0
  -22.6689  -23.6169   19.8877 C   0  0  0  0  0  0  0  0  0  0  0  0
  -20.5614  -18.0972   22.8813 C   0  0  0  0  0  0  0  0  0  0  0  0
  -20.8820  -19.4038   20.7699 C   0  0  0  0  0  0  0  0  0  0  0  0
  -19.4199  -20.3019   22.5805 C   0  0  0  0  0  0  0  0  0  0  0  0
  -25.0844  -24.1418   22.7801 C   0  0  0  0  0  0  0  0  0  0  0  0
  -31.6709  -13.1374   23.7675 C   0  0  0  0  0  0  0  0  0  0  0  0
  -29.6999  -17.2441   25.9133 C   0  0  0  0  0  0  0  0  0  1  0  0
  -21.9273  -20.2880   22.9045 C   0  0  1  0  0  0  0  0  0  0  0  0
  -23.1573  -23.5064   21.3237 C   0  0  2  0  0  0  0  0  0  0  0  0
  -20.7198  -19.5166   22.3008 C   0  0  0  0  0  0  0  0  0  0  0  0
  -25.9397  -11.6086   20.5342 N   0  0  0  0  0  0  0  0  0  0  0  0
  -26.2814  -12.9007   20.3931 N   0  0  0  0  0  0  0  0  0  0  0  0
  -22.8874  -19.8378   25.1404 N   0  0  0  0  0  0  0  0  0  0  0  0
  -30.0939  -12.6324   20.4333 N   0  0  0  0  0  0  0  0  0  0  0  0
  -25.4054  -15.1011   20.4303 N   0  0  0  0  0  0  0  0  0  0  0  0
  -21.7908  -12.5264   21.2679 N   0  0  0  0  0  0  0  0  0  0  0  0
  -21.4015  -18.3311   28.0130 N   0  0  0  0  0  0  0  0  0  0  0  0
  -22.0855  -21.6451   22.3929 N   0  0  0  0  0  0  0  0  0  0  0  0
  -30.7393  -12.8581   22.6975 N   0  0  0  0  0  0  0  0  0  0  0  0
  -24.4948  -24.1570   21.4166 N   0  3  0  0  0  0  0  0  0  0  0  0
  -22.5152  -14.6838   20.9863 O   0  0  0  0  0  0  0  0  0  0  0  0
  -22.5320  -17.4314   26.1869 O   0  0  0  0  0  0  0  0  0  0  0  0
  -20.8788  -20.9991   24.9099 O   0  0  0  0  0  0  0  0  0  0  0  0
  -24.2369  -21.3598   21.5762 O   0  0  0  0  0  0  0  0  0  0  0  0
  -32.2578  -13.2259   21.0194 O   0  0  0  0  0  0  0  0  0  0  0  0
  -21.7161   -6.9666   21.6122 O   0  0  0  0  0  0  0  0  0  0  0  0
  -28.5676  -17.4329   25.0656 O   0  0  0  0  0  0  0  0  0  1  0  0
  -18.1510   -6.8662   25.8174 F   0  0  0  0  0  0  0  0  0  0  0  0
  -19.6111   -8.7548   21.7301 F   0  0  0  0  0  0  0  0  0  0  0  0
  -33.8051  -14.7478   22.9771 F   0  0  0  0  0  0  0  0  0  0  0  0
  -32.0377  -18.9991   25.0451 Cl  0  0  0  0  0  0  0  0  0  0  0  0
  -29.3404  -14.2871   25.3666 Cl  0  0  0  0  0  0  0  0  0  0  0  0
  1  2  1  0  0  0  0
  1  5  2  0  0  0  0
  2  6  2  0  0  0  0
  3  8  2  0  0  0  0
  3 16  1  0  0  0  0
  4  9  1  0  0  0  0
  4 16  2  0  0  0  0
  5 18  1  0  0  0  0
  6 20  1  0  0  0  0
  7 10  2  0  0  0  0
  7 19  1  0  0  0  0
  8 24  1  0  0  0  0
  9 24  2  0  0  0  0
 10 25  1  0  0  0  0
 11 12  2  0  0  0  0
 11 26  1  0  0  0  0
 12 27  1  0  0  0  0
 13 21  1  0  0  0  0
 13 25  2  0  0  0  0
 14 27  2  0  0  0  0
 14 28  1  0  0  0  0
 15 29  1  0  0  0  0
 15 30  2  0  0  0  0
 16 32  1  0  0  0  0
 17 32  1  0  0  0  0
 17 33  2  0  0  0  0
 17 34  1  0  0  0  0
 18 20  2  0  0  0  0
 18 39  1  0  0  0  0
 19 21  2  0  0  0  0
 19 40  1  0  0  0  0
 20 48  1  0  0  0  0
 21 41  1  0  0  0  0
 22 29  2  0  0  0  0
 22 31  1  0  0  0  0
 22 56  1  0  0  0  0
 23 30  1  0  0  0  0
 23 31  2  0  0  0  0
 23 57  1  0  0  0  0
 24 76  1  0  0  0  0
 25 77  1  0  0  0  0
 26 28  2  0  0  0  0
 26 76  1  0  0  0  0
 27 78  1  0  0  0  0
 28 79  1  0  0  0  0
 29 80  1  0  0  0  0
 30 81  1  0  0  0  0
 31 82  1  0  0  0  0
 32 61  2  0  0  0  0
 33 62  1  0  0  0  0
 33 65  1  0  0  0  0
 34 66  1  0  0  0  0
 34 71  2  0  0  0  0
 35 49  1  0  0  0  0
 35 67  1  0  0  0  0
 35 72  2  0  0  0  0
 36 58  1  0  0  0  0
 36 63  1  0  0  0  0
 36 73  2  0  0  0  0
 37 59  1  0  0  0  0
 37 68  1  0  0  0  0
 37 74  2  0  0  0  0
 38 64  1  0  0  0  0
 38 69  1  0  0  0  0
 38 75  2  0  0  0  0
 39 42  1  0  0  0  0
 40 49  1  0  0  0  0
 41 63  1  0  0  0  0
 42 44  1  0  0  0  0
 43 45  1  0  0  0  0
 43 46  1  0  0  0  0
 44 48  1  0  0  0  0
 45 50  1  0  0  0  0
 46 64  1  0  0  0  0
 47 50  1  0  0  0  0
 47 64  1  0  0  0  0
 48 67  1  0  0  0  0
 49 63  1  0  0  0  0
 50 62  1  0  0  0  0
 51 59  1  0  0  0  0
 52 60  1  0  0  0  0
 53 60  1  0  0  0  0
 54 60  1  0  0  0  0
 55 70  1  0  0  0  0
 56 69  1  0  0  0  0
 57 77  1  0  0  0  0
 58 60  1  0  0  0  0
 58 68  1  0  0  0  0
 59 70  1  0  0  0  0
 61 62  1  0  0  0  0
M  CHG  1  70   1
M  ISO  4  38 100  57 101  69 100  77 101
M  END
> <Batch ID>
0019

> <Smiles>
CNC(C)C(=O)NC(C(=O)N1Cc2cc([101O:1][101CH2:1]c3c(Cl)cc(F)c(C[100NH:0][100C:0](=O)N4CCCC(n5nc(-c6ccc(Oc7ccc(F)cc7F)cc6)c(C(N)=O)c5N)C4)c3Cl)ccc2CC1C(=O)NC1CCCc2ccccc21)C(C)(C)C

> <Shape>
0.132

> <Color>
0.182

> <Negative vol penalty>
0.000

$$$$

  -OEChem-04052316073D

 89 97  0     1  0  0  0  0  0999 V2000
  -18.2606  -25.2878   22.9161 C   0  0  0  0  0  0  0  0  0  0  0  0
  -19.3677  -25.2797   22.0737 C   0  0  0  0  0  0  0  0  0  0  0  0
  -26.7822  -18.0051   18.8238 C   0  0  0  0  0  0  0  0  0  0  0  0
  -28.8183  -17.3207   17.7178 C   0  0  0  0  0  0  0  0  0  0  0  0
  -17.7284  -26.4996   23.3543 C   0  0  0  0  0  0  0  0  0  0  0  0
  -19.9426  -26.4836   21.6681 C   0  0  0  0  0  0  0  0  0  0  0  0
  -25.8848  -27.5709   20.6607 C   0  0  0  0  0  0  0  0  0  0  0  0
  -26.4440  -16.6675   19.0288 C   0  0  0  0  0  0  0  0  0  0  0  0
  -28.4801  -15.9831   17.9229 C   0  0  0  0  0  0  0  0  0  0  0  0
  -26.6465  -27.6097   19.4937 C   0  0  0  0  0  0  0  0  0  0  0  0
  -28.3281  -12.3927   18.4743 C   0  0  0  0  0  0  0  0  0  0  0  0
  -29.3262  -11.5338   18.9344 C   0  0  0  0  0  0  0  0  0  0  0  0
  -26.3800  -30.0057   19.4066 C   0  0  0  0  0  0  0  0  0  0  0  0
  -29.5777  -12.8891   20.9187 C   0  0  0  0  0  0  0  0  0  0  0  0
  -27.9694  -18.3317   18.1683 C   0  0  0  0  0  0  0  0  0  0  0  0
  -28.5196  -20.7004   18.9391 C   0  0  0  0  0  0  0  0  0  0  0  0
  -18.3029  -27.7188   22.9617 C   0  0  0  0  0  0  0  0  0  0  0  0
  -25.3549  -28.7499   21.2044 C   0  0  0  0  0  0  0  0  0  0  0  0
  -19.4167  -27.7130   22.1004 C   0  0  0  0  0  0  0  0  0  0  0  0
  -25.6140  -29.9794   20.5820 C   0  0  0  0  0  0  0  0  0  0  0  0
  -27.2929  -15.6565   18.5784 C   0  0  0  0  0  0  0  0  0  0  0  0
  -26.8919  -28.8269   18.8648 C   0  0  0  0  0  0  0  0  0  0  0  0
  -27.9549  -13.4999   19.2363 C   0  0  0  0  0  0  0  0  0  0  0  0
  -29.9510  -11.7820   20.1566 C   0  0  0  0  0  0  0  0  0  0  0  0
  -28.5797  -13.7480   20.4585 C   0  0  0  0  0  0  0  0  0  0  0  0
  -28.3190  -19.7132   17.9557 C   0  0  0  0  0  0  0  0  0  0  0  0
  -28.8300  -21.8344   18.2290 C   0  0  0  0  0  0  0  0  0  0  0  0
  -33.4298  -26.9762   14.3378 C   0  0  0  0  0  0  0  0  0  0  0  0
  -28.4330  -20.6013   20.3668 C   0  0  0  0  0  0  0  0  0  0  0  0
  -32.1855  -26.4831   14.4053 C   0  0  0  0  0  0  0  0  0  0  0  0
  -22.4229  -29.8367   21.7757 C   0  0  0  0  0  0  0  0  0  0  0  0
  -24.0241  -32.2737   23.1968 C   0  0  0  0  0  0  0  0  0  0  0  0
  -26.9000  -34.0938   23.4483 C   0  0  0  0  0  0  0  0  0  0  0  0
  -31.0549  -22.2726   12.5372 C   0  0  0  0  0  0  0  0  0  0  0  0
  -17.6636  -29.0045   23.4230 C   0  0  0  0  0  0  0  0  0  0  0  0
  -24.5576  -28.6942   22.4786 C   0  0  0  0  0  0  0  0  0  0  0  0
  -25.0850  -31.2760   21.1365 C   0  0  0  0  0  0  0  0  0  0  0  0
  -18.5604  -30.2275   23.2488 C   0  0  0  0  0  0  0  0  0  0  0  0
  -36.3481  -22.5183   11.7077 C   0  0  0  0  0  0  0  0  0  0  0  0
  -35.8404  -21.1547   12.1677 C   0  0  0  0  0  0  0  0  0  0  0  0
  -35.2605  -23.3093   10.9868 C   0  0  0  0  0  0  0  0  0  0  0  0
  -28.0927  -23.9396   14.0029 C   0  0  0  0  0  0  0  0  0  0  0  0
  -19.1951  -30.2308   21.8617 C   0  0  0  0  0  0  0  0  0  0  0  0
  -27.7970  -23.0763   15.2282 C   0  0  0  0  0  0  0  0  0  0  0  0
  -34.5808  -21.2815   13.0226 C   0  0  0  0  0  0  0  0  0  0  0  0
  -33.9992  -23.4398   11.8388 C   0  0  0  0  0  0  0  0  0  0  0  0
  -28.7719  -23.1392   12.8958 C   0  0  0  0  0  0  0  0  0  0  0  0
  -29.7101  -21.5687   14.5593 C   0  0  0  0  0  0  0  0  0  0  0  0
  -20.0835  -28.9976   21.6585 C   0  0  1  0  0  0  0  0  0  0  0  0
  -23.6363  -29.8966   22.6600 C   0  0  1  0  0  0  0  0  0  0  0  0
  -29.0677  -22.3559   15.7113 C   0  0  2  0  0  0  0  0  0  0  0  0
  -33.4889  -22.0709   12.2955 C   0  0  0  0  0  0  0  0  0  0  0  0
  -30.9817  -27.8383   12.2543 C   0  0  0  0  0  0  0  0  0  0  0  0
  -27.8946  -36.0471   24.6703 C   0  0  0  0  0  0  0  0  0  0  0  0
  -31.5110  -27.0905   17.0560 C   0  0  0  0  0  0  0  0  0  0  0  0
  -22.4183  -34.1856   21.4429 C   0  0  0  0  0  0  0  0  0  0  0  0
  -24.0789  -35.9761   21.9950 C   0  0  0  0  0  0  0  0  0  0  0  0
  -22.7150  -34.9402   23.8087 C   0  0  0  0  0  0  0  0  0  0  0  0
  -29.0230  -32.4136   24.6436 C   0  0  0  0  0  0  0  0  0  0  0  0
  -31.8535  -25.0322   14.1907 C   0  0  0  0  0  0  0  0  0  0  0  0
  -32.9397  -24.0636   14.6805 C   0  0  0  0  0  0  0  0  0  0  0  0
  -29.3388  -28.0812   16.2311 C   0  0  0  0  0  0  0  0  0  0  0  0
  -32.5917  -22.5853   14.5229 C   0  0  0  0  0  0  0  0  0  0  0  0
  -30.2014  -27.4667   13.4962 C   0  0  0  0  0  0  0  0  0  0  0  0
  -28.6398  -27.8668   17.5691 C   0  0  0  0  0  0  0  0  0  1  0  0
  -24.5743  -33.6026   22.7382 C   0  0  1  0  0  0  0  0  0  0  0  0
  -27.7090  -34.5377   24.6537 C   0  0  2  0  0  0  0  0  0  0  0  0
  -30.4599  -27.0775   15.9541 C   0  0  1  0  0  0  0  0  0  0  0  0
  -23.4551  -34.6516   22.4844 C   0  0  0  0  0  0  0  0  0  0  0  0
  -28.4878  -20.1792   16.7153 N   0  0  0  0  0  0  0  0  0  0  0  0
  -28.7975  -21.4717   16.9146 N   0  0  0  0  0  0  0  0  0  0  0  0
  -24.3056  -31.1687   22.3810 N   0  0  0  0  0  0  0  0  0  0  0  0
  -29.9517  -22.4301   13.3922 N   0  0  0  0  0  0  0  0  0  0  0  0
  -29.1248  -23.0964   18.6069 N   0  0  0  0  0  0  0  0  0  0  0  0
  -29.5879  -20.2605   21.0841 N   0  0  0  0  0  0  0  0  0  0  0  0
  -21.3503  -29.1701   22.3366 N   0  0  0  0  0  0  0  0  0  0  0  0
  -25.5552  -34.0059   23.7400 N   0  0  0  0  0  0  0  0  0  0  0  0
  -32.3239  -22.2204   13.1335 N   0  0  0  0  0  0  0  0  0  0  0  0
  -29.0553  -33.8988   24.6378 N   0  3  0  0  0  0  0  0  0  0  0  0
  -31.1360  -27.4159   14.6708 N   0  3  1  0  0  0  0  0  0  0  0  0
  -27.3594  -20.7926   20.9867 O   0  0  0  0  0  0  0  0  0  0  0  0
  -22.4569  -30.3580   20.6672 O   0  0  0  0  0  0  0  0  0  0  0  0
  -23.3748  -32.2170   24.2440 O   0  0  0  0  0  0  0  0  0  0  0  0
  -27.4096  -33.8531   22.3561 O   0  0  0  0  0  0  0  0  0  0  0  0
  -30.9144  -22.1934   11.3101 O   0  0  0  0  0  0  0  0  0  0  0  0
  -26.9633  -14.3512   18.7785 O   0  0  0  0  0  0  0  0  0  0  0  0
  -27.6345  -28.8675   17.7253 O   0  0  0  0  0  0  0  0  0  1  0  0
  -30.9084  -10.9562   20.5991 F   0  0  0  0  0  0  0  0  0  0  0  0
  -28.2245  -14.8093   21.1956 F   0  0  0  0  0  0  0  0  0  0  0  0
  1  2  1  0  0  0  0
  1  5  2  0  0  0  0
  2  6  2  0  0  0  0
  3  8  2  0  0  0  0
  3 15  1  0  0  0  0
  4  9  1  0  0  0  0
  4 15  2  0  0  0  0
  5 17  1  0  0  0  0
  6 19  1  0  0  0  0
  7 10  2  0  0  0  0
  7 18  1  0  0  0  0
  8 21  1  0  0  0  0
  9 21  2  0  0  0  0
 10 22  1  0  0  0  0
 11 12  2  0  0  0  0
 11 23  1  0  0  0  0
 12 24  1  0  0  0  0
 13 20  1  0  0  0  0
 13 22  2  0  0  0  0
 14 24  2  0  0  0  0
 14 25  1  0  0  0  0
 15 26  1  0  0  0  0
 16 26  1  0  0  0  0
 16 27  2  0  0  0  0
 16 29  1  0  0  0  0
 17 19  2  0  0  0  0
 17 35  1  0  0  0  0
 18 20  2  0  0  0  0
 18 36  1  0  0  0  0
 19 49  1  0  0  0  0
 20 37  1  0  0  0  0
 21 86  1  0  0  0  0
 22 87  1  0  0  0  0
 23 25  2  0  0  0  0
 23 86  1  0  0  0  0
 24 88  1  0  0  0  0
 25 89  1  0  0  0  0
 26 70  2  0  0  0  0
 27 71  1  0  0  0  0
 27 74  1  0  0  0  0
 28 30  2  0  0  0  0
 29 75  1  0  0  0  0
 29 81  2  0  0  0  0
 30 60  1  0  0  0  0
 30 80  1  0  0  0  0
 31 50  1  0  0  0  0
 31 76  1  0  0  0  0
 31 82  2  0  0  0  0
 32 66  1  0  0  0  0
 32 72  1  0  0  0  0
 32 83  2  0  0  0  0
 33 67  1  0  0  0  0
 33 77  1  0  0  0  0
 33 84  2  0  0  0  0
 34 73  1  0  0  0  0
 34 78  1  0  0  0  0
 34 85  2  0  0  0  0
 35 38  1  0  0  0  0
 36 50  1  0  0  0  0
 37 72  1  0  0  0  0
 38 43  1  0  0  0  0
 39 40  1  0  0  0  0
 39 41  1  0  0  0  0
 40 45  1  0  0  0  0
 41 46  1  0  0  0  0
 42 44  1  0  0  0  0
 42 47  1  0  0  0  0
 43 49  1  0  0  0  0
 44 51  1  0  0  0  0
 45 52  1  0  0  0  0
 46 52  1  0  0  0  0
 47 73  1  0  0  0  0
 48 51  1  0  0  0  0
 48 73  1  0  0  0  0
 49 76  1  0  0  0  0
 50 72  1  0  0  0  0
 51 71  1  0  0  0  0
 52 78  1  0  0  0  0
 53 64  1  0  0  0  0
 54 67  1  0  0  0  0
 55 68  1  0  0  0  0
 56 69  1  0  0  0  0
 57 69  1  0  0  0  0
 58 69  1  0  0  0  0
 59 79  1  0  0  0  0
 60 61  1  0  0  0  0
 61 63  1  0  0  0  0
 62 65  1  0  0  0  0
 62 68  1  0  0  0  0
 63 78  1  0  0  0  0
 64 80  1  0  0  0  0
 65 87  1  0  0  0  0
 66 69  1  0  0  0  0
 66 77  1  0  0  0  0
 67 79  1  0  0  0  0
 68 80  1  0  0  0  0
 70 71  1  0  0  0  0
M  CHG  2  79   1  80   1
M  ISO  4  34 100  65 101  78 100  87 101
M  END
> <Batch ID>
0019

> <Smiles>
C=C(CCC[100N:0](C1CCCCC1)[100C:0](=O)N1CCCC(n2nc(-c3ccc(Oc4ccc(F)cc4F)cc3)c(C(N)=O)c2N)C1)N(CC)C(C)C[101CH2:1][101O:1]c1ccc2c(c1)CN(C(=O)C(NC(=O)C(C)NC)C(C)(C)C)C(C(=O)NC1CCCc3ccccc31)C2

> <Shape>
0.244

> <Color>
0.130

> <Negative vol penalty>
0.000

$$$$

  -OEChem-04052316073D

 82 90  0     1  0  0  0  0  0999 V2000
  -29.6026  -32.8865   24.8388 C   0  0  0  0  0  0  0  0  0  0  0  0
  -29.5090  -31.7145   24.0952 C   0  0  0  0  0  0  0  0  0  0  0  0
  -23.7802  -11.3823   19.5462 C   0  0  0  0  0  0  0  0  0  0  0  0
  -24.1189  -10.2783   21.6684 C   0  0  0  0  0  0  0  0  0  0  0  0
  -28.6177  -33.1970   25.7755 C   0  0  0  0  0  0  0  0  0  0  0  0
  -28.4308  -30.8516   24.2886 C   0  0  0  0  0  0  0  0  0  0  0  0
  -26.4514  -29.2076   19.9270 C   0  0  0  0  0  0  0  0  0  0  0  0
  -23.2424  -10.2074   19.0209 C   0  0  0  0  0  0  0  0  0  0  0  0
  -23.5811   -9.1034   21.1430 C   0  0  0  0  0  0  0  0  0  0  0  0
  -27.1353  -28.1920   19.2602 C   0  0  0  0  0  0  0  0  0  0  0  0
  -21.9651   -5.9173   20.4681 C   0  0  0  0  0  0  0  0  0  0  0  0
  -21.0419   -5.2205   21.2477 C   0  0  0  0  0  0  0  0  0  0  0  0
  -25.5829  -26.5726   20.1473 C   0  0  0  0  0  0  0  0  0  0  0  0
  -28.3098  -21.3375   18.6933 C   0  0  0  0  0  0  0  0  0  0  0  0
  -29.0132  -20.9256   21.3613 C   0  0  0  0  0  0  0  0  0  0  0  0
  -19.5898   -7.1514   21.2542 C   0  0  0  0  0  0  0  0  0  0  0  0
  -24.2185  -11.4177   20.8700 C   0  0  0  0  0  0  0  0  0  0  0  0
  -24.0796  -13.6679   22.0638 C   0  0  0  0  0  0  0  0  0  0  0  0
  -27.5219  -32.3423   25.9736 C   0  0  0  0  0  0  0  0  0  0  0  0
  -25.3328  -28.9115   20.7190 C   0  0  0  0  0  0  0  0  0  0  0  0
  -27.4310  -31.1503   25.2298 C   0  0  0  0  0  0  0  0  0  0  0  0
  -24.8851  -27.5866   20.8210 C   0  0  0  0  0  0  0  0  0  0  0  0
  -28.6371  -22.4244   19.5040 C   0  0  0  0  0  0  0  0  0  0  0  0
  -28.3341  -20.0447   19.2166 C   0  0  0  0  0  0  0  0  0  0  0  0
  -28.9889  -22.2184   20.8380 C   0  0  0  0  0  0  0  0  0  0  0  0
  -28.6858  -19.8388   20.5506 C   0  0  0  0  0  0  0  0  0  0  0  0
  -23.1428   -9.0680   19.8192 C   0  0  0  0  0  0  0  0  0  0  0  0
  -26.7028  -26.8739   19.3726 C   0  0  0  0  0  0  0  0  0  0  0  0
  -21.7007   -7.2312   20.0816 C   0  0  0  0  0  0  0  0  0  0  0  0
  -19.8543   -5.8375   21.6407 C   0  0  0  0  0  0  0  0  0  0  0  0
  -20.5130   -7.8482   20.4746 C   0  0  0  0  0  0  0  0  0  0  0  0
  -24.7747  -12.6309   21.4131 C   0  0  0  0  0  0  0  0  0  0  0  0
  -25.0516  -14.5834   22.3859 C   0  0  0  0  0  0  0  0  0  0  0  0
  -22.6806  -13.7925   22.3514 C   0  0  0  0  0  0  0  0  0  0  0  0
  -24.6209  -29.2226   23.8013 C   0  0  0  0  0  0  0  0  0  0  0  0
  -21.6913  -28.2301   22.8245 C   0  0  0  0  0  0  0  0  0  0  0  0
  -19.8224  -26.5503   20.5152 C   0  0  0  0  0  0  0  0  0  0  0  0
  -29.5660  -17.5109   20.5845 C   0  0  0  0  0  0  0  0  0  0  0  0
  -26.5066  -32.6968   27.0311 C   0  0  0  0  0  0  0  0  0  0  0  0
  -24.5901  -30.0218   21.4104 C   0  0  0  0  0  0  0  0  0  0  0  0
  -23.6775  -27.2186   21.6425 C   0  0  0  0  0  0  0  0  0  0  0  0
  -25.2015  -31.9145   26.9091 C   0  0  0  0  0  0  0  0  0  0  0  0
  -30.0878  -14.2542   22.2374 C   0  0  0  0  0  0  0  0  0  0  0  0
  -25.4861  -30.4313   26.6948 C   0  0  0  0  0  0  0  0  0  0  0  0
  -28.7058  -13.6077   22.1598 C   0  0  0  0  0  0  0  0  0  0  0  0
  -30.3344  -15.2066   21.0712 C   0  0  0  0  0  0  0  0  0  0  0  0
  -27.9020  -15.6086   20.8424 C   0  0  0  0  0  0  0  0  0  0  0  0
  -26.2637  -30.2012   25.3933 C   0  0  1  0  0  0  0  0  0  0  0  0
  -23.7708  -29.5402   22.6038 C   0  0  1  0  0  0  0  0  0  0  0  0
  -27.6068  -14.6761   22.0270 C   0  0  1  0  0  0  0  0  0  0  0  0
  -27.9789  -18.8992   18.3253 C   0  0  0  0  0  0  0  0  0  0  0  0
  -29.3430  -23.3667   21.7249 C   0  0  0  0  0  0  0  0  0  0  0  0
  -17.4593  -25.8765   20.0066 C   0  0  0  0  0  0  0  0  0  0  0  0
  -21.8547  -26.0551   24.9582 C   0  0  0  0  0  0  0  0  0  0  0  0
  -19.9771  -24.8732   23.7980 C   0  0  0  0  0  0  0  0  0  0  0  0
  -19.6151  -27.1491   24.7530 C   0  0  0  0  0  0  0  0  0  0  0  0
  -28.0368  -18.2710   22.3883 C   0  0  0  0  0  0  0  0  0  0  0  0
  -19.8163  -28.0620   17.9709 C   0  0  0  0  0  0  0  0  0  0  0  0
  -28.6034  -23.8140   18.9157 C   0  0  0  0  0  0  0  0  0  0  0  0
  -27.3551  -24.5874   19.3264 C   0  0  0  0  0  0  0  0  0  1  0  0
  -21.0151  -26.8899   22.6638 C   0  0  1  0  0  0  0  0  0  0  0  0
  -18.5410  -26.9236   19.7920 C   0  0  2  0  0  0  0  0  0  0  0  0
  -20.6395  -26.2482   24.0293 C   0  0  0  0  0  0  0  0  0  0  0  0
  -26.0868  -12.8650   21.3261 N   0  0  0  0  0  0  0  0  0  0  0  0
  -26.2240  -14.0596   21.9261 N   0  0  0  0  0  0  0  0  0  0  0  0
  -22.9888  -28.3388   22.3046 N   0  0  0  0  0  0  0  0  0  0  0  0
  -29.2526  -16.1834   20.9393 N   0  0  0  0  0  0  0  0  0  0  0  0
  -25.0092  -15.7773   23.0146 N   0  0  0  0  0  0  0  0  0  0  0  0
  -21.8215  -12.7601   21.9506 N   0  0  0  0  0  0  0  0  0  0  0  0
  -25.3770  -30.2875   24.2528 N   0  0  0  0  0  0  0  0  0  0  0  0
  -19.8798  -27.1095   21.7743 N   0  0  0  0  0  0  0  0  0  0  0  0
  -28.7171  -18.5085   21.1110 N   0  0  0  0  0  0  0  0  0  0  0  0
  -18.7901  -27.0489   18.3280 N   0  3  0  0  0  0  0  0  0  0  0  0
  -22.2039  -14.7973   22.9316 O   0  0  0  0  0  0  0  0  0  0  0  0
  -24.5919  -28.0954   24.2810 O   0  0  0  0  0  0  0  0  0  0  0  0
  -21.0876  -29.1488   23.3841 O   0  0  0  0  0  0  0  0  0  0  0  0
  -20.6845  -25.8312   20.0148 O   0  0  0  0  0  0  0  0  0  0  0  0
  -30.5439  -17.7840   19.8784 O   0  0  0  0  0  0  0  0  0  0  0  0
  -22.6178   -7.9215   19.3070 O   0  0  0  0  0  0  0  0  0  0  0  0
  -27.3689  -25.8806   18.7233 O   0  0  0  0  0  0  0  0  0  1  0  0
  -18.9672   -5.1676   22.3881 F   0  0  0  0  0  0  0  0  0  0  0  0
  -20.2529   -9.1099   20.1053 F   0  0  0  0  0  0  0  0  0  0  0  0
  1  2  1  0  0  0  0
  1  5  2  0  0  0  0
  2  6  2  0  0  0  0
  3  8  2  0  0  0  0
  3 17  1  0  0  0  0
  4  9  1  0  0  0  0
  4 17  2  0  0  0  0
  5 19  1  0  0  0  0
  6 21  1  0  0  0  0
  7 10  2  0  0  0  0
  7 20  1  0  0  0  0
  8 27  1  0  0  0  0
  9 27  2  0  0  0  0
 10 28  1  0  0  0  0
 11 12  2  0  0  0  0
 11 29  1  0  0  0  0
 12 30  1  0  0  0  0
 13 22  1  0  0  0  0
 13 28  2  0  0  0  0
 14 23  1  0  0  0  0
 14 24  2  0  0  0  0
 15 25  1  0  0  0  0
 15 26  2  0  0  0  0
 16 30  2  0  0  0  0
 16 31  1  0  0  0  0
 17 32  1  0  0  0  0
 18 32  1  0  0  0  0
 18 33  2  0  0  0  0
 18 34  1  0  0  0  0
 19 21  2  0  0  0  0
 19 39  1  0  0  0  0
 20 22  2  0  0  0  0
 20 40  1  0  0  0  0
 21 48  1  0  0  0  0
 22 41  1  0  0  0  0
 23 25  2  0  0  0  0
 23 59  1  0  0  0  0
 24 26  1  0  0  0  0
 24 51  1  0  0  0  0
 25 52  1  0  0  0  0
 26 72  1  0  0  0  0
 27 79  1  0  0  0  0
 28 80  1  0  0  0  0
 29 31  2  0  0  0  0
 29 79  1  0  0  0  0
 30 81  1  0  0  0  0
 31 82  1  0  0  0  0
 32 64  2  0  0  0  0
 33 65  1  0  0  0  0
 33 68  1  0  0  0  0
 34 69  1  0  0  0  0
 34 74  2  0  0  0  0
 35 49  1  0  0  0  0
 35 70  1  0  0  0  0
 35 75  2  0  0  0  0
 36 61  1  0  0  0  0
 36 66  1  0  0  0  0
 36 76  2  0  0  0  0
 37 62  1  0  0  0  0
 37 71  1  0  0  0  0
 37 77  2  0  0  0  0
 38 67  1  0  0  0  0
 38 72  1  0  0  0  0
 38 78  2  0  0  0  0
 39 42  1  0  0  0  0
 40 49  1  0  0  0  0
 41 66  1  0  0  0  0
 42 44  1  0  0  0  0
 43 45  1  0  0  0  0
 43 46  1  0  0  0  0
 44 48  1  0  0  0  0
 45 50  1  0  0  0  0
 46 67  1  0  0  0  0
 47 50  1  0  0  0  0
 47 67  1  0  0  0  0
 48 70  1  0  0  0  0
 49 66  1  0  0  0  0
 50 65  1  0  0  0  0
 53 62  1  0  0  0  0
 54 63  1  0  0  0  0
 55 63  1  0  0  0  0
 56 63  1  0  0  0  0
 57 72  1  0  0  0  0
 58 73  1  0  0  0  0
 59 60  1  0  0  0  0
 60 80  1  0  0  0  0
 61 63  1  0  0  0  0
 61 71  1  0  0  0  0
 62 73  1  0  0  0  0
 64 65  1  0  0  0  0
M  CHG  1  73   1
M  ISO  4  38 100  60 101  72 100  80 101
M  END
> <Batch ID>
0019

> <Smiles>
CNC(C)C(=O)NC(C(=O)N1Cc2cc([101O:1][101CH2:1]Cc3cc(C)c([100N:0](C)[100C:0](=O)N4CCCC(n5nc(-c6ccc(Oc7ccc(F)cc7F)cc6)c(C(N)=O)c5N)C4)cc3C)ccc2CC1C(=O)NC1CCCc2ccccc21)C(C)(C)C

> <Shape>
0.316

> <Color>
0.066

> <Negative vol penalty>
0.000

$$$$

  -OEChem-04052316073D

 88 96  0     1  0  0  0  0  0999 V2000
  -30.0542  -23.9735   18.8699 C   0  0  0  0  0  0  0  0  0  0  0  0
  -28.8861  -24.6577   18.5530 C   0  0  0  0  0  0  0  0  0  0  0  0
  -27.0108  -12.6577   21.4822 C   0  0  0  0  0  0  0  0  0  0  0  0
  -26.4199  -13.8912   19.4906 C   0  0  0  0  0  0  0  0  0  0  0  0
  -30.5736  -24.0493   20.1605 C   0  0  0  0  0  0  0  0  0  0  0  0
  -28.2436  -25.4276   19.5233 C   0  0  0  0  0  0  0  0  0  0  0  0
  -22.9879  -28.5024   19.2998 C   0  0  0  0  0  0  0  0  0  0  0  0
  -26.2667  -11.5686   21.0285 C   0  0  0  0  0  0  0  0  0  0  0  0
  -25.6758  -12.8021   19.0369 C   0  0  0  0  0  0  0  0  0  0  0  0
  -21.6444  -28.2663   19.5882 C   0  0  0  0  0  0  0  0  0  0  0  0
  -24.2277   -8.5940   20.5615 C   0  0  0  0  0  0  0  0  0  0  0  0
  -23.3887   -7.9546   21.4740 C   0  0  0  0  0  0  0  0  0  0  0  0
  -21.9377  -29.2817   21.7566 C   0  0  0  0  0  0  0  0  0  0  0  0
  -21.9487  -25.4530   22.1439 C   0  0  0  0  0  0  0  0  0  0  0  0
  -22.1737  -10.0170   21.8021 C   0  0  0  0  0  0  0  0  0  0  0  0
  -27.0874  -13.8190   20.7133 C   0  0  0  0  0  0  0  0  0  0  0  0
  -29.2173  -15.2047   20.9385 C   0  0  0  0  0  0  0  0  0  0  0  0
  -29.9297  -24.8107   21.1498 C   0  0  0  0  0  0  0  0  0  0  0  0
  -23.8204  -29.1212   20.2434 C   0  0  0  0  0  0  0  0  0  0  0  0
  -28.7653  -25.5360   20.8251 C   0  0  0  0  0  0  0  0  0  0  0  0
  -23.2907  -29.5269   21.4767 C   0  0  0  0  0  0  0  0  0  0  0  0
  -20.6439  -24.1000   20.6262 C   0  0  0  0  0  0  0  0  0  0  0  0
  -23.0304  -24.3080   20.3120 C   0  0  0  0  0  0  0  0  0  0  0  0
  -20.7183  -24.9327   21.7428 C   0  0  0  0  0  0  0  0  0  0  0  0
  -25.5993  -11.6408   19.8058 C   0  0  0  0  0  0  0  0  0  0  0  0
  -21.1198  -28.6534   20.8178 C   0  0  0  0  0  0  0  0  0  0  0  0
  -24.0399   -9.9450   20.2694 C   0  0  0  0  0  0  0  0  0  0  0  0
  -22.3616   -8.6661   22.0943 C   0  0  0  0  0  0  0  0  0  0  0  0
  -23.1048  -25.1407   21.4285 C   0  0  0  0  0  0  0  0  0  0  0  0
  -23.0129  -10.6564   20.8896 C   0  0  0  0  0  0  0  0  0  0  0  0
  -21.8000  -23.7876   19.9108 C   0  0  0  0  0  0  0  0  0  0  0  0
  -27.8554  -14.9446   21.1817 C   0  0  0  0  0  0  0  0  0  0  0  0
  -29.4640  -16.3853   21.5956 C   0  0  0  0  0  0  0  0  0  0  0  0
  -30.1739  -14.4469   20.1859 C   0  0  0  0  0  0  0  0  0  0  0  0
  -26.4387  -28.2641   21.8288 C   0  0  0  0  0  0  0  0  0  0  0  0
  -25.8499  -20.9007   23.2268 C   0  0  0  0  0  0  0  0  0  0  0  0
  -26.3685  -31.3477   22.8332 C   0  0  0  0  0  0  0  0  0  0  0  0
  -24.5322  -34.1660   23.4095 C   0  0  0  0  0  0  0  0  0  0  0  0
  -30.5396  -24.8642   22.5283 C   0  0  0  0  0  0  0  0  0  0  0  0
  -25.2609  -29.3929   19.9066 C   0  0  0  0  0  0  0  0  0  0  0  0
  -24.1375  -30.2131   22.5162 C   0  0  0  0  0  0  0  0  0  0  0  0
  -29.5575  -25.3372   23.5951 C   0  0  0  0  0  0  0  0  0  0  0  0
  -28.0084  -18.9717   25.3386 C   0  0  0  0  0  0  0  0  0  0  0  0
  -28.8646  -26.6112   23.1353 C   0  0  0  0  0  0  0  0  0  0  0  0
  -28.3146  -17.7307   24.5011 C   0  0  0  0  0  0  0  0  0  0  0  0
  -26.5850  -19.4672   25.1027 C   0  0  0  0  0  0  0  0  0  0  0  0
  -26.5699  -18.4937   22.8281 C   0  0  0  0  0  0  0  0  0  0  0  0
  -28.0325  -26.3550   21.8723 C   0  0  1  0  0  0  0  0  0  0  0  0
  -26.1406  -29.5663   21.1409 C   0  0  1  0  0  0  0  0  0  0  0  0
  -28.0081  -17.9784   23.0134 C   0  0  2  0  0  0  0  0  0  0  0  0
  -19.3139  -23.5490   20.2113 C   0  0  0  0  0  0  0  0  0  0  0  0
  -24.7448  -36.5145   24.2678 C   0  0  0  0  0  0  0  0  0  0  0  0
  -26.5000  -30.2885   25.6917 C   0  0  0  0  0  0  0  0  0  0  0  0
  -25.7608  -32.5442   26.4875 C   0  0  0  0  0  0  0  0  0  0  0  0
  -27.9184  -32.3024   25.2591 C   0  0  0  0  0  0  0  0  0  0  0  0
  -19.4823  -24.9054   23.8949 C   0  0  0  0  0  0  0  0  0  0  0  0
  -23.6588  -35.3132   20.8249 C   0  0  0  0  0  0  0  0  0  0  0  0
  -24.2933  -23.9984   19.5737 C   0  0  0  0  0  0  0  0  0  0  0  0
  -25.6110  -21.0338   21.7438 C   0  0  0  0  0  0  0  0  0  0  0  0
  -24.8226  -22.5942   19.8978 C   0  0  0  0  0  0  0  0  0  0  0  0
  -25.0934  -22.4259   21.3961 C   0  0  0  0  0  0  0  0  0  0  0  0
  -18.2416  -27.3074   22.5362 C   0  0  0  0  0  0  0  0  0  0  0  0
  -18.4601  -25.9547   21.8694 C   0  0  0  0  0  0  0  0  0  0  0  0
  -19.4695  -28.2080   22.4713 C   0  0  0  0  0  0  0  0  0  1  0  0
  -25.7405  -32.0798   23.9945 C   0  0  1  0  0  0  0  0  0  0  0  0
  -24.7731  -35.6184   23.0394 C   0  0  2  0  0  0  0  0  0  0  0  0
  -26.4642  -31.7891   25.3396 C   0  0  0  0  0  0  0  0  0  0  0  0
  -27.2773  -15.8843   21.9347 N   0  0  0  0  0  0  0  0  0  0  0  0
  -28.2810  -16.7464   22.1703 N   0  0  0  0  0  0  0  0  0  0  0  0
  -25.5415  -30.4509   22.1423 N   0  0  0  0  0  0  0  0  0  0  0  0
  -26.3263  -19.6690   23.6759 N   0  0  0  0  0  0  0  0  0  0  0  0
  -30.5754  -17.1395   21.7321 N   0  0  0  0  0  0  0  0  0  0  0  0
  -29.7528  -13.2578   19.5752 N   0  0  0  0  0  0  0  0  0  0  0  0
  -27.5640  -27.6201   21.3509 N   0  0  0  0  0  0  0  0  0  0  0  0
  -25.7151  -33.4902   23.6223 N   0  0  0  0  0  0  0  0  0  0  0  0
  -19.5689  -25.2591   22.4767 N   0  0  3  0  0  0  0  0  0  0  0  0
  -23.7272  -36.0910   22.0888 N   0  3  0  0  0  0  0  0  0  0  0  0
  -31.3707  -14.8050   20.0724 O   0  0  0  0  0  0  0  0  0  0  0  0
  -25.7031  -27.8734   22.7276 O   0  0  0  0  0  0  0  0  0  0  0  0
  -25.6221  -21.8649   23.9621 O   0  0  0  0  0  0  0  0  0  0  0  0
  -27.5474  -31.5690   22.5452 O   0  0  0  0  0  0  0  0  0  0  0  0
  -23.4071  -33.6805   23.5042 O   0  0  0  0  0  0  0  0  0  0  0  0
  -24.8733  -10.5782   19.3626 O   0  0  0  0  0  0  0  0  0  0  0  0
  -19.8090  -28.4235   21.1021 O   0  0  0  0  0  0  0  0  0  1  0  0
  -21.5550   -8.0515   22.9693 F   0  0  0  0  0  0  0  0  0  0  0  0
  -24.2818  -25.6466   21.8230 F   0  0  0  0  0  0  0  0  0  0  0  0
  -22.8267  -11.9542   20.6120 F   0  0  0  0  0  0  0  0  0  0  0  0
  -21.7109  -22.7540   18.5232 Cl  0  0  0  0  0  0  0  0  0  0  0  0
  1  2  1  0  0  0  0
  1  5  2  0  0  0  0
  2  6  2  0  0  0  0
  3  8  2  0  0  0  0
  3 16  1  0  0  0  0
  4  9  1  0  0  0  0
  4 16  2  0  0  0  0
  5 18  1  0  0  0  0
  6 20  1  0  0  0  0
  7 10  2  0  0  0  0
  7 19  1  0  0  0  0
  8 25  1  0  0  0  0
  9 25  2  0  0  0  0
 10 26  1  0  0  0  0
 11 12  2  0  0  0  0
 11 27  1  0  0  0  0
 12 28  1  0  0  0  0
 13 21  1  0  0  0  0
 13 26  2  0  0  0  0
 14 24  1  0  0  0  0
 14 29  2  0  0  0  0
 15 28  2  0  0  0  0
 15 30  1  0  0  0  0
 16 32  1  0  0  0  0
 17 32  1  0  0  0  0
 17 33  2  0  0  0  0
 17 34  1  0  0  0  0
 18 20  2  0  0  0  0
 18 39  1  0  0  0  0
 19 21  2  0  0  0  0
 19 40  1  0  0  0  0
 20 48  1  0  0  0  0
 21 41  1  0  0  0  0
 22 24  2  0  0  0  0
 22 31  1  0  0  0  0
 22 51  1  0  0  0  0
 23 29  1  0  0  0  0
 23 31  2  0  0  0  0
 23 58  1  0  0  0  0
 24 76  1  0  0  0  0
 25 83  1  0  0  0  0
 26 84  1  0  0  0  0
 27 30  2  0  0  0  0
 27 83  1  0  0  0  0
 28 85  1  0  0  0  0
 29 86  1  0  0  0  0
 30 87  1  0  0  0  0
 31 88  1  0  0  0  0
 32 68  2  0  0  0  0
 33 69  1  0  0  0  0
 33 72  1  0  0  0  0
 34 73  1  0  0  0  0
 34 78  2  0  0  0  0
 35 49  1  0  0  0  0
 35 74  1  0  0  0  0
 35 79  2  0  0  0  0
 36 59  1  0  0  0  0
 36 71  1  0  0  0  0
 36 80  2  0  0  0  0
 37 65  1  0  0  0  0
 37 70  1  0  0  0  0
 37 81  2  0  0  0  0
 38 66  1  0  0  0  0
 38 75  1  0  0  0  0
 38 82  2  0  0  0  0
 39 42  1  0  0  0  0
 40 49  1  0  0  0  0
 41 70  1  0  0  0  0
 42 44  1  0  0  0  0
 43 45  1  0  0  0  0
 43 46  1  0  0  0  0
 44 48  1  0  0  0  0
 45 50  1  0  0  0  0
 46 71  1  0  0  0  0
 47 50  1  0  0  0  0
 47 71  1  0  0  0  0
 48 74  1  0  0  0  0
 49 70  1  0  0  0  0
 50 69  1  0  0  0  0
 52 66  1  0  0  0  0
 53 67  1  0  0  0  0
 54 67  1  0  0  0  0
 55 67  1  0  0  0  0
 56 76  1  0  0  0  0
 57 77  1  0  0  0  0
 58 60  1  0  0  0  0
 59 61  1  0  0  0  0
 60 61  1  0  0  0  0
 62 63  1  0  0  0  0
 62 64  1  0  0  0  0
 63 76  1  0  0  0  0
 64 84  1  0  0  0  0
 65 67  1  0  0  0  0
 65 75  1  0  0  0  0
 66 77  1  0  0  0  0
 68 69  1  0  0  0  0
M  CHG  1  77   1
M  ISO  4  36 100  59 100  64 101  84 101
M  END
> <Batch ID>
0019

> <Smiles>
CNC(C)C(=O)NC(C(=O)N1Cc2cc([101O:1][101CH2:1]CCN(C)c3cc(F)c(CCC[100CH2:0][100C:0](=O)N4CCCC(n5nc(-c6ccc(Oc7ccc(F)cc7F)cc6)c(C(N)=O)c5N)C4)c(Cl)c3C)ccc2CC1C(=O)NC1CCCc2ccccc21)C(C)(C)C

> <Shape>
0.300

> <Color>
0.089

> <Negative vol penalty>
0.000

$$$$

  -OEChem-04052316073D

 82 90  0     1  0  0  0  0  0999 V2000
  -32.6811  -36.1805   19.9934 C   0  0  0  0  0  0  0  0  0  0  0  0
  -32.6478  -34.9537   19.3382 C   0  0  0  0  0  0  0  0  0  0  0  0
  -23.3582  -11.6126   19.2753 C   0  0  0  0  0  0  0  0  0  0  0  0
  -23.8670  -10.2381   21.1959 C   0  0  0  0  0  0  0  0  0  0  0  0
  -32.2363  -36.2779   21.3112 C   0  0  0  0  0  0  0  0  0  0  0  0
  -32.1706  -33.8233   20.0008 C   0  0  0  0  0  0  0  0  0  0  0  0
  -28.6406  -27.7107   18.7799 C   0  0  0  0  0  0  0  0  0  0  0  0
  -22.6673  -10.5481   18.6964 C   0  0  0  0  0  0  0  0  0  0  0  0
  -23.1761   -9.1735   20.6170 C   0  0  0  0  0  0  0  0  0  0  0  0
  -28.7533  -26.3390   19.0022 C   0  0  0  0  0  0  0  0  0  0  0  0
  -19.6382   -9.0790   19.0111 C   0  0  0  0  0  0  0  0  0  0  0  0
  -18.3962   -9.3483   18.4362 C   0  0  0  0  0  0  0  0  0  0  0  0
  -27.9369  -26.6426   21.2518 C   0  0  0  0  0  0  0  0  0  0  0  0
  -28.0300  -21.3680   19.3220 C   0  0  0  0  0  0  0  0  0  0  0  0
  -19.2171   -8.5739   16.3000 C   0  0  0  0  0  0  0  0  0  0  0  0
  -23.9581  -11.4576   20.5250 C   0  0  0  0  0  0  0  0  0  0  0  0
  -24.1483  -13.5493   21.9728 C   0  0  0  0  0  0  0  0  0  0  0  0
  -31.7444  -35.1501   21.9871 C   0  0  0  0  0  0  0  0  0  0  0  0
  -28.1847  -28.5615   19.7971 C   0  0  0  0  0  0  0  0  0  0  0  0
  -31.7201  -33.9055   21.3293 C   0  0  0  0  0  0  0  0  0  0  0  0
  -27.8169  -28.0244   21.0390 C   0  0  0  0  0  0  0  0  0  0  0  0
  -29.0152  -22.2295   19.8044 C   0  0  0  0  0  0  0  0  0  0  0  0
  -28.0280  -20.0267   19.7049 C   0  0  0  0  0  0  0  0  0  0  0  0
  -29.9985  -21.7498   20.6696 C   0  0  0  0  0  0  0  0  0  0  0  0
  -29.9965  -20.4085   21.0525 C   0  0  0  0  0  0  0  0  0  0  0  0
  -29.0112  -19.5469   20.5701 C   0  0  0  0  0  0  0  0  0  0  0  0
  -22.5762   -9.3286   19.3673 C   0  0  0  0  0  0  0  0  0  0  0  0
  -28.4042  -25.8051   20.2392 C   0  0  0  0  0  0  0  0  0  0  0  0
  -20.6697   -8.5573   18.2304 C   0  0  0  0  0  0  0  0  0  0  0  0
  -18.1856   -9.0958   17.0807 C   0  0  0  0  0  0  0  0  0  0  0  0
  -20.4591   -8.3047   16.8749 C   0  0  0  0  0  0  0  0  0  0  0  0
  -24.6724  -12.5567   21.1232 C   0  0  0  0  0  0  0  0  0  0  0  0
  -25.2227  -14.3536   22.2648 C   0  0  0  0  0  0  0  0  0  0  0  0
  -22.8100  -13.7283   22.4550 C   0  0  0  0  0  0  0  0  0  0  0  0
  -29.4292  -31.0073   21.4012 C   0  0  0  0  0  0  0  0  0  0  0  0
  -26.4378  -31.2130   22.6388 C   0  0  0  0  0  0  0  0  0  0  0  0
  -23.4905  -29.6544   23.3678 C   0  0  0  0  0  0  0  0  0  0  0  0
  -29.6997  -17.1801   20.2247 C   0  0  0  0  0  0  0  0  0  0  0  0
  -31.3187  -35.2950   23.4268 C   0  0  0  0  0  0  0  0  0  0  0  0
  -28.0435  -30.0355   19.5326 C   0  0  0  0  0  0  0  0  0  0  0  0
  -27.3028  -28.8924   22.1574 C   0  0  0  0  0  0  0  0  0  0  0  0
  -30.4784  -34.1259   23.9340 C   0  0  0  0  0  0  0  0  0  0  0  0
  -30.1594  -13.7190   21.4161 C   0  0  0  0  0  0  0  0  0  0  0  0
  -31.1128  -32.7983   23.5319 C   0  0  0  0  0  0  0  0  0  0  0  0
  -28.7311  -13.1778   21.4493 C   0  0  0  0  0  0  0  0  0  0  0  0
  -30.3354  -14.7887   20.3425 C   0  0  0  0  0  0  0  0  0  0  0  0
  -27.9335  -15.3726   20.4839 C   0  0  0  0  0  0  0  0  0  0  0  0
  -31.1863  -32.6617   22.0063 C   0  0  1  0  0  0  0  0  0  0  0  0
  -28.0557  -30.8749   20.8065 C   0  0  1  0  0  0  0  0  0  0  0  0
  -27.7132  -14.3235   21.5843 C   0  0  1  0  0  0  0  0  0  0  0  0
  -26.9585  -19.1287   19.1722 C   0  0  0  0  0  0  0  0  0  0  0  0
  -31.0537  -22.6765   21.1851 C   0  0  0  0  0  0  0  0  0  0  0  0
  -31.0542  -19.8986   21.9812 C   0  0  0  0  0  0  0  0  0  0  0  0
  -21.2474  -30.0715   24.4127 C   0  0  0  0  0  0  0  0  0  0  0  0
  -27.7123  -31.1123   25.4093 C   0  0  0  0  0  0  0  0  0  0  0  0
  -25.4554  -30.5765   26.3516 C   0  0  0  0  0  0  0  0  0  0  0  0
  -25.8340  -32.7481   25.1839 C   0  0  0  0  0  0  0  0  0  0  0  0
  -28.4708  -17.8118   22.2888 C   0  0  0  0  0  0  0  0  0  0  0  0
  -22.0701  -29.0154   20.8513 C   0  0  0  0  0  0  0  0  0  0  0  0
  -28.9936  -23.6680   19.3782 C   0  0  0  0  0  0  0  0  0  1  0  0
  -25.7305  -30.6148   23.8309 C   0  0  1  0  0  0  0  0  0  0  0  0
  -22.0487  -30.0596   23.1202 C   0  0  2  0  0  0  0  0  0  0  0  0
  -26.1946  -31.2465   25.1737 C   0  0  0  0  0  0  0  0  0  0  0  0
  -25.9782  -12.7140   20.8905 N   0  0  0  0  0  0  0  0  0  0  0  0
  -26.2836  -13.8150   21.5981 N   0  0  0  0  0  0  0  0  0  0  0  0
  -27.1885  -30.3281   21.8520 N   0  0  0  0  0  0  0  0  0  0  0  0
  -29.3273  -15.8424   20.4657 N   0  0  0  0  0  0  0  0  0  0  0  0
  -25.3540  -15.4620   23.0242 N   0  0  0  0  0  0  0  0  0  0  0  0
  -21.8282  -12.8106   22.0573 N   0  0  0  0  0  0  0  0  0  0  0  0
  -29.8905  -32.3082   21.4675 N   0  0  0  0  0  0  0  0  0  0  0  0
  -24.3019  -30.7511   23.5686 N   0  0  0  0  0  0  0  0  0  0  0  0
  -29.0049  -18.1589   20.9678 N   0  0  0  0  0  0  0  0  0  0  0  0
  -21.3990  -29.1096   22.1733 N   0  3  0  0  0  0  0  0  0  0  0  0
  -22.4906  -14.6835   23.2027 O   0  0  0  0  0  0  0  0  0  0  0  0
  -30.0255  -30.0037   21.7738 O   0  0  0  0  0  0  0  0  0  0  0  0
  -26.3224  -32.4196   22.4100 O   0  0  0  0  0  0  0  0  0  0  0  0
  -23.8595  -28.4822   23.3854 O   0  0  0  0  0  0  0  0  0  0  0  0
  -30.6016  -17.4734   19.4309 O   0  0  0  0  0  0  0  0  0  0  0  0
  -21.9020   -8.2897   18.8028 O   0  0  0  0  0  0  0  0  0  0  0  0
  -28.5138  -24.4666   20.4591 O   0  0  0  0  0  0  0  0  0  1  0  0
  -16.9924   -9.3530   16.5291 F   0  0  0  0  0  0  0  0  0  0  0  0
  -21.4459   -7.8024   16.1201 F   0  0  0  0  0  0  0  0  0  0  0  0
  1  2  1  0  0  0  0
  1  5  2  0  0  0  0
  2  6  2  0  0  0  0
  3  8  2  0  0  0  0
  3 16  1  0  0  0  0
  4  9  1  0  0  0  0
  4 16  2  0  0  0  0
  5 18  1  0  0  0  0
  6 20  1  0  0  0  0
  7 10  2  0  0  0  0
  7 19  1  0  0  0  0
  8 27  1  0  0  0  0
  9 27  2  0  0  0  0
 10 28  1  0  0  0  0
 11 12  2  0  0  0  0
 11 29  1  0  0  0  0
 12 30  1  0  0  0  0
 13 21  1  0  0  0  0
 13 28  2  0  0  0  0
 14 22  1  0  0  0  0
 14 23  2  0  0  0  0
 15 30  2  0  0  0  0
 15 31  1  0  0  0  0
 16 32  1  0  0  0  0
 17 32  1  0  0  0  0
 17 33  2  0  0  0  0
 17 34  1  0  0  0  0
 18 20  2  0  0  0  0
 18 39  1  0  0  0  0
 19 21  2  0  0  0  0
 19 40  1  0  0  0  0
 20 48  1  0  0  0  0
 21 41  1  0  0  0  0
 22 24  2  0  0  0  0
 22 60  1  0  0  0  0
 23 26  1  0  0  0  0
 23 51  1  0  0  0  0
 24 25  1  0  0  0  0
 24 52  1  0  0  0  0
 25 26  2  0  0  0  0
 25 53  1  0  0  0  0
 26 72  1  0  0  0  0
 27 79  1  0  0  0  0
 28 80  1  0  0  0  0
 29 31  2  0  0  0  0
 29 79  1  0  0  0  0
 30 81  1  0  0  0  0
 31 82  1  0  0  0  0
 32 64  2  0  0  0  0
 33 65  1  0  0  0  0
 33 68  1  0  0  0  0
 34 69  1  0  0  0  0
 34 74  2  0  0  0  0
 35 49  1  0  0  0  0
 35 70  1  0  0  0  0
 35 75  2  0  0  0  0
 36 61  1  0  0  0  0
 36 66  1  0  0  0  0
 36 76  2  0  0  0  0
 37 62  1  0  0  0  0
 37 71  1  0  0  0  0
 37 77  2  0  0  0  0
 38 67  1  0  0  0  0
 38 72  1  0  0  0  0
 38 78  2  0  0  0  0
 39 42  1  0  0  0  0
 40 49  1  0  0  0  0
 41 66  1  0  0  0  0
 42 44  1  0  0  0  0
 43 45  1  0  0  0  0
 43 46  1  0  0  0  0
 44 48  1  0  0  0  0
 45 50  1  0  0  0  0
 46 67  1  0  0  0  0
 47 50  1  0  0  0  0
 47 67  1  0  0  0  0
 48 70  1  0  0  0  0
 49 66  1  0  0  0  0
 50 65  1  0  0  0  0
 54 62  1  0  0  0  0
 55 63  1  0  0  0  0
 56 63  1  0  0  0  0
 57 63  1  0  0  0  0
 58 72  1  0  0  0  0
 59 73  1  0  0  0  0
 60 80  1  0  0  0  0
 61 63  1  0  0  0  0
 61 71  1  0  0  0  0
 62 73  1  0  0  0  0
 64 65  1  0  0  0  0
M  CHG  1  73   1
M  ISO  4  38 100  60 101  72 100  80 101
M  END
> <Batch ID>
0019

> <Smiles>
CNC(C)C(=O)NC(C(=O)N1Cc2cc([101O:1][101CH2:1]c3cc(C)c([100N:0](C)[100C:0](=O)N4CCCC(n5nc(-c6ccc(Oc7ccc(F)cc7F)cc6)c(C(N)=O)c5N)C4)c(C)c3C)ccc2CC1C(=O)NC1CCCc2ccccc21)C(C)(C)C

> <Shape>
0.262

> <Color>
0.099

> <Negative vol penalty>
0.000

$$$$

  -OEChem-04052316073D

 83 91  0     1  0  0  0  0  0999 V2000
  -29.1955  -24.5348   17.5437 C   0  0  0  0  0  0  0  0  0  0  0  0
  -28.0463  -24.5992   18.3251 C   0  0  0  0  0  0  0  0  0  0  0  0
  -25.9546  -13.1108   19.5248 C   0  0  0  0  0  0  0  0  0  0  0  0
  -24.1619  -13.2188   21.1408 C   0  0  0  0  0  0  0  0  0  0  0  0
  -30.2973  -25.3287   17.8597 C   0  0  0  0  0  0  0  0  0  0  0  0
  -27.9985  -25.4568   19.4236 C   0  0  0  0  0  0  0  0  0  0  0  0
  -23.6559  -28.0495   19.6768 C   0  0  0  0  0  0  0  0  0  0  0  0
  -26.1174  -11.7523   19.7961 C   0  0  0  0  0  0  0  0  0  0  0  0
  -24.3247  -11.8603   21.4121 C   0  0  0  0  0  0  0  0  0  0  0  0
  -22.5384  -27.3737   20.1649 C   0  0  0  0  0  0  0  0  0  0  0  0
  -23.4659   -8.9175   19.9897 C   0  0  0  0  0  0  0  0  0  0  0  0
  -22.3160   -8.1324   20.0721 C   0  0  0  0  0  0  0  0  0  0  0  0
  -22.8562  -28.4154   22.3174 C   0  0  0  0  0  0  0  0  0  0  0  0
  -22.8741   -7.5540   22.3505 C   0  0  0  0  0  0  0  0  0  0  0  0
  -24.9769  -13.8441   20.1972 C   0  0  0  0  0  0  0  0  0  0  0  0
  -23.9687  -15.8264   18.9476 C   0  0  0  0  0  0  0  0  0  0  0  0
  -30.2595  -26.2035   18.9569 C   0  0  0  0  0  0  0  0  0  0  0  0
  -24.3896  -28.9064   20.5098 C   0  0  0  0  0  0  0  0  0  0  0  0
  -29.1013  -26.2621   19.7553 C   0  0  0  0  0  0  0  0  0  0  0  0
  -23.9811  -29.1028   21.8367 C   0  0  0  0  0  0  0  0  0  0  0  0
  -25.3024  -11.1270   20.7398 C   0  0  0  0  0  0  0  0  0  0  0  0
  -22.1400  -27.5544   21.4862 C   0  0  0  0  0  0  0  0  0  0  0  0
  -24.3200   -9.0209   21.0877 C   0  0  0  0  0  0  0  0  0  0  0  0
  -22.0201   -7.4506   21.2525 C   0  0  0  0  0  0  0  0  0  0  0  0
  -24.0241   -8.3391   22.2681 C   0  0  0  0  0  0  0  0  0  0  0  0
  -22.3039  -23.6127   22.9483 C   0  0  0  0  0  0  0  0  0  0  0  0
  -24.8087  -15.2475   19.9177 C   0  0  0  0  0  0  0  0  0  0  0  0
  -20.9867  -24.0921   22.8174 C   0  0  0  0  0  0  0  0  0  0  0  0
  -24.1701  -17.1784   19.0818 C   0  0  0  0  0  0  0  0  0  0  0  0
  -22.3948  -22.6018   22.0230 C   0  0  0  0  0  0  0  0  0  0  0  0
  -23.0855  -15.1982   18.0090 C   0  0  0  0  0  0  0  0  0  0  0  0
  -27.3793  -28.9699   21.5873 C   0  0  0  0  0  0  0  0  0  0  0  0
  -26.4731  -31.8441   22.7871 C   0  0  0  0  0  0  0  0  0  0  0  0
  -23.9412  -33.8774   23.8367 C   0  0  0  0  0  0  0  0  0  0  0  0
  -24.7472  -21.7271   22.2409 C   0  0  0  0  0  0  0  0  0  0  0  0
  -31.4922  -27.0073   19.2872 C   0  0  0  0  0  0  0  0  0  0  0  0
  -25.5769  -29.6486   19.9605 C   0  0  0  0  0  0  0  0  0  0  0  0
  -24.7226  -30.0274   22.7661 C   0  0  0  0  0  0  0  0  0  0  0  0
  -31.2257  -28.1650   20.2458 C   0  0  0  0  0  0  0  0  0  0  0  0
  -27.6562  -19.7452   21.7048 C   0  0  0  0  0  0  0  0  0  0  0  0
  -30.3696  -27.7000   21.4195 C   0  0  0  0  0  0  0  0  0  0  0  0
  -27.1056  -18.4460   21.1123 C   0  0  0  0  0  0  0  0  0  0  0  0
  -26.7262  -20.3210   22.7714 C   0  0  0  0  0  0  0  0  0  0  0  0
  -24.7812  -19.2015   21.7552 C   0  0  0  0  0  0  0  0  0  0  0  0
  -29.0021  -27.1982   20.9402 C   0  0  1  0  0  0  0  0  0  0  0  0
  -26.5524  -30.1002   21.0430 C   0  0  1  0  0  0  0  0  0  0  0  0
  -25.6518  -18.6182   20.6303 C   0  0  2  0  0  0  0  0  0  0  0  0
  -21.3107  -22.0430   19.0108 C   0  0  0  0  0  0  0  0  0  0  0  0
  -23.5142  -36.1554   24.7990 C   0  0  0  0  0  0  0  0  0  0  0  0
  -20.2528  -24.9843   25.1292 C   0  0  0  0  0  0  0  0  0  0  0  0
  -18.8459  -25.3752   23.1178 C   0  0  0  0  0  0  0  0  0  0  0  0
  -27.4466  -30.8733   25.5110 C   0  0  0  0  0  0  0  0  0  0  0  0
  -26.1564  -32.7443   26.5612 C   0  0  0  0  0  0  0  0  0  0  0  0
  -28.0217  -33.2494   24.9838 C   0  0  0  0  0  0  0  0  0  0  0  0
  -22.2986  -34.6800   21.5093 C   0  0  0  0  0  0  0  0  0  0  0  0
  -20.7672  -21.6329   20.3687 C   0  0  0  0  0  0  0  0  0  0  0  0
  -21.0467  -26.5700   23.3548 C   0  0  0  0  0  0  0  0  0  1  0  0
  -25.8530  -32.3153   24.0803 C   0  0  1  0  0  0  0  0  0  0  0  0
  -23.6203  -35.3285   23.5271 C   0  0  2  0  0  0  0  0  0  0  0  0
  -20.3070  -25.2299   23.6021 C   0  0  0  0  0  0  0  0  0  0  0  0
  -26.8564  -32.2766   25.2674 C   0  0  0  0  0  0  0  0  0  0  0  0
  -25.4927  -16.1573   20.6166 N   0  0  0  0  0  0  0  0  0  0  0  0
  -20.2910  -23.4396   21.8825 N   0  0  0  0  0  0  0  0  0  0  0  0
  -25.0830  -17.3216   20.0849 N   0  0  0  0  0  0  0  0  0  0  0  0
  -21.1743  -22.5398   21.4174 N   0  0  0  0  0  0  0  0  0  0  0  0
  -25.8806  -30.7257   22.1839 N   0  0  0  0  0  0  0  0  0  0  0  0
  -25.3678  -20.4599   22.2420 N   0  0  0  0  0  0  0  0  0  0  0  0
  -23.6535  -18.2469   18.4384 N   0  0  0  0  0  0  0  0  0  0  0  0
  -22.9993  -13.7993   18.0058 N   0  0  0  0  0  0  0  0  0  0  0  0
  -23.4692  -21.7427   21.6833 N   0  0  0  0  0  0  0  0  0  0  0  0
  -28.1335  -28.3142   20.6329 N   0  0  0  0  0  0  0  0  0  0  0  0
  -25.2987  -33.6373   23.8093 N   0  0  0  0  0  0  0  0  0  0  0  0
  -22.3274  -35.4278   22.7927 N   0  3  0  0  0  0  0  0  0  0  0  0
  -22.4055  -15.8571   17.1862 O   0  0  0  0  0  0  0  0  0  0  0  0
  -27.3375  -28.7126   22.7847 O   0  0  0  0  0  0  0  0  0  0  0  0
  -27.4430  -32.4506   22.3252 O   0  0  0  0  0  0  0  0  0  0  0  0
  -23.0744  -33.0413   24.0824 O   0  0  0  0  0  0  0  0  0  0  0  0
  -25.3188  -22.7300   22.6761 O   0  0  0  0  0  0  0  0  0  0  0  0
  -25.4608   -9.8014   21.0046 O   0  0  0  0  0  0  0  0  0  0  0  0
  -21.0500  -26.8955   21.9654 O   0  0  0  0  0  0  0  0  0  1  0  0
  -20.9150   -6.6979   21.3320 F   0  0  0  0  0  0  0  0  0  0  0  0
  -24.8402   -8.4355   23.3266 F   0  0  0  0  0  0  0  0  0  0  0  0
  -23.4876  -24.1793   24.0190 Cl  0  0  0  0  0  0  0  0  0  0  0  0
  1  2  1  0  0  0  0
  1  5  2  0  0  0  0
  2  6  2  0  0  0  0
  3  8  2  0  0  0  0
  3 15  1  0  0  0  0
  4  9  1  0  0  0  0
  4 15  2  0  0  0  0
  5 17  1  0  0  0  0
  6 19  1  0  0  0  0
  7 10  2  0  0  0  0
  7 18  1  0  0  0  0
  8 21  1  0  0  0  0
  9 21  2  0  0  0  0
 10 22  1  0  0  0  0
 11 12  2  0  0  0  0
 11 23  1  0  0  0  0
 12 24  1  0  0  0  0
 13 20  1  0  0  0  0
 13 22  2  0  0  0  0
 14 24  2  0  0  0  0
 14 25  1  0  0  0  0
 15 27  1  0  0  0  0
 16 27  1  0  0  0  0
 16 29  2  0  0  0  0
 16 31  1  0  0  0  0
 17 19  2  0  0  0  0
 17 36  1  0  0  0  0
 18 20  2  0  0  0  0
 18 37  1  0  0  0  0
 19 45  1  0  0  0  0
 20 38  1  0  0  0  0
 21 79  1  0  0  0  0
 22 80  1  0  0  0  0
 23 25  2  0  0  0  0
 23 79  1  0  0  0  0
 24 81  1  0  0  0  0
 25 82  1  0  0  0  0
 26 28  1  0  0  0  0
 26 30  2  0  0  0  0
 26 83  1  0  0  0  0
 27 62  2  0  0  0  0
 28 60  1  0  0  0  0
 28 63  2  0  0  0  0
 29 64  1  0  0  0  0
 29 68  1  0  0  0  0
 30 65  1  0  0  0  0
 30 70  1  0  0  0  0
 31 69  1  0  0  0  0
 31 74  2  0  0  0  0
 32 46  1  0  0  0  0
 32 71  1  0  0  0  0
 32 75  2  0  0  0  0
 33 58  1  0  0  0  0
 33 66  1  0  0  0  0
 33 76  2  0  0  0  0
 34 59  1  0  0  0  0
 34 72  1  0  0  0  0
 34 77  2  0  0  0  0
 35 67  1  0  0  0  0
 35 70  1  0  0  0  0
 35 78  2  0  0  0  0
 36 39  1  0  0  0  0
 37 46  1  0  0  0  0
 38 66  1  0  0  0  0
 39 41  1  0  0  0  0
 40 42  1  0  0  0  0
 40 43  1  0  0  0  0
 41 45  1  0  0  0  0
 42 47  1  0  0  0  0
 43 67  1  0  0  0  0
 44 47  1  0  0  0  0
 44 67  1  0  0  0  0
 45 71  1  0  0  0  0
 46 66  1  0  0  0  0
 47 64  1  0  0  0  0
 48 56  1  0  0  0  0
 49 59  1  0  0  0  0
 50 60  1  0  0  0  0
 51 60  1  0  0  0  0
 52 61  1  0  0  0  0
 53 61  1  0  0  0  0
 54 61  1  0  0  0  0
 55 73  1  0  0  0  0
 56 65  1  0  0  0  0
 57 60  1  0  0  0  0
 57 80  1  0  0  0  0
 58 61  1  0  0  0  0
 58 72  1  0  0  0  0
 59 73  1  0  0  0  0
 62 64  1  0  0  0  0
 63 65  1  0  0  0  0
M  CHG  1  73   1
M  ISO  4  35 100  57 101  70 100  80 101
M  END
> <Batch ID>
0019

> <Smiles>
CCn1nc(C(C)(C)[101CH2:1][101O:1]c2ccc3c(c2)CN(C(=O)C(NC(=O)C(C)NC)C(C)(C)C)C(C(=O)NC2CCCc4ccccc42)C3)c(Cl)c1[100NH:0][100C:0](=O)N1CCCC(n2nc(-c3ccc(Oc4ccc(F)cc4F)cc3)c(C(N)=O)c2N)C1

> <Shape>
0.274

> <Color>
0.072

> <Negative vol penalty>
0.000

$$$$

  -OEChem-04052316073D

 86 94  0     1  0  0  0  0  0999 V2000
  -26.7983  -36.8355   25.1449 C   0  0  0  0  0  0  0  0  0  0  0  0
  -27.2757  -36.2383   23.9827 C   0  0  0  0  0  0  0  0  0  0  0  0
  -22.5993  -12.0921   22.6479 C   0  0  0  0  0  0  0  0  0  0  0  0
  -22.3616  -14.4390   22.1258 C   0  0  0  0  0  0  0  0  0  0  0  0
  -26.2752  -36.0464   26.1685 C   0  0  0  0  0  0  0  0  0  0  0  0
  -27.2314  -34.8516   23.8438 C   0  0  0  0  0  0  0  0  0  0  0  0
  -26.3923  -29.7628   18.8722 C   0  0  0  0  0  0  0  0  0  0  0  0
  -21.4462  -12.1495   23.4306 C   0  0  0  0  0  0  0  0  0  0  0  0
  -21.2085  -14.4964   22.9085 C   0  0  0  0  0  0  0  0  0  0  0  0
  -27.0095  -28.6047   18.4015 C   0  0  0  0  0  0  0  0  0  0  0  0
  -17.9526  -13.6415   22.6101 C   0  0  0  0  0  0  0  0  0  0  0  0
  -16.8477  -14.3118   22.0854 C   0  0  0  0  0  0  0  0  0  0  0  0
  -26.0114  -27.3479   20.2025 C   0  0  0  0  0  0  0  0  0  0  0  0
  -16.8935  -15.8471   23.9503 C   0  0  0  0  0  0  0  0  0  0  0  0
  -23.0571  -13.2370   21.9956 C   0  0  0  0  0  0  0  0  0  0  0  0
  -24.4689  -12.3716   20.0551 C   0  0  0  0  0  0  0  0  0  0  0  0
  -26.2156  -34.6500   26.0381 C   0  0  0  0  0  0  0  0  0  0  0  0
  -25.5874  -29.7242   20.0198 C   0  0  0  0  0  0  0  0  0  0  0  0
  -26.7083  -34.0430   24.8671 C   0  0  0  0  0  0  0  0  0  0  0  0
  -25.3830  -28.5064   20.6842 C   0  0  0  0  0  0  0  0  0  0  0  0
  -20.7507  -13.3515   23.5609 C   0  0  0  0  0  0  0  0  0  0  0  0
  -26.8215  -27.3976   19.0683 C   0  0  0  0  0  0  0  0  0  0  0  0
  -18.5279  -14.0739   23.8050 C   0  0  0  0  0  0  0  0  0  0  0  0
  -16.3181  -15.4147   22.7554 C   0  0  0  0  0  0  0  0  0  0  0  0
  -17.9984  -15.1767   24.4751 C   0  0  0  0  0  0  0  0  0  0  0  0
  -24.2485  -13.1785   21.1874 C   0  0  0  0  0  0  0  0  0  0  0  0
  -25.7445  -12.6847   19.6533 C   0  0  0  0  0  0  0  0  0  0  0  0
  -23.5985  -11.4238   19.4229 C   0  0  0  0  0  0  0  0  0  0  0  0
  -25.7042  -31.0884   22.8885 C   0  0  0  0  0  0  0  0  0  0  0  0
  -22.7970  -29.6930   23.2402 C   0  0  0  0  0  0  0  0  0  0  0  0
  -20.6364  -27.2232   22.3030 C   0  0  0  0  0  0  0  0  0  0  0  0
  -29.1992  -17.4160   20.2504 C   0  0  0  0  0  0  0  0  0  0  0  0
  -25.6850  -33.8352   27.1911 C   0  0  0  0  0  0  0  0  0  0  0  0
  -24.9070  -30.9771   20.4993 C   0  0  0  0  0  0  0  0  0  0  0  0
  -24.5121  -28.4077   21.9090 C   0  0  0  0  0  0  0  0  0  0  0  0
  -25.3297  -32.4003   26.8103 C   0  0  0  0  0  0  0  0  0  0  0  0
  -29.9441  -14.2094   21.3408 C   0  0  0  0  0  0  0  0  0  0  0  0
  -26.4468  -31.7761   25.9800 C   0  0  0  0  0  0  0  0  0  0  0  0
  -29.9143  -19.8290   16.6165 C   0  0  0  0  0  0  0  0  0  0  0  0
  -28.5948  -13.4924   21.3227 C   0  0  0  0  0  0  0  0  0  0  0  0
  -29.4769  -18.6904   17.5370 C   0  0  0  0  0  0  0  0  0  0  0  0
  -29.2478  -20.3199   19.4511 C   0  0  0  0  0  0  0  0  0  0  0  0
  -29.7965  -15.6342   21.8613 C   0  0  0  0  0  0  0  0  0  0  0  0
  -27.4587  -15.7545   21.0602 C   0  0  0  0  0  0  0  0  0  0  0  0
  -26.6546  -32.5437   24.6689 C   0  0  1  0  0  0  0  0  0  0  0  0
  -24.5232  -30.9213   21.9747 C   0  0  1  0  0  0  0  0  0  0  0  0
  -30.5999  -20.9662   17.3929 C   0  0  2  0  0  0  0  0  0  0  0  0
  -27.5491  -14.3054   20.5396 C   0  0  2  0  0  0  0  0  0  0  0  0
  -28.5716  -19.1945   18.6627 C   0  0  2  0  0  0  0  0  0  0  0  0
  -29.6785  -21.4588   18.5233 C   0  0  2  0  0  0  0  0  0  0  0  0
  -31.8821  -21.5770   15.3358 C   0  0  0  0  0  0  0  0  0  0  0  0
  -26.1167  -16.8743   19.0565 C   0  0  0  0  0  0  0  0  0  0  0  0
  -18.3489  -26.3159   22.7945 C   0  0  0  0  0  0  0  0  0  0  0  0
  -30.2260  -24.0197   21.2328 C   0  0  0  0  0  0  0  0  0  0  0  0
  -23.8513  -28.4344   25.8120 C   0  0  0  0  0  0  0  0  0  0  0  0
  -21.9225  -26.8398   25.7400 C   0  0  0  0  0  0  0  0  0  0  0  0
  -21.5056  -29.2899   25.9546 C   0  0  0  0  0  0  0  0  0  0  0  0
  -19.7168  -27.7227   19.5347 C   0  0  0  0  0  0  0  0  0  0  0  0
  -30.9955  -22.0835   16.4238 C   0  0  0  0  0  0  0  0  0  0  0  0
  -28.9867  -24.5094   19.0870 C   0  0  0  0  0  0  0  0  0  0  0  0
  -26.7690  -17.9931   19.8433 C   0  0  0  0  0  0  0  0  0  0  0  0
  -27.7635  -25.2747   19.5800 C   0  0  0  0  0  0  0  0  0  1  0  0
  -22.3061  -28.3577   23.7450 C   0  0  1  0  0  0  0  0  0  0  0  0
  -19.1662  -27.2603   21.9267 C   0  0  2  0  0  0  0  0  0  0  0  0
  -29.4661  -23.4254   20.0544 C   0  0  1  0  0  0  0  0  0  0  0  0
  -22.4144  -28.2323   25.2910 C   0  0  0  0  0  0  0  0  0  0  0  0
  -25.2998  -13.9464   21.4859 N   0  0  0  0  0  0  0  0  0  0  0  0
  -26.1932  -13.6233   20.5353 N   0  0  0  0  0  0  0  0  0  0  0  0
  -23.8736  -29.6615   22.3425 N   0  0  0  0  0  0  0  0  0  0  0  0
  -28.7918  -16.3753   21.0982 N   0  0  0  0  0  0  0  0  0  0  0  0
  -26.5149  -12.2459   18.6353 N   0  0  0  0  0  0  0  0  0  0  0  0
  -22.7463  -11.8744   18.4055 N   0  0  0  0  0  0  0  0  0  0  0  0
  -25.6267  -32.1958   23.7113 N   0  0  0  0  0  0  0  0  0  0  0  0
  -20.9521  -28.1978   23.2260 N   0  0  0  0  0  0  0  0  0  0  0  0
  -28.1964  -18.1009   19.5477 N   0  0  0  0  0  0  0  0  0  0  0  0
  -30.3787  -22.4842   19.3474 N   0  3  0  0  0  0  0  0  0  0  0  0
  -18.9861  -26.8634   20.5016 N   0  3  0  0  0  0  0  0  0  0  0  0
  -23.5653  -10.2165   19.7617 O   0  0  0  0  0  0  0  0  0  0  0  0
  -26.6174  -30.2721   22.8509 O   0  0  0  0  0  0  0  0  0  0  0  0
  -22.2410  -30.7256   23.6225 O   0  0  0  0  0  0  0  0  0  0  0  0
  -21.4250  -26.4086   21.8287 O   0  0  0  0  0  0  0  0  0  0  0  0
  -30.3926  -17.7227   20.1327 O   0  0  0  0  0  0  0  0  0  0  0  0
  -19.6253  -13.4078   24.3243 O   0  0  0  0  0  0  0  0  0  0  0  0
  -27.4233  -26.2658   18.6114 O   0  0  0  0  0  0  0  0  0  1  0  0
  -15.2580  -16.0592   22.2506 F   0  0  0  0  0  0  0  0  0  0  0  0
  -18.5475  -15.5976   25.6227 F   0  0  0  0  0  0  0  0  0  0  0  0
  1  2  1  0  0  0  0
  1  5  2  0  0  0  0
  2  6  2  0  0  0  0
  3  8  2  0  0  0  0
  3 15  1  0  0  0  0
  4  9  1  0  0  0  0
  4 15  2  0  0  0  0
  5 17  1  0  0  0  0
  6 19  1  0  0  0  0
  7 10  2  0  0  0  0
  7 18  1  0  0  0  0
  8 21  1  0  0  0  0
  9 21  2  0  0  0  0
 10 22  1  0  0  0  0
 11 12  2  0  0  0  0
 11 23  1  0  0  0  0
 12 24  1  0  0  0  0
 13 20  1  0  0  0  0
 13 22  2  0  0  0  0
 14 24  2  0  0  0  0
 14 25  1  0  0  0  0
 15 26  1  0  0  0  0
 16 26  1  0  0  0  0
 16 27  2  0  0  0  0
 16 28  1  0  0  0  0
 17 19  2  0  0  0  0
 17 33  1  0  0  0  0
 18 20  2  0  0  0  0
 18 34  1  0  0  0  0
 19 45  1  0  0  0  0
 20 35  1  0  0  0  0
 21 83  1  0  0  0  0
 22 84  1  0  0  0  0
 23 25  2  0  0  0  0
 23 83  1  0  0  0  0
 24 85  1  0  0  0  0
 25 86  1  0  0  0  0
 26 67  2  0  0  0  0
 27 68  1  0  0  0  0
 27 71  1  0  0  0  0
 28 72  1  0  0  0  0
 28 78  2  0  0  0  0
 29 46  1  0  0  0  0
 29 73  1  0  0  0  0
 29 79  2  0  0  0  0
 30 63  1  0  0  0  0
 30 69  1  0  0  0  0
 30 80  2  0  0  0  0
 31 64  1  0  0  0  0
 31 74  1  0  0  0  0
 31 81  2  0  0  0  0
 32 70  1  0  0  0  0
 32 75  1  0  0  0  0
 32 82  2  0  0  0  0
 33 36  1  0  0  0  0
 34 46  1  0  0  0  0
 35 69  1  0  0  0  0
 36 38  1  0  0  0  0
 37 40  1  0  0  0  0
 37 43  1  0  0  0  0
 38 45  1  0  0  0  0
 39 41  1  0  0  0  0
 39 47  1  0  0  0  0
 40 48  1  0  0  0  0
 41 49  1  0  0  0  0
 42 49  1  0  0  0  0
 42 50  1  0  0  0  0
 43 70  1  0  0  0  0
 44 48  1  0  0  0  0
 44 70  1  0  0  0  0
 45 73  1  0  0  0  0
 46 69  1  0  0  0  0
 47 50  1  0  0  0  0
 47 59  1  0  0  0  0
 48 68  1  0  0  0  0
 49 75  1  0  0  0  0
 50 76  1  0  0  0  0
 51 59  1  0  0  0  0
 52 61  1  0  0  0  0
 53 64  1  0  0  0  0
 54 65  1  0  0  0  0
 55 66  1  0  0  0  0
 56 66  1  0  0  0  0
 57 66  1  0  0  0  0
 58 77  1  0  0  0  0
 60 62  1  0  0  0  0
 60 65  1  0  0  0  0
 61 75  1  0  0  0  0
 62 84  1  0  0  0  0
 63 66  1  0  0  0  0
 63 74  1  0  0  0  0
 64 77  1  0  0  0  0
 65 76  1  0  0  0  0
 67 68  1  0  0  0  0
M  CHG  2  76   1  77   1
M  ISO  4  32 100  62 101  75 100  84 101
M  END
> <Batch ID>
0019

> <Smiles>
CCC1CCC([100N:0](CC)[100C:0](=O)N2CCCC(n3nc(-c4ccc(Oc5ccc(F)cc5F)cc4)c(C(N)=O)c3N)C2)CC1NC(C)C[101CH2:1][101O:1]c1ccc2c(c1)CN(C(=O)C(NC(=O)C(C)NC)C(C)(C)C)C(C(=O)NC1CCCc3ccccc31)C2

> <Shape>
0.318

> <Color>
0.066

> <Negative vol penalty>
0.000

$$$$

  -OEChem-04052316073D

 86 94  0     1  0  0  0  0  0999 V2000
  -27.9222  -10.2100   16.9294 C   0  0  0  0  0  0  0  0  0  0  0  0
  -26.9722  -11.2004   16.7012 C   0  0  0  0  0  0  0  0  0  0  0  0
  -20.9420  -30.1600   24.8015 C   0  0  0  0  0  0  0  0  0  0  0  0
  -20.1513  -29.1632   22.7477 C   0  0  0  0  0  0  0  0  0  0  0  0
  -28.8063  -10.3274   18.0011 C   0  0  0  0  0  0  0  0  0  0  0  0
  -26.9051  -12.3083   17.5453 C   0  0  0  0  0  0  0  0  0  0  0  0
  -25.4571  -18.0486   15.9776 C   0  0  0  0  0  0  0  0  0  0  0  0
  -19.9146  -31.1015   24.7401 C   0  0  0  0  0  0  0  0  0  0  0  0
  -19.1239  -30.1046   22.6863 C   0  0  0  0  0  0  0  0  0  0  0  0
  -24.2697  -18.7740   16.0661 C   0  0  0  0  0  0  0  0  0  0  0  0
  -16.1093  -30.5970   24.1321 C   0  0  0  0  0  0  0  0  0  0  0  0
  -14.8296  -30.1380   23.8203 C   0  0  0  0  0  0  0  0  0  0  0  0
  -25.0134  -19.7252   18.1545 C   0  0  0  0  0  0  0  0  0  0  0  0
  -23.5109  -26.2435   15.9857 C   0  0  0  0  0  0  0  0  0  0  0  0
  -24.1157  -23.9709   16.5391 C   0  0  0  0  0  0  0  0  0  0  0  0
  -14.7951  -31.5607   21.8679 C   0  0  0  0  0  0  0  0  0  0  0  0
  -21.0604  -29.1909   23.8053 C   0  0  0  0  0  0  0  0  0  0  0  0
  -22.0842  -26.9581   24.4939 C   0  0  0  0  0  0  0  0  0  0  0  0
  -28.7563  -11.4420   18.8530 C   0  0  0  0  0  0  0  0  0  0  0  0
  -26.4284  -18.1479   16.9841 C   0  0  0  0  0  0  0  0  0  0  0  0
  -27.7885  -12.4400   18.6302 C   0  0  0  0  0  0  0  0  0  0  0  0
  -26.2133  -19.0020   18.0752 C   0  0  0  0  0  0  0  0  0  0  0  0
  -25.5357  -25.8005   17.2271 C   0  0  0  0  0  0  0  0  0  0  0  0
  -23.2392  -24.8762   15.9408 C   0  0  0  0  0  0  0  0  0  0  0  0
  -19.0055  -31.0737   23.6825 C   0  0  0  0  0  0  0  0  0  0  0  0
  -24.0465  -19.6102   17.1560 C   0  0  0  0  0  0  0  0  0  0  0  0
  -16.7319  -31.5379   23.3119 C   0  0  0  0  0  0  0  0  0  0  0  0
  -14.1725  -30.6198   22.6882 C   0  0  0  0  0  0  0  0  0  0  0  0
  -16.0748  -32.0198   22.1798 C   0  0  0  0  0  0  0  0  0  0  0  0
  -24.6592  -26.7057   16.6288 C   0  0  0  0  0  0  0  0  0  0  0  0
  -25.2639  -24.4331   17.1823 C   0  0  0  0  0  0  0  0  0  0  0  0
  -22.1218  -28.2185   23.8679 C   0  0  0  0  0  0  0  0  0  0  0  0
  -23.3310  -26.4267   24.2709 C   0  0  0  0  0  0  0  0  0  0  0  0
  -21.0177  -26.3244   25.2126 C   0  0  0  0  0  0  0  0  0  0  0  0
  -27.7449  -16.1120   19.0397 C   0  0  0  0  0  0  0  0  0  0  0  0
  -29.6379  -18.6509   19.7416 C   0  0  0  0  0  0  0  0  0  0  0  0
  -30.0515  -22.0384   19.7622 C   0  0  0  0  0  0  0  0  0  0  0  0
  -27.4679  -27.3668   20.0456 C   0  0  0  0  0  0  0  0  0  0  0  0
  -29.7018  -11.5017   20.0265 C   0  0  0  0  0  0  0  0  0  0  0  0
  -27.7155  -17.3794   16.8605 C   0  0  0  0  0  0  0  0  0  0  0  0
  -27.2333  -19.1595   19.1721 C   0  0  0  0  0  0  0  0  0  0  0  0
  -29.8100  -12.8903   20.6514 C   0  0  0  0  0  0  0  0  0  0  0  0
  -27.8820  -27.7225   23.5639 C   0  0  0  0  0  0  0  0  0  0  0  0
  -28.4241  -13.4959   20.8498 C   0  0  0  0  0  0  0  0  0  0  0  0
  -26.4493  -27.7762   24.0973 C   0  0  0  0  0  0  0  0  0  0  0  0
  -28.0095  -28.4298   22.2165 C   0  0  0  0  0  0  0  0  0  0  0  0
  -25.6309  -28.0226   21.7164 C   0  0  0  0  0  0  0  0  0  0  0  0
  -27.7006  -13.6689   19.5090 C   0  0  1  0  0  0  0  0  0  0  0  0
  -28.4134  -17.1634   18.1998 C   0  0  1  0  0  0  0  0  0  0  0  0
  -25.4407  -27.2739   23.0467 C   0  0  2  0  0  0  0  0  0  0  0  0
  -31.6883  -23.8191   20.4313 C   0  0  0  0  0  0  0  0  0  0  0  0
  -28.8619  -18.2616   22.6667 C   0  0  0  0  0  0  0  0  0  0  0  0
  -29.7232  -20.5664   23.1295 C   0  0  0  0  0  0  0  0  0  0  0  0
  -31.2745  -18.8023   22.2905 C   0  0  0  0  0  0  0  0  0  0  0  0
  -21.1656  -25.3618   14.6662 C   0  0  0  0  0  0  0  0  0  0  0  0
  -30.3070  -23.0124   16.9792 C   0  0  0  0  0  0  0  0  0  0  0  0
  -26.7690  -26.2969   17.9181 C   0  0  0  0  0  0  0  0  0  0  0  0
  -21.1074  -22.5183   16.4989 C   0  0  0  0  0  0  0  0  0  0  0  0
  -20.7277  -21.0380   16.4401 C   0  0  0  0  0  0  0  0  0  0  0  0
  -21.7809  -23.0026   15.2175 C   0  0  0  0  0  0  0  0  0  0  0  0
  -21.9451  -20.1578   16.1863 C   0  0  0  0  0  0  0  0  0  1  0  0
  -29.5660  -19.8008   20.7170 C   0  0  1  0  0  0  0  0  0  0  0  0
  -31.2046  -22.9152   19.3080 C   0  0  2  0  0  0  0  0  0  0  0  0
  -29.8361  -19.3536   22.1814 C   0  0  0  0  0  0  0  0  0  0  0  0
  -23.2992  -28.4726   23.2907 N   0  0  0  0  0  0  0  0  0  0  0  0
  -24.0131  -27.3647   23.5531 N   0  0  0  0  0  0  0  0  0  0  0  0
  -28.4730  -18.3822   19.0092 N   0  0  0  0  0  0  0  0  0  0  0  0
  -27.0264  -27.9061   21.2651 N   0  0  0  0  0  0  0  0  0  0  0  0
  -23.8994  -25.2533   24.6208 N   0  0  0  0  0  0  0  0  0  0  0  0
  -19.8031  -27.0105   25.3480 N   0  0  0  0  0  0  0  0  0  0  0  0
  -28.2057  -14.8300   18.8082 N   0  0  0  0  0  0  0  0  0  0  0  0
  -30.4906  -20.8147   20.2217 N   0  0  0  0  0  0  0  0  0  0  0  0
  -26.4716  -26.8867   19.2044 N   0  0  0  0  0  0  0  0  0  0  0  0
  -22.0852  -24.4116   15.2942 N   0  0  3  0  0  0  0  0  0  0  0  0
  -30.7842  -23.7719   18.1634 N   0  3  0  0  0  0  0  0  0  0  0  0
  -21.1437  -25.1903   25.7337 O   0  0  0  0  0  0  0  0  0  0  0  0
  -26.8764  -16.4398   19.8397 O   0  0  0  0  0  0  0  0  0  0  0  0
  -30.6913  -18.0190   19.6284 O   0  0  0  0  0  0  0  0  0  0  0  0
  -28.8790  -22.4040   19.7175 O   0  0  0  0  0  0  0  0  0  0  0  0
  -28.6619  -27.3119   19.7321 O   0  0  0  0  0  0  0  0  0  0  0  0
  -18.0027  -31.9920   23.6224 O   0  0  0  0  0  0  0  0  0  0  0  0
  -22.8881  -20.3188   17.2452 O   0  0  0  0  0  0  0  0  0  1  0  0
  -12.9442  -30.1778   22.3880 F   0  0  0  0  0  0  0  0  0  0  0  0
  -16.6683  -32.9229   21.3874 F   0  0  0  0  0  0  0  0  0  0  0  0
  -24.9575  -28.4065   16.6608 Cl  0  0  0  0  0  0  0  0  0  0  0  0
  -26.3210  -23.2779   17.9107 Cl  0  0  0  0  0  0  0  0  0  0  0  0
  1  2  1  0  0  0  0
  1  5  2  0  0  0  0
  2  6  2  0  0  0  0
  3  8  2  0  0  0  0
  3 17  1  0  0  0  0
  4  9  1  0  0  0  0
  4 17  2  0  0  0  0
  5 19  1  0  0  0  0
  6 21  1  0  0  0  0
  7 10  2  0  0  0  0
  7 20  1  0  0  0  0
  8 25  1  0  0  0  0
  9 25  2  0  0  0  0
 10 26  1  0  0  0  0
 11 12  2  0  0  0  0
 11 27  1  0  0  0  0
 12 28  1  0  0  0  0
 13 22  1  0  0  0  0
 13 26  2  0  0  0  0
 14 24  1  0  0  0  0
 14 30  2  0  0  0  0
 15 24  2  0  0  0  0
 15 31  1  0  0  0  0
 16 28  2  0  0  0  0
 16 29  1  0  0  0  0
 17 32  1  0  0  0  0
 18 32  1  0  0  0  0
 18 33  2  0  0  0  0
 18 34  1  0  0  0  0
 19 21  2  0  0  0  0
 19 39  1  0  0  0  0
 20 22  2  0  0  0  0
 20 40  1  0  0  0  0
 21 48  1  0  0  0  0
 22 41  1  0  0  0  0
 23 30  1  0  0  0  0
 23 31  2  0  0  0  0
 23 57  1  0  0  0  0
 24 74  1  0  0  0  0
 25 81  1  0  0  0  0
 26 82  1  0  0  0  0
 27 29  2  0  0  0  0
 27 81  1  0  0  0  0
 28 83  1  0  0  0  0
 29 84  1  0  0  0  0
 30 85  1  0  0  0  0
 31 86  1  0  0  0  0
 32 65  2  0  0  0  0
 33 66  1  0  0  0  0
 33 69  1  0  0  0  0
 34 70  1  0  0  0  0
 34 76  2  0  0  0  0
 35 49  1  0  0  0  0
 35 71  1  0  0  0  0
 35 77  2  0  0  0  0
 36 62  1  0  0  0  0
 36 67  1  0  0  0  0
 36 78  2  0  0  0  0
 37 63  1  0  0  0  0
 37 72  1  0  0  0  0
 37 79  2  0  0  0  0
 38 68  1  0  0  0  0
 38 73  1  0  0  0  0
 38 80  2  0  0  0  0
 39 42  1  0  0  0  0
 40 49  1  0  0  0  0
 41 67  1  0  0  0  0
 42 44  1  0  0  0  0
 43 45  1  0  0  0  0
 43 46  1  0  0  0  0
 44 48  1  0  0  0  0
 45 50  1  0  0  0  0
 46 68  1  0  0  0  0
 47 50  1  0  0  0  0
 47 68  1  0  0  0  0
 48 71  1  0  0  0  0
 49 67  1  0  0  0  0
 50 66  1  0  0  0  0
 51 63  1  0  0  0  0
 52 64  1  0  0  0  0
 53 64  1  0  0  0  0
 54 64  1  0  0  0  0
 55 74  1  0  0  0  0
 56 75  1  0  0  0  0
 57 73  1  0  0  0  0
 58 59  1  0  0  0  0
 58 60  1  0  0  0  0
 59 61  1  0  0  0  0
 60 74  1  0  0  0  0
 61 82  1  0  0  0  0
 62 64  1  0  0  0  0
 62 72  1  0  0  0  0
 63 75  1  0  0  0  0
 65 66  1  0  0  0  0
M  CHG  1  75   1
M  ISO  4  38 100  61 101  73 100  82 101
M  END
> <Batch ID>
0019

> <Smiles>
CNC(C)C(=O)NC(C(=O)N1Cc2cc([101O:1][101CH2:1]CCCN(C)c3cc(Cl)c(C[100NH:0][100C:0](=O)N4CCCC(n5nc(-c6ccc(Oc7ccc(F)cc7F)cc6)c(C(N)=O)c5N)C4)c(Cl)c3)ccc2CC1C(=O)NC1CCCc2ccccc21)C(C)(C)C

> <Shape>
0.189

> <Color>
0.067

> <Negative vol penalty>
0.000

$$$$

  -OEChem-04052316073D

 92100  0     1  0  0  0  0  0999 V2000
  -27.9552  -34.4860   23.4255 C   0  0  0  0  0  0  0  0  0  0  0  0
  -28.0620  -33.1255   23.6959 C   0  0  0  0  0  0  0  0  0  0  0  0
  -23.1277  -10.0914   22.1358 C   0  0  0  0  0  0  0  0  0  0  0  0
  -23.9819   -9.3824   19.9900 C   0  0  0  0  0  0  0  0  0  0  0  0
  -26.7011  -35.0569   23.2128 C   0  0  0  0  0  0  0  0  0  0  0  0
  -26.9145  -32.3354   23.7550 C   0  0  0  0  0  0  0  0  0  0  0  0
  -27.4470  -27.9488   21.2812 C   0  0  0  0  0  0  0  0  0  0  0  0
  -22.3822   -8.9161   22.2274 C   0  0  0  0  0  0  0  0  0  0  0  0
  -23.2364   -8.2071   20.0815 C   0  0  0  0  0  0  0  0  0  0  0  0
  -28.1657  -26.9401   21.9212 C   0  0  0  0  0  0  0  0  0  0  0  0
  -22.9305   -5.6733   23.0126 C   0  0  0  0  0  0  0  0  0  0  0  0
  -22.9474   -4.9879   24.2273 C   0  0  0  0  0  0  0  0  0  0  0  0
  -26.0956  -25.8916   22.5806 C   0  0  0  0  0  0  0  0  0  0  0  0
  -20.5525   -5.2501   24.4086 C   0  0  0  0  0  0  0  0  0  0  0  0
  -23.9276  -10.3246   21.0171 C   0  0  0  0  0  0  0  0  0  0  0  0
  -25.6996  -11.9817   21.8056 C   0  0  0  0  0  0  0  0  0  0  0  0
  -25.5385  -34.2716   23.2597 C   0  0  0  0  0  0  0  0  0  0  0  0
  -26.0447  -27.9424   21.2954 C   0  0  0  0  0  0  0  0  0  0  0  0
  -25.6436  -32.8966   23.5440 C   0  0  0  0  0  0  0  0  0  0  0  0
  -25.3614  -26.9001   21.9378 C   0  0  0  0  0  0  0  0  0  0  0  0
  -22.4366   -7.9739   21.2003 C   0  0  0  0  0  0  0  0  0  0  0  0
  -27.4901  -25.9129   22.5735 C   0  0  0  0  0  0  0  0  0  0  0  0
  -21.7246   -6.1472   22.4959 C   0  0  0  0  0  0  0  0  0  0  0  0
  -21.7585   -4.7763   24.9253 C   0  0  0  0  0  0  0  0  0  0  0  0
  -20.5357   -5.9356   23.1939 C   0  0  0  0  0  0  0  0  0  0  0  0
  -24.6975  -11.5388   20.9216 C   0  0  0  0  0  0  0  0  0  0  0  0
  -26.1184  -13.1786   21.2780 C   0  0  0  0  0  0  0  0  0  0  0  0
  -26.2065  -11.3661   22.9972 C   0  0  0  0  0  0  0  0  0  0  0  0
  -23.8040  -29.8946   22.4232 C   0  0  0  0  0  0  0  0  0  0  0  0
  -29.5985  -19.3755   21.0108 C   0  0  0  0  0  0  0  0  0  0  0  0
  -21.8029  -27.8444   20.9017 C   0  0  0  0  0  0  0  0  0  0  0  0
  -30.2661  -17.3667   18.7352 C   0  0  0  0  0  0  0  0  0  0  0  0
  -21.5225  -24.2737   20.4677 C   0  0  0  0  0  0  0  0  0  0  0  0
  -27.6300  -16.3100   16.9128 C   0  0  0  0  0  0  0  0  0  0  0  0
  -24.2011  -34.9425   23.0700 C   0  0  0  0  0  0  0  0  0  0  0  0
  -25.2841  -29.0233   20.5776 C   0  0  0  0  0  0  0  0  0  0  0  0
  -23.8569  -26.8362   21.9648 C   0  0  0  0  0  0  0  0  0  0  0  0
  -23.0652  -33.9651   22.7792 C   0  0  0  0  0  0  0  0  0  0  0  0
  -24.1460  -16.0194   17.5867 C   0  0  0  0  0  0  0  0  0  0  0  0
  -23.1152  -32.7858   23.7455 C   0  0  0  0  0  0  0  0  0  0  0  0
  -24.0613  -14.8609   18.5819 C   0  0  0  0  0  0  0  0  0  0  0  0
  -30.6599  -20.9820   19.3901 C   0  0  0  0  0  0  0  0  0  0  0  0
  -25.2368  -15.7884   16.5431 C   0  0  0  0  0  0  0  0  0  0  0  0
  -26.4869  -14.3356   18.0924 C   0  0  0  0  0  0  0  0  0  0  0  0
  -29.8395  -19.5902   17.6031 C   0  0  0  0  0  0  0  0  0  0  0  0
  -24.4241  -32.0018   23.5918 C   0  0  1  0  0  0  0  0  0  0  0  0
  -23.8590  -29.1952   21.0944 C   0  0  1  0  0  0  0  0  0  0  0  0
  -30.5883  -19.5440   19.8976 C   0  0  2  0  0  0  0  0  0  0  0  0
  -25.4385  -14.5489   19.1978 C   0  0  2  0  0  0  0  0  0  0  0  0
  -29.7473  -21.0228   18.1433 C   0  0  0  0  0  0  0  0  0  0  0  0
  -28.2948  -21.3715   18.5033 C   0  0  0  0  0  0  0  0  0  0  0  0
  -30.2602  -22.0430   17.1218 C   0  0  0  0  0  0  0  0  0  0  0  0
  -20.4875  -22.9314   18.6172 C   0  0  0  0  0  0  0  0  0  0  0  0
  -19.3213  -27.8501   22.6769 C   0  0  0  0  0  0  0  0  0  0  0  0
  -18.8965  -25.4858   21.9715 C   0  0  0  0  0  0  0  0  0  0  0  0
  -18.8836  -27.3135   20.2738 C   0  0  0  0  0  0  0  0  0  0  0  0
  -32.4819  -16.7440   16.7756 C   0  0  0  0  0  0  0  0  0  0  0  0
  -31.5448  -14.6923   17.8640 C   0  0  0  0  0  0  0  0  0  0  0  0
  -30.9017  -15.2787   15.5188 C   0  0  0  0  0  0  0  0  0  0  0  0
  -24.0243  -22.7603   20.0094 C   0  0  0  0  0  0  0  0  0  0  0  0
  -28.0411  -21.1594   23.3516 C   0  0  0  0  0  0  0  0  0  0  0  0
  -28.6534  -22.5596   23.3017 C   0  0  0  0  0  0  0  0  0  0  0  0
  -29.0976  -20.0591   23.3484 C   0  0  0  0  0  0  0  0  0  0  0  0
  -27.5790  -23.6391   23.2650 C   0  0  0  0  0  0  0  0  0  1  0  0
  -21.0809  -26.5747   21.2829 C   0  0  1  0  0  0  0  0  0  0  0  0
  -30.0305  -16.7142   17.3960 C   0  0  1  0  0  0  0  0  0  0  0  0
  -21.7794  -23.4902   19.1931 C   0  0  2  0  0  0  0  0  0  0  0  0
  -19.5703  -26.8133   21.5634 C   0  0  0  0  0  0  0  0  0  0  0  0
  -31.2256  -15.8599   16.9111 C   0  0  0  0  0  0  0  0  0  0  0  0
  -24.4919  -12.3855   19.9093 N   0  0  0  0  0  0  0  0  0  0  0  0
  -25.3706  -13.3725   20.1540 N   0  0  0  0  0  0  0  0  0  0  0  0
  -23.1579  -27.9196   21.2539 N   0  0  0  0  0  0  0  0  0  0  0  0
  -30.1506  -18.7504   18.7580 N   0  0  0  0  0  0  0  0  0  0  0  0
  -26.5176  -15.4992   17.1926 N   0  0  0  0  0  0  0  0  0  0  0  0
  -27.0496  -14.0736   21.6705 N   0  0  0  0  0  0  0  0  0  0  0  0
  -27.2929  -10.4877   22.8851 N   0  0  0  0  0  0  0  0  0  0  0  0
  -24.3712  -31.1546   22.4197 N   0  0  0  0  0  0  0  0  0  0  0  0
  -29.9112  -20.0789   22.1637 N   0  0  0  0  0  0  0  0  0  0  0  0
  -21.3463  -25.6176   20.2144 N   0  0  0  0  0  0  0  0  0  0  0  0
  -28.8034  -15.9708   17.5753 N   0  0  0  0  0  0  0  0  0  0  0  0
  -22.7048  -22.3533   19.4615 N   0  3  0  0  0  0  0  0  0  0  0  0
  -25.7004  -11.5757   24.1256 O   0  0  0  0  0  0  0  0  0  0  0  0
  -23.2840  -29.3332   23.3803 O   0  0  0  0  0  0  0  0  0  0  0  0
  -28.6170  -18.6611   20.8436 O   0  0  0  0  0  0  0  0  0  0  0  0
  -21.1891  -28.7338   20.3067 O   0  0  0  0  0  0  0  0  0  0  0  0
  -30.5295  -16.6779   19.7225 O   0  0  0  0  0  0  0  0  0  0  0  0
  -21.4786  -23.7457   21.5767 O   0  0  0  0  0  0  0  0  0  0  0  0
  -27.5798  -17.2686   16.1347 O   0  0  0  0  0  0  0  0  0  0  0  0
  -21.7094   -6.8268   21.2894 O   0  0  0  0  0  0  0  0  0  0  0  0
  -28.1893  -24.9274   23.1995 O   0  0  0  0  0  0  0  0  0  1  0  0
  -21.7746   -4.1167   26.0910 F   0  0  0  0  0  0  0  0  0  0  0  0
  -19.3739   -6.3875   22.7019 F   0  0  0  0  0  0  0  0  0  0  0  0
  1  2  1  0  0  0  0
  1  5  2  0  0  0  0
  2  6  2  0  0  0  0
  3  8  2  0  0  0  0
  3 15  1  0  0  0  0
  4  9  1  0  0  0  0
  4 15  2  0  0  0  0
  5 17  1  0  0  0  0
  6 19  1  0  0  0  0
  7 10  2  0  0  0  0
  7 18  1  0  0  0  0
  8 21  1  0  0  0  0
  9 21  2  0  0  0  0
 10 22  1  0  0  0  0
 11 12  2  0  0  0  0
 11 23  1  0  0  0  0
 12 24  1  0  0  0  0
 13 20  1  0  0  0  0
 13 22  2  0  0  0  0
 14 24  2  0  0  0  0
 14 25  1  0  0  0  0
 15 26  1  0  0  0  0
 16 26  1  0  0  0  0
 16 27  2  0  0  0  0
 16 28  1  0  0  0  0
 17 19  2  0  0  0  0
 17 35  1  0  0  0  0
 18 20  2  0  0  0  0
 18 36  1  0  0  0  0
 19 46  1  0  0  0  0
 20 37  1  0  0  0  0
 21 89  1  0  0  0  0
 22 90  1  0  0  0  0
 23 25  2  0  0  0  0
 23 89  1  0  0  0  0
 24 91  1  0  0  0  0
 25 92  1  0  0  0  0
 26 70  2  0  0  0  0
 27 71  1  0  0  0  0
 27 75  1  0  0  0  0
 28 76  1  0  0  0  0
 28 82  2  0  0  0  0
 29 47  1  0  0  0  0
 29 77  1  0  0  0  0
 29 83  2  0  0  0  0
 30 48  1  0  0  0  0
 30 78  1  0  0  0  0
 30 84  2  0  0  0  0
 31 65  1  0  0  0  0
 31 72  1  0  0  0  0
 31 85  2  0  0  0  0
 32 66  1  0  0  0  0
 32 73  1  0  0  0  0
 32 86  2  0  0  0  0
 33 67  1  0  0  0  0
 33 79  1  0  0  0  0
 33 87  2  0  0  0  0
 34 74  1  0  0  0  0
 34 80  1  0  0  0  0
 34 88  2  0  0  0  0
 35 38  1  0  0  0  0
 36 47  1  0  0  0  0
 37 72  1  0  0  0  0
 38 40  1  0  0  0  0
 39 41  1  0  0  0  0
 39 43  1  0  0  0  0
 40 46  1  0  0  0  0
 41 49  1  0  0  0  0
 42 48  1  0  0  0  0
 42 50  1  0  0  0  0
 43 74  1  0  0  0  0
 44 49  1  0  0  0  0
 44 74  1  0  0  0  0
 45 50  1  0  0  0  0
 45 73  1  0  0  0  0
 46 77  1  0  0  0  0
 47 72  1  0  0  0  0
 48 73  1  0  0  0  0
 49 71  1  0  0  0  0
 50 51  1  0  0  0  0
 50 52  1  0  0  0  0
 53 67  1  0  0  0  0
 54 68  1  0  0  0  0
 55 68  1  0  0  0  0
 56 68  1  0  0  0  0
 57 69  1  0  0  0  0
 58 69  1  0  0  0  0
 59 69  1  0  0  0  0
 60 81  1  0  0  0  0
 61 62  1  0  0  0  0
 61 63  1  0  0  0  0
 62 64  1  0  0  0  0
 63 78  1  0  0  0  0
 64 90  1  0  0  0  0
 65 68  1  0  0  0  0
 65 79  1  0  0  0  0
 66 69  1  0  0  0  0
 66 80  1  0  0  0  0
 67 81  1  0  0  0  0
 70 71  1  0  0  0  0
M  CHG  1  81   1
M  ISO  4  34 100  64 101  80 100  90 101
M  END
> <Batch ID>
0019

> <Smiles>
CNC(C)C(=O)NC(C(=O)N1Cc2cc([101O:1][101CH2:1]CCCNC(=O)C3CC(C)(C)CN3C(=O)C([100NH:0][100C:0](=O)N3CCCC(n4nc(-c5ccc(Oc6ccc(F)cc6F)cc5)c(C(N)=O)c4N)C3)C(C)(C)C)ccc2CC1C(=O)NC1CCCc2ccccc21)C(C)(C)C

> <Shape>
0.248

> <Color>
0.093

> <Negative vol penalty>
0.000

$$$$

  -OEChem-04052316073D

 99108  0     1  0  0  0  0  0999 V2000
  -28.1789  -32.6598   24.1243 C   0  0  0  0  0  0  0  0  0  0  0  0
  -29.1882  -32.0163   23.4171 C   0  0  0  0  0  0  0  0  0  0  0  0
  -19.1637  -23.7293   18.2874 C   0  0  0  0  0  0  0  0  0  0  0  0
  -21.1830  -23.9967   19.5867 C   0  0  0  0  0  0  0  0  0  0  0  0
  -27.0453  -31.9502   24.5148 C   0  0  0  0  0  0  0  0  0  0  0  0
  -29.0588  -30.6662   23.0897 C   0  0  0  0  0  0  0  0  0  0  0  0
  -31.0886  -23.6101   20.0377 C   0  0  0  0  0  0  0  0  0  0  0  0
  -18.7457  -25.0023   18.6749 C   0  0  0  0  0  0  0  0  0  0  0  0
  -20.7650  -25.2698   19.9742 C   0  0  0  0  0  0  0  0  0  0  0  0
  -30.8092  -22.2460   20.1070 C   0  0  0  0  0  0  0  0  0  0  0  0
  -20.0641  -28.4463   21.5955 C   0  0  0  0  0  0  0  0  0  0  0  0
  -20.1997  -28.7918   22.9400 C   0  0  0  0  0  0  0  0  0  0  0  0
  -28.4847  -22.7053   19.6540 C   0  0  0  0  0  0  0  0  0  0  0  0
  -28.6531  -16.3653   21.3413 C   0  0  0  0  0  0  0  0  0  0  0  0
  -29.6667  -16.0149   19.1765 C   0  0  0  0  0  0  0  0  0  0  0  0
  -18.7511  -26.9593   23.5571 C   0  0  0  0  0  0  0  0  0  0  0  0
  -20.3823  -23.2264   18.7433 C   0  0  0  0  0  0  0  0  0  0  0  0
  -21.5855  -21.5762   17.2146 C   0  0  0  0  0  0  0  0  0  0  0  0
  -26.9084  -30.5876   24.2025 C   0  0  0  0  0  0  0  0  0  0  0  0
  -30.0646  -24.5346   19.7864 C   0  0  0  0  0  0  0  0  0  0  0  0
  -27.9114  -29.9386   23.4541 C   0  0  0  0  0  0  0  0  0  0  0  0
  -28.7543  -24.0804   19.5794 C   0  0  0  0  0  0  0  0  0  0  0  0
  -28.9341  -15.5302   20.2600 C   0  0  0  0  0  0  0  0  0  0  0  0
  -29.1046  -17.6851   21.3391 C   0  0  0  0  0  0  0  0  0  0  0  0
  -30.1183  -17.3347   19.1743 C   0  0  0  0  0  0  0  0  0  0  0  0
  -29.8372  -18.1698   20.2556 C   0  0  0  0  0  0  0  0  0  0  0  0
  -19.5464  -25.7726   19.5183 C   0  0  0  0  0  0  0  0  0  0  0  0
  -29.5066  -21.7936   19.9181 C   0  0  0  0  0  0  0  0  0  0  0  0
  -19.2719  -27.3573   21.2317 C   0  0  0  0  0  0  0  0  0  0  0  0
  -19.5433  -28.0484   23.9208 C   0  0  0  0  0  0  0  0  0  0  0  0
  -18.6155  -26.6138   22.2125 C   0  0  0  0  0  0  0  0  0  0  0  0
  -20.8144  -21.9112   18.3437 C   0  0  0  0  0  0  0  0  0  0  0  0
  -21.7221  -20.2113   17.2847 C   0  0  0  0  0  0  0  0  0  0  0  0
  -22.1298  -22.4231   16.1937 C   0  0  0  0  0  0  0  0  0  0  0  0
  -28.6138  -11.6787   17.8432 C   0  0  0  0  0  0  0  0  0  0  0  0
  -28.7032  -11.9884   19.1656 C   0  0  0  0  0  0  0  0  0  0  0  0
  -28.7987  -26.9705   21.3887 C   0  0  0  0  0  0  0  0  0  0  0  0
  -27.1497  -27.4204   18.6318 C   0  0  0  0  0  0  0  0  0  0  0  0
  -25.4782  -25.3499   16.1953 C   0  0  0  0  0  0  0  0  0  0  0  0
  -22.7391  -15.5658   20.2053 C   0  0  0  0  0  0  0  0  0  0  0  0
  -25.6570  -29.8698   24.6430 C   0  0  0  0  0  0  0  0  0  0  0  0
  -30.3871  -26.0004   19.6882 C   0  0  0  0  0  0  0  0  0  0  0  0
  -27.6227  -25.0302   19.2866 C   0  0  0  0  0  0  0  0  0  0  0  0
  -25.8098  -28.3522   24.6399 C   0  0  0  0  0  0  0  0  0  0  0  0
  -19.4064  -16.8182   20.2361 C   0  0  0  0  0  0  0  0  0  0  0  0
  -26.3971  -27.8917   23.3142 C   0  0  0  0  0  0  0  0  0  0  0  0
  -27.0392  -14.4110   18.1492 C   0  0  0  0  0  0  0  0  0  0  0  0
  -19.5403  -18.2287   19.6595 C   0  0  0  0  0  0  0  0  0  0  0  0
  -25.6729  -15.0721   17.9397 C   0  0  0  0  0  0  0  0  0  0  0  0
  -25.9873  -14.7780   20.2968 C   0  0  0  0  0  0  0  0  0  0  0  0
  -20.6061  -16.4474   21.1050 C   0  0  0  0  0  0  0  0  0  0  0  0
  -22.0520  -18.0182   19.8739 C   0  0  0  0  0  0  0  0  0  0  0  0
  -27.8064  -28.4631   23.1133 C   0  0  1  0  0  0  0  0  0  0  0  0
  -29.1776  -26.8963   19.9366 C   0  0  1  0  0  0  0  0  0  0  0  0
  -27.0717  -13.9479   19.6115 C   0  0  2  0  0  0  0  0  0  0  0  0
  -20.8923  -18.4163   18.9450 C   0  0  2  0  0  0  0  0  0  0  0  0
  -24.8998  -14.8277   19.2327 C   0  0  1  0  0  0  0  0  0  0  0  0
  -28.7911  -18.5584   22.5099 C   0  0  0  0  0  0  0  0  0  0  0  0
  -30.9009  -17.8294   18.0019 C   0  0  0  0  0  0  0  0  0  0  0  0
  -29.2689  -12.6061   16.8263 C   0  0  0  0  0  0  0  0  0  0  0  0
  -29.0798  -10.1253   20.8243 C   0  0  0  0  0  0  0  0  0  0  0  0
  -25.0280  -25.7391   13.7574 C   0  0  0  0  0  0  0  0  0  0  0  0
  -31.2664  -14.0744   20.8646 C   0  0  0  0  0  0  0  0  0  0  0  0
  -31.4884  -11.8938   19.6116 C   0  0  0  0  0  0  0  0  0  0  0  0
  -28.1217  -10.4012   15.6571 C   0  0  0  0  0  0  0  0  0  0  0  0
  -26.4250  -10.2752   17.4251 C   0  0  0  0  0  0  0  0  0  0  0  0
  -28.6423   -9.1553   17.7673 C   0  0  0  0  0  0  0  0  0  0  0  0
  -24.4636  -28.4987   19.5971 C   0  0  0  0  0  0  0  0  0  0  0  0
  -23.3946  -27.4229   17.6051 C   0  0  0  0  0  0  0  0  0  0  0  0
  -25.1044  -29.2112   17.2871 C   0  0  0  0  0  0  0  0  0  0  0  0
  -26.8028  -22.8172   15.4273 C   0  0  0  0  0  0  0  0  0  0  0  0
  -30.3215  -19.5847   20.2538 C   0  0  0  0  0  0  0  0  0  1  0  0
  -28.1103  -11.1757   20.3006 C   0  0  0  0  0  0  0  0  0  0  0  0
  -28.4443  -14.1005   20.2620 C   0  0  1  0  0  0  0  0  0  0  0  0
  -25.8355  -26.9242   18.0790 C   0  0  1  0  0  0  0  0  0  0  0  0
  -25.9359  -25.0672   14.7758 C   0  0  2  0  0  0  0  0  0  0  0  0
  -30.5728  -12.7955   20.4239 C   0  0  0  0  0  0  0  0  0  0  0  0
  -27.9510  -10.4116   17.2019 C   0  0  0  0  0  0  0  0  0  0  0  0
  -24.7147  -27.9987   18.1605 C   0  0  0  0  0  0  0  0  0  0  0  0
  -20.4841  -20.8450   19.0774 N   0  0  0  0  0  0  0  0  0  0  0  0
  -21.0504  -19.8267   18.4077 N   0  0  0  0  0  0  0  0  0  0  0  0
  -27.9875  -26.4543   19.2068 N   0  0  0  0  0  0  0  0  0  0  0  0
  -21.8565  -16.6463   20.3682 N   0  0  0  0  0  0  0  0  0  0  0  0
  -22.3501  -19.3147   16.4947 N   0  0  0  0  0  0  0  0  0  0  0  0
  -21.8945  -23.8024   16.2741 N   0  0  0  0  0  0  0  0  0  0  0  0
  -28.2433  -28.1788   21.7642 N   0  0  0  0  0  0  0  0  0  0  0  0
  -26.1135  -26.4522   16.7268 N   0  0  0  0  0  0  0  0  0  0  0  0
  -23.8981  -15.8385   19.4889 N   0  0  0  0  0  0  0  0  0  0  0  0
  -25.9326  -23.6003   14.5128 N   0  3  0  0  0  0  0  0  0  0  0  0
  -29.3922  -13.1631   19.5752 N   0  3  1  0  0  0  0  0  0  0  0  0
  -22.7908  -21.9683   15.2295 O   0  0  0  0  0  0  0  0  0  0  0  0
  -28.9944  -26.0026   22.1144 O   0  0  0  0  0  0  0  0  0  0  0  0
  -27.4260  -28.6198   18.5497 O   0  0  0  0  0  0  0  0  0  0  0  0
  -24.6382  -24.6638   16.7733 O   0  0  0  0  0  0  0  0  0  0  0  0
  -22.5087  -14.4400   20.6597 O   0  0  0  0  0  0  0  0  0  0  0  0
  -19.1389  -27.0150   19.8965 O   0  0  0  0  0  0  0  0  0  0  0  0
  -29.2289  -20.4529   19.9864 O   0  0  0  0  0  0  0  0  0  1  0  0
  -19.6748  -28.3794   25.2121 F   0  0  0  0  0  0  0  0  0  0  0  0
  -17.8541  -25.5658   21.8693 F   0  0  0  0  0  0  0  0  0  0  0  0
  1  2  1  0  0  0  0
  1  5  2  0  0  0  0
  2  6  2  0  0  0  0
  3  8  2  0  0  0  0
  3 17  1  0  0  0  0
  4  9  1  0  0  0  0
  4 17  2  0  0  0  0
  5 19  1  0  0  0  0
  6 21  1  0  0  0  0
  7 10  2  0  0  0  0
  7 20  1  0  0  0  0
  8 27  1  0  0  0  0
  9 27  2  0  0  0  0
 10 28  1  0  0  0  0
 11 12  2  0  0  0  0
 11 29  1  0  0  0  0
 12 30  1  0  0  0  0
 13 22  1  0  0  0  0
 13 28  2  0  0  0  0
 14 23  1  0  0  0  0
 14 24  2  0  0  0  0
 15 23  2  0  0  0  0
 15 25  1  0  0  0  0
 16 30  2  0  0  0  0
 16 31  1  0  0  0  0
 17 32  1  0  0  0  0
 18 32  1  0  0  0  0
 18 33  2  0  0  0  0
 18 34  1  0  0  0  0
 19 21  2  0  0  0  0
 19 41  1  0  0  0  0
 20 22  2  0  0  0  0
 20 42  1  0  0  0  0
 21 53  1  0  0  0  0
 22 43  1  0  0  0  0
 23 74  1  0  0  0  0
 24 26  1  0  0  0  0
 24 58  1  0  0  0  0
 25 26  2  0  0  0  0
 25 59  1  0  0  0  0
 26 72  1  0  0  0  0
 27 96  1  0  0  0  0
 28 97  1  0  0  0  0
 29 31  2  0  0  0  0
 29 96  1  0  0  0  0
 30 98  1  0  0  0  0
 31 99  1  0  0  0  0
 32 80  2  0  0  0  0
 33 81  1  0  0  0  0
 33 84  1  0  0  0  0
 34 85  1  0  0  0  0
 34 91  2  0  0  0  0
 35 36  2  0  0  0  0
 35 60  1  0  0  0  0
 35 78  1  0  0  0  0
 36 73  1  0  0  0  0
 36 90  1  0  0  0  0
 37 54  1  0  0  0  0
 37 86  1  0  0  0  0
 37 92  2  0  0  0  0
 38 75  1  0  0  0  0
 38 82  1  0  0  0  0
 38 93  2  0  0  0  0
 39 76  1  0  0  0  0
 39 87  1  0  0  0  0
 39 94  2  0  0  0  0
 40 83  1  0  0  0  0
 40 88  1  0  0  0  0
 40 95  2  0  0  0  0
 41 44  1  0  0  0  0
 42 54  1  0  0  0  0
 43 82  1  0  0  0  0
 44 46  1  0  0  0  0
 45 48  1  0  0  0  0
 45 51  1  0  0  0  0
 46 53  1  0  0  0  0
 47 49  1  0  0  0  0
 47 55  1  0  0  0  0
 48 56  1  0  0  0  0
 49 57  1  0  0  0  0
 50 55  1  0  0  0  0
 50 57  1  0  0  0  0
 51 83  1  0  0  0  0
 52 56  1  0  0  0  0
 52 83  1  0  0  0  0
 53 86  1  0  0  0  0
 54 82  1  0  0  0  0
 55 74  1  0  0  0  0
 56 81  1  0  0  0  0
 57 88  1  0  0  0  0
 61 73  1  0  0  0  0
 62 76  1  0  0  0  0
 63 77  1  0  0  0  0
 64 77  1  0  0  0  0
 65 78  1  0  0  0  0
 66 78  1  0  0  0  0
 67 78  1  0  0  0  0
 68 79  1  0  0  0  0
 69 79  1  0  0  0  0
 70 79  1  0  0  0  0
 71 89  1  0  0  0  0
 72 97  1  0  0  0  0
 74 90  1  0  0  0  0
 75 79  1  0  0  0  0
 75 87  1  0  0  0  0
 76 89  1  0  0  0  0
 77 90  1  0  0  0  0
 80 81  1  0  0  0  0
M  CHG  2  89   1  90   1
M  ISO  4  40 100  72 101  88 100  97 101
M  END
> <Batch ID>
0019

> <Smiles>
CCC(=C(C)C(C)(C)C)N(C(C)C)C(c1cc(C)c([101CH2:1][101O:1]c2ccc3c(c2)CN(C(=O)C(NC(=O)C(C)NC)C(C)(C)C)C(C(=O)NC2CCCc4ccccc42)C3)c(C)c1)C1CCC([100NH:0][100C:0](=O)N2CCCC(n3nc(-c4ccc(Oc5ccc(F)cc5F)cc4)c(C(N)=O)c3N)C2)C1

> <Shape>
0.256

> <Color>
0.051

> <Negative vol penalty>
0.000

$$$$

  -OEChem-04052316073D

 81 89  0     1  0  0  0  0  0999 V2000
  -27.9262  -35.3718   24.5620 C   0  0  0  0  0  0  0  0  0  0  0  0
  -28.7121  -34.3140   24.1163 C   0  0  0  0  0  0  0  0  0  0  0  0
  -24.3175   -9.5401   21.4584 C   0  0  0  0  0  0  0  0  0  0  0  0
  -24.8038  -10.6399   23.5538 C   0  0  0  0  0  0  0  0  0  0  0  0
  -26.5752  -35.1667   24.8388 C   0  0  0  0  0  0  0  0  0  0  0  0
  -28.1477  -33.0501   23.9481 C   0  0  0  0  0  0  0  0  0  0  0  0
  -28.6609  -27.2093   19.8324 C   0  0  0  0  0  0  0  0  0  0  0  0
  -23.9476   -8.3865   22.1496 C   0  0  0  0  0  0  0  0  0  0  0  0
  -24.4338   -9.4863   24.2452 C   0  0  0  0  0  0  0  0  0  0  0  0
  -28.8115  -25.8273   19.9378 C   0  0  0  0  0  0  0  0  0  0  0  0
  -22.5314   -5.2723   23.3792 C   0  0  0  0  0  0  0  0  0  0  0  0
  -21.3611   -4.6256   22.9821 C   0  0  0  0  0  0  0  0  0  0  0  0
  -26.4485  -25.6090   20.3712 C   0  0  0  0  0  0  0  0  0  0  0  0
  -29.2011  -20.8955   19.0890 C   0  0  0  0  0  0  0  0  0  0  0  0
  -20.0911   -6.6206   23.4762 C   0  0  0  0  0  0  0  0  0  0  0  0
  -24.7457  -10.6668   22.1605 C   0  0  0  0  0  0  0  0  0  0  0  0
  -24.2964  -12.9321   21.0768 C   0  0  0  0  0  0  0  0  0  0  0  0
  -25.9916  -33.9019   24.6647 C   0  0  0  0  0  0  0  0  0  0  0  0
  -27.4028  -27.8036   20.0067 C   0  0  0  0  0  0  0  0  0  0  0  0
  -26.7879  -32.8275   24.2241 C   0  0  0  0  0  0  0  0  0  0  0  0
  -26.2842  -26.9985   20.2649 C   0  0  0  0  0  0  0  0  0  0  0  0
  -29.1563  -19.5031   19.1579 C   0  0  0  0  0  0  0  0  0  0  0  0
  -29.1103  -21.6549   20.2556 C   0  0  0  0  0  0  0  0  0  0  0  0
  -28.9298  -19.6293   21.5600 C   0  0  0  0  0  0  0  0  0  0  0  0
  -29.0206  -18.8700   20.3934 C   0  0  0  0  0  0  0  0  0  0  0  0
  -24.0057   -8.3596   23.5430 C   0  0  0  0  0  0  0  0  0  0  0  0
  -27.7058  -25.0272   20.2101 C   0  0  0  0  0  0  0  0  0  0  0  0
  -22.4816   -6.5932   23.8248 C   0  0  0  0  0  0  0  0  0  0  0  0
  -20.1409   -5.2997   23.0306 C   0  0  0  0  0  0  0  0  0  0  0  0
  -21.2614   -7.2673   23.8733 C   0  0  0  0  0  0  0  0  0  0  0  0
  -28.9746  -21.0218   21.4910 C   0  0  0  0  0  0  0  0  0  0  0  0
  -25.1285  -11.8586   21.4469 C   0  0  0  0  0  0  0  0  0  0  0  0
  -25.1323  -13.8057   20.4253 C   0  0  0  0  0  0  0  0  0  0  0  0
  -22.8933  -13.1226   21.3019 C   0  0  0  0  0  0  0  0  0  0  0  0
  -26.1750  -29.8945   22.0620 C   0  0  0  0  0  0  0  0  0  0  0  0
  -23.5947  -29.7131   20.1046 C   0  0  0  0  0  0  0  0  0  0  0  0
  -21.8259  -27.9208   17.8011 C   0  0  0  0  0  0  0  0  0  0  0  0
  -29.9568  -16.5584   20.0379 C   0  0  0  0  0  0  0  0  0  0  0  0
  -24.5380  -33.7176   25.0220 C   0  0  0  0  0  0  0  0  0  0  0  0
  -27.2524  -29.2933   19.8634 C   0  0  0  0  0  0  0  0  0  0  0  0
  -24.9082  -27.5854   20.4404 C   0  0  0  0  0  0  0  0  0  0  0  0
  -23.9304  -32.4351   24.4597 C   0  0  0  0  0  0  0  0  0  0  0  0
  -29.8906  -13.2202   18.8012 C   0  0  0  0  0  0  0  0  0  0  0  0
  -24.8584  -31.2505   24.7096 C   0  0  0  0  0  0  0  0  0  0  0  0
  -28.5774  -12.6567   19.3488 C   0  0  0  0  0  0  0  0  0  0  0  0
  -30.5641  -14.1607   19.7991 C   0  0  0  0  0  0  0  0  0  0  0  0
  -28.3981  -14.6810   20.8512 C   0  0  0  0  0  0  0  0  0  0  0  0
  -26.2064  -31.4476   24.0056 C   0  0  1  0  0  0  0  0  0  0  0  0
  -26.0149  -29.8395   20.5690 C   0  0  1  0  0  0  0  0  0  0  0  0
  -27.6504  -13.7790   19.8557 C   0  0  2  0  0  0  0  0  0  0  0  0
  -29.2561  -18.7173   17.8905 C   0  0  0  0  0  0  0  0  0  0  0  0
  -28.7844  -18.9352   22.8802 C   0  0  0  0  0  0  0  0  0  0  0  0
  -19.7389  -28.0162   16.4109 C   0  0  0  0  0  0  0  0  0  0  0  0
  -21.9229  -29.0696   22.5746 C   0  0  0  0  0  0  0  0  0  0  0  0
  -20.1106  -28.2566   21.0505 C   0  0  0  0  0  0  0  0  0  0  0  0
  -20.8371  -30.6413   20.9605 C   0  0  0  0  0  0  0  0  0  0  0  0
  -23.3627  -27.7821   15.2756 C   0  0  0  0  0  0  0  0  0  0  0  0
  -29.1631  -23.1494   20.1328 C   0  0  0  0  0  0  0  0  0  1  0  0
  -22.3606  -28.8459   20.0400 C   0  0  1  0  0  0  0  0  0  0  0  0
  -21.2295  -28.3132   16.4614 C   0  0  2  0  0  0  0  0  0  0  0  0
  -21.3339  -29.1922   21.1551 C   0  0  0  0  0  0  0  0  0  0  0  0
  -26.3958  -12.0322   21.0623 N   0  0  0  0  0  0  0  0  0  0  0  0
  -26.3662  -13.2249   20.4437 N   0  0  0  0  0  0  0  0  0  0  0  0
  -24.8136  -29.0476   20.2972 N   0  0  0  0  0  0  0  0  0  0  0  0
  -29.6276  -15.2002   20.2318 N   0  0  0  0  0  0  0  0  0  0  0  0
  -24.9249  -15.0064   19.8441 N   0  0  0  0  0  0  0  0  0  0  0  0
  -22.1854  -12.1264   21.9882 N   0  0  0  0  0  0  0  0  0  0  0  0
  -28.9755  -17.4553   20.4589 N   0  0  0  0  0  0  0  0  0  0  0  0
  -26.0835  -31.1678   22.5911 N   0  0  0  0  0  0  0  0  0  0  0  0
  -21.8383  -28.9795   18.6844 N   0  0  0  0  0  0  0  0  0  0  0  0
  -21.8955  -27.5642   15.3585 N   0  3  0  0  0  0  0  0  0  0  0  0
  -22.2820  -14.1383   20.8919 O   0  0  0  0  0  0  0  0  0  0  0  0
  -26.3658  -28.8583   22.6878 O   0  0  0  0  0  0  0  0  0  0  0  0
  -23.4820  -30.9353   19.9813 O   0  0  0  0  0  0  0  0  0  0  0  0
  -22.2361  -26.7874   18.0413 O   0  0  0  0  0  0  0  0  0  0  0  0
  -31.0185  -16.8999   19.5105 O   0  0  0  0  0  0  0  0  0  0  0  0
  -23.6445   -7.2341   24.2179 O   0  0  0  0  0  0  0  0  0  0  0  0
  -27.8501  -23.6780   20.3141 O   0  0  0  0  0  0  0  0  0  1  0  0
  -19.0174   -4.6791   22.6478 F   0  0  0  0  0  0  0  0  0  0  0  0
  -21.2074   -8.5367   24.2994 F   0  0  0  0  0  0  0  0  0  0  0  0
  -28.8622  -21.9693   22.9372 Cl  0  0  0  0  0  0  0  0  0  0  0  0
  1  2  1  0  0  0  0
  1  5  2  0  0  0  0
  2  6  2  0  0  0  0
  3  8  2  0  0  0  0
  3 16  1  0  0  0  0
  4  9  1  0  0  0  0
  4 16  2  0  0  0  0
  5 18  1  0  0  0  0
  6 20  1  0  0  0  0
  7 10  2  0  0  0  0
  7 19  1  0  0  0  0
  8 26  1  0  0  0  0
  9 26  2  0  0  0  0
 10 27  1  0  0  0  0
 11 12  2  0  0  0  0
 11 28  1  0  0  0  0
 12 29  1  0  0  0  0
 13 21  1  0  0  0  0
 13 27  2  0  0  0  0
 14 22  2  0  0  0  0
 14 23  1  0  0  0  0
 15 29  2  0  0  0  0
 15 30  1  0  0  0  0
 16 32  1  0  0  0  0
 17 32  1  0  0  0  0
 17 33  2  0  0  0  0
 17 34  1  0  0  0  0
 18 20  2  0  0  0  0
 18 39  1  0  0  0  0
 19 21  2  0  0  0  0
 19 40  1  0  0  0  0
 20 48  1  0  0  0  0
 21 41  1  0  0  0  0
 22 25  1  0  0  0  0
 22 51  1  0  0  0  0
 23 31  2  0  0  0  0
 23 58  1  0  0  0  0
 24 25  2  0  0  0  0
 24 31  1  0  0  0  0
 24 52  1  0  0  0  0
 25 68  1  0  0  0  0
 26 77  1  0  0  0  0
 27 78  1  0  0  0  0
 28 30  2  0  0  0  0
 28 77  1  0  0  0  0
 29 79  1  0  0  0  0
 30 80  1  0  0  0  0
 31 81  1  0  0  0  0
 32 62  2  0  0  0  0
 33 63  1  0  0  0  0
 33 66  1  0  0  0  0
 34 67  1  0  0  0  0
 34 72  2  0  0  0  0
 35 49  1  0  0  0  0
 35 69  1  0  0  0  0
 35 73  2  0  0  0  0
 36 59  1  0  0  0  0
 36 64  1  0  0  0  0
 36 74  2  0  0  0  0
 37 60  1  0  0  0  0
 37 70  1  0  0  0  0
 37 75  2  0  0  0  0
 38 65  1  0  0  0  0
 38 68  1  0  0  0  0
 38 76  2  0  0  0  0
 39 42  1  0  0  0  0
 40 49  1  0  0  0  0
 41 64  1  0  0  0  0
 42 44  1  0  0  0  0
 43 45  1  0  0  0  0
 43 46  1  0  0  0  0
 44 48  1  0  0  0  0
 45 50  1  0  0  0  0
 46 65  1  0  0  0  0
 47 50  1  0  0  0  0
 47 65  1  0  0  0  0
 48 69  1  0  0  0  0
 49 64  1  0  0  0  0
 50 63  1  0  0  0  0
 53 60  1  0  0  0  0
 54 61  1  0  0  0  0
 55 61  1  0  0  0  0
 56 61  1  0  0  0  0
 57 71  1  0  0  0  0
 58 78  1  0  0  0  0
 59 61  1  0  0  0  0
 59 70  1  0  0  0  0
 60 71  1  0  0  0  0
 62 63  1  0  0  0  0
M  CHG  1  71   1
M  ISO  4  38 100  58 101  68 100  78 101
M  END
> <Batch ID>
0019

> <Smiles>
CNC(C)C(=O)NC(C(=O)N1Cc2cc([101O:1][101CH2:1]c3cc(C)c([100NH:0][100C:0](=O)N4CCCC(n5nc(-c6ccc(Oc7ccc(F)cc7F)cc6)c(C(N)=O)c5N)C4)c(C)c3Cl)ccc2CC1C(=O)NC1CCCc2ccccc21)C(C)(C)C

> <Shape>
0.360

> <Color>
0.124

> <Negative vol penalty>
0.000

$$$$

  -OEChem-04052316073D

 86 94  0     1  0  0  0  0  0999 V2000
  -25.2063  -31.2288   27.8148 C   0  0  0  0  0  0  0  0  0  0  0  0
  -25.3025  -30.2400   26.8408 C   0  0  0  0  0  0  0  0  0  0  0  0
  -24.6121   -8.7383   21.7224 C   0  0  0  0  0  0  0  0  0  0  0  0
  -22.7899   -9.9916   20.7499 C   0  0  0  0  0  0  0  0  0  0  0  0
  -24.3042  -32.2795   27.6530 C   0  0  0  0  0  0  0  0  0  0  0  0
  -24.4959  -30.3010   25.7050 C   0  0  0  0  0  0  0  0  0  0  0  0
  -27.0594  -29.3278   21.4474 C   0  0  0  0  0  0  0  0  0  0  0  0
  -23.7036   -8.0220   22.5016 C   0  0  0  0  0  0  0  0  0  0  0  0
  -21.8813   -9.2753   21.5290 C   0  0  0  0  0  0  0  0  0  0  0  0
  -27.3425  -27.9920   21.1659 C   0  0  0  0  0  0  0  0  0  0  0  0
  -21.5569   -5.4427   22.0867 C   0  0  0  0  0  0  0  0  0  0  0  0
  -21.7196   -4.0597   22.1653 C   0  0  0  0  0  0  0  0  0  0  0  0
  -25.4875  -27.9299   19.6250 C   0  0  0  0  0  0  0  0  0  0  0  0
  -21.9959   -4.2282   24.5595 C   0  0  0  0  0  0  0  0  0  0  0  0
  -24.1552   -9.7232   20.8466 C   0  0  0  0  0  0  0  0  0  0  0  0
  -25.5539  -10.1340   18.7531 C   0  0  0  0  0  0  0  0  0  0  0  0
  -23.4931  -32.3585   26.5101 C   0  0  0  0  0  0  0  0  0  0  0  0
  -25.9797  -29.9726   20.8270 C   0  0  0  0  0  0  0  0  0  0  0  0
  -23.5812  -31.3530   25.5284 C   0  0  0  0  0  0  0  0  0  0  0  0
  -25.1943  -29.2746   19.8984 C   0  0  0  0  0  0  0  0  0  0  0  0
  -22.3382   -8.2905   22.4049 C   0  0  0  0  0  0  0  0  0  0  0  0
  -26.5548  -27.2920   20.2567 C   0  0  0  0  0  0  0  0  0  0  0  0
  -21.6138   -6.2186   23.2445 C   0  0  0  0  0  0  0  0  0  0  0  0
  -21.9390   -3.4524   23.4017 C   0  0  0  0  0  0  0  0  0  0  0  0
  -21.8333   -5.6113   24.4809 C   0  0  0  0  0  0  0  0  0  0  0  0
  -25.0933  -10.4639   20.0419 C   0  0  0  0  0  0  0  0  0  0  0  0
  -26.4227  -11.1473   18.4292 C   0  0  0  0  0  0  0  0  0  0  0  0
  -25.2258   -9.0120   17.9230 C   0  0  0  0  0  0  0  0  0  0  0  0
  -23.2906  -31.3276   21.8450 C   0  0  0  0  0  0  0  0  0  0  0  0
  -22.9995  -32.1803   18.7288 C   0  0  0  0  0  0  0  0  0  0  0  0
  -23.8017  -31.5641   15.4694 C   0  0  0  0  0  0  0  0  0  0  0  0
  -26.8408  -16.7087   20.0115 C   0  0  0  0  0  0  0  0  0  0  0  0
  -22.4993  -33.4879   26.4018 C   0  0  0  0  0  0  0  0  0  0  0  0
  -25.7038  -31.4216   21.1214 C   0  0  0  0  0  0  0  0  0  0  0  0
  -24.0362  -29.9269   19.1901 C   0  0  0  0  0  0  0  0  0  0  0  0
  -21.9475  -33.6806   24.9916 C   0  0  0  0  0  0  0  0  0  0  0  0
  -29.4040  -14.3116   20.4067 C   0  0  0  0  0  0  0  0  0  0  0  0
  -21.5371  -32.3398   24.3911 C   0  0  0  0  0  0  0  0  0  0  0  0
  -28.6265  -13.0069   20.2395 C   0  0  0  0  0  0  0  0  0  0  0  0
  -26.5679  -19.4772   18.6401 C   0  0  0  0  0  0  0  0  0  0  0  0
  -28.6182  -15.3499   21.2098 C   0  0  0  0  0  0  0  0  0  0  0  0
  -26.4842  -14.3099   20.5122 C   0  0  0  0  0  0  0  0  0  0  0  0
  -26.1599  -20.9409   18.5650 C   0  0  0  0  0  0  0  0  0  0  0  0
  -26.2470  -21.1105   21.0634 C   0  0  0  0  0  0  0  0  0  0  0  0
  -22.7409  -31.3976   24.2706 C   0  0  1  0  0  0  0  0  0  0  0  0
  -24.2655  -31.8297   20.8178 C   0  0  1  0  0  0  0  0  0  0  0  0
  -27.2269  -13.2711   19.6578 C   0  0  2  0  0  0  0  0  0  0  0  0
  -27.3861  -19.1776   19.9011 C   0  0  1  0  0  0  0  0  0  0  0  0
  -26.6657  -19.6298   21.2030 C   0  0  0  0  0  0  0  0  0  0  0  0
  -25.4339  -18.7529   21.5177 C   0  0  0  0  0  0  0  0  0  0  0  0
  -27.6287  -19.5384   22.4072 C   0  0  0  0  0  0  0  0  0  0  0  0
  -23.3825  -32.4090   13.1439 C   0  0  0  0  0  0  0  0  0  0  0  0
  -29.4837  -18.1843   18.2286 C   0  0  0  0  0  0  0  0  0  0  0  0
  -30.0912  -17.8717   20.6487 C   0  0  0  0  0  0  0  0  0  0  0  0
  -23.7467  -22.8699   20.7259 C   0  0  0  0  0  0  0  0  0  0  0  0
  -20.2250  -30.9113   18.7705 C   0  0  0  0  0  0  0  0  0  0  0  0
  -20.2557  -30.9288   16.2671 C   0  0  0  0  0  0  0  0  0  0  0  0
  -20.3626  -33.0779   17.5290 C   0  0  0  0  0  0  0  0  0  0  0  0
  -26.6714  -32.1456   15.0386 C   0  0  0  0  0  0  0  0  0  0  0  0
  -26.0267  -23.7238   20.0530 C   0  0  0  0  0  0  0  0  0  0  0  0
  -25.7281  -25.1549   19.6200 C   0  0  0  0  0  0  0  0  0  1  0  0
  -22.3802  -31.5545   17.5025 C   0  0  1  0  0  0  0  0  0  0  0  0
  -24.2904  -32.4800   14.3619 C   0  0  2  0  0  0  0  0  0  0  0  0
  -29.1340  -17.4763   19.5316 C   0  0  0  0  0  0  0  0  0  0  0  0
  -24.8996  -22.7377   19.7397 C   0  0  1  0  0  0  0  0  0  0  0  0
  -20.8264  -31.6050   17.5319 C   0  0  0  0  0  0  0  0  0  0  0  0
  -25.6255  -11.5980   20.5051 N   0  0  0  0  0  0  0  0  0  0  0  0
  -26.4296  -11.9896   19.5020 N   0  0  0  0  0  0  0  0  0  0  0  0
  -23.8028  -31.3434   19.5164 N   0  0  0  0  0  0  0  0  0  0  0  0
  -27.2729  -15.5367   20.6495 N   0  0  0  0  0  0  0  0  0  0  0  0
  -27.1738  -11.3911   17.3343 N   0  0  0  0  0  0  0  0  0  0  0  0
  -24.3152   -8.0643   18.4099 N   0  0  0  0  0  0  0  0  0  0  0  0
  -23.5547  -31.7607   23.1303 N   0  0  0  0  0  0  0  0  0  0  0  0
  -22.9783  -32.2273   16.3545 N   0  0  0  0  0  0  0  0  0  0  0  0
  -27.7598  -17.7646   19.9170 N   0  0  0  0  0  0  0  0  0  0  0  0
  -25.4183  -21.3265   19.8188 N   0  3  1  0  0  0  0  0  0  0  0  0
  -25.6686  -32.0973   13.9436 N   0  3  0  0  0  0  0  0  0  0  0  0
  -25.7379   -8.8458   16.7900 O   0  0  0  0  0  0  0  0  0  0  0  0
  -22.3662  -30.6023   21.4969 O   0  0  0  0  0  0  0  0  0  0  0  0
  -22.7845  -33.3698   18.9748 O   0  0  0  0  0  0  0  0  0  0  0  0
  -24.1157  -30.3780   15.5400 O   0  0  0  0  0  0  0  0  0  0  0  0
  -25.6938  -16.8106   19.5575 O   0  0  0  0  0  0  0  0  0  0  0  0
  -21.4514   -7.5915   23.1649 O   0  0  0  0  0  0  0  0  0  0  0  0
  -26.8304  -25.9789   19.9787 O   0  0  0  0  0  0  0  0  0  1  0  0
  -22.0937   -2.1240   23.4772 F   0  0  0  0  0  0  0  0  0  0  0  0
  -21.8877   -6.3513   25.5968 F   0  0  0  0  0  0  0  0  0  0  0  0
  1  2  1  0  0  0  0
  1  5  2  0  0  0  0
  2  6  2  0  0  0  0
  3  8  2  0  0  0  0
  3 15  1  0  0  0  0
  4  9  1  0  0  0  0
  4 15  2  0  0  0  0
  5 17  1  0  0  0  0
  6 19  1  0  0  0  0
  7 10  2  0  0  0  0
  7 18  1  0  0  0  0
  8 21  1  0  0  0  0
  9 21  2  0  0  0  0
 10 22  1  0  0  0  0
 11 12  2  0  0  0  0
 11 23  1  0  0  0  0
 12 24  1  0  0  0  0
 13 20  1  0  0  0  0
 13 22  2  0  0  0  0
 14 24  2  0  0  0  0
 14 25  1  0  0  0  0
 15 26  1  0  0  0  0
 16 26  1  0  0  0  0
 16 27  2  0  0  0  0
 16 28  1  0  0  0  0
 17 19  2  0  0  0  0
 17 33  1  0  0  0  0
 18 20  2  0  0  0  0
 18 34  1  0  0  0  0
 19 45  1  0  0  0  0
 20 35  1  0  0  0  0
 21 83  1  0  0  0  0
 22 84  1  0  0  0  0
 23 25  2  0  0  0  0
 23 83  1  0  0  0  0
 24 85  1  0  0  0  0
 25 86  1  0  0  0  0
 26 67  2  0  0  0  0
 27 68  1  0  0  0  0
 27 71  1  0  0  0  0
 28 72  1  0  0  0  0
 28 78  2  0  0  0  0
 29 46  1  0  0  0  0
 29 73  1  0  0  0  0
 29 79  2  0  0  0  0
 30 62  1  0  0  0  0
 30 69  1  0  0  0  0
 30 80  2  0  0  0  0
 31 63  1  0  0  0  0
 31 74  1  0  0  0  0
 31 81  2  0  0  0  0
 32 70  1  0  0  0  0
 32 75  1  0  0  0  0
 32 82  2  0  0  0  0
 33 36  1  0  0  0  0
 34 46  1  0  0  0  0
 35 69  1  0  0  0  0
 36 38  1  0  0  0  0
 37 39  1  0  0  0  0
 37 41  1  0  0  0  0
 38 45  1  0  0  0  0
 39 47  1  0  0  0  0
 40 43  1  0  0  0  0
 40 48  1  0  0  0  0
 41 70  1  0  0  0  0
 42 47  1  0  0  0  0
 42 70  1  0  0  0  0
 43 76  1  0  0  0  0
 44 49  1  0  0  0  0
 44 76  1  0  0  0  0
 45 73  1  0  0  0  0
 46 69  1  0  0  0  0
 47 68  1  0  0  0  0
 48 49  1  0  0  0  0
 48 75  1  0  0  0  0
 49 50  1  0  0  0  0
 49 51  1  0  0  0  0
 52 63  1  0  0  0  0
 53 64  1  0  0  0  0
 54 64  1  0  0  0  0
 55 65  1  0  0  0  0
 56 66  1  0  0  0  0
 57 66  1  0  0  0  0
 58 66  1  0  0  0  0
 59 77  1  0  0  0  0
 60 61  1  0  0  0  0
 60 65  1  0  0  0  0
 61 84  1  0  0  0  0
 62 66  1  0  0  0  0
 62 74  1  0  0  0  0
 63 77  1  0  0  0  0
 64 75  1  0  0  0  0
 65 76  1  0  0  0  0
 67 68  1  0  0  0  0
M  CHG  2  76   1  77   1
M  ISO  4  32 100  61 101  75 100  84 101
M  END
> <Batch ID>
0019

> <Smiles>
CNC(C)C(=O)NC(C(=O)N1Cc2cc([101O:1][101CH2:1]CC(C)N3CCC([100N:0](C(C)C)[100C:0](=O)N4CCCC(n5nc(-c6ccc(Oc7ccc(F)cc7F)cc6)c(C(N)=O)c5N)C4)C(C)(C)C3)ccc2CC1C(=O)NC1CCCc2ccccc21)C(C)(C)C

> <Shape>
0.249

> <Color>
0.070

> <Negative vol penalty>
0.000

$$$$

  -OEChem-04052316073D

 82 90  0     1  0  0  0  0  0999 V2000
  -27.9314  -35.2450   24.7322 C   0  0  0  0  0  0  0  0  0  0  0  0
  -28.7191  -34.1978   24.2652 C   0  0  0  0  0  0  0  0  0  0  0  0
  -24.2981   -9.5463   21.4825 C   0  0  0  0  0  0  0  0  0  0  0  0
  -24.7879  -10.6722   23.5633 C   0  0  0  0  0  0  0  0  0  0  0  0
  -26.5799  -35.0329   25.0014 C   0  0  0  0  0  0  0  0  0  0  0  0
  -28.1561  -32.9374   24.0680 C   0  0  0  0  0  0  0  0  0  0  0  0
  -28.6832  -27.1887   19.8264 C   0  0  0  0  0  0  0  0  0  0  0  0
  -23.9237   -8.4034   22.1890 C   0  0  0  0  0  0  0  0  0  0  0  0
  -24.4134   -9.5293   24.2698 C   0  0  0  0  0  0  0  0  0  0  0  0
  -28.8346  -25.8049   19.9018 C   0  0  0  0  0  0  0  0  0  0  0  0
  -22.4956   -5.3112   23.4595 C   0  0  0  0  0  0  0  0  0  0  0  0
  -21.3230   -4.6636   23.0707 C   0  0  0  0  0  0  0  0  0  0  0  0
  -26.4709  -25.5753   20.3250 C   0  0  0  0  0  0  0  0  0  0  0  0
  -20.0603   -6.6697   23.5377 C   0  0  0  0  0  0  0  0  0  0  0  0
  -24.7303  -10.6807   22.1696 C   0  0  0  0  0  0  0  0  0  0  0  0
  -24.2897  -12.9329   21.0557 C   0  0  0  0  0  0  0  0  0  0  0  0
  -25.9978  -33.7717   24.7983 C   0  0  0  0  0  0  0  0  0  0  0  0
  -27.4242  -27.7781   20.0109 C   0  0  0  0  0  0  0  0  0  0  0  0
  -26.7959  -32.7079   24.3360 C   0  0  0  0  0  0  0  0  0  0  0  0
  -26.3056  -26.9667   20.2489 C   0  0  0  0  0  0  0  0  0  0  0  0
  -28.9973  -21.0066   21.3704 C   0  0  0  0  0  0  0  0  0  0  0  0
  -29.2248  -20.8553   18.9700 C   0  0  0  0  0  0  0  0  0  0  0  0
  -29.1360  -21.6267   20.1287 C   0  0  0  0  0  0  0  0  0  0  0  0
  -28.9475  -19.6150   21.4534 C   0  0  0  0  0  0  0  0  0  0  0  0
  -29.1748  -19.4638   19.0529 C   0  0  0  0  0  0  0  0  0  0  0  0
  -29.0362  -18.8436   20.2946 C   0  0  0  0  0  0  0  0  0  0  0  0
  -23.9813   -8.3949   23.5826 C   0  0  0  0  0  0  0  0  0  0  0  0
  -27.7289  -24.9981   20.1540 C   0  0  0  0  0  0  0  0  0  0  0  0
  -22.4506   -6.6381   23.8875 C   0  0  0  0  0  0  0  0  0  0  0  0
  -20.1054   -5.3428   23.1098 C   0  0  0  0  0  0  0  0  0  0  0  0
  -21.2329   -7.3173   23.9266 C   0  0  0  0  0  0  0  0  0  0  0  0
  -25.1178  -11.8614   21.4404 C   0  0  0  0  0  0  0  0  0  0  0  0
  -25.1291  -13.7947   20.3928 C   0  0  0  0  0  0  0  0  0  0  0  0
  -22.8873  -13.1316   21.2778 C   0  0  0  0  0  0  0  0  0  0  0  0
  -26.1901  -29.8225   22.1088 C   0  0  0  0  0  0  0  0  0  0  0  0
  -23.6143  -29.6821   20.1421 C   0  0  0  0  0  0  0  0  0  0  0  0
  -21.8521  -27.9394   17.7959 C   0  0  0  0  0  0  0  0  0  0  0  0
  -29.9639  -16.5240   19.9704 C   0  0  0  0  0  0  0  0  0  0  0  0
  -24.5435  -33.5786   25.1482 C   0  0  0  0  0  0  0  0  0  0  0  0
  -27.2728  -29.2704   19.9000 C   0  0  0  0  0  0  0  0  0  0  0  0
  -24.9288  -27.5485   20.4341 C   0  0  0  0  0  0  0  0  0  0  0  0
  -23.9382  -32.3082   24.5566 C   0  0  0  0  0  0  0  0  0  0  0  0
  -29.8856  -13.1699   18.7783 C   0  0  0  0  0  0  0  0  0  0  0  0
  -24.8665  -31.1191   24.7825 C   0  0  0  0  0  0  0  0  0  0  0  0
  -28.5701  -12.6187   19.3329 C   0  0  0  0  0  0  0  0  0  0  0  0
  -30.5623  -14.1211   19.7637 C   0  0  0  0  0  0  0  0  0  0  0  0
  -28.3980  -14.6635   20.8081 C   0  0  0  0  0  0  0  0  0  0  0  0
  -26.2159  -31.3326   24.0861 C   0  0  1  0  0  0  0  0  0  0  0  0
  -26.0334  -29.8001   20.6146 C   0  0  1  0  0  0  0  0  0  0  0  0
  -27.6472  -13.7510   19.8245 C   0  0  2  0  0  0  0  0  0  0  0  0
  -28.9012  -21.8347   22.6129 C   0  0  0  0  0  0  0  0  0  0  0  0
  -29.3720  -21.5211   17.6377 C   0  0  0  0  0  0  0  0  0  0  0  0
  -28.7987  -18.9539   22.7886 C   0  0  0  0  0  0  0  0  0  0  0  0
  -29.2704  -18.6397   17.8066 C   0  0  0  0  0  0  0  0  0  0  0  0
  -19.7680  -28.0637   16.4035 C   0  0  0  0  0  0  0  0  0  0  0  0
  -21.9375  -28.9834   22.5937 C   0  0  0  0  0  0  0  0  0  0  0  0
  -20.1293  -28.2026   21.0481 C   0  0  0  0  0  0  0  0  0  0  0  0
  -20.8541  -30.5892   21.0120 C   0  0  0  0  0  0  0  0  0  0  0  0
  -23.3946  -27.8573   15.2715 C   0  0  0  0  0  0  0  0  0  0  0  0
  -29.1879  -23.1235   20.0388 C   0  0  0  0  0  0  0  0  0  1  0  0
  -22.3811  -28.8156   20.0558 C   0  0  1  0  0  0  0  0  0  0  0  0
  -21.2583  -28.3606   16.4638 C   0  0  2  0  0  0  0  0  0  0  0  0
  -21.3516  -29.1366   21.1759 C   0  0  0  0  0  0  0  0  0  0  0  0
  -26.3858  -12.0251   21.0539 N   0  0  0  0  0  0  0  0  0  0  0  0
  -26.3608  -13.2096   20.4194 N   0  0  0  0  0  0  0  0  0  0  0  0
  -24.8333  -29.0134   20.3228 N   0  0  0  0  0  0  0  0  0  0  0  0
  -29.6295  -15.1697   20.1822 N   0  0  0  0  0  0  0  0  0  0  0  0
  -24.9263  -14.9883   19.7956 N   0  0  0  0  0  0  0  0  0  0  0  0
  -22.1755  -12.1473   21.9770 N   0  0  0  0  0  0  0  0  0  0  0  0
  -28.9858  -17.4301   20.3790 N   0  0  0  0  0  0  0  0  0  0  0  0
  -26.0964  -31.0838   22.6654 N   0  0  0  0  0  0  0  0  0  0  0  0
  -21.8617  -28.9785   18.7023 N   0  0  0  0  0  0  0  0  0  0  0  0
  -21.9274  -27.6365   15.3463 N   0  3  0  0  0  0  0  0  0  0  0  0
  -22.2798  -14.1440   20.8540 O   0  0  0  0  0  0  0  0  0  0  0  0
  -26.3803  -28.7730   22.7121 O   0  0  0  0  0  0  0  0  0  0  0  0
  -23.5009  -30.9066   20.0454 O   0  0  0  0  0  0  0  0  0  0  0  0
  -22.2626  -26.8013   18.0122 O   0  0  0  0  0  0  0  0  0  0  0  0
  -31.0270  -16.8545   19.4388 O   0  0  0  0  0  0  0  0  0  0  0  0
  -23.6158   -7.2799   24.2724 O   0  0  0  0  0  0  0  0  0  0  0  0
  -27.8741  -23.6471   20.2288 O   0  0  0  0  0  0  0  0  0  1  0  0
  -18.9796   -4.7213   22.7350 F   0  0  0  0  0  0  0  0  0  0  0  0
  -21.1835   -8.5925   24.3357 F   0  0  0  0  0  0  0  0  0  0  0  0
  1  2  1  0  0  0  0
  1  5  2  0  0  0  0
  2  6  2  0  0  0  0
  3  8  2  0  0  0  0
  3 15  1  0  0  0  0
  4  9  1  0  0  0  0
  4 15  2  0  0  0  0
  5 17  1  0  0  0  0
  6 19  1  0  0  0  0
  7 10  2  0  0  0  0
  7 18  1  0  0  0  0
  8 27  1  0  0  0  0
  9 27  2  0  0  0  0
 10 28  1  0  0  0  0
 11 12  2  0  0  0  0
 11 29  1  0  0  0  0
 12 30  1  0  0  0  0
 13 20  1  0  0  0  0
 13 28  2  0  0  0  0
 14 30  2  0  0  0  0
 14 31  1  0  0  0  0
 15 32  1  0  0  0  0
 16 32  1  0  0  0  0
 16 33  2  0  0  0  0
 16 34  1  0  0  0  0
 17 19  2  0  0  0  0
 17 39  1  0  0  0  0
 18 20  2  0  0  0  0
 18 40  1  0  0  0  0
 19 48  1  0  0  0  0
 20 41  1  0  0  0  0
 21 23  1  0  0  0  0
 21 24  2  0  0  0  0
 21 51  1  0  0  0  0
 22 23  2  0  0  0  0
 22 25  1  0  0  0  0
 22 52  1  0  0  0  0
 23 60  1  0  0  0  0
 24 26  1  0  0  0  0
 24 53  1  0  0  0  0
 25 26  2  0  0  0  0
 25 54  1  0  0  0  0
 26 70  1  0  0  0  0
 27 79  1  0  0  0  0
 28 80  1  0  0  0  0
 29 31  2  0  0  0  0
 29 79  1  0  0  0  0
 30 81  1  0  0  0  0
 31 82  1  0  0  0  0
 32 64  2  0  0  0  0
 33 65  1  0  0  0  0
 33 68  1  0  0  0  0
 34 69  1  0  0  0  0
 34 74  2  0  0  0  0
 35 49  1  0  0  0  0
 35 71  1  0  0  0  0
 35 75  2  0  0  0  0
 36 61  1  0  0  0  0
 36 66  1  0  0  0  0
 36 76  2  0  0  0  0
 37 62  1  0  0  0  0
 37 72  1  0  0  0  0
 37 77  2  0  0  0  0
 38 67  1  0  0  0  0
 38 70  1  0  0  0  0
 38 78  2  0  0  0  0
 39 42  1  0  0  0  0
 40 49  1  0  0  0  0
 41 66  1  0  0  0  0
 42 44  1  0  0  0  0
 43 45  1  0  0  0  0
 43 46  1  0  0  0  0
 44 48  1  0  0  0  0
 45 50  1  0  0  0  0
 46 67  1  0  0  0  0
 47 50  1  0  0  0  0
 47 67  1  0  0  0  0
 48 71  1  0  0  0  0
 49 66  1  0  0  0  0
 50 65  1  0  0  0  0
 55 62  1  0  0  0  0
 56 63  1  0  0  0  0
 57 63  1  0  0  0  0
 58 63  1  0  0  0  0
 59 73  1  0  0  0  0
 60 80  1  0  0  0  0
 61 63  1  0  0  0  0
 61 72  1  0  0  0  0
 62 73  1  0  0  0  0
 64 65  1  0  0  0  0
M  CHG  1  73   1
M  ISO  4  38 100  60 101  70 100  80 101
M  END
> <Batch ID>
0019

> <Smiles>
CNC(C)C(=O)NC(C(=O)N1Cc2cc([101O:1][101CH2:1]c3c(C)c(C)c([100NH:0][100C:0](=O)N4CCCC(n5nc(-c6ccc(Oc7ccc(F)cc7F)cc6)c(C(N)=O)c5N)C4)c(C)c3C)ccc2CC1C(=O)NC1CCCc2ccccc21)C(C)(C)C

> <Shape>
0.361

> <Color>
0.123

> <Negative vol penalty>
0.000

$$$$

  -OEChem-04052316073D

 84 92  0     1  0  0  0  0  0999 V2000
  -31.7150  -27.6322   13.7903 C   0  0  0  0  0  0  0  0  0  0  0  0
  -31.0942  -26.5792   14.4545 C   0  0  0  0  0  0  0  0  0  0  0  0
  -23.8761   -9.8680   22.1826 C   0  0  0  0  0  0  0  0  0  0  0  0
  -23.1753   -9.8014   19.8714 C   0  0  0  0  0  0  0  0  0  0  0  0
  -31.9625  -28.8290   14.4613 C   0  0  0  0  0  0  0  0  0  0  0  0
  -30.7215  -26.7221   15.7906 C   0  0  0  0  0  0  0  0  0  0  0  0
  -25.8047  -24.2980   18.5208 C   0  0  0  0  0  0  0  0  0  0  0  0
  -23.1189   -8.7264   22.4452 C   0  0  0  0  0  0  0  0  0  0  0  0
  -22.4181   -8.6597   20.1340 C   0  0  0  0  0  0  0  0  0  0  0  0
  -25.6355  -23.1626   19.3120 C   0  0  0  0  0  0  0  0  0  0  0  0
  -19.8711   -7.9620   22.9852 C   0  0  0  0  0  0  0  0  0  0  0  0
  -19.0837   -7.9580   24.1365 C   0  0  0  0  0  0  0  0  0  0  0  0
  -25.8411  -24.5210   21.2948 C   0  0  0  0  0  0  0  0  0  0  0  0
  -20.2940   -6.0349   24.9575 C   0  0  0  0  0  0  0  0  0  0  0  0
  -23.9042  -10.4056   20.8958 C   0  0  0  0  0  0  0  0  0  0  0  0
  -26.0315  -11.6376   20.2143 C   0  0  0  0  0  0  0  0  0  0  0  0
  -31.5841  -28.9900   15.8035 C   0  0  0  0  0  0  0  0  0  0  0  0
  -26.0046  -25.5539   19.1116 C   0  0  0  0  0  0  0  0  0  0  0  0
  -30.9655  -27.9217   16.4806 C   0  0  0  0  0  0  0  0  0  0  0  0
  -26.0100  -25.6712   20.5089 C   0  0  0  0  0  0  0  0  0  0  0  0
  -22.3899   -8.1222   21.4208 C   0  0  0  0  0  0  0  0  0  0  0  0
  -25.6566  -23.2735   20.6992 C   0  0  0  0  0  0  0  0  0  0  0  0
  -20.8698   -7.0023   22.8199 C   0  0  0  0  0  0  0  0  0  0  0  0
  -19.2952   -6.9945   25.1227 C   0  0  0  0  0  0  0  0  0  0  0  0
  -21.0813   -6.0388   23.8061 C   0  0  0  0  0  0  0  0  0  0  0  0
  -24.6857  -11.5852   20.6241 C   0  0  0  0  0  0  0  0  0  0  0  0
  -26.3015  -12.9788   20.0928 C   0  0  0  0  0  0  0  0  0  0  0  0
  -26.9550  -10.5694   19.9656 C   0  0  0  0  0  0  0  0  0  0  0  0
  -29.0473  -21.2351   22.1962 C   0  0  0  0  0  0  0  0  0  0  0  0
  -28.3492  -27.6999   19.0804 C   0  0  0  0  0  0  0  0  0  0  0  0
  -26.2129  -29.4831   20.7475 C   0  0  0  0  0  0  0  0  0  0  0  0
  -23.4682  -29.5709   22.7738 C   0  0  0  0  0  0  0  0  0  0  0  0
  -26.0680  -18.0412   22.2538 C   0  0  0  0  0  0  0  0  0  0  0  0
  -31.9152  -30.2858   16.5007 C   0  0  0  0  0  0  0  0  0  0  0  0
  -26.1588  -26.7730   18.2443 C   0  0  0  0  0  0  0  0  0  0  0  0
  -26.2009  -26.9997   21.1924 C   0  0  0  0  0  0  0  0  0  0  0  0
  -31.1512  -30.4872   17.8068 C   0  0  0  0  0  0  0  0  0  0  0  0
  -23.2408  -16.9836   20.1322 C   0  0  0  0  0  0  0  0  0  0  0  0
  -31.1942  -29.2179   18.6517 C   0  0  0  0  0  0  0  0  0  0  0  0
  -23.4561  -15.4737   20.0879 C   0  0  0  0  0  0  0  0  0  0  0  0
  -23.6672  -17.5847   21.4709 C   0  0  0  0  0  0  0  0  0  0  0  0
  -25.2840  -15.7366   21.8097 C   0  0  0  0  0  0  0  0  0  0  0  0
  -30.5241  -28.0470   17.9227 C   0  0  1  0  0  0  0  0  0  0  0  0
  -27.6624  -20.9947   21.7742 C   0  0  1  0  0  0  0  0  0  0  0  0
  -26.8689  -27.9234   18.9513 C   0  0  1  0  0  0  0  0  0  0  0  0
  -24.9061  -15.1215   20.4535 C   0  0  1  0  0  0  0  0  0  0  0  0
  -26.6895  -20.3854   22.7545 C   0  0  1  0  0  0  0  0  0  0  0  0
  -26.5575  -21.8321   22.3625 C   0  0  2  0  0  0  0  0  0  1  0  0
  -21.9784  -31.1722   24.0040 C   0  0  0  0  0  0  0  0  0  0  0  0
  -28.3699  -29.8526   22.8737 C   0  0  0  0  0  0  0  0  0  0  0  0
  -26.5833  -30.6126   24.4545 C   0  0  0  0  0  0  0  0  0  0  0  0
  -27.0370  -31.9082   22.3716 C   0  0  0  0  0  0  0  0  0  0  0  0
  -21.0871  -28.7169   21.2376 C   0  0  0  0  0  0  0  0  0  0  0  0
  -32.1718  -21.5523   15.0491 C   0  0  0  0  0  0  0  0  0  0  0  0
  -29.8825  -22.4621   15.4127 C   0  0  0  0  0  0  0  0  0  0  0  0
  -29.5389  -22.6585   22.0328 C   0  0  0  0  0  0  0  0  0  0  0  0
  -29.5662  -23.1281   20.5790 C   0  0  0  0  0  0  0  0  0  0  0  0
  -30.4253  -22.2240   19.6894 C   0  0  0  0  0  0  0  0  0  0  0  0
  -30.4069  -22.6978   18.2350 C   0  0  0  0  0  0  0  0  0  0  0  0
  -31.2902  -21.8178   17.3631 C   0  0  0  0  0  0  0  0  0  0  0  0
  -25.8821  -29.6650   22.2091 C   0  0  1  0  0  0  0  0  0  0  0  0
  -22.1974  -30.3990   22.7129 C   0  0  2  0  0  0  0  0  0  0  0  0
  -26.9664  -30.4841   22.9647 C   0  0  0  0  0  0  0  0  0  0  0  0
  -24.1389  -12.7968   20.7544 N   0  0  0  0  0  0  0  0  0  0  0  0
  -25.1461  -13.6231   20.4247 N   0  0  0  0  0  0  0  0  0  0  0  0
  -26.3537  -28.1614   20.3011 N   0  0  0  0  0  0  0  0  0  0  0  0
  -25.0358  -17.1834   21.8329 N   0  0  0  0  0  0  0  0  0  0  0  0
  -27.4121  -13.6580   19.7358 N   0  0  0  0  0  0  0  0  0  0  0  0
  -26.5133   -9.2505   20.1383 N   0  0  0  0  0  0  0  0  0  0  0  0
  -29.0835  -28.1591   18.0036 N   0  0  0  0  0  0  0  0  0  0  0  0
  -24.5481  -30.2539   22.2555 N   0  0  0  0  0  0  0  0  0  0  0  0
  -25.7401  -19.3900   22.3335 N   0  0  0  0  0  0  0  0  0  0  0  0
  -21.0162  -29.5191   22.4860 N   0  3  0  0  0  0  0  0  0  0  0  0
  -31.2778  -22.3404   15.9756 N   0  3  0  0  0  0  0  0  0  0  0  0
  -28.1416  -10.7787   19.6168 O   0  0  0  0  0  0  0  0  0  0  0  0
  -29.7091  -20.3199   22.6690 O   0  0  0  0  0  0  0  0  0  0  0  0
  -28.7924  -27.1529   20.0833 O   0  0  0  0  0  0  0  0  0  0  0  0
  -26.3347  -30.4767   20.0268 O   0  0  0  0  0  0  0  0  0  0  0  0
  -23.5005  -28.4335   23.2382 O   0  0  0  0  0  0  0  0  0  0  0  0
  -27.1992  -17.6362   22.5436 O   0  0  0  0  0  0  0  0  0  0  0  0
  -21.6512   -7.0080   21.6766 O   0  0  0  0  0  0  0  0  0  0  0  0
  -25.4923  -22.1668   21.4738 O   0  0  0  0  0  0  0  0  0  1  0  0
  -18.5401   -6.9918   26.2291 F   0  0  0  0  0  0  0  0  0  0  0  0
  -22.0401   -5.1151   23.6535 F   0  0  0  0  0  0  0  0  0  0  0  0
  1  2  1  0  0  0  0
  1  5  2  0  0  0  0
  2  6  2  0  0  0  0
  3  8  2  0  0  0  0
  3 15  1  0  0  0  0
  4  9  1  0  0  0  0
  4 15  2  0  0  0  0
  5 17  1  0  0  0  0
  6 19  1  0  0  0  0
  7 10  2  0  0  0  0
  7 18  1  0  0  0  0
  8 21  1  0  0  0  0
  9 21  2  0  0  0  0
 10 22  1  0  0  0  0
 11 12  2  0  0  0  0
 11 23  1  0  0  0  0
 12 24  1  0  0  0  0
 13 20  1  0  0  0  0
 13 22  2  0  0  0  0
 14 24  2  0  0  0  0
 14 25  1  0  0  0  0
 15 26  1  0  0  0  0
 16 26  1  0  0  0  0
 16 27  2  0  0  0  0
 16 28  1  0  0  0  0
 17 19  2  0  0  0  0
 17 34  1  0  0  0  0
 18 20  2  0  0  0  0
 18 35  1  0  0  0  0
 19 43  1  0  0  0  0
 20 36  1  0  0  0  0
 21 81  1  0  0  0  0
 22 82  1  0  0  0  0
 23 25  2  0  0  0  0
 23 81  1  0  0  0  0
 24 83  1  0  0  0  0
 25 84  1  0  0  0  0
 26 64  2  0  0  0  0
 27 65  1  0  0  0  0
 27 68  1  0  0  0  0
 28 69  1  0  0  0  0
 28 75  2  0  0  0  0
 29 44  1  0  0  0  0
 29 56  1  0  0  0  0
 29 76  2  0  0  0  0
 30 45  1  0  0  0  0
 30 70  1  0  0  0  0
 30 77  2  0  0  0  0
 31 61  1  0  0  0  0
 31 66  1  0  0  0  0
 31 78  2  0  0  0  0
 32 62  1  0  0  0  0
 32 71  1  0  0  0  0
 32 79  2  0  0  0  0
 33 67  1  0  0  0  0
 33 72  1  0  0  0  0
 33 80  2  0  0  0  0
 34 37  1  0  0  0  0
 35 45  1  0  0  0  0
 36 66  1  0  0  0  0
 37 39  1  0  0  0  0
 38 40  1  0  0  0  0
 38 41  1  0  0  0  0
 39 43  1  0  0  0  0
 40 46  1  0  0  0  0
 41 67  1  0  0  0  0
 42 46  1  0  0  0  0
 42 67  1  0  0  0  0
 43 70  1  0  0  0  0
 44 47  1  0  0  0  0
 44 48  1  0  0  0  0
 45 66  1  0  0  0  0
 46 65  1  0  0  0  0
 47 48  1  0  0  0  0
 47 72  1  0  0  0  0
 48 82  1  0  0  0  0
 49 62  1  0  0  0  0
 50 63  1  0  0  0  0
 51 63  1  0  0  0  0
 52 63  1  0  0  0  0
 53 73  1  0  0  0  0
 54 74  1  0  0  0  0
 55 74  1  0  0  0  0
 56 57  1  0  0  0  0
 57 58  1  0  0  0  0
 58 59  1  0  0  0  0
 59 60  1  0  0  0  0
 60 74  1  0  0  0  0
 61 63  1  0  0  0  0
 61 71  1  0  0  0  0
 62 73  1  0  0  0  0
 64 65  1  0  0  0  0
M  CHG  2  73   1  74   1
M  ISO  4  33 100  48 101  72 100  82 101
M  END
> <Batch ID>
0019

> <Smiles>
CNC(C)C(=O)NC(C(=O)N1Cc2cc([101O:1][101CH:1]3C([100NH:0][100C:0](=O)N4CCCC(n5nc(-c6ccc(Oc7ccc(F)cc7F)cc6)c(C(N)=O)c5N)C4)C3C(=O)CCCCCN(C)C)ccc2CC1C(=O)NC1CCCc2ccccc21)C(C)(C)C

> <Shape>
0.240

> <Color>
0.104

> <Negative vol penalty>
0.000

$$$$

  -OEChem-04052316073D

 76 83  0     1  0  0  0  0  0999 V2000
  -33.8906  -16.8707   19.9269 C   0  0  0  0  0  0  0  0  0  0  0  0
  -32.6707  -17.4897   19.6738 C   0  0  0  0  0  0  0  0  0  0  0  0
  -25.4932  -31.5149   22.6617 C   0  0  0  0  0  0  0  0  0  0  0  0
  -26.4857  -31.7898   20.4761 C   0  0  0  0  0  0  0  0  0  0  0  0
  -34.0287  -15.4976   19.7283 C   0  0  0  0  0  0  0  0  0  0  0  0
  -31.5884  -16.7361   19.2207 C   0  0  0  0  0  0  0  0  0  0  0  0
  -27.2810  -17.8822   21.6244 C   0  0  0  0  0  0  0  0  0  0  0  0
  -25.7650  -32.8516   22.9532 C   0  0  0  0  0  0  0  0  0  0  0  0
  -26.7574  -33.1265   20.7677 C   0  0  0  0  0  0  0  0  0  0  0  0
  -26.6240  -19.0478   21.2327 C   0  0  0  0  0  0  0  0  0  0  0  0
  -24.4374  -35.8774   22.2356 C   0  0  0  0  0  0  0  0  0  0  0  0
  -23.4264  -36.6287   22.8348 C   0  0  0  0  0  0  0  0  0  0  0  0
  -25.0992  -17.7342   19.9027 C   0  0  0  0  0  0  0  0  0  0  0  0
  -24.8590  -37.0402   24.7362 C   0  0  0  0  0  0  0  0  0  0  0  0
  -25.8536  -30.9840   21.4231 C   0  0  0  0  0  0  0  0  0  0  0  0
  -24.4088  -29.0821   20.5269 C   0  0  0  0  0  0  0  0  0  0  0  0
  -32.9449  -14.7251   19.2818 C   0  0  0  0  0  0  0  0  0  0  0  0
  -26.8581  -16.6326   21.1488 C   0  0  0  0  0  0  0  0  0  0  0  0
  -31.7126  -15.3516   19.0147 C   0  0  0  0  0  0  0  0  0  0  0  0
  -25.7509  -16.5540   20.2919 C   0  0  0  0  0  0  0  0  0  0  0  0
  -26.3971  -33.6574   22.0062 C   0  0  0  0  0  0  0  0  0  0  0  0
  -25.5348  -18.9742   20.3694 C   0  0  0  0  0  0  0  0  0  0  0  0
  -25.6592  -35.7074   22.8868 C   0  0  0  0  0  0  0  0  0  0  0  0
  -23.6372  -37.2101   24.0850 C   0  0  0  0  0  0  0  0  0  0  0  0
  -25.8700  -36.2888   24.1370 C   0  0  0  0  0  0  0  0  0  0  0  0
  -25.5736  -29.6031   21.1216 C   0  0  0  0  0  0  0  0  0  0  0  0
  -24.6342  -27.7290   20.4582 C   0  0  0  0  0  0  0  0  0  0  0  0
  -23.2287  -29.7606   20.0768 C   0  0  0  0  0  0  0  0  0  0  0  0
  -28.1802  -14.3360   19.3934 C   0  0  0  0  0  0  0  0  0  0  0  0
  -25.4482  -12.7452   20.1203 C   0  0  0  0  0  0  0  0  0  0  0  0
  -22.1672  -12.8956   21.0471 C   0  0  0  0  0  0  0  0  0  0  0  0
  -28.3461  -23.6660   19.0328 C   0  0  0  0  0  0  0  0  0  0  0  0
  -33.1556  -13.2520   19.0365 C   0  0  0  0  0  0  0  0  0  0  0  0
  -27.5609  -15.3824   21.6019 C   0  0  0  0  0  0  0  0  0  0  0  0
  -25.2448  -15.2353   19.7692 C   0  0  0  0  0  0  0  0  0  0  0  0
  -31.8547  -12.4629   18.9129 C   0  0  0  0  0  0  0  0  0  0  0  0
  -28.2367  -24.8637   22.5336 C   0  0  0  0  0  0  0  0  0  0  0  0
  -30.8787  -13.1841   17.9887 C   0  0  0  0  0  0  0  0  0  0  0  0
  -27.4988  -26.1954   22.4071 C   0  0  0  0  0  0  0  0  0  0  0  0
  -28.9966  -24.5129   21.2579 C   0  0  0  0  0  0  0  0  0  0  0  0
  -27.4133  -25.8476   19.9066 C   0  0  0  0  0  0  0  0  0  0  0  0
  -30.5084  -14.5639   18.5460 C   0  0  1  0  0  0  0  0  0  0  0  0
  -27.3644  -14.2076   20.6487 C   0  0  1  0  0  0  0  0  0  0  0  0
  -26.5996  -26.2080   21.1587 C   0  0  2  0  0  0  0  0  0  0  0  0
  -20.1862  -11.4312   21.5252 C   0  0  0  0  0  0  0  0  0  0  0  0
  -25.1655  -24.4319   17.6551 C   0  0  0  0  0  0  0  0  0  0  0  0
  -25.0634  -12.2928   17.1274 C   0  0  0  0  0  0  0  0  0  0  0  0
  -22.6771  -11.6969   17.5951 C   0  0  0  0  0  0  0  0  0  0  0  0
  -24.5175  -10.3168   18.5598 C   0  0  0  0  0  0  0  0  0  0  0  0
  -27.3996  -22.3262   17.1920 C   0  0  0  0  0  0  0  0  0  0  0  0
  -21.9796  -13.8624   23.8380 C   0  0  0  0  0  0  0  0  0  0  0  0
  -25.0665  -22.2199   18.8526 C   0  0  0  0  0  0  0  0  0  0  0  0
  -25.6707  -21.3041   19.9122 C   0  0  0  0  0  0  0  0  0  1  0  0
  -24.0809  -12.6262   19.4916 C   0  0  1  0  0  0  0  0  0  0  0  0
  -21.3875  -12.1521   22.1167 C   0  0  2  0  0  0  0  0  0  0  0  0
  -25.8440  -23.5294   18.6812 C   0  0  1  0  0  0  0  0  0  0  0  0
  -24.0952  -11.7583   18.2016 C   0  0  0  0  0  0  0  0  0  0  0  0
  -26.4722  -28.6580   21.4102 N   0  0  0  0  0  0  0  0  0  0  0  0
  -25.8719  -27.5295   20.9952 N   0  0  0  0  0  0  0  0  0  0  0  0
  -25.9692  -14.0417   20.2361 N   0  0  0  0  0  0  0  0  0  0  0  0
  -28.1285  -24.5746   20.0816 N   0  0  0  0  0  0  0  0  0  0  0  0
  -23.8924  -26.7022   19.9914 N   0  0  0  0  0  0  0  0  0  0  0  0
  -23.1619  -31.1530   20.2225 N   0  0  0  0  0  0  0  0  0  0  0  0
  -29.5407  -14.4345   19.6142 N   0  0  0  0  0  0  0  0  0  0  0  0
  -23.1930  -12.1285   20.5368 N   0  0  0  0  0  0  0  0  0  0  0  0
  -27.2267  -23.2753   18.2825 N   0  0  0  0  0  0  0  0  0  0  0  0
  -20.9006  -13.1017   23.1569 N   0  3  0  0  0  0  0  0  0  0  0  0
  -22.2552  -29.1484   19.5758 O   0  0  0  0  0  0  0  0  0  0  0  0
  -27.6171  -14.3436   18.3051 O   0  0  0  0  0  0  0  0  0  0  0  0
  -26.0295  -11.7261   20.5012 O   0  0  0  0  0  0  0  0  0  0  0  0
  -21.8913  -14.0408   20.6967 O   0  0  0  0  0  0  0  0  0  0  0  0
  -29.4749  -23.2217   18.7875 O   0  0  0  0  0  0  0  0  0  0  0  0
  -26.6622  -34.9618   22.2903 O   0  0  0  0  0  0  0  0  0  0  0  0
  -24.8921  -20.1105   19.9850 O   0  0  0  0  0  0  0  0  0  1  0  0
  -22.6668  -37.9329   24.6595 F   0  0  0  0  0  0  0  0  0  0  0  0
  -27.0421  -36.1300   24.7669 F   0  0  0  0  0  0  0  0  0  0  0  0
  1  2  1  0  0  0  0
  1  5  2  0  0  0  0
  2  6  2  0  0  0  0
  3  8  2  0  0  0  0
  3 15  1  0  0  0  0
  4  9  1  0  0  0  0
  4 15  2  0  0  0  0
  5 17  1  0  0  0  0
  6 19  1  0  0  0  0
  7 10  2  0  0  0  0
  7 18  1  0  0  0  0
  8 21  1  0  0  0  0
  9 21  2  0  0  0  0
 10 22  1  0  0  0  0
 11 12  2  0  0  0  0
 11 23  1  0  0  0  0
 12 24  1  0  0  0  0
 13 20  1  0  0  0  0
 13 22  2  0  0  0  0
 14 24  2  0  0  0  0
 14 25  1  0  0  0  0
 15 26  1  0  0  0  0
 16 26  1  0  0  0  0
 16 27  2  0  0  0  0
 16 28  1  0  0  0  0
 17 19  2  0  0  0  0
 17 33  1  0  0  0  0
 18 20  2  0  0  0  0
 18 34  1  0  0  0  0
 19 42  1  0  0  0  0
 20 35  1  0  0  0  0
 21 73  1  0  0  0  0
 22 74  1  0  0  0  0
 23 25  2  0  0  0  0
 23 73  1  0  0  0  0
 24 75  1  0  0  0  0
 25 76  1  0  0  0  0
 26 58  2  0  0  0  0
 27 59  1  0  0  0  0
 27 62  1  0  0  0  0
 28 63  1  0  0  0  0
 28 68  2  0  0  0  0
 29 43  1  0  0  0  0
 29 64  1  0  0  0  0
 29 69  2  0  0  0  0
 30 54  1  0  0  0  0
 30 60  1  0  0  0  0
 30 70  2  0  0  0  0
 31 55  1  0  0  0  0
 31 65  1  0  0  0  0
 31 71  2  0  0  0  0
 32 61  1  0  0  0  0
 32 66  1  0  0  0  0
 32 72  2  0  0  0  0
 33 36  1  0  0  0  0
 34 43  1  0  0  0  0
 35 60  1  0  0  0  0
 36 38  1  0  0  0  0
 37 39  1  0  0  0  0
 37 40  1  0  0  0  0
 38 42  1  0  0  0  0
 39 44  1  0  0  0  0
 40 61  1  0  0  0  0
 41 44  1  0  0  0  0
 41 61  1  0  0  0  0
 42 64  1  0  0  0  0
 43 60  1  0  0  0  0
 44 59  1  0  0  0  0
 45 55  1  0  0  0  0
 46 56  1  0  0  0  0
 47 57  1  0  0  0  0
 48 57  1  0  0  0  0
 49 57  1  0  0  0  0
 50 66  1  0  0  0  0
 51 67  1  0  0  0  0
 52 53  1  0  0  0  0
 52 56  1  0  0  0  0
 53 74  1  0  0  0  0
 54 57  1  0  0  0  0
 54 65  1  0  0  0  0
 55 67  1  0  0  0  0
 56 66  1  0  0  0  0
 58 59  1  0  0  0  0
M  CHG  1  67   1
M  ISO  4  32 100  53 101  66 100  74 101
M  END
> <Batch ID>
0019

> <Smiles>
CNC(C)C(=O)NC(C(=O)N1Cc2cc([101O:1][101CH2:1]CC(C)[100N:0](C)[100C:0](=O)N3CCCC(n4nc(-c5ccc(Oc6ccc(F)cc6F)cc5)c(C(N)=O)c4N)C3)ccc2CC1C(=O)NC1CCCc2ccccc21)C(C)(C)C

> <Shape>
0.228

> <Color>
0.077

> <Negative vol penalty>
0.000

$$$$

  -OEChem-04052316073D

 87 95  0     1  0  0  0  0  0999 V2000
  -27.3691  -11.0126   18.8339 C   0  0  0  0  0  0  0  0  0  0  0  0
  -28.1532  -12.1186   19.1459 C   0  0  0  0  0  0  0  0  0  0  0  0
  -23.6564  -29.3372   21.0656 C   0  0  0  0  0  0  0  0  0  0  0  0
  -25.7799  -30.4876   20.9992 C   0  0  0  0  0  0  0  0  0  0  0  0
  -26.0088  -11.1747   18.5745 C   0  0  0  0  0  0  0  0  0  0  0  0
  -27.5776  -13.3877   19.1974 C   0  0  0  0  0  0  0  0  0  0  0  0
  -29.0649  -16.0320   23.2521 C   0  0  0  0  0  0  0  0  0  0  0  0
  -23.2252  -30.1916   22.0803 C   0  0  0  0  0  0  0  0  0  0  0  0
  -25.3487  -31.3420   22.0140 C   0  0  0  0  0  0  0  0  0  0  0  0
  -30.3300  -16.6157   23.2026 C   0  0  0  0  0  0  0  0  0  0  0  0
  -23.3733  -34.0690   22.3001 C   0  0  0  0  0  0  0  0  0  0  0  0
  -23.6234  -35.4327   22.1469 C   0  0  0  0  0  0  0  0  0  0  0  0
  -29.3232  -18.7368   22.6488 C   0  0  0  0  0  0  0  0  0  0  0  0
  -24.9257  -35.4225   24.1818 C   0  0  0  0  0  0  0  0  0  0  0  0
  -24.9338  -29.4852   20.5251 C   0  0  0  0  0  0  0  0  0  0  0  0
  -25.2356  -28.7894   18.0894 C   0  0  0  0  0  0  0  0  0  0  0  0
  -25.4143  -12.4451   18.6324 C   0  0  0  0  0  0  0  0  0  0  0  0
  -27.9181  -16.7952   22.9892 C   0  0  0  0  0  0  0  0  0  0  0  0
  -26.2084  -13.5671   18.9372 C   0  0  0  0  0  0  0  0  0  0  0  0
  -28.0444  -18.1610   22.6981 C   0  0  0  0  0  0  0  0  0  0  0  0
  -32.9101  -20.5170   20.4592 C   0  0  0  0  0  0  0  0  0  0  0  0
  -33.2351  -19.1605   20.4564 C   0  0  0  0  0  0  0  0  0  0  0  0
  -32.3744  -21.1082   19.3149 C   0  0  0  0  0  0  0  0  0  0  0  0
  -33.0245  -18.3952   19.3094 C   0  0  0  0  0  0  0  0  0  0  0  0
  -32.1638  -20.3429   18.1679 C   0  0  0  0  0  0  0  0  0  0  0  0
  -32.4888  -18.9864   18.1652 C   0  0  0  0  0  0  0  0  0  0  0  0
  -24.0714  -31.1940   22.5545 C   0  0  0  0  0  0  0  0  0  0  0  0
  -30.4595  -17.9676   22.8981 C   0  0  0  0  0  0  0  0  0  0  0  0
  -23.8994  -33.3821   23.3942 C   0  0  0  0  0  0  0  0  0  0  0  0
  -24.3996  -36.1094   23.0877 C   0  0  0  0  0  0  0  0  0  0  0  0
  -24.6756  -34.0588   24.3351 C   0  0  0  0  0  0  0  0  0  0  0  0
  -25.3799  -28.6026   19.4772 C   0  0  0  0  0  0  0  0  0  0  0  0
  -25.8204  -27.6793   17.5308 C   0  0  0  0  0  0  0  0  0  0  0  0
  -24.6272  -29.8699   17.3696 C   0  0  0  0  0  0  0  0  0  0  0  0
  -25.6159  -16.7031   20.7994 C   0  0  0  0  0  0  0  0  0  0  0  0
  -24.3277  -19.0599   22.6183 C   0  0  0  0  0  0  0  0  0  0  0  0
  -24.8151  -21.5668   24.8820 C   0  0  0  0  0  0  0  0  0  0  0  0
  -30.0511  -24.0566   19.4885 C   0  0  0  0  0  0  0  0  0  0  0  0
  -23.9496  -12.5771   18.2978 C   0  0  0  0  0  0  0  0  0  0  0  0
  -26.5588  -16.1567   23.0728 C   0  0  0  0  0  0  0  0  0  0  0  0
  -26.8433  -19.0286   22.4279 C   0  0  0  0  0  0  0  0  0  0  0  0
  -23.3410  -13.9053   18.7405 C   0  0  0  0  0  0  0  0  0  0  0  0
  -26.7314  -23.0692   18.4387 C   0  0  0  0  0  0  0  0  0  0  0  0
  -24.2473  -15.0664   18.3438 C   0  0  0  0  0  0  0  0  0  0  0  0
  -25.9954  -24.4101   18.4566 C   0  0  0  0  0  0  0  0  0  0  0  0
  -27.7271  -22.9698   19.5906 C   0  0  0  0  0  0  0  0  0  0  0  0
  -27.9882  -25.4194   19.6607 C   0  0  0  0  0  0  0  0  0  0  0  0
  -25.6156  -14.9566   19.0272 C   0  0  1  0  0  0  0  0  0  0  0  0
  -25.4944  -16.9115   22.2825 C   0  0  1  0  0  0  0  0  0  0  0  0
  -26.9830  -25.5908   18.5073 C   0  0  2  0  0  0  0  0  0  0  0  0
  -33.1359  -21.3379   21.6896 C   0  0  0  0  0  0  0  0  0  0  0  0
  -33.3746  -16.9397   19.3102 C   0  0  0  0  0  0  0  0  0  0  0  0
  -31.5886  -20.9808   16.9418 C   0  0  0  0  0  0  0  0  0  0  0  0
  -23.5773  -23.3422   26.1522 C   0  0  0  0  0  0  0  0  0  0  0  0
  -31.7902  -16.1848   15.8017 C   0  0  0  0  0  0  0  0  0  0  0  0
  -29.9716  -17.5449   16.8922 C   0  0  0  0  0  0  0  0  0  0  0  0
  -24.1580  -20.7511   20.0843 C   0  0  0  0  0  0  0  0  0  0  0  0
  -23.8307  -22.7657   21.5343 C   0  0  0  0  0  0  0  0  0  0  0  0
  -22.1616  -20.9125   21.5819 C   0  0  0  0  0  0  0  0  0  0  0  0
  -25.5807  -20.3976   27.4908 C   0  0  0  0  0  0  0  0  0  0  0  0
  -33.8148  -18.5212   21.6948 C   0  0  0  0  0  0  0  0  0  0  0  0
  -32.0254  -22.5633   19.3184 C   0  0  0  0  0  0  0  0  0  0  0  0
  -32.7824  -17.7025   22.4621 C   0  0  0  0  0  0  0  0  0  1  0  0
  -24.4290  -20.5659   22.6452 C   0  0  1  0  0  0  0  0  0  0  0  0
  -24.0950  -21.9124   26.1730 C   0  0  2  0  0  0  0  0  0  0  0  0
  -31.4149  -17.0708   16.9807 C   0  0  0  0  0  0  0  0  0  0  0  0
  -23.6678  -21.2323   21.4646 C   0  0  0  0  0  0  0  0  0  0  0  0
  -26.0072  -27.4633   19.7816 N   0  0  0  0  0  0  0  0  0  0  0  0
  -26.2620  -26.9242   18.5772 N   0  0  0  0  0  0  0  0  0  0  0  0
  -25.5363  -18.3566   22.5154 N   0  0  0  0  0  0  0  0  0  0  0  0
  -28.6499  -24.1135   19.5709 N   0  0  0  0  0  0  0  0  0  0  0  0
  -25.9948  -27.2851   16.2515 N   0  0  0  0  0  0  0  0  0  0  0  0
  -24.0743  -30.9312   18.0991 N   0  0  0  0  0  0  0  0  0  0  0  0
  -32.2752  -18.2102   17.0019 N   0  0  0  0  0  0  0  0  0  0  0  0
  -25.5264  -15.3809   20.4080 N   0  0  0  0  0  0  0  0  0  0  0  0
  -23.9673  -20.9825   23.9649 N   0  0  0  0  0  0  0  0  0  0  0  0
  -30.5992  -22.7820   19.4137 N   0  0  0  0  0  0  0  0  0  0  0  0
  -25.0153  -21.7625   27.3356 N   0  3  0  0  0  0  0  0  0  0  0  0
  -24.5610  -29.8857   16.1170 O   0  0  0  0  0  0  0  0  0  0  0  0
  -25.7773  -17.6703   20.0645 O   0  0  0  0  0  0  0  0  0  0  0  0
  -23.2178  -18.5270   22.6932 O   0  0  0  0  0  0  0  0  0  0  0  0
  -26.0094  -21.7959   24.7036 O   0  0  0  0  0  0  0  0  0  0  0  0
  -30.7615  -25.0677   19.4771 O   0  0  0  0  0  0  0  0  0  0  0  0
  -23.6509  -32.0281   23.5445 O   0  0  0  0  0  0  0  0  0  0  0  0
  -31.6933  -18.5397   22.8485 O   0  0  0  0  0  0  0  0  0  1  0  0
  -24.6409  -37.4186   22.9396 F   0  0  0  0  0  0  0  0  0  0  0  0
  -25.1846  -33.4040   25.3876 F   0  0  0  0  0  0  0  0  0  0  0  0
  1  2  1  0  0  0  0
  1  5  2  0  0  0  0
  2  6  2  0  0  0  0
  3  8  2  0  0  0  0
  3 15  1  0  0  0  0
  4  9  1  0  0  0  0
  4 15  2  0  0  0  0
  5 17  1  0  0  0  0
  6 19  1  0  0  0  0
  7 10  2  0  0  0  0
  7 18  1  0  0  0  0
  8 27  1  0  0  0  0
  9 27  2  0  0  0  0
 10 28  1  0  0  0  0
 11 12  2  0  0  0  0
 11 29  1  0  0  0  0
 12 30  1  0  0  0  0
 13 20  1  0  0  0  0
 13 28  2  0  0  0  0
 14 30  2  0  0  0  0
 14 31  1  0  0  0  0
 15 32  1  0  0  0  0
 16 32  1  0  0  0  0
 16 33  2  0  0  0  0
 16 34  1  0  0  0  0
 17 19  2  0  0  0  0
 17 39  1  0  0  0  0
 18 20  2  0  0  0  0
 18 40  1  0  0  0  0
 19 48  1  0  0  0  0
 20 41  1  0  0  0  0
 21 22  1  0  0  0  0
 21 23  2  0  0  0  0
 21 51  1  0  0  0  0
 22 24  2  0  0  0  0
 22 61  1  0  0  0  0
 23 25  1  0  0  0  0
 23 62  1  0  0  0  0
 24 26  1  0  0  0  0
 24 52  1  0  0  0  0
 25 26  2  0  0  0  0
 25 53  1  0  0  0  0
 26 74  1  0  0  0  0
 27 84  1  0  0  0  0
 28 85  1  0  0  0  0
 29 31  2  0  0  0  0
 29 84  1  0  0  0  0
 30 86  1  0  0  0  0
 31 87  1  0  0  0  0
 32 68  2  0  0  0  0
 33 69  1  0  0  0  0
 33 72  1  0  0  0  0
 34 73  1  0  0  0  0
 34 79  2  0  0  0  0
 35 49  1  0  0  0  0
 35 75  1  0  0  0  0
 35 80  2  0  0  0  0
 36 64  1  0  0  0  0
 36 70  1  0  0  0  0
 36 81  2  0  0  0  0
 37 65  1  0  0  0  0
 37 76  1  0  0  0  0
 37 82  2  0  0  0  0
 38 71  1  0  0  0  0
 38 77  1  0  0  0  0
 38 83  2  0  0  0  0
 39 42  1  0  0  0  0
 40 49  1  0  0  0  0
 41 70  1  0  0  0  0
 42 44  1  0  0  0  0
 43 45  1  0  0  0  0
 43 46  1  0  0  0  0
 44 48  1  0  0  0  0
 45 50  1  0  0  0  0
 46 71  1  0  0  0  0
 47 50  1  0  0  0  0
 47 71  1  0  0  0  0
 48 75  1  0  0  0  0
 49 70  1  0  0  0  0
 50 69  1  0  0  0  0
 54 65  1  0  0  0  0
 55 66  1  0  0  0  0
 56 66  1  0  0  0  0
 57 67  1  0  0  0  0
 58 67  1  0  0  0  0
 59 67  1  0  0  0  0
 60 78  1  0  0  0  0
 61 63  1  0  0  0  0
 62 77  1  0  0  0  0
 63 85  1  0  0  0  0
 64 67  1  0  0  0  0
 64 76  1  0  0  0  0
 65 78  1  0  0  0  0
 66 74  1  0  0  0  0
 68 69  1  0  0  0  0
M  CHG  1  78   1
M  ISO  4  38 100  63 101  77 100  85 101
M  END
> <Batch ID>
0019

> <Smiles>
CNC(C)C(=O)NC(C(=O)N1Cc2cc([101O:1][101CH2:1]Cc3c(C)c(C[100NH:0][100C:0](=O)N4CCCC(n5nc(-c6ccc(Oc7ccc(F)cc7F)cc6)c(C(N)=O)c5N)C4)c(C)c(NC(C)C)c3C)ccc2CC1C(=O)NC1CCCc2ccccc21)C(C)(C)C

> <Shape>
0.173

> <Color>
0.069

> <Negative vol penalty>
0.000

$$$$

  -OEChem-04052316073D

 86 94  0     1  0  0  0  0  0999 V2000
  -30.2997  -35.3471   26.8443 C   0  0  0  0  0  0  0  0  0  0  0  0
  -30.5765  -34.4044   25.8594 C   0  0  0  0  0  0  0  0  0  0  0  0
  -26.3060  -12.9303   21.7570 C   0  0  0  0  0  0  0  0  0  0  0  0
  -25.5439  -13.6949   19.5956 C   0  0  0  0  0  0  0  0  0  0  0  0
  -29.1899  -35.1834   27.6722 C   0  0  0  0  0  0  0  0  0  0  0  0
  -29.7442  -33.2966   25.7026 C   0  0  0  0  0  0  0  0  0  0  0  0
  -28.3041  -30.4872   20.4548 C   0  0  0  0  0  0  0  0  0  0  0  0
  -25.4898  -11.8046   21.6466 C   0  0  0  0  0  0  0  0  0  0  0  0
  -24.7277  -12.5691   19.4852 C   0  0  0  0  0  0  0  0  0  0  0  0
  -28.7986  -29.3379   19.8397 C   0  0  0  0  0  0  0  0  0  0  0  0
  -25.5657   -8.8183   20.0627 C   0  0  0  0  0  0  0  0  0  0  0  0
  -26.1149   -7.5831   20.4066 C   0  0  0  0  0  0  0  0  0  0  0  0
  -27.0017  -28.0532   20.8092 C   0  0  0  0  0  0  0  0  0  0  0  0
  -31.6851  -23.3989   18.7353 C   0  0  0  0  0  0  0  0  0  0  0  0
  -24.4301   -7.3101   22.1165 C   0  0  0  0  0  0  0  0  0  0  0  0
  -26.3330  -13.8755   20.7315 C   0  0  0  0  0  0  0  0  0  0  0  0
  -28.5112  -15.1660   20.4190 C   0  0  0  0  0  0  0  0  0  0  0  0
  -28.3381  -34.0781   27.5191 C   0  0  0  0  0  0  0  0  0  0  0  0
  -27.1590  -30.4260   21.2618 C   0  0  0  0  0  0  0  0  0  0  0  0
  -28.6227  -33.1172   26.5301 C   0  0  0  0  0  0  0  0  0  0  0  0
  -26.4932  -29.2037   21.4313 C   0  0  0  0  0  0  0  0  0  0  0  0
  -31.1414  -24.5091   18.0893 C   0  0  0  0  0  0  0  0  0  0  0  0
  -30.8458  -22.4656   19.3440 C   0  0  0  0  0  0  0  0  0  0  0  0
  -29.7583  -24.6861   18.0520 C   0  0  0  0  0  0  0  0  0  0  0  0
  -29.4628  -22.6427   19.3066 C   0  0  0  0  0  0  0  0  0  0  0  0
  -24.7006  -11.6240   20.5107 C   0  0  0  0  0  0  0  0  0  0  0  0
  -28.1491  -28.1201   20.0192 C   0  0  0  0  0  0  0  0  0  0  0  0
  -24.4487   -9.2994   20.7457 C   0  0  0  0  0  0  0  0  0  0  0  0
  -25.5471   -6.8290   21.4335 C   0  0  0  0  0  0  0  0  0  0  0  0
  -23.8809   -8.5453   21.7726 C   0  0  0  0  0  0  0  0  0  0  0  0
  -28.9190  -23.7530   18.6607 C   0  0  0  0  0  0  0  0  0  0  0  0
  -27.1756  -15.0388   20.8452 C   0  0  0  0  0  0  0  0  0  0  0  0
  -28.8567  -16.4531   20.7516 C   0  0  0  0  0  0  0  0  0  0  0  0
  -29.3635  -14.2065   19.7796 C   0  0  0  0  0  0  0  0  0  0  0  0
  -26.5399  -31.0072   24.3250 C   0  0  0  0  0  0  0  0  0  0  0  0
  -23.4748  -30.4815   23.4023 C   0  0  0  0  0  0  0  0  0  0  0  0
  -21.3253  -29.0321   21.1829 C   0  0  0  0  0  0  0  0  0  0  0  0
  -27.7210  -21.8998   20.9682 C   0  0  0  0  0  0  0  0  0  0  0  0
  -27.1773  -33.9192   28.4688 C   0  0  0  0  0  0  0  0  0  0  0  0
  -26.6229  -31.6798   21.8967 C   0  0  0  0  0  0  0  0  0  0  0  0
  -25.2485  -29.0884   22.2714 C   0  0  0  0  0  0  0  0  0  0  0  0
  -26.1334  -32.9127   27.9918 C   0  0  0  0  0  0  0  0  0  0  0  0
  -26.4577  -19.8736   23.6094 C   0  0  0  0  0  0  0  0  0  0  0  0
  -26.8080  -31.6338   27.5058 C   0  0  0  0  0  0  0  0  0  0  0  0
  -26.6417  -18.4456   23.0906 C   0  0  0  0  0  0  0  0  0  0  0  0
  -26.0685  -20.8378   22.4902 C   0  0  0  0  0  0  0  0  0  0  0  0
  -27.1438  -19.3986   20.8044 C   0  0  0  0  0  0  0  0  0  0  0  0
  -27.7294  -31.9151   26.3128 C   0  0  1  0  0  0  0  0  0  0  0  0
  -25.7449  -31.4050   23.1136 C   0  0  1  0  0  0  0  0  0  0  0  0
  -27.5997  -18.4034   21.8839 C   0  0  2  0  0  0  0  0  0  0  0  0
  -32.0641  -25.4914   17.4447 C   0  0  0  0  0  0  0  0  0  0  0  0
  -18.8772  -28.7468   20.7112 C   0  0  0  0  0  0  0  0  0  0  0  0
  -23.2858  -28.4196   25.6435 C   0  0  0  0  0  0  0  0  0  0  0  0
  -21.2234  -27.5189   24.5464 C   0  0  0  0  0  0  0  0  0  0  0  0
  -21.2634  -29.8678   25.3851 C   0  0  0  0  0  0  0  0  0  0  0  0
  -32.6760  -20.4473   22.0932 C   0  0  0  0  0  0  0  0  0  0  0  0
  -21.5525  -30.3941   18.5652 C   0  0  0  0  0  0  0  0  0  0  0  0
  -31.4606  -21.2865   20.0269 C   0  0  0  0  0  0  0  0  0  0  0  0
  -29.1922  -25.8945   17.3466 C   0  0  0  0  0  0  0  0  0  0  0  0
  -29.3172  -27.1645   18.1812 C   0  0  0  0  0  0  0  0  0  1  0  0
  -22.5789  -29.2699   23.3105 C   0  0  1  0  0  0  0  0  0  0  0  0
  -20.1194  -29.5821   20.4429 C   0  0  2  0  0  0  0  0  0  0  0  0
  -22.1124  -28.7705   24.7071 C   0  0  0  0  0  0  0  0  0  0  0  0
  -32.0509  -21.6373   21.3946 C   0  0  0  0  0  0  0  0  0  0  0  0
  -26.7046  -16.1559   21.4058 N   0  0  0  0  0  0  0  0  0  0  0  0
  -27.7501  -16.9972   21.3343 N   0  0  0  0  0  0  0  0  0  0  0  0
  -24.7670  -30.3413   22.8764 N   0  0  0  0  0  0  0  0  0  0  0  0
  -27.0231  -20.7459   21.3833 N   0  0  0  0  0  0  0  0  0  0  0  0
  -29.9960  -17.1611   20.5995 N   0  0  0  0  0  0  0  0  0  0  0  0
  -28.8493  -12.9308   19.5104 N   0  0  0  0  0  0  0  0  0  0  0  0
  -28.6256  -21.6838   19.9291 N   0  0  0  0  0  0  0  0  0  0  0  0
  -26.9538  -32.0728   25.1012 N   0  0  0  0  0  0  0  0  0  0  0  0
  -21.4891  -29.6353   22.4119 N   0  0  0  0  0  0  0  0  0  0  0  0
  -20.3722  -29.5900   18.9742 N   0  3  0  0  0  0  0  0  0  0  0  0
  -30.5511  -14.4674   19.4714 O   0  0  0  0  0  0  0  0  0  0  0  0
  -26.7602  -29.8211   24.5403 O   0  0  0  0  0  0  0  0  0  0  0  0
  -23.0418  -31.5164   23.9152 O   0  0  0  0  0  0  0  0  0  0  0  0
  -22.0475  -28.1526   20.7188 O   0  0  0  0  0  0  0  0  0  0  0  0
  -27.5502  -22.9930   21.5138 O   0  0  0  0  0  0  0  0  0  0  0  0
  -23.9042  -10.5256   20.4026 O   0  0  0  0  0  0  0  0  0  0  0  0
  -28.6301  -26.9967   19.4205 O   0  0  0  0  0  0  0  0  0  1  0  0
  -26.0737   -5.6422   21.7626 F   0  0  0  0  0  0  0  0  0  0  0  0
  -22.8071   -9.0018   22.4317 F   0  0  0  0  0  0  0  0  0  0  0  0
  -32.9955  -22.6017   21.2535 F   0  0  0  0  0  0  0  0  0  0  0  0
  -31.0818  -22.1494   22.1954 F   0  0  0  0  0  0  0  0  0  0  0  0
  -27.1996  -23.9801   18.6116 Cl  0  0  0  0  0  0  0  0  0  0  0  0
  1  2  1  0  0  0  0
  1  5  2  0  0  0  0
  2  6  2  0  0  0  0
  3  8  2  0  0  0  0
  3 16  1  0  0  0  0
  4  9  1  0  0  0  0
  4 16  2  0  0  0  0
  5 18  1  0  0  0  0
  6 20  1  0  0  0  0
  7 10  2  0  0  0  0
  7 19  1  0  0  0  0
  8 26  1  0  0  0  0
  9 26  2  0  0  0  0
 10 27  1  0  0  0  0
 11 12  2  0  0  0  0
 11 28  1  0  0  0  0
 12 29  1  0  0  0  0
 13 21  1  0  0  0  0
 13 27  2  0  0  0  0
 14 22  2  0  0  0  0
 14 23  1  0  0  0  0
 15 29  2  0  0  0  0
 15 30  1  0  0  0  0
 16 32  1  0  0  0  0
 17 32  1  0  0  0  0
 17 33  2  0  0  0  0
 17 34  1  0  0  0  0
 18 20  2  0  0  0  0
 18 39  1  0  0  0  0
 19 21  2  0  0  0  0
 19 40  1  0  0  0  0
 20 48  1  0  0  0  0
 21 41  1  0  0  0  0
 22 24  1  0  0  0  0
 22 51  1  0  0  0  0
 23 25  2  0  0  0  0
 23 58  1  0  0  0  0
 24 31  2  0  0  0  0
 24 59  1  0  0  0  0
 25 31  1  0  0  0  0
 25 71  1  0  0  0  0
 26 80  1  0  0  0  0
 27 81  1  0  0  0  0
 28 30  2  0  0  0  0
 28 80  1  0  0  0  0
 29 82  1  0  0  0  0
 30 83  1  0  0  0  0
 31 86  1  0  0  0  0
 32 65  2  0  0  0  0
 33 66  1  0  0  0  0
 33 69  1  0  0  0  0
 34 70  1  0  0  0  0
 34 75  2  0  0  0  0
 35 49  1  0  0  0  0
 35 72  1  0  0  0  0
 35 76  2  0  0  0  0
 36 61  1  0  0  0  0
 36 67  1  0  0  0  0
 36 77  2  0  0  0  0
 37 62  1  0  0  0  0
 37 73  1  0  0  0  0
 37 78  2  0  0  0  0
 38 68  1  0  0  0  0
 38 71  1  0  0  0  0
 38 79  2  0  0  0  0
 39 42  1  0  0  0  0
 40 49  1  0  0  0  0
 41 67  1  0  0  0  0
 42 44  1  0  0  0  0
 43 45  1  0  0  0  0
 43 46  1  0  0  0  0
 44 48  1  0  0  0  0
 45 50  1  0  0  0  0
 46 68  1  0  0  0  0
 47 50  1  0  0  0  0
 47 68  1  0  0  0  0
 48 72  1  0  0  0  0
 49 67  1  0  0  0  0
 50 66  1  0  0  0  0
 52 62  1  0  0  0  0
 53 63  1  0  0  0  0
 54 63  1  0  0  0  0
 55 63  1  0  0  0  0
 56 64  1  0  0  0  0
 57 74  1  0  0  0  0
 58 64  1  0  0  0  0
 59 60  1  0  0  0  0
 60 81  1  0  0  0  0
 61 63  1  0  0  0  0
 61 73  1  0  0  0  0
 62 74  1  0  0  0  0
 64 84  1  0  0  0  0
 64 85  1  0  0  0  0
 65 66  1  0  0  0  0
M  CHG  1  74   1
M  ISO  4  38 100  60 101  71 100  81 101
M  END
> <Batch ID>
0019

> <Smiles>
CNC(C)C(=O)NC(C(=O)N1Cc2cc([101O:1][101CH2:1]Cc3c(C)cc(CC(C)(F)F)c([100NH:0][100C:0](=O)N4CCCC(n5nc(-c6ccc(Oc7ccc(F)cc7F)cc6)c(C(N)=O)c5N)C4)c3Cl)ccc2CC1C(=O)NC1CCCc2ccccc21)C(C)(C)C

> <Shape>
0.276

> <Color>
0.073

> <Negative vol penalty>
0.000

$$$$

  -OEChem-04052316073D

 88 96  0     1  0  0  0  0  0999 V2000
  -28.2924  -16.6997   18.1546 C   0  0  0  0  0  0  0  0  0  0  0  0
  -27.2165  -17.5060   18.5119 C   0  0  0  0  0  0  0  0  0  0  0  0
  -23.9919  -12.3493   20.7225 C   0  0  0  0  0  0  0  0  0  0  0  0
  -25.4818  -14.2121   21.1060 C   0  0  0  0  0  0  0  0  0  0  0  0
  -29.5724  -17.0018   18.6176 C   0  0  0  0  0  0  0  0  0  0  0  0
  -27.4197  -18.6143   19.3333 C   0  0  0  0  0  0  0  0  0  0  0  0
  -24.4570  -23.9687   19.0916 C   0  0  0  0  0  0  0  0  0  0  0  0
  -25.0511  -11.6106   20.1953 C   0  0  0  0  0  0  0  0  0  0  0  0
  -26.5411  -13.4734   20.5789 C   0  0  0  0  0  0  0  0  0  0  0  0
  -23.3900  -24.4843   19.8261 C   0  0  0  0  0  0  0  0  0  0  0  0
  -27.6927  -12.6019   17.5219 C   0  0  0  0  0  0  0  0  0  0  0  0
  -28.5414  -13.2404   16.6177 C   0  0  0  0  0  0  0  0  0  0  0  0
  -24.9462  -25.6182   21.2793 C   0  0  0  0  0  0  0  0  0  0  0  0
  -30.4116  -12.8477   18.0959 C   0  0  0  0  0  0  0  0  0  0  0  0
  -24.2072  -13.6501   21.1778 C   0  0  0  0  0  0  0  0  0  0  0  0
  -22.7000  -14.4678   23.0665 C   0  0  0  0  0  0  0  0  0  0  0  0
  -29.7930  -18.1199   19.4373 C   0  0  0  0  0  0  0  0  0  0  0  0
  -25.7790  -24.2656   19.4526 C   0  0  0  0  0  0  0  0  0  0  0  0
  -28.7036  -18.9309   19.8088 C   0  0  0  0  0  0  0  0  0  0  0  0
  -26.0281  -25.1072   20.5462 C   0  0  0  0  0  0  0  0  0  0  0  0
  -26.3258  -12.1726   20.1236 C   0  0  0  0  0  0  0  0  0  0  0  0
  -23.6346  -25.3068   20.9219 C   0  0  0  0  0  0  0  0  0  0  0  0
  -28.2034  -12.0863   18.7132 C   0  0  0  0  0  0  0  0  0  0  0  0
  -29.9009  -13.3633   16.9047 C   0  0  0  0  0  0  0  0  0  0  0  0
  -29.5629  -12.2092   19.0002 C   0  0  0  0  0  0  0  0  0  0  0  0
  -23.1133  -14.4139   21.7219 C   0  0  0  0  0  0  0  0  0  0  0  0
  -21.6283  -15.3269   23.0622 C   0  0  0  0  0  0  0  0  0  0  0  0
  -23.2369  -13.8010   24.2167 C   0  0  0  0  0  0  0  0  0  0  0  0
  -28.2836  -22.5538   20.4015 C   0  0  0  0  0  0  0  0  0  0  0  0
  -29.8232  -25.3997   20.1716 C   0  0  0  0  0  0  0  0  0  0  0  0
  -29.6301  -28.8070   20.1783 C   0  0  0  0  0  0  0  0  0  0  0  0
  -20.1573  -19.7623   19.4540 C   0  0  0  0  0  0  0  0  0  0  0  0
  -31.1868  -18.3792   19.9518 C   0  0  0  0  0  0  0  0  0  0  0  0
  -26.9183  -23.7232   18.6339 C   0  0  0  0  0  0  0  0  0  0  0  0
  -27.4286  -25.4727   20.9628 C   0  0  0  0  0  0  0  0  0  0  0  0
  -31.3772  -19.7863   20.5123 C   0  0  0  0  0  0  0  0  0  0  0  0
  -18.0957  -16.8931   20.2382 C   0  0  0  0  0  0  0  0  0  0  0  0
  -30.2206  -20.1539   21.4363 C   0  0  0  0  0  0  0  0  0  0  0  0
  -19.1249  -15.9344   20.8398 C   0  0  0  0  0  0  0  0  0  0  0  0
  -18.6915  -17.6877   19.0798 C   0  0  0  0  0  0  0  0  0  0  0  0
  -20.9588  -17.4875   20.0247 C   0  0  0  0  0  0  0  0  0  0  0  0
  -20.7781  -27.5591   22.4816 C   0  0  0  0  0  0  0  0  0  0  0  0
  -18.4313  -28.3784   22.7688 C   0  0  0  0  0  0  0  0  0  0  0  0
  -28.8878  -20.1560   20.6779 C   0  0  1  0  0  0  0  0  0  0  0  0
  -28.2357  -23.6744   19.4017 C   0  0  1  0  0  0  0  0  0  0  0  0
  -20.2758  -26.1471   22.1639 C   0  0  1  0  0  0  0  0  0  0  0  0
  -20.4243  -16.6709   21.2154 C   0  0  2  0  0  0  0  0  0  0  0  0
  -18.8515  -26.2001   21.5690 C   0  0  2  0  0  0  0  0  0  0  0  0
  -17.8419  -26.9845   22.4576 C   0  0  0  0  0  0  0  0  0  0  0  0
  -16.5146  -27.2113   21.6994 C   0  0  0  0  0  0  0  0  0  0  0  0
  -17.5066  -26.2464   23.7728 C   0  0  0  0  0  0  0  0  0  0  0  0
  -31.0609  -30.8615   20.0078 C   0  0  0  0  0  0  0  0  0  0  0  0
  -19.5951  -30.0124   25.0975 C   0  0  0  0  0  0  0  0  0  0  0  0
  -20.1135  -30.5959   22.6965 C   0  0  0  0  0  0  0  0  0  0  0  0
  -18.0118  -24.8184   18.9119 C   0  0  0  0  0  0  0  0  0  0  0  0
  -30.7591  -24.9835   23.0457 C   0  0  0  0  0  0  0  0  0  0  0  0
  -31.3475  -27.4155   23.1326 C   0  0  0  0  0  0  0  0  0  0  0  0
  -32.4974  -25.9132   21.5068 C   0  0  0  0  0  0  0  0  0  0  0  0
  -28.2367  -29.7154   17.7304 C   0  0  0  0  0  0  0  0  0  0  0  0
  -21.2815  -25.4650   21.2284 C   0  0  0  0  0  0  0  0  0  1  0  0
  -18.7266  -22.6968   20.0860 C   0  0  0  0  0  0  0  0  0  0  0  0
  -19.2200  -21.9743   18.8333 C   0  0  0  0  0  0  0  0  0  0  0  0
  -30.0839  -26.5530   21.1101 C   0  0  1  0  0  0  0  0  0  0  0  0
  -30.2175  -29.8510   19.2459 C   0  0  2  0  0  0  0  0  0  0  0  0
  -20.3243  -29.6028   23.8280 C   0  0  0  0  0  0  0  0  0  0  0  0
  -18.8478  -24.2256   20.0392 C   0  0  2  0  0  0  0  0  0  0  0  0
  -31.1455  -26.2080   22.1924 C   0  0  0  0  0  0  0  0  0  0  0  0
  -22.3650  -15.1778   20.9214 N   0  0  0  0  0  0  0  0  0  0  0  0
  -21.4708  -15.7197   21.7656 N   0  0  0  0  0  0  0  0  0  0  0  0
  -28.5090  -24.9123   20.1345 N   0  0  0  0  0  0  0  0  0  0  0  0
  -19.9153  -18.3796   19.5084 N   0  0  0  0  0  0  0  0  0  0  0  0
  -20.8148  -15.7769   24.0410 N   0  0  0  0  0  0  0  0  0  0  0  0
  -24.3397  -12.9536   24.0435 N   0  0  0  0  0  0  0  0  0  0  0  0
  -28.7576  -21.3616   19.8880 N   0  0  0  0  0  0  0  0  0  0  0  0
  -30.4361  -27.6920   20.2692 N   0  0  0  0  0  0  0  0  0  0  0  0
  -19.1211  -20.5360   18.9459 N   0  0  0  0  0  0  0  0  0  0  0  0
  -19.8013  -28.2609   23.3890 N   0  3  2  0  0  0  0  0  0  0  0  0
  -18.3693  -24.8090   21.3174 N   0  3  0  0  0  0  0  0  0  0  0  0
  -29.1299  -30.5846   18.5389 N   0  3  0  0  0  0  0  0  0  0  0  0
  -22.7427  -13.9393   25.3613 O   0  0  0  0  0  0  0  0  0  0  0  0
  -27.9190  -22.7561   21.5538 O   0  0  0  0  0  0  0  0  0  0  0  0
  -30.7497  -24.9525   19.4910 O   0  0  0  0  0  0  0  0  0  0  0  0
  -28.5646  -28.9663   20.7700 O   0  0  0  0  0  0  0  0  0  0  0  0
  -21.2171  -20.2707   19.8354 O   0  0  0  0  0  0  0  0  0  0  0  0
  -27.3597  -11.4520   19.6095 O   0  0  0  0  0  0  0  0  0  0  0  0
  -22.5847  -25.8159   21.6480 O   0  0  0  0  0  0  0  0  0  1  0  0
  -30.7160  -13.9751   16.0356 F   0  0  0  0  0  0  0  0  0  0  0  0
  -30.0596  -11.7149   20.1424 F   0  0  0  0  0  0  0  0  0  0  0  0
  1  2  1  0  0  0  0
  1  5  2  0  0  0  0
  2  6  2  0  0  0  0
  3  8  2  0  0  0  0
  3 15  1  0  0  0  0
  4  9  1  0  0  0  0
  4 15  2  0  0  0  0
  5 17  1  0  0  0  0
  6 19  1  0  0  0  0
  7 10  2  0  0  0  0
  7 18  1  0  0  0  0
  8 21  1  0  0  0  0
  9 21  2  0  0  0  0
 10 22  1  0  0  0  0
 11 12  2  0  0  0  0
 11 23  1  0  0  0  0
 12 24  1  0  0  0  0
 13 20  1  0  0  0  0
 13 22  2  0  0  0  0
 14 24  2  0  0  0  0
 14 25  1  0  0  0  0
 15 26  1  0  0  0  0
 16 26  1  0  0  0  0
 16 27  2  0  0  0  0
 16 28  1  0  0  0  0
 17 19  2  0  0  0  0
 17 33  1  0  0  0  0
 18 20  2  0  0  0  0
 18 34  1  0  0  0  0
 19 44  1  0  0  0  0
 20 35  1  0  0  0  0
 21 85  1  0  0  0  0
 22 86  1  0  0  0  0
 23 25  2  0  0  0  0
 23 85  1  0  0  0  0
 24 87  1  0  0  0  0
 25 88  1  0  0  0  0
 26 68  2  0  0  0  0
 27 69  1  0  0  0  0
 27 72  1  0  0  0  0
 28 73  1  0  0  0  0
 28 80  2  0  0  0  0
 29 45  1  0  0  0  0
 29 74  1  0  0  0  0
 29 81  2  0  0  0  0
 30 63  1  0  0  0  0
 30 70  1  0  0  0  0
 30 82  2  0  0  0  0
 31 64  1  0  0  0  0
 31 75  1  0  0  0  0
 31 83  2  0  0  0  0
 32 71  1  0  0  0  0
 32 76  1  0  0  0  0
 32 84  2  0  0  0  0
 33 36  1  0  0  0  0
 34 45  1  0  0  0  0
 35 70  1  0  0  0  0
 36 38  1  0  0  0  0
 37 39  1  0  0  0  0
 37 40  1  0  0  0  0
 38 44  1  0  0  0  0
 39 47  1  0  0  0  0
 40 71  1  0  0  0  0
 41 47  1  0  0  0  0
 41 71  1  0  0  0  0
 42 46  1  0  0  0  0
 42 77  1  0  0  0  0
 43 49  1  0  0  0  0
 43 77  1  0  0  0  0
 44 74  1  0  0  0  0
 45 70  1  0  0  0  0
 46 48  1  0  0  0  0
 46 60  1  0  0  0  0
 47 69  1  0  0  0  0
 48 49  1  0  0  0  0
 48 78  1  0  0  0  0
 49 50  1  0  0  0  0
 49 51  1  0  0  0  0
 52 64  1  0  0  0  0
 53 65  1  0  0  0  0
 54 65  1  0  0  0  0
 55 66  1  0  0  0  0
 56 67  1  0  0  0  0
 57 67  1  0  0  0  0
 58 67  1  0  0  0  0
 59 79  1  0  0  0  0
 60 86  1  0  0  0  0
 61 62  1  0  0  0  0
 61 66  1  0  0  0  0
 62 76  1  0  0  0  0
 63 67  1  0  0  0  0
 63 75  1  0  0  0  0
 64 79  1  0  0  0  0
 65 77  1  0  0  0  0
 66 78  1  0  0  0  0
 68 69  1  0  0  0  0
M  CHG  3  77   1  78   1  79   1
M  ISO  4  32 100  60 101  76 100  86 101
M  END
> <Batch ID>
0019

> <Smiles>
CNC(C)C(=O)NC(C(=O)N1Cc2cc([101O:1][101CH2:1]C3CN(C(C)C)CC(C)(C)C3NC(C)CC[100NH:0][100C:0](=O)N3CCCC(n4nc(-c5ccc(Oc6ccc(F)cc6F)cc5)c(C(N)=O)c4N)C3)ccc2CC1C(=O)NC1CCCc2ccccc21)C(C)(C)C

> <Shape>
0.237

> <Color>
0.060

> <Negative vol penalty>
0.000

$$$$

  -OEChem-04052316073D

 83 91  0     1  0  0  0  0  0999 V2000
  -31.6935  -32.7149   24.2323 C   0  0  0  0  0  0  0  0  0  0  0  0
  -31.3622  -32.1452   23.0071 C   0  0  0  0  0  0  0  0  0  0  0  0
  -25.9472  -14.1583   21.4979 C   0  0  0  0  0  0  0  0  0  0  0  0
  -25.4670  -14.9005   19.2494 C   0  0  0  0  0  0  0  0  0  0  0  0
  -30.9906  -32.3533   25.3808 C   0  0  0  0  0  0  0  0  0  0  0  0
  -30.3284  -31.2126   22.9299 C   0  0  0  0  0  0  0  0  0  0  0  0
  -26.4014  -30.4451   18.2936 C   0  0  0  0  0  0  0  0  0  0  0  0
  -24.8530  -13.2948   21.4466 C   0  0  0  0  0  0  0  0  0  0  0  0
  -24.3727  -14.0370   19.1981 C   0  0  0  0  0  0  0  0  0  0  0  0
  -26.3686  -29.5422   17.2318 C   0  0  0  0  0  0  0  0  0  0  0  0
  -24.1269  -10.2698   20.1218 C   0  0  0  0  0  0  0  0  0  0  0  0
  -24.3055   -8.9684   20.5908 C   0  0  0  0  0  0  0  0  0  0  0  0
  -24.8767  -28.1251   18.4909 C   0  0  0  0  0  0  0  0  0  0  0  0
  -22.5799   -9.3271   22.2433 C   0  0  0  0  0  0  0  0  0  0  0  0
  -26.2542  -14.9612   20.3993 C   0  0  0  0  0  0  0  0  0  0  0  0
  -28.7102  -15.5696   20.0746 C   0  0  0  0  0  0  0  0  0  0  0  0
  -29.9413  -31.4230   25.3160 C   0  0  0  0  0  0  0  0  0  0  0  0
  -25.6795  -30.1891   19.4682 C   0  0  0  0  0  0  0  0  0  0  0  0
  -29.6117  -30.8372   24.0788 C   0  0  0  0  0  0  0  0  0  0  0  0
  -24.8999  -29.0277   19.5651 C   0  0  0  0  0  0  0  0  0  0  0  0
  -25.9646  -24.1923   16.4469 C   0  0  0  0  0  0  0  0  0  0  0  0
  -27.0494  -24.9934   16.0906 C   0  0  0  0  0  0  0  0  0  0  0  0
  -26.0900  -23.2702   17.4861 C   0  0  0  0  0  0  0  0  0  0  0  0
  -28.2596  -24.8726   16.7734 C   0  0  0  0  0  0  0  0  0  0  0  0
  -27.3003  -23.1494   18.1689 C   0  0  0  0  0  0  0  0  0  0  0  0
  -24.0657  -13.2341   20.2967 C   0  0  0  0  0  0  0  0  0  0  0  0
  -25.6085  -28.3806   17.3314 C   0  0  0  0  0  0  0  0  0  0  0  0
  -23.1748  -11.1000   20.7136 C   0  0  0  0  0  0  0  0  0  0  0  0
  -23.5320   -8.4971   21.6516 C   0  0  0  0  0  0  0  0  0  0  0  0
  -22.4013  -10.6286   21.7743 C   0  0  0  0  0  0  0  0  0  0  0  0
  -28.3851  -23.9505   17.8126 C   0  0  0  0  0  0  0  0  0  0  0  0
  -27.3841  -15.8538   20.4519 C   0  0  0  0  0  0  0  0  0  0  0  0
  -29.3929  -16.7372   20.3133 C   0  0  0  0  0  0  0  0  0  0  0  0
  -29.2745  -14.3584   19.5547 C   0  0  0  0  0  0  0  0  0  0  0  0
  -26.4471  -29.7383   22.5196 C   0  0  0  0  0  0  0  0  0  0  0  0
  -23.2291  -29.7566   22.9274 C   0  0  0  0  0  0  0  0  0  0  0  0
  -20.1338  -29.2872   21.5688 C   0  0  0  0  0  0  0  0  0  0  0  0
  -27.7182  -22.4679   20.5579 C   0  0  0  0  0  0  0  0  0  0  0  0
  -29.2414  -31.0280   26.5922 C   0  0  0  0  0  0  0  0  0  0  0  0
  -25.7040  -31.1861   20.5941 C   0  0  0  0  0  0  0  0  0  0  0  0
  -24.0907  -28.7162   20.7966 C   0  0  0  0  0  0  0  0  0  0  0  0
  -27.9127  -30.3126   26.3620 C   0  0  0  0  0  0  0  0  0  0  0  0
  -29.3224  -20.6064   23.1344 C   0  0  0  0  0  0  0  0  0  0  0  0
  -28.0657  -29.2326   25.2957 C   0  0  0  0  0  0  0  0  0  0  0  0
  -29.1334  -19.1508   22.7014 C   0  0  0  0  0  0  0  0  0  0  0  0
  -28.1022  -21.4615   22.7972 C   0  0  0  0  0  0  0  0  0  0  0  0
  -27.4765  -19.9396   20.9638 C   0  0  0  0  0  0  0  0  0  0  0  0
  -28.4802  -29.8404   23.9503 C   0  0  1  0  0  0  0  0  0  0  0  0
  -25.3392  -30.5735   21.9428 C   0  0  1  0  0  0  0  0  0  0  0  0
  -28.7055  -19.0534   21.2239 C   0  0  2  0  0  0  0  0  0  0  0  0
  -24.6672  -24.3222   15.7125 C   0  0  0  0  0  0  0  0  0  0  0  0
  -24.9214  -22.4130   17.8628 C   0  0  0  0  0  0  0  0  0  0  0  0
  -29.4124  -25.7424   16.3759 C   0  0  0  0  0  0  0  0  0  0  0  0
  -17.6952  -29.3384   22.1587 C   0  0  0  0  0  0  0  0  0  0  0  0
  -23.5202  -27.0749   24.3535 C   0  0  0  0  0  0  0  0  0  0  0  0
  -21.0561  -26.7350   24.0687 C   0  0  0  0  0  0  0  0  0  0  0  0
  -21.9006  -28.6536   25.4208 C   0  0  0  0  0  0  0  0  0  0  0  0
  -19.5862  -31.4369   19.6098 C   0  0  0  0  0  0  0  0  0  0  0  0
  -26.9128  -25.9903   14.9655 C   0  0  0  0  0  0  0  0  0  0  0  0
  -26.7380  -27.4174   15.4733 C   0  0  0  0  0  0  0  0  0  1  0  0
  -22.1426  -28.7088   22.9048 C   0  0  1  0  0  0  0  0  0  0  0  0
  -18.8738  -30.1324   21.6172 C   0  0  2  0  0  0  0  0  0  0  0  0
  -22.1716  -27.7977   24.1643 C   0  0  0  0  0  0  0  0  0  0  0  0
  -27.2311  -17.1039   20.8966 N   0  0  0  0  0  0  0  0  0  0  0  0
  -28.4701  -17.6156   20.8004 N   0  0  0  0  0  0  0  0  0  0  0  0
  -24.1523  -29.7188   21.8729 N   0  0  0  0  0  0  0  0  0  0  0  0
  -27.7580  -21.3223   21.3805 N   0  0  0  0  0  0  0  0  0  0  0  0
  -30.6864  -17.0881   20.1521 N   0  0  0  0  0  0  0  0  0  0  0  0
  -28.4318  -13.2537   19.3709 N   0  0  0  0  0  0  0  0  0  0  0  0
  -27.4115  -22.2085   19.2225 N   0  0  0  0  0  0  0  0  0  0  0  0
  -27.3406  -30.4490   23.2981 N   0  0  0  0  0  0  0  0  0  0  0  0
  -20.8868  -29.4268   22.7155 N   0  0  0  0  0  0  0  0  0  0  0  0
  -18.5247  -30.6204   20.2530 N   0  3  0  0  0  0  0  0  0  0  0  0
  -30.4934  -14.2536   19.2774 O   0  0  0  0  0  0  0  0  0  0  0  0
  -26.4874  -28.5377   22.2777 O   0  0  0  0  0  0  0  0  0  0  0  0
  -23.2534  -30.5828   23.8431 O   0  0  0  0  0  0  0  0  0  0  0  0
  -20.4195  -28.5715   20.6114 O   0  0  0  0  0  0  0  0  0  0  0  0
  -27.9665  -23.5928   20.9994 O   0  0  0  0  0  0  0  0  0  0  0  0
  -22.9980  -12.3915   20.2462 O   0  0  0  0  0  0  0  0  0  0  0  0
  -25.5753  -27.4972   16.2968 O   0  0  0  0  0  0  0  0  0  1  0  0
  -23.7026   -7.2468   22.1009 F   0  0  0  0  0  0  0  0  0  0  0  0
  -21.4842  -11.4210   22.3460 F   0  0  0  0  0  0  0  0  0  0  0  0
  -29.8940  -23.8037   18.6565 Cl  0  0  0  0  0  0  0  0  0  0  0  0
  1  2  1  0  0  0  0
  1  5  2  0  0  0  0
  2  6  2  0  0  0  0
  3  8  2  0  0  0  0
  3 15  1  0  0  0  0
  4  9  1  0  0  0  0
  4 15  2  0  0  0  0
  5 17  1  0  0  0  0
  6 19  1  0  0  0  0
  7 10  2  0  0  0  0
  7 18  1  0  0  0  0
  8 26  1  0  0  0  0
  9 26  2  0  0  0  0
 10 27  1  0  0  0  0
 11 12  2  0  0  0  0
 11 28  1  0  0  0  0
 12 29  1  0  0  0  0
 13 20  1  0  0  0  0
 13 27  2  0  0  0  0
 14 29  2  0  0  0  0
 14 30  1  0  0  0  0
 15 32  1  0  0  0  0
 16 32  1  0  0  0  0
 16 33  2  0  0  0  0
 16 34  1  0  0  0  0
 17 19  2  0  0  0  0
 17 39  1  0  0  0  0
 18 20  2  0  0  0  0
 18 40  1  0  0  0  0
 19 48  1  0  0  0  0
 20 41  1  0  0  0  0
 21 22  1  0  0  0  0
 21 23  2  0  0  0  0
 21 51  1  0  0  0  0
 22 24  2  0  0  0  0
 22 59  1  0  0  0  0
 23 25  1  0  0  0  0
 23 52  1  0  0  0  0
 24 31  1  0  0  0  0
 24 53  1  0  0  0  0
 25 31  2  0  0  0  0
 25 70  1  0  0  0  0
 26 79  1  0  0  0  0
 27 80  1  0  0  0  0
 28 30  2  0  0  0  0
 28 79  1  0  0  0  0
 29 81  1  0  0  0  0
 30 82  1  0  0  0  0
 31 83  1  0  0  0  0
 32 64  2  0  0  0  0
 33 65  1  0  0  0  0
 33 68  1  0  0  0  0
 34 69  1  0  0  0  0
 34 74  2  0  0  0  0
 35 49  1  0  0  0  0
 35 71  1  0  0  0  0
 35 75  2  0  0  0  0
 36 61  1  0  0  0  0
 36 66  1  0  0  0  0
 36 76  2  0  0  0  0
 37 62  1  0  0  0  0
 37 72  1  0  0  0  0
 37 77  2  0  0  0  0
 38 67  1  0  0  0  0
 38 70  1  0  0  0  0
 38 78  2  0  0  0  0
 39 42  1  0  0  0  0
 40 49  1  0  0  0  0
 41 66  1  0  0  0  0
 42 44  1  0  0  0  0
 43 45  1  0  0  0  0
 43 46  1  0  0  0  0
 44 48  1  0  0  0  0
 45 50  1  0  0  0  0
 46 67  1  0  0  0  0
 47 50  1  0  0  0  0
 47 67  1  0  0  0  0
 48 71  1  0  0  0  0
 49 66  1  0  0  0  0
 50 65  1  0  0  0  0
 54 62  1  0  0  0  0
 55 63  1  0  0  0  0
 56 63  1  0  0  0  0
 57 63  1  0  0  0  0
 58 73  1  0  0  0  0
 59 60  1  0  0  0  0
 60 80  1  0  0  0  0
 61 63  1  0  0  0  0
 61 72  1  0  0  0  0
 62 73  1  0  0  0  0
 64 65  1  0  0  0  0
M  CHG  1  73   1
M  ISO  4  38 100  60 101  70 100  80 101
M  END
> <Batch ID>
0019

> <Smiles>
CNC(C)C(=O)NC(C(=O)N1Cc2cc([101O:1][101CH2:1]Cc3c(C)c(C)c([100NH:0][100C:0](=O)N4CCCC(n5nc(-c6ccc(Oc7ccc(F)cc7F)cc6)c(C(N)=O)c5N)C4)c(Cl)c3C)ccc2CC1C(=O)NC1CCCc2ccccc21)C(C)(C)C

> <Shape>
0.239

> <Color>
0.062

> <Negative vol penalty>
0.000

$$$$

  -OEChem-04052316073D

 89 97  0     1  0  0  0  0  0999 V2000
  -20.9970  -29.4446   25.5332 C   0  0  0  0  0  0  0  0  0  0  0  0
  -21.5212  -28.1570   25.5849 C   0  0  0  0  0  0  0  0  0  0  0  0
  -28.5413  -26.3129   19.3035 C   0  0  0  0  0  0  0  0  0  0  0  0
  -28.9340  -25.3371   21.4785 C   0  0  0  0  0  0  0  0  0  0  0  0
  -20.0740  -29.7810   24.5439 C   0  0  0  0  0  0  0  0  0  0  0  0
  -21.1218  -27.2047   24.6479 C   0  0  0  0  0  0  0  0  0  0  0  0
  -24.5579  -22.7453   22.2369 C   0  0  0  0  0  0  0  0  0  0  0  0
  -27.9372  -27.4157   19.9073 C   0  0  0  0  0  0  0  0  0  0  0  0
  -28.3300  -26.4400   22.0823 C   0  0  0  0  0  0  0  0  0  0  0  0
  -24.6826  -21.3899   22.5389 C   0  0  0  0  0  0  0  0  0  0  0  0
  -24.9443  -28.1728   21.2833 C   0  0  0  0  0  0  0  0  0  0  0  0
  -23.7469  -28.6348   20.7371 C   0  0  0  0  0  0  0  0  0  0  0  0
  -23.0989  -20.8624   20.7974 C   0  0  0  0  0  0  0  0  0  0  0  0
  -29.3866  -14.1123   20.2292 C   0  0  0  0  0  0  0  0  0  0  0  0
  -24.7691  -30.7824   20.3127 C   0  0  0  0  0  0  0  0  0  0  0  0
  -29.0396  -25.2736   20.0891 C   0  0  0  0  0  0  0  0  0  0  0  0
  -31.0261  -23.9776   19.1500 C   0  0  0  0  0  0  0  0  0  0  0  0
  -19.6704  -28.8351   23.5884 C   0  0  0  0  0  0  0  0  0  0  0  0
  -23.6931  -23.1710   21.2184 C   0  0  0  0  0  0  0  0  0  0  0  0
  -20.1915  -27.5284   23.6456 C   0  0  0  0  0  0  0  0  0  0  0  0
  -22.9670  -22.2235   20.4827 C   0  0  0  0  0  0  0  0  0  0  0  0
  -28.8396  -13.1073   21.0268 C   0  0  0  0  0  0  0  0  0  0  0  0
  -29.5334  -13.9111   18.8567 C   0  0  0  0  0  0  0  0  0  0  0  0
  -28.4395  -11.9010   20.4521 C   0  0  0  0  0  0  0  0  0  0  0  0
  -28.5863  -11.6997   19.0796 C   0  0  0  0  0  0  0  0  0  0  0  0
  -27.8316  -27.4793   21.2967 C   0  0  0  0  0  0  0  0  0  0  0  0
  -23.9508  -20.4485   21.8210 C   0  0  0  0  0  0  0  0  0  0  0  0
  -26.0541  -29.0157   21.3443 C   0  0  0  0  0  0  0  0  0  0  0  0
  -29.1333  -12.7048   18.2819 C   0  0  0  0  0  0  0  0  0  0  0  0
  -23.6593  -29.9395   20.2518 C   0  0  0  0  0  0  0  0  0  0  0  0
  -25.9665  -30.3204   20.8590 C   0  0  0  0  0  0  0  0  0  0  0  0
  -29.6632  -24.1339   19.4660 C   0  0  0  0  0  0  0  0  0  0  0  0
  -31.1052  -22.7315   18.5776 C   0  0  0  0  0  0  0  0  0  0  0  0
  -32.1226  -24.8782   19.3556 C   0  0  0  0  0  0  0  0  0  0  0  0
  -21.1066  -25.0147   21.0968 C   0  0  0  0  0  0  0  0  0  0  0  0
  -21.4282  -24.5853   17.8976 C   0  0  0  0  0  0  0  0  0  0  0  0
  -22.6251  -22.6730   15.3369 C   0  0  0  0  0  0  0  0  0  0  0  0
  -29.8788  -17.3984   18.6040 C   0  0  0  0  0  0  0  0  0  0  0  0
  -18.6344  -29.2319   22.5666 C   0  0  0  0  0  0  0  0  0  0  0  0
  -23.5901  -24.6345   20.8871 C   0  0  0  0  0  0  0  0  0  0  0  0
  -22.0402  -22.6272   19.3662 C   0  0  0  0  0  0  0  0  0  0  0  0
  -18.5465  -28.2712   21.3836 C   0  0  0  0  0  0  0  0  0  0  0  0
  -27.4636  -19.5823   17.0245 C   0  0  0  0  0  0  0  0  0  0  0  0
  -18.5177  -26.8259   21.8706 C   0  0  0  0  0  0  0  0  0  0  0  0
  -27.9403  -20.9564   17.4986 C   0  0  0  0  0  0  0  0  0  0  0  0
  -27.6267  -18.5324   18.1196 C   0  0  0  0  0  0  0  0  0  0  0  0
  -29.4889  -19.7878   19.1344 C   0  0  0  0  0  0  0  0  0  0  0  0
  -19.8017  -26.4746   22.6319 C   0  0  1  0  0  0  0  0  0  0  0  0
  -22.2913  -24.9955   20.1728 C   0  0  1  0  0  0  0  0  0  0  0  0
  -29.3711  -20.8886   18.0646 C   0  0  2  0  0  0  0  0  0  0  0  0
  -27.8521  -10.8246   21.3089 C   0  0  0  0  0  0  0  0  0  0  0  0
  -28.1586  -10.4088   18.4572 C   0  0  0  0  0  0  0  0  0  0  0  0
  -29.9323  -12.9425   23.3010 C   0  0  0  0  0  0  0  0  0  0  0  0
  -23.1791  -22.0247   12.9768 C   0  0  0  0  0  0  0  0  0  0  0  0
  -18.5250  -23.6471   17.8582 C   0  0  0  0  0  0  0  0  0  0  0  0
  -18.9441  -22.6713   15.5909 C   0  0  0  0  0  0  0  0  0  0  0  0
  -19.1682  -25.1297   15.9496 C   0  0  0  0  0  0  0  0  0  0  0  0
  -25.2380  -24.0584   15.4469 C   0  0  0  0  0  0  0  0  0  0  0  0
  -28.1881  -12.8945   16.1079 C   0  0  0  0  0  0  0  0  0  0  0  0
  -30.1207  -14.9991   18.0195 C   0  0  0  0  0  0  0  0  0  0  0  0
  -26.8795  -16.6987   22.7296 C   0  0  0  0  0  0  0  0  0  0  0  0
  -25.5413  -17.2325   22.2241 C   0  0  0  0  0  0  0  0  0  0  0  0
  -27.0988  -15.2614   22.2817 C   0  0  0  0  0  0  0  0  0  0  0  0
  -25.3263  -18.6842   22.6280 C   0  0  0  0  0  0  0  0  0  1  0  0
  -28.6915  -13.3509   22.5110 C   0  0  1  0  0  0  0  0  0  0  0  0
  -20.9207  -23.5739   16.8984 C   0  0  1  0  0  0  0  0  0  0  0  0
  -23.4077  -23.0372   14.0882 C   0  0  2  0  0  0  0  0  0  0  0  0
  -19.4055  -23.7477   16.5965 C   0  0  0  0  0  0  0  0  0  0  0  0
  -28.9292  -23.0720   19.1227 N   0  0  0  0  0  0  0  0  0  0  0  0
  -29.8343  -22.2366   18.5850 N   0  0  0  0  0  0  0  0  0  0  0  0
  -21.9690  -24.0705   19.0844 N   0  0  0  0  0  0  0  0  0  0  0  0
  -29.0147  -18.5060   18.6019 N   0  0  0  0  0  0  0  0  0  0  0  0
  -32.1371  -22.0219   18.0737 N   0  0  0  0  0  0  0  0  0  0  0  0
  -31.8654  -26.1176   19.9572 N   0  0  0  0  0  0  0  0  0  0  0  0
  -20.8884  -26.2353   21.7065 N   0  0  0  0  0  0  0  0  0  0  0  0
  -21.7809  -23.6915   15.7259 N   0  0  0  0  0  0  0  0  0  0  0  0
  -29.3505  -16.2209   18.0891 N   0  0  0  0  0  0  0  0  0  0  0  0
  -24.8669  -23.0856   14.3872 N   0  3  0  0  0  0  0  0  0  0  0  0
  -28.3857  -14.7721   22.8322 N   0  3  0  0  0  0  0  0  0  0  0  0
  -33.2930  -24.5990   19.0009 O   0  0  0  0  0  0  0  0  0  0  0  0
  -20.4390  -23.9977   21.2444 O   0  0  0  0  0  0  0  0  0  0  0  0
  -21.3541  -25.7876   17.6319 O   0  0  0  0  0  0  0  0  0  0  0  0
  -22.7474  -21.5915   15.9079 O   0  0  0  0  0  0  0  0  0  0  0  0
  -31.0380  -17.4558   19.0285 O   0  0  0  0  0  0  0  0  0  0  0  0
  -27.2425  -28.5553   21.8862 O   0  0  0  0  0  0  0  0  0  0  0  0
  -29.2794  -12.5090   16.9398 O   0  0  0  0  0  0  0  0  0  0  0  0
  -24.0701  -19.1249   22.1142 O   0  0  0  0  0  0  0  0  0  1  0  0
  -22.5098  -30.3825   19.7258 F   0  0  0  0  0  0  0  0  0  0  0  0
  -27.0296  -31.1344   20.9137 F   0  0  0  0  0  0  0  0  0  0  0  0
  1  2  1  0  0  0  0
  1  5  2  0  0  0  0
  2  6  2  0  0  0  0
  3  8  2  0  0  0  0
  3 16  1  0  0  0  0
  4  9  1  0  0  0  0
  4 16  2  0  0  0  0
  5 18  1  0  0  0  0
  6 20  1  0  0  0  0
  7 10  2  0  0  0  0
  7 19  1  0  0  0  0
  8 26  1  0  0  0  0
  9 26  2  0  0  0  0
 10 27  1  0  0  0  0
 11 12  2  0  0  0  0
 11 28  1  0  0  0  0
 12 30  1  0  0  0  0
 13 21  1  0  0  0  0
 13 27  2  0  0  0  0
 14 22  1  0  0  0  0
 14 23  2  0  0  0  0
 15 30  2  0  0  0  0
 15 31  1  0  0  0  0
 16 32  1  0  0  0  0
 17 32  1  0  0  0  0
 17 33  2  0  0  0  0
 17 34  1  0  0  0  0
 18 20  2  0  0  0  0
 18 39  1  0  0  0  0
 19 21  2  0  0  0  0
 19 40  1  0  0  0  0
 20 48  1  0  0  0  0
 21 41  1  0  0  0  0
 22 24  2  0  0  0  0
 22 65  1  0  0  0  0
 23 29  1  0  0  0  0
 23 60  1  0  0  0  0
 24 25  1  0  0  0  0
 24 51  1  0  0  0  0
 25 29  2  0  0  0  0
 25 52  1  0  0  0  0
 26 85  1  0  0  0  0
 27 87  1  0  0  0  0
 28 31  2  0  0  0  0
 28 85  1  0  0  0  0
 29 86  1  0  0  0  0
 30 88  1  0  0  0  0
 31 89  1  0  0  0  0
 32 69  2  0  0  0  0
 33 70  1  0  0  0  0
 33 73  1  0  0  0  0
 34 74  1  0  0  0  0
 34 80  2  0  0  0  0
 35 49  1  0  0  0  0
 35 75  1  0  0  0  0
 35 81  2  0  0  0  0
 36 66  1  0  0  0  0
 36 71  1  0  0  0  0
 36 82  2  0  0  0  0
 37 67  1  0  0  0  0
 37 76  1  0  0  0  0
 37 83  2  0  0  0  0
 38 72  1  0  0  0  0
 38 77  1  0  0  0  0
 38 84  2  0  0  0  0
 39 42  1  0  0  0  0
 40 49  1  0  0  0  0
 41 71  1  0  0  0  0
 42 44  1  0  0  0  0
 43 45  1  0  0  0  0
 43 46  1  0  0  0  0
 44 48  1  0  0  0  0
 45 50  1  0  0  0  0
 46 72  1  0  0  0  0
 47 50  1  0  0  0  0
 47 72  1  0  0  0  0
 48 75  1  0  0  0  0
 49 71  1  0  0  0  0
 50 70  1  0  0  0  0
 53 65  1  0  0  0  0
 54 67  1  0  0  0  0
 55 68  1  0  0  0  0
 56 68  1  0  0  0  0
 57 68  1  0  0  0  0
 58 78  1  0  0  0  0
 59 86  1  0  0  0  0
 60 77  1  0  0  0  0
 61 62  1  0  0  0  0
 61 63  1  0  0  0  0
 62 64  1  0  0  0  0
 63 79  1  0  0  0  0
 64 87  1  0  0  0  0
 65 79  1  0  0  0  0
 66 68  1  0  0  0  0
 66 76  1  0  0  0  0
 67 78  1  0  0  0  0
 69 70  1  0  0  0  0
M  CHG  2  78   1  79   1
M  ISO  4  38 100  64 101  77 100  87 101
M  END
> <Batch ID>
0019

> <Smiles>
CNC(C)C(=O)NC(C(=O)N1Cc2cc([101O:1][101CH2:1]CCCNC(C)c3cc(C[100NH:0][100C:0](=O)N4CCCC(n5nc(-c6ccc(Oc7ccc(F)cc7F)cc6)c(C(N)=O)c5N)C4)c(OC)c(C)c3C)ccc2CC1C(=O)NC1CCCc2ccccc21)C(C)(C)C

> <Shape>
0.221

> <Color>
0.070

> <Negative vol penalty>
0.000

$$$$

  -OEChem-04052316073D

 82 90  0     1  0  0  0  0  0999 V2000
  -38.0566  -29.5973   20.5039 C   0  0  0  0  0  0  0  0  0  0  0  0
  -38.1469  -28.2165   20.6480 C   0  0  0  0  0  0  0  0  0  0  0  0
  -23.2321   -9.8360   19.8854 C   0  0  0  0  0  0  0  0  0  0  0  0
  -23.6669   -9.9310   22.2600 C   0  0  0  0  0  0  0  0  0  0  0  0
  -36.8688  -30.2541   20.8227 C   0  0  0  0  0  0  0  0  0  0  0  0
  -37.0497  -27.4919   21.1120 C   0  0  0  0  0  0  0  0  0  0  0  0
  -33.8664  -21.1140   20.4006 C   0  0  0  0  0  0  0  0  0  0  0  0
  -30.5532  -15.0151   25.0710 C   0  0  0  0  0  0  0  0  0  0  0  0
  -22.4611   -8.6887   20.0725 C   0  0  0  0  0  0  0  0  0  0  0  0
  -22.8959   -8.7838   22.4471 C   0  0  0  0  0  0  0  0  0  0  0  0
  -33.3952  -20.0533   21.1730 C   0  0  0  0  0  0  0  0  0  0  0  0
  -19.3405   -7.9297   21.1301 C   0  0  0  0  0  0  0  0  0  0  0  0
  -18.1135   -7.8587   20.4706 C   0  0  0  0  0  0  0  0  0  0  0  0
  -31.1123  -16.1448   25.6682 C   0  0  0  0  0  0  0  0  0  0  0  0
  -31.3691  -21.2848   21.6176 C   0  0  0  0  0  0  0  0  0  0  0  0
  -18.8516   -5.8716   19.3114 C   0  0  0  0  0  0  0  0  0  0  0  0
  -23.8350  -10.4571   20.9792 C   0  0  0  0  0  0  0  0  0  0  0  0
  -24.1894  -12.9780   20.8143 C   0  0  0  0  0  0  0  0  0  0  0  0
  -35.7533  -29.5359   21.2817 C   0  0  0  0  0  0  0  0  0  0  0  0
  -33.0958  -22.2745   20.2395 C   0  0  0  0  0  0  0  0  0  0  0  0
  -35.8462  -28.1398   21.4385 C   0  0  0  0  0  0  0  0  0  0  0  0
  -31.8317  -22.3578   20.8405 C   0  0  0  0  0  0  0  0  0  0  0  0
  -30.6370  -14.8428   23.6893 C   0  0  0  0  0  0  0  0  0  0  0  0
  -31.8388  -16.9303   23.5020 C   0  0  0  0  0  0  0  0  0  0  0  0
  -22.2930   -8.1626   21.3533 C   0  0  0  0  0  0  0  0  0  0  0  0
  -32.1477  -20.1397   21.7840 C   0  0  0  0  0  0  0  0  0  0  0  0
  -20.3231   -6.9718   20.8802 C   0  0  0  0  0  0  0  0  0  0  0  0
  -17.8690   -6.8296   19.5613 C   0  0  0  0  0  0  0  0  0  0  0  0
  -20.0787   -5.9427   19.9709 C   0  0  0  0  0  0  0  0  0  0  0  0
  -31.7550  -17.1025   24.8837 C   0  0  0  0  0  0  0  0  0  0  0  0
  -31.2797  -15.8005   22.9049 C   0  0  0  0  0  0  0  0  0  0  0  0
  -24.6320  -11.6419   20.7865 C   0  0  0  0  0  0  0  0  0  0  0  0
  -25.3211  -13.7196   20.5782 C   0  0  0  0  0  0  0  0  0  0  0  0
  -22.8730  -13.5019   21.0339 C   0  0  0  0  0  0  0  0  0  0  0  0
  -33.4768  -25.3413   20.9834 C   0  0  0  0  0  0  0  0  0  0  0  0
  -30.7113  -25.6851   19.3233 C   0  0  0  0  0  0  0  0  0  0  0  0
  -27.8315  -24.2662   18.1657 C   0  0  0  0  0  0  0  0  0  0  0  0
  -31.1725  -12.1091   21.4182 C   0  0  0  0  0  0  0  0  0  0  0  0
  -34.5060  -30.2953   21.6587 C   0  0  0  0  0  0  0  0  0  0  0  0
  -33.6068  -23.3990   19.3813 C   0  0  0  0  0  0  0  0  0  0  0  0
  -30.9568  -23.5735   20.6820 C   0  0  0  0  0  0  0  0  0  0  0  0
  -33.2693  -29.4097   21.7877 C   0  0  0  0  0  0  0  0  0  0  0  0
  -29.5642  -13.5051   18.3907 C   0  0  0  0  0  0  0  0  0  0  0  0
  -33.5900  -28.1605   22.6024 C   0  0  0  0  0  0  0  0  0  0  0  0
  -28.0829  -13.2288   18.6429 C   0  0  0  0  0  0  0  0  0  0  0  0
  -30.4582  -12.4825   19.0854 C   0  0  0  0  0  0  0  0  0  0  0  0
  -28.7215  -12.0763   20.7981 C   0  0  0  0  0  0  0  0  0  0  0  0
  -34.6698  -27.3159   21.9153 C   0  0  1  0  0  0  0  0  0  0  0  0
  -32.9588  -24.7412   19.7069 C   0  0  1  0  0  0  0  0  0  0  0  0
  -27.7948  -13.1160   20.1501 C   0  0  2  0  0  0  0  0  0  0  0  0
  -25.7503  -24.8074   16.8723 C   0  0  0  0  0  0  0  0  0  0  0  0
  -29.5718  -27.1210   21.7625 C   0  0  0  0  0  0  0  0  0  0  0  0
  -27.2836  -26.7880   20.8027 C   0  0  0  0  0  0  0  0  0  0  0  0
  -28.9659  -28.1534   19.5667 C   0  0  0  0  0  0  0  0  0  0  0  0
  -32.0821  -12.3964   23.6919 C   0  0  0  0  0  0  0  0  0  0  0  0
  -28.4877  -22.2931   16.0597 C   0  0  0  0  0  0  0  0  0  0  0  0
  -30.0231  -13.6166   23.0942 C   0  0  0  0  0  0  0  0  0  0  0  0
  -32.5314  -17.9633   22.6627 C   0  0  0  0  0  0  0  0  0  1  0  0
  -29.2430  -25.6426   19.6715 C   0  0  1  0  0  0  0  0  0  0  0  0
  -27.1776  -24.2881   16.7959 C   0  0  2  0  0  0  0  0  0  0  0  0
  -28.7831  -26.9040   20.4556 C   0  0  0  0  0  0  0  0  0  0  0  0
  -25.9427  -11.5377   20.5512 N   0  0  0  0  0  0  0  0  0  0  0  0
  -26.3333  -12.8178   20.4289 N   0  0  0  0  0  0  0  0  0  0  0  0
  -31.5033  -24.6491   19.8383 N   0  0  0  0  0  0  0  0  0  0  0  0
  -30.1341  -12.3641   20.5075 N   0  0  0  0  0  0  0  0  0  0  0  0
  -25.5392  -15.0486   20.4858 N   0  0  0  0  0  0  0  0  0  0  0  0
  -21.8244  -12.6002   21.2613 N   0  0  0  0  0  0  0  0  0  0  0  0
  -34.1006  -26.5632   20.8181 N   0  0  0  0  0  0  0  0  0  0  0  0
  -28.5318  -25.4273   18.4160 N   0  0  0  0  0  0  0  0  0  0  0  0
  -31.0268  -12.6245   22.7150 N   0  0  0  0  0  0  0  0  0  0  0  0
  -27.1481  -22.9165   16.2139 N   0  3  0  0  0  0  0  0  0  0  0  0
  -22.6307  -14.7325   21.0124 O   0  0  0  0  0  0  0  0  0  0  0  0
  -33.3208  -24.7409   22.0402 O   0  0  0  0  0  0  0  0  0  0  0  0
  -31.1385  -26.5998   18.6143 O   0  0  0  0  0  0  0  0  0  0  0  0
  -27.7281  -23.3157   18.9380 O   0  0  0  0  0  0  0  0  0  0  0  0
  -32.1772  -11.4659   21.0882 O   0  0  0  0  0  0  0  0  0  0  0  0
  -21.5406   -7.0433   21.5363 O   0  0  0  0  0  0  0  0  0  0  0  0
  -31.6857  -19.1060   22.5390 O   0  0  0  0  0  0  0  0  0  1  0  0
  -16.6900   -6.7606   18.9293 F   0  0  0  0  0  0  0  0  0  0  0  0
  -21.0184   -5.0188   19.7275 F   0  0  0  0  0  0  0  0  0  0  0  0
  -32.4327  -18.4855   25.6652 Cl  0  0  0  0  0  0  0  0  0  0  0  0
  -31.3801  -15.5806   21.1891 Cl  0  0  0  0  0  0  0  0  0  0  0  0
  1  2  1  0  0  0  0
  1  5  2  0  0  0  0
  2  6  2  0  0  0  0
  3  9  2  0  0  0  0
  3 17  1  0  0  0  0
  4 10  1  0  0  0  0
  4 17  2  0  0  0  0
  5 19  1  0  0  0  0
  6 21  1  0  0  0  0
  7 11  2  0  0  0  0
  7 20  1  0  0  0  0
  8 14  1  0  0  0  0
  8 23  2  0  0  0  0
  9 25  1  0  0  0  0
 10 25  2  0  0  0  0
 11 26  1  0  0  0  0
 12 13  2  0  0  0  0
 12 27  1  0  0  0  0
 13 28  1  0  0  0  0
 14 30  2  0  0  0  0
 15 22  1  0  0  0  0
 15 26  2  0  0  0  0
 16 28  2  0  0  0  0
 16 29  1  0  0  0  0
 17 32  1  0  0  0  0
 18 32  1  0  0  0  0
 18 33  2  0  0  0  0
 18 34  1  0  0  0  0
 19 21  2  0  0  0  0
 19 39  1  0  0  0  0
 20 22  2  0  0  0  0
 20 40  1  0  0  0  0
 21 48  1  0  0  0  0
 22 41  1  0  0  0  0
 23 31  1  0  0  0  0
 23 57  1  0  0  0  0
 24 30  1  0  0  0  0
 24 31  2  0  0  0  0
 24 58  1  0  0  0  0
 25 77  1  0  0  0  0
 26 78  1  0  0  0  0
 27 29  2  0  0  0  0
 27 77  1  0  0  0  0
 28 79  1  0  0  0  0
 29 80  1  0  0  0  0
 30 81  1  0  0  0  0
 31 82  1  0  0  0  0
 32 62  2  0  0  0  0
 33 63  1  0  0  0  0
 33 66  1  0  0  0  0
 34 67  1  0  0  0  0
 34 72  2  0  0  0  0
 35 49  1  0  0  0  0
 35 68  1  0  0  0  0
 35 73  2  0  0  0  0
 36 59  1  0  0  0  0
 36 64  1  0  0  0  0
 36 74  2  0  0  0  0
 37 60  1  0  0  0  0
 37 69  1  0  0  0  0
 37 75  2  0  0  0  0
 38 65  1  0  0  0  0
 38 70  1  0  0  0  0
 38 76  2  0  0  0  0
 39 42  1  0  0  0  0
 40 49  1  0  0  0  0
 41 64  1  0  0  0  0
 42 44  1  0  0  0  0
 43 45  1  0  0  0  0
 43 46  1  0  0  0  0
 44 48  1  0  0  0  0
 45 50  1  0  0  0  0
 46 65  1  0  0  0  0
 47 50  1  0  0  0  0
 47 65  1  0  0  0  0
 48 68  1  0  0  0  0
 49 64  1  0  0  0  0
 50 63  1  0  0  0  0
 51 60  1  0  0  0  0
 52 61  1  0  0  0  0
 53 61  1  0  0  0  0
 54 61  1  0  0  0  0
 55 70  1  0  0  0  0
 56 71  1  0  0  0  0
 57 70  1  0  0  0  0
 58 78  1  0  0  0  0
 59 61  1  0  0  0  0
 59 69  1  0  0  0  0
 60 71  1  0  0  0  0
 62 63  1  0  0  0  0
M  CHG  1  71   1
M  ISO  4  38 100  58 101  70 100  78 101
M  END
> <Batch ID>
0019

> <Smiles>
CNC(C)C(=O)NC(C(=O)N1Cc2cc([101O:1][101CH2:1]c3c(Cl)ccc(C[100N:0](C)[100C:0](=O)N4CCCC(n5nc(-c6ccc(Oc7ccc(F)cc7F)cc6)c(C(N)=O)c5N)C4)c3Cl)ccc2CC1C(=O)NC1CCCc2ccccc21)C(C)(C)C

> <Shape>
0.188

> <Color>
0.189

> <Negative vol penalty>
0.000

$$$$

  -OEChem-04052316073D

 84 93  0     1  0  0  0  0  0999 V2000
  -26.5046  -30.9704   11.2284 C   0  0  0  0  0  0  0  0  0  0  0  0
  -26.3777  -29.6157   11.5183 C   0  0  0  0  0  0  0  0  0  0  0  0
  -23.0259   -9.8757   19.9876 C   0  0  0  0  0  0  0  0  0  0  0  0
  -23.7479   -9.9591   22.2917 C   0  0  0  0  0  0  0  0  0  0  0  0
  -27.3746  -31.7635   11.9755 C   0  0  0  0  0  0  0  0  0  0  0  0
  -27.1215  -29.0530   12.5549 C   0  0  0  0  0  0  0  0  0  0  0  0
  -26.7416  -23.9483   17.5663 C   0  0  0  0  0  0  0  0  0  0  0  0
  -22.2730   -8.7348   20.2648 C   0  0  0  0  0  0  0  0  0  0  0  0
  -22.9949   -8.8181   22.5689 C   0  0  0  0  0  0  0  0  0  0  0  0
  -27.4580  -22.8513   18.0427 C   0  0  0  0  0  0  0  0  0  0  0  0
  -23.2803   -5.4778   22.1315 C   0  0  0  0  0  0  0  0  0  0  0  0
  -23.8793   -4.4755   22.8945 C   0  0  0  0  0  0  0  0  0  0  0  0
  -28.8701  -24.3346   19.3174 C   0  0  0  0  0  0  0  0  0  0  0  0
  -22.1508   -4.7146   24.5655 C   0  0  0  0  0  0  0  0  0  0  0  0
  -23.7635  -10.4879   21.0010 C   0  0  0  0  0  0  0  0  0  0  0  0
  -24.1184  -13.0060   20.7996 C   0  0  0  0  0  0  0  0  0  0  0  0
  -28.1222  -31.2122   13.0281 C   0  0  0  0  0  0  0  0  0  0  0  0
  -27.0915  -25.2497   17.9539 C   0  0  0  0  0  0  0  0  0  0  0  0
  -28.0032  -29.8391   13.3160 C   0  0  0  0  0  0  0  0  0  0  0  0
  -28.1550  -25.4463   18.8464 C   0  0  0  0  0  0  0  0  0  0  0  0
  -30.5823  -17.9997   20.8265 C   0  0  0  0  0  0  0  0  0  0  0  0
  -22.2574   -8.2060   21.5554 C   0  0  0  0  0  0  0  0  0  0  0  0
  -28.5243  -23.0445   18.9161 C   0  0  0  0  0  0  0  0  0  0  0  0
  -22.1165   -6.0985   22.5854 C   0  0  0  0  0  0  0  0  0  0  0  0
  -23.3146   -4.0939   24.1115 C   0  0  0  0  0  0  0  0  0  0  0  0
  -21.5518   -5.7169   23.8024 C   0  0  0  0  0  0  0  0  0  0  0  0
  -29.4142  -18.7709   20.6075 C   0  0  0  0  0  0  0  0  0  0  0  0
  -24.5420  -11.6661   20.7152 C   0  0  0  0  0  0  0  0  0  0  0  0
  -29.6848  -19.6440   19.5771 C   0  0  0  0  0  0  0  0  0  0  0  0
  -25.2197  -13.7383   20.4289 C   0  0  0  0  0  0  0  0  0  0  0  0
  -31.5313  -18.4253   19.9233 C   0  0  0  0  0  0  0  0  0  0  0  0
  -22.8435  -13.5409   21.1793 C   0  0  0  0  0  0  0  0  0  0  0  0
  -28.0987  -27.8502   16.4285 C   0  0  0  0  0  0  0  0  0  0  0  0
  -27.7689  -29.2178   19.3514 C   0  0  0  0  0  0  0  0  0  0  0  0
  -27.6567  -28.8221   22.7392 C   0  0  0  0  0  0  0  0  0  0  0  0
  -30.7040  -14.7421   20.6732 C   0  0  0  0  0  0  0  0  0  0  0  0
  -29.0849  -32.0993   13.7771 C   0  0  0  0  0  0  0  0  0  0  0  0
  -26.2919  -26.4207   17.4521 C   0  0  0  0  0  0  0  0  0  0  0  0
  -28.5580  -26.8218   19.3091 C   0  0  0  0  0  0  0  0  0  0  0  0
  -29.5570  -31.5044   15.1013 C   0  0  0  0  0  0  0  0  0  0  0  0
  -32.1798  -20.4023   15.9221 C   0  0  0  0  0  0  0  0  0  0  0  0
  -29.5954  -12.2809   18.3515 C   0  0  0  0  0  0  0  0  0  0  0  0
  -29.9631  -30.0457   14.9166 C   0  0  0  0  0  0  0  0  0  0  0  0
  -32.6399  -19.4414   17.0349 C   0  0  0  0  0  0  0  0  0  0  0  0
  -30.8768  -20.5828   16.7242 C   0  0  0  0  0  0  0  0  0  0  0  0
  -28.1498  -12.0079   18.7704 C   0  0  0  0  0  0  0  0  0  0  0  0
  -30.4936  -12.5396   19.5592 C   0  0  0  0  0  0  0  0  0  0  0  0
  -28.5725  -13.3255   20.8879 C   0  0  0  0  0  0  0  0  0  0  0  0
  -28.7746  -29.1972   14.4487 C   0  0  1  0  0  0  0  0  0  0  0  0
  -27.0604  -27.7373   17.5087 C   0  0  1  0  0  0  0  0  0  0  0  0
  -31.6932  -20.2166   18.0005 C   0  0  0  0  0  0  0  0  0  0  0  0
  -27.6171  -13.1140   19.7009 C   0  0  2  0  0  0  0  0  0  0  0  0
  -27.4139  -30.1283   24.8681 C   0  0  0  0  0  0  0  0  0  0  0  0
  -30.6555  -30.1720   19.0923 C   0  0  0  0  0  0  0  0  0  0  0  0
  -30.6572  -30.6143   21.5565 C   0  0  0  0  0  0  0  0  0  0  0  0
  -29.0844  -31.8545   20.0696 C   0  0  0  0  0  0  0  0  0  0  0  0
  -25.1790  -27.3813   23.4770 C   0  0  0  0  0  0  0  0  0  0  0  0
  -30.7590  -16.9339   21.8360 C   0  0  0  0  0  0  0  0  0  0  0  0
  -28.8146  -20.6841   18.9351 C   0  0  0  0  0  0  0  0  0  1  0  0
  -28.6665  -29.4078   20.5502 C   0  0  1  0  0  0  0  0  0  0  0  0
  -26.6882  -29.3479   23.7832 C   0  0  2  0  0  0  0  0  0  0  0  0
  -29.7598  -30.4862   20.3071 C   0  0  0  0  0  0  0  0  0  0  0  0
  -25.8131  -11.5510   20.3215 N   0  0  0  0  0  0  0  0  0  0  0  0
  -30.9748  -19.4252   19.1693 N   0  0  0  0  0  0  0  0  0  0  0  0
  -26.1978  -12.8279   20.1553 N   0  0  0  0  0  0  0  0  0  0  0  0
  -27.7494  -27.9352   18.7856 N   0  0  0  0  0  0  0  0  0  0  0  0
  -29.9331  -13.6002   20.3999 N   0  0  0  0  0  0  0  0  0  0  0  0
  -25.4372  -15.0656   20.3135 N   0  0  0  0  0  0  0  0  0  0  0  0
  -21.8221  -12.6478   21.5309 N   0  0  0  0  0  0  0  0  0  0  0  0
  -27.8940  -28.9048   15.5594 N   0  0  0  0  0  0  0  0  0  0  0  0
  -27.7862  -29.6930   21.6781 N   0  0  0  0  0  0  0  0  0  0  0  0
  -30.0952  -15.7018   21.4726 N   0  0  0  0  0  0  0  0  0  0  0  0
  -25.9562  -28.2198   24.4256 N   0  3  0  0  0  0  0  0  0  0  0  0
  -22.6118  -14.7737   21.1902 O   0  0  0  0  0  0  0  0  0  0  0  0
  -29.0184  -27.0413   16.3875 O   0  0  0  0  0  0  0  0  0  0  0  0
  -27.1041  -30.1706   18.9367 O   0  0  0  0  0  0  0  0  0  0  0  0
  -28.2428  -27.7481   22.8553 O   0  0  0  0  0  0  0  0  0  0  0  0
  -31.8481  -14.8974   20.2327 O   0  0  0  0  0  0  0  0  0  0  0  0
  -21.5226   -7.0928   21.8263 O   0  0  0  0  0  0  0  0  0  0  0  0
  -29.2256  -21.9755   19.3821 O   0  0  0  0  0  0  0  0  0  1  0  0
  -23.8891   -3.1304   24.8434 F   0  0  0  0  0  0  0  0  0  0  0  0
  -20.4332   -6.3087   24.2432 F   0  0  0  0  0  0  0  0  0  0  0  0
  -27.9579  -18.6250   21.4735 Cl  0  0  0  0  0  0  0  0  0  0  0  0
  -33.1346  -17.9236   19.6546 Cl  0  0  0  0  0  0  0  0  0  0  0  0
  1  2  1  0  0  0  0
  1  5  2  0  0  0  0
  2  6  2  0  0  0  0
  3  8  2  0  0  0  0
  3 15  1  0  0  0  0
  4  9  1  0  0  0  0
  4 15  2  0  0  0  0
  5 17  1  0  0  0  0
  6 19  1  0  0  0  0
  7 10  2  0  0  0  0
  7 18  1  0  0  0  0
  8 22  1  0  0  0  0
  9 22  2  0  0  0  0
 10 23  1  0  0  0  0
 11 12  2  0  0  0  0
 11 24  1  0  0  0  0
 12 25  1  0  0  0  0
 13 20  1  0  0  0  0
 13 23  2  0  0  0  0
 14 25  2  0  0  0  0
 14 26  1  0  0  0  0
 15 28  1  0  0  0  0
 16 28  1  0  0  0  0
 16 30  2  0  0  0  0
 16 32  1  0  0  0  0
 17 19  2  0  0  0  0
 17 37  1  0  0  0  0
 18 20  2  0  0  0  0
 18 38  1  0  0  0  0
 19 49  1  0  0  0  0
 20 39  1  0  0  0  0
 21 27  1  0  0  0  0
 21 31  2  0  0  0  0
 21 58  1  0  0  0  0
 22 79  1  0  0  0  0
 23 80  1  0  0  0  0
 24 26  2  0  0  0  0
 24 79  1  0  0  0  0
 25 81  1  0  0  0  0
 26 82  1  0  0  0  0
 27 29  2  0  0  0  0
 27 83  1  0  0  0  0
 28 63  2  0  0  0  0
 29 59  1  0  0  0  0
 29 64  1  0  0  0  0
 30 65  1  0  0  0  0
 30 68  1  0  0  0  0
 31 64  1  0  0  0  0
 31 84  1  0  0  0  0
 32 69  1  0  0  0  0
 32 74  2  0  0  0  0
 33 50  1  0  0  0  0
 33 70  1  0  0  0  0
 33 75  2  0  0  0  0
 34 60  1  0  0  0  0
 34 66  1  0  0  0  0
 34 76  2  0  0  0  0
 35 61  1  0  0  0  0
 35 71  1  0  0  0  0
 35 77  2  0  0  0  0
 36 67  1  0  0  0  0
 36 72  1  0  0  0  0
 36 78  2  0  0  0  0
 37 40  1  0  0  0  0
 38 50  1  0  0  0  0
 39 66  1  0  0  0  0
 40 43  1  0  0  0  0
 41 44  1  0  0  0  0
 41 45  1  0  0  0  0
 42 46  1  0  0  0  0
 42 47  1  0  0  0  0
 43 49  1  0  0  0  0
 44 51  1  0  0  0  0
 45 51  1  0  0  0  0
 46 52  1  0  0  0  0
 47 67  1  0  0  0  0
 48 52  1  0  0  0  0
 48 67  1  0  0  0  0
 49 70  1  0  0  0  0
 50 66  1  0  0  0  0
 51 64  1  0  0  0  0
 52 65  1  0  0  0  0
 53 61  1  0  0  0  0
 54 62  1  0  0  0  0
 55 62  1  0  0  0  0
 56 62  1  0  0  0  0
 57 73  1  0  0  0  0
 58 72  1  0  0  0  0
 59 80  1  0  0  0  0
 60 62  1  0  0  0  0
 60 71  1  0  0  0  0
 61 73  1  0  0  0  0
 63 65  1  0  0  0  0
M  CHG  1  73   1
M  ISO  4  36 100  59 101  72 100  80 101
M  END
> <Batch ID>
0019

> <Smiles>
CNC(C)C(=O)NC(C(=O)N1Cc2cc([101O:1][101CH2:1]c3c(Cl)c(C[100NH:0][100C:0](=O)N4CCCC(n5nc(-c6ccc(Oc7ccc(F)cc7F)cc6)c(C(N)=O)c5N)C4)c(Cl)n3C3CCC3)ccc2CC1C(=O)NC1CCCc2ccccc21)C(C)(C)C

> <Shape>
0.263

> <Color>
0.210

> <Negative vol penalty>
0.000

$$$$

  -OEChem-04052316073D

 81 89  0     1  0  0  0  0  0999 V2000
  -32.0923  -34.5962   22.6763 C   0  0  0  0  0  0  0  0  0  0  0  0
  -31.7912  -33.2705   22.3811 C   0  0  0  0  0  0  0  0  0  0  0  0
  -26.8269  -12.8065   21.1115 C   0  0  0  0  0  0  0  0  0  0  0  0
  -26.7085  -13.2409   18.7378 C   0  0  0  0  0  0  0  0  0  0  0  0
  -31.2788  -35.3168   23.5497 C   0  0  0  0  0  0  0  0  0  0  0  0
  -30.6770  -32.6642   22.9602 C   0  0  0  0  0  0  0  0  0  0  0  0
  -27.9717  -29.9817   19.6239 C   0  0  0  0  0  0  0  0  0  0  0  0
  -26.2483  -11.5532   20.9110 C   0  0  0  0  0  0  0  0  0  0  0  0
  -26.1300  -11.9876   18.5373 C   0  0  0  0  0  0  0  0  0  0  0  0
  -28.4621  -28.7256   19.2697 C   0  0  0  0  0  0  0  0  0  0  0  0
  -24.4719   -8.3840   21.0659 C   0  0  0  0  0  0  0  0  0  0  0  0
  -23.4529   -7.9920   21.9340 C   0  0  0  0  0  0  0  0  0  0  0  0
  -26.9082  -27.6942   20.7997 C   0  0  0  0  0  0  0  0  0  0  0  0
  -22.1365   -9.8988   21.2496 C   0  0  0  0  0  0  0  0  0  0  0  0
  -27.0569  -13.6504   20.0249 C   0  0  0  0  0  0  0  0  0  0  0  0
  -29.0260  -15.2604   20.2205 C   0  0  0  0  0  0  0  0  0  0  0  0
  -30.1486  -34.7220   24.1322 C   0  0  0  0  0  0  0  0  0  0  0  0
  -26.9516  -30.1044   20.5783 C   0  0  0  0  0  0  0  0  0  0  0  0
  -29.8484  -33.3771   23.8433 C   0  0  0  0  0  0  0  0  0  0  0  0
  -26.4049  -28.9528   21.1624 C   0  0  0  0  0  0  0  0  0  0  0  0
  -25.8999  -11.1438   19.6239 C   0  0  0  0  0  0  0  0  0  0  0  0
  -27.9324  -27.5818   19.8597 C   0  0  0  0  0  0  0  0  0  0  0  0
  -24.3233   -9.5334   20.2897 C   0  0  0  0  0  0  0  0  0  0  0  0
  -22.2852   -8.7494   22.0258 C   0  0  0  0  0  0  0  0  0  0  0  0
  -23.1556  -10.2908   20.3816 C   0  0  0  0  0  0  0  0  0  0  0  0
  -27.6540  -14.9453   20.2315 C   0  0  0  0  0  0  0  0  0  0  0  0
  -30.9848  -24.5465   17.6265 C   0  0  0  0  0  0  0  0  0  0  0  0
  -29.8202  -24.8813   18.2815 C   0  0  0  0  0  0  0  0  0  0  0  0
  -29.2913  -22.6649   18.4743 C   0  0  0  0  0  0  0  0  0  0  0  0
  -30.4555  -22.3300   17.8186 C   0  0  0  0  0  0  0  0  0  0  0  0
  -29.0701  -16.6113   20.4648 C   0  0  0  0  0  0  0  0  0  0  0  0
  -30.1593  -14.4081   20.0085 C   0  0  0  0  0  0  0  0  0  0  0  0
  -26.7052  -31.4782   23.4341 C   0  0  0  0  0  0  0  0  0  0  0  0
  -23.5909  -30.6170   23.1475 C   0  0  0  0  0  0  0  0  0  0  0  0
  -21.2761  -28.5450   21.7349 C   0  0  0  0  0  0  0  0  0  0  0  0
  -27.2076  -21.7839   19.5826 C   0  0  0  0  0  0  0  0  0  0  0  0
  -29.3260  -35.5266   25.1072 C   0  0  0  0  0  0  0  0  0  0  0  0
  -26.4151  -31.4649   20.9298 C   0  0  0  0  0  0  0  0  0  0  0  0
  -25.2947  -29.0292   22.1774 C   0  0  0  0  0  0  0  0  0  0  0  0
  -27.9514  -34.9244   25.3866 C   0  0  0  0  0  0  0  0  0  0  0  0
  -25.4421  -19.8082   21.9610 C   0  0  0  0  0  0  0  0  0  0  0  0
  -28.0687  -33.4271   25.6533 C   0  0  0  0  0  0  0  0  0  0  0  0
  -25.9730  -18.3929   21.7222 C   0  0  0  0  0  0  0  0  0  0  0  0
  -25.3099  -20.5920   20.6564 C   0  0  0  0  0  0  0  0  0  0  0  0
  -27.0542  -19.2164   19.5915 C   0  0  0  0  0  0  0  0  0  0  0  0
  -28.6343  -32.6919   24.4321 C   0  0  1  0  0  0  0  0  0  0  0  0
  -25.7292  -31.5031   22.2919 C   0  0  1  0  0  0  0  0  0  0  0  0
  -27.2659  -18.4101   20.8833 C   0  0  2  0  0  0  0  0  0  0  0  0
  -31.9355  -25.5902   17.1486 C   0  0  0  0  0  0  0  0  0  0  0  0
  -18.8142  -28.0590   21.7229 C   0  0  0  0  0  0  0  0  0  0  0  0
  -23.8520  -29.2400   25.8577 C   0  0  0  0  0  0  0  0  0  0  0  0
  -21.7329  -28.0047   25.3561 C   0  0  0  0  0  0  0  0  0  0  0  0
  -21.7134  -30.4933   25.5261 C   0  0  0  0  0  0  0  0  0  0  0  0
  -21.0534  -29.1477   18.8459 C   0  0  0  0  0  0  0  0  0  0  0  0
  -32.0105  -20.7851   16.8960 C   0  0  0  0  0  0  0  0  0  0  0  0
  -29.4539  -26.3124   18.5446 C   0  0  0  0  0  0  0  0  0  1  0  0
  -22.7810  -29.3968   23.5137 C   0  0  1  0  0  0  0  0  0  0  0  0
  -19.9457  -28.8309   21.0621 C   0  0  2  0  0  0  0  0  0  0  0  0
  -22.5421  -29.2820   25.0457 C   0  0  0  0  0  0  0  0  0  0  0  0
  -26.8823  -16.0103   20.4644 N   0  0  0  0  0  0  0  0  0  0  0  0
  -28.9525  -23.9466   18.7172 N   0  0  0  0  0  0  0  0  0  0  0  0
  -31.3233  -23.2648   17.3832 N   0  0  0  0  0  0  0  0  0  0  0  0
  -27.7724  -17.0078   20.6021 N   0  0  0  0  0  0  0  0  0  0  0  0
  -24.8083  -30.3825   22.4926 N   0  0  0  0  0  0  0  0  0  0  0  0
  -26.5740  -20.5684   19.9173 N   0  0  0  0  0  0  0  0  0  0  0  0
  -30.0919  -17.4867   20.5733 N   0  0  0  0  0  0  0  0  0  0  0  0
  -29.9352  -13.0451   19.7710 N   0  0  0  0  0  0  0  0  0  0  0  0
  -28.4195  -21.6359   18.9089 N   0  0  0  0  0  0  0  0  0  0  0  0
  -27.6094  -32.5230   23.4244 N   0  0  0  0  0  0  0  0  0  0  0  0
  -21.5578  -29.4660   22.7217 N   0  0  0  0  0  0  0  0  0  0  0  0
  -19.9996  -28.4462   19.6234 N   0  3  0  0  0  0  0  0  0  0  0  0
  -31.3367  -14.8393   20.0454 O   0  0  0  0  0  0  0  0  0  0  0  0
  -26.6415  -30.5784   24.2636 O   0  0  0  0  0  0  0  0  0  0  0  0
  -23.1559  -31.7374   23.4255 O   0  0  0  0  0  0  0  0  0  0  0  0
  -21.9921  -27.5972   21.4193 O   0  0  0  0  0  0  0  0  0  0  0  0
  -26.7251  -22.8751   19.8962 O   0  0  0  0  0  0  0  0  0  0  0  0
  -25.3356   -9.9208   19.4278 O   0  0  0  0  0  0  0  0  0  0  0  0
  -28.4097  -26.3546   19.5163 O   0  0  0  0  0  0  0  0  0  1  0  0
  -30.7853  -21.0246   17.5811 O   0  0  0  0  0  0  0  0  0  0  0  0
  -21.3061   -8.3720   22.8583 F   0  0  0  0  0  0  0  0  0  0  0  0
  -23.0065  -11.3954   19.6376 F   0  0  0  0  0  0  0  0  0  0  0  0
  1  2  1  0  0  0  0
  1  5  2  0  0  0  0
  2  6  2  0  0  0  0
  3  8  2  0  0  0  0
  3 15  1  0  0  0  0
  4  9  1  0  0  0  0
  4 15  2  0  0  0  0
  5 17  1  0  0  0  0
  6 19  1  0  0  0  0
  7 10  2  0  0  0  0
  7 18  1  0  0  0  0
  8 21  1  0  0  0  0
  9 21  2  0  0  0  0
 10 22  1  0  0  0  0
 11 12  2  0  0  0  0
 11 23  1  0  0  0  0
 12 24  1  0  0  0  0
 13 20  1  0  0  0  0
 13 22  2  0  0  0  0
 14 24  2  0  0  0  0
 14 25  1  0  0  0  0
 15 26  1  0  0  0  0
 16 26  1  0  0  0  0
 16 31  2  0  0  0  0
 16 32  1  0  0  0  0
 17 19  2  0  0  0  0
 17 37  1  0  0  0  0
 18 20  2  0  0  0  0
 18 38  1  0  0  0  0
 19 46  1  0  0  0  0
 20 39  1  0  0  0  0
 21 77  1  0  0  0  0
 22 78  1  0  0  0  0
 23 25  2  0  0  0  0
 23 77  1  0  0  0  0
 24 80  1  0  0  0  0
 25 81  1  0  0  0  0
 26 60  2  0  0  0  0
 27 28  2  0  0  0  0
 27 49  1  0  0  0  0
 27 62  1  0  0  0  0
 28 56  1  0  0  0  0
 28 61  1  0  0  0  0
 29 30  1  0  0  0  0
 29 61  2  0  0  0  0
 29 68  1  0  0  0  0
 30 62  2  0  0  0  0
 30 79  1  0  0  0  0
 31 63  1  0  0  0  0
 31 66  1  0  0  0  0
 32 67  1  0  0  0  0
 32 72  2  0  0  0  0
 33 47  1  0  0  0  0
 33 69  1  0  0  0  0
 33 73  2  0  0  0  0
 34 57  1  0  0  0  0
 34 64  1  0  0  0  0
 34 74  2  0  0  0  0
 35 58  1  0  0  0  0
 35 70  1  0  0  0  0
 35 75  2  0  0  0  0
 36 65  1  0  0  0  0
 36 68  1  0  0  0  0
 36 76  2  0  0  0  0
 37 40  1  0  0  0  0
 38 47  1  0  0  0  0
 39 64  1  0  0  0  0
 40 42  1  0  0  0  0
 41 43  1  0  0  0  0
 41 44  1  0  0  0  0
 42 46  1  0  0  0  0
 43 48  1  0  0  0  0
 44 65  1  0  0  0  0
 45 48  1  0  0  0  0
 45 65  1  0  0  0  0
 46 69  1  0  0  0  0
 47 64  1  0  0  0  0
 48 63  1  0  0  0  0
 50 58  1  0  0  0  0
 51 59  1  0  0  0  0
 52 59  1  0  0  0  0
 53 59  1  0  0  0  0
 54 71  1  0  0  0  0
 55 79  1  0  0  0  0
 56 78  1  0  0  0  0
 57 59  1  0  0  0  0
 57 70  1  0  0  0  0
 58 71  1  0  0  0  0
 60 63  1  0  0  0  0
M  CHG  1  71   1
M  ISO  4  36 100  56 101  68 100  78 101
M  END
> <Batch ID>
0019

> <Smiles>
CNC(C)C(=O)NC(C(=O)N1Cc2cc([101O:1][101CH2:1]c3nc([100NH:0][100C:0](=O)N4CCCC(n5nc(-c6ccc(Oc7ccc(F)cc7F)cc6)c(C(N)=O)c5N)C4)c(OC)nc3C)ccc2CC1C(=O)NC1CCCc2ccccc21)C(C)(C)C

> <Shape>
0.284

> <Color>
0.105

> <Negative vol penalty>
0.000

$$$$

  -OEChem-04052316073D

 82 90  0     1  0  0  0  0  0999 V2000
  -41.7889  -21.3761   14.2227 C   0  0  0  0  0  0  0  0  0  0  0  0
  -41.1391  -20.8671   15.3426 C   0  0  0  0  0  0  0  0  0  0  0  0
  -23.0165  -10.0447   19.8311 C   0  0  0  0  0  0  0  0  0  0  0  0
  -23.8877   -9.7345   22.0630 C   0  0  0  0  0  0  0  0  0  0  0  0
  -41.6020  -22.7079   13.8550 C   0  0  0  0  0  0  0  0  0  0  0  0
  -40.3029  -21.6902   16.0962 C   0  0  0  0  0  0  0  0  0  0  0  0
  -35.1620  -20.0519   18.9932 C   0  0  0  0  0  0  0  0  0  0  0  0
  -22.2638   -8.8778   19.9626 C   0  0  0  0  0  0  0  0  0  0  0  0
  -23.1350   -8.5675   22.1946 C   0  0  0  0  0  0  0  0  0  0  0  0
  -34.8971  -19.7288   20.3233 C   0  0  0  0  0  0  0  0  0  0  0  0
  -19.3755   -7.9301   21.4432 C   0  0  0  0  0  0  0  0  0  0  0  0
  -18.0458   -7.9656   21.0235 C   0  0  0  0  0  0  0  0  0  0  0  0
  -34.1853  -21.9982   20.7264 C   0  0  0  0  0  0  0  0  0  0  0  0
  -32.4765  -17.7732   23.6517 C   0  0  0  0  0  0  0  0  0  0  0  0
  -18.5029   -6.2108   19.4270 C   0  0  0  0  0  0  0  0  0  0  0  0
  -23.8284  -10.4731   20.8813 C   0  0  0  0  0  0  0  0  0  0  0  0
  -24.2121  -12.9871   21.0819 C   0  0  0  0  0  0  0  0  0  0  0  0
  -40.7556  -23.5451   14.5989 C   0  0  0  0  0  0  0  0  0  0  0  0
  -34.9505  -21.3554   18.5216 C   0  0  0  0  0  0  0  0  0  0  0  0
  -40.1057  -23.0348   15.7389 C   0  0  0  0  0  0  0  0  0  0  0  0
  -34.4459  -22.3346   19.3893 C   0  0  0  0  0  0  0  0  0  0  0  0
  -31.8126  -18.9924   23.5166 C   0  0  0  0  0  0  0  0  0  0  0  0
  -30.6161  -19.0597   22.8027 C   0  0  0  0  0  0  0  0  0  0  0  0
  -30.0837  -17.9076   22.2238 C   0  0  0  0  0  0  0  0  0  0  0  0
  -30.7477  -16.6884   22.3589 C   0  0  0  0  0  0  0  0  0  0  0  0
  -22.3231   -8.1391   21.1444 C   0  0  0  0  0  0  0  0  0  0  0  0
  -34.4115  -20.7027   21.1909 C   0  0  0  0  0  0  0  0  0  0  0  0
  -20.2690   -7.0350   20.8548 C   0  0  0  0  0  0  0  0  0  0  0  0
  -17.6094   -7.1059   20.0154 C   0  0  0  0  0  0  0  0  0  0  0  0
  -19.8326   -6.1754   19.8467 C   0  0  0  0  0  0  0  0  0  0  0  0
  -31.9441  -16.6212   23.0728 C   0  0  0  0  0  0  0  0  0  0  0  0
  -24.6066  -11.6782   20.7458 C   0  0  0  0  0  0  0  0  0  0  0  0
  -25.2993  -13.7649   20.7666 C   0  0  0  0  0  0  0  0  0  0  0  0
  -22.9738  -13.4577   21.6302 C   0  0  0  0  0  0  0  0  0  0  0  0
  -36.8062  -23.6254   17.2938 C   0  0  0  0  0  0  0  0  0  0  0  0
  -33.9784  -25.1491   16.8420 C   0  0  0  0  0  0  0  0  0  0  0  0
  -30.7159  -25.5360   17.7657 C   0  0  0  0  0  0  0  0  0  0  0  0
  -30.7865  -14.7099   20.7999 C   0  0  0  0  0  0  0  0  0  0  0  0
  -40.6219  -24.9906   14.1899 C   0  0  0  0  0  0  0  0  0  0  0  0
  -35.2158  -21.6811   17.0774 C   0  0  0  0  0  0  0  0  0  0  0  0
  -34.1825  -23.7438   18.9274 C   0  0  0  0  0  0  0  0  0  0  0  0
  -39.4259  -25.6952   14.8250 C   0  0  0  0  0  0  0  0  0  0  0  0
  -29.5116  -12.6497   18.1908 C   0  0  0  0  0  0  0  0  0  0  0  0
  -39.3582  -25.3910   16.3182 C   0  0  0  0  0  0  0  0  0  0  0  0
  -28.0894  -12.3210   18.6506 C   0  0  0  0  0  0  0  0  0  0  0  0
  -30.4886  -12.7039   19.3639 C   0  0  0  0  0  0  0  0  0  0  0  0
  -28.6658  -13.2600   20.9250 C   0  0  0  0  0  0  0  0  0  0  0  0
  -39.1712  -23.8895   16.5674 C   0  0  1  0  0  0  0  0  0  0  0  0
  -35.4506  -23.1687   16.8337 C   0  0  1  0  0  0  0  0  0  0  0  0
  -27.6333  -13.2584   19.7859 C   0  0  2  0  0  0  0  0  0  0  0  0
  -29.9067  -20.3691   22.6591 C   0  0  0  0  0  0  0  0  0  0  0  0
  -28.7989  -17.9868   21.4590 C   0  0  0  0  0  0  0  0  0  0  0  0
  -28.6663  -26.8851   17.2397 C   0  0  0  0  0  0  0  0  0  0  0  0
  -35.1670  -27.5315   18.3324 C   0  0  0  0  0  0  0  0  0  0  0  0
  -32.8459  -28.4289   18.6069 C   0  0  0  0  0  0  0  0  0  0  0  0
  -33.8045  -28.1322   16.3231 C   0  0  0  0  0  0  0  0  0  0  0  0
  -29.1849  -23.1239   16.9931 C   0  0  0  0  0  0  0  0  0  0  0  0
  -32.4102  -20.2235   24.1536 C   0  0  0  0  0  0  0  0  0  0  0  0
  -33.1114  -21.1193   23.1382 C   0  0  0  0  0  0  0  0  0  1  0  0
  -33.1307  -26.0941   17.6590 C   0  0  1  0  0  0  0  0  0  0  0  0
  -29.4392  -25.6083   16.9477 C   0  0  2  0  0  0  0  0  0  0  0  0
  -33.7437  -27.5207   17.7398 C   0  0  0  0  0  0  0  0  0  0  0  0
  -25.8474  -11.6237   20.2544 N   0  0  0  0  0  0  0  0  0  0  0  0
  -26.2420  -12.9081   20.2794 N   0  0  0  0  0  0  0  0  0  0  0  0
  -34.4636  -24.0146   17.5078 N   0  0  0  0  0  0  0  0  0  0  0  0
  -29.9931  -13.6145   20.3984 N   0  0  0  0  0  0  0  0  0  0  0  0
  -25.5313  -15.0915   20.8612 N   0  0  0  0  0  0  0  0  0  0  0  0
  -21.9624  -12.5241   21.8944 N   0  0  0  0  0  0  0  0  0  0  0  0
  -30.1977  -15.5247   21.7664 N   0  0  0  0  0  0  0  0  0  0  0  0
  -37.7950  -23.5063   16.3359 N   0  0  0  0  0  0  0  0  0  0  0  0
  -31.7938  -26.0504   17.0767 N   0  0  0  0  0  0  0  0  0  0  0  0
  -28.5596  -24.4455   17.2564 N   0  3  0  0  0  0  0  0  0  0  0  0
  -22.7641  -14.6723   21.8632 O   0  0  0  0  0  0  0  0  0  0  0  0
  -36.9444  -24.0553   18.4329 O   0  0  0  0  0  0  0  0  0  0  0  0
  -34.1958  -25.4043   15.6549 O   0  0  0  0  0  0  0  0  0  0  0  0
  -30.7525  -25.0732   18.9037 O   0  0  0  0  0  0  0  0  0  0  0  0
  -31.8944  -14.9259   20.3020 O   0  0  0  0  0  0  0  0  0  0  0  0
  -21.5886   -7.0005   21.2732 O   0  0  0  0  0  0  0  0  0  0  0  0
  -34.1527  -20.3903   22.4899 O   0  0  0  0  0  0  0  0  0  1  0  0
  -16.3321   -7.1390   19.6136 F   0  0  0  0  0  0  0  0  0  0  0  0
  -20.6861   -5.3124   19.2785 F   0  0  0  0  0  0  0  0  0  0  0  0
  -32.8019  -15.1332   23.2664 Cl  0  0  0  0  0  0  0  0  0  0  0  0
  1  2  1  0  0  0  0
  1  5  2  0  0  0  0
  2  6  2  0  0  0  0
  3  8  2  0  0  0  0
  3 16  1  0  0  0  0
  4  9  1  0  0  0  0
  4 16  2  0  0  0  0
  5 18  1  0  0  0  0
  6 20  1  0  0  0  0
  7 10  2  0  0  0  0
  7 19  1  0  0  0  0
  8 26  1  0  0  0  0
  9 26  2  0  0  0  0
 10 27  1  0  0  0  0
 11 12  2  0  0  0  0
 11 28  1  0  0  0  0
 12 29  1  0  0  0  0
 13 21  1  0  0  0  0
 13 27  2  0  0  0  0
 14 22  1  0  0  0  0
 14 31  2  0  0  0  0
 15 29  2  0  0  0  0
 15 30  1  0  0  0  0
 16 32  1  0  0  0  0
 17 32  1  0  0  0  0
 17 33  2  0  0  0  0
 17 34  1  0  0  0  0
 18 20  2  0  0  0  0
 18 39  1  0  0  0  0
 19 21  2  0  0  0  0
 19 40  1  0  0  0  0
 20 48  1  0  0  0  0
 21 41  1  0  0  0  0
 22 23  2  0  0  0  0
 22 58  1  0  0  0  0
 23 24  1  0  0  0  0
 23 51  1  0  0  0  0
 24 25  2  0  0  0  0
 24 52  1  0  0  0  0
 25 31  1  0  0  0  0
 25 69  1  0  0  0  0
 26 78  1  0  0  0  0
 27 79  1  0  0  0  0
 28 30  2  0  0  0  0
 28 78  1  0  0  0  0
 29 80  1  0  0  0  0
 30 81  1  0  0  0  0
 31 82  1  0  0  0  0
 32 63  2  0  0  0  0
 33 64  1  0  0  0  0
 33 67  1  0  0  0  0
 34 68  1  0  0  0  0
 34 73  2  0  0  0  0
 35 49  1  0  0  0  0
 35 70  1  0  0  0  0
 35 74  2  0  0  0  0
 36 60  1  0  0  0  0
 36 65  1  0  0  0  0
 36 75  2  0  0  0  0
 37 61  1  0  0  0  0
 37 71  1  0  0  0  0
 37 76  2  0  0  0  0
 38 66  1  0  0  0  0
 38 69  1  0  0  0  0
 38 77  2  0  0  0  0
 39 42  1  0  0  0  0
 40 49  1  0  0  0  0
 41 65  1  0  0  0  0
 42 44  1  0  0  0  0
 43 45  1  0  0  0  0
 43 46  1  0  0  0  0
 44 48  1  0  0  0  0
 45 50  1  0  0  0  0
 46 66  1  0  0  0  0
 47 50  1  0  0  0  0
 47 66  1  0  0  0  0
 48 70  1  0  0  0  0
 49 65  1  0  0  0  0
 50 64  1  0  0  0  0
 53 61  1  0  0  0  0
 54 62  1  0  0  0  0
 55 62  1  0  0  0  0
 56 62  1  0  0  0  0
 57 72  1  0  0  0  0
 58 59  1  0  0  0  0
 59 79  1  0  0  0  0
 60 62  1  0  0  0  0
 60 71  1  0  0  0  0
 61 72  1  0  0  0  0
 63 64  1  0  0  0  0
M  CHG  1  72   1
M  ISO  4  38 100  59 101  69 100  79 101
M  END
> <Batch ID>
0019

> <Smiles>
CNC(C)C(=O)NC(C(=O)N1Cc2cc([101O:1][101CH2:1]Cc3cc(Cl)c([100NH:0][100C:0](=O)N4CCCC(n5nc(-c6ccc(Oc7ccc(F)cc7F)cc6)c(C(N)=O)c5N)C4)c(C)c3C)ccc2CC1C(=O)NC1CCCc2ccccc21)C(C)(C)C

> <Shape>
0.183

> <Color>
0.201

> <Negative vol penalty>
0.000

$$$$

  -OEChem-04052316073D

 84 92  0     1  0  0  0  0  0999 V2000
  -25.5699  -34.9526   23.7925 C   0  0  0  0  0  0  0  0  0  0  0  0
  -26.1914  -33.7506   23.4698 C   0  0  0  0  0  0  0  0  0  0  0  0
  -26.2712  -13.7448   20.8361 C   0  0  0  0  0  0  0  0  0  0  0  0
  -25.8475  -14.5722   23.0661 C   0  0  0  0  0  0  0  0  0  0  0  0
  -24.2592  -34.9528   24.2680 C   0  0  0  0  0  0  0  0  0  0  0  0
  -25.5029  -32.5477   23.6235 C   0  0  0  0  0  0  0  0  0  0  0  0
  -26.0813  -29.4572   19.6538 C   0  0  0  0  0  0  0  0  0  0  0  0
  -25.8146  -12.4832   21.2173 C   0  0  0  0  0  0  0  0  0  0  0  0
  -25.3908  -13.3105   23.4474 C   0  0  0  0  0  0  0  0  0  0  0  0
  -27.2804  -28.7513   19.5658 C   0  0  0  0  0  0  0  0  0  0  0  0
  -24.4220   -9.1376   21.5047 C   0  0  0  0  0  0  0  0  0  0  0  0
  -23.5534   -8.4733   20.6388 C   0  0  0  0  0  0  0  0  0  0  0  0
  -26.1874  -26.7952   20.4594 C   0  0  0  0  0  0  0  0  0  0  0  0
  -29.2401  -25.3798   23.8162 C   0  0  0  0  0  0  0  0  0  0  0  0
  -21.9697  -10.2872   20.8362 C   0  0  0  0  0  0  0  0  0  0  0  0
  -26.2877  -14.7893   21.7605 C   0  0  0  0  0  0  0  0  0  0  0  0
  -25.9967  -17.1472   20.8313 C   0  0  0  0  0  0  0  0  0  0  0  0
  -23.5510  -33.7501   24.4185 C   0  0  0  0  0  0  0  0  0  0  0  0
  -24.9270  -28.8396   20.1563 C   0  0  0  0  0  0  0  0  0  0  0  0
  -24.1820  -32.5317   24.1028 C   0  0  0  0  0  0  0  0  0  0  0  0
  -24.9744  -27.4947   20.5503 C   0  0  0  0  0  0  0  0  0  0  0  0
  -29.7284  -26.2061   22.8041 C   0  0  0  0  0  0  0  0  0  0  0  0
  -29.3438  -23.9940   23.6960 C   0  0  0  0  0  0  0  0  0  0  0  0
  -30.3202  -25.6466   21.6717 C   0  0  0  0  0  0  0  0  0  0  0  0
  -29.9355  -23.4345   22.5636 C   0  0  0  0  0  0  0  0  0  0  0  0
  -25.3743  -12.2661   22.5230 C   0  0  0  0  0  0  0  0  0  0  0  0
  -27.3343  -27.4210   19.9713 C   0  0  0  0  0  0  0  0  0  0  0  0
  -24.0645  -10.3766   22.0364 C   0  0  0  0  0  0  0  0  0  0  0  0
  -22.3272   -9.0482   20.3045 C   0  0  0  0  0  0  0  0  0  0  0  0
  -22.8384  -10.9514   21.7021 C   0  0  0  0  0  0  0  0  0  0  0  0
  -30.4238  -24.2608   21.5514 C   0  0  0  0  0  0  0  0  0  0  0  0
  -26.7598  -16.0927   21.3674 C   0  0  0  0  0  0  0  0  0  0  0  0
  -26.9034  -18.1589   20.6292 C   0  0  0  0  0  0  0  0  0  0  0  0
  -24.5937  -17.2070   20.5421 C   0  0  0  0  0  0  0  0  0  0  0  0
  -23.0204  -29.3390   22.6501 C   0  0  0  0  0  0  0  0  0  0  0  0
  -21.2520  -26.9942   21.2728 C   0  0  0  0  0  0  0  0  0  0  0  0
  -21.1449  -24.2823   19.2037 C   0  0  0  0  0  0  0  0  0  0  0  0
  -31.1968  -21.2654   22.3380 C   0  0  0  0  0  0  0  0  0  0  0  0
  -22.1524  -33.7967   24.9809 C   0  0  0  0  0  0  0  0  0  0  0  0
  -23.6349  -29.6069   20.2198 C   0  0  0  0  0  0  0  0  0  0  0  0
  -23.7583  -26.7797   21.0779 C   0  0  0  0  0  0  0  0  0  0  0  0
  -21.3639  -32.5084   24.7602 C   0  0  0  0  0  0  0  0  0  0  0  0
  -31.9615  -18.1361   20.8215 C   0  0  0  0  0  0  0  0  0  0  0  0
  -22.2133  -31.2940   25.1216 C   0  0  0  0  0  0  0  0  0  0  0  0
  -30.6136  -17.4123   20.7842 C   0  0  0  0  0  0  0  0  0  0  0  0
  -32.1214  -18.9723   22.0900 C   0  0  0  0  0  0  0  0  0  0  0  0
  -29.6780  -19.1897   22.3180 C   0  0  0  0  0  0  0  0  0  0  0  0
  -23.4597  -31.2082   24.2325 C   0  0  1  0  0  0  0  0  0  0  0  0
  -22.6462  -29.0298   21.2281 C   0  0  1  0  0  0  0  0  0  0  0  0
  -29.4441  -18.3860   21.0284 C   0  0  2  0  0  0  0  0  0  0  0  0
  -29.6053  -27.6868   22.9604 C   0  0  0  0  0  0  0  0  0  0  0  0
  -28.8115  -23.1368   24.7991 C   0  0  0  0  0  0  0  0  0  0  0  0
  -19.5657  -22.5515   18.3049 C   0  0  0  0  0  0  0  0  0  0  0  0
  -31.4831  -25.8265   19.3708 C   0  0  0  0  0  0  0  0  0  0  0  0
  -31.9562  -27.4855   21.1601 C   0  0  0  0  0  0  0  0  0  0  0  0
  -21.3359  -25.5313   23.9492 C   0  0  0  0  0  0  0  0  0  0  0  0
  -20.6018  -23.4550   22.7582 C   0  0  0  0  0  0  0  0  0  0  0  0
  -19.1203  -25.4617   22.7913 C   0  0  0  0  0  0  0  0  0  0  0  0
  -21.5878  -25.1602   16.4123 C   0  0  0  0  0  0  0  0  0  0  0  0
  -29.7112  -27.4773   20.0255 C   0  0  0  0  0  0  0  0  0  1  0  0
  -21.2115  -25.4883   21.3707 C   0  0  1  0  0  0  0  0  0  0  0  0
  -20.2003  -23.9141   18.0739 C   0  0  2  0  0  0  0  0  0  0  0  0
  -30.8529  -26.5789   20.5674 C   0  0  0  0  0  0  0  0  0  0  0  0
  -20.5909  -24.9978   22.7093 C   0  0  0  0  0  0  0  0  0  0  0  0
  -28.0519  -16.4054   21.4974 N   0  0  0  0  0  0  0  0  0  0  0  0
  -28.1077  -17.6678   21.0401 N   0  0  0  0  0  0  0  0  0  0  0  0
  -22.5200  -27.5745   21.1266 N   0  0  0  0  0  0  0  0  0  0  0  0
  -30.9790  -19.8739   22.2534 N   0  0  0  0  0  0  0  0  0  0  0  0
  -26.7801  -19.4118   20.1417 N   0  0  0  0  0  0  0  0  0  0  0  0
  -23.8075  -16.0783   20.8107 N   0  0  0  0  0  0  0  0  0  0  0  0
  -30.0334  -22.0248   22.4592 N   0  0  0  0  0  0  0  0  0  0  0  0
  -23.1140  -30.6897   22.9263 N   0  0  0  0  0  0  0  0  0  0  0  0
  -20.5100  -25.0206   20.1801 N   0  0  0  0  0  0  0  0  0  0  0  0
  -20.9335  -23.8773   16.7769 N   0  3  0  0  0  0  0  0  0  0  0  0
  -24.0562  -18.2253   20.0445 O   0  0  0  0  0  0  0  0  0  0  0  0
  -23.2088  -28.4201   23.4387 O   0  0  0  0  0  0  0  0  0  0  0  0
  -20.1969  -27.6317   21.3171 O   0  0  0  0  0  0  0  0  0  0  0  0
  -22.3267  -23.9454   19.2205 O   0  0  0  0  0  0  0  0  0  0  0  0
  -32.3298  -21.7498   22.2780 O   0  0  0  0  0  0  0  0  0  0  0  0
  -24.9284  -11.0352   22.8953 O   0  0  0  0  0  0  0  0  0  0  0  0
  -28.5035  -26.7299   19.8871 O   0  0  0  0  0  0  0  0  0  1  0  0
  -21.4938   -8.4109   19.4718 F   0  0  0  0  0  0  0  0  0  0  0  0
  -22.4900  -12.1421   22.2088 F   0  0  0  0  0  0  0  0  0  0  0  0
  -31.1598  -23.5715   20.1395 Cl  0  0  0  0  0  0  0  0  0  0  0  0
  1  2  1  0  0  0  0
  1  5  2  0  0  0  0
  2  6  2  0  0  0  0
  3  8  2  0  0  0  0
  3 16  1  0  0  0  0
  4  9  1  0  0  0  0
  4 16  2  0  0  0  0
  5 18  1  0  0  0  0
  6 20  1  0  0  0  0
  7 10  2  0  0  0  0
  7 19  1  0  0  0  0
  8 26  1  0  0  0  0
  9 26  2  0  0  0  0
 10 27  1  0  0  0  0
 11 12  2  0  0  0  0
 11 28  1  0  0  0  0
 12 29  1  0  0  0  0
 13 21  1  0  0  0  0
 13 27  2  0  0  0  0
 14 22  2  0  0  0  0
 14 23  1  0  0  0  0
 15 29  2  0  0  0  0
 15 30  1  0  0  0  0
 16 32  1  0  0  0  0
 17 32  1  0  0  0  0
 17 33  2  0  0  0  0
 17 34  1  0  0  0  0
 18 20  2  0  0  0  0
 18 39  1  0  0  0  0
 19 21  2  0  0  0  0
 19 40  1  0  0  0  0
 20 48  1  0  0  0  0
 21 41  1  0  0  0  0
 22 24  1  0  0  0  0
 22 51  1  0  0  0  0
 23 25  2  0  0  0  0
 23 52  1  0  0  0  0
 24 31  2  0  0  0  0
 24 63  1  0  0  0  0
 25 31  1  0  0  0  0
 25 71  1  0  0  0  0
 26 80  1  0  0  0  0
 27 81  1  0  0  0  0
 28 30  2  0  0  0  0
 28 80  1  0  0  0  0
 29 82  1  0  0  0  0
 30 83  1  0  0  0  0
 31 84  1  0  0  0  0
 32 65  2  0  0  0  0
 33 66  1  0  0  0  0
 33 69  1  0  0  0  0
 34 70  1  0  0  0  0
 34 75  2  0  0  0  0
 35 49  1  0  0  0  0
 35 72  1  0  0  0  0
 35 76  2  0  0  0  0
 36 61  1  0  0  0  0
 36 67  1  0  0  0  0
 36 77  2  0  0  0  0
 37 62  1  0  0  0  0
 37 73  1  0  0  0  0
 37 78  2  0  0  0  0
 38 68  1  0  0  0  0
 38 71  1  0  0  0  0
 38 79  2  0  0  0  0
 39 42  1  0  0  0  0
 40 49  1  0  0  0  0
 41 67  1  0  0  0  0
 42 44  1  0  0  0  0
 43 45  1  0  0  0  0
 43 46  1  0  0  0  0
 44 48  1  0  0  0  0
 45 50  1  0  0  0  0
 46 68  1  0  0  0  0
 47 50  1  0  0  0  0
 47 68  1  0  0  0  0
 48 72  1  0  0  0  0
 49 67  1  0  0  0  0
 50 66  1  0  0  0  0
 53 62  1  0  0  0  0
 54 63  1  0  0  0  0
 55 63  1  0  0  0  0
 56 64  1  0  0  0  0
 57 64  1  0  0  0  0
 58 64  1  0  0  0  0
 59 74  1  0  0  0  0
 60 63  1  0  0  0  0
 60 81  1  0  0  0  0
 61 64  1  0  0  0  0
 61 73  1  0  0  0  0
 62 74  1  0  0  0  0
 65 66  1  0  0  0  0
M  CHG  1  74   1
M  ISO  4  38 100  60 101  71 100  81 101
M  END
> <Batch ID>
0019

> <Smiles>
CNC(C)C(=O)NC(C(=O)N1Cc2cc([101O:1][101CH2:1]C(C)(C)c3c(C)cc(C)c([100NH:0][100C:0](=O)N4CCCC(n5nc(-c6ccc(Oc7ccc(F)cc7F)cc6)c(C(N)=O)c5N)C4)c3Cl)ccc2CC1C(=O)NC1CCCc2ccccc21)C(C)(C)C

> <Shape>
0.244

> <Color>
0.070

> <Negative vol penalty>
0.000

$$$$

  -OEChem-04052316073D

 83 91  0     1  0  0  0  0  0999 V2000
  -28.7933  -24.0208   17.2025 C   0  0  0  0  0  0  0  0  0  0  0  0
  -27.6142  -24.1477   17.9297 C   0  0  0  0  0  0  0  0  0  0  0  0
  -26.4446  -13.7774   20.3873 C   0  0  0  0  0  0  0  0  0  0  0  0
  -24.0341  -13.9302   20.4422 C   0  0  0  0  0  0  0  0  0  0  0  0
  -29.9395  -24.7016   17.6107 C   0  0  0  0  0  0  0  0  0  0  0  0
  -27.5809  -24.9548   19.0664 C   0  0  0  0  0  0  0  0  0  0  0  0
  -23.4628  -27.8969   19.2399 C   0  0  0  0  0  0  0  0  0  0  0  0
  -26.3808  -12.5401   21.0281 C   0  0  0  0  0  0  0  0  0  0  0  0
  -23.9702  -12.6928   21.0829 C   0  0  0  0  0  0  0  0  0  0  0  0
  -22.2687  -27.2980   19.6389 C   0  0  0  0  0  0  0  0  0  0  0  0
  -24.1907   -9.4314   20.2255 C   0  0  0  0  0  0  0  0  0  0  0  0
  -23.2468   -8.5132   19.7657 C   0  0  0  0  0  0  0  0  0  0  0  0
  -22.5594  -28.2084   21.8539 C   0  0  0  0  0  0  0  0  0  0  0  0
  -21.1095  -23.2554   21.8775 C   0  0  0  0  0  0  0  0  0  0  0  0
  -22.2085   -8.4883   21.9470 C   0  0  0  0  0  0  0  0  0  0  0  0
  -19.1585  -22.1953   21.5036 C   0  0  0  0  0  0  0  0  0  0  0  0
  -25.2713  -14.4725   20.0944 C   0  0  0  0  0  0  0  0  0  0  0  0
  -25.3201  -15.9925   18.0463 C   0  0  0  0  0  0  0  0  0  0  0  0
  -29.9177  -25.5250   18.7474 C   0  0  0  0  0  0  0  0  0  0  0  0
  -24.2209  -28.6483   20.1493 C   0  0  0  0  0  0  0  0  0  0  0  0
  -28.7282  -25.6462   19.4910 C   0  0  0  0  0  0  0  0  0  0  0  0
  -23.7614  -28.8180   21.4632 C   0  0  0  0  0  0  0  0  0  0  0  0
  -19.7009  -23.4072   21.8702 C   0  0  0  0  0  0  0  0  0  0  0  0
  -25.1436  -11.9978   21.3758 C   0  0  0  0  0  0  0  0  0  0  0  0
  -21.8183  -27.4513   20.9469 C   0  0  0  0  0  0  0  0  0  0  0  0
  -24.1436   -9.8781   21.5461 C   0  0  0  0  0  0  0  0  0  0  0  0
  -22.2557   -8.0416   20.6264 C   0  0  0  0  0  0  0  0  0  0  0  0
  -23.1525   -9.4065   22.4069 C   0  0  0  0  0  0  0  0  0  0  0  0
  -25.3366  -15.7510   19.4331 C   0  0  0  0  0  0  0  0  0  0  0  0
  -21.3849  -21.9553   21.5151 C   0  0  0  0  0  0  0  0  0  0  0  0
  -25.4034  -17.3589   17.9348 C   0  0  0  0  0  0  0  0  0  0  0  0
  -25.2370  -15.0647   16.9564 C   0  0  0  0  0  0  0  0  0  0  0  0
  -27.1450  -28.4049   21.3715 C   0  0  0  0  0  0  0  0  0  0  0  0
  -26.4207  -31.2882   22.6692 C   0  0  0  0  0  0  0  0  0  0  0  0
  -24.0160  -33.4812   23.6964 C   0  0  0  0  0  0  0  0  0  0  0  0
  -23.9012  -21.8510   21.5776 C   0  0  0  0  0  0  0  0  0  0  0  0
  -31.1942  -26.2037   19.1768 C   0  0  0  0  0  0  0  0  0  0  0  0
  -25.4932  -29.3102   19.6959 C   0  0  0  0  0  0  0  0  0  0  0  0
  -24.5279  -29.6316   22.4725 C   0  0  0  0  0  0  0  0  0  0  0  0
  -30.9756  -27.3348   20.1784 C   0  0  0  0  0  0  0  0  0  0  0  0
  -27.1250  -21.2041   20.2118 C   0  0  0  0  0  0  0  0  0  0  0  0
  -30.0234  -26.8917   21.2846 C   0  0  0  0  0  0  0  0  0  0  0  0
  -27.0288  -19.7562   19.7254 C   0  0  0  0  0  0  0  0  0  0  0  0
  -26.3474  -21.4195   21.5090 C   0  0  0  0  0  0  0  0  0  0  0  0
  -24.8498  -19.5346   20.9862 C   0  0  0  0  0  0  0  0  0  0  0  0
  -28.6457  -26.5318   20.7153 C   0  0  1  0  0  0  0  0  0  0  0  0
  -26.4450  -29.6259   20.8455 C   0  0  1  0  0  0  0  0  0  0  0  0
  -25.5637  -19.2840   19.6478 C   0  0  2  0  0  0  0  0  0  0  0  0
  -23.7311  -35.7408   24.7502 C   0  0  0  0  0  0  0  0  0  0  0  0
  -19.9914  -17.4888   21.5732 C   0  0  0  0  0  0  0  0  0  0  0  0
  -19.1621  -19.2533   23.1431 C   0  0  0  0  0  0  0  0  0  0  0  0
  -27.1658  -30.1130   25.3847 C   0  0  0  0  0  0  0  0  0  0  0  0
  -25.9832  -32.0378   26.4641 C   0  0  0  0  0  0  0  0  0  0  0  0
  -27.9641  -32.4526   25.0059 C   0  0  0  0  0  0  0  0  0  0  0  0
  -22.5703  -34.5282   21.3357 C   0  0  0  0  0  0  0  0  0  0  0  0
  -18.9353  -24.6630   22.2024 C   0  0  0  0  0  0  0  0  0  0  0  0
  -18.6708  -25.5614   20.9923 C   0  0  0  0  0  0  0  0  0  0  0  0
  -20.0243  -19.9405   20.8886 C   0  0  0  0  0  0  0  0  0  0  0  0
  -19.9435  -26.1114   20.3589 C   0  0  0  0  0  0  0  0  0  1  0  0
  -25.7752  -31.7510   23.9530 C   0  0  1  0  0  0  0  0  0  0  0  0
  -23.8342  -34.9672   23.4450 C   0  0  2  0  0  0  0  0  0  0  0  0
  -20.1758  -18.9336   22.0426 C   0  0  0  0  0  0  0  0  0  0  0  0
  -26.7084  -31.5716   25.1837 C   0  0  0  0  0  0  0  0  0  0  0  0
  -25.4236  -16.8739   20.1511 N   0  0  0  0  0  0  0  0  0  0  0  0
  -20.1915  -21.3204   21.2899 N   0  0  0  0  0  0  0  0  0  0  0  0
  -25.4627  -17.8342   19.2118 N   0  0  0  0  0  0  0  0  0  0  0  0
  -25.7691  -30.2537   21.9827 N   0  0  0  0  0  0  0  0  0  0  0  0
  -24.9673  -20.9529   21.3593 N   0  0  0  0  0  0  0  0  0  0  0  0
  -25.4310  -18.1882   16.8699 N   0  0  0  0  0  0  0  0  0  0  0  0
  -25.1576  -13.6962   17.2485 N   0  0  0  0  0  0  0  0  0  0  0  0
  -22.6350  -21.3033   21.3741 N   0  0  0  0  0  0  0  0  0  0  0  0
  -27.8907  -27.7314   20.4229 N   0  0  0  0  0  0  0  0  0  0  0  0
  -25.3483  -33.1268   23.7224 N   0  0  0  0  0  0  0  0  0  0  0  0
  -22.5943  -35.2110   22.6550 N   0  3  0  0  0  0  0  0  0  0  0  0
  -25.2497  -15.4370   15.7586 O   0  0  0  0  0  0  0  0  0  0  0  0
  -27.0192  -28.0974   22.5511 O   0  0  0  0  0  0  0  0  0  0  0  0
  -27.4606  -31.8296   22.2857 O   0  0  0  0  0  0  0  0  0  0  0  0
  -23.0708  -32.7123   23.8576 O   0  0  0  0  0  0  0  0  0  0  0  0
  -24.0979  -23.0273   21.8933 O   0  0  0  0  0  0  0  0  0  0  0  0
  -25.0810  -10.7903   22.0009 O   0  0  0  0  0  0  0  0  0  0  0  0
  -20.6535  -26.8672   21.3392 O   0  0  0  0  0  0  0  0  0  1  0  0
  -21.3483   -7.1610   20.1843 F   0  0  0  0  0  0  0  0  0  0  0  0
  -23.1014   -9.8328   23.6763 F   0  0  0  0  0  0  0  0  0  0  0  0
  1  2  1  0  0  0  0
  1  5  2  0  0  0  0
  2  6  2  0  0  0  0
  3  8  2  0  0  0  0
  3 17  1  0  0  0  0
  4  9  1  0  0  0  0
  4 17  2  0  0  0  0
  5 19  1  0  0  0  0
  6 21  1  0  0  0  0
  7 10  2  0  0  0  0
  7 20  1  0  0  0  0
  8 24  1  0  0  0  0
  9 24  2  0  0  0  0
 10 25  1  0  0  0  0
 11 12  2  0  0  0  0
 11 26  1  0  0  0  0
 12 27  1  0  0  0  0
 13 22  1  0  0  0  0
 13 25  2  0  0  0  0
 14 23  1  0  0  0  0
 14 30  2  0  0  0  0
 15 27  2  0  0  0  0
 15 28  1  0  0  0  0
 16 23  2  0  0  0  0
 16 65  1  0  0  0  0
 17 29  1  0  0  0  0
 18 29  1  0  0  0  0
 18 31  2  0  0  0  0
 18 32  1  0  0  0  0
 19 21  2  0  0  0  0
 19 37  1  0  0  0  0
 20 22  2  0  0  0  0
 20 38  1  0  0  0  0
 21 46  1  0  0  0  0
 22 39  1  0  0  0  0
 23 56  1  0  0  0  0
 24 80  1  0  0  0  0
 25 81  1  0  0  0  0
 26 28  2  0  0  0  0
 26 80  1  0  0  0  0
 27 82  1  0  0  0  0
 28 83  1  0  0  0  0
 29 64  2  0  0  0  0
 30 65  1  0  0  0  0
 30 71  1  0  0  0  0
 31 66  1  0  0  0  0
 31 69  1  0  0  0  0
 32 70  1  0  0  0  0
 32 75  2  0  0  0  0
 33 47  1  0  0  0  0
 33 72  1  0  0  0  0
 33 76  2  0  0  0  0
 34 60  1  0  0  0  0
 34 67  1  0  0  0  0
 34 77  2  0  0  0  0
 35 61  1  0  0  0  0
 35 73  1  0  0  0  0
 35 78  2  0  0  0  0
 36 68  1  0  0  0  0
 36 71  1  0  0  0  0
 36 79  2  0  0  0  0
 37 40  1  0  0  0  0
 38 47  1  0  0  0  0
 39 67  1  0  0  0  0
 40 42  1  0  0  0  0
 41 43  1  0  0  0  0
 41 44  1  0  0  0  0
 42 46  1  0  0  0  0
 43 48  1  0  0  0  0
 44 68  1  0  0  0  0
 45 48  1  0  0  0  0
 45 68  1  0  0  0  0
 46 72  1  0  0  0  0
 47 67  1  0  0  0  0
 48 66  1  0  0  0  0
 49 61  1  0  0  0  0
 50 62  1  0  0  0  0
 51 62  1  0  0  0  0
 52 63  1  0  0  0  0
 53 63  1  0  0  0  0
 54 63  1  0  0  0  0
 55 74  1  0  0  0  0
 56 57  1  0  0  0  0
 57 59  1  0  0  0  0
 58 62  1  0  0  0  0
 58 65  1  0  0  0  0
 59 81  1  0  0  0  0
 60 63  1  0  0  0  0
 60 73  1  0  0  0  0
 61 74  1  0  0  0  0
 64 66  1  0  0  0  0
M  CHG  1  74   1
M  ISO  4  36 100  59 101  71 100  81 101
M  END
> <Batch ID>
0019

> <Smiles>
CNC(C)C(=O)NC(C(=O)N1Cc2cc([101O:1][101CH2:1]CCc3cc([100NH:0][100C:0](=O)N4CCCC(n5nc(-c6ccc(Oc7ccc(F)cc7F)cc6)c(C(N)=O)c5N)C4)n(CC(C)C)c3)ccc2CC1C(=O)NC1CCCc2ccccc21)C(C)(C)C

> <Shape>
0.266

> <Color>
0.081

> <Negative vol penalty>
0.000

$$$$

  -OEChem-04052316073D

 83 91  0     1  0  0  0  0  0999 V2000
  -19.5841  -17.9730   32.4426 C   0  0  0  0  0  0  0  0  0  0  0  0
  -20.5675  -18.5347   31.6346 C   0  0  0  0  0  0  0  0  0  0  0  0
  -22.6684  -10.1994   20.1645 C   0  0  0  0  0  0  0  0  0  0  0  0
  -24.3221   -9.4115   21.7398 C   0  0  0  0  0  0  0  0  0  0  0  0
  -19.8537  -16.8075   33.1587 C   0  0  0  0  0  0  0  0  0  0  0  0
  -21.8215  -17.9317   31.5431 C   0  0  0  0  0  0  0  0  0  0  0  0
  -25.4445  -17.7011   26.6109 C   0  0  0  0  0  0  0  0  0  0  0  0
  -21.9326   -9.0292   20.3516 C   0  0  0  0  0  0  0  0  0  0  0  0
  -23.5863   -8.2414   21.9269 C   0  0  0  0  0  0  0  0  0  0  0  0
  -26.5455  -18.4616   26.2194 C   0  0  0  0  0  0  0  0  0  0  0  0
  -20.8400   -7.2755   23.6432 C   0  0  0  0  0  0  0  0  0  0  0  0
  -20.6566   -6.8295   24.9520 C   0  0  0  0  0  0  0  0  0  0  0  0
  -28.0200  -16.7975   27.1554 C   0  0  0  0  0  0  0  0  0  0  0  0
  -32.5753  -16.8620   24.0504 C   0  0  0  0  0  0  0  0  0  0  0  0
  -21.7766   -4.7601   24.4038 C   0  0  0  0  0  0  0  0  0  0  0  0
  -23.8632  -10.3905   20.8585 C   0  0  0  0  0  0  0  0  0  0  0  0
  -24.2000  -12.9186   20.9103 C   0  0  0  0  0  0  0  0  0  0  0  0
  -21.1085  -16.1846   33.0684 C   0  0  0  0  0  0  0  0  0  0  0  0
  -25.6230  -16.4864   27.2884 C   0  0  0  0  0  0  0  0  0  0  0  0
  -22.1085  -16.7575   32.2597 C   0  0  0  0  0  0  0  0  0  0  0  0
  -26.9196  -16.0223   27.5521 C   0  0  0  0  0  0  0  0  0  0  0  0
  -31.9783  -18.0641   24.4300 C   0  0  0  0  0  0  0  0  0  0  0  0
  -30.7654  -18.4510   23.8599 C   0  0  0  0  0  0  0  0  0  0  0  0
  -30.7467  -16.4337   22.5305 C   0  0  0  0  0  0  0  0  0  0  0  0
  -22.3916   -8.0502   21.2328 C   0  0  0  0  0  0  0  0  0  0  0  0
  -27.8334  -18.0112   26.4942 C   0  0  0  0  0  0  0  0  0  0  0  0
  -21.4917   -6.4638   22.7146 C   0  0  0  0  0  0  0  0  0  0  0  0
  -21.1249   -5.5718   25.3323 C   0  0  0  0  0  0  0  0  0  0  0  0
  -21.9600   -5.2062   23.0949 C   0  0  0  0  0  0  0  0  0  0  0  0
  -31.9595  -16.0468   23.1006 C   0  0  0  0  0  0  0  0  0  0  0  0
  -30.1496  -17.6358   22.9101 C   0  0  0  0  0  0  0  0  0  0  0  0
  -24.6239  -11.5988   20.6652 C   0  0  0  0  0  0  0  0  0  0  0  0
  -25.2810  -13.6951   20.5710 C   0  0  0  0  0  0  0  0  0  0  0  0
  -22.9416  -13.3998   21.4008 C   0  0  0  0  0  0  0  0  0  0  0  0
  -24.8129  -15.3764   30.1546 C   0  0  0  0  0  0  0  0  0  0  0  0
  -26.0047  -12.5958   28.9841 C   0  0  0  0  0  0  0  0  0  0  0  0
  -28.0787  -11.0387   26.7657 C   0  0  0  0  0  0  0  0  0  0  0  0
  -30.7493  -14.7397   20.6659 C   0  0  0  0  0  0  0  0  0  0  0  0
  -21.3686  -14.9523   33.8981 C   0  0  0  0  0  0  0  0  0  0  0  0
  -24.4255  -15.6649   27.6802 C   0  0  0  0  0  0  0  0  0  0  0  0
  -27.1656  -14.7152   28.2588 C   0  0  0  0  0  0  0  0  0  0  0  0
  -22.6007  -14.1680   33.4542 C   0  0  0  0  0  0  0  0  0  0  0  0
  -29.5697  -12.4989   18.1631 C   0  0  0  0  0  0  0  0  0  0  0  0
  -23.7795  -15.1092   33.2275 C   0  0  0  0  0  0  0  0  0  0  0  0
  -28.1429  -12.1735   18.6111 C   0  0  0  0  0  0  0  0  0  0  0  0
  -30.5183  -12.6434   19.3517 C   0  0  0  0  0  0  0  0  0  0  0  0
  -28.6508  -13.2621   20.8346 C   0  0  0  0  0  0  0  0  0  0  0  0
  -23.4730  -16.1192   32.1151 C   0  0  1  0  0  0  0  0  0  0  0  0
  -24.7147  -14.6930   28.8201 C   0  0  1  0  0  0  0  0  0  0  0  0
  -27.6451  -13.1711   19.6753 C   0  0  2  0  0  0  0  0  0  0  0  0
  -32.6604  -18.9180   25.4487 C   0  0  0  0  0  0  0  0  0  0  0  0
  -30.0278  -20.7366   23.1090 C   0  0  0  0  0  0  0  0  0  0  0  0
  -28.8683   -8.7597   26.0731 C   0  0  0  0  0  0  0  0  0  0  0  0
  -27.7890  -12.4654   31.4558 C   0  0  0  0  0  0  0  0  0  0  0  0
  -29.1802  -10.7510   30.2754 C   0  0  0  0  0  0  0  0  0  0  0  0
  -26.7832  -10.2781   30.7787 C   0  0  0  0  0  0  0  0  0  0  0  0
  -27.0142  -11.3756   24.0249 C   0  0  0  0  0  0  0  0  0  0  0  0
  -28.7631  -19.5585   24.9459 C   0  0  0  0  0  0  0  0  0  1  0  0
  -30.1345  -19.7664   24.2889 C   0  0  1  0  0  0  0  0  0  0  0  0
  -27.3642  -11.9398   28.9639 C   0  0  1  0  0  0  0  0  0  0  0  0
  -27.8535   -9.8657   25.8289 C   0  0  2  0  0  0  0  0  0  0  0  0
  -27.7748  -11.3842   30.3568 C   0  0  0  0  0  0  0  0  0  0  0  0
  -25.8765  -11.5365   20.2056 N   0  0  0  0  0  0  0  0  0  0  0  0
  -26.2489  -12.8269   20.1591 N   0  0  0  0  0  0  0  0  0  0  0  0
  -25.9624  -13.9511   28.6274 N   0  0  0  0  0  0  0  0  0  0  0  0
  -29.9838  -13.6073   20.3162 N   0  0  0  0  0  0  0  0  0  0  0  0
  -25.4885  -15.0289   20.5877 N   0  0  0  0  0  0  0  0  0  0  0  0
  -22.7751  -13.5444   22.7848 N   0  0  0  0  0  0  0  0  0  0  0  0
  -30.1248  -15.6021   21.5665 N   0  0  0  0  0  0  0  0  0  0  0  0
  -23.6055  -15.4958   30.8158 N   0  0  0  0  0  0  0  0  0  0  0  0
  -27.3159  -10.9327   27.9095 N   0  0  0  0  0  0  0  0  0  0  0  0
  -27.9706  -10.3061   24.4100 N   0  3  0  0  0  0  0  0  0  0  0  0
  -21.9873  -13.6772   20.6353 O   0  0  0  0  0  0  0  0  0  0  0  0
  -25.9037  -15.7652   30.5555 O   0  0  0  0  0  0  0  0  0  0  0  0
  -25.0158  -11.9284   29.2976 O   0  0  0  0  0  0  0  0  0  0  0  0
  -28.8565  -11.9554   26.5103 O   0  0  0  0  0  0  0  0  0  0  0  0
  -31.8646  -14.9445   20.1799 O   0  0  0  0  0  0  0  0  0  0  0  0
  -21.6737   -6.9084   21.4158 O   0  0  0  0  0  0  0  0  0  0  0  0
  -28.9098  -18.7518   26.1138 O   0  0  0  0  0  0  0  0  0  1  0  0
  -20.9500   -5.1442   26.5896 F   0  0  0  0  0  0  0  0  0  0  0  0
  -22.5878   -4.4224   22.2076 F   0  0  0  0  0  0  0  0  0  0  0  0
  -32.7390  -14.5673   22.6636 Cl  0  0  0  0  0  0  0  0  0  0  0  0
  -28.6408  -18.1249   22.2055 Cl  0  0  0  0  0  0  0  0  0  0  0  0
  1  2  1  0  0  0  0
  1  5  2  0  0  0  0
  2  6  2  0  0  0  0
  3  8  2  0  0  0  0
  3 16  1  0  0  0  0
  4  9  1  0  0  0  0
  4 16  2  0  0  0  0
  5 18  1  0  0  0  0
  6 20  1  0  0  0  0
  7 10  2  0  0  0  0
  7 19  1  0  0  0  0
  8 25  1  0  0  0  0
  9 25  2  0  0  0  0
 10 26  1  0  0  0  0
 11 12  2  0  0  0  0
 11 27  1  0  0  0  0
 12 28  1  0  0  0  0
 13 21  1  0  0  0  0
 13 26  2  0  0  0  0
 14 22  2  0  0  0  0
 14 30  1  0  0  0  0
 15 28  2  0  0  0  0
 15 29  1  0  0  0  0
 16 32  1  0  0  0  0
 17 32  1  0  0  0  0
 17 33  2  0  0  0  0
 17 34  1  0  0  0  0
 18 20  2  0  0  0  0
 18 39  1  0  0  0  0
 19 21  2  0  0  0  0
 19 40  1  0  0  0  0
 20 48  1  0  0  0  0
 21 41  1  0  0  0  0
 22 23  1  0  0  0  0
 22 51  1  0  0  0  0
 23 31  2  0  0  0  0
 23 59  1  0  0  0  0
 24 30  2  0  0  0  0
 24 31  1  0  0  0  0
 24 69  1  0  0  0  0
 25 78  1  0  0  0  0
 26 79  1  0  0  0  0
 27 29  2  0  0  0  0
 27 78  1  0  0  0  0
 28 80  1  0  0  0  0
 29 81  1  0  0  0  0
 30 82  1  0  0  0  0
 31 83  1  0  0  0  0
 32 63  2  0  0  0  0
 33 64  1  0  0  0  0
 33 67  1  0  0  0  0
 34 68  1  0  0  0  0
 34 73  2  0  0  0  0
 35 49  1  0  0  0  0
 35 70  1  0  0  0  0
 35 74  2  0  0  0  0
 36 60  1  0  0  0  0
 36 65  1  0  0  0  0
 36 75  2  0  0  0  0
 37 61  1  0  0  0  0
 37 71  1  0  0  0  0
 37 76  2  0  0  0  0
 38 66  1  0  0  0  0
 38 69  1  0  0  0  0
 38 77  2  0  0  0  0
 39 42  1  0  0  0  0
 40 49  1  0  0  0  0
 41 65  1  0  0  0  0
 42 44  1  0  0  0  0
 43 45  1  0  0  0  0
 43 46  1  0  0  0  0
 44 48  1  0  0  0  0
 45 50  1  0  0  0  0
 46 66  1  0  0  0  0
 47 50  1  0  0  0  0
 47 66  1  0  0  0  0
 48 70  1  0  0  0  0
 49 65  1  0  0  0  0
 50 64  1  0  0  0  0
 52 59  1  0  0  0  0
 53 61  1  0  0  0  0
 54 62  1  0  0  0  0
 55 62  1  0  0  0  0
 56 62  1  0  0  0  0
 57 72  1  0  0  0  0
 58 59  1  0  0  0  0
 58 79  1  0  0  0  0
 60 62  1  0  0  0  0
 60 71  1  0  0  0  0
 61 72  1  0  0  0  0
 63 64  1  0  0  0  0
M  CHG  1  72   1
M  ISO  4  38 100  58 101  69 100  79 101
M  END
> <Batch ID>
0019

> <Smiles>
CNC(C)C(=O)NC(C(=O)N1Cc2cc([101O:1][101CH2:1]C(C)c3c(C)cc(Cl)c([100NH:0][100C:0](=O)N4CCCC(n5nc(-c6ccc(Oc7ccc(F)cc7F)cc6)c(C(N)=O)c5N)C4)c3Cl)ccc2CC1C(=O)NC1CCCc2ccccc21)C(C)(C)C

> <Shape>
0.189

> <Color>
0.183

> <Negative vol penalty>
0.000

$$$$

  -OEChem-04052316073D

 93101  0     1  0  0  0  0  0999 V2000
  -16.6029  -28.5349   24.3573 C   0  0  0  0  0  0  0  0  0  0  0  0
  -17.6817  -28.7965   25.1958 C   0  0  0  0  0  0  0  0  0  0  0  0
  -26.4606  -14.5780   21.0789 C   0  0  0  0  0  0  0  0  0  0  0  0
  -24.2107  -14.5805   20.1986 C   0  0  0  0  0  0  0  0  0  0  0  0
  -16.8260  -28.1147   23.0467 C   0  0  0  0  0  0  0  0  0  0  0  0
  -18.9844  -28.6370   24.7246 C   0  0  0  0  0  0  0  0  0  0  0  0
  -25.5583  -31.3904   25.4452 C   0  0  0  0  0  0  0  0  0  0  0  0
  -26.1711  -13.4296   21.8157 C   0  0  0  0  0  0  0  0  0  0  0  0
  -23.9212  -13.4320   20.9354 C   0  0  0  0  0  0  0  0  0  0  0  0
  -26.8683  -30.9949   25.7117 C   0  0  0  0  0  0  0  0  0  0  0  0
  -22.6983  -10.2941   22.3051 C   0  0  0  0  0  0  0  0  0  0  0  0
  -22.0109   -9.2654   21.6608 C   0  0  0  0  0  0  0  0  0  0  0  0
  -27.1336  -30.3403   23.4051 C   0  0  0  0  0  0  0  0  0  0  0  0
  -23.8013   -9.0785   20.0493 C   0  0  0  0  0  0  0  0  0  0  0  0
  -25.4804  -15.1535   20.2704 C   0  0  0  0  0  0  0  0  0  0  0  0
  -26.2910  -16.4037   18.1998 C   0  0  0  0  0  0  0  0  0  0  0  0
  -18.1321  -27.9593   22.5562 C   0  0  0  0  0  0  0  0  0  0  0  0
  -25.0215  -31.2534   24.1569 C   0  0  0  0  0  0  0  0  0  0  0  0
  -19.2252  -28.2131   23.4066 C   0  0  0  0  0  0  0  0  0  0  0  0
  -25.8172  -30.7372   23.1242 C   0  0  0  0  0  0  0  0  0  0  0  0
  -24.9014  -12.8566   21.7440 C   0  0  0  0  0  0  0  0  0  0  0  0
  -27.6553  -30.4671   24.6923 C   0  0  0  0  0  0  0  0  0  0  0  0
  -23.9371  -10.7150   21.8214 C   0  0  0  0  0  0  0  0  0  0  0  0
  -22.5624   -8.6576   20.5330 C   0  0  0  0  0  0  0  0  0  0  0  0
  -24.4886  -10.1072   20.6936 C   0  0  0  0  0  0  0  0  0  0  0  0
  -25.7787  -16.3401   19.5095 C   0  0  0  0  0  0  0  0  0  0  0  0
  -26.3946  -17.7478   17.9365 C   0  0  0  0  0  0  0  0  0  0  0  0
  -27.9427  -24.1845   19.8279 C   0  0  0  0  0  0  0  0  0  0  0  0
  -26.6418  -15.3428   17.3015 C   0  0  0  0  0  0  0  0  0  0  0  0
  -28.9160  -24.8775   20.4492 C   0  0  0  0  0  0  0  0  0  0  0  0
  -28.0365  -22.7418   19.5268 C   0  0  0  0  0  0  0  0  0  0  0  0
  -22.6034  -29.6202   22.8963 C   0  0  0  0  0  0  0  0  0  0  0  0
  -23.3861  -31.2810   20.2221 C   0  0  0  0  0  0  0  0  0  0  0  0
  -25.7611  -32.9867   18.4622 C   0  0  0  0  0  0  0  0  0  0  0  0
  -18.3233  -27.4574   21.1469 C   0  0  0  0  0  0  0  0  0  0  0  0
  -23.6153  -31.7096   23.8796 C   0  0  0  0  0  0  0  0  0  0  0  0
  -25.2949  -30.5882   21.7194 C   0  0  0  0  0  0  0  0  0  0  0  0
  -19.7358  -27.6736   20.6097 C   0  0  0  0  0  0  0  0  0  0  0  0
  -24.6280  -21.7526   20.4407 C   0  0  0  0  0  0  0  0  0  0  0  0
  -33.1468  -25.7825   19.1444 C   0  0  0  0  0  0  0  0  0  0  0  0
  -20.7717  -27.2421   21.6428 C   0  0  0  0  0  0  0  0  0  0  0  0
  -24.6890  -20.2445   20.2135 C   0  0  0  0  0  0  0  0  0  0  0  0
  -31.8753  -25.7518   19.9782 C   0  0  0  0  0  0  0  0  0  0  0  0
  -25.9586  -22.3091   20.9450 C   0  0  0  0  0  0  0  0  0  0  0  0
  -27.1793  -20.4536   19.8463 C   0  0  0  0  0  0  0  0  0  0  0  0
  -34.1592  -24.7696   19.6468 C   0  0  0  0  0  0  0  0  0  0  0  0
  -20.6530  -28.0756   22.9245 C   0  0  1  0  0  0  0  0  0  0  0  0
  -23.0040  -31.0471   22.6488 C   0  0  1  0  0  0  0  0  0  0  0  0
  -25.8652  -19.8797   19.2939 C   0  0  1  0  0  0  0  0  0  0  0  0
  -31.2793  -24.3456   20.0120 C   0  0  1  0  0  0  0  0  0  0  0  0
  -32.2903  -23.2907   20.5051 C   0  0  1  0  0  0  0  0  0  0  0  0
  -31.7018  -21.8790   20.4190 C   0  0  0  0  0  0  0  0  0  0  0  0
  -27.4992  -26.6196   21.6260 C   0  0  0  0  0  0  0  0  0  0  0  0
  -28.5449  -27.1527   19.3940 C   0  0  0  0  0  0  0  0  0  0  0  0
  -26.1152  -34.1957   16.2919 C   0  0  0  0  0  0  0  0  0  0  0  0
  -32.1847  -24.1495   24.6884 C   0  0  0  0  0  0  0  0  0  0  0  0
  -29.0918  -23.3485   22.8341 C   0  0  0  0  0  0  0  0  0  0  0  0
  -23.5609  -28.6067   18.7636 C   0  0  0  0  0  0  0  0  0  0  0  0
  -24.8108  -29.7672   16.9308 C   0  0  0  0  0  0  0  0  0  0  0  0
  -22.4665  -30.4375   17.4579 C   0  0  0  0  0  0  0  0  0  0  0  0
  -34.6095  -22.3624   19.9875 C   0  0  0  0  0  0  0  0  0  0  0  0
  -26.3678  -35.5318   19.8454 C   0  0  0  0  0  0  0  0  0  0  0  0
  -30.0564  -27.3901   25.3676 C   0  0  0  0  0  0  0  0  0  0  0  0
  -30.3740  -28.6161   26.2317 C   0  0  0  0  0  0  0  0  0  0  0  0
  -31.2228  -26.3959   25.3751 C   0  0  0  0  0  0  0  0  0  0  0  0
  -30.6395  -25.3157   23.0834 C   0  0  0  0  0  0  0  0  0  0  0  0
  -29.2211  -29.6122   26.2649 C   0  0  0  0  0  0  0  0  0  1  0  0
  -28.6954  -26.3698   20.7021 C   0  0  0  0  0  0  0  0  0  0  0  0
  -24.3224  -31.0559   19.0595 C   0  0  1  0  0  0  0  0  0  0  0  0
  -25.7200  -34.3289   17.7544 C   0  0  2  0  0  0  0  0  0  0  0  0
  -30.9859  -25.0992   24.5738 C   0  0  1  0  0  0  0  0  0  0  0  0
  -30.3356  -24.0410   22.2787 C   0  0  2  0  0  0  0  0  0  0  0  0
  -23.7997  -29.9677   18.0797 C   0  0  0  0  0  0  0  0  0  0  0  0
  -25.5715  -17.5477   20.0413 N   0  0  0  0  0  0  0  0  0  0  0  0
  -25.9555  -18.3828   19.0609 N   0  0  0  0  0  0  0  0  0  0  0  0
  -27.0758  -21.8981   20.0815 N   0  0  0  0  0  0  0  0  0  0  0  0
  -23.9118  -31.0425   21.4998 N   0  0  0  0  0  0  0  0  0  0  0  0
  -26.8176  -18.4365   16.8553 N   0  0  0  0  0  0  0  0  0  0  0  0
  -26.4727  -14.0196   17.7317 N   0  0  0  0  0  0  0  0  0  0  0  0
  -21.2521  -29.3795   22.7367 N   0  0  0  0  0  0  0  0  0  0  0  0
  -24.5318  -32.3624   18.4450 N   0  0  0  0  0  0  0  0  0  0  0  0
  -30.1081  -24.3621   20.8841 N   0  0  3  0  0  0  0  0  0  0  0  0
  -33.5512  -23.3814   19.6354 N   0  3  2  0  0  0  0  0  0  0  0  0
  -26.6546  -35.2881   18.4083 N   0  3  0  0  0  0  0  0  0  0  0  0
  -27.1072  -15.5615   16.1573 O   0  0  0  0  0  0  0  0  0  0  0  0
  -28.9641  -22.3707   18.8052 O   0  0  0  0  0  0  0  0  0  0  0  0
  -23.4573  -28.7982   23.2076 O   0  0  0  0  0  0  0  0  0  0  0  0
  -22.2330  -31.6616   20.0050 O   0  0  0  0  0  0  0  0  0  0  0  0
  -26.7825  -32.5353   18.9755 O   0  0  0  0  0  0  0  0  0  0  0  0
  -24.6186  -11.7358   22.4626 O   0  0  0  0  0  0  0  0  0  0  0  0
  -28.9438  -30.0768   24.9518 O   0  0  0  0  0  0  0  0  0  1  0  0
  -21.9030   -7.6688   19.9153 F   0  0  0  0  0  0  0  0  0  0  0  0
  -25.6789  -10.5064   20.2250 F   0  0  0  0  0  0  0  0  0  0  0  0
  1  2  1  0  0  0  0
  1  5  2  0  0  0  0
  2  6  2  0  0  0  0
  3  8  2  0  0  0  0
  3 15  1  0  0  0  0
  4  9  1  0  0  0  0
  4 15  2  0  0  0  0
  5 17  1  0  0  0  0
  6 19  1  0  0  0  0
  7 10  2  0  0  0  0
  7 18  1  0  0  0  0
  8 21  1  0  0  0  0
  9 21  2  0  0  0  0
 10 22  1  0  0  0  0
 11 12  2  0  0  0  0
 11 23  1  0  0  0  0
 12 24  1  0  0  0  0
 13 20  1  0  0  0  0
 13 22  2  0  0  0  0
 14 24  2  0  0  0  0
 14 25  1  0  0  0  0
 15 26  1  0  0  0  0
 16 26  1  0  0  0  0
 16 27  2  0  0  0  0
 16 29  1  0  0  0  0
 17 19  2  0  0  0  0
 17 35  1  0  0  0  0
 18 20  2  0  0  0  0
 18 36  1  0  0  0  0
 19 47  1  0  0  0  0
 20 37  1  0  0  0  0
 21 90  1  0  0  0  0
 22 91  1  0  0  0  0
 23 25  2  0  0  0  0
 23 90  1  0  0  0  0
 24 92  1  0  0  0  0
 25 93  1  0  0  0  0
 26 74  2  0  0  0  0
 27 75  1  0  0  0  0
 27 78  1  0  0  0  0
 28 30  2  0  0  0  0
 28 31  1  0  0  0  0
 29 79  1  0  0  0  0
 29 85  2  0  0  0  0
 30 68  1  0  0  0  0
 30 82  1  0  0  0  0
 31 76  1  0  0  0  0
 31 86  2  0  0  0  0
 32 48  1  0  0  0  0
 32 80  1  0  0  0  0
 32 87  2  0  0  0  0
 33 69  1  0  0  0  0
 33 77  1  0  0  0  0
 33 88  2  0  0  0  0
 34 70  1  0  0  0  0
 34 81  1  0  0  0  0
 34 89  2  0  0  0  0
 35 38  1  0  0  0  0
 36 48  1  0  0  0  0
 37 77  1  0  0  0  0
 38 41  1  0  0  0  0
 39 42  1  0  0  0  0
 39 44  1  0  0  0  0
 40 43  1  0  0  0  0
 40 46  1  0  0  0  0
 41 47  1  0  0  0  0
 42 49  1  0  0  0  0
 43 50  1  0  0  0  0
 44 76  1  0  0  0  0
 45 49  1  0  0  0  0
 45 76  1  0  0  0  0
 46 83  1  0  0  0  0
 47 80  1  0  0  0  0
 48 77  1  0  0  0  0
 49 75  1  0  0  0  0
 50 51  1  0  0  0  0
 50 82  1  0  0  0  0
 51 52  1  0  0  0  0
 51 83  1  0  0  0  0
 53 68  1  0  0  0  0
 54 68  1  0  0  0  0
 55 70  1  0  0  0  0
 56 71  1  0  0  0  0
 57 72  1  0  0  0  0
 58 73  1  0  0  0  0
 59 73  1  0  0  0  0
 60 73  1  0  0  0  0
 61 83  1  0  0  0  0
 62 84  1  0  0  0  0
 63 64  1  0  0  0  0
 63 65  1  0  0  0  0
 64 67  1  0  0  0  0
 65 71  1  0  0  0  0
 66 71  1  0  0  0  0
 66 72  1  0  0  0  0
 67 91  1  0  0  0  0
 69 73  1  0  0  0  0
 69 81  1  0  0  0  0
 70 84  1  0  0  0  0
 72 82  1  0  0  0  0
 74 75  1  0  0  0  0
M  CHG  2  83   1  84   1
M  ISO  4  28 100  31 100  67 101  91 101
M  END
> <Batch ID>
0019

> <Smiles>
CNC(C)C(=O)NC(C(=O)N1Cc2cc([101O:1][101CH2:1]CCCC(C)CC(C)N(C([100CH2:0][100C:0](=O)N3CCCC(n4nc(-c5ccc(Oc6ccc(F)cc6F)cc5)c(C(N)=O)c4N)C3)=C(C)C)C3CCCN(C)C3C)ccc2CC1C(=O)NC1CCCc2ccccc21)C(C)(C)C

> <Shape>
0.252

> <Color>
0.083

> <Negative vol penalty>
0.000

$$$$
