
  -OEChem-04052316093D

 91 99  0     1  0  0  0  0  0999 V2000
  -18.2478  -28.5854   17.7796 C   0  0  0  0  0  0  0  0  0  0  0  0
  -19.1600  -29.3139   18.5364 C   0  0  0  0  0  0  0  0  0  0  0  0
  -23.8428  -13.9927   19.7570 C   0  0  0  0  0  0  0  0  0  0  0  0
  -25.0885  -13.8218   21.8200 C   0  0  0  0  0  0  0  0  0  0  0  0
  -18.3952  -27.2050   17.6514 C   0  0  0  0  0  0  0  0  0  0  0  0
  -20.2195  -28.6620   19.1664 C   0  0  0  0  0  0  0  0  0  0  0  0
  -25.8737  -30.8394   20.0582 C   0  0  0  0  0  0  0  0  0  0  0  0
  -24.7238  -13.0972   19.1509 C   0  0  0  0  0  0  0  0  0  0  0  0
  -25.9695  -12.9262   21.2139 C   0  0  0  0  0  0  0  0  0  0  0  0
  -26.4873  -31.4326   21.1607 C   0  0  0  0  0  0  0  0  0  0  0  0
  -28.7570  -10.8731   20.1074 C   0  0  0  0  0  0  0  0  0  0  0  0
  -30.1223  -11.0605   20.3229 C   0  0  0  0  0  0  0  0  0  0  0  0
  -27.4076  -29.2938   21.7917 C   0  0  0  0  0  0  0  0  0  0  0  0
  -23.5105  -27.1659   25.0650 C   0  0  0  0  0  0  0  0  0  0  0  0
  -29.9783  -13.2561   19.3250 C   0  0  0  0  0  0  0  0  0  0  0  0
  -24.0252  -14.3551   21.0916 C   0  0  0  0  0  0  0  0  0  0  0  0
  -21.9292  -14.9703   22.4092 C   0  0  0  0  0  0  0  0  0  0  0  0
  -19.4626  -26.5372   18.2721 C   0  0  0  0  0  0  0  0  0  0  0  0
  -26.0137  -29.4646   19.8200 C   0  0  0  0  0  0  0  0  0  0  0  0
  -20.3806  -27.2711   19.0474 C   0  0  0  0  0  0  0  0  0  0  0  0
  -26.7968  -28.6861   20.6841 C   0  0  0  0  0  0  0  0  0  0  0  0
  -24.2319  -25.9899   24.8596 C   0  0  0  0  0  0  0  0  0  0  0  0
  -22.4555  -24.7196   25.8930 C   0  0  0  0  0  0  0  0  0  0  0  0
  -23.7044  -24.7668   25.2735 C   0  0  0  0  0  0  0  0  0  0  0  0
  -21.7341  -25.8957   26.0985 C   0  0  0  0  0  0  0  0  0  0  0  0
  -22.2616  -27.1188   25.6845 C   0  0  0  0  0  0  0  0  0  0  0  0
  -25.7871  -12.5639   19.8793 C   0  0  0  0  0  0  0  0  0  0  0  0
  -27.2520  -30.6593   22.0292 C   0  0  0  0  0  0  0  0  0  0  0  0
  -28.0023  -11.8771   19.5007 C   0  0  0  0  0  0  0  0  0  0  0  0
  -30.7330  -12.2520   19.9317 C   0  0  0  0  0  0  0  0  0  0  0  0
  -28.6130  -13.0686   19.1095 C   0  0  0  0  0  0  0  0  0  0  0  0
  -23.1158  -15.2806   21.7182 C   0  0  0  0  0  0  0  0  0  0  0  0
  -21.4361  -16.1884   22.8089 C   0  0  0  0  0  0  0  0  0  0  0  0
  -21.3267  -13.6951   22.6669 C   0  0  0  0  0  0  0  0  0  0  0  0
  -24.0130  -26.9993   19.6676 C   0  0  0  0  0  0  0  0  0  0  0  0
  -26.6751  -25.3970   18.7359 C   0  0  0  0  0  0  0  0  0  0  0  0
  -30.0817  -25.1920   18.7351 C   0  0  0  0  0  0  0  0  0  0  0  0
  -24.0985  -21.3436   23.9000 C   0  0  0  0  0  0  0  0  0  0  0  0
  -19.5537  -25.0372   18.1437 C   0  0  0  0  0  0  0  0  0  0  0  0
  -25.3674  -28.8448   18.6114 C   0  0  0  0  0  0  0  0  0  0  0  0
  -26.9950  -27.2098   20.4613 C   0  0  0  0  0  0  0  0  0  0  0  0
  -20.9176  -24.4741   18.5347 C   0  0  0  0  0  0  0  0  0  0  0  0
  -21.3961  -20.8068   21.5535 C   0  0  0  0  0  0  0  0  0  0  0  0
  -21.3897  -25.0843   19.8506 C   0  0  0  0  0  0  0  0  0  0  0  0
  -21.4246  -19.2850   21.3997 C   0  0  0  0  0  0  0  0  0  0  0  0
  -22.8060  -21.3760   21.6817 C   0  0  0  0  0  0  0  0  0  0  0  0
  -23.6415  -19.2623   22.6344 C   0  0  0  0  0  0  0  0  0  0  0  0
  -21.5572  -26.6034   19.7255 C   0  0  1  0  0  0  0  0  0  0  0  0
  -25.1549  -27.3407   18.7527 C   0  0  1  0  0  0  0  0  0  0  0  0
  -22.2452  -18.6236   22.5228 C   0  0  2  0  0  0  0  0  0  0  0  0
  -25.5663  -26.0675   24.1929 C   0  0  0  0  0  0  0  0  0  0  0  0
  -21.8903  -23.4073   26.3373 C   0  0  0  0  0  0  0  0  0  0  0  0
  -20.3926  -25.8436   26.7604 C   0  0  0  0  0  0  0  0  0  0  0  0
  -31.9682  -23.7498   17.9235 C   0  0  0  0  0  0  0  0  0  0  0  0
  -26.0911  -23.3877   20.9566 C   0  0  0  0  0  0  0  0  0  0  0  0
  -28.4402  -22.5533   20.7240 C   0  0  0  0  0  0  0  0  0  0  0  0
  -26.8577  -22.3704   18.8044 C   0  0  0  0  0  0  0  0  0  0  0  0
  -20.6261  -28.7911   24.8545 C   0  0  0  0  0  0  0  0  0  0  0  0
  -31.1956  -27.3788   17.0808 C   0  0  0  0  0  0  0  0  0  0  0  0
  -24.4809  -23.5071   25.0533 C   0  0  0  0  0  0  0  0  0  0  0  0
  -24.1845  -31.8488   25.8486 C   0  0  0  0  0  0  0  0  0  0  0  0
  -25.5041  -31.0910   25.6862 C   0  0  0  0  0  0  0  0  0  0  0  0
  -22.9551  -30.9352   25.8781 C   0  0  0  0  0  0  0  0  0  0  0  0
  -26.6924  -32.0539   25.6320 C   0  0  0  0  0  0  0  0  0  0  0  0
  -22.9642  -29.9409   27.0444 C   0  0  0  0  0  0  0  0  0  0  0  0
  -28.0139  -31.2993   25.5031 C   0  0  0  0  0  0  0  0  0  0  0  0
  -21.7004  -29.0842   27.0925 C   0  0  0  0  0  0  0  0  0  0  0  0
  -28.0400  -30.4207   24.2604 C   0  0  0  0  0  0  0  0  0  1  0  0
  -27.7704  -24.6391   19.4465 C   0  0  1  0  0  0  0  0  0  0  0  0
  -31.0755  -24.9418   17.6151 C   0  0  2  0  0  0  0  0  0  0  0  0
  -27.2847  -23.2650   19.9884 C   0  0  0  0  0  0  0  0  0  0  0  0
  -23.3616  -16.5929   21.6790 N   0  0  0  0  0  0  0  0  0  0  0  0
  -22.3226  -17.1180   22.3504 N   0  0  0  0  0  0  0  0  0  0  0  0
  -26.3376  -26.6489   19.2693 N   0  0  0  0  0  0  0  0  0  0  0  0
  -23.5269  -20.7172   22.7800 N   0  0  0  0  0  0  0  0  0  0  0  0
  -20.3350  -16.5442   23.5041 N   0  0  0  0  0  0  0  0  0  0  0  0
  -21.9656  -12.5446   22.1849 N   0  0  0  0  0  0  0  0  0  0  0  0
  -22.7879  -26.9209   19.0333 N   0  0  0  0  0  0  0  0  0  0  0  0
  -28.8824  -24.5513   18.5063 N   0  0  0  0  0  0  0  0  0  0  0  0
  -23.9517  -22.7241   23.9589 N   0  0  0  0  0  0  0  0  0  0  0  0
  -21.5520  -28.3116   25.8820 N   0  0  3  0  0  0  0  0  0  0  0  0
  -31.9414  -26.1379   17.4141 N   0  3  0  0  0  0  0  0  0  0  0  0
  -20.2449  -13.5805   23.2915 O   0  0  0  0  0  0  0  0  0  0  0  0
  -24.2278  -26.8187   20.8605 O   0  0  0  0  0  0  0  0  0  0  0  0
  -26.1438  -24.8998   17.7398 O   0  0  0  0  0  0  0  0  0  0  0  0
  -30.3445  -25.8835   19.7166 O   0  0  0  0  0  0  0  0  0  0  0  0
  -24.6916  -20.7180   24.7854 O   0  0  0  0  0  0  0  0  0  0  0  0
  -26.6468  -11.6898   19.2882 O   0  0  0  0  0  0  0  0  0  0  0  0
  -27.8560  -31.2399   23.1144 O   0  0  0  0  0  0  0  0  0  1  0  0
  -32.0437  -12.4325   20.1400 F   0  0  0  0  0  0  0  0  0  0  0  0
  -27.8930  -14.0373   18.5272 F   0  0  0  0  0  0  0  0  0  0  0  0
  1  2  1  0  0  0  0
  1  5  2  0  0  0  0
  2  6  2  0  0  0  0
  3  8  2  0  0  0  0
  3 16  1  0  0  0  0
  4  9  1  0  0  0  0
  4 16  2  0  0  0  0
  5 18  1  0  0  0  0
  6 20  1  0  0  0  0
  7 10  2  0  0  0  0
  7 19  1  0  0  0  0
  8 27  1  0  0  0  0
  9 27  2  0  0  0  0
 10 28  1  0  0  0  0
 11 12  2  0  0  0  0
 11 29  1  0  0  0  0
 12 30  1  0  0  0  0
 13 21  1  0  0  0  0
 13 28  2  0  0  0  0
 14 22  2  0  0  0  0
 14 26  1  0  0  0  0
 15 30  2  0  0  0  0
 15 31  1  0  0  0  0
 16 32  1  0  0  0  0
 17 32  1  0  0  0  0
 17 33  2  0  0  0  0
 17 34  1  0  0  0  0
 18 20  2  0  0  0  0
 18 39  1  0  0  0  0
 19 21  2  0  0  0  0
 19 40  1  0  0  0  0
 20 48  1  0  0  0  0
 21 41  1  0  0  0  0
 22 24  1  0  0  0  0
 22 51  1  0  0  0  0
 23 24  2  0  0  0  0
 23 25  1  0  0  0  0
 23 52  1  0  0  0  0
 24 60  1  0  0  0  0
 25 26  2  0  0  0  0
 25 53  1  0  0  0  0
 26 81  1  0  0  0  0
 27 88  1  0  0  0  0
 28 89  1  0  0  0  0
 29 31  2  0  0  0  0
 29 88  1  0  0  0  0
 30 90  1  0  0  0  0
 31 91  1  0  0  0  0
 32 72  2  0  0  0  0
 33 73  1  0  0  0  0
 33 76  1  0  0  0  0
 34 77  1  0  0  0  0
 34 83  2  0  0  0  0
 35 49  1  0  0  0  0
 35 78  1  0  0  0  0
 35 84  2  0  0  0  0
 36 69  1  0  0  0  0
 36 74  1  0  0  0  0
 36 85  2  0  0  0  0
 37 70  1  0  0  0  0
 37 79  1  0  0  0  0
 37 86  2  0  0  0  0
 38 75  1  0  0  0  0
 38 80  1  0  0  0  0
 38 87  2  0  0  0  0
 39 42  1  0  0  0  0
 40 49  1  0  0  0  0
 41 74  1  0  0  0  0
 42 44  1  0  0  0  0
 43 45  1  0  0  0  0
 43 46  1  0  0  0  0
 44 48  1  0  0  0  0
 45 50  1  0  0  0  0
 46 75  1  0  0  0  0
 47 50  1  0  0  0  0
 47 75  1  0  0  0  0
 48 78  1  0  0  0  0
 49 74  1  0  0  0  0
 50 73  1  0  0  0  0
 54 70  1  0  0  0  0
 55 71  1  0  0  0  0
 56 71  1  0  0  0  0
 57 71  1  0  0  0  0
 58 81  1  0  0  0  0
 59 82  1  0  0  0  0
 60 80  1  0  0  0  0
 61 62  1  0  0  0  0
 61 63  1  0  0  0  0
 62 64  1  0  0  0  0
 63 65  1  0  0  0  0
 64 66  1  0  0  0  0
 65 67  1  0  0  0  0
 66 68  1  0  0  0  0
 67 81  1  0  0  0  0
 68 89  1  0  0  0  0
 69 71  1  0  0  0  0
 69 79  1  0  0  0  0
 70 82  1  0  0  0  0
 72 73  1  0  0  0  0
M  CHG  1  82   1
M  ISO  4  38 100  68 101  80 100  89 101
M  END
> <Batch ID>
0020

> <Smiles>
CNC(C)C(=O)NC(C(=O)N1Cc2cc([101O:1][101CH2:1]CCCCCCCN(C)c3cc(C)c(C[100NH:0][100C:0](=O)N4CCCC(n5nc(-c6ccc(Oc7ccc(F)cc7F)cc6)c(C(N)=O)c5N)C4)c(C)c3C)ccc2CC1C(=O)NC1CCCc2ccccc21)C(C)(C)C

> <Shape>
0.210

> <Color>
0.082

> <Negative vol penalty>
0.000

$$$$

  -OEChem-04052316093D

 85 93  0     1  0  0  0  0  0999 V2000
  -33.4523  -28.5712   13.3992 C   0  0  0  0  0  0  0  0  0  0  0  0
  -34.0107  -27.6237   14.2513 C   0  0  0  0  0  0  0  0  0  0  0  0
  -23.0265  -10.0153   19.8304 C   0  0  0  0  0  0  0  0  0  0  0  0
  -23.8943   -9.7212   22.0659 C   0  0  0  0  0  0  0  0  0  0  0  0
  -32.1890  -29.0940   13.6721 C   0  0  0  0  0  0  0  0  0  0  0  0
  -33.3064  -27.1994   15.3775 C   0  0  0  0  0  0  0  0  0  0  0  0
  -32.3013  -21.4149   19.4819 C   0  0  0  0  0  0  0  0  0  0  0  0
  -22.2845   -8.8417   19.9640 C   0  0  0  0  0  0  0  0  0  0  0  0
  -23.1523   -8.5476   22.1995 C   0  0  0  0  0  0  0  0  0  0  0  0
  -32.3416  -21.0230   20.8192 C   0  0  0  0  0  0  0  0  0  0  0  0
  -19.8826   -6.1154   19.8501 C   0  0  0  0  0  0  0  0  0  0  0  0
  -18.5548   -6.1355   19.4232 C   0  0  0  0  0  0  0  0  0  0  0  0
  -30.1334  -21.9370   21.1473 C   0  0  0  0  0  0  0  0  0  0  0  0
  -32.0945  -17.8347   24.7303 C   0  0  0  0  0  0  0  0  0  0  0  0
  -18.0711   -7.8916   21.0104 C   0  0  0  0  0  0  0  0  0  0  0  0
  -23.8314  -10.4550   20.8813 C   0  0  0  0  0  0  0  0  0  0  0  0
  -24.1908  -12.9732   21.0740 C   0  0  0  0  0  0  0  0  0  0  0  0
  -31.4647  -28.6687   14.7970 C   0  0  0  0  0  0  0  0  0  0  0  0
  -31.1793  -22.0816   18.9690 C   0  0  0  0  0  0  0  0  0  0  0  0
  -32.0327  -27.7180   15.6665 C   0  0  0  0  0  0  0  0  0  0  0  0
  -30.0803  -22.3340   19.8025 C   0  0  0  0  0  0  0  0  0  0  0  0
  -30.8742  -18.2703   24.2139 C   0  0  0  0  0  0  0  0  0  0  0  0
  -32.6666  -16.6512   24.2637 C   0  0  0  0  0  0  0  0  0  0  0  0
  -30.7981  -16.3388   22.7645 C   0  0  0  0  0  0  0  0  0  0  0  0
  -22.3474   -8.1079   21.1485 C   0  0  0  0  0  0  0  0  0  0  0  0
  -31.2588  -21.2866   21.6529 C   0  0  0  0  0  0  0  0  0  0  0  0
  -20.3046   -6.9834   20.8572 C   0  0  0  0  0  0  0  0  0  0  0  0
  -30.2259  -17.5223   23.2310 C   0  0  0  0  0  0  0  0  0  0  0  0
  -17.6491   -7.0236   20.0033 C   0  0  0  0  0  0  0  0  0  0  0  0
  -19.3989   -7.8715   21.4373 C   0  0  0  0  0  0  0  0  0  0  0  0
  -32.0184  -15.9032   23.2809 C   0  0  0  0  0  0  0  0  0  0  0  0
  -24.5985  -11.6669   20.7437 C   0  0  0  0  0  0  0  0  0  0  0  0
  -25.2715  -13.7602   20.7590 C   0  0  0  0  0  0  0  0  0  0  0  0
  -22.9465  -13.4340   21.6172 C   0  0  0  0  0  0  0  0  0  0  0  0
  -30.6629  -24.9437   17.6862 C   0  0  0  0  0  0  0  0  0  0  0  0
  -27.6942  -23.7440   17.1668 C   0  0  0  0  0  0  0  0  0  0  0  0
  -25.2797  -21.5011   18.0537 C   0  0  0  0  0  0  0  0  0  0  0  0
  -30.7493  -14.7571   20.8043 C   0  0  0  0  0  0  0  0  0  0  0  0
  -30.1226  -29.2974   15.0765 C   0  0  0  0  0  0  0  0  0  0  0  0
  -31.1406  -22.4740   17.5175 C   0  0  0  0  0  0  0  0  0  0  0  0
  -28.8438  -23.0287   19.2957 C   0  0  0  0  0  0  0  0  0  0  0  0
  -29.2835  -28.5184   16.0861 C   0  0  0  0  0  0  0  0  0  0  0  0
  -29.5014  -12.6758   18.1990 C   0  0  0  0  0  0  0  0  0  0  0  0
  -30.1285  -28.1285   17.2948 C   0  0  0  0  0  0  0  0  0  0  0  0
  -28.0810  -12.3352   18.6559 C   0  0  0  0  0  0  0  0  0  0  0  0
  -30.4745  -12.7433   19.3746 C   0  0  0  0  0  0  0  0  0  0  0  0
  -28.6420  -13.2876   20.9286 C   0  0  0  0  0  0  0  0  0  0  0  0
  -31.2893  -27.2143   16.8846 C   0  0  1  0  0  0  0  0  0  0  0  0
  -30.1571  -23.6043   17.2302 C   0  0  1  0  0  0  0  0  0  0  0  0
  -27.6129  -13.2723   19.7866 C   0  0  2  0  0  0  0  0  0  0  0  0
  -33.9716  -16.1881   24.8179 C   0  0  0  0  0  0  0  0  0  0  0  0
  -22.9460  -20.7856   17.4712 C   0  0  0  0  0  0  0  0  0  0  0  0
  -31.1178  -20.2753   25.8261 C   0  0  0  0  0  0  0  0  0  0  0  0
  -28.8870  -19.2735   25.3819 C   0  0  0  0  0  0  0  0  0  0  0  0
  -26.5868  -26.2039   18.5924 C   0  0  0  0  0  0  0  0  0  0  0  0
  -24.4027  -25.0017   18.8218 C   0  0  0  0  0  0  0  0  0  0  0  0
  -25.3096  -25.5154   16.5555 C   0  0  0  0  0  0  0  0  0  0  0  0
  -26.1700  -18.7694   17.3437 C   0  0  0  0  0  0  0  0  0  0  0  0
  -28.9783  -18.2129   21.3277 C   0  0  0  0  0  0  0  0  0  0  0  0
  -30.0506  -20.5829   23.5767 C   0  0  0  0  0  0  0  0  0  1  0  0
  -26.4028  -23.7106   17.9480 C   0  0  1  0  0  0  0  0  0  0  0  0
  -24.4290  -20.5563   17.2242 C   0  0  2  0  0  0  0  0  0  0  0  0
  -30.2601  -19.5807   24.7412 C   0  0  0  0  0  0  0  0  0  0  0  0
  -25.6994  -25.0965   17.9898 C   0  0  0  0  0  0  0  0  0  0  0  0
  -25.8412  -11.6224   20.2560 N   0  0  0  0  0  0  0  0  0  0  0  0
  -26.2236  -12.9106   20.2775 N   0  0  0  0  0  0  0  0  0  0  0  0
  -28.8565  -23.3984   17.8707 N   0  0  0  0  0  0  0  0  0  0  0  0
  -29.9674  -13.6528   20.4044 N   0  0  0  0  0  0  0  0  0  0  0  0
  -25.4906  -15.0892   20.8495 N   0  0  0  0  0  0  0  0  0  0  0  0
  -21.9432  -12.4918   21.8819 N   0  0  0  0  0  0  0  0  0  0  0  0
  -30.1502  -15.5697   21.7662 N   0  0  0  0  0  0  0  0  0  0  0  0
  -30.8165  -25.8639   16.6669 N   0  0  0  0  0  0  0  0  0  0  0  0
  -25.5958  -22.6484   17.3573 N   0  0  0  0  0  0  0  0  0  0  0  0
  -24.7481  -19.1402   17.5618 N   0  3  0  0  0  0  0  0  0  0  0  0
  -22.7247  -14.6474   21.8453 O   0  0  0  0  0  0  0  0  0  0  0  0
  -30.8951  -25.1290   18.8751 O   0  0  0  0  0  0  0  0  0  0  0  0
  -27.6715  -24.0580   15.9741 O   0  0  0  0  0  0  0  0  0  0  0  0
  -25.6259  -21.2483   19.2055 O   0  0  0  0  0  0  0  0  0  0  0  0
  -31.8565  -14.9818   20.3087 O   0  0  0  0  0  0  0  0  0  0  0  0
  -21.6234   -6.9628   21.2793 O   0  0  0  0  0  0  0  0  0  0  0  0
  -29.0325  -17.9525   22.7278 O   0  0  0  0  0  0  0  0  0  0  0  0
  -31.2957  -20.9057   22.9588 O   0  0  0  0  0  0  0  0  0  1  0  0
  -16.3744   -7.0438   19.5922 F   0  0  0  0  0  0  0  0  0  0  0  0
  -19.7987   -8.7086   22.4043 F   0  0  0  0  0  0  0  0  0  0  0  0
  -32.5707  -14.7653   22.8337 F   0  0  0  0  0  0  0  0  0  0  0  0
  1  2  1  0  0  0  0
  1  5  2  0  0  0  0
  2  6  2  0  0  0  0
  3  8  2  0  0  0  0
  3 16  1  0  0  0  0
  4  9  1  0  0  0  0
  4 16  2  0  0  0  0
  5 18  1  0  0  0  0
  6 20  1  0  0  0  0
  7 10  2  0  0  0  0
  7 19  1  0  0  0  0
  8 25  1  0  0  0  0
  9 25  2  0  0  0  0
 10 26  1  0  0  0  0
 11 12  2  0  0  0  0
 11 27  1  0  0  0  0
 12 29  1  0  0  0  0
 13 21  1  0  0  0  0
 13 26  2  0  0  0  0
 14 22  1  0  0  0  0
 14 23  2  0  0  0  0
 15 29  2  0  0  0  0
 15 30  1  0  0  0  0
 16 32  1  0  0  0  0
 17 32  1  0  0  0  0
 17 33  2  0  0  0  0
 17 34  1  0  0  0  0
 18 20  2  0  0  0  0
 18 39  1  0  0  0  0
 19 21  2  0  0  0  0
 19 40  1  0  0  0  0
 20 48  1  0  0  0  0
 21 41  1  0  0  0  0
 22 28  2  0  0  0  0
 22 63  1  0  0  0  0
 23 31  1  0  0  0  0
 23 51  1  0  0  0  0
 24 28  1  0  0  0  0
 24 31  2  0  0  0  0
 24 71  1  0  0  0  0
 25 80  1  0  0  0  0
 26 82  1  0  0  0  0
 27 30  2  0  0  0  0
 27 80  1  0  0  0  0
 28 81  1  0  0  0  0
 29 83  1  0  0  0  0
 30 84  1  0  0  0  0
 31 85  1  0  0  0  0
 32 65  2  0  0  0  0
 33 66  1  0  0  0  0
 33 69  1  0  0  0  0
 34 70  1  0  0  0  0
 34 75  2  0  0  0  0
 35 49  1  0  0  0  0
 35 72  1  0  0  0  0
 35 76  2  0  0  0  0
 36 61  1  0  0  0  0
 36 67  1  0  0  0  0
 36 77  2  0  0  0  0
 37 62  1  0  0  0  0
 37 73  1  0  0  0  0
 37 78  2  0  0  0  0
 38 68  1  0  0  0  0
 38 71  1  0  0  0  0
 38 79  2  0  0  0  0
 39 42  1  0  0  0  0
 40 49  1  0  0  0  0
 41 67  1  0  0  0  0
 42 44  1  0  0  0  0
 43 45  1  0  0  0  0
 43 46  1  0  0  0  0
 44 48  1  0  0  0  0
 45 50  1  0  0  0  0
 46 68  1  0  0  0  0
 47 50  1  0  0  0  0
 47 68  1  0  0  0  0
 48 72  1  0  0  0  0
 49 67  1  0  0  0  0
 50 66  1  0  0  0  0
 52 62  1  0  0  0  0
 53 63  1  0  0  0  0
 54 63  1  0  0  0  0
 55 64  1  0  0  0  0
 56 64  1  0  0  0  0
 57 64  1  0  0  0  0
 58 74  1  0  0  0  0
 59 81  1  0  0  0  0
 60 63  1  0  0  0  0
 60 82  1  0  0  0  0
 61 64  1  0  0  0  0
 61 73  1  0  0  0  0
 62 74  1  0  0  0  0
 65 66  1  0  0  0  0
M  CHG  1  74   1
M  ISO  4  38 100  60 101  71 100  82 101
M  END
> <Batch ID>
0020

> <Smiles>
CNC(C)C(=O)NC(C(=O)N1Cc2cc([101O:1][101CH2:1]C(C)(C)c3cc(C)c(F)c([100NH:0][100C:0](=O)N4CCCC(n5nc(-c6ccc(Oc7ccc(F)cc7F)cc6)c(C(N)=O)c5N)C4)c3OC)ccc2CC1C(=O)NC1CCCc2ccccc21)C(C)(C)C

> <Shape>
0.214

> <Color>
0.192

> <Negative vol penalty>
0.000

$$$$

  -OEChem-04052316093D

 85 93  0     1  0  0  0  0  0999 V2000
  -18.4869  -31.4854   22.5203 C   0  0  0  0  0  0  0  0  0  0  0  0
  -19.8587  -31.3916   22.3092 C   0  0  0  0  0  0  0  0  0  0  0  0
  -25.8602  -13.2972   21.2106 C   0  0  0  0  0  0  0  0  0  0  0  0
  -25.0016  -14.0267   19.0734 C   0  0  0  0  0  0  0  0  0  0  0  0
  -17.7384  -30.3328   22.7552 C   0  0  0  0  0  0  0  0  0  0  0  0
  -20.4832  -30.1450   22.3341 C   0  0  0  0  0  0  0  0  0  0  0  0
  -25.2436  -28.3434   18.9284 C   0  0  0  0  0  0  0  0  0  0  0  0
  -24.7826  -12.4219   21.3448 C   0  0  0  0  0  0  0  0  0  0  0  0
  -23.9239  -13.1514   19.2076 C   0  0  0  0  0  0  0  0  0  0  0  0
  -26.6101  -28.2647   19.1934 C   0  0  0  0  0  0  0  0  0  0  0  0
  -23.8783   -9.3849   20.1650 C   0  0  0  0  0  0  0  0  0  0  0  0
  -24.1476   -8.0871   20.5994 C   0  0  0  0  0  0  0  0  0  0  0  0
  -26.3609  -25.9317   19.7537 C   0  0  0  0  0  0  0  0  0  0  0  0
  -22.7196   -8.4327   22.5173 C   0  0  0  0  0  0  0  0  0  0  0  0
  -33.3794  -24.8360   17.7839 C   0  0  0  0  0  0  0  0  0  0  0  0
  -25.9697  -14.0997   20.0749 C   0  0  0  0  0  0  0  0  0  0  0  0
  -28.3296  -14.7333   19.3420 C   0  0  0  0  0  0  0  0  0  0  0  0
  -18.3524  -29.0706   22.7734 C   0  0  0  0  0  0  0  0  0  0  0  0
  -24.4222  -27.2176   19.0848 C   0  0  0  0  0  0  0  0  0  0  0  0
  -19.7424  -28.9746   22.5709 C   0  0  0  0  0  0  0  0  0  0  0  0
  -24.9848  -25.9980   19.4876 C   0  0  0  0  0  0  0  0  0  0  0  0
  -33.0972  -23.8968   16.8223 C   0  0  0  0  0  0  0  0  0  0  0  0
  -23.8144  -12.3489   20.3433 C   0  0  0  0  0  0  0  0  0  0  0  0
  -27.1685  -27.0595   19.6089 C   0  0  0  0  0  0  0  0  0  0  0  0
  -23.0298  -10.2067   20.9068 C   0  0  0  0  0  0  0  0  0  0  0  0
  -23.5682   -7.6110   21.7755 C   0  0  0  0  0  0  0  0  0  0  0  0
  -22.4504   -9.7306   22.0829 C   0  0  0  0  0  0  0  0  0  0  0  0
  -27.0824  -15.0045   19.9359 C   0  0  0  0  0  0  0  0  0  0  0  0
  -32.5184  -24.6324   15.7709 C   0  0  0  0  0  0  0  0  0  0  0  0
  -29.0296  -15.9090   19.4612 C   0  0  0  0  0  0  0  0  0  0  0  0
  -28.8122  -13.5265   18.7367 C   0  0  0  0  0  0  0  0  0  0  0  0
  -21.9324  -26.4956   20.9242 C   0  0  0  0  0  0  0  0  0  0  0  0
  -21.8756  -23.8013   19.1187 C   0  0  0  0  0  0  0  0  0  0  0  0
  -23.5754  -21.6107   17.1290 C   0  0  0  0  0  0  0  0  0  0  0  0
  -29.2981  -21.4714   19.0967 C   0  0  0  0  0  0  0  0  0  0  0  0
  -17.5095  -27.8576   23.0784 C   0  0  0  0  0  0  0  0  0  0  0  0
  -22.9546  -27.3123   18.7692 C   0  0  0  0  0  0  0  0  0  0  0  0
  -24.1498  -24.7552   19.6511 C   0  0  0  0  0  0  0  0  0  0  0  0
  -18.1872  -26.5384   22.7167 C   0  0  0  0  0  0  0  0  0  0  0  0
  -28.0113  -20.0922   22.1164 C   0  0  0  0  0  0  0  0  0  0  0  0
  -19.6273  -26.5226   23.2193 C   0  0  0  0  0  0  0  0  0  0  0  0
  -27.7522  -18.6256   21.7674 C   0  0  0  0  0  0  0  0  0  0  0  0
  -27.7059  -21.0151   20.9387 C   0  0  0  0  0  0  0  0  0  0  0  0
  -28.1318  -19.1953   19.3322 C   0  0  0  0  0  0  0  0  0  0  0  0
  -20.4520  -27.6379   22.5657 C   0  0  1  0  0  0  0  0  0  0  0  0
  -22.1247  -26.2329   19.4574 C   0  0  1  0  0  0  0  0  0  0  0  0
  -28.4790  -18.2209   20.4708 C   0  0  2  0  0  0  0  0  0  0  0  0
  -32.0236  -24.1250   14.4791 C   0  0  0  0  0  0  0  0  0  0  0  0
  -23.2710  -19.4848   15.8308 C   0  0  0  0  0  0  0  0  0  0  0  0
  -33.9874  -28.3194   17.1624 C   0  0  0  0  0  0  0  0  0  0  0  0
  -21.9365  -22.2071   21.7197 C   0  0  0  0  0  0  0  0  0  0  0  0
  -22.5838  -20.1893   20.3864 C   0  0  0  0  0  0  0  0  0  0  0  0
  -20.3886  -21.3011   19.9768 C   0  0  0  0  0  0  0  0  0  0  0  0
  -24.2621  -22.9364   14.5737 C   0  0  0  0  0  0  0  0  0  0  0  0
  -33.3486  -22.4473   16.8889 C   0  0  0  0  0  0  0  0  0  0  0  0
  -32.3138  -21.6382   17.7105 C   0  0  0  0  0  0  0  0  0  0  0  0
  -30.7090  -27.1644   18.9446 C   0  0  0  0  0  0  0  0  0  0  0  0
  -31.6870  -28.0517   18.1697 C   0  0  0  0  0  0  0  0  0  0  0  0
  -30.8783  -21.7721   17.2068 C   0  0  0  0  0  0  0  0  0  0  0  0
  -29.3605  -27.8475   19.1295 C   0  0  0  0  0  0  0  0  0  1  0  0
  -22.5147  -22.4369   19.2139 C   0  0  1  0  0  0  0  0  0  0  0  0
  -23.2363  -21.0043   15.7793 C   0  0  2  0  0  0  0  0  0  0  0  0
  -33.0620  -27.3850   17.9515 C   0  0  1  0  0  0  0  0  0  0  0  0
  -21.8716  -21.5573   20.3231 C   0  0  0  0  0  0  0  0  0  0  0  0
  -26.9923  -16.2544   20.3982 N   0  0  0  0  0  0  0  0  0  0  0  0
  -32.4369  -25.9384   16.0391 N   0  0  0  0  0  0  0  0  0  0  0  0
  -32.9681  -26.0306   17.2701 N   0  0  0  0  0  0  0  0  0  0  0  0
  -28.1919  -16.7790   20.0948 N   0  0  0  0  0  0  0  0  0  0  0  0
  -22.7189  -24.9001   19.3365 N   0  0  0  0  0  0  0  0  0  0  0  0
  -28.4272  -20.5775   19.7412 N   0  0  0  0  0  0  0  0  0  0  0  0
  -30.2738  -16.2732   19.0848 N   0  0  0  0  0  0  0  0  0  0  0  0
  -27.9630  -12.4122   18.6984 N   0  0  0  0  0  0  0  0  0  0  0  0
  -20.8242  -27.2673   21.2171 N   0  0  0  0  0  0  0  0  0  0  0  0
  -22.4435  -21.8586   17.8764 N   0  0  0  0  0  0  0  0  0  0  0  0
  -29.9468  -20.9745   17.9729 N   0  0  0  0  0  0  0  0  0  0  0  0
  -24.2088  -21.4619   14.7469 N   0  3  0  0  0  0  0  0  0  0  0  0
  -29.9684  -13.4339   18.2590 O   0  0  0  0  0  0  0  0  0  0  0  0
  -22.7297  -26.0312   21.7307 O   0  0  0  0  0  0  0  0  0  0  0  0
  -20.6741  -23.8891   18.8536 O   0  0  0  0  0  0  0  0  0  0  0  0
  -24.7292  -21.8380   17.4862 O   0  0  0  0  0  0  0  0  0  0  0  0
  -29.4879  -22.6251   19.4966 O   0  0  0  0  0  0  0  0  0  0  0  0
  -22.7628  -11.4947   20.4738 O   0  0  0  0  0  0  0  0  0  0  0  0
  -28.5019  -26.9801   19.8689 O   0  0  0  0  0  0  0  0  0  1  0  0
  -23.8256   -6.3641   22.1917 F   0  0  0  0  0  0  0  0  0  0  0  0
  -21.6334  -10.5151   22.7992 F   0  0  0  0  0  0  0  0  0  0  0  0
  1  2  1  0  0  0  0
  1  5  2  0  0  0  0
  2  6  2  0  0  0  0
  3  8  2  0  0  0  0
  3 16  1  0  0  0  0
  4  9  1  0  0  0  0
  4 16  2  0  0  0  0
  5 18  1  0  0  0  0
  6 20  1  0  0  0  0
  7 10  2  0  0  0  0
  7 19  1  0  0  0  0
  8 23  1  0  0  0  0
  9 23  2  0  0  0  0
 10 24  1  0  0  0  0
 11 12  2  0  0  0  0
 11 25  1  0  0  0  0
 12 26  1  0  0  0  0
 13 21  1  0  0  0  0
 13 24  2  0  0  0  0
 14 26  2  0  0  0  0
 14 27  1  0  0  0  0
 15 22  2  0  0  0  0
 15 67  1  0  0  0  0
 16 28  1  0  0  0  0
 17 28  1  0  0  0  0
 17 30  2  0  0  0  0
 17 31  1  0  0  0  0
 18 20  2  0  0  0  0
 18 36  1  0  0  0  0
 19 21  2  0  0  0  0
 19 37  1  0  0  0  0
 20 45  1  0  0  0  0
 21 38  1  0  0  0  0
 22 29  1  0  0  0  0
 22 55  1  0  0  0  0
 23 82  1  0  0  0  0
 24 83  1  0  0  0  0
 25 27  2  0  0  0  0
 25 82  1  0  0  0  0
 26 84  1  0  0  0  0
 27 85  1  0  0  0  0
 28 65  2  0  0  0  0
 29 48  1  0  0  0  0
 29 66  2  0  0  0  0
 30 68  1  0  0  0  0
 30 71  1  0  0  0  0
 31 72  1  0  0  0  0
 31 77  2  0  0  0  0
 32 46  1  0  0  0  0
 32 73  1  0  0  0  0
 32 78  2  0  0  0  0
 33 61  1  0  0  0  0
 33 69  1  0  0  0  0
 33 79  2  0  0  0  0
 34 62  1  0  0  0  0
 34 74  1  0  0  0  0
 34 80  2  0  0  0  0
 35 70  1  0  0  0  0
 35 75  1  0  0  0  0
 35 81  2  0  0  0  0
 36 39  1  0  0  0  0
 37 46  1  0  0  0  0
 38 69  1  0  0  0  0
 39 41  1  0  0  0  0
 40 42  1  0  0  0  0
 40 43  1  0  0  0  0
 41 45  1  0  0  0  0
 42 47  1  0  0  0  0
 43 70  1  0  0  0  0
 44 47  1  0  0  0  0
 44 70  1  0  0  0  0
 45 73  1  0  0  0  0
 46 69  1  0  0  0  0
 47 68  1  0  0  0  0
 49 62  1  0  0  0  0
 50 63  1  0  0  0  0
 51 64  1  0  0  0  0
 52 64  1  0  0  0  0
 53 64  1  0  0  0  0
 54 76  1  0  0  0  0
 55 56  1  0  0  0  0
 56 59  1  0  0  0  0
 57 58  1  0  0  0  0
 57 60  1  0  0  0  0
 58 63  1  0  0  0  0
 59 75  1  0  0  0  0
 60 83  1  0  0  0  0
 61 64  1  0  0  0  0
 61 74  1  0  0  0  0
 62 76  1  0  0  0  0
 63 67  1  0  0  0  0
 65 68  1  0  0  0  0
 66 67  1  0  0  0  0
M  CHG  1  76   1
M  ISO  4  35 100  60 101  75 100  83 101
M  END
> <Batch ID>
0020

> <Smiles>
CNC(C)C(=O)NC(C(=O)N1Cc2cc([101O:1][101CH2:1]CCC(C)n3cc(CCC[100NH:0][100C:0](=O)N4CCCC(n5nc(-c6ccc(Oc7ccc(F)cc7F)cc6)c(C(N)=O)c5N)C4)c(C)n3)ccc2CC1C(=O)NC1CCCc2ccccc21)C(C)(C)C

> <Shape>
0.235

> <Color>
0.075

> <Negative vol penalty>
0.000

$$$$

  -OEChem-04052316093D

 90 98  0     1  0  0  0  0  0999 V2000
  -18.7432  -32.7500   20.5976 C   0  0  0  0  0  0  0  0  0  0  0  0
  -20.0556  -32.4627   20.2364 C   0  0  0  0  0  0  0  0  0  0  0  0
  -24.4767   -8.8474   20.6422 C   0  0  0  0  0  0  0  0  0  0  0  0
  -22.7682  -10.5554   20.6224 C   0  0  0  0  0  0  0  0  0  0  0  0
  -18.2050  -32.1998   21.7602 C   0  0  0  0  0  0  0  0  0  0  0  0
  -20.8310  -31.6258   21.0382 C   0  0  0  0  0  0  0  0  0  0  0  0
  -25.0985  -27.6521   19.1663 C   0  0  0  0  0  0  0  0  0  0  0  0
  -23.5319   -7.9069   21.0526 C   0  0  0  0  0  0  0  0  0  0  0  0
  -21.8232   -9.6150   21.0327 C   0  0  0  0  0  0  0  0  0  0  0  0
  -26.4888  -27.7313   19.0992 C   0  0  0  0  0  0  0  0  0  0  0  0
  -21.9827   -7.0224   23.9235 C   0  0  0  0  0  0  0  0  0  0  0  0
  -22.3386   -6.1556   24.9567 C   0  0  0  0  0  0  0  0  0  0  0  0
  -26.6491  -26.6188   21.2336 C   0  0  0  0  0  0  0  0  0  0  0  0
  -26.9821  -20.1690   17.5831 C   0  0  0  0  0  0  0  0  0  0  0  0
  -27.9486  -19.8251   20.1773 C   0  0  0  0  0  0  0  0  0  0  0  0
  -21.9992   -4.2667   23.4890 C   0  0  0  0  0  0  0  0  0  0  0  0
  -24.0949  -10.1716   20.4272 C   0  0  0  0  0  0  0  0  0  0  0  0
  -25.4196  -11.4776   18.6815 C   0  0  0  0  0  0  0  0  0  0  0  0
  -18.9711  -31.3480   22.5715 C   0  0  0  0  0  0  0  0  0  0  0  0
  -24.4717  -27.0645   20.2745 C   0  0  0  0  0  0  0  0  0  0  0  0
  -20.3029  -31.0647   22.2134 C   0  0  0  0  0  0  0  0  0  0  0  0
  -25.2508  -26.5311   21.3112 C   0  0  0  0  0  0  0  0  0  0  0  0
  -27.2750  -21.2818   18.3714 C   0  0  0  0  0  0  0  0  0  0  0  0
  -27.1724  -18.8842   18.0919 C   0  0  0  0  0  0  0  0  0  0  0  0
  -27.7583  -21.1099   19.6685 C   0  0  0  0  0  0  0  0  0  0  0  0
  -27.6557  -18.7123   19.3890 C   0  0  0  0  0  0  0  0  0  0  0  0
  -22.2051   -8.2907   21.2478 C   0  0  0  0  0  0  0  0  0  0  0  0
  -27.2643  -27.2171   20.1343 C   0  0  0  0  0  0  0  0  0  0  0  0
  -21.6351   -6.5114   22.6730 C   0  0  0  0  0  0  0  0  0  0  0  0
  -22.3468   -4.7778   24.7395 C   0  0  0  0  0  0  0  0  0  0  0  0
  -21.6433   -5.1336   22.4558 C   0  0  0  0  0  0  0  0  0  0  0  0
  -25.0706  -11.1437   20.0039 C   0  0  0  0  0  0  0  0  0  0  0  0
  -26.3847  -12.4457   18.8152 C   0  0  0  0  0  0  0  0  0  0  0  0
  -24.9163  -10.9592   17.4432 C   0  0  0  0  0  0  0  0  0  0  0  0
  -22.4663  -28.0849   22.5197 C   0  0  0  0  0  0  0  0  0  0  0  0
  -22.4380  -24.9541   23.3677 C   0  0  0  0  0  0  0  0  0  0  0  0
  -24.0243  -21.9325   23.3475 C   0  0  0  0  0  0  0  0  0  0  0  0
  -28.3294  -17.0893   21.1940 C   0  0  0  0  0  0  0  0  0  0  0  0
  -18.3611  -30.8148   23.8437 C   0  0  0  0  0  0  0  0  0  0  0  0
  -22.9717  -26.9629   20.3193 C   0  0  0  0  0  0  0  0  0  0  0  0
  -24.6272  -25.8721   22.5134 C   0  0  0  0  0  0  0  0  0  0  0  0
  -19.1287  -29.6381   24.4406 C   0  0  0  0  0  0  0  0  0  0  0  0
  -28.9267  -14.0211   22.8990 C   0  0  0  0  0  0  0  0  0  0  0  0
  -20.6251  -29.9330   24.4631 C   0  0  0  0  0  0  0  0  0  0  0  0
  -28.0055  -13.0265   22.1890 C   0  0  0  0  0  0  0  0  0  0  0  0
  -28.2855  -15.4025   23.0183 C   0  0  0  0  0  0  0  0  0  0  0  0
  -26.8721  -14.9750   21.0464 C   0  0  0  0  0  0  0  0  0  0  0  0
  -21.1677  -30.1415   23.0441 C   0  0  1  0  0  0  0  0  0  0  0  0
  -22.4255  -26.8043   21.7349 C   0  0  1  0  0  0  0  0  0  0  0  0
  -27.5007  -13.5865   20.8447 C   0  0  2  0  0  0  0  0  0  0  0  0
  -26.8504  -17.7104   17.2250 C   0  0  0  0  0  0  0  0  0  0  0  0
  -28.0785  -22.2863   20.5311 C   0  0  0  0  0  0  0  0  0  0  0  0
  -23.7715  -19.5695   24.1534 C   0  0  0  0  0  0  0  0  0  0  0  0
  -23.1696  -25.8421   26.1937 C   0  0  0  0  0  0  0  0  0  0  0  0
  -23.8246  -23.4776   26.6922 C   0  0  0  0  0  0  0  0  0  0  0  0
  -21.4660  -24.0145   26.0826 C   0  0  0  0  0  0  0  0  0  0  0  0
  -24.0649  -20.8643   20.5878 C   0  0  0  0  0  0  0  0  0  0  0  0
  -27.0620  -22.6538   17.8029 C   0  0  0  0  0  0  0  0  0  0  0  0
  -33.0003  -25.4222   19.5652 C   0  0  0  0  0  0  0  0  0  0  0  0
  -32.3821  -25.0618   18.2106 C   0  0  0  0  0  0  0  0  0  0  0  0
  -32.0634  -26.1090   20.5649 C   0  0  0  0  0  0  0  0  0  0  0  0
  -31.1790  -24.1214   18.3199 C   0  0  0  0  0  0  0  0  0  0  0  0
  -31.5689  -27.4775   20.0906 C   0  0  0  0  0  0  0  0  0  0  0  0
  -30.6222  -23.7738   16.9354 C   0  0  0  0  0  0  0  0  0  0  0  0
  -30.6226  -28.1534   21.0841 C   0  0  0  0  0  0  0  0  0  0  0  0
  -29.4137  -22.8467   16.9838 C   0  0  0  0  0  0  0  0  0  0  0  0
  -29.3253  -27.3880   21.3085 C   0  0  0  0  0  0  0  0  0  1  0  0
  -23.2554  -24.0911   24.2983 C   0  0  1  0  0  0  0  0  0  0  0  0
  -23.5310  -20.5381   23.0059 C   0  0  2  0  0  0  0  0  0  0  0  0
  -22.9409  -24.3704   25.7951 C   0  0  0  0  0  0  0  0  0  0  0  0
  -25.7582  -11.8427   20.9108 N   0  0  0  0  0  0  0  0  0  0  0  0
  -26.5490  -12.6255   20.1571 N   0  0  0  0  0  0  0  0  0  0  0  0
  -23.1566  -25.8027   22.5138 N   0  0  0  0  0  0  0  0  0  0  0  0
  -27.8354  -15.8706   21.7056 N   0  0  0  0  0  0  0  0  0  0  0  0
  -27.1003  -13.1522   17.9145 N   0  0  0  0  0  0  0  0  0  0  0  0
  -23.9261   -9.9682   17.4869 N   0  0  0  0  0  0  0  0  0  0  0  0
  -27.8558  -17.4154   19.9236 N   0  0  0  0  0  0  0  0  0  0  0  0
  -21.3376  -28.8691   22.3759 N   0  0  0  0  0  0  0  0  0  0  0  0
  -23.0219  -22.7113   23.8860 N   0  0  0  0  0  0  0  0  0  0  0  0
  -24.2353  -20.0208   21.7987 N   0  3  0  0  0  0  0  0  0  0  0  0
  -28.3095  -23.4654   17.7543 N   0  3  0  0  0  0  0  0  0  0  0  0
  -25.3440  -11.3510   16.3309 O   0  0  0  0  0  0  0  0  0  0  0  0
  -23.4484  -28.3419   23.2061 O   0  0  0  0  0  0  0  0  0  0  0  0
  -21.2073  -24.8728   23.3924 O   0  0  0  0  0  0  0  0  0  0  0  0
  -25.1840  -22.2936   23.1593 O   0  0  0  0  0  0  0  0  0  0  0  0
  -29.1357  -17.7783   21.8241 O   0  0  0  0  0  0  0  0  0  0  0  0
  -21.2828   -7.3733   21.6480 O   0  0  0  0  0  0  0  0  0  0  0  0
  -28.6311  -27.2942   20.0712 O   0  0  0  0  0  0  0  0  0  1  0  0
  -22.6901   -3.9456   25.7314 F   0  0  0  0  0  0  0  0  0  0  0  0
  -21.3114   -4.6368   21.2562 F   0  0  0  0  0  0  0  0  0  0  0  0
  1  2  1  0  0  0  0
  1  5  2  0  0  0  0
  2  6  2  0  0  0  0
  3  8  2  0  0  0  0
  3 17  1  0  0  0  0
  4  9  1  0  0  0  0
  4 17  2  0  0  0  0
  5 19  1  0  0  0  0
  6 21  1  0  0  0  0
  7 10  2  0  0  0  0
  7 20  1  0  0  0  0
  8 27  1  0  0  0  0
  9 27  2  0  0  0  0
 10 28  1  0  0  0  0
 11 12  2  0  0  0  0
 11 29  1  0  0  0  0
 12 30  1  0  0  0  0
 13 22  1  0  0  0  0
 13 28  2  0  0  0  0
 14 23  1  0  0  0  0
 14 24  2  0  0  0  0
 15 25  1  0  0  0  0
 15 26  2  0  0  0  0
 16 30  2  0  0  0  0
 16 31  1  0  0  0  0
 17 32  1  0  0  0  0
 18 32  1  0  0  0  0
 18 33  2  0  0  0  0
 18 34  1  0  0  0  0
 19 21  2  0  0  0  0
 19 39  1  0  0  0  0
 20 22  2  0  0  0  0
 20 40  1  0  0  0  0
 21 48  1  0  0  0  0
 22 41  1  0  0  0  0
 23 25  2  0  0  0  0
 23 58  1  0  0  0  0
 24 26  1  0  0  0  0
 24 51  1  0  0  0  0
 25 52  1  0  0  0  0
 26 77  1  0  0  0  0
 27 87  1  0  0  0  0
 28 88  1  0  0  0  0
 29 31  2  0  0  0  0
 29 87  1  0  0  0  0
 30 89  1  0  0  0  0
 31 90  1  0  0  0  0
 32 71  2  0  0  0  0
 33 72  1  0  0  0  0
 33 75  1  0  0  0  0
 34 76  1  0  0  0  0
 34 82  2  0  0  0  0
 35 49  1  0  0  0  0
 35 78  1  0  0  0  0
 35 83  2  0  0  0  0
 36 68  1  0  0  0  0
 36 73  1  0  0  0  0
 36 84  2  0  0  0  0
 37 69  1  0  0  0  0
 37 79  1  0  0  0  0
 37 85  2  0  0  0  0
 38 74  1  0  0  0  0
 38 77  1  0  0  0  0
 38 86  2  0  0  0  0
 39 42  1  0  0  0  0
 40 49  1  0  0  0  0
 41 73  1  0  0  0  0
 42 44  1  0  0  0  0
 43 45  1  0  0  0  0
 43 46  1  0  0  0  0
 44 48  1  0  0  0  0
 45 50  1  0  0  0  0
 46 74  1  0  0  0  0
 47 50  1  0  0  0  0
 47 74  1  0  0  0  0
 48 78  1  0  0  0  0
 49 73  1  0  0  0  0
 50 72  1  0  0  0  0
 53 69  1  0  0  0  0
 54 70  1  0  0  0  0
 55 70  1  0  0  0  0
 56 70  1  0  0  0  0
 57 80  1  0  0  0  0
 58 81  1  0  0  0  0
 59 60  1  0  0  0  0
 59 61  1  0  0  0  0
 60 62  1  0  0  0  0
 61 63  1  0  0  0  0
 62 64  1  0  0  0  0
 63 65  1  0  0  0  0
 64 66  1  0  0  0  0
 65 67  1  0  0  0  0
 66 81  1  0  0  0  0
 67 88  1  0  0  0  0
 68 70  1  0  0  0  0
 68 79  1  0  0  0  0
 69 80  1  0  0  0  0
 71 72  1  0  0  0  0
M  CHG  2  80   1  81   1
M  ISO  4  38 100  67 101  77 100  88 101
M  END
> <Batch ID>
0020

> <Smiles>
CNC(C)C(=O)NC(C(=O)N1Cc2cc([101O:1][101CH2:1]CCCCCCCCNCc3cc(C)c([100NH:0][100C:0](=O)N4CCCC(n5nc(-c6ccc(Oc7ccc(F)cc7F)cc6)c(C(N)=O)c5N)C4)cc3C)ccc2CC1C(=O)NC1CCCc2ccccc21)C(C)(C)C

> <Shape>
0.254

> <Color>
0.117

> <Negative vol penalty>
0.000

$$$$

  -OEChem-04052316093D

 93101  0     1  0  0  0  0  0999 V2000
  -21.0752  -25.7400   16.8124 C   0  0  0  0  0  0  0  0  0  0  0  0
  -22.3206  -25.6008   17.4166 C   0  0  0  0  0  0  0  0  0  0  0  0
  -24.5624   -9.2555   21.4588 C   0  0  0  0  0  0  0  0  0  0  0  0
  -22.7397  -10.4891   20.4623 C   0  0  0  0  0  0  0  0  0  0  0  0
  -20.4225  -26.9717   16.8392 C   0  0  0  0  0  0  0  0  0  0  0  0
  -22.9145  -26.6936   18.0471 C   0  0  0  0  0  0  0  0  0  0  0  0
  -24.8958  -25.4973   22.5513 C   0  0  0  0  0  0  0  0  0  0  0  0
  -23.7192   -8.1601   21.6450 C   0  0  0  0  0  0  0  0  0  0  0  0
  -21.8965   -9.3937   20.6485 C   0  0  0  0  0  0  0  0  0  0  0  0
  -26.1245  -24.8385   22.5517 C   0  0  0  0  0  0  0  0  0  0  0  0
  -21.3037   -7.2169   23.8130 C   0  0  0  0  0  0  0  0  0  0  0  0
  -21.3473   -6.5689   25.0474 C   0  0  0  0  0  0  0  0  0  0  0  0
  -27.2362  -26.9250   23.0311 C   0  0  0  0  0  0  0  0  0  0  0  0
  -28.5930  -17.3918   18.3657 C   0  0  0  0  0  0  0  0  0  0  0  0
  -21.9963   -4.5179   23.9478 C   0  0  0  0  0  0  0  0  0  0  0  0
  -24.0727  -10.4200   20.8675 C   0  0  0  0  0  0  0  0  0  0  0  0
  -25.7439  -11.8275   19.5508 C   0  0  0  0  0  0  0  0  0  0  0  0
  -21.0043  -28.0777   17.4786 C   0  0  0  0  0  0  0  0  0  0  0  0
  -24.8290  -26.8791   22.7804 C   0  0  0  0  0  0  0  0  0  0  0  0
  -22.2695  -27.9416   18.0813 C   0  0  0  0  0  0  0  0  0  0  0  0
  -26.0052  -27.5985   23.0356 C   0  0  0  0  0  0  0  0  0  0  0  0
  -29.9167  -17.1792   17.9971 C   0  0  0  0  0  0  0  0  0  0  0  0
  -30.9160  -17.9974   18.5122 C   0  0  0  0  0  0  0  0  0  0  0  0
  -22.3863   -8.2291   21.2399 C   0  0  0  0  0  0  0  0  0  0  0  0
  -27.2953  -25.5529   22.7887 C   0  0  0  0  0  0  0  0  0  0  0  0
  -21.6063   -6.5154   22.6459 C   0  0  0  0  0  0  0  0  0  0  0  0
  -21.6937   -5.2194   25.1148 C   0  0  0  0  0  0  0  0  0  0  0  0
  -21.9526   -5.1659   22.7133 C   0  0  0  0  0  0  0  0  0  0  0  0
  -24.9430  -11.5521   20.6753 C   0  0  0  0  0  0  0  0  0  0  0  0
  -28.3231  -18.4276   19.2455 C   0  0  0  0  0  0  0  0  0  0  0  0
  -30.5421  -19.0062   19.3853 C   0  0  0  0  0  0  0  0  0  0  0  0
  -26.3738  -13.0085   19.8588 C   0  0  0  0  0  0  0  0  0  0  0  0
  -25.9041  -11.0823   18.3364 C   0  0  0  0  0  0  0  0  0  0  0  0
  -23.8485  -29.3878   21.0926 C   0  0  0  0  0  0  0  0  0  0  0  0
  -25.2840  -17.9933   22.6356 C   0  0  0  0  0  0  0  0  0  0  0  0
  -24.4219  -30.9813   23.8592 C   0  0  0  0  0  0  0  0  0  0  0  0
  -26.0963  -31.1190   26.8298 C   0  0  0  0  0  0  0  0  0  0  0  0
  -20.2819  -29.4011   17.4406 C   0  0  0  0  0  0  0  0  0  0  0  0
  -23.4932  -27.5702   22.8032 C   0  0  0  0  0  0  0  0  0  0  0  0
  -25.9856  -29.0798   23.3072 C   0  0  0  0  0  0  0  0  0  0  0  0
  -20.8105  -30.4129   18.4541 C   0  0  0  0  0  0  0  0  0  0  0  0
  -27.3825  -15.4457   24.0305 C   0  0  0  0  0  0  0  0  0  0  0  0
  -22.3348  -30.4571   18.4191 C   0  0  0  0  0  0  0  0  0  0  0  0
  -27.0229  -14.2009   23.2202 C   0  0  0  0  0  0  0  0  0  0  0  0
  -26.1663  -16.3402   24.2490 C   0  0  0  0  0  0  0  0  0  0  0  0
  -25.1114  -15.4973   22.1758 C   0  0  0  0  0  0  0  0  0  0  0  0
  -22.9350  -29.0973   18.7965 C   0  0  1  0  0  0  0  0  0  0  0  0
  -23.5916  -29.0694   22.5384 C   0  0  1  0  0  0  0  0  0  0  0  0
  -26.3184  -14.5814   21.9059 C   0  0  2  0  0  0  0  0  0  0  0  0
  -30.2377  -16.0702   17.0502 C   0  0  0  0  0  0  0  0  0  0  0  0
  -32.9676  -16.5975   18.8555 C   0  0  0  0  0  0  0  0  0  0  0  0
  -31.4997  -20.0530   22.3327 C   0  0  0  0  0  0  0  0  0  0  0  0
  -23.1010  -18.2125   21.5348 C   0  0  0  0  0  0  0  0  0  0  0  0
  -26.3870  -32.5620   28.8622 C   0  0  0  0  0  0  0  0  0  0  0  0
  -33.4198  -20.9242   18.8405 C   0  0  0  0  0  0  0  0  0  0  0  0
  -26.1764  -32.8899   22.2502 C   0  0  0  0  0  0  0  0  0  0  0  0
  -27.1654  -33.6883   24.4072 C   0  0  0  0  0  0  0  0  0  0  0  0
  -24.7300  -33.9967   23.9641 C   0  0  0  0  0  0  0  0  0  0  0  0
  -25.0847  -28.9949   28.6254 C   0  0  0  0  0  0  0  0  0  0  0  0
  -32.3431  -17.7845   18.1280 C   0  0  0  0  0  0  0  0  0  0  0  0
  -30.2522  -22.4079   20.5599 C   0  0  0  0  0  0  0  0  0  0  0  0
  -30.0633  -23.6159   21.4835 C   0  0  0  0  0  0  0  0  0  0  0  0
  -31.7175  -22.2613   20.1324 C   0  0  0  0  0  0  0  0  0  0  0  0
  -25.0506  -19.5897   20.7242 C   0  0  0  0  0  0  0  0  0  0  0  0
  -32.2148  -19.4802   21.1567 C   0  0  0  0  0  0  0  0  0  0  0  0
  -26.5620  -19.6637   20.5088 C   0  0  0  0  0  0  0  0  0  0  0  0
  -28.6203  -23.7649   21.9499 C   0  0  0  0  0  0  0  0  0  1  0  0
  -24.6091  -18.2444   21.3107 C   0  0  1  0  0  0  0  0  0  0  0  0
  -25.6158  -31.6816   24.4619 C   0  0  1  0  0  0  0  0  0  0  0  0
  -25.6196  -31.4045   28.2425 C   0  0  2  0  0  0  0  0  0  0  0  0
  -31.9485  -21.0451   19.2257 C   0  0  2  0  0  0  0  0  0  0  0  0
  -25.9228  -33.0366   23.7638 C   0  0  0  0  0  0  0  0  0  0  0  0
  -25.0524  -12.4832   21.6267 N   0  0  0  0  0  0  0  0  0  0  0  0
  -29.2669  -19.2432   19.7667 N   0  0  0  0  0  0  0  0  0  0  0  0
  -25.9295  -13.3551   21.1008 N   0  0  0  0  0  0  0  0  0  0  0  0
  -24.6557  -29.7115   23.3126 N   0  0  0  0  0  0  0  0  0  0  0  0
  -25.5121  -16.6607   22.9792 N   0  0  0  0  0  0  0  0  0  0  0  0
  -27.2589  -13.7740   19.1856 N   0  0  0  0  0  0  0  0  0  0  0  0
  -25.1822   -9.8908   18.1835 N   0  0  0  0  0  0  0  0  0  0  0  0
  -26.9696  -18.6320   19.6119 N   0  0  0  0  0  0  0  0  0  0  0  0
  -22.8843  -28.9028   20.2297 N   0  0  0  0  0  0  0  0  0  0  0  0
  -25.3448  -31.7937   25.8911 N   0  0  0  0  0  0  0  0  0  0  0  0
  -31.5430  -19.8336   19.9075 N   0  0  3  0  0  0  0  0  0  0  0  0
  -25.8046  -30.2029   29.1044 N   0  3  0  0  0  0  0  0  0  0  0  0
  -26.6774  -11.4535   17.4210 O   0  0  0  0  0  0  0  0  0  0  0  0
  -24.8468  -30.0275   20.7830 O   0  0  0  0  0  0  0  0  0  0  0  0
  -25.6009  -18.9544   23.3415 O   0  0  0  0  0  0  0  0  0  0  0  0
  -23.3210  -31.5373   23.8793 O   0  0  0  0  0  0  0  0  0  0  0  0
  -27.0432  -30.3750   26.5839 O   0  0  0  0  0  0  0  0  0  0  0  0
  -21.5633   -7.1604   21.4212 O   0  0  0  0  0  0  0  0  0  0  0  0
  -28.4960  -24.9124   22.7890 O   0  0  0  0  0  0  0  0  0  1  0  0
  -21.7371   -4.5977   26.3004 F   0  0  0  0  0  0  0  0  0  0  0  0
  -22.2455   -4.4870   21.5957 F   0  0  0  0  0  0  0  0  0  0  0  0
  1  2  1  0  0  0  0
  1  5  2  0  0  0  0
  2  6  2  0  0  0  0
  3  8  2  0  0  0  0
  3 16  1  0  0  0  0
  4  9  1  0  0  0  0
  4 16  2  0  0  0  0
  5 18  1  0  0  0  0
  6 20  1  0  0  0  0
  7 10  2  0  0  0  0
  7 19  1  0  0  0  0
  8 24  1  0  0  0  0
  9 24  2  0  0  0  0
 10 25  1  0  0  0  0
 11 12  2  0  0  0  0
 11 26  1  0  0  0  0
 12 27  1  0  0  0  0
 13 21  1  0  0  0  0
 13 25  2  0  0  0  0
 14 22  2  0  0  0  0
 14 30  1  0  0  0  0
 15 27  2  0  0  0  0
 15 28  1  0  0  0  0
 16 29  1  0  0  0  0
 17 29  1  0  0  0  0
 17 32  2  0  0  0  0
 17 33  1  0  0  0  0
 18 20  2  0  0  0  0
 18 38  1  0  0  0  0
 19 21  2  0  0  0  0
 19 39  1  0  0  0  0
 20 47  1  0  0  0  0
 21 40  1  0  0  0  0
 22 23  1  0  0  0  0
 22 50  1  0  0  0  0
 23 31  2  0  0  0  0
 23 60  1  0  0  0  0
 24 90  1  0  0  0  0
 25 91  1  0  0  0  0
 26 28  2  0  0  0  0
 26 90  1  0  0  0  0
 27 92  1  0  0  0  0
 28 93  1  0  0  0  0
 29 73  2  0  0  0  0
 30 74  2  0  0  0  0
 30 80  1  0  0  0  0
 31 74  1  0  0  0  0
 31 83  1  0  0  0  0
 32 75  1  0  0  0  0
 32 78  1  0  0  0  0
 33 79  1  0  0  0  0
 33 85  2  0  0  0  0
 34 48  1  0  0  0  0
 34 81  1  0  0  0  0
 34 86  2  0  0  0  0
 35 68  1  0  0  0  0
 35 77  1  0  0  0  0
 35 87  2  0  0  0  0
 36 69  1  0  0  0  0
 36 76  1  0  0  0  0
 36 88  2  0  0  0  0
 37 70  1  0  0  0  0
 37 82  1  0  0  0  0
 37 89  2  0  0  0  0
 38 41  1  0  0  0  0
 39 48  1  0  0  0  0
 40 76  1  0  0  0  0
 41 43  1  0  0  0  0
 42 44  1  0  0  0  0
 42 45  1  0  0  0  0
 43 47  1  0  0  0  0
 44 49  1  0  0  0  0
 45 77  1  0  0  0  0
 46 49  1  0  0  0  0
 46 77  1  0  0  0  0
 47 81  1  0  0  0  0
 48 76  1  0  0  0  0
 49 75  1  0  0  0  0
 51 60  1  0  0  0  0
 52 65  1  0  0  0  0
 53 68  1  0  0  0  0
 54 70  1  0  0  0  0
 55 71  1  0  0  0  0
 56 72  1  0  0  0  0
 57 72  1  0  0  0  0
 58 72  1  0  0  0  0
 59 84  1  0  0  0  0
 61 62  1  0  0  0  0
 61 63  1  0  0  0  0
 62 67  1  0  0  0  0
 63 71  1  0  0  0  0
 64 66  1  0  0  0  0
 64 68  1  0  0  0  0
 65 83  1  0  0  0  0
 66 80  1  0  0  0  0
 67 91  1  0  0  0  0
 69 72  1  0  0  0  0
 69 82  1  0  0  0  0
 70 84  1  0  0  0  0
 71 83  1  0  0  0  0
 73 75  1  0  0  0  0
M  CHG  1  84   1
M  ISO  4  35 100  67 101  68 100  91 101
M  END
> <Batch ID>
0020

> <Smiles>
CCc1c(C)cc(NCC[100CH:0](C)[100C:0](=O)N2CCCC(n3nc(-c4ccc(Oc5ccc(F)cc5F)cc4)c(C(N)=O)c3N)C2)nc1N(CC)C(C)CCC[101CH2:1][101O:1]c1ccc2c(c1)CN(C(=O)C(NC(=O)C(C)NC)C(C)(C)C)C(C(=O)NC1CCCc3ccccc31)C2

> <Shape>
0.247

> <Color>
0.083

> <Negative vol penalty>
0.000

$$$$

  -OEChem-04052316093D

 85 93  0     1  0  0  0  0  0999 V2000
  -19.0132  -24.3298   24.3941 C   0  0  0  0  0  0  0  0  0  0  0  0
  -20.3752  -24.4381   24.1323 C   0  0  0  0  0  0  0  0  0  0  0  0
  -22.8785  -10.0643   21.3849 C   0  0  0  0  0  0  0  0  0  0  0  0
  -23.6265  -11.0175   23.4751 C   0  0  0  0  0  0  0  0  0  0  0  0
  -18.1611  -25.3932   24.0989 C   0  0  0  0  0  0  0  0  0  0  0  0
  -20.8858  -25.6095   23.5741 C   0  0  0  0  0  0  0  0  0  0  0  0
  -25.1333  -27.1580   25.8559 C   0  0  0  0  0  0  0  0  0  0  0  0
  -22.0424   -9.1920   22.0819 C   0  0  0  0  0  0  0  0  0  0  0  0
  -22.7904  -10.1453   24.1721 C   0  0  0  0  0  0  0  0  0  0  0  0
  -26.3132  -26.4938   25.5234 C   0  0  0  0  0  0  0  0  0  0  0  0
  -19.0330   -9.3208   23.6180 C   0  0  0  0  0  0  0  0  0  0  0  0
  -17.7288   -9.1604   23.1502 C   0  0  0  0  0  0  0  0  0  0  0  0
  -26.8987  -28.2947   24.0290 C   0  0  0  0  0  0  0  0  0  0  0  0
  -18.1347   -6.8008   22.8273 C   0  0  0  0  0  0  0  0  0  0  0  0
  -23.6706  -10.9770   22.0815 C   0  0  0  0  0  0  0  0  0  0  0  0
  -24.2167  -13.1651   20.8891 C   0  0  0  0  0  0  0  0  0  0  0  0
  -18.6629  -26.5818   23.5457 C   0  0  0  0  0  0  0  0  0  0  0  0
  -24.8215  -28.3924   25.2682 C   0  0  0  0  0  0  0  0  0  0  0  0
  -20.0395  -26.6892   23.2700 C   0  0  0  0  0  0  0  0  0  0  0  0
  -25.7155  -28.9737   24.3576 C   0  0  0  0  0  0  0  0  0  0  0  0
  -30.9896  -16.6238   20.9651 C   0  0  0  0  0  0  0  0  0  0  0  0
  -21.9984   -9.2326   23.4754 C   0  0  0  0  0  0  0  0  0  0  0  0
  -27.1947  -27.0608   24.6077 C   0  0  0  0  0  0  0  0  0  0  0  0
  -19.8881   -8.2211   23.6905 C   0  0  0  0  0  0  0  0  0  0  0  0
  -17.2796   -7.9004   22.7549 C   0  0  0  0  0  0  0  0  0  0  0  0
  -19.4390   -6.9611   23.2951 C   0  0  0  0  0  0  0  0  0  0  0  0
  -32.1694  -16.6972   21.7459 C   0  0  0  0  0  0  0  0  0  0  0  0
  -24.5349  -11.8779   21.3621 C   0  0  0  0  0  0  0  0  0  0  0  0
  -30.5792  -17.9151   20.7174 C   0  0  0  0  0  0  0  0  0  0  0  0
  -32.4440  -18.0312   21.9518 C   0  0  0  0  0  0  0  0  0  0  0  0
  -25.3677  -13.6010   20.2794 C   0  0  0  0  0  0  0  0  0  0  0  0
  -22.9905  -13.9009   20.9918 C   0  0  0  0  0  0  0  0  0  0  0  0
  -22.4772  -29.4626   23.4073 C   0  0  0  0  0  0  0  0  0  0  0  0
  -23.9304  -32.3231   23.8849 C   0  0  0  0  0  0  0  0  0  0  0  0
  -26.7798  -34.0303   24.6679 C   0  0  0  0  0  0  0  0  0  0  0  0
  -30.8998  -14.2263   20.1967 C   0  0  0  0  0  0  0  0  0  0  0  0
  -17.6960  -27.6864   23.1998 C   0  0  0  0  0  0  0  0  0  0  0  0
  -23.5575  -29.1088   25.6576 C   0  0  0  0  0  0  0  0  0  0  0  0
  -25.4370  -30.3066   23.7139 C   0  0  0  0  0  0  0  0  0  0  0  0
  -18.3718  -29.0335   22.9569 C   0  0  0  0  0  0  0  0  0  0  0  0
  -29.6036  -11.1068   19.0718 C   0  0  0  0  0  0  0  0  0  0  0  0
  -19.5836  -28.8662   22.0458 C   0  0  0  0  0  0  0  0  0  0  0  0
  -28.1432  -11.1352   19.5285 C   0  0  0  0  0  0  0  0  0  0  0  0
  -30.5290  -11.7716   20.0894 C   0  0  0  0  0  0  0  0  0  0  0  0
  -28.6811  -13.1599   20.9421 C   0  0  0  0  0  0  0  0  0  0  0  0
  -20.6348  -27.9529   22.6880 C   0  0  1  0  0  0  0  0  0  0  0  0
  -23.0954  -30.1172   24.6103 C   0  0  1  0  0  0  0  0  0  0  0  0
  -27.7026  -12.5595   19.9195 C   0  0  2  0  0  0  0  0  0  0  0  0
  -29.4145  -18.4190   19.9572 C   0  0  0  0  0  0  0  0  0  0  0  0
  -33.5492  -18.6766   22.6933 C   0  0  0  0  0  0  0  0  0  0  0  0
  -27.6671  -36.3616   24.9419 C   0  0  0  0  0  0  0  0  0  0  0  0
  -24.0173  -32.6440   20.8518 C   0  0  0  0  0  0  0  0  0  0  0  0
  -25.7121  -34.4604   21.1623 C   0  0  0  0  0  0  0  0  0  0  0  0
  -23.4173  -34.7239   22.1041 C   0  0  0  0  0  0  0  0  0  0  0  0
  -27.4522  -33.5644   27.5121 C   0  0  0  0  0  0  0  0  0  0  0  0
  -30.3766  -22.3819   22.3159 C   0  0  0  0  0  0  0  0  0  0  0  0
  -29.3449  -22.9185   23.3103 C   0  0  0  0  0  0  0  0  0  0  0  0
  -30.3734  -20.8503   22.2853 C   0  0  0  0  0  0  0  0  0  0  0  0
  -29.3232  -24.4455   23.3178 C   0  0  0  0  0  0  0  0  0  0  0  0
  -31.3923  -20.2680   21.2992 C   0  0  0  0  0  0  0  0  0  0  0  0
  -28.3290  -24.9884   24.3345 C   0  0  0  0  0  0  0  0  0  1  0  0
  -25.0220  -33.0975   23.1865 C   0  0  1  0  0  0  0  0  0  0  0  0
  -27.0382  -35.1664   25.6410 C   0  0  2  0  0  0  0  0  0  0  0  0
  -24.5468  -33.7054   21.8367 C   0  0  0  0  0  0  0  0  0  0  0  0
  -25.7896  -11.5194   21.0771 N   0  0  0  0  0  0  0  0  0  0  0  0
  -31.4707  -18.7623   21.3224 N   0  0  0  0  0  0  0  0  0  0  0  0
  -26.2700  -12.5877   20.4185 N   0  0  0  0  0  0  0  0  0  0  0  0
  -24.1850  -30.9649   24.1223 N   0  0  0  0  0  0  0  0  0  0  0  0
  -30.0517  -13.1188   20.4085 N   0  0  0  0  0  0  0  0  0  0  0  0
  -25.6858  -14.7483   19.6431 N   0  0  0  0  0  0  0  0  0  0  0  0
  -21.9067  -13.3047   21.6508 N   0  0  0  0  0  0  0  0  0  0  0  0
  -30.3261  -15.4593   20.5053 N   0  0  0  0  0  0  0  0  0  0  0  0
  -21.3809  -28.6730   23.6976 N   0  0  0  0  0  0  0  0  0  0  0  0
  -25.5034  -34.0826   24.1490 N   0  0  0  0  0  0  0  0  0  0  0  0
  -27.9566  -34.7199   26.7264 N   0  3  0  0  0  0  0  0  0  0  0  0
  -22.8547  -15.0465   20.4991 O   0  0  0  0  0  0  0  0  0  0  0  0
  -22.9583  -29.6604   22.2978 O   0  0  0  0  0  0  0  0  0  0  0  0
  -22.8930  -32.9036   24.2142 O   0  0  0  0  0  0  0  0  0  0  0  0
  -27.6269  -33.1834   24.3925 O   0  0  0  0  0  0  0  0  0  0  0  0
  -32.0409  -14.0932   19.7470 O   0  0  0  0  0  0  0  0  0  0  0  0
  -21.1824   -8.3818   24.1559 O   0  0  0  0  0  0  0  0  0  0  0  0
  -28.3467  -26.4143   24.2809 O   0  0  0  0  0  0  0  0  0  1  0  0
  -16.0267   -7.7463   22.3071 F   0  0  0  0  0  0  0  0  0  0  0  0
  -20.2555   -5.9007   23.3636 F   0  0  0  0  0  0  0  0  0  0  0  0
  -33.0654  -15.3667   22.3127 Cl  0  0  0  0  0  0  0  0  0  0  0  0
  1  2  1  0  0  0  0
  1  5  2  0  0  0  0
  2  6  2  0  0  0  0
  3  8  2  0  0  0  0
  3 15  1  0  0  0  0
  4  9  1  0  0  0  0
  4 15  2  0  0  0  0
  5 17  1  0  0  0  0
  6 19  1  0  0  0  0
  7 10  2  0  0  0  0
  7 18  1  0  0  0  0
  8 22  1  0  0  0  0
  9 22  2  0  0  0  0
 10 23  1  0  0  0  0
 11 12  2  0  0  0  0
 11 24  1  0  0  0  0
 12 25  1  0  0  0  0
 13 20  1  0  0  0  0
 13 23  2  0  0  0  0
 14 25  2  0  0  0  0
 14 26  1  0  0  0  0
 15 28  1  0  0  0  0
 16 28  1  0  0  0  0
 16 31  2  0  0  0  0
 16 32  1  0  0  0  0
 17 19  2  0  0  0  0
 17 37  1  0  0  0  0
 18 20  2  0  0  0  0
 18 38  1  0  0  0  0
 19 46  1  0  0  0  0
 20 39  1  0  0  0  0
 21 27  1  0  0  0  0
 21 29  2  0  0  0  0
 21 72  1  0  0  0  0
 22 81  1  0  0  0  0
 23 82  1  0  0  0  0
 24 26  2  0  0  0  0
 24 81  1  0  0  0  0
 25 83  1  0  0  0  0
 26 84  1  0  0  0  0
 27 30  2  0  0  0  0
 27 85  1  0  0  0  0
 28 65  2  0  0  0  0
 29 49  1  0  0  0  0
 29 66  1  0  0  0  0
 30 50  1  0  0  0  0
 30 66  1  0  0  0  0
 31 67  1  0  0  0  0
 31 70  1  0  0  0  0
 32 71  1  0  0  0  0
 32 76  2  0  0  0  0
 33 47  1  0  0  0  0
 33 73  1  0  0  0  0
 33 77  2  0  0  0  0
 34 62  1  0  0  0  0
 34 68  1  0  0  0  0
 34 78  2  0  0  0  0
 35 63  1  0  0  0  0
 35 74  1  0  0  0  0
 35 79  2  0  0  0  0
 36 69  1  0  0  0  0
 36 72  1  0  0  0  0
 36 80  2  0  0  0  0
 37 40  1  0  0  0  0
 38 47  1  0  0  0  0
 39 68  1  0  0  0  0
 40 42  1  0  0  0  0
 41 43  1  0  0  0  0
 41 44  1  0  0  0  0
 42 46  1  0  0  0  0
 43 48  1  0  0  0  0
 44 69  1  0  0  0  0
 45 48  1  0  0  0  0
 45 69  1  0  0  0  0
 46 73  1  0  0  0  0
 47 68  1  0  0  0  0
 48 67  1  0  0  0  0
 51 63  1  0  0  0  0
 52 64  1  0  0  0  0
 53 64  1  0  0  0  0
 54 64  1  0  0  0  0
 55 75  1  0  0  0  0
 56 57  1  0  0  0  0
 56 58  1  0  0  0  0
 57 59  1  0  0  0  0
 58 60  1  0  0  0  0
 59 61  1  0  0  0  0
 60 66  1  0  0  0  0
 61 82  1  0  0  0  0
 62 64  1  0  0  0  0
 62 74  1  0  0  0  0
 63 75  1  0  0  0  0
 65 67  1  0  0  0  0
M  CHG  1  75   1
M  ISO  4  36 100  61 101  72 100  82 101
M  END
> <Batch ID>
0020

> <Smiles>
CNC(C)C(=O)NC(C(=O)N1Cc2cc([101O:1][101CH2:1]CCCCCn3c(C)c(Cl)c([100NH:0][100C:0](=O)N4CCCC(n5nc(-c6ccc(Oc7ccc(F)cc7F)cc6)c(C(N)=O)c5N)C4)c3C)ccc2CC1C(=O)NC1CCCc2ccccc21)C(C)(C)C

> <Shape>
0.265

> <Color>
0.156

> <Negative vol penalty>
0.000

$$$$

  -OEChem-04052316093D

 86 94  0     1  0  0  0  0  0999 V2000
  -17.0312  -28.8395   22.3901 C   0  0  0  0  0  0  0  0  0  0  0  0
  -18.1702  -28.7293   21.5990 C   0  0  0  0  0  0  0  0  0  0  0  0
  -26.6248  -12.6024   21.8025 C   0  0  0  0  0  0  0  0  0  0  0  0
  -26.0167  -14.0420   19.9600 C   0  0  0  0  0  0  0  0  0  0  0  0
  -17.1550  -29.0304   23.7656 C   0  0  0  0  0  0  0  0  0  0  0  0
  -19.4339  -28.8111   22.1829 C   0  0  0  0  0  0  0  0  0  0  0  0
  -24.4760  -25.7763   20.4879 C   0  0  0  0  0  0  0  0  0  0  0  0
  -25.3415  -12.0560   21.7993 C   0  0  0  0  0  0  0  0  0  0  0  0
  -24.7333  -13.4956   19.9567 C   0  0  0  0  0  0  0  0  0  0  0  0
  -25.5716  -26.1403   19.7064 C   0  0  0  0  0  0  0  0  0  0  0  0
  -23.6098   -9.7753   20.0015 C   0  0  0  0  0  0  0  0  0  0  0  0
  -23.4954   -8.3886   20.0990 C   0  0  0  0  0  0  0  0  0  0  0  0
  -26.8017  -26.7029   21.7037 C   0  0  0  0  0  0  0  0  0  0  0  0
  -28.6224  -23.4039   19.3744 C   0  0  0  0  0  0  0  0  0  0  0  0
  -22.2205   -8.6369   22.1361 C   0  0  0  0  0  0  0  0  0  0  0  0
  -26.9624  -13.5955   20.8829 C   0  0  0  0  0  0  0  0  0  0  0  0
  -29.4070  -13.7075   20.1624 C   0  0  0  0  0  0  0  0  0  0  0  0
  -18.4208  -29.1049   24.3681 C   0  0  0  0  0  0  0  0  0  0  0  0
  -24.5312  -25.8833   21.8850 C   0  0  0  0  0  0  0  0  0  0  0  0
  -19.5748  -29.0045   23.5676 C   0  0  0  0  0  0  0  0  0  0  0  0
  -25.7063  -26.3372   22.5008 C   0  0  0  0  0  0  0  0  0  0  0  0
  -29.8222  -24.0016   18.9886 C   0  0  0  0  0  0  0  0  0  0  0  0
  -28.6385  -22.2187   20.1098 C   0  0  0  0  0  0  0  0  0  0  0  0
  -31.0380  -23.4141   19.3382 C   0  0  0  0  0  0  0  0  0  0  0  0
  -31.0541  -22.2289   20.0735 C   0  0  0  0  0  0  0  0  0  0  0  0
  -29.8543  -21.6312   20.4593 C   0  0  0  0  0  0  0  0  0  0  0  0
  -24.3957  -12.5026   20.8764 C   0  0  0  0  0  0  0  0  0  0  0  0
  -26.7337  -26.6065   20.3141 C   0  0  0  0  0  0  0  0  0  0  0  0
  -23.0296  -10.5929   20.9714 C   0  0  0  0  0  0  0  0  0  0  0  0
  -22.8007   -7.8194   21.1662 C   0  0  0  0  0  0  0  0  0  0  0  0
  -22.3350  -10.0237   22.0387 C   0  0  0  0  0  0  0  0  0  0  0  0
  -28.2878  -14.1607   20.8862 C   0  0  0  0  0  0  0  0  0  0  0  0
  -30.4137  -14.5759   20.5075 C   0  0  0  0  0  0  0  0  0  0  0  0
  -29.5260  -12.6006   19.2589 C   0  0  0  0  0  0  0  0  0  0  0  0
  -22.9312  -27.5442   24.0725 C   0  0  0  0  0  0  0  0  0  0  0  0
  -24.6844  -25.7647   26.1418 C   0  0  0  0  0  0  0  0  0  0  0  0
  -27.5005  -23.9240   26.7146 C   0  0  0  0  0  0  0  0  0  0  0  0
  -30.4424  -20.2221   22.4631 C   0  0  0  0  0  0  0  0  0  0  0  0
  -18.5045  -29.3594   25.8523 C   0  0  0  0  0  0  0  0  0  0  0  0
  -23.3501  -25.4613   22.7152 C   0  0  0  0  0  0  0  0  0  0  0  0
  -25.8237  -26.4515   23.9980 C   0  0  0  0  0  0  0  0  0  0  0  0
  -19.8791  -29.0601   26.4450 C   0  0  0  0  0  0  0  0  0  0  0  0
  -31.8602  -17.3950   24.0984 C   0  0  0  0  0  0  0  0  0  0  0  0
  -20.9779  -29.6659   25.5775 C   0  0  0  0  0  0  0  0  0  0  0  0
  -31.2115  -16.2035   23.3903 C   0  0  0  0  0  0  0  0  0  0  0  0
  -30.8851  -18.5603   24.2567 C   0  0  0  0  0  0  0  0  0  0  0  0
  -29.5816  -17.8033   22.3081 C   0  0  0  0  0  0  0  0  0  0  0  0
  -20.9629  -29.0633   24.1675 C   0  0  1  0  0  0  0  0  0  0  0  0
  -23.3365  -26.0977   24.1017 C   0  0  1  0  0  0  0  0  0  0  0  0
  -30.5443  -16.6290   22.0676 C   0  0  2  0  0  0  0  0  0  0  0  0
  -32.3230  -24.0578   18.9227 C   0  0  0  0  0  0  0  0  0  0  0  0
  -32.3618  -21.6024   20.4459 C   0  0  0  0  0  0  0  0  0  0  0  0
  -29.0918  -22.4249   27.9465 C   0  0  0  0  0  0  0  0  0  0  0  0
  -26.1327  -22.4519   19.9988 C   0  0  0  0  0  0  0  0  0  0  0  0
  -27.2166  -21.4973   22.0603 C   0  0  0  0  0  0  0  0  0  0  0  0
  -27.0879  -20.1566   19.9705 C   0  0  0  0  0  0  0  0  0  0  0  0
  -25.5662  -28.3781   27.4466 C   0  0  0  0  0  0  0  0  0  0  0  0
  -27.4147  -27.1142   28.5664 C   0  0  0  0  0  0  0  0  0  0  0  0
  -25.0374  -26.5362   29.0535 C   0  0  0  0  0  0  0  0  0  0  0  0
  -26.1859  -21.4835   25.6781 C   0  0  0  0  0  0  0  0  0  0  0  0
  -29.7767  -25.2833   18.1956 C   0  0  0  0  0  0  0  0  0  0  0  0
  -30.1032  -26.5300   19.0206 C   0  0  0  0  0  0  0  0  0  0  0  0
  -29.0974  -26.7976   20.1342 C   0  0  0  0  0  0  0  0  0  1  0  0
  -26.0287  -25.9187   26.8112 C   0  0  1  0  0  0  0  0  0  0  0  0
  -27.7001  -22.5590   27.3481 C   0  0  2  0  0  0  0  0  0  0  0  0
  -27.3365  -21.6030   20.5094 C   0  0  0  0  0  0  0  0  0  0  0  0
  -26.0092  -26.9866   27.9411 C   0  0  0  0  0  0  0  0  0  0  0  0
  -28.5577  -15.2335   21.6347 N   0  0  0  0  0  0  0  0  0  0  0  0
  -29.8580  -15.4617   21.3831 N   0  0  0  0  0  0  0  0  0  0  0  0
  -24.6397  -26.0327   24.7663 N   0  0  0  0  0  0  0  0  0  0  0  0
  -30.2955  -18.9109   22.9628 N   0  0  0  0  0  0  0  0  0  0  0  0
  -31.7111  -14.6605   20.1444 N   0  0  0  0  0  0  0  0  0  0  0  0
  -28.3937  -11.8111   19.0168 N   0  0  0  0  0  0  0  0  0  0  0  0
  -29.8681  -20.4291   21.2093 N   0  0  0  0  0  0  0  0  0  0  0  0
  -21.5683  -27.7488   24.1732 N   0  0  0  0  0  0  0  0  0  0  0  0
  -26.4183  -24.5851   27.2561 N   0  0  0  0  0  0  0  0  0  0  0  0
  -27.5202  -21.4847   26.3311 N   0  3  0  0  0  0  0  0  0  0  0  0
  -30.6088  -12.3102   18.6960 O   0  0  0  0  0  0  0  0  0  0  0  0
  -23.7914  -28.4107   23.9678 O   0  0  0  0  0  0  0  0  0  0  0  0
  -23.7113  -25.4125   26.8131 O   0  0  0  0  0  0  0  0  0  0  0  0
  -28.2336  -24.3618   25.8306 O   0  0  0  0  0  0  0  0  0  0  0  0
  -31.0577  -21.0897   23.0882 O   0  0  0  0  0  0  0  0  0  0  0  0
  -23.1434  -11.9695   20.8728 O   0  0  0  0  0  0  0  0  0  0  0  0
  -27.8044  -26.9631   19.5536 O   0  0  0  0  0  0  0  0  0  1  0  0
  -22.6897   -6.4878   21.2589 F   0  0  0  0  0  0  0  0  0  0  0  0
  -21.7744  -10.8040   22.9729 F   0  0  0  0  0  0  0  0  0  0  0  0
  1  2  1  0  0  0  0
  1  5  2  0  0  0  0
  2  6  2  0  0  0  0
  3  8  2  0  0  0  0
  3 16  1  0  0  0  0
  4  9  1  0  0  0  0
  4 16  2  0  0  0  0
  5 18  1  0  0  0  0
  6 20  1  0  0  0  0
  7 10  2  0  0  0  0
  7 19  1  0  0  0  0
  8 27  1  0  0  0  0
  9 27  2  0  0  0  0
 10 28  1  0  0  0  0
 11 12  2  0  0  0  0
 11 29  1  0  0  0  0
 12 30  1  0  0  0  0
 13 21  1  0  0  0  0
 13 28  2  0  0  0  0
 14 22  1  0  0  0  0
 14 23  2  0  0  0  0
 15 30  2  0  0  0  0
 15 31  1  0  0  0  0
 16 32  1  0  0  0  0
 17 32  1  0  0  0  0
 17 33  2  0  0  0  0
 17 34  1  0  0  0  0
 18 20  2  0  0  0  0
 18 39  1  0  0  0  0
 19 21  2  0  0  0  0
 19 40  1  0  0  0  0
 20 48  1  0  0  0  0
 21 41  1  0  0  0  0
 22 24  2  0  0  0  0
 22 61  1  0  0  0  0
 23 26  1  0  0  0  0
 23 66  1  0  0  0  0
 24 25  1  0  0  0  0
 24 51  1  0  0  0  0
 25 26  2  0  0  0  0
 25 52  1  0  0  0  0
 26 74  1  0  0  0  0
 27 83  1  0  0  0  0
 28 84  1  0  0  0  0
 29 31  2  0  0  0  0
 29 83  1  0  0  0  0
 30 85  1  0  0  0  0
 31 86  1  0  0  0  0
 32 68  2  0  0  0  0
 33 69  1  0  0  0  0
 33 72  1  0  0  0  0
 34 73  1  0  0  0  0
 34 78  2  0  0  0  0
 35 49  1  0  0  0  0
 35 75  1  0  0  0  0
 35 79  2  0  0  0  0
 36 64  1  0  0  0  0
 36 70  1  0  0  0  0
 36 80  2  0  0  0  0
 37 65  1  0  0  0  0
 37 76  1  0  0  0  0
 37 81  2  0  0  0  0
 38 71  1  0  0  0  0
 38 74  1  0  0  0  0
 38 82  2  0  0  0  0
 39 42  1  0  0  0  0
 40 49  1  0  0  0  0
 41 70  1  0  0  0  0
 42 44  1  0  0  0  0
 43 45  1  0  0  0  0
 43 46  1  0  0  0  0
 44 48  1  0  0  0  0
 45 50  1  0  0  0  0
 46 71  1  0  0  0  0
 47 50  1  0  0  0  0
 47 71  1  0  0  0  0
 48 75  1  0  0  0  0
 49 70  1  0  0  0  0
 50 69  1  0  0  0  0
 53 65  1  0  0  0  0
 54 66  1  0  0  0  0
 55 66  1  0  0  0  0
 56 66  1  0  0  0  0
 57 67  1  0  0  0  0
 58 67  1  0  0  0  0
 59 67  1  0  0  0  0
 60 77  1  0  0  0  0
 61 62  1  0  0  0  0
 62 63  1  0  0  0  0
 63 84  1  0  0  0  0
 64 67  1  0  0  0  0
 64 76  1  0  0  0  0
 65 77  1  0  0  0  0
 68 69  1  0  0  0  0
M  CHG  1  77   1
M  ISO  4  38 100  63 101  74 100  84 101
M  END
> <Batch ID>
0020

> <Smiles>
CNC(C)C(=O)NC(C(=O)N1Cc2cc([101O:1][101CH2:1]CCc3cc(C(C)(C)C)c([100NH:0][100C:0](=O)N4CCCC(n5nc(-c6ccc(Oc7ccc(F)cc7F)cc6)c(C(N)=O)c5N)C4)c(C)c3C)ccc2CC1C(=O)NC1CCCc2ccccc21)C(C)(C)C

> <Shape>
0.258

> <Color>
0.082

> <Negative vol penalty>
0.000

$$$$

  -OEChem-04052316093D

 80 88  0     1  0  0  0  0  0999 V2000
  -31.5915  -26.9214   16.8446 C   0  0  0  0  0  0  0  0  0  0  0  0
  -31.0015  -26.1770   17.8610 C   0  0  0  0  0  0  0  0  0  0  0  0
  -24.8772  -14.0166   19.7622 C   0  0  0  0  0  0  0  0  0  0  0  0
  -24.4872  -15.1078   21.8822 C   0  0  0  0  0  0  0  0  0  0  0  0
  -31.3481  -28.2912   16.7540 C   0  0  0  0  0  0  0  0  0  0  0  0
  -30.1685  -26.8023   18.7882 C   0  0  0  0  0  0  0  0  0  0  0  0
  -25.9302  -24.1759   19.6734 C   0  0  0  0  0  0  0  0  0  0  0  0
  -23.9726  -13.0140   20.1118 C   0  0  0  0  0  0  0  0  0  0  0  0
  -23.5825  -14.1053   22.2318 C   0  0  0  0  0  0  0  0  0  0  0  0
  -26.0302  -23.0717   20.5187 C   0  0  0  0  0  0  0  0  0  0  0  0
  -23.9525  -10.2411   22.0444 C   0  0  0  0  0  0  0  0  0  0  0  0
  -24.3240   -8.9194   21.7982 C   0  0  0  0  0  0  0  0  0  0  0  0
  -25.1518  -24.3917   22.3368 C   0  0  0  0  0  0  0  0  0  0  0  0
  -22.4093   -8.6510   20.3495 C   0  0  0  0  0  0  0  0  0  0  0  0
  -25.1345  -15.0634   20.6474 C   0  0  0  0  0  0  0  0  0  0  0  0
  -25.7864  -17.3034   19.6154 C   0  0  0  0  0  0  0  0  0  0  0  0
  -30.5041  -28.9319   17.6747 C   0  0  0  0  0  0  0  0  0  0  0  0
  -25.4497  -25.4013   20.1570 C   0  0  0  0  0  0  0  0  0  0  0  0
  -29.9147  -28.1822   18.7106 C   0  0  0  0  0  0  0  0  0  0  0  0
  -25.0443  -25.5092   21.4949 C   0  0  0  0  0  0  0  0  0  0  0  0
  -23.3252  -13.0584   21.3466 C   0  0  0  0  0  0  0  0  0  0  0  0
  -25.6437  -23.1803   21.8514 C   0  0  0  0  0  0  0  0  0  0  0  0
  -22.8093  -10.7678   21.4432 C   0  0  0  0  0  0  0  0  0  0  0  0
  -23.5525   -8.1243   20.9508 C   0  0  0  0  0  0  0  0  0  0  0  0
  -22.0377   -9.9728   20.5957 C   0  0  0  0  0  0  0  0  0  0  0  0
  -26.0693  -16.0990   20.2871 C   0  0  0  0  0  0  0  0  0  0  0  0
  -27.0023  -17.9344   19.5152 C   0  0  0  0  0  0  0  0  0  0  0  0
  -24.5364  -17.8068   19.1258 C   0  0  0  0  0  0  0  0  0  0  0  0
  -26.6594  -28.3258   20.4529 C   0  0  0  0  0  0  0  0  0  0  0  0
  -23.6351  -29.0625   21.3658 C   0  0  0  0  0  0  0  0  0  0  0  0
  -20.6612  -28.0038   22.6627 C   0  0  0  0  0  0  0  0  0  0  0  0
  -28.5607  -17.3489   23.6007 C   0  0  0  0  0  0  0  0  0  0  0  0
  -30.3085  -30.4233   17.5646 C   0  0  0  0  0  0  0  0  0  0  0  0
  -25.3228  -26.5756   19.2256 C   0  0  0  0  0  0  0  0  0  0  0  0
  -24.5027  -26.7968   22.0582 C   0  0  0  0  0  0  0  0  0  0  0  0
  -29.1155  -30.9418   18.3633 C   0  0  0  0  0  0  0  0  0  0  0  0
  -30.3811  -15.3298   21.5948 C   0  0  0  0  0  0  0  0  0  0  0  0
  -29.1144  -30.3472   19.7680 C   0  0  0  0  0  0  0  0  0  0  0  0
  -30.3133  -16.0759   20.2558 C   0  0  0  0  0  0  0  0  0  0  0  0
  -28.1243  -21.0593   23.8544 C   0  0  0  0  0  0  0  0  0  0  0  0
  -25.9817  -19.8706   24.4586 C   0  0  0  0  0  0  0  0  0  0  0  0
  -30.6256  -16.2780   22.7617 C   0  0  0  0  0  0  0  0  0  0  0  0
  -28.8911  -19.7784   24.1747 C   0  0  0  0  0  0  0  0  0  0  0  0
  -26.7911  -18.6113   24.7616 C   0  0  0  0  0  0  0  0  0  0  0  0
  -29.7251  -18.1912   21.5151 C   0  0  0  0  0  0  0  0  0  0  0  0
  -28.9854  -28.8199   19.7205 C   0  0  1  0  0  0  0  0  0  0  0  0
  -25.3028  -27.9162   19.9536 C   0  0  1  0  0  0  0  0  0  0  0  0
  -29.4061  -17.3296   20.2694 C   0  0  2  0  0  0  0  0  0  0  0  0
  -26.7910  -21.1754   24.6277 C   0  0  0  0  0  0  0  0  0  0  0  0
  -18.3913  -28.8431   23.3264 C   0  0  0  0  0  0  0  0  0  0  0  0
  -27.8488  -22.7464   26.2757 C   0  0  0  0  0  0  0  0  0  0  0  0
  -25.7322  -21.5363   26.8751 C   0  0  0  0  0  0  0  0  0  0  0  0
  -24.8301  -30.2904   23.8905 C   0  0  0  0  0  0  0  0  0  0  0  0
  -22.5450  -30.2408   24.9124 C   0  0  0  0  0  0  0  0  0  0  0  0
  -22.9666  -31.6098   22.8701 C   0  0  0  0  0  0  0  0  0  0  0  0
  -19.3098  -26.2416   20.7064 C   0  0  0  0  0  0  0  0  0  0  0  0
  -25.9777  -22.3507   24.0550 C   0  0  0  0  0  0  0  0  0  1  0  0
  -22.8916  -29.0898   22.6794 C   0  0  1  0  0  0  0  0  0  0  0  0
  -19.2289  -28.2311   22.2143 C   0  0  2  0  0  0  0  0  0  0  0  0
  -27.0514  -21.4592   26.1196 C   0  0  0  0  0  0  0  0  0  0  0  0
  -23.3203  -30.2838   23.5783 C   0  0  0  0  0  0  0  0  0  0  0  0
  -27.3633  -15.9703   20.5920 N   0  0  0  0  0  0  0  0  0  0  0  0
  -27.9044  -17.1019   20.1095 N   0  0  0  0  0  0  0  0  0  0  0  0
  -24.4038  -27.9183   21.1095 N   0  0  0  0  0  0  0  0  0  0  0  0
  -29.6669  -17.3785   22.7367 N   0  0  0  0  0  0  0  0  0  0  0  0
  -28.0473  -18.5881   24.0157 N   0  0  0  0  0  0  0  0  0  0  0  0
  -27.3770  -19.1146   18.9774 N   0  0  0  0  0  0  0  0  0  0  0  0
  -23.3844  -17.0307   19.3125 N   0  0  0  0  0  0  0  0  0  0  0  0
  -27.6144  -28.4364   19.4603 N   0  0  0  0  0  0  0  0  0  0  0  0
  -21.4716  -29.0732   22.3451 N   0  0  0  0  0  0  0  0  0  0  0  0
  -18.6019  -26.9412   21.8093 N   0  3  0  0  0  0  0  0  0  0  0  0
  -24.4464  -18.9046   18.5256 O   0  0  0  0  0  0  0  0  0  0  0  0
  -26.8269  -28.5282   21.6498 O   0  0  0  0  0  0  0  0  0  0  0  0
  -23.5319  -30.0179   20.5925 O   0  0  0  0  0  0  0  0  0  0  0  0
  -21.0241  -26.9815   23.2405 O   0  0  0  0  0  0  0  0  0  0  0  0
  -28.0516  -16.2823   23.9671 O   0  0  0  0  0  0  0  0  0  0  0  0
  -22.4423  -12.0804   21.6880 O   0  0  0  0  0  0  0  0  0  0  0  0
  -25.7419  -22.0930   22.6875 O   0  0  0  0  0  0  0  0  0  1  0  0
  -23.9102   -6.8556   20.7132 F   0  0  0  0  0  0  0  0  0  0  0  0
  -20.9391  -10.4735   20.0143 F   0  0  0  0  0  0  0  0  0  0  0  0
  1  2  1  0  0  0  0
  1  5  2  0  0  0  0
  2  6  2  0  0  0  0
  3  8  2  0  0  0  0
  3 15  1  0  0  0  0
  4  9  1  0  0  0  0
  4 15  2  0  0  0  0
  5 17  1  0  0  0  0
  6 19  1  0  0  0  0
  7 10  2  0  0  0  0
  7 18  1  0  0  0  0
  8 21  1  0  0  0  0
  9 21  2  0  0  0  0
 10 22  1  0  0  0  0
 11 12  2  0  0  0  0
 11 23  1  0  0  0  0
 12 24  1  0  0  0  0
 13 20  1  0  0  0  0
 13 22  2  0  0  0  0
 14 24  2  0  0  0  0
 14 25  1  0  0  0  0
 15 26  1  0  0  0  0
 16 26  1  0  0  0  0
 16 27  2  0  0  0  0
 16 28  1  0  0  0  0
 17 19  2  0  0  0  0
 17 33  1  0  0  0  0
 18 20  2  0  0  0  0
 18 34  1  0  0  0  0
 19 46  1  0  0  0  0
 20 35  1  0  0  0  0
 21 77  1  0  0  0  0
 22 78  1  0  0  0  0
 23 25  2  0  0  0  0
 23 77  1  0  0  0  0
 24 79  1  0  0  0  0
 25 80  1  0  0  0  0
 26 62  2  0  0  0  0
 27 63  1  0  0  0  0
 27 67  1  0  0  0  0
 28 68  1  0  0  0  0
 28 72  2  0  0  0  0
 29 47  1  0  0  0  0
 29 69  1  0  0  0  0
 29 73  2  0  0  0  0
 30 58  1  0  0  0  0
 30 64  1  0  0  0  0
 30 74  2  0  0  0  0
 31 59  1  0  0  0  0
 31 70  1  0  0  0  0
 31 75  2  0  0  0  0
 32 65  1  0  0  0  0
 32 66  1  0  0  0  0
 32 76  2  0  0  0  0
 33 36  1  0  0  0  0
 34 47  1  0  0  0  0
 35 64  1  0  0  0  0
 36 38  1  0  0  0  0
 37 39  1  0  0  0  0
 37 42  1  0  0  0  0
 38 46  1  0  0  0  0
 39 48  1  0  0  0  0
 40 43  1  0  0  0  0
 40 49  1  0  0  0  0
 41 44  1  0  0  0  0
 41 49  1  0  0  0  0
 42 65  1  0  0  0  0
 43 66  1  0  0  0  0
 44 66  1  0  0  0  0
 45 48  1  0  0  0  0
 45 65  1  0  0  0  0
 46 69  1  0  0  0  0
 47 64  1  0  0  0  0
 48 63  1  0  0  0  0
 49 57  1  0  0  0  0
 49 60  1  0  0  0  0
 50 59  1  0  0  0  0
 51 60  1  0  0  0  0
 52 60  1  0  0  0  0
 53 61  1  0  0  0  0
 54 61  1  0  0  0  0
 55 61  1  0  0  0  0
 56 71  1  0  0  0  0
 57 78  1  0  0  0  0
 58 61  1  0  0  0  0
 58 70  1  0  0  0  0
 59 71  1  0  0  0  0
 62 63  1  0  0  0  0
M  CHG  1  71   1
M  ISO  4  32 100  57 101  66 100  78 101
M  END
> <Batch ID>
0020

> <Smiles>
CNC(C)C(=O)NC(C(=O)N1Cc2cc([101O:1][101CH2:1]C3(C(C)C)CC[100N:0]([100C:0](=O)N4CCCC(n5nc(-c6ccc(Oc7ccc(F)cc7F)cc6)c(C(N)=O)c5N)C4)CC3)ccc2CC1C(=O)NC1CCCc2ccccc21)C(C)(C)C

> <Shape>
0.238

> <Color>
0.038

> <Negative vol penalty>
0.000

$$$$

  -OEChem-04052316093D

 84 92  0     1  0  0  0  0  0999 V2000
  -36.7463  -26.1859   28.5994 C   0  0  0  0  0  0  0  0  0  0  0  0
  -36.5649  -24.8105   28.4964 C   0  0  0  0  0  0  0  0  0  0  0  0
  -23.3005   -9.7840   20.0416 C   0  0  0  0  0  0  0  0  0  0  0  0
  -23.8120  -10.0499   22.3878 C   0  0  0  0  0  0  0  0  0  0  0  0
  -35.7046  -27.0519   28.2695 C   0  0  0  0  0  0  0  0  0  0  0  0
  -35.3412  -24.3001   28.0645 C   0  0  0  0  0  0  0  0  0  0  0  0
  -34.4357  -19.2797   24.6761 C   0  0  0  0  0  0  0  0  0  0  0  0
  -22.5895   -8.6188   20.3286 C   0  0  0  0  0  0  0  0  0  0  0  0
  -23.1010   -8.8846   22.6748 C   0  0  0  0  0  0  0  0  0  0  0  0
  -34.0794  -17.9740   25.0106 C   0  0  0  0  0  0  0  0  0  0  0  0
  -20.9423   -5.3777   20.4009 C   0  0  0  0  0  0  0  0  0  0  0  0
  -21.1531   -4.2690   19.5812 C   0  0  0  0  0  0  0  0  0  0  0  0
  -31.7708  -18.4892   24.5369 C   0  0  0  0  0  0  0  0  0  0  0  0
  -23.4930   -4.2690   20.1829 C   0  0  0  0  0  0  0  0  0  0  0  0
  -23.9118  -10.4995   21.0712 C   0  0  0  0  0  0  0  0  0  0  0  0
  -24.1450  -13.0176   20.7360 C   0  0  0  0  0  0  0  0  0  0  0  0
  -34.4707  -26.5522   27.8242 C   0  0  0  0  0  0  0  0  0  0  0  0
  -33.4592  -20.2046   24.2793 C   0  0  0  0  0  0  0  0  0  0  0  0
  -34.2816  -25.1602   27.7297 C   0  0  0  0  0  0  0  0  0  0  0  0
  -32.1177  -19.8053   24.1954 C   0  0  0  0  0  0  0  0  0  0  0  0
  -31.1590  -13.3920   24.8481 C   0  0  0  0  0  0  0  0  0  0  0  0
  -30.8259  -14.5426   25.6047 C   0  0  0  0  0  0  0  0  0  0  0  0
  -22.4897   -8.1691   21.6452 C   0  0  0  0  0  0  0  0  0  0  0  0
  -32.7464  -17.5794   24.9439 C   0  0  0  0  0  0  0  0  0  0  0  0
  -22.0069   -5.9321   21.1116 C   0  0  0  0  0  0  0  0  0  0  0  0
  -22.4284   -3.7146   19.4722 C   0  0  0  0  0  0  0  0  0  0  0  0
  -23.2822   -5.3777   21.0026 C   0  0  0  0  0  0  0  0  0  0  0  0
  -24.6468  -11.7030   20.7753 C   0  0  0  0  0  0  0  0  0  0  0  0
  -30.8265  -12.2909   25.6059 C   0  0  0  0  0  0  0  0  0  0  0  0
  -25.2329  -13.7909   20.4120 C   0  0  0  0  0  0  0  0  0  0  0  0
  -30.3003  -14.1095   26.8020 C   0  0  0  0  0  0  0  0  0  0  0  0
  -22.8144  -13.4970   20.9713 C   0  0  0  0  0  0  0  0  0  0  0  0
  -32.3985  -22.9753   25.4203 C   0  0  0  0  0  0  0  0  0  0  0  0
  -30.6783  -23.0038   22.6704 C   0  0  0  0  0  0  0  0  0  0  0  0
  -29.2580  -21.2317   20.1230 C   0  0  0  0  0  0  0  0  0  0  0  0
  -31.1301  -13.0318   21.1176 C   0  0  0  0  0  0  0  0  0  0  0  0
  -33.3587  -27.5260   27.5243 C   0  0  0  0  0  0  0  0  0  0  0  0
  -33.8635  -21.6018   23.8960 C   0  0  0  0  0  0  0  0  0  0  0  0
  -31.0339  -20.7542   23.7558 C   0  0  0  0  0  0  0  0  0  0  0  0
  -32.2159  -26.9158   26.7168 C   0  0  0  0  0  0  0  0  0  0  0  0
  -29.3954  -13.6005   18.0608 C   0  0  0  0  0  0  0  0  0  0  0  0
  -31.8124  -25.5651   27.2996 C   0  0  0  0  0  0  0  0  0  0  0  0
  -27.9364  -13.2973   18.4063 C   0  0  0  0  0  0  0  0  0  0  0  0
  -30.3550  -12.6654   18.7935 C   0  0  0  0  0  0  0  0  0  0  0  0
  -28.7182  -12.3151   20.6024 C   0  0  0  0  0  0  0  0  0  0  0  0
  -32.9769  -24.5691   27.2414 C   0  0  1  0  0  0  0  0  0  0  0  0
  -32.7186  -22.6047   23.9998 C   0  0  1  0  0  0  0  0  0  0  0  0
  -27.7154  -13.2688   19.9306 C   0  0  2  0  0  0  0  0  0  0  0  0
  -27.8844  -21.5278   18.0438 C   0  0  0  0  0  0  0  0  0  0  0  0
  -31.5828  -10.6138   23.8851 C   0  0  0  0  0  0  0  0  0  0  0  0
  -29.5753  -10.1229   25.3221 C   0  0  0  0  0  0  0  0  0  0  0  0
  -31.8657  -10.0247   26.2840 C   0  0  0  0  0  0  0  0  0  0  0  0
  -28.1878  -23.4339   24.3798 C   0  0  0  0  0  0  0  0  0  0  0  0
  -26.8013  -22.7769   22.4013 C   0  0  0  0  0  0  0  0  0  0  0  0
  -28.2621  -24.7956   22.2835 C   0  0  0  0  0  0  0  0  0  0  0  0
  -29.8375  -11.8786   27.8595 C   0  0  0  0  0  0  0  0  0  0  0  0
  -31.3884  -20.0921   18.4138 C   0  0  0  0  0  0  0  0  0  0  0  0
  -31.7531  -13.3734   23.4955 C   0  0  0  0  0  0  0  0  0  0  0  0
  -31.0119  -15.9694   25.1795 C   0  0  0  0  0  0  0  0  0  1  0  0
  -29.3177  -22.4985   22.2552 C   0  0  1  0  0  0  0  0  0  0  0  0
  -29.2891  -21.4300   18.6183 C   0  0  2  0  0  0  0  0  0  0  0  0
  -30.9607  -10.8502   25.3014 C   0  0  0  0  0  0  0  0  0  0  0  0
  -28.1621  -23.3586   22.8401 C   0  0  0  0  0  0  0  0  0  0  0  0
  -25.9520  -11.6407   20.4983 N   0  0  0  0  0  0  0  0  0  0  0  0
  -30.3058  -12.7391   26.7917 N   0  0  0  0  0  0  0  0  0  0  0  0
  -26.2794  -12.9260   20.2818 N   0  0  0  0  0  0  0  0  0  0  0  0
  -31.4785  -22.1112   23.3975 N   0  0  0  0  0  0  0  0  0  0  0  0
  -30.0937  -12.6860   20.2348 N   0  0  0  0  0  0  0  0  0  0  0  0
  -25.3869  -15.1195   20.2287 N   0  0  0  0  0  0  0  0  0  0  0  0
  -21.8164  -12.5672   21.2934 N   0  0  0  0  0  0  0  0  0  0  0  0
  -33.1282  -24.0461   25.9005 N   0  0  0  0  0  0  0  0  0  0  0  0
  -29.3343  -22.4317   20.7979 N   0  0  0  0  0  0  0  0  0  0  0  0
  -30.7962  -13.0329   22.4663 N   0  0  0  0  0  0  0  0  0  0  0  0
  -29.9877  -20.2900   17.9600 N   0  3  0  0  0  0  0  0  0  0  0  0
  -22.5156  -14.7120   20.8819 O   0  0  0  0  0  0  0  0  0  0  0  0
  -31.5513  -22.3379   26.0348 O   0  0  0  0  0  0  0  0  0  0  0  0
  -31.0214  -24.1459   22.3548 O   0  0  0  0  0  0  0  0  0  0  0  0
  -29.1707  -20.1235   20.6472 O   0  0  0  0  0  0  0  0  0  0  0  0
  -32.2673  -13.3236   20.7319 O   0  0  0  0  0  0  0  0  0  0  0  0
  -21.7958   -7.0323   21.9257 O   0  0  0  0  0  0  0  0  0  0  0  0
  -32.3957  -16.3057   25.2704 O   0  0  0  0  0  0  0  0  0  1  0  0
  -22.6304   -2.6490   18.6861 F   0  0  0  0  0  0  0  0  0  0  0  0
  -24.3086   -5.9052   21.6838 F   0  0  0  0  0  0  0  0  0  0  0  0
  -29.7089  -14.9670   28.1471 Cl  0  0  0  0  0  0  0  0  0  0  0  0
  1  2  1  0  0  0  0
  1  5  2  0  0  0  0
  2  6  2  0  0  0  0
  3  8  2  0  0  0  0
  3 15  1  0  0  0  0
  4  9  1  0  0  0  0
  4 15  2  0  0  0  0
  5 17  1  0  0  0  0
  6 19  1  0  0  0  0
  7 10  2  0  0  0  0
  7 18  1  0  0  0  0
  8 23  1  0  0  0  0
  9 23  2  0  0  0  0
 10 24  1  0  0  0  0
 11 12  2  0  0  0  0
 11 25  1  0  0  0  0
 12 26  1  0  0  0  0
 13 20  1  0  0  0  0
 13 24  2  0  0  0  0
 14 26  2  0  0  0  0
 14 27  1  0  0  0  0
 15 28  1  0  0  0  0
 16 28  1  0  0  0  0
 16 30  2  0  0  0  0
 16 32  1  0  0  0  0
 17 19  2  0  0  0  0
 17 37  1  0  0  0  0
 18 20  2  0  0  0  0
 18 38  1  0  0  0  0
 19 46  1  0  0  0  0
 20 39  1  0  0  0  0
 21 22  1  0  0  0  0
 21 29  2  0  0  0  0
 21 58  1  0  0  0  0
 22 31  2  0  0  0  0
 22 59  1  0  0  0  0
 23 80  1  0  0  0  0
 24 81  1  0  0  0  0
 25 27  2  0  0  0  0
 25 80  1  0  0  0  0
 26 82  1  0  0  0  0
 27 83  1  0  0  0  0
 28 64  2  0  0  0  0
 29 62  1  0  0  0  0
 29 65  1  0  0  0  0
 30 66  1  0  0  0  0
 30 69  1  0  0  0  0
 31 65  1  0  0  0  0
 31 84  1  0  0  0  0
 32 70  1  0  0  0  0
 32 75  2  0  0  0  0
 33 47  1  0  0  0  0
 33 71  1  0  0  0  0
 33 76  2  0  0  0  0
 34 60  1  0  0  0  0
 34 67  1  0  0  0  0
 34 77  2  0  0  0  0
 35 61  1  0  0  0  0
 35 72  1  0  0  0  0
 35 78  2  0  0  0  0
 36 68  1  0  0  0  0
 36 73  1  0  0  0  0
 36 79  2  0  0  0  0
 37 40  1  0  0  0  0
 38 47  1  0  0  0  0
 39 67  1  0  0  0  0
 40 42  1  0  0  0  0
 41 43  1  0  0  0  0
 41 44  1  0  0  0  0
 42 46  1  0  0  0  0
 43 48  1  0  0  0  0
 44 68  1  0  0  0  0
 45 48  1  0  0  0  0
 45 68  1  0  0  0  0
 46 71  1  0  0  0  0
 47 67  1  0  0  0  0
 48 66  1  0  0  0  0
 49 61  1  0  0  0  0
 50 62  1  0  0  0  0
 51 62  1  0  0  0  0
 52 62  1  0  0  0  0
 53 63  1  0  0  0  0
 54 63  1  0  0  0  0
 55 63  1  0  0  0  0
 56 65  1  0  0  0  0
 57 74  1  0  0  0  0
 58 73  1  0  0  0  0
 59 81  1  0  0  0  0
 60 63  1  0  0  0  0
 60 72  1  0  0  0  0
 61 74  1  0  0  0  0
 64 66  1  0  0  0  0
M  CHG  1  74   1
M  ISO  4  36 100  59 101  73 100  81 101
M  END
> <Batch ID>
0020

> <Smiles>
CNC(C)C(=O)NC(C(=O)N1Cc2cc([101O:1][101CH2:1]c3c(C[100NH:0][100C:0](=O)N4CCCC(n5nc(-c6ccc(Oc7ccc(F)cc7F)cc6)c(C(N)=O)c5N)C4)c(C(C)(C)C)n(C)c3Cl)ccc2CC1C(=O)NC1CCCc2ccccc21)C(C)(C)C

> <Shape>
0.158

> <Color>
0.185

> <Negative vol penalty>
0.000

$$$$

  -OEChem-04052316093D

 85 93  0     1  0  0  0  0  0999 V2000
  -33.3544  -30.0770   23.7454 C   0  0  0  0  0  0  0  0  0  0  0  0
  -33.3679  -28.9823   24.6037 C   0  0  0  0  0  0  0  0  0  0  0  0
  -23.2111   -9.7788   19.9633 C   0  0  0  0  0  0  0  0  0  0  0  0
  -23.5982  -10.0211   22.3358 C   0  0  0  0  0  0  0  0  0  0  0  0
  -32.3435  -30.2027   22.7935 C   0  0  0  0  0  0  0  0  0  0  0  0
  -32.3698  -28.0130   24.5113 C   0  0  0  0  0  0  0  0  0  0  0  0
  -32.9819  -21.9952   25.4692 C   0  0  0  0  0  0  0  0  0  0  0  0
  -22.4631   -8.6262   20.2031 C   0  0  0  0  0  0  0  0  0  0  0  0
  -22.8500   -8.8686   22.5756 C   0  0  0  0  0  0  0  0  0  0  0  0
  -32.7042  -21.1878   26.5713 C   0  0  0  0  0  0  0  0  0  0  0  0
  -21.3441   -5.7897   23.7851 C   0  0  0  0  0  0  0  0  0  0  0  0
  -21.8590   -4.8585   24.6869 C   0  0  0  0  0  0  0  0  0  0  0  0
  -30.5592  -20.6334   25.6171 C   0  0  0  0  0  0  0  0  0  0  0  0
  -32.0482  -15.8019   24.6150 C   0  0  0  0  0  0  0  0  0  0  0  0
  -23.8147   -4.5906   23.2938 C   0  0  0  0  0  0  0  0  0  0  0  0
  -23.7788  -10.4763   21.0297 C   0  0  0  0  0  0  0  0  0  0  0  0
  -24.0787  -12.9911   20.7248 C   0  0  0  0  0  0  0  0  0  0  0  0
  -31.3379  -29.2294   22.6829 C   0  0  0  0  0  0  0  0  0  0  0  0
  -32.0443  -22.1366   24.4361 C   0  0  0  0  0  0  0  0  0  0  0  0
  -31.3437  -28.1264   23.5579 C   0  0  0  0  0  0  0  0  0  0  0  0
  -30.8285  -21.4411   24.5017 C   0  0  0  0  0  0  0  0  0  0  0  0
  -31.9958  -15.3580   25.9363 C   0  0  0  0  0  0  0  0  0  0  0  0
  -31.4681  -14.1004   26.2291 C   0  0  0  0  0  0  0  0  0  0  0  0
  -30.9926  -13.2869   25.2006 C   0  0  0  0  0  0  0  0  0  0  0  0
  -31.0450  -13.7308   23.8793 C   0  0  0  0  0  0  0  0  0  0  0  0
  -22.2825   -8.1711   21.5092 C   0  0  0  0  0  0  0  0  0  0  0  0
  -31.4915  -20.5090   26.6468 C   0  0  0  0  0  0  0  0  0  0  0  0
  -22.0645   -6.1213   22.6375 C   0  0  0  0  0  0  0  0  0  0  0  0
  -23.0943   -4.2590   24.4413 C   0  0  0  0  0  0  0  0  0  0  0  0
  -31.5727  -14.9884   23.5865 C   0  0  0  0  0  0  0  0  0  0  0  0
  -23.2997   -5.5218   22.3919 C   0  0  0  0  0  0  0  0  0  0  0  0
  -24.5521  -11.6666   20.7826 C   0  0  0  0  0  0  0  0  0  0  0  0
  -25.1976  -13.7446   20.4661 C   0  0  0  0  0  0  0  0  0  0  0  0
  -22.7468  -13.4953   20.8901 C   0  0  0  0  0  0  0  0  0  0  0  0
  -30.4051  -24.5693   23.2121 C   0  0  0  0  0  0  0  0  0  0  0  0
  -29.4813  -22.3459   21.0383 C   0  0  0  0  0  0  0  0  0  0  0  0
  -29.0006  -19.0513   20.2891 C   0  0  0  0  0  0  0  0  0  0  0  0
  -31.0207  -12.8950   21.5029 C   0  0  0  0  0  0  0  0  0  0  0  0
  -30.2392  -29.4326   21.6698 C   0  0  0  0  0  0  0  0  0  0  0  0
  -32.3701  -22.9902   23.2413 C   0  0  0  0  0  0  0  0  0  0  0  0
  -29.7966  -21.5433   23.4093 C   0  0  0  0  0  0  0  0  0  0  0  0
  -29.4294  -28.1697   21.3880 C   0  0  0  0  0  0  0  0  0  0  0  0
  -29.4831  -13.4792   18.3452 C   0  0  0  0  0  0  0  0  0  0  0  0
  -29.0462  -27.4790   22.6929 C   0  0  0  0  0  0  0  0  0  0  0  0
  -28.0002  -13.2072   18.6081 C   0  0  0  0  0  0  0  0  0  0  0  0
  -30.3825  -12.5258   19.1299 C   0  0  0  0  0  0  0  0  0  0  0  0
  -28.6361  -12.1986   20.8364 C   0  0  0  0  0  0  0  0  0  0  0  0
  -30.2923  -27.0413   23.4721 C   0  0  1  0  0  0  0  0  0  0  0  0
  -31.1299  -23.4676   22.4920 C   0  0  1  0  0  0  0  0  0  0  0  0
  -27.6920  -13.1764   20.1179 C   0  0  2  0  0  0  0  0  0  0  0  0
  -31.4108  -13.6271   27.6471 C   0  0  0  0  0  0  0  0  0  0  0  0
  -30.4256  -11.9378   25.5165 C   0  0  0  0  0  0  0  0  0  0  0  0
  -28.2004  -17.5463   18.4474 C   0  0  0  0  0  0  0  0  0  0  0  0
  -30.8053  -17.8623   29.9650 C   0  0  0  0  0  0  0  0  0  0  0  0
  -26.5951  -23.1008   21.6787 C   0  0  0  0  0  0  0  0  0  0  0  0
  -25.8668  -20.9790   20.5670 C   0  0  0  0  0  0  0  0  0  0  0  0
  -27.0618  -22.7285   19.2501 C   0  0  0  0  0  0  0  0  0  0  0  0
  -31.6245  -17.6954   20.0995 C   0  0  0  0  0  0  0  0  0  0  0  0
  -32.5129  -16.2532   27.0235 C   0  0  0  0  0  0  0  0  0  0  0  0
  -32.3262  -19.0988   28.3703 C   0  0  0  0  0  0  0  0  0  1  0  0
  -28.3471  -21.3546   20.9389 C   0  0  1  0  0  0  0  0  0  0  0  0
  -29.4049  -18.2232   19.0828 C   0  0  2  0  0  0  0  0  0  0  0  0
  -31.9198  -17.7436   28.9381 C   0  0  2  0  0  0  0  0  0  0  0  0
  -26.9861  -22.0401   20.6303 C   0  0  0  0  0  0  0  0  0  0  0  0
  -25.8691  -11.5803   20.5771 N   0  0  0  0  0  0  0  0  0  0  0  0
  -26.2327  -12.8601   20.3875 N   0  0  0  0  0  0  0  0  0  0  0  0
  -30.1591  -22.3952   22.2647 N   0  0  0  0  0  0  0  0  0  0  0  0
  -30.0356  -12.5528   20.5525 N   0  0  0  0  0  0  0  0  0  0  0  0
  -25.3871  -15.0709   20.3005 N   0  0  0  0  0  0  0  0  0  0  0  0
  -21.7148  -12.5835   21.1508 N   0  0  0  0  0  0  0  0  0  0  0  0
  -30.5663  -12.9192   22.8211 N   0  0  0  0  0  0  0  0  0  0  0  0
  -30.8522  -25.8379   22.8953 N   0  0  0  0  0  0  0  0  0  0  0  0
  -28.7558  -20.3647   19.9482 N   0  0  0  0  0  0  0  0  0  0  0  0
  -30.3803  -17.1693   19.4813 N   0  3  0  0  0  0  0  0  0  0  0  0
  -31.4309  -16.8884   27.8180 N   0  3  0  0  0  0  0  0  0  0  0  0
  -22.4770  -14.7165   20.7927 O   0  0  0  0  0  0  0  0  0  0  0  0
  -29.5056  -24.2893   23.9958 O   0  0  0  0  0  0  0  0  0  0  0  0
  -29.7603  -23.0455   20.0614 O   0  0  0  0  0  0  0  0  0  0  0  0
  -28.9074  -18.5793   21.4201 O   0  0  0  0  0  0  0  0  0  0  0  0
  -32.1750  -13.1745   21.1693 O   0  0  0  0  0  0  0  0  0  0  0  0
  -21.5523   -7.0466   21.7435 O   0  0  0  0  0  0  0  0  0  0  0  0
  -31.2176  -19.7208   27.7218 O   0  0  0  0  0  0  0  0  0  1  0  0
  -23.5893   -3.3659   25.3083 F   0  0  0  0  0  0  0  0  0  0  0  0
  -31.6298  -15.4257   22.3204 F   0  0  0  0  0  0  0  0  0  0  0  0
  -23.9969   -5.8372   21.2918 F   0  0  0  0  0  0  0  0  0  0  0  0
  1  2  1  0  0  0  0
  1  5  2  0  0  0  0
  2  6  2  0  0  0  0
  3  8  2  0  0  0  0
  3 16  1  0  0  0  0
  4  9  1  0  0  0  0
  4 16  2  0  0  0  0
  5 18  1  0  0  0  0
  6 20  1  0  0  0  0
  7 10  2  0  0  0  0
  7 19  1  0  0  0  0
  8 26  1  0  0  0  0
  9 26  2  0  0  0  0
 10 27  1  0  0  0  0
 11 12  2  0  0  0  0
 11 28  1  0  0  0  0
 12 29  1  0  0  0  0
 13 21  1  0  0  0  0
 13 27  2  0  0  0  0
 14 22  1  0  0  0  0
 14 30  2  0  0  0  0
 15 29  2  0  0  0  0
 15 31  1  0  0  0  0
 16 32  1  0  0  0  0
 17 32  1  0  0  0  0
 17 33  2  0  0  0  0
 17 34  1  0  0  0  0
 18 20  2  0  0  0  0
 18 39  1  0  0  0  0
 19 21  2  0  0  0  0
 19 40  1  0  0  0  0
 20 48  1  0  0  0  0
 21 41  1  0  0  0  0
 22 23  2  0  0  0  0
 22 59  1  0  0  0  0
 23 24  1  0  0  0  0
 23 51  1  0  0  0  0
 24 25  2  0  0  0  0
 24 52  1  0  0  0  0
 25 30  1  0  0  0  0
 25 71  1  0  0  0  0
 26 81  1  0  0  0  0
 27 82  1  0  0  0  0
 28 31  2  0  0  0  0
 28 81  1  0  0  0  0
 29 83  1  0  0  0  0
 30 84  1  0  0  0  0
 31 85  1  0  0  0  0
 32 65  2  0  0  0  0
 33 66  1  0  0  0  0
 33 69  1  0  0  0  0
 34 70  1  0  0  0  0
 34 76  2  0  0  0  0
 35 49  1  0  0  0  0
 35 72  1  0  0  0  0
 35 77  2  0  0  0  0
 36 61  1  0  0  0  0
 36 67  1  0  0  0  0
 36 78  2  0  0  0  0
 37 62  1  0  0  0  0
 37 73  1  0  0  0  0
 37 79  2  0  0  0  0
 38 68  1  0  0  0  0
 38 71  1  0  0  0  0
 38 80  2  0  0  0  0
 39 42  1  0  0  0  0
 40 49  1  0  0  0  0
 41 67  1  0  0  0  0
 42 44  1  0  0  0  0
 43 45  1  0  0  0  0
 43 46  1  0  0  0  0
 44 48  1  0  0  0  0
 45 50  1  0  0  0  0
 46 68  1  0  0  0  0
 47 50  1  0  0  0  0
 47 68  1  0  0  0  0
 48 72  1  0  0  0  0
 49 67  1  0  0  0  0
 50 66  1  0  0  0  0
 53 62  1  0  0  0  0
 54 63  1  0  0  0  0
 55 64  1  0  0  0  0
 56 64  1  0  0  0  0
 57 64  1  0  0  0  0
 58 74  1  0  0  0  0
 59 75  1  0  0  0  0
 60 63  1  0  0  0  0
 60 82  1  0  0  0  0
 61 64  1  0  0  0  0
 61 73  1  0  0  0  0
 62 74  1  0  0  0  0
 63 75  1  0  0  0  0
 65 66  1  0  0  0  0
M  CHG  2  74   1  75   1
M  ISO  4  38 100  60 101  71 100  82 101
M  END
> <Batch ID>
0020

> <Smiles>
CNC(C)C(=O)NC(C(=O)N1Cc2cc([101O:1][101CH2:1]C(C)NCc3cc(F)c([100NH:0][100C:0](=O)N4CCCC(n5nc(-c6ccc(Oc7ccc(F)cc7F)cc6)c(C(N)=O)c5N)C4)c(C)c3C)ccc2CC1C(=O)NC1CCCc2ccccc21)C(C)(C)C

> <Shape>
0.221

> <Color>
0.184

> <Negative vol penalty>
0.000

$$$$

  -OEChem-04052316093D

 88 96  0     1  0  0  0  0  0999 V2000
  -31.3714  -23.9661   15.4607 C   0  0  0  0  0  0  0  0  0  0  0  0
  -30.5342  -23.0629   16.1077 C   0  0  0  0  0  0  0  0  0  0  0  0
  -27.6387  -16.9839   18.9656 C   0  0  0  0  0  0  0  0  0  0  0  0
  -27.6930  -17.1589   21.3747 C   0  0  0  0  0  0  0  0  0  0  0  0
  -31.7616  -25.1387   16.1062 C   0  0  0  0  0  0  0  0  0  0  0  0
  -30.0875  -23.3312   17.4011 C   0  0  0  0  0  0  0  0  0  0  0  0
  -24.4284  -22.3204   21.6753 C   0  0  0  0  0  0  0  0  0  0  0  0
  -28.2875  -18.2142   18.8616 C   0  0  0  0  0  0  0  0  0  0  0  0
  -28.3419  -18.3892   21.2707 C   0  0  0  0  0  0  0  0  0  0  0  0
  -24.1074  -21.8250   22.9384 C   0  0  0  0  0  0  0  0  0  0  0  0
  -31.4736  -19.5090   20.6717 C   0  0  0  0  0  0  0  0  0  0  0  0
  -32.5680  -19.7354   21.5064 C   0  0  0  0  0  0  0  0  0  0  0  0
  -24.7825  -23.9202   23.9251 C   0  0  0  0  0  0  0  0  0  0  0  0
  -19.3288  -14.5253   24.9543 C   0  0  0  0  0  0  0  0  0  0  0  0
  -31.4320  -21.6318   22.4813 C   0  0  0  0  0  0  0  0  0  0  0  0
  -27.3414  -16.4562   20.2222 C   0  0  0  0  0  0  0  0  0  0  0  0
  -27.2677  -13.9132   20.4094 C   0  0  0  0  0  0  0  0  0  0  0  0
  -31.3117  -25.4262   17.4045 C   0  0  0  0  0  0  0  0  0  0  0  0
  -24.9399  -23.6178   21.5285 C   0  0  0  0  0  0  0  0  0  0  0  0
  -30.4731  -24.5081   18.0651 C   0  0  0  0  0  0  0  0  0  0  0  0
  -25.1067  -24.4307   22.6588 C   0  0  0  0  0  0  0  0  0  0  0  0
  -21.5107  -14.5304   25.9916 C   0  0  0  0  0  0  0  0  0  0  0  0
  -19.5629  -15.1652   27.2723 C   0  0  0  0  0  0  0  0  0  0  0  0
  -20.7053  -14.3154   24.8732 C   0  0  0  0  0  0  0  0  0  0  0  0
  -28.6391  -18.9169   20.0141 C   0  0  0  0  0  0  0  0  0  0  0  0
  -24.2872  -22.6239   24.0638 C   0  0  0  0  0  0  0  0  0  0  0  0
  -30.3585  -20.3440   20.7418 C   0  0  0  0  0  0  0  0  0  0  0  0
  -32.5472  -20.7968   22.4112 C   0  0  0  0  0  0  0  0  0  0  0  0
  -30.3377  -21.4054   21.6466 C   0  0  0  0  0  0  0  0  0  0  0  0
  -20.9395  -14.9553   27.1912 C   0  0  0  0  0  0  0  0  0  0  0  0
  -18.7575  -14.9502   26.1539 C   0  0  0  0  0  0  0  0  0  0  0  0
  -26.6706  -15.1856   20.3303 C   0  0  0  0  0  0  0  0  0  0  0  0
  -26.2094  -13.0421   20.4974 C   0  0  0  0  0  0  0  0  0  0  0  0
  -28.6549  -13.5509   20.4040 C   0  0  0  0  0  0  0  0  0  0  0  0
  -27.6618  -24.8458   20.4389 C   0  0  0  0  0  0  0  0  0  0  0  0
  -26.1134  -27.6622   20.8777 C   0  0  0  0  0  0  0  0  0  0  0  0
  -23.6585  -29.3978   22.4927 C   0  0  0  0  0  0  0  0  0  0  0  0
  -20.5933  -13.6264   22.4527 C   0  0  0  0  0  0  0  0  0  0  0  0
  -31.7985  -26.6839   18.0796 C   0  0  0  0  0  0  0  0  0  0  0  0
  -25.2560  -24.1468   20.1564 C   0  0  0  0  0  0  0  0  0  0  0  0
  -25.6336  -25.8377   22.5529 C   0  0  0  0  0  0  0  0  0  0  0  0
  -30.9792  -27.0722   19.3077 C   0  0  0  0  0  0  0  0  0  0  0  0
  -21.6204  -12.5826   19.2073 C   0  0  0  0  0  0  0  0  0  0  0  0
  -30.7444  -25.8568   20.1990 C   0  0  0  0  0  0  0  0  0  0  0  0
  -23.0881  -13.0104   19.1365 C   0  0  0  0  0  0  0  0  0  0  0  0
  -20.7711  -13.5946   19.9743 C   0  0  0  0  0  0  0  0  0  0  0  0
  -22.7385  -14.3651   21.2411 C   0  0  0  0  0  0  0  0  0  0  0  0
  -29.9477  -24.7756   19.4588 C   0  0  1  0  0  0  0  0  0  0  0  0
  -26.2540  -25.3005   20.1762 C   0  0  1  0  0  0  0  0  0  0  0  0
  -23.6456  -13.3451   20.5339 C   0  0  2  0  0  0  0  0  0  0  0  0
  -22.9881  -14.3131   25.9295 C   0  0  0  0  0  0  0  0  0  0  0  0
  -22.6590  -31.6928   22.6697 C   0  0  0  0  0  0  0  0  0  0  0  0
  -28.4986  -28.5694   22.5504 C   0  0  0  0  0  0  0  0  0  0  0  0
  -27.0712  -30.4152   23.4581 C   0  0  0  0  0  0  0  0  0  0  0  0
  -27.5752  -30.3159   21.0170 C   0  0  0  0  0  0  0  0  0  0  0  0
  -21.0133  -28.4433   21.5705 C   0  0  0  0  0  0  0  0  0  0  0  0
  -18.9846  -15.6223   28.5790 C   0  0  0  0  0  0  0  0  0  0  0  0
  -20.3885  -20.4599   28.2220 C   0  0  0  0  0  0  0  0  0  0  0  0
  -21.0943  -20.3045   26.8729 C   0  0  0  0  0  0  0  0  0  0  0  0
  -19.2572  -19.4393   28.3763 C   0  0  0  0  0  0  0  0  0  0  0  0
  -22.2442  -21.2994   26.7295 C   0  0  0  0  0  0  0  0  0  0  0  0
  -19.7406  -17.9943   28.3763 C   0  0  0  0  0  0  0  0  0  0  0  0
  -22.9245  -21.1801   25.3732 C   0  0  0  0  0  0  0  0  0  1  0  0
  -25.9725  -28.6380   22.0210 C   0  0  1  0  0  0  0  0  0  0  0  0
  -22.5859  -30.3406   21.9777 C   0  0  2  0  0  0  0  0  0  0  0  0
  -27.2712  -29.4575   22.2642 C   0  0  0  0  0  0  0  0  0  0  0  0
  -25.3365  -15.1321   20.3648 N   0  0  0  0  0  0  0  0  0  0  0  0
  -25.0865  -13.8156   20.4665 N   0  0  0  0  0  0  0  0  0  0  0  0
  -25.9342  -26.3072   21.1903 N   0  0  0  0  0  0  0  0  0  0  0  0
  -21.3577  -13.8592   21.2899 N   0  0  0  0  0  0  0  0  0  0  0  0
  -26.1391  -11.6977   20.5974 N   0  0  0  0  0  0  0  0  0  0  0  0
  -29.6114  -14.5708   20.3076 N   0  0  0  0  0  0  0  0  0  0  0  0
  -21.2670  -13.8825   23.6465 N   0  0  0  0  0  0  0  0  0  0  0  0
  -28.5440  -25.1248   19.4126 N   0  0  0  0  0  0  0  0  0  0  0  0
  -24.7997  -29.4521   21.7207 N   0  0  0  0  0  0  0  0  0  0  0  0
  -21.2323  -29.7640   22.2146 N   0  3  0  0  0  0  0  0  0  0  0  0
  -18.6062  -17.0626   28.5776 N   0  3  0  0  0  0  0  0  0  0  0  0
  -29.0347  -12.3570   20.4658 O   0  0  0  0  0  0  0  0  0  0  0  0
  -27.9282  -24.2847   21.4953 O   0  0  0  0  0  0  0  0  0  0  0  0
  -26.3658  -28.0872   19.7476 O   0  0  0  0  0  0  0  0  0  0  0  0
  -23.5012  -28.6873   23.4832 O   0  0  0  0  0  0  0  0  0  0  0  0
  -19.4359  -13.2031   22.3945 O   0  0  0  0  0  0  0  0  0  0  0  0
  -29.2724  -20.1174   19.9130 O   0  0  0  0  0  0  0  0  0  0  0  0
  -23.9754  -22.1426   25.2979 O   0  0  0  0  0  0  0  0  0  1  0  0
  -33.5975  -21.0132   23.2138 F   0  0  0  0  0  0  0  0  0  0  0  0
  -29.2687  -22.2102   21.7193 F   0  0  0  0  0  0  0  0  0  0  0  0
  -21.7149  -15.1624   28.2662 F   0  0  0  0  0  0  0  0  0  0  0  0
  -17.0505  -15.1995   26.2171 Cl  0  0  0  0  0  0  0  0  0  0  0  0
  1  2  1  0  0  0  0
  1  5  2  0  0  0  0
  2  6  2  0  0  0  0
  3  8  2  0  0  0  0
  3 16  1  0  0  0  0
  4  9  1  0  0  0  0
  4 16  2  0  0  0  0
  5 18  1  0  0  0  0
  6 20  1  0  0  0  0
  7 10  2  0  0  0  0
  7 19  1  0  0  0  0
  8 25  1  0  0  0  0
  9 25  2  0  0  0  0
 10 26  1  0  0  0  0
 11 12  2  0  0  0  0
 11 27  1  0  0  0  0
 12 28  1  0  0  0  0
 13 21  1  0  0  0  0
 13 26  2  0  0  0  0
 14 24  1  0  0  0  0
 14 31  2  0  0  0  0
 15 28  2  0  0  0  0
 15 29  1  0  0  0  0
 16 32  1  0  0  0  0
 17 32  1  0  0  0  0
 17 33  2  0  0  0  0
 17 34  1  0  0  0  0
 18 20  2  0  0  0  0
 18 39  1  0  0  0  0
 19 21  2  0  0  0  0
 19 40  1  0  0  0  0
 20 48  1  0  0  0  0
 21 41  1  0  0  0  0
 22 24  2  0  0  0  0
 22 30  1  0  0  0  0
 22 51  1  0  0  0  0
 23 30  2  0  0  0  0
 23 31  1  0  0  0  0
 23 57  1  0  0  0  0
 24 73  1  0  0  0  0
 25 83  1  0  0  0  0
 26 84  1  0  0  0  0
 27 29  2  0  0  0  0
 27 83  1  0  0  0  0
 28 85  1  0  0  0  0
 29 86  1  0  0  0  0
 30 87  1  0  0  0  0
 31 88  1  0  0  0  0
 32 67  2  0  0  0  0
 33 68  1  0  0  0  0
 33 71  1  0  0  0  0
 34 72  1  0  0  0  0
 34 78  2  0  0  0  0
 35 49  1  0  0  0  0
 35 74  1  0  0  0  0
 35 79  2  0  0  0  0
 36 64  1  0  0  0  0
 36 69  1  0  0  0  0
 36 80  2  0  0  0  0
 37 65  1  0  0  0  0
 37 75  1  0  0  0  0
 37 81  2  0  0  0  0
 38 70  1  0  0  0  0
 38 73  1  0  0  0  0
 38 82  2  0  0  0  0
 39 42  1  0  0  0  0
 40 49  1  0  0  0  0
 41 69  1  0  0  0  0
 42 44  1  0  0  0  0
 43 45  1  0  0  0  0
 43 46  1  0  0  0  0
 44 48  1  0  0  0  0
 45 50  1  0  0  0  0
 46 70  1  0  0  0  0
 47 50  1  0  0  0  0
 47 70  1  0  0  0  0
 48 74  1  0  0  0  0
 49 69  1  0  0  0  0
 50 68  1  0  0  0  0
 52 65  1  0  0  0  0
 53 66  1  0  0  0  0
 54 66  1  0  0  0  0
 55 66  1  0  0  0  0
 56 76  1  0  0  0  0
 57 77  1  0  0  0  0
 58 59  1  0  0  0  0
 58 60  1  0  0  0  0
 59 61  1  0  0  0  0
 60 62  1  0  0  0  0
 61 63  1  0  0  0  0
 62 77  1  0  0  0  0
 63 84  1  0  0  0  0
 64 66  1  0  0  0  0
 64 75  1  0  0  0  0
 65 76  1  0  0  0  0
 67 68  1  0  0  0  0
M  CHG  2  76   1  77   1
M  ISO  4  38 100  63 101  73 100  84 101
M  END
> <Batch ID>
0020

> <Smiles>
CNC(C)C(=O)NC(C(=O)N1Cc2cc([101O:1][101CH2:1]CCCCCNCc3c(Cl)cc([100NH:0][100C:0](=O)N4CCCC(n5nc(-c6ccc(Oc7ccc(F)cc7F)cc6)c(C(N)=O)c5N)C4)c(C)c3F)ccc2CC1C(=O)NC1CCCc2ccccc21)C(C)(C)C

> <Shape>
0.216

> <Color>
0.088

> <Negative vol penalty>
0.000

$$$$

  -OEChem-04052316093D

 89 97  0     1  0  0  0  0  0999 V2000
  -28.8239  -36.4537   23.7583 C   0  0  0  0  0  0  0  0  0  0  0  0
  -29.1469  -35.2835   23.0789 C   0  0  0  0  0  0  0  0  0  0  0  0
  -23.1366  -12.5525   18.4898 C   0  0  0  0  0  0  0  0  0  0  0  0
  -22.6416  -10.9884   20.2635 C   0  0  0  0  0  0  0  0  0  0  0  0
  -27.8137  -36.4443   24.7192 C   0  0  0  0  0  0  0  0  0  0  0  0
  -28.4606  -34.1028   23.3607 C   0  0  0  0  0  0  0  0  0  0  0  0
  -27.0058  -29.6568   19.4083 C   0  0  0  0  0  0  0  0  0  0  0  0
  -22.0516  -12.0677   17.7595 C   0  0  0  0  0  0  0  0  0  0  0  0
  -21.5566  -10.5036   19.5332 C   0  0  0  0  0  0  0  0  0  0  0  0
  -27.6003  -28.4300   19.1161 C   0  0  0  0  0  0  0  0  0  0  0  0
  -18.3798  -11.4478   18.8721 C   0  0  0  0  0  0  0  0  0  0  0  0
  -17.1783  -11.2510   19.5528 C   0  0  0  0  0  0  0  0  0  0  0  0
  -26.0721  -27.3361   20.6284 C   0  0  0  0  0  0  0  0  0  0  0  0
  -17.2363   -8.9053   18.9770 C   0  0  0  0  0  0  0  0  0  0  0  0
  -23.4316  -12.0128   19.7418 C   0  0  0  0  0  0  0  0  0  0  0  0
  -24.5478  -13.5692   21.4269 C   0  0  0  0  0  0  0  0  0  0  0  0
  -27.1081  -35.2652   25.0061 C   0  0  0  0  0  0  0  0  0  0  0  0
  -25.9454  -29.7340   20.3226 C   0  0  0  0  0  0  0  0  0  0  0  0
  -27.4409  -34.0774   24.3273 C   0  0  0  0  0  0  0  0  0  0  0  0
  -25.4642  -28.5647   20.9286 C   0  0  0  0  0  0  0  0  0  0  0  0
  -28.8160  -16.2936   20.0607 C   0  0  0  0  0  0  0  0  0  0  0  0
  -29.8534  -15.6878   20.7695 C   0  0  0  0  0  0  0  0  0  0  0  0
  -28.4550  -15.8098   18.8031 C   0  0  0  0  0  0  0  0  0  0  0  0
  -30.1690  -14.1147   18.9631 C   0  0  0  0  0  0  0  0  0  0  0  0
  -21.2616  -11.0433   18.2812 C   0  0  0  0  0  0  0  0  0  0  0  0
  -27.1354  -27.2698   19.7283 C   0  0  0  0  0  0  0  0  0  0  0  0
  -19.0095  -10.3733   18.2437 C   0  0  0  0  0  0  0  0  0  0  0  0
  -16.6066   -9.9798   19.6053 C   0  0  0  0  0  0  0  0  0  0  0  0
  -18.4377   -9.1021   18.2962 C   0  0  0  0  0  0  0  0  0  0  0  0
  -30.5299  -14.5984   20.2207 C   0  0  0  0  0  0  0  0  0  0  0  0
  -29.1315  -14.7205   18.2543 C   0  0  0  0  0  0  0  0  0  0  0  0
  -24.5527  -12.5128   20.4964 C   0  0  0  0  0  0  0  0  0  0  0  0
  -25.8481  -13.6496   21.8618 C   0  0  0  0  0  0  0  0  0  0  0  0
  -23.4647  -14.4031   21.8594 C   0  0  0  0  0  0  0  0  0  0  0  0
  -25.4940  -31.1793   23.1174 C   0  0  0  0  0  0  0  0  0  0  0  0
  -22.4644  -30.0777   22.7563 C   0  0  0  0  0  0  0  0  0  0  0  0
  -20.3622  -27.7920   21.3411 C   0  0  0  0  0  0  0  0  0  0  0  0
  -30.9412  -11.7303   19.0599 C   0  0  0  0  0  0  0  0  0  0  0  0
  -26.0563  -35.2933   26.0867 C   0  0  0  0  0  0  0  0  0  0  0  0
  -25.2973  -31.0613   20.6067 C   0  0  0  0  0  0  0  0  0  0  0  0
  -24.3152  -28.5910   21.9020 C   0  0  0  0  0  0  0  0  0  0  0  0
  -25.1225  -34.0860   26.0593 C   0  0  0  0  0  0  0  0  0  0  0  0
  -29.7792  -11.0058   22.4977 C   0  0  0  0  0  0  0  0  0  0  0  0
  -25.9222  -32.7959   25.9076 C   0  0  0  0  0  0  0  0  0  0  0  0
  -28.2865  -11.3218   22.4249 C   0  0  0  0  0  0  0  0  0  0  0  0
  -30.3288  -10.5536   21.1482 C   0  0  0  0  0  0  0  0  0  0  0  0
  -28.5700  -11.8410   19.9690 C   0  0  0  0  0  0  0  0  0  0  0  0
  -26.7023  -32.7824   24.5875 C   0  0  1  0  0  0  0  0  0  0  0  0
  -24.5612  -31.0930   21.9426 C   0  0  1  0  0  0  0  0  0  0  0  0
  -28.0010  -12.3376   21.3065 C   0  0  1  0  0  0  0  0  0  0  0  0
  -30.2568  -16.1890   22.1177 C   0  0  0  0  0  0  0  0  0  0  0  0
  -27.3383  -16.4742   18.0581 C   0  0  0  0  0  0  0  0  0  0  0  0
  -17.9450  -27.1223   21.2630 C   0  0  0  0  0  0  0  0  0  0  0  0
  -22.7276  -28.8147   25.5213 C   0  0  0  0  0  0  0  0  0  0  0  0
  -20.7252  -27.4078   24.9927 C   0  0  0  0  0  0  0  0  0  0  0  0
  -20.5157  -29.8922   25.0728 C   0  0  0  0  0  0  0  0  0  0  0  0
  -31.8140  -13.2282   17.3204 C   0  0  0  0  0  0  0  0  0  0  0  0
  -20.2011  -28.2801   18.4265 C   0  0  0  0  0  0  0  0  0  0  0  0
  -28.0912  -17.4651   20.6549 C   0  0  0  0  0  0  0  0  0  0  0  0
  -27.4569  -22.4247   20.3371 C   0  0  0  0  0  0  0  0  0  0  0  0
  -28.2290  -21.1927   19.8632 C   0  0  0  0  0  0  0  0  0  0  0  0
  -27.9793  -23.6975   19.6744 C   0  0  0  0  0  0  0  0  0  0  0  0
  -27.7264  -19.9340   20.5545 C   0  0  0  0  0  0  0  0  0  0  0  0
  -27.1876  -24.9228   20.1089 C   0  0  0  0  0  0  0  0  0  1  0  0
  -21.7341  -28.8129   23.1382 C   0  0  1  0  0  0  0  0  0  0  0  0
  -19.0397  -27.9547   20.6137 C   0  0  2  0  0  0  0  0  0  0  0  0
  -21.4486  -28.7313   24.6644 C   0  0  0  0  0  0  0  0  0  0  0  0
  -25.7603  -11.9618   20.3482 N   0  0  0  0  0  0  0  0  0  0  0  0
  -26.5264  -12.6747   21.1913 N   0  0  0  0  0  0  0  0  0  0  0  0
  -23.7189  -29.9137   22.1519 N   0  0  0  0  0  0  0  0  0  0  0  0
  -29.9977  -11.5006   20.0823 N   0  0  0  0  0  0  0  0  0  0  0  0
  -26.4660  -14.4585   22.7486 N   0  0  0  0  0  0  0  0  0  0  0  0
  -22.1934  -14.1850   21.3113 N   0  0  0  0  0  0  0  0  0  0  0  0
  -25.8207  -32.4713   23.4827 N   0  0  0  0  0  0  0  0  0  0  0  0
  -20.5388  -28.7637   22.3033 N   0  0  0  0  0  0  0  0  0  0  0  0
  -30.8902  -12.9866   18.4265 N   0  0  0  0  0  0  0  0  0  0  0  0
  -19.1743  -27.5276   19.1923 N   0  3  0  0  0  0  0  0  0  0  0  0
  -28.4707  -18.7629   20.0321 N   0  3  0  0  0  0  0  0  0  0  0  0
  -23.6231  -15.3255   22.6947 O   0  0  0  0  0  0  0  0  0  0  0  0
  -25.8870  -30.1500   23.6537 O   0  0  0  0  0  0  0  0  0  0  0  0
  -21.9380  -31.1708   22.9792 O   0  0  0  0  0  0  0  0  0  0  0  0
  -21.1572  -26.8906   21.0841 O   0  0  0  0  0  0  0  0  0  0  0  0
  -31.7386  -10.8567   18.6971 O   0  0  0  0  0  0  0  0  0  0  0  0
  -20.2026  -10.5702   17.5689 O   0  0  0  0  0  0  0  0  0  0  0  0
  -27.7143  -26.0712   19.4454 O   0  0  0  0  0  0  0  0  0  1  0  0
  -15.4537   -9.7906   20.2604 F   0  0  0  0  0  0  0  0  0  0  0  0
  -19.0386   -8.0658   17.6955 F   0  0  0  0  0  0  0  0  0  0  0  0
  -31.5276  -14.0176   20.9047 F   0  0  0  0  0  0  0  0  0  0  0  0
  -28.6807  -14.1210   16.6904 Cl  0  0  0  0  0  0  0  0  0  0  0  0
  1  2  1  0  0  0  0
  1  5  2  0  0  0  0
  2  6  2  0  0  0  0
  3  8  2  0  0  0  0
  3 15  1  0  0  0  0
  4  9  1  0  0  0  0
  4 15  2  0  0  0  0
  5 17  1  0  0  0  0
  6 19  1  0  0  0  0
  7 10  2  0  0  0  0
  7 18  1  0  0  0  0
  8 25  1  0  0  0  0
  9 25  2  0  0  0  0
 10 26  1  0  0  0  0
 11 12  2  0  0  0  0
 11 27  1  0  0  0  0
 12 28  1  0  0  0  0
 13 20  1  0  0  0  0
 13 26  2  0  0  0  0
 14 28  2  0  0  0  0
 14 29  1  0  0  0  0
 15 32  1  0  0  0  0
 16 32  1  0  0  0  0
 16 33  2  0  0  0  0
 16 34  1  0  0  0  0
 17 19  2  0  0  0  0
 17 39  1  0  0  0  0
 18 20  2  0  0  0  0
 18 40  1  0  0  0  0
 19 48  1  0  0  0  0
 20 41  1  0  0  0  0
 21 22  1  0  0  0  0
 21 23  2  0  0  0  0
 21 59  1  0  0  0  0
 22 30  2  0  0  0  0
 22 51  1  0  0  0  0
 23 31  1  0  0  0  0
 23 52  1  0  0  0  0
 24 30  1  0  0  0  0
 24 31  2  0  0  0  0
 24 76  1  0  0  0  0
 25 84  1  0  0  0  0
 26 85  1  0  0  0  0
 27 29  2  0  0  0  0
 27 84  1  0  0  0  0
 28 86  1  0  0  0  0
 29 87  1  0  0  0  0
 30 88  1  0  0  0  0
 31 89  1  0  0  0  0
 32 68  2  0  0  0  0
 33 69  1  0  0  0  0
 33 72  1  0  0  0  0
 34 73  1  0  0  0  0
 34 79  2  0  0  0  0
 35 49  1  0  0  0  0
 35 74  1  0  0  0  0
 35 80  2  0  0  0  0
 36 65  1  0  0  0  0
 36 70  1  0  0  0  0
 36 81  2  0  0  0  0
 37 66  1  0  0  0  0
 37 75  1  0  0  0  0
 37 82  2  0  0  0  0
 38 71  1  0  0  0  0
 38 76  1  0  0  0  0
 38 83  2  0  0  0  0
 39 42  1  0  0  0  0
 40 49  1  0  0  0  0
 41 70  1  0  0  0  0
 42 44  1  0  0  0  0
 43 45  1  0  0  0  0
 43 46  1  0  0  0  0
 44 48  1  0  0  0  0
 45 50  1  0  0  0  0
 46 71  1  0  0  0  0
 47 50  1  0  0  0  0
 47 71  1  0  0  0  0
 48 74  1  0  0  0  0
 49 70  1  0  0  0  0
 50 69  1  0  0  0  0
 53 66  1  0  0  0  0
 54 67  1  0  0  0  0
 55 67  1  0  0  0  0
 56 67  1  0  0  0  0
 57 76  1  0  0  0  0
 58 77  1  0  0  0  0
 59 78  1  0  0  0  0
 60 61  1  0  0  0  0
 60 62  1  0  0  0  0
 61 63  1  0  0  0  0
 62 64  1  0  0  0  0
 63 78  1  0  0  0  0
 64 85  1  0  0  0  0
 65 67  1  0  0  0  0
 65 75  1  0  0  0  0
 66 77  1  0  0  0  0
 68 69  1  0  0  0  0
M  CHG  2  77   1  78   1
M  ISO  4  38 100  64 101  76 100  85 101
M  END
> <Batch ID>
0020

> <Smiles>
CNC(C)C(=O)NC(C(=O)N1Cc2cc([101O:1][101CH2:1]CCCCNCc3c(C)c(F)c([100N:0](C)[100C:0](=O)N4CCCC(n5nc(-c6ccc(Oc7ccc(F)cc7F)cc6)c(C(N)=O)c5N)C4)c(Cl)c3C)ccc2CC1C(=O)NC1CCCc2ccccc21)C(C)(C)C

> <Shape>
0.299

> <Color>
0.078

> <Negative vol penalty>
0.000

$$$$

  -OEChem-04052316093D

 85 93  0     1  0  0  0  0  0999 V2000
  -38.5911  -12.4706   21.8321 C   0  0  0  0  0  0  0  0  0  0  0  0
  -37.2404  -12.6707   21.5655 C   0  0  0  0  0  0  0  0  0  0  0  0
  -29.3572  -23.5440   18.7485 C   0  0  0  0  0  0  0  0  0  0  0  0
  -27.8974  -23.4325   20.6703 C   0  0  0  0  0  0  0  0  0  0  0  0
  -39.4841  -13.5373   21.7405 C   0  0  0  0  0  0  0  0  0  0  0  0
  -36.7819  -13.9382   21.2081 C   0  0  0  0  0  0  0  0  0  0  0  0
  -33.5703  -13.8101   17.2947 C   0  0  0  0  0  0  0  0  0  0  0  0
  -29.3291  -24.9373   18.8079 C   0  0  0  0  0  0  0  0  0  0  0  0
  -27.8693  -24.8259   20.7298 C   0  0  0  0  0  0  0  0  0  0  0  0
  -32.2588  -13.4183   17.5599 C   0  0  0  0  0  0  0  0  0  0  0  0
  -26.3039  -27.3569   19.1253 C   0  0  0  0  0  0  0  0  0  0  0  0
  -25.0672  -27.9725   19.3180 C   0  0  0  0  0  0  0  0  0  0  0  0
  -31.5757  -15.7318   17.5681 C   0  0  0  0  0  0  0  0  0  0  0  0
  -25.8833  -28.9727   21.3602 C   0  0  0  0  0  0  0  0  0  0  0  0
  -28.6413  -22.7916   19.6796 C   0  0  0  0  0  0  0  0  0  0  0  0
  -29.5800  -20.4918   20.2604 C   0  0  0  0  0  0  0  0  0  0  0  0
  -39.0378  -14.8164   21.3725 C   0  0  0  0  0  0  0  0  0  0  0  0
  -33.8969  -15.1686   17.1749 C   0  0  0  0  0  0  0  0  0  0  0  0
  -37.6696  -15.0234   21.1128 C   0  0  0  0  0  0  0  0  0  0  0  0
  -32.8915  -16.1382   17.2988 C   0  0  0  0  0  0  0  0  0  0  0  0
  -28.5852  -25.5782   19.7985 C   0  0  0  0  0  0  0  0  0  0  0  0
  -31.2618  -14.3793   17.6995 C   0  0  0  0  0  0  0  0  0  0  0  0
  -27.3303  -27.5491   20.0501 C   0  0  0  0  0  0  0  0  0  0  0  0
  -24.8569  -28.7804   20.4354 C   0  0  0  0  0  0  0  0  0  0  0  0
  -27.1200  -28.3570   21.1675 C   0  0  0  0  0  0  0  0  0  0  0  0
  -28.6694  -21.3523   19.6184 C   0  0  0  0  0  0  0  0  0  0  0  0
  -29.1829  -19.2312   19.8868 C   0  0  0  0  0  0  0  0  0  0  0  0
  -30.6858  -20.8041   21.1180 C   0  0  0  0  0  0  0  0  0  0  0  0
  -35.7987  -17.1663   18.7547 C   0  0  0  0  0  0  0  0  0  0  0  0
  -34.9689  -19.2156   16.3811 C   0  0  0  0  0  0  0  0  0  0  0  0
  -32.7168  -20.1034   13.9755 C   0  0  0  0  0  0  0  0  0  0  0  0
  -25.1715  -15.4500   19.0170 C   0  0  0  0  0  0  0  0  0  0  0  0
  -40.0330  -15.9489   21.3327 C   0  0  0  0  0  0  0  0  0  0  0  0
  -35.3113  -15.5736   16.8622 C   0  0  0  0  0  0  0  0  0  0  0  0
  -33.1863  -17.6085   17.1590 C   0  0  0  0  0  0  0  0  0  0  0  0
  -39.5268  -17.1786   20.5831 C   0  0  0  0  0  0  0  0  0  0  0  0
  -25.8691  -17.7296   16.3725 C   0  0  0  0  0  0  0  0  0  0  0  0
  -38.1063  -17.5227   21.0197 C   0  0  0  0  0  0  0  0  0  0  0  0
  -24.6819  -11.0012   20.7290 C   0  0  0  0  0  0  0  0  0  0  0  0
  -26.1397  -11.3330   20.4422 C   0  0  0  0  0  0  0  0  0  0  0  0
  -26.7292  -18.8069   17.0355 C   0  0  0  0  0  0  0  0  0  0  0  0
  -24.7873  -17.2105   17.3171 C   0  0  0  0  0  0  0  0  0  0  0  0
  -26.1416  -17.8129   19.2861 C   0  0  0  0  0  0  0  0  0  0  0  0
  -37.1377  -16.3781   20.6980 C   0  0  1  0  0  0  0  0  0  0  0  0
  -35.6258  -17.0095   17.2704 C   0  0  1  0  0  0  0  0  0  0  0  0
  -24.0426  -12.0183   21.6848 C   0  0  1  0  0  0  0  0  0  0  0  0
  -26.2931  -12.7430   19.8610 C   0  0  1  0  0  0  0  0  0  0  0  0
  -24.1748  -13.4602   21.1262 C   0  0  2  0  0  0  0  0  0  0  0  0
  -27.2820  -18.3273   18.3912 C   0  0  2  0  0  0  0  0  0  0  0  0
  -25.6550  -13.7907   20.7980 C   0  0  2  0  0  0  0  0  0  0  0  0
  -23.5909  -14.4938   22.1024 C   0  0  0  0  0  0  0  0  0  0  0  0
  -32.2931  -21.8467   12.2209 C   0  0  0  0  0  0  0  0  0  0  0  0
  -34.1324  -21.1919   18.5501 C   0  0  0  0  0  0  0  0  0  0  0  0
  -32.8718  -22.4681   16.8035 C   0  0  0  0  0  0  0  0  0  0  0  0
  -35.3466  -22.2155   16.6182 C   0  0  0  0  0  0  0  0  0  0  0  0
  -32.7584  -18.0936   11.8033 C   0  0  0  0  0  0  0  0  0  0  0  0
  -27.7762  -13.0274   19.5992 C   0  0  0  0  0  0  0  0  0  0  0  0
  -28.2445  -12.3541   18.3176 C   0  0  0  0  0  0  0  0  0  0  0  0
  -29.7277  -12.6015   18.0760 C   0  0  0  0  0  0  0  0  0  1  0  0
  -33.8603  -20.2191   16.1740 C   0  0  1  0  0  0  0  0  0  0  0  0
  -32.8981  -20.4832   12.5170 C   0  0  2  0  0  0  0  0  0  0  0  0
  -22.5877  -11.6132   21.9439 C   0  0  0  0  0  0  0  0  0  0  0  0
  -34.0472  -21.4961   17.0411 C   0  0  0  0  0  0  0  0  0  0  0  0
  -27.7624  -20.6940   18.8918 N   0  0  0  0  0  0  0  0  0  0  0  0
  -28.1011  -19.4064   19.0750 N   0  0  0  0  0  0  0  0  0  0  0  0
  -34.5856  -17.9546   16.8594 N   0  0  0  0  0  0  0  0  0  0  0  0
  -25.3777  -16.7700   18.5834 N   0  0  0  0  0  0  0  0  0  0  0  0
  -29.6572  -18.0009   20.1766 N   0  0  0  0  0  0  0  0  0  0  0  0
  -30.9540  -22.1507   21.3989 N   0  0  0  0  0  0  0  0  0  0  0  0
  -36.8016  -16.3810   19.2904 N   0  0  0  0  0  0  0  0  0  0  0  0
  -33.8035  -20.4744   14.7387 N   0  0  0  0  0  0  0  0  0  0  0  0
  -25.7711  -15.1128   20.2243 N   0  0  0  0  0  0  0  0  0  0  0  0
  -32.2431  -19.4767   11.6343 N   0  3  0  0  0  0  0  0  0  0  0  0
  -31.4245  -19.9160   21.6071 O   0  0  0  0  0  0  0  0  0  0  0  0
  -35.0767  -17.9434   19.3683 O   0  0  0  0  0  0  0  0  0  0  0  0
  -36.1313  -19.5364   16.1210 O   0  0  0  0  0  0  0  0  0  0  0  0
  -31.7101  -19.5377   14.3963 O   0  0  0  0  0  0  0  0  0  0  0  0
  -24.5069  -14.6310   18.3732 O   0  0  0  0  0  0  0  0  0  0  0  0
  -28.5578  -26.9378   19.8570 O   0  0  0  0  0  0  0  0  0  0  0  0
  -29.9718  -13.9969   17.9608 O   0  0  0  0  0  0  0  0  0  1  0  0
  -23.6697  -29.3728   20.6195 F   0  0  0  0  0  0  0  0  0  0  0  0
  -28.1026  -28.5463   22.0588 F   0  0  0  0  0  0  0  0  0  0  0  0
  -22.0336  -12.4506   22.8310 F   0  0  0  0  0  0  0  0  0  0  0  0
  -21.8915  -11.6623   20.8001 F   0  0  0  0  0  0  0  0  0  0  0  0
  -22.5431  -10.3658   22.4313 F   0  0  0  0  0  0  0  0  0  0  0  0
  1  2  1  0  0  0  0
  1  5  2  0  0  0  0
  2  6  2  0  0  0  0
  3  8  2  0  0  0  0
  3 15  1  0  0  0  0
  4  9  1  0  0  0  0
  4 15  2  0  0  0  0
  5 17  1  0  0  0  0
  6 19  1  0  0  0  0
  7 10  2  0  0  0  0
  7 18  1  0  0  0  0
  8 21  1  0  0  0  0
  9 21  2  0  0  0  0
 10 22  1  0  0  0  0
 11 12  2  0  0  0  0
 11 23  1  0  0  0  0
 12 24  1  0  0  0  0
 13 20  1  0  0  0  0
 13 22  2  0  0  0  0
 14 24  2  0  0  0  0
 14 25  1  0  0  0  0
 15 26  1  0  0  0  0
 16 26  1  0  0  0  0
 16 27  2  0  0  0  0
 16 28  1  0  0  0  0
 17 19  2  0  0  0  0
 17 33  1  0  0  0  0
 18 20  2  0  0  0  0
 18 34  1  0  0  0  0
 19 44  1  0  0  0  0
 20 35  1  0  0  0  0
 21 79  1  0  0  0  0
 22 80  1  0  0  0  0
 23 25  2  0  0  0  0
 23 79  1  0  0  0  0
 24 81  1  0  0  0  0
 25 82  1  0  0  0  0
 26 64  2  0  0  0  0
 27 65  1  0  0  0  0
 27 68  1  0  0  0  0
 28 69  1  0  0  0  0
 28 74  2  0  0  0  0
 29 45  1  0  0  0  0
 29 70  1  0  0  0  0
 29 75  2  0  0  0  0
 30 60  1  0  0  0  0
 30 66  1  0  0  0  0
 30 76  2  0  0  0  0
 31 61  1  0  0  0  0
 31 71  1  0  0  0  0
 31 77  2  0  0  0  0
 32 67  1  0  0  0  0
 32 72  1  0  0  0  0
 32 78  2  0  0  0  0
 33 36  1  0  0  0  0
 34 45  1  0  0  0  0
 35 66  1  0  0  0  0
 36 38  1  0  0  0  0
 37 41  1  0  0  0  0
 37 42  1  0  0  0  0
 38 44  1  0  0  0  0
 39 40  1  0  0  0  0
 39 46  1  0  0  0  0
 40 47  1  0  0  0  0
 41 49  1  0  0  0  0
 42 67  1  0  0  0  0
 43 49  1  0  0  0  0
 43 67  1  0  0  0  0
 44 70  1  0  0  0  0
 45 66  1  0  0  0  0
 46 48  1  0  0  0  0
 46 62  1  0  0  0  0
 47 50  1  0  0  0  0
 47 57  1  0  0  0  0
 48 50  1  0  0  0  0
 48 51  1  0  0  0  0
 49 65  1  0  0  0  0
 50 72  1  0  0  0  0
 52 61  1  0  0  0  0
 53 63  1  0  0  0  0
 54 63  1  0  0  0  0
 55 63  1  0  0  0  0
 56 73  1  0  0  0  0
 57 58  1  0  0  0  0
 58 59  1  0  0  0  0
 59 80  1  0  0  0  0
 60 63  1  0  0  0  0
 60 71  1  0  0  0  0
 61 73  1  0  0  0  0
 62 83  1  0  0  0  0
 62 84  1  0  0  0  0
 62 85  1  0  0  0  0
 64 65  1  0  0  0  0
M  CHG  1  73   1
M  ISO  4  32 100  59 101  72 100  80 101
M  END
> <Batch ID>
0020

> <Smiles>
CNC(C)C(=O)NC(C(=O)N1Cc2cc([101O:1][101CH2:1]CCC3CCC(C(F)(F)F)C(C)C3[100NH:0][100C:0](=O)N3CCCC(n4nc(-c5ccc(Oc6ccc(F)cc6F)cc5)c(C(N)=O)c4N)C3)ccc2CC1C(=O)NC1CCCc2ccccc21)C(C)(C)C

> <Shape>
0.191

> <Color>
0.085

> <Negative vol penalty>
0.000

$$$$

  -OEChem-04052316093D

 90 98  0     1  0  0  0  0  0999 V2000
  -22.1285  -12.3599   18.4439 C   0  0  0  0  0  0  0  0  0  0  0  0
  -21.8833  -13.6552   18.8883 C   0  0  0  0  0  0  0  0  0  0  0  0
  -30.5112  -27.6658   20.0291 C   0  0  0  0  0  0  0  0  0  0  0  0
  -30.1349  -27.5608   22.4133 C   0  0  0  0  0  0  0  0  0  0  0  0
  -23.2691  -11.6816   18.8714 C   0  0  0  0  0  0  0  0  0  0  0  0
  -22.7783  -14.2727   19.7614 C   0  0  0  0  0  0  0  0  0  0  0  0
  -24.2424  -20.2167   19.9369 C   0  0  0  0  0  0  0  0  0  0  0  0
  -31.8860  -27.7472   20.2496 C   0  0  0  0  0  0  0  0  0  0  0  0
  -31.5099  -27.6421   22.6338 C   0  0  0  0  0  0  0  0  0  0  0  0
  -23.8033  -21.2675   20.7411 C   0  0  0  0  0  0  0  0  0  0  0  0
  -34.8959  -28.1845   23.8382 C   0  0  0  0  0  0  0  0  0  0  0  0
  -35.3426  -29.0538   24.8333 C   0  0  0  0  0  0  0  0  0  0  0  0
  -25.7032  -20.9433   22.1917 C   0  0  0  0  0  0  0  0  0  0  0  0
  -19.5480  -24.3509   22.2265 C   0  0  0  0  0  0  0  0  0  0  0  0
  -34.3382  -30.9122   23.6607 C   0  0  0  0  0  0  0  0  0  0  0  0
  -29.6356  -27.5727   21.1109 C   0  0  0  0  0  0  0  0  0  0  0  0
  -27.4491  -26.3207   20.7116 C   0  0  0  0  0  0  0  0  0  0  0  0
  -24.1834  -12.2946   19.7426 C   0  0  0  0  0  0  0  0  0  0  0  0
  -25.4113  -19.5130   20.2607 C   0  0  0  0  0  0  0  0  0  0  0  0
  -23.9316  -13.6015   20.2020 C   0  0  0  0  0  0  0  0  0  0  0  0
  -26.1564  -19.8856   21.3886 C   0  0  0  0  0  0  0  0  0  0  0  0
  -20.3100  -24.7801   23.3131 C   0  0  0  0  0  0  0  0  0  0  0  0
  -19.0239  -25.2828   21.3306 C   0  0  0  0  0  0  0  0  0  0  0  0
  -20.5479  -26.1412   23.5039 C   0  0  0  0  0  0  0  0  0  0  0  0
  -20.0238  -27.0732   22.6080 C   0  0  0  0  0  0  0  0  0  0  0  0
  -32.3854  -27.7353   21.5519 C   0  0  0  0  0  0  0  0  0  0  0  0
  -24.5322  -21.6291   21.8703 C   0  0  0  0  0  0  0  0  0  0  0  0
  -34.1704  -28.6790   22.7542 C   0  0  0  0  0  0  0  0  0  0  0  0
  -35.0637  -30.4177   24.7446 C   0  0  0  0  0  0  0  0  0  0  0  0
  -33.8916  -30.0428   22.6655 C   0  0  0  0  0  0  0  0  0  0  0  0
  -19.2618  -26.6439   21.5214 C   0  0  0  0  0  0  0  0  0  0  0  0
  -28.2152  -27.4892   20.8838 C   0  0  0  0  0  0  0  0  0  0  0  0
  -26.1657  -26.7752   20.5300 C   0  0  0  0  0  0  0  0  0  0  0  0
  -27.8606  -24.9473   20.7156 C   0  0  0  0  0  0  0  0  0  0  0  0
  -26.0789  -16.4974   21.0118 C   0  0  0  0  0  0  0  0  0  0  0  0
  -29.1436  -17.5520   20.8793 C   0  0  0  0  0  0  0  0  0  0  0  0
  -31.3159  -20.1761   21.0834 C   0  0  0  0  0  0  0  0  0  0  0  0
  -21.9516  -30.1490   21.9456 C   0  0  0  0  0  0  0  0  0  0  0  0
  -25.3781  -11.5043   20.2146 C   0  0  0  0  0  0  0  0  0  0  0  0
  -25.8860  -18.3993   19.3681 C   0  0  0  0  0  0  0  0  0  0  0  0
  -27.4290  -19.1752   21.7685 C   0  0  0  0  0  0  0  0  0  0  0  0
  -26.4688  -12.3668   20.8444 C   0  0  0  0  0  0  0  0  0  0  0  0
  -24.4121  -31.4512   19.7259 C   0  0  0  0  0  0  0  0  0  0  0  0
  -25.8618  -13.3573   21.8331 C   0  0  0  0  0  0  0  0  0  0  0  0
  -25.5594  -30.4438   19.8199 C   0  0  0  0  0  0  0  0  0  0  0  0
  -23.7212  -31.6472   21.0736 C   0  0  0  0  0  0  0  0  0  0  0  0
  -24.4038  -29.3972   21.8119 C   0  0  0  0  0  0  0  0  0  0  0  0
  -24.8914  -14.3141   21.1299 C   0  0  1  0  0  0  0  0  0  0  0  0
  -26.8132  -17.4181   20.0786 C   0  0  1  0  0  0  0  0  0  0  0  0
  -25.0954  -29.1242   20.4652 C   0  0  2  0  0  0  0  0  0  0  0  0
  -21.3671  -26.5963   24.6703 C   0  0  0  0  0  0  0  0  0  0  0  0
  -33.7628  -20.7212   20.9704 C   0  0  0  0  0  0  0  0  0  0  0  0
  -18.7831  -25.1399   18.7684 C   0  0  0  0  0  0  0  0  0  0  0  0
  -16.7621  -25.3552   20.1885 C   0  0  0  0  0  0  0  0  0  0  0  0
  -29.5235  -16.4172   23.6860 C   0  0  0  0  0  0  0  0  0  0  0  0
  -31.6063  -17.7923   23.8846 C   0  0  0  0  0  0  0  0  0  0  0  0
  -31.4438  -16.0237   22.1329 C   0  0  0  0  0  0  0  0  0  0  0  0
  -30.9310  -21.9523   18.7476 C   0  0  0  0  0  0  0  0  0  0  0  0
  -20.8647  -23.7522   24.2666 C   0  0  0  0  0  0  0  0  0  0  0  0
  -20.2912  -28.5300   22.8293 C   0  0  0  0  0  0  0  0  0  0  0  0
  -22.3590  -23.4813   24.0793 C   0  0  0  0  0  0  0  0  0  0  0  0
  -22.6983  -22.8832   22.7189 C   0  0  0  0  0  0  0  0  0  1  0  0
  -30.1103  -18.1555   21.8694 C   0  0  1  0  0  0  0  0  0  0  0  0
  -32.4640  -20.6054   20.1878 C   0  0  2  0  0  0  0  0  0  0  0  0
  -18.2131  -24.7766   20.1808 C   0  0  0  0  0  0  0  0  0  0  0  0
  -30.6460  -17.1095   22.8874 C   0  0  0  0  0  0  0  0  0  0  0  0
  -18.1064  -23.2256   20.2151 C   0  0  0  0  0  0  0  0  0  0  0  0
  -27.4799  -28.6023   20.8173 N   0  0  0  0  0  0  0  0  0  0  0  0
  -26.2384  -28.1353   20.6013 N   0  0  0  0  0  0  0  0  0  0  0  0
  -27.8484  -18.0889   20.8677 N   0  0  0  0  0  0  0  0  0  0  0  0
  -23.3045  -30.3581   21.6308 N   0  0  0  0  0  0  0  0  0  0  0  0
  -24.9935  -26.1402   20.3177 N   0  0  0  0  0  0  0  0  0  0  0  0
  -29.2170  -24.6569   20.9161 N   0  0  0  0  0  0  0  0  0  0  0  0
  -25.6214  -15.3384   20.4142 N   0  0  0  0  0  0  0  0  0  0  0  0
  -31.1495  -18.8074   21.0797 N   0  0  0  0  0  0  0  0  0  0  0  0
  -21.6409  -28.8975   22.4631 N   0  0  0  0  0  0  0  0  0  0  0  0
  -32.1700  -21.9278   19.5667 N   0  3  0  0  0  0  0  0  0  0  0  0
  -27.0522  -24.0063   20.5300 O   0  0  0  0  0  0  0  0  0  0  0  0
  -25.9389  -16.8143   22.1872 O   0  0  0  0  0  0  0  0  0  0  0  0
  -29.5256  -16.6428   20.1383 O   0  0  0  0  0  0  0  0  0  0  0  0
  -30.6371  -20.9749   21.7251 O   0  0  0  0  0  0  0  0  0  0  0  0
  -21.0840  -31.0118   21.7729 O   0  0  0  0  0  0  0  0  0  0  0  0
  -33.7270  -27.8145   21.7675 O   0  0  0  0  0  0  0  0  0  0  0  0
  -24.1054  -22.6540   22.6573 O   0  0  0  0  0  0  0  0  0  1  0  0
  -35.4914  -31.2522   25.7011 F   0  0  0  0  0  0  0  0  0  0  0  0
  -33.1940  -30.5235   21.6272 F   0  0  0  0  0  0  0  0  0  0  0  0
  -17.5197  -22.7667   21.3456 F   0  0  0  0  0  0  0  0  0  0  0  0
  -19.3223  -22.6417   20.1371 F   0  0  0  0  0  0  0  0  0  0  0  0
  -17.3715  -22.7760   19.1722 F   0  0  0  0  0  0  0  0  0  0  0  0
  -18.6085  -27.7985   20.4072 Cl  0  0  0  0  0  0  0  0  0  0  0  0
  1  2  1  0  0  0  0
  1  5  2  0  0  0  0
  2  6  2  0  0  0  0
  3  8  2  0  0  0  0
  3 16  1  0  0  0  0
  4  9  1  0  0  0  0
  4 16  2  0  0  0  0
  5 18  1  0  0  0  0
  6 20  1  0  0  0  0
  7 10  2  0  0  0  0
  7 19  1  0  0  0  0
  8 26  1  0  0  0  0
  9 26  2  0  0  0  0
 10 27  1  0  0  0  0
 11 12  2  0  0  0  0
 11 28  1  0  0  0  0
 12 29  1  0  0  0  0
 13 21  1  0  0  0  0
 13 27  2  0  0  0  0
 14 22  1  0  0  0  0
 14 23  2  0  0  0  0
 15 29  2  0  0  0  0
 15 30  1  0  0  0  0
 16 32  1  0  0  0  0
 17 32  1  0  0  0  0
 17 33  2  0  0  0  0
 17 34  1  0  0  0  0
 18 20  2  0  0  0  0
 18 39  1  0  0  0  0
 19 21  2  0  0  0  0
 19 40  1  0  0  0  0
 20 48  1  0  0  0  0
 21 41  1  0  0  0  0
 22 24  2  0  0  0  0
 22 59  1  0  0  0  0
 23 31  1  0  0  0  0
 23 65  1  0  0  0  0
 24 25  1  0  0  0  0
 24 51  1  0  0  0  0
 25 31  2  0  0  0  0
 25 60  1  0  0  0  0
 26 83  1  0  0  0  0
 27 84  1  0  0  0  0
 28 30  2  0  0  0  0
 28 83  1  0  0  0  0
 29 85  1  0  0  0  0
 30 86  1  0  0  0  0
 31 90  1  0  0  0  0
 32 68  2  0  0  0  0
 33 69  1  0  0  0  0
 33 72  1  0  0  0  0
 34 73  1  0  0  0  0
 34 78  2  0  0  0  0
 35 49  1  0  0  0  0
 35 74  1  0  0  0  0
 35 79  2  0  0  0  0
 36 63  1  0  0  0  0
 36 70  1  0  0  0  0
 36 80  2  0  0  0  0
 37 64  1  0  0  0  0
 37 75  1  0  0  0  0
 37 81  2  0  0  0  0
 38 71  1  0  0  0  0
 38 76  1  0  0  0  0
 38 82  2  0  0  0  0
 39 42  1  0  0  0  0
 40 49  1  0  0  0  0
 41 70  1  0  0  0  0
 42 44  1  0  0  0  0
 43 45  1  0  0  0  0
 43 46  1  0  0  0  0
 44 48  1  0  0  0  0
 45 50  1  0  0  0  0
 46 71  1  0  0  0  0
 47 50  1  0  0  0  0
 47 71  1  0  0  0  0
 48 74  1  0  0  0  0
 49 70  1  0  0  0  0
 50 69  1  0  0  0  0
 52 64  1  0  0  0  0
 53 65  1  0  0  0  0
 54 65  1  0  0  0  0
 55 66  1  0  0  0  0
 56 66  1  0  0  0  0
 57 66  1  0  0  0  0
 58 77  1  0  0  0  0
 59 61  1  0  0  0  0
 60 76  1  0  0  0  0
 61 62  1  0  0  0  0
 62 84  1  0  0  0  0
 63 66  1  0  0  0  0
 63 75  1  0  0  0  0
 64 77  1  0  0  0  0
 65 67  1  0  0  0  0
 67 87  1  0  0  0  0
 67 88  1  0  0  0  0
 67 89  1  0  0  0  0
 68 69  1  0  0  0  0
M  CHG  1  77   1
M  ISO  4  38 100  62 101  76 100  84 101
M  END
> <Batch ID>
0020

> <Smiles>
CNC(C)C(=O)NC(C(=O)N1Cc2cc([101O:1][101CH2:1]CCc3cc(C(C)(C)C(F)(F)F)c(Cl)c(C[100NH:0][100C:0](=O)N4CCCC(n5nc(-c6ccc(Oc7ccc(F)cc7F)cc6)c(C(N)=O)c5N)C4)c3C)ccc2CC1C(=O)NC1CCCc2ccccc21)C(C)(C)C

> <Shape>
0.212

> <Color>
0.073

> <Negative vol penalty>
0.000

$$$$

  -OEChem-04052316093D

 82 90  0     1  0  0  0  0  0999 V2000
  -29.6938  -35.4222   19.2746 C   0  0  0  0  0  0  0  0  0  0  0  0
  -29.7999  -34.2403   18.5485 C   0  0  0  0  0  0  0  0  0  0  0  0
  -23.1016  -10.3224   20.8024 C   0  0  0  0  0  0  0  0  0  0  0  0
  -24.5764   -9.0097   22.1948 C   0  0  0  0  0  0  0  0  0  0  0  0
  -29.2833  -35.3863   20.6066 C   0  0  0  0  0  0  0  0  0  0  0  0
  -29.4966  -33.0215   19.1544 C   0  0  0  0  0  0  0  0  0  0  0  0
  -26.7586  -26.5727   17.6603 C   0  0  0  0  0  0  0  0  0  0  0  0
  -22.2535   -9.2236   20.6647 C   0  0  0  0  0  0  0  0  0  0  0  0
  -23.7282   -7.9108   22.0572 C   0  0  0  0  0  0  0  0  0  0  0  0
  -27.0570  -25.2177   17.7977 C   0  0  0  0  0  0  0  0  0  0  0  0
  -20.8047   -6.8427   23.3734 C   0  0  0  0  0  0  0  0  0  0  0  0
  -20.5007   -6.1127   24.5224 C   0  0  0  0  0  0  0  0  0  0  0  0
  -26.2817  -25.2847   20.0810 C   0  0  0  0  0  0  0  0  0  0  0  0
  -29.1676  -19.4355   19.4744 C   0  0  0  0  0  0  0  0  0  0  0  0
  -21.4623   -4.1356   23.5207 C   0  0  0  0  0  0  0  0  0  0  0  0
  -24.2631  -10.2154   21.5673 C   0  0  0  0  0  0  0  0  0  0  0  0
  -25.0877  -12.3454   22.7035 C   0  0  0  0  0  0  0  0  0  0  0  0
  -28.9655  -34.1674   21.2262 C   0  0  0  0  0  0  0  0  0  0  0  0
  -26.2288  -27.2976   18.7374 C   0  0  0  0  0  0  0  0  0  0  0  0
  -29.0827  -32.9691   20.4963 C   0  0  0  0  0  0  0  0  0  0  0  0
  -25.9751  -26.6481   19.9539 C   0  0  0  0  0  0  0  0  0  0  0  0
  -28.9548  -20.7774   19.1587 C   0  0  0  0  0  0  0  0  0  0  0  0
  -27.8803  -21.1410   18.3470 C   0  0  0  0  0  0  0  0  0  0  0  0
  -27.0185  -20.1626   17.8510 C   0  0  0  0  0  0  0  0  0  0  0  0
  -28.3059  -18.4572   18.9784 C   0  0  0  0  0  0  0  0  0  0  0  0
  -22.5668   -8.0178   21.2921 C   0  0  0  0  0  0  0  0  0  0  0  0
  -26.8213  -24.5742   19.0090 C   0  0  0  0  0  0  0  0  0  0  0  0
  -21.4374   -6.2192   22.2980 C   0  0  0  0  0  0  0  0  0  0  0  0
  -20.8295   -4.7592   24.5961 C   0  0  0  0  0  0  0  0  0  0  0  0
  -21.7662   -4.8656   22.3716 C   0  0  0  0  0  0  0  0  0  0  0  0
  -27.2313  -18.8207   18.1668 C   0  0  0  0  0  0  0  0  0  0  0  0
  -25.1399  -11.3499   21.7094 C   0  0  0  0  0  0  0  0  0  0  0  0
  -26.1277  -13.1894   22.3991 C   0  0  0  0  0  0  0  0  0  0  0  0
  -24.1804  -12.4938   23.8037 C   0  0  0  0  0  0  0  0  0  0  0  0
  -27.1942  -29.7935   20.4527 C   0  0  0  0  0  0  0  0  0  0  0  0
  -24.2436  -29.5317   21.7747 C   0  0  0  0  0  0  0  0  0  0  0  0
  -21.5509  -27.5582   22.4830 C   0  0  0  0  0  0  0  0  0  0  0  0
  -28.8108  -16.1055   18.3382 C   0  0  0  0  0  0  0  0  0  0  0  0
  -28.5717  -34.1741   22.6821 C   0  0  0  0  0  0  0  0  0  0  0  0
  -25.8874  -28.7523   18.5648 C   0  0  0  0  0  0  0  0  0  0  0  0
  -25.3886  -27.3766   21.1345 C   0  0  0  0  0  0  0  0  0  0  0  0
  -27.9085  -32.8776   23.1397 C   0  0  0  0  0  0  0  0  0  0  0  0
  -29.9504  -12.6893   19.1387 C   0  0  0  0  0  0  0  0  0  0  0  0
  -28.6977  -31.6702   22.6435 C   0  0  0  0  0  0  0  0  0  0  0  0
  -28.7636  -12.1047   19.9027 C   0  0  0  0  0  0  0  0  0  0  0  0
  -29.5091  -13.7385   18.1226 C   0  0  0  0  0  0  0  0  0  0  0  0
  -27.4992  -14.2504   19.4749 C   0  0  0  0  0  0  0  0  0  0  0  0
  -28.7387  -31.6298   21.1111 C   0  0  1  0  0  0  0  0  0  0  0  0
  -25.8312  -29.5136   19.8856 C   0  0  1  0  0  0  0  0  0  0  0  0
  -27.9155  -13.2210   20.5365 C   0  0  1  0  0  0  0  0  0  0  0  0
  -29.8929  -21.8053   19.7020 C   0  0  0  0  0  0  0  0  0  0  0  0
  -25.8718  -20.5737   16.9797 C   0  0  0  0  0  0  0  0  0  0  0  0
  -19.3078  -27.6156   23.6066 C   0  0  0  0  0  0  0  0  0  0  0  0
  -25.6100  -29.4465   24.5016 C   0  0  0  0  0  0  0  0  0  0  0  0
  -23.4745  -28.5648   25.4664 C   0  0  0  0  0  0  0  0  0  0  0  0
  -23.5275  -30.8291   24.4209 C   0  0  0  0  0  0  0  0  0  0  0  0
  -28.7913  -16.7467   20.7378 C   0  0  0  0  0  0  0  0  0  0  0  0
  -20.1451  -26.8779   19.9692 C   0  0  0  0  0  0  0  0  0  0  0  0
  -27.6568  -22.5854   18.0079 C   0  0  0  0  0  0  0  0  0  1  0  0
  -23.6599  -28.7796   22.9463 C   0  0  1  0  0  0  0  0  0  0  0  0
  -20.0612  -27.7819   22.2960 C   0  0  2  0  0  0  0  0  0  0  0  0
  -24.0809  -29.3915   24.3123 C   0  0  0  0  0  0  0  0  0  0  0  0
  -26.1342  -11.5424   20.8386 N   0  0  0  0  0  0  0  0  0  0  0  0
  -26.7164  -12.6686   21.2845 N   0  0  0  0  0  0  0  0  0  0  0  0
  -25.0776  -28.7993   20.9181 N   0  0  0  0  0  0  0  0  0  0  0  0
  -28.6670  -14.7628   18.7417 N   0  0  0  0  0  0  0  0  0  0  0  0
  -26.5868  -14.3188   22.9789 N   0  0  0  0  0  0  0  0  0  0  0  0
  -23.1700  -11.5368   23.9703 N   0  0  0  0  0  0  0  0  0  0  0  0
  -27.4834  -31.1383   20.5847 N   0  0  0  0  0  0  0  0  0  0  0  0
  -22.2180  -28.7398   22.7284 N   0  0  0  0  0  0  0  0  0  0  0  0
  -28.5583  -17.0793   19.3286 N   0  0  0  0  0  0  0  0  0  0  0  0
  -19.5109  -26.8086   21.3108 N   0  3  0  0  0  0  0  0  0  0  0  0
  -24.2530  -13.4558   24.6054 O   0  0  0  0  0  0  0  0  0  0  0  0
  -27.9286  -28.8586   20.7499 O   0  0  0  0  0  0  0  0  0  0  0  0
  -23.9639  -30.7233   21.6211 O   0  0  0  0  0  0  0  0  0  0  0  0
  -22.0704  -26.4461   22.4216 O   0  0  0  0  0  0  0  0  0  0  0  0
  -29.1658  -16.4081   17.1927 O   0  0  0  0  0  0  0  0  0  0  0  0
  -21.7393   -6.9455   21.1582 O   0  0  0  0  0  0  0  0  0  0  0  0
  -27.1122  -23.2519   19.1461 O   0  0  0  0  0  0  0  0  0  1  0  0
  -20.5389   -4.0587   25.7002 F   0  0  0  0  0  0  0  0  0  0  0  0
  -22.3753   -4.2614   21.3422 F   0  0  0  0  0  0  0  0  0  0  0  0
  -26.1581  -17.6057   17.5503 Cl  0  0  0  0  0  0  0  0  0  0  0  0
  1  2  1  0  0  0  0
  1  5  2  0  0  0  0
  2  6  2  0  0  0  0
  3  8  2  0  0  0  0
  3 16  1  0  0  0  0
  4  9  1  0  0  0  0
  4 16  2  0  0  0  0
  5 18  1  0  0  0  0
  6 20  1  0  0  0  0
  7 10  2  0  0  0  0
  7 19  1  0  0  0  0
  8 26  1  0  0  0  0
  9 26  2  0  0  0  0
 10 27  1  0  0  0  0
 11 12  2  0  0  0  0
 11 28  1  0  0  0  0
 12 29  1  0  0  0  0
 13 21  1  0  0  0  0
 13 27  2  0  0  0  0
 14 22  2  0  0  0  0
 14 25  1  0  0  0  0
 15 29  2  0  0  0  0
 15 30  1  0  0  0  0
 16 32  1  0  0  0  0
 17 32  1  0  0  0  0
 17 33  2  0  0  0  0
 17 34  1  0  0  0  0
 18 20  2  0  0  0  0
 18 39  1  0  0  0  0
 19 21  2  0  0  0  0
 19 40  1  0  0  0  0
 20 48  1  0  0  0  0
 21 41  1  0  0  0  0
 22 23  1  0  0  0  0
 22 51  1  0  0  0  0
 23 24  2  0  0  0  0
 23 59  1  0  0  0  0
 24 31  1  0  0  0  0
 24 52  1  0  0  0  0
 25 31  2  0  0  0  0
 25 71  1  0  0  0  0
 26 78  1  0  0  0  0
 27 79  1  0  0  0  0
 28 30  2  0  0  0  0
 28 78  1  0  0  0  0
 29 80  1  0  0  0  0
 30 81  1  0  0  0  0
 31 82  1  0  0  0  0
 32 63  2  0  0  0  0
 33 64  1  0  0  0  0
 33 67  1  0  0  0  0
 34 68  1  0  0  0  0
 34 73  2  0  0  0  0
 35 49  1  0  0  0  0
 35 69  1  0  0  0  0
 35 74  2  0  0  0  0
 36 60  1  0  0  0  0
 36 65  1  0  0  0  0
 36 75  2  0  0  0  0
 37 61  1  0  0  0  0
 37 70  1  0  0  0  0
 37 76  2  0  0  0  0
 38 66  1  0  0  0  0
 38 71  1  0  0  0  0
 38 77  2  0  0  0  0
 39 42  1  0  0  0  0
 40 49  1  0  0  0  0
 41 65  1  0  0  0  0
 42 44  1  0  0  0  0
 43 45  1  0  0  0  0
 43 46  1  0  0  0  0
 44 48  1  0  0  0  0
 45 50  1  0  0  0  0
 46 66  1  0  0  0  0
 47 50  1  0  0  0  0
 47 66  1  0  0  0  0
 48 69  1  0  0  0  0
 49 65  1  0  0  0  0
 50 64  1  0  0  0  0
 53 61  1  0  0  0  0
 54 62  1  0  0  0  0
 55 62  1  0  0  0  0
 56 62  1  0  0  0  0
 57 71  1  0  0  0  0
 58 72  1  0  0  0  0
 59 79  1  0  0  0  0
 60 62  1  0  0  0  0
 60 70  1  0  0  0  0
 61 72  1  0  0  0  0
 63 64  1  0  0  0  0
M  CHG  1  72   1
M  ISO  4  38 100  59 101  71 100  79 101
M  END
> <Batch ID>
0020

> <Smiles>
CNC(C)C(=O)NC(C(=O)N1Cc2cc([101O:1][101CH2:1]c3c(C)cc([100N:0](C)[100C:0](=O)N4CCCC(n5nc(-c6ccc(Oc7ccc(F)cc7F)cc6)c(C(N)=O)c5N)C4)c(Cl)c3C)ccc2CC1C(=O)NC1CCCc2ccccc21)C(C)(C)C

> <Shape>
0.287

> <Color>
0.109

> <Negative vol penalty>
0.000

$$$$

  -OEChem-04052316093D

 85 93  0     1  0  0  0  0  0999 V2000
  -18.1556  -25.4132   23.1724 C   0  0  0  0  0  0  0  0  0  0  0  0
  -19.3047  -25.2620   22.4029 C   0  0  0  0  0  0  0  0  0  0  0  0
  -28.6721  -15.6543   20.9290 C   0  0  0  0  0  0  0  0  0  0  0  0
  -30.4464  -16.4887   22.3406 C   0  0  0  0  0  0  0  0  0  0  0  0
  -17.6493  -26.6877   23.4242 C   0  0  0  0  0  0  0  0  0  0  0  0
  -19.9476  -26.3852   21.8838 C   0  0  0  0  0  0  0  0  0  0  0  0
  -25.9733  -27.1408   21.0928 C   0  0  0  0  0  0  0  0  0  0  0  0
  -28.8497  -14.3771   21.4607 C   0  0  0  0  0  0  0  0  0  0  0  0
  -30.6241  -15.2115   22.8723 C   0  0  0  0  0  0  0  0  0  0  0  0
  -26.7969  -27.0061   19.9760 C   0  0  0  0  0  0  0  0  0  0  0  0
  -29.1192  -13.2391   25.1670 C   0  0  0  0  0  0  0  0  0  0  0  0
  -29.2598  -13.1285   26.5503 C   0  0  0  0  0  0  0  0  0  0  0  0
  -26.6308  -29.3790   19.5748 C   0  0  0  0  0  0  0  0  0  0  0  0
  -32.2663  -27.4736   20.0357 C   0  0  0  0  0  0  0  0  0  0  0  0
  -31.4419  -12.1362   26.2491 C   0  0  0  0  0  0  0  0  0  0  0  0
  -29.4705  -16.7102   21.3689 C   0  0  0  0  0  0  0  0  0  0  0  0
  -28.4319  -19.0391   21.2992 C   0  0  0  0  0  0  0  0  0  0  0  0
  -18.2919  -27.8276   22.9161 C   0  0  0  0  0  0  0  0  0  0  0  0
  -25.4626  -28.3960   21.4533 C   0  0  0  0  0  0  0  0  0  0  0  0
  -19.4488  -27.6760   22.1280 C   0  0  0  0  0  0  0  0  0  0  0  0
  -25.8030  -29.5274   20.6982 C   0  0  0  0  0  0  0  0  0  0  0  0
  -31.5505  -28.2965   19.1663 C   0  0  0  0  0  0  0  0  0  0  0  0
  -32.2596  -26.0909   19.8516 C   0  0  0  0  0  0  0  0  0  0  0  0
  -30.8278  -27.7368   18.1127 C   0  0  0  0  0  0  0  0  0  0  0  0
  -30.8210  -26.3541   17.9285 C   0  0  0  0  0  0  0  0  0  0  0  0
  -31.5369  -25.5312   18.7980 C   0  0  0  0  0  0  0  0  0  0  0  0
  -29.8257  -14.1557   22.4324 C   0  0  0  0  0  0  0  0  0  0  0  0
  -27.1234  -28.1248   19.2151 C   0  0  0  0  0  0  0  0  0  0  0  0
  -30.1399  -12.7983   24.3247 C   0  0  0  0  0  0  0  0  0  0  0  0
  -30.4212  -12.5771   27.0914 C   0  0  0  0  0  0  0  0  0  0  0  0
  -31.3013  -12.2469   24.8658 C   0  0  0  0  0  0  0  0  0  0  0  0
  -29.2879  -18.0297   20.8196 C   0  0  0  0  0  0  0  0  0  0  0  0
  -28.6244  -20.0908   20.4370 C   0  0  0  0  0  0  0  0  0  0  0  0
  -27.5424  -19.0273   22.4236 C   0  0  0  0  0  0  0  0  0  0  0  0
  -22.5499  -29.6419   21.7143 C   0  0  0  0  0  0  0  0  0  0  0  0
  -24.1690  -32.1860   22.9095 C   0  0  0  0  0  0  0  0  0  0  0  0
  -27.0974  -33.9283   23.0969 C   0  0  0  0  0  0  0  0  0  0  0  0
  -31.9730  -23.4230   17.4897 C   0  0  0  0  0  0  0  0  0  0  0  0
  -17.6806  -29.1818   23.1754 C   0  0  0  0  0  0  0  0  0  0  0  0
  -24.5972  -28.5287   22.6764 C   0  0  0  0  0  0  0  0  0  0  0  0
  -25.2972  -30.9005   21.0548 C   0  0  0  0  0  0  0  0  0  0  0  0
  -18.6332  -30.3427   22.9017 C   0  0  0  0  0  0  0  0  0  0  0  0
  -31.0652  -20.3151   16.0083 C   0  0  0  0  0  0  0  0  0  0  0  0
  -19.3402  -30.1491   21.5640 C   0  0  0  0  0  0  0  0  0  0  0  0
  -30.4515  -19.5265   17.1674 C   0  0  0  0  0  0  0  0  0  0  0  0
  -32.2422  -21.1742   16.4671 C   0  0  0  0  0  0  0  0  0  0  0  0
  -31.3429  -21.2761   18.7584 C   0  0  0  0  0  0  0  0  0  0  0  0
  -20.1885  -28.8716   21.5682 C   0  0  1  0  0  0  0  0  0  0  0  0
  -23.7160  -29.7739   22.6526 C   0  0  1  0  0  0  0  0  0  0  0  0
  -30.1128  -20.4456   18.3574 C   0  0  2  0  0  0  0  0  0  0  0  0
  -31.5756  -29.7739   19.3847 C   0  0  0  0  0  0  0  0  0  0  0  0
  -30.0436  -25.7585   16.7963 C   0  0  0  0  0  0  0  0  0  0  0  0
  -28.1025  -35.9874   24.1204 C   0  0  0  0  0  0  0  0  0  0  0  0
  -34.5375  -25.5795   20.7906 C   0  0  0  0  0  0  0  0  0  0  0  0
  -32.4942  -25.3231   22.2365 C   0  0  0  0  0  0  0  0  0  0  0  0
  -22.7357  -33.9110   20.8406 C   0  0  0  0  0  0  0  0  0  0  0  0
  -24.4344  -35.7019   21.2594 C   0  0  0  0  0  0  0  0  0  0  0  0
  -22.9361  -34.9500   23.1067 C   0  0  0  0  0  0  0  0  0  0  0  0
  -29.0855  -32.3450   24.6134 C   0  0  0  0  0  0  0  0  0  0  0  0
  -30.0542  -28.6302   17.1737 C   0  0  0  0  0  0  0  0  0  0  0  0
  -28.7434  -29.1154   17.7832 C   0  0  0  0  0  0  0  0  0  1  0  0
  -24.7950  -33.4272   22.3209 C   0  0  1  0  0  0  0  0  0  0  0  0
  -27.8582  -34.4950   24.2820 C   0  0  2  0  0  0  0  0  0  0  0  0
  -33.0373  -25.2358   20.7990 C   0  0  0  0  0  0  0  0  0  0  0  0
  -23.7334  -34.4715   21.8738 C   0  0  0  0  0  0  0  0  0  0  0  0
  -29.9731  -18.4061   19.7367 N   0  0  0  0  0  0  0  0  0  0  0  0
  -29.5477  -19.6638   19.5286 N   0  0  0  0  0  0  0  0  0  0  0  0
  -24.4492  -30.9777   22.2558 N   0  0  0  0  0  0  0  0  0  0  0  0
  -31.8459  -22.0216   17.5940 N   0  0  0  0  0  0  0  0  0  0  0  0
  -28.0921  -21.3299   20.3749 N   0  0  0  0  0  0  0  0  0  0  0  0
  -27.4671  -17.8654   23.2038 N   0  0  0  0  0  0  0  0  0  0  0  0
  -31.5343  -24.1266   18.6109 N   0  0  0  0  0  0  0  0  0  0  0  0
  -21.4234  -29.0873   22.2913 N   0  0  0  0  0  0  0  0  0  0  0  0
  -25.7366  -33.9222   23.3193 N   0  0  0  0  0  0  0  0  0  0  0  0
  -29.1770  -33.8156   24.4238 N   0  3  0  0  0  0  0  0  0  0  0  0
  -26.8230  -20.0119   22.7178 O   0  0  0  0  0  0  0  0  0  0  0  0
  -22.6634  -30.0168   20.5531 O   0  0  0  0  0  0  0  0  0  0  0  0
  -23.4632  -32.2840   23.9164 O   0  0  0  0  0  0  0  0  0  0  0  0
  -27.6543  -33.5342   22.0746 O   0  0  0  0  0  0  0  0  0  0  0  0
  -32.4114  -23.9607   16.4696 O   0  0  0  0  0  0  0  0  0  0  0  0
  -29.9991  -12.9095   22.9516 O   0  0  0  0  0  0  0  0  0  0  0  0
  -27.9266  -27.9961   18.1241 O   0  0  0  0  0  0  0  0  0  1  0  0
  -30.5567  -12.4723   28.4199 F   0  0  0  0  0  0  0  0  0  0  0  0
  -32.2858  -11.8227   24.0617 F   0  0  0  0  0  0  0  0  0  0  0  0
  -32.9782  -23.8921   20.4774 F   0  0  0  0  0  0  0  0  0  0  0  0
  1  2  1  0  0  0  0
  1  5  2  0  0  0  0
  2  6  2  0  0  0  0
  3  8  2  0  0  0  0
  3 16  1  0  0  0  0
  4  9  1  0  0  0  0
  4 16  2  0  0  0  0
  5 18  1  0  0  0  0
  6 20  1  0  0  0  0
  7 10  2  0  0  0  0
  7 19  1  0  0  0  0
  8 27  1  0  0  0  0
  9 27  2  0  0  0  0
 10 28  1  0  0  0  0
 11 12  2  0  0  0  0
 11 29  1  0  0  0  0
 12 30  1  0  0  0  0
 13 21  1  0  0  0  0
 13 28  2  0  0  0  0
 14 22  2  0  0  0  0
 14 23  1  0  0  0  0
 15 30  2  0  0  0  0
 15 31  1  0  0  0  0
 16 32  1  0  0  0  0
 17 32  1  0  0  0  0
 17 33  2  0  0  0  0
 17 34  1  0  0  0  0
 18 20  2  0  0  0  0
 18 39  1  0  0  0  0
 19 21  2  0  0  0  0
 19 40  1  0  0  0  0
 20 48  1  0  0  0  0
 21 41  1  0  0  0  0
 22 24  1  0  0  0  0
 22 51  1  0  0  0  0
 23 26  2  0  0  0  0
 23 64  1  0  0  0  0
 24 25  2  0  0  0  0
 24 60  1  0  0  0  0
 25 26  1  0  0  0  0
 25 52  1  0  0  0  0
 26 72  1  0  0  0  0
 27 81  1  0  0  0  0
 28 82  1  0  0  0  0
 29 31  2  0  0  0  0
 29 81  1  0  0  0  0
 30 83  1  0  0  0  0
 31 84  1  0  0  0  0
 32 66  2  0  0  0  0
 33 67  1  0  0  0  0
 33 70  1  0  0  0  0
 34 71  1  0  0  0  0
 34 76  2  0  0  0  0
 35 49  1  0  0  0  0
 35 73  1  0  0  0  0
 35 77  2  0  0  0  0
 36 62  1  0  0  0  0
 36 68  1  0  0  0  0
 36 78  2  0  0  0  0
 37 63  1  0  0  0  0
 37 74  1  0  0  0  0
 37 79  2  0  0  0  0
 38 69  1  0  0  0  0
 38 72  1  0  0  0  0
 38 80  2  0  0  0  0
 39 42  1  0  0  0  0
 40 49  1  0  0  0  0
 41 68  1  0  0  0  0
 42 44  1  0  0  0  0
 43 45  1  0  0  0  0
 43 46  1  0  0  0  0
 44 48  1  0  0  0  0
 45 50  1  0  0  0  0
 46 69  1  0  0  0  0
 47 50  1  0  0  0  0
 47 69  1  0  0  0  0
 48 73  1  0  0  0  0
 49 68  1  0  0  0  0
 50 67  1  0  0  0  0
 53 63  1  0  0  0  0
 54 64  1  0  0  0  0
 55 64  1  0  0  0  0
 56 65  1  0  0  0  0
 57 65  1  0  0  0  0
 58 65  1  0  0  0  0
 59 75  1  0  0  0  0
 60 61  1  0  0  0  0
 61 82  1  0  0  0  0
 62 65  1  0  0  0  0
 62 74  1  0  0  0  0
 63 75  1  0  0  0  0
 64 85  1  0  0  0  0
 66 67  1  0  0  0  0
M  CHG  1  75   1
M  ISO  4  38 100  61 101  72 100  82 101
M  END
> <Batch ID>
0020

> <Smiles>
CNC(C)C(=O)NC(C(=O)N1Cc2cc([101O:1][101CH2:1]Cc3c(C)cc(C(C)(C)F)c([100NH:0][100C:0](=O)N4CCCC(n5nc(-c6ccc(Oc7ccc(F)cc7F)cc6)c(C(N)=O)c5N)C4)c3C)ccc2CC1C(=O)NC1CCCc2ccccc21)C(C)(C)C

> <Shape>
0.246

> <Color>
0.093

> <Negative vol penalty>
0.000

$$$$

  -OEChem-04052316093D

 87 95  0     1  0  0  0  0  0999 V2000
  -28.4563  -11.4070   19.2545 C   0  0  0  0  0  0  0  0  0  0  0  0
  -28.1133  -12.0244   20.4531 C   0  0  0  0  0  0  0  0  0  0  0  0
  -23.9580  -31.9767   20.9296 C   0  0  0  0  0  0  0  0  0  0  0  0
  -25.4247  -30.3164   21.8938 C   0  0  0  0  0  0  0  0  0  0  0  0
  -29.3816  -12.0078   18.4021 C   0  0  0  0  0  0  0  0  0  0  0  0
  -28.6963  -13.2426   20.8004 C   0  0  0  0  0  0  0  0  0  0  0  0
  -25.3241  -16.5701   22.5896 C   0  0  0  0  0  0  0  0  0  0  0  0
  -24.8595  -32.9798   21.2856 C   0  0  0  0  0  0  0  0  0  0  0  0
  -26.3262  -31.3196   22.2498 C   0  0  0  0  0  0  0  0  0  0  0  0
  -24.9034  -16.4037   23.9083 C   0  0  0  0  0  0  0  0  0  0  0  0
  -25.7037  -34.6947   24.0732 C   0  0  0  0  0  0  0  0  0  0  0  0
  -25.1879  -35.8501   24.6601 C   0  0  0  0  0  0  0  0  0  0  0  0
  -26.4301  -18.1356   24.6075 C   0  0  0  0  0  0  0  0  0  0  0  0
  -20.3562  -22.0420   26.7992 C   0  0  0  0  0  0  0  0  0  0  0  0
  -26.0897  -37.1721   22.8501 C   0  0  0  0  0  0  0  0  0  0  0  0
  -24.2406  -30.6450   21.2338 C   0  0  0  0  0  0  0  0  0  0  0  0
  -23.2786  -28.8811   19.6619 C   0  0  0  0  0  0  0  0  0  0  0  0
  -29.9690  -13.2387   18.7345 C   0  0  0  0  0  0  0  0  0  0  0  0
  -26.3105  -17.5145   22.2709 C   0  0  0  0  0  0  0  0  0  0  0  0
  -29.6313  -13.8598   19.9522 C   0  0  0  0  0  0  0  0  0  0  0  0
  -26.8597  -18.3139   23.2836 C   0  0  0  0  0  0  0  0  0  0  0  0
  -21.6756  -21.5965   26.8788 C   0  0  0  0  0  0  0  0  0  0  0  0
  -22.6927  -22.3123   26.2474 C   0  0  0  0  0  0  0  0  0  0  0  0
  -21.0710  -23.9191   25.4566 C   0  0  0  0  0  0  0  0  0  0  0  0
  -26.0435  -32.6512   21.9457 C   0  0  0  0  0  0  0  0  0  0  0  0
  -25.4585  -17.1845   24.9179 C   0  0  0  0  0  0  0  0  0  0  0  0
  -26.4127  -34.7779   22.8748 C   0  0  0  0  0  0  0  0  0  0  0  0
  -22.3905  -23.4736   25.5362 C   0  0  0  0  0  0  0  0  0  0  0  0
  -25.3808  -37.0888   24.0485 C   0  0  0  0  0  0  0  0  0  0  0  0
  -20.0539  -23.2033   26.0880 C   0  0  0  0  0  0  0  0  0  0  0  0
  -26.6056  -36.0166   22.2632 C   0  0  0  0  0  0  0  0  0  0  0  0
  -23.3095  -29.6084   20.8668 C   0  0  0  0  0  0  0  0  0  0  0  0
  -22.2152  -28.0238   19.8055 C   0  0  0  0  0  0  0  0  0  0  0  0
  -24.1348  -28.9721   18.5154 C   0  0  0  0  0  0  0  0  0  0  0  0
  -29.2279  -17.3750   21.0167 C   0  0  0  0  0  0  0  0  0  0  0  0
  -28.9902  -20.6093   21.0881 C   0  0  0  0  0  0  0  0  0  0  0  0
  -27.5546  -23.3790   22.4718 C   0  0  0  0  0  0  0  0  0  0  0  0
  -19.4870  -25.6659   24.5701 C   0  0  0  0  0  0  0  0  0  0  0  0
  -30.9995  -13.8264   17.8033 C   0  0  0  0  0  0  0  0  0  0  0  0
  -26.7341  -17.7004   20.8397 C   0  0  0  0  0  0  0  0  0  0  0  0
  -27.9071  -19.3559   22.9910 C   0  0  0  0  0  0  0  0  0  0  0  0
  -31.2906  -15.3011   18.0696 C   0  0  0  0  0  0  0  0  0  0  0  0
  -17.9849  -27.6422   22.0177 C   0  0  0  0  0  0  0  0  0  0  0  0
  -31.4898  -15.5448   19.5621 C   0  0  0  0  0  0  0  0  0  0  0  0
  -19.1775  -28.2998   21.3193 C   0  0  0  0  0  0  0  0  0  0  0  0
  -18.2063  -27.5209   23.5243 C   0  0  0  0  0  0  0  0  0  0  0  0
  -20.6508  -27.5190   23.2185 C   0  0  0  0  0  0  0  0  0  0  0  0
  -30.2235  -15.1937   20.3524 C   0  0  1  0  0  0  0  0  0  0  0  0
  -28.1149  -18.3345   20.7028 C   0  0  1  0  0  0  0  0  0  0  0  0
  -20.5017  -27.6040   21.6906 C   0  0  2  0  0  0  0  0  0  0  0  0
  -24.1086  -21.8381   26.3322 C   0  0  0  0  0  0  0  0  0  0  0  0
  -27.5894  -25.8853   22.3498 C   0  0  0  0  0  0  0  0  0  0  0  0
  -31.6312  -20.6447   22.6158 C   0  0  0  0  0  0  0  0  0  0  0  0
  -31.1356  -23.0074   23.2792 C   0  0  0  0  0  0  0  0  0  0  0  0
  -31.4120  -22.4220   20.8701 C   0  0  0  0  0  0  0  0  0  0  0  0
  -24.7011  -23.4966   21.6954 C   0  0  0  0  0  0  0  0  0  0  0  0
  -21.1394  -18.9283   25.7792 C   0  0  0  0  0  0  0  0  0  0  0  0
  -24.0274  -25.1927   25.6818 C   0  0  0  0  0  0  0  0  0  0  0  0
  -21.9741  -20.3444   27.6497 C   0  0  0  0  0  0  0  0  0  0  0  0
  -24.0101  -18.0490   28.1088 C   0  0  0  0  0  0  0  0  0  0  0  0
  -22.6071  -17.9391   27.5311 C   0  0  0  0  0  0  0  0  0  0  0  0
  -25.1005  -18.1721   27.0516 C   0  0  0  0  0  0  0  0  0  1  0  0
  -29.3262  -21.6841   22.0936 C   0  0  1  0  0  0  0  0  0  0  0  0
  -26.9313  -24.6117   21.8421 C   0  0  2  0  0  0  0  0  0  0  0  0
  -30.8579  -21.9187   22.2208 C   0  0  0  0  0  0  0  0  0  0  0  0
  -22.3424  -29.2450   21.7134 N   0  0  0  0  0  0  0  0  0  0  0  0
  -21.6938  -28.2800   21.0394 N   0  0  0  0  0  0  0  0  0  0  0  0
  -28.2929  -19.4956   21.5771 N   0  0  0  0  0  0  0  0  0  0  0  0
  -19.4776  -26.8482   23.8002 N   0  0  0  0  0  0  0  0  0  0  0  0
  -21.6845  -27.0834   18.9953 N   0  0  0  0  0  0  0  0  0  0  0  0
  -25.1792  -29.9066   18.5340 N   0  0  0  0  0  0  0  0  0  0  0  0
  -20.7492  -25.0978   24.7390 N   0  0  0  0  0  0  0  0  0  0  0  0
  -29.2379  -16.2453   20.2210 N   0  0  0  0  0  0  0  0  0  0  0  0
  -28.5716  -22.8671   21.6941 N   0  0  0  0  0  0  0  0  0  0  0  0
  -25.4765  -24.6759   22.1591 N   0  3  0  0  0  0  0  0  0  0  0  0
  -22.2625  -19.1577   26.7619 N   0  3  1  0  0  0  0  0  0  0  0  0
  -23.9682  -28.2578   17.4978 O   0  0  0  0  0  0  0  0  0  0  0  0
  -30.0198  -17.6407   21.9134 O   0  0  0  0  0  0  0  0  0  0  0  0
  -29.3275  -20.7560   19.9107 O   0  0  0  0  0  0  0  0  0  0  0  0
  -27.1795  -22.9187   23.5479 O   0  0  0  0  0  0  0  0  0  0  0  0
  -18.4481  -25.1774   25.0219 O   0  0  0  0  0  0  0  0  0  0  0  0
  -26.9235  -33.6298   22.2930 O   0  0  0  0  0  0  0  0  0  0  0  0
  -23.3872  -24.1727   24.9196 O   0  0  0  0  0  0  0  0  0  0  0  0
  -25.0501  -17.0237   26.2061 O   0  0  0  0  0  0  0  0  0  1  0  0
  -24.8841  -38.1981   24.6114 F   0  0  0  0  0  0  0  0  0  0  0  0
  -18.7820  -23.6216   26.0187 F   0  0  0  0  0  0  0  0  0  0  0  0
  -27.2848  -36.1028   21.1112 F   0  0  0  0  0  0  0  0  0  0  0  0
  1  2  1  0  0  0  0
  1  5  2  0  0  0  0
  2  6  2  0  0  0  0
  3  8  2  0  0  0  0
  3 16  1  0  0  0  0
  4  9  1  0  0  0  0
  4 16  2  0  0  0  0
  5 18  1  0  0  0  0
  6 20  1  0  0  0  0
  7 10  2  0  0  0  0
  7 19  1  0  0  0  0
  8 25  1  0  0  0  0
  9 25  2  0  0  0  0
 10 26  1  0  0  0  0
 11 12  2  0  0  0  0
 11 27  1  0  0  0  0
 12 29  1  0  0  0  0
 13 21  1  0  0  0  0
 13 26  2  0  0  0  0
 14 22  1  0  0  0  0
 14 30  2  0  0  0  0
 15 29  2  0  0  0  0
 15 31  1  0  0  0  0
 16 32  1  0  0  0  0
 17 32  1  0  0  0  0
 17 33  2  0  0  0  0
 17 34  1  0  0  0  0
 18 20  2  0  0  0  0
 18 39  1  0  0  0  0
 19 21  2  0  0  0  0
 19 40  1  0  0  0  0
 20 48  1  0  0  0  0
 21 41  1  0  0  0  0
 22 23  2  0  0  0  0
 22 59  1  0  0  0  0
 23 28  1  0  0  0  0
 23 51  1  0  0  0  0
 24 28  2  0  0  0  0
 24 30  1  0  0  0  0
 24 72  1  0  0  0  0
 25 82  1  0  0  0  0
 26 84  1  0  0  0  0
 27 31  2  0  0  0  0
 27 82  1  0  0  0  0
 28 83  1  0  0  0  0
 29 85  1  0  0  0  0
 30 86  1  0  0  0  0
 31 87  1  0  0  0  0
 32 66  2  0  0  0  0
 33 67  1  0  0  0  0
 33 70  1  0  0  0  0
 34 71  1  0  0  0  0
 34 77  2  0  0  0  0
 35 49  1  0  0  0  0
 35 73  1  0  0  0  0
 35 78  2  0  0  0  0
 36 63  1  0  0  0  0
 36 68  1  0  0  0  0
 36 79  2  0  0  0  0
 37 64  1  0  0  0  0
 37 74  1  0  0  0  0
 37 80  2  0  0  0  0
 38 69  1  0  0  0  0
 38 72  1  0  0  0  0
 38 81  2  0  0  0  0
 39 42  1  0  0  0  0
 40 49  1  0  0  0  0
 41 68  1  0  0  0  0
 42 44  1  0  0  0  0
 43 45  1  0  0  0  0
 43 46  1  0  0  0  0
 44 48  1  0  0  0  0
 45 50  1  0  0  0  0
 46 69  1  0  0  0  0
 47 50  1  0  0  0  0
 47 69  1  0  0  0  0
 48 73  1  0  0  0  0
 49 68  1  0  0  0  0
 50 67  1  0  0  0  0
 52 64  1  0  0  0  0
 53 65  1  0  0  0  0
 54 65  1  0  0  0  0
 55 65  1  0  0  0  0
 56 75  1  0  0  0  0
 57 76  1  0  0  0  0
 58 83  1  0  0  0  0
 59 76  1  0  0  0  0
 60 61  1  0  0  0  0
 60 62  1  0  0  0  0
 61 76  1  0  0  0  0
 62 84  1  0  0  0  0
 63 65  1  0  0  0  0
 63 74  1  0  0  0  0
 64 75  1  0  0  0  0
 66 67  1  0  0  0  0
M  CHG  2  75   1  76   1
M  ISO  4  38 100  62 101  72 100  84 101
M  END
> <Batch ID>
0020

> <Smiles>
CNC(C)C(=O)NC(C(=O)N1Cc2cc([101O:1][101CH2:1]CCN(C)Cc3cc(F)c([100NH:0][100C:0](=O)N4CCCC(n5nc(-c6ccc(Oc7ccc(F)cc7F)cc6)c(C(N)=O)c5N)C4)c(OC)c3C)ccc2CC1C(=O)NC1CCCc2ccccc21)C(C)(C)C

> <Shape>
0.218

> <Color>
0.058

> <Negative vol penalty>
0.000

$$$$

  -OEChem-04052316093D

 82 90  0     1  0  0  0  0  0999 V2000
  -17.2216  -25.6521   23.5399 C   0  0  0  0  0  0  0  0  0  0  0  0
  -18.3215  -25.5539   22.6938 C   0  0  0  0  0  0  0  0  0  0  0  0
  -26.4880  -11.0946   21.1211 C   0  0  0  0  0  0  0  0  0  0  0  0
  -25.5029  -12.6633   19.5700 C   0  0  0  0  0  0  0  0  0  0  0  0
  -16.7957  -26.9028   23.9853 C   0  0  0  0  0  0  0  0  0  0  0  0
  -18.9956  -26.7064   22.2917 C   0  0  0  0  0  0  0  0  0  0  0  0
  -24.0278  -26.2079   22.5618 C   0  0  0  0  0  0  0  0  0  0  0  0
  -25.2188  -10.6096   21.4367 C   0  0  0  0  0  0  0  0  0  0  0  0
  -24.2337  -12.1783   19.8856 C   0  0  0  0  0  0  0  0  0  0  0  0
  -24.6527  -25.4946   21.5398 C   0  0  0  0  0  0  0  0  0  0  0  0
  -22.3217   -9.5070   19.0925 C   0  0  0  0  0  0  0  0  0  0  0  0
  -21.4441   -9.2576   18.0374 C   0  0  0  0  0  0  0  0  0  0  0  0
  -25.2857  -27.5703   20.4862 C   0  0  0  0  0  0  0  0  0  0  0  0
  -29.6327  -21.1305   20.5452 C   0  0  0  0  0  0  0  0  0  0  0  0
  -19.8840  -10.8567   18.9571 C   0  0  0  0  0  0  0  0  0  0  0  0
  -26.6300  -12.1215   20.1878 C   0  0  0  0  0  0  0  0  0  0  0  0
  -28.8002  -12.1605   18.8475 C   0  0  0  0  0  0  0  0  0  0  0  0
  -17.4708  -28.0705   23.5963 C   0  0  0  0  0  0  0  0  0  0  0  0
  -24.0177  -27.6101   22.5479 C   0  0  0  0  0  0  0  0  0  0  0  0
  -18.5775  -27.9740   22.7313 C   0  0  0  0  0  0  0  0  0  0  0  0
  -24.6621  -28.2991   21.5105 C   0  0  0  0  0  0  0  0  0  0  0  0
  -29.0671  -22.3770   20.2768 C   0  0  0  0  0  0  0  0  0  0  0  0
  -27.9124  -21.4427   18.3713 C   0  0  0  0  0  0  0  0  0  0  0  0
  -28.2070  -22.5331   19.1899 C   0  0  0  0  0  0  0  0  0  0  0  0
  -28.4781  -20.1963   18.6397 C   0  0  0  0  0  0  0  0  0  0  0  0
  -29.3382  -20.0402   19.7266 C   0  0  0  0  0  0  0  0  0  0  0  0
  -24.0917  -11.1514   20.8189 C   0  0  0  0  0  0  0  0  0  0  0  0
  -25.2793  -26.1758   20.5003 C   0  0  0  0  0  0  0  0  0  0  0  0
  -21.9804  -10.4312   20.0800 C   0  0  0  0  0  0  0  0  0  0  0  0
  -20.2253   -9.9325   17.9697 C   0  0  0  0  0  0  0  0  0  0  0  0
  -20.7616  -11.1060   20.0123 C   0  0  0  0  0  0  0  0  0  0  0  0
  -27.9408  -12.6234   19.8618 C   0  0  0  0  0  0  0  0  0  0  0  0
  -29.9124  -12.9600   18.9485 C   0  0  0  0  0  0  0  0  0  0  0  0
  -28.6102  -11.1024   17.8988 C   0  0  0  0  0  0  0  0  0  0  0  0
  -21.7526  -29.8357   22.4060 C   0  0  0  0  0  0  0  0  0  0  0  0
  -24.2513  -31.8533   22.8624 C   0  0  0  0  0  0  0  0  0  0  0  0
  -27.6067  -32.4161   22.5959 C   0  0  0  0  0  0  0  0  0  0  0  0
  -30.7943  -18.4785   21.0635 C   0  0  0  0  0  0  0  0  0  0  0  0
  -16.9446  -29.4037   24.0655 C   0  0  0  0  0  0  0  0  0  0  0  0
  -23.3623  -28.3650   23.6717 C   0  0  0  0  0  0  0  0  0  0  0  0
  -24.6971  -29.8040   21.4599 C   0  0  0  0  0  0  0  0  0  0  0  0
  -17.9417  -30.5467   23.8938 C   0  0  0  0  0  0  0  0  0  0  0  0
  -32.4211  -15.5001   22.1405 C   0  0  0  0  0  0  0  0  0  0  0  0
  -18.5702  -30.5027   22.5046 C   0  0  0  0  0  0  0  0  0  0  0  0
  -31.5383  -14.3822   21.5809 C   0  0  0  0  0  0  0  0  0  0  0  0
  -31.5939  -16.6986   22.6022 C   0  0  0  0  0  0  0  0  0  0  0  0
  -29.7798  -16.1151   21.0409 C   0  0  0  0  0  0  0  0  0  0  0  0
  -19.3499  -29.1993   22.2929 C   0  0  1  0  0  0  0  0  0  0  0  0
  -22.9692  -29.7878   23.2865 C   0  0  1  0  0  0  0  0  0  0  0  0
  -30.5727  -14.9128   20.5031 C   0  0  2  0  0  0  0  0  0  0  0  0
  -29.4017  -23.5293   21.1666 C   0  0  0  0  0  0  0  0  0  0  0  0
  -26.9897  -21.6110   17.2053 C   0  0  0  0  0  0  0  0  0  0  0  0
  -28.1618  -19.0281   17.7587 C   0  0  0  0  0  0  0  0  0  0  0  0
  -29.3488  -34.1731   23.0147 C   0  0  0  0  0  0  0  0  0  0  0  0
  -23.3306  -33.3563   20.3718 C   0  0  0  0  0  0  0  0  0  0  0  0
  -25.5747  -34.4639   20.2957 C   0  0  0  0  0  0  0  0  0  0  0  0
  -24.0758  -34.8201   22.2577 C   0  0  0  0  0  0  0  0  0  0  0  0
  -29.0464  -30.6939   24.5247 C   0  0  0  0  0  0  0  0  0  0  0  0
  -27.5977  -23.8836   18.9017 C   0  0  0  0  0  0  0  0  0  0  0  0
  -26.4369  -24.2074   19.8360 C   0  0  0  0  0  0  0  0  0  1  0  0
  -25.2151  -32.5830   21.9582 C   0  0  1  0  0  0  0  0  0  0  0  0
  -28.6172  -32.9681   23.5852 C   0  0  2  0  0  0  0  0  0  0  0  0
  -24.5469  -33.7775   21.2205 C   0  0  0  0  0  0  0  0  0  0  0  0
  -28.4623  -13.6382   20.5562 N   0  0  0  0  0  0  0  0  0  0  0  0
  -29.6614  -13.8195   19.9773 N   0  0  0  0  0  0  0  0  0  0  0  0
  -24.0368  -30.4971   22.5784 N   0  0  0  0  0  0  0  0  0  0  0  0
  -30.7060  -17.1492   21.5282 N   0  0  0  0  0  0  0  0  0  0  0  0
  -31.0708  -13.0046   18.2568 N   0  0  0  0  0  0  0  0  0  0  0  0
  -27.4088  -10.3814   17.9338 N   0  0  0  0  0  0  0  0  0  0  0  0
  -29.9232  -18.7829   20.0180 N   0  0  0  0  0  0  0  0  0  0  0  0
  -20.6288  -29.2601   22.9675 N   0  0  0  0  0  0  0  0  0  0  0  0
  -26.3532  -32.9563   22.7911 N   0  0  0  0  0  0  0  0  0  0  0  0
  -29.6254  -31.9266   23.9312 N   0  3  0  0  0  0  0  0  0  0  0  0
  -29.4867  -10.7943   17.0560 O   0  0  0  0  0  0  0  0  0  0  0  0
  -21.8275  -30.3575   21.2998 O   0  0  0  0  0  0  0  0  0  0  0  0
  -23.7141  -32.4623   23.7909 O   0  0  0  0  0  0  0  0  0  0  0  0
  -27.9008  -31.5912   21.7336 O   0  0  0  0  0  0  0  0  0  0  0  0
  -31.6036  -19.2796   21.5384 O   0  0  0  0  0  0  0  0  0  0  0  0
  -22.8531  -10.6782   21.1264 O   0  0  0  0  0  0  0  0  0  0  0  0
  -25.8894  -25.4820   19.5012 O   0  0  0  0  0  0  0  0  0  1  0  0
  -19.3833   -9.6940   16.9556 F   0  0  0  0  0  0  0  0  0  0  0  0
  -20.4287  -11.9959   20.9574 F   0  0  0  0  0  0  0  0  0  0  0  0
  1  2  1  0  0  0  0
  1  5  2  0  0  0  0
  2  6  2  0  0  0  0
  3  8  2  0  0  0  0
  3 16  1  0  0  0  0
  4  9  1  0  0  0  0
  4 16  2  0  0  0  0
  5 18  1  0  0  0  0
  6 20  1  0  0  0  0
  7 10  2  0  0  0  0
  7 19  1  0  0  0  0
  8 27  1  0  0  0  0
  9 27  2  0  0  0  0
 10 28  1  0  0  0  0
 11 12  2  0  0  0  0
 11 29  1  0  0  0  0
 12 30  1  0  0  0  0
 13 21  1  0  0  0  0
 13 28  2  0  0  0  0
 14 22  2  0  0  0  0
 14 26  1  0  0  0  0
 15 30  2  0  0  0  0
 15 31  1  0  0  0  0
 16 32  1  0  0  0  0
 17 32  1  0  0  0  0
 17 33  2  0  0  0  0
 17 34  1  0  0  0  0
 18 20  2  0  0  0  0
 18 39  1  0  0  0  0
 19 21  2  0  0  0  0
 19 40  1  0  0  0  0
 20 48  1  0  0  0  0
 21 41  1  0  0  0  0
 22 24  1  0  0  0  0
 22 51  1  0  0  0  0
 23 24  2  0  0  0  0
 23 25  1  0  0  0  0
 23 52  1  0  0  0  0
 24 59  1  0  0  0  0
 25 26  2  0  0  0  0
 25 53  1  0  0  0  0
 26 70  1  0  0  0  0
 27 79  1  0  0  0  0
 28 80  1  0  0  0  0
 29 31  2  0  0  0  0
 29 79  1  0  0  0  0
 30 81  1  0  0  0  0
 31 82  1  0  0  0  0
 32 64  2  0  0  0  0
 33 65  1  0  0  0  0
 33 68  1  0  0  0  0
 34 69  1  0  0  0  0
 34 74  2  0  0  0  0
 35 49  1  0  0  0  0
 35 71  1  0  0  0  0
 35 75  2  0  0  0  0
 36 61  1  0  0  0  0
 36 66  1  0  0  0  0
 36 76  2  0  0  0  0
 37 62  1  0  0  0  0
 37 72  1  0  0  0  0
 37 77  2  0  0  0  0
 38 67  1  0  0  0  0
 38 70  1  0  0  0  0
 38 78  2  0  0  0  0
 39 42  1  0  0  0  0
 40 49  1  0  0  0  0
 41 66  1  0  0  0  0
 42 44  1  0  0  0  0
 43 45  1  0  0  0  0
 43 46  1  0  0  0  0
 44 48  1  0  0  0  0
 45 50  1  0  0  0  0
 46 67  1  0  0  0  0
 47 50  1  0  0  0  0
 47 67  1  0  0  0  0
 48 71  1  0  0  0  0
 49 66  1  0  0  0  0
 50 65  1  0  0  0  0
 54 62  1  0  0  0  0
 55 63  1  0  0  0  0
 56 63  1  0  0  0  0
 57 63  1  0  0  0  0
 58 73  1  0  0  0  0
 59 60  1  0  0  0  0
 60 80  1  0  0  0  0
 61 63  1  0  0  0  0
 61 72  1  0  0  0  0
 62 73  1  0  0  0  0
 64 65  1  0  0  0  0
M  CHG  1  73   1
M  ISO  4  38 100  60 101  70 100  80 101
M  END
> <Batch ID>
0020

> <Smiles>
CNC(C)C(=O)NC(C(=O)N1Cc2cc([101O:1][101CH2:1]Cc3c(C)cc([100NH:0][100C:0](=O)N4CCCC(n5nc(-c6ccc(Oc7ccc(F)cc7F)cc6)c(C(N)=O)c5N)C4)c(C)c3C)ccc2CC1C(=O)NC1CCCc2ccccc21)C(C)(C)C

> <Shape>
0.312

> <Color>
0.068

> <Negative vol penalty>
0.000

$$$$

  -OEChem-04052316093D

 92100  0     1  0  0  0  0  0999 V2000
  -16.6118  -29.3752   24.0266 C   0  0  0  0  0  0  0  0  0  0  0  0
  -17.0364  -28.5402   22.9980 C   0  0  0  0  0  0  0  0  0  0  0  0
  -20.0814  -17.0273   24.4489 C   0  0  0  0  0  0  0  0  0  0  0  0
  -22.1201  -18.1781   23.8520 C   0  0  0  0  0  0  0  0  0  0  0  0
  -17.4041  -30.4530   24.4199 C   0  0  0  0  0  0  0  0  0  0  0  0
  -18.2530  -28.7832   22.3614 C   0  0  0  0  0  0  0  0  0  0  0  0
  -23.4561  -23.8020   22.2811 C   0  0  0  0  0  0  0  0  0  0  0  0
  -19.9655  -17.8233   25.5884 C   0  0  0  0  0  0  0  0  0  0  0  0
  -22.0042  -18.9743   24.9915 C   0  0  0  0  0  0  0  0  0  0  0  0
  -24.4202  -22.8227   22.0408 C   0  0  0  0  0  0  0  0  0  0  0  0
  -22.0526  -21.5536   27.5533 C   0  0  0  0  0  0  0  0  0  0  0  0
  -22.2736  -22.9236   27.4133 C   0  0  0  0  0  0  0  0  0  0  0  0
  -25.7928  -24.4428   20.8835 C   0  0  0  0  0  0  0  0  0  0  0  0
  -30.3083  -13.1861   19.0736 C   0  0  0  0  0  0  0  0  0  0  0  0
  -20.4551  -23.0551   25.8281 C   0  0  0  0  0  0  0  0  0  0  0  0
  -21.1587  -17.2046   23.5807 C   0  0  0  0  0  0  0  0  0  0  0  0
  -20.7553  -16.6471   21.1243 C   0  0  0  0  0  0  0  0  0  0  0  0
  -18.6355  -30.7036   23.7943 C   0  0  0  0  0  0  0  0  0  0  0  0
  -23.6640  -25.1106   21.8364 C   0  0  0  0  0  0  0  0  0  0  0  0
  -19.0618  -29.8661   22.7458 C   0  0  0  0  0  0  0  0  0  0  0  0
  -24.8364  -25.4308   21.1322 C   0  0  0  0  0  0  0  0  0  0  0  0
  -29.2997  -12.6078   18.3029 C   0  0  0  0  0  0  0  0  0  0  0  0
  -30.0231  -13.6581   20.3549 C   0  0  0  0  0  0  0  0  0  0  0  0
  -28.0060  -12.5016   18.8133 C   0  0  0  0  0  0  0  0  0  0  0  0
  -27.7208  -12.9737   20.0946 C   0  0  0  0  0  0  0  0  0  0  0  0
  -20.9269  -18.7969   25.8597 C   0  0  0  0  0  0  0  0  0  0  0  0
  -25.5855  -23.1423   21.3436 C   0  0  0  0  0  0  0  0  0  0  0  0
  -21.0328  -20.9342   26.8307 C   0  0  0  0  0  0  0  0  0  0  0  0
  -21.4749  -23.6744   26.5508 C   0  0  0  0  0  0  0  0  0  0  0  0
  -20.2341  -21.6850   25.9681 C   0  0  0  0  0  0  0  0  0  0  0  0
  -28.7294  -13.5519   20.8653 C   0  0  0  0  0  0  0  0  0  0  0  0
  -21.2792  -16.3822   22.4038 C   0  0  0  0  0  0  0  0  0  0  0  0
  -21.1421  -15.5698   20.3651 C   0  0  0  0  0  0  0  0  0  0  0  0
  -19.9876  -17.7668   20.6632 C   0  0  0  0  0  0  0  0  0  0  0  0
  -22.3575  -28.6216   21.6313 C   0  0  0  0  0  0  0  0  0  0  0  0
  -25.3661  -28.8219   22.1960 C   0  0  0  0  0  0  0  0  0  0  0  0
  -28.6091  -28.6044   23.2318 C   0  0  0  0  0  0  0  0  0  0  0  0
  -25.6672  -11.6907   20.7898 C   0  0  0  0  0  0  0  0  0  0  0  0
  -19.4352  -31.9087   24.2221 C   0  0  0  0  0  0  0  0  0  0  0  0
  -22.6250  -26.1834   22.0190 C   0  0  0  0  0  0  0  0  0  0  0  0
  -25.0016  -26.8435   20.6424 C   0  0  0  0  0  0  0  0  0  0  0  0
  -20.8861  -31.8762   23.7489 C   0  0  0  0  0  0  0  0  0  0  0  0
  -22.1933  -10.9123   20.7346 C   0  0  0  0  0  0  0  0  0  0  0  0
  -20.9587  -31.4869   22.2758 C   0  0  0  0  0  0  0  0  0  0  0  0
  -21.5168  -12.2520   21.0339 C   0  0  0  0  0  0  0  0  0  0  0  0
  -23.4904  -10.7431   21.5237 C   0  0  0  0  0  0  0  0  0  0  0  0
  -23.7740  -13.1851   21.6830 C   0  0  0  0  0  0  0  0  0  0  0  0
  -20.3869  -30.0824   22.0476 C   0  0  1  0  0  0  0  0  0  0  0  0
  -23.2323  -27.5770   22.2598 C   0  0  1  0  0  0  0  0  0  0  0  0
  -22.4970  -13.4291   20.8624 C   0  0  2  0  0  0  0  0  0  0  0  0
  -29.6313  -12.1119   16.9331 C   0  0  0  0  0  0  0  0  0  0  0  0
  -26.9299  -11.8805   17.9783 C   0  0  0  0  0  0  0  0  0  0  0  0
  -31.7950  -11.3411   23.7346 C   0  0  0  0  0  0  0  0  0  0  0  0
  -30.5795  -30.0303   23.8494 C   0  0  0  0  0  0  0  0  0  0  0  0
  -32.5279  -14.3123   20.4206 C   0  0  0  0  0  0  0  0  0  0  0  0
  -25.8589  -29.4129   19.2444 C   0  0  0  0  0  0  0  0  0  0  0  0
  -28.2301  -29.9690   19.8248 C   0  0  0  0  0  0  0  0  0  0  0  0
  -26.3636  -31.3148   20.7880 C   0  0  0  0  0  0  0  0  0  0  0  0
  -28.6910  -27.5049   25.9783 C   0  0  0  0  0  0  0  0  0  0  0  0
  -31.6767  -12.0079   22.3710 C   0  0  0  0  0  0  0  0  0  0  0  0
  -28.9198  -18.7639   19.9428 C   0  0  0  0  0  0  0  0  0  0  0  0
  -29.7006  -17.9698   20.9915 C   0  0  0  0  0  0  0  0  0  0  0  0
  -28.5402  -20.1512   20.4643 C   0  0  0  0  0  0  0  0  0  0  0  0
  -30.0517  -16.5686   20.4818 C   0  0  0  0  0  0  0  0  0  0  0  0
  -27.7242  -20.9297   19.4282 C   0  0  0  0  0  0  0  0  0  0  0  0
  -31.3698  -13.5059   22.5123 C   0  0  0  0  0  0  0  0  0  0  0  0
  -30.8042  -15.7655   21.5543 C   0  0  0  0  0  0  0  0  0  0  0  0
  -27.3117  -22.3064   19.9350 C   0  0  0  0  0  0  0  0  0  1  0  0
  -26.7540  -28.9608   21.6236 C   0  0  1  0  0  0  0  0  0  0  0  0
  -29.3538  -29.2907   24.3626 C   0  0  2  0  0  0  0  0  0  0  0  0
  -31.1703  -14.2895   21.1675 C   0  0  2  0  0  0  0  0  0  0  0  0
  -26.7907  -29.8890   20.3768 C   0  0  0  0  0  0  0  0  0  0  0  0
  -21.9477  -15.2271   22.4582 N   0  0  0  0  0  0  0  0  0  0  0  0
  -21.8465  -14.7567   21.2034 N   0  0  0  0  0  0  0  0  0  0  0  0
  -24.5709  -27.7897   21.6835 N   0  0  0  0  0  0  0  0  0  0  0  0
  -24.3712  -11.8934   21.3093 N   0  0  0  0  0  0  0  0  0  0  0  0
  -20.9450  -15.2483   19.0689 N   0  0  0  0  0  0  0  0  0  0  0  0
  -19.6784  -18.7857   21.5747 N   0  0  0  0  0  0  0  0  0  0  0  0
  -26.4011  -12.8609   20.5981 N   0  0  0  0  0  0  0  0  0  0  0  0
  -21.3436  -29.0752   22.4533 N   0  0  0  0  0  0  0  0  0  0  0  0
  -27.6064  -29.4021   22.7223 N   0  0  0  0  0  0  0  0  0  0  0  0
  -29.7979  -28.2894   25.3731 N   0  3  0  0  0  0  0  0  0  0  0  0
  -19.5737  -17.8532   19.4822 O   0  0  0  0  0  0  0  0  0  0  0  0
  -22.5856  -28.9909   20.4853 O   0  0  0  0  0  0  0  0  0  0  0  0
  -24.9924  -29.6094   23.0698 O   0  0  0  0  0  0  0  0  0  0  0  0
  -28.8912  -27.4751   22.8372 O   0  0  0  0  0  0  0  0  0  0  0  0
  -26.0847  -10.5644   20.5084 O   0  0  0  0  0  0  0  0  0  0  0  0
  -20.8141  -19.5740   26.9713 O   0  0  0  0  0  0  0  0  0  0  0  0
  -26.5317  -22.1752   21.1146 O   0  0  0  0  0  0  0  0  0  1  0  0
  -21.6863  -24.9904   26.4176 F   0  0  0  0  0  0  0  0  0  0  0  0
  -19.2521  -21.0957   25.2721 F   0  0  0  0  0  0  0  0  0  0  0  0
  -28.3848  -14.1426   22.4592 Cl  0  0  0  0  0  0  0  0  0  0  0  0
  1  2  1  0  0  0  0
  1  5  2  0  0  0  0
  2  6  2  0  0  0  0
  3  8  2  0  0  0  0
  3 16  1  0  0  0  0
  4  9  1  0  0  0  0
  4 16  2  0  0  0  0
  5 18  1  0  0  0  0
  6 20  1  0  0  0  0
  7 10  2  0  0  0  0
  7 19  1  0  0  0  0
  8 26  1  0  0  0  0
  9 26  2  0  0  0  0
 10 27  1  0  0  0  0
 11 12  2  0  0  0  0
 11 28  1  0  0  0  0
 12 29  1  0  0  0  0
 13 21  1  0  0  0  0
 13 27  2  0  0  0  0
 14 22  2  0  0  0  0
 14 23  1  0  0  0  0
 15 29  2  0  0  0  0
 15 30  1  0  0  0  0
 16 32  1  0  0  0  0
 17 32  1  0  0  0  0
 17 33  2  0  0  0  0
 17 34  1  0  0  0  0
 18 20  2  0  0  0  0
 18 39  1  0  0  0  0
 19 21  2  0  0  0  0
 19 40  1  0  0  0  0
 20 48  1  0  0  0  0
 21 41  1  0  0  0  0
 22 24  1  0  0  0  0
 22 51  1  0  0  0  0
 23 31  2  0  0  0  0
 23 71  1  0  0  0  0
 24 25  2  0  0  0  0
 24 52  1  0  0  0  0
 25 31  1  0  0  0  0
 25 79  1  0  0  0  0
 26 88  1  0  0  0  0
 27 89  1  0  0  0  0
 28 30  2  0  0  0  0
 28 88  1  0  0  0  0
 29 90  1  0  0  0  0
 30 91  1  0  0  0  0
 31 92  1  0  0  0  0
 32 73  2  0  0  0  0
 33 74  1  0  0  0  0
 33 77  1  0  0  0  0
 34 78  1  0  0  0  0
 34 83  2  0  0  0  0
 35 49  1  0  0  0  0
 35 80  1  0  0  0  0
 35 84  2  0  0  0  0
 36 69  1  0  0  0  0
 36 75  1  0  0  0  0
 36 85  2  0  0  0  0
 37 70  1  0  0  0  0
 37 81  1  0  0  0  0
 37 86  2  0  0  0  0
 38 76  1  0  0  0  0
 38 79  1  0  0  0  0
 38 87  2  0  0  0  0
 39 42  1  0  0  0  0
 40 49  1  0  0  0  0
 41 75  1  0  0  0  0
 42 44  1  0  0  0  0
 43 45  1  0  0  0  0
 43 46  1  0  0  0  0
 44 48  1  0  0  0  0
 45 50  1  0  0  0  0
 46 76  1  0  0  0  0
 47 50  1  0  0  0  0
 47 76  1  0  0  0  0
 48 80  1  0  0  0  0
 49 75  1  0  0  0  0
 50 74  1  0  0  0  0
 53 60  1  0  0  0  0
 54 70  1  0  0  0  0
 55 71  1  0  0  0  0
 56 72  1  0  0  0  0
 57 72  1  0  0  0  0
 58 72  1  0  0  0  0
 59 82  1  0  0  0  0
 60 66  1  0  0  0  0
 61 62  1  0  0  0  0
 61 63  1  0  0  0  0
 62 64  1  0  0  0  0
 63 65  1  0  0  0  0
 64 67  1  0  0  0  0
 65 68  1  0  0  0  0
 66 71  1  0  0  0  0
 67 71  1  0  0  0  0
 68 89  1  0  0  0  0
 69 72  1  0  0  0  0
 69 81  1  0  0  0  0
 70 82  1  0  0  0  0
 73 74  1  0  0  0  0
M  CHG  1  82   1
M  ISO  4  38 100  68 101  79 100  89 101
M  END
> <Batch ID>
0020

> <Smiles>
CCCC(C)(CCCCCC[101CH2:1][101O:1]c1ccc2c(c1)CN(C(=O)C(NC(=O)C(C)NC)C(C)(C)C)C(C(=O)NC1CCCc3ccccc31)C2)c1cc(C)c(C)c([100NH:0][100C:0](=O)N2CCCC(n3nc(-c4ccc(Oc5ccc(F)cc5F)cc4)c(C(N)=O)c3N)C2)c1Cl

> <Shape>
0.239

> <Color>
0.059

> <Negative vol penalty>
0.000

$$$$

  -OEChem-04052316093D

 82 90  0     1  0  0  0  0  0999 V2000
  -17.2029  -25.6603   23.5374 C   0  0  0  0  0  0  0  0  0  0  0  0
  -18.3008  -25.5620   22.6886 C   0  0  0  0  0  0  0  0  0  0  0  0
  -26.4992  -11.0797   21.1277 C   0  0  0  0  0  0  0  0  0  0  0  0
  -25.5072  -12.6331   19.5656 C   0  0  0  0  0  0  0  0  0  0  0  0
  -16.7811  -26.9105   23.9878 C   0  0  0  0  0  0  0  0  0  0  0  0
  -18.9768  -26.7142   22.2888 C   0  0  0  0  0  0  0  0  0  0  0  0
  -24.0084  -26.2025   22.5466 C   0  0  0  0  0  0  0  0  0  0  0  0
  -25.2324  -10.5896   21.4448 C   0  0  0  0  0  0  0  0  0  0  0  0
  -24.2404  -12.1429   19.8827 C   0  0  0  0  0  0  0  0  0  0  0  0
  -24.6294  -25.4910   21.5210 C   0  0  0  0  0  0  0  0  0  0  0  0
  -22.3444   -9.4560   19.1040 C   0  0  0  0  0  0  0  0  0  0  0  0
  -21.4696   -9.1950   18.0495 C   0  0  0  0  0  0  0  0  0  0  0  0
  -25.2652  -27.5685   20.4728 C   0  0  0  0  0  0  0  0  0  0  0  0
  -29.5979  -21.1197   20.5022 C   0  0  0  0  0  0  0  0  0  0  0  0
  -19.8993  -10.7910   18.9573 C   0  0  0  0  0  0  0  0  0  0  0  0
  -26.6366  -12.1016   20.1881 C   0  0  0  0  0  0  0  0  0  0  0  0
  -28.8082  -12.1444   18.8502 C   0  0  0  0  0  0  0  0  0  0  0  0
  -17.4582  -28.0778   23.6010 C   0  0  0  0  0  0  0  0  0  0  0  0
  -24.0017  -27.6048   22.5372 C   0  0  0  0  0  0  0  0  0  0  0  0
  -18.5628  -27.9814   22.7334 C   0  0  0  0  0  0  0  0  0  0  0  0
  -24.6457  -28.2955   21.5007 C   0  0  0  0  0  0  0  0  0  0  0  0
  -29.0333  -22.3677   20.2389 C   0  0  0  0  0  0  0  0  0  0  0  0
  -28.1714  -22.5283   19.1540 C   0  0  0  0  0  0  0  0  0  0  0  0
  -27.8740  -21.4410   18.3324 C   0  0  0  0  0  0  0  0  0  0  0  0
  -29.3007  -20.0323   19.6806 C   0  0  0  0  0  0  0  0  0  0  0  0
  -24.1030  -11.1211   20.8222 C   0  0  0  0  0  0  0  0  0  0  0  0
  -25.2554  -26.1739   20.4824 C   0  0  0  0  0  0  0  0  0  0  0  0
  -21.9967  -10.3844   20.0853 C   0  0  0  0  0  0  0  0  0  0  0  0
  -20.2470   -9.8626   17.9761 C   0  0  0  0  0  0  0  0  0  0  0  0
  -20.7742  -11.0519   20.0119 C   0  0  0  0  0  0  0  0  0  0  0  0
  -28.4387  -20.1930   18.5957 C   0  0  0  0  0  0  0  0  0  0  0  0
  -27.9449  -12.6088   19.8606 C   0  0  0  0  0  0  0  0  0  0  0  0
  -29.9157  -12.9508   18.9475 C   0  0  0  0  0  0  0  0  0  0  0  0
  -28.6253  -11.0793   17.9079 C   0  0  0  0  0  0  0  0  0  0  0  0
  -21.7418  -29.8363   22.4074 C   0  0  0  0  0  0  0  0  0  0  0  0
  -24.2464  -31.8463   22.8649 C   0  0  0  0  0  0  0  0  0  0  0  0
  -27.6027  -32.4017   22.5931 C   0  0  0  0  0  0  0  0  0  0  0  0
  -30.7639  -18.4873   21.0290 C   0  0  0  0  0  0  0  0  0  0  0  0
  -16.9363  -29.4108   24.0757 C   0  0  0  0  0  0  0  0  0  0  0  0
  -23.3506  -28.3576   23.6649 C   0  0  0  0  0  0  0  0  0  0  0  0
  -24.6842  -29.8005   21.4548 C   0  0  0  0  0  0  0  0  0  0  0  0
  -17.9359  -30.5519   23.9056 C   0  0  0  0  0  0  0  0  0  0  0  0
  -32.4061  -15.5250   22.1266 C   0  0  0  0  0  0  0  0  0  0  0  0
  -18.5613  -30.5108   22.5149 C   0  0  0  0  0  0  0  0  0  0  0  0
  -31.5303  -14.3986   21.5729 C   0  0  0  0  0  0  0  0  0  0  0  0
  -31.5716  -16.7216   22.5798 C   0  0  0  0  0  0  0  0  0  0  0  0
  -29.7627  -16.1182   21.0200 C   0  0  0  0  0  0  0  0  0  0  0  0
  -19.3373  -29.2062   22.2973 C   0  0  1  0  0  0  0  0  0  0  0  0
  -22.9602  -29.7827   23.2851 C   0  0  1  0  0  0  0  0  0  0  0  0
  -30.5631  -14.9170   20.4907 C   0  0  2  0  0  0  0  0  0  0  0  0
  -29.3687  -23.5161   21.1337 C   0  0  0  0  0  0  0  0  0  0  0  0
  -26.9477  -21.6349   17.1717 C   0  0  0  0  0  0  0  0  0  0  0  0
  -29.3500  -34.1531   23.0138 C   0  0  0  0  0  0  0  0  0  0  0  0
  -23.3242  -33.3596   20.3811 C   0  0  0  0  0  0  0  0  0  0  0  0
  -25.5708  -34.4619   20.3038 C   0  0  0  0  0  0  0  0  0  0  0  0
  -24.0770  -34.8154   22.2701 C   0  0  0  0  0  0  0  0  0  0  0  0
  -29.0422  -30.6698   24.5132 C   0  0  0  0  0  0  0  0  0  0  0  0
  -27.5648  -23.8813   18.8714 C   0  0  0  0  0  0  0  0  0  0  0  0
  -26.4068  -24.2049   19.8093 C   0  0  0  0  0  0  0  0  0  1  0  0
  -25.2101  -32.5766   21.9610 C   0  0  1  0  0  0  0  0  0  0  0  0
  -28.6166  -32.9480   23.5820 C   0  0  2  0  0  0  0  0  0  0  0  0
  -24.5433  -33.7750   21.2286 C   0  0  0  0  0  0  0  0  0  0  0  0
  -28.4598  -13.6308   20.5492 N   0  0  0  0  0  0  0  0  0  0  0  0
  -29.6586  -13.8153   19.9706 N   0  0  0  0  0  0  0  0  0  0  0  0
  -24.0281  -30.4916   22.5770 N   0  0  0  0  0  0  0  0  0  0  0  0
  -30.6825  -17.1605   21.5019 N   0  0  0  0  0  0  0  0  0  0  0  0
  -31.0747  -12.9977   18.2569 N   0  0  0  0  0  0  0  0  0  0  0  0
  -27.4280  -10.3518   17.9460 N   0  0  0  0  0  0  0  0  0  0  0  0
  -29.8923  -18.7803   19.9806 N   0  0  0  0  0  0  0  0  0  0  0  0
  -20.6178  -29.2617   22.9694 N   0  0  0  0  0  0  0  0  0  0  0  0
  -26.3509  -32.9444   22.7927 N   0  0  0  0  0  0  0  0  0  0  0  0
  -29.6230  -31.9030   23.9225 N   0  3  0  0  0  0  0  0  0  0  0  0
  -29.5046  -10.7710   17.0681 O   0  0  0  0  0  0  0  0  0  0  0  0
  -21.8157  -30.3615   21.3026 O   0  0  0  0  0  0  0  0  0  0  0  0
  -23.7127  -32.4536   23.7965 O   0  0  0  0  0  0  0  0  0  0  0  0
  -27.8929  -31.5789   21.7275 O   0  0  0  0  0  0  0  0  0  0  0  0
  -31.5680  -19.2959   21.4998 O   0  0  0  0  0  0  0  0  0  0  0  0
  -22.8667  -10.6429   21.1312 O   0  0  0  0  0  0  0  0  0  0  0  0
  -25.8618  -25.4819   19.4797 O   0  0  0  0  0  0  0  0  0  1  0  0
  -19.4076   -9.6130   16.9625 F   0  0  0  0  0  0  0  0  0  0  0  0
  -20.4351  -11.9457   20.9510 F   0  0  0  0  0  0  0  0  0  0  0  0
  -28.0669  -18.8417   17.5739 Cl  0  0  0  0  0  0  0  0  0  0  0  0
  1  2  1  0  0  0  0
  1  5  2  0  0  0  0
  2  6  2  0  0  0  0
  3  8  2  0  0  0  0
  3 16  1  0  0  0  0
  4  9  1  0  0  0  0
  4 16  2  0  0  0  0
  5 18  1  0  0  0  0
  6 20  1  0  0  0  0
  7 10  2  0  0  0  0
  7 19  1  0  0  0  0
  8 26  1  0  0  0  0
  9 26  2  0  0  0  0
 10 27  1  0  0  0  0
 11 12  2  0  0  0  0
 11 28  1  0  0  0  0
 12 29  1  0  0  0  0
 13 21  1  0  0  0  0
 13 27  2  0  0  0  0
 14 22  2  0  0  0  0
 14 25  1  0  0  0  0
 15 29  2  0  0  0  0
 15 30  1  0  0  0  0
 16 32  1  0  0  0  0
 17 32  1  0  0  0  0
 17 33  2  0  0  0  0
 17 34  1  0  0  0  0
 18 20  2  0  0  0  0
 18 39  1  0  0  0  0
 19 21  2  0  0  0  0
 19 40  1  0  0  0  0
 20 48  1  0  0  0  0
 21 41  1  0  0  0  0
 22 23  1  0  0  0  0
 22 51  1  0  0  0  0
 23 24  2  0  0  0  0
 23 58  1  0  0  0  0
 24 31  1  0  0  0  0
 24 52  1  0  0  0  0
 25 31  2  0  0  0  0
 25 69  1  0  0  0  0
 26 78  1  0  0  0  0
 27 79  1  0  0  0  0
 28 30  2  0  0  0  0
 28 78  1  0  0  0  0
 29 80  1  0  0  0  0
 30 81  1  0  0  0  0
 31 82  1  0  0  0  0
 32 63  2  0  0  0  0
 33 64  1  0  0  0  0
 33 67  1  0  0  0  0
 34 68  1  0  0  0  0
 34 73  2  0  0  0  0
 35 49  1  0  0  0  0
 35 70  1  0  0  0  0
 35 74  2  0  0  0  0
 36 60  1  0  0  0  0
 36 65  1  0  0  0  0
 36 75  2  0  0  0  0
 37 61  1  0  0  0  0
 37 71  1  0  0  0  0
 37 76  2  0  0  0  0
 38 66  1  0  0  0  0
 38 69  1  0  0  0  0
 38 77  2  0  0  0  0
 39 42  1  0  0  0  0
 40 49  1  0  0  0  0
 41 65  1  0  0  0  0
 42 44  1  0  0  0  0
 43 45  1  0  0  0  0
 43 46  1  0  0  0  0
 44 48  1  0  0  0  0
 45 50  1  0  0  0  0
 46 66  1  0  0  0  0
 47 50  1  0  0  0  0
 47 66  1  0  0  0  0
 48 70  1  0  0  0  0
 49 65  1  0  0  0  0
 50 64  1  0  0  0  0
 53 61  1  0  0  0  0
 54 62  1  0  0  0  0
 55 62  1  0  0  0  0
 56 62  1  0  0  0  0
 57 72  1  0  0  0  0
 58 59  1  0  0  0  0
 59 79  1  0  0  0  0
 60 62  1  0  0  0  0
 60 71  1  0  0  0  0
 61 72  1  0  0  0  0
 63 64  1  0  0  0  0
M  CHG  1  72   1
M  ISO  4  38 100  59 101  69 100  79 101
M  END
> <Batch ID>
0020

> <Smiles>
CNC(C)C(=O)NC(C(=O)N1Cc2cc([101O:1][101CH2:1]Cc3c(C)cc([100NH:0][100C:0](=O)N4CCCC(n5nc(-c6ccc(Oc7ccc(F)cc7F)cc6)c(C(N)=O)c5N)C4)c(Cl)c3C)ccc2CC1C(=O)NC1CCCc2ccccc21)C(C)(C)C

> <Shape>
0.311

> <Color>
0.068

> <Negative vol penalty>
0.000

$$$$

  -OEChem-04052316093D

 83 91  0     1  0  0  0  0  0999 V2000
  -18.8199  -25.1150   19.8278 C   0  0  0  0  0  0  0  0  0  0  0  0
  -20.1542  -25.4294   19.5907 C   0  0  0  0  0  0  0  0  0  0  0  0
  -24.1471  -14.1720   20.8546 C   0  0  0  0  0  0  0  0  0  0  0  0
  -26.5601  -14.0567   20.8884 C   0  0  0  0  0  0  0  0  0  0  0  0
  -18.1328  -25.7368   20.8696 C   0  0  0  0  0  0  0  0  0  0  0  0
  -20.8019  -26.3667   20.3947 C   0  0  0  0  0  0  0  0  0  0  0  0
  -25.4234  -24.8520   21.8064 C   0  0  0  0  0  0  0  0  0  0  0  0
  -24.0880  -12.8278   20.4868 C   0  0  0  0  0  0  0  0  0  0  0  0
  -26.5010  -12.7125   20.5206 C   0  0  0  0  0  0  0  0  0  0  0  0
  -26.4454  -24.9641   20.8648 C   0  0  0  0  0  0  0  0  0  0  0  0
  -23.2923   -9.3312   19.8908 C   0  0  0  0  0  0  0  0  0  0  0  0
  -22.3689   -8.5188   20.5487 C   0  0  0  0  0  0  0  0  0  0  0  0
  -27.1917  -26.9980   21.9256 C   0  0  0  0  0  0  0  0  0  0  0  0
  -23.4449   -9.0032   22.6570 C   0  0  0  0  0  0  0  0  0  0  0  0
  -31.4728  -22.8464   21.4051 C   0  0  0  0  0  0  0  0  0  0  0  0
  -25.3832  -14.7865   21.0553 C   0  0  0  0  0  0  0  0  0  0  0  0
  -25.4519  -16.7001   22.7409 C   0  0  0  0  0  0  0  0  0  0  0  0
  -18.7753  -26.6750   21.6928 C   0  0  0  0  0  0  0  0  0  0  0  0
  -25.2709  -25.8196   22.8098 C   0  0  0  0  0  0  0  0  0  0  0  0
  -20.1225  -27.0026   21.4476 C   0  0  0  0  0  0  0  0  0  0  0  0
  -26.1685  -26.8946   22.8803 C   0  0  0  0  0  0  0  0  0  0  0  0
  -30.8507  -24.6981   19.9835 C   0  0  0  0  0  0  0  0  0  0  0  0
  -30.5374  -22.4284   19.2171 C   0  0  0  0  0  0  0  0  0  0  0  0
  -25.2650  -12.0981   20.3199 C   0  0  0  0  0  0  0  0  0  0  0  0
  -27.3280  -26.0387   20.9225 C   0  0  0  0  0  0  0  0  0  0  0  0
  -24.2921   -9.9795   20.6159 C   0  0  0  0  0  0  0  0  0  0  0  0
  -22.4451   -8.3548   21.9318 C   0  0  0  0  0  0  0  0  0  0  0  0
  -24.3684   -9.8155   21.9990 C   0  0  0  0  0  0  0  0  0  0  0  0
  -30.4345  -23.8022   18.9986 C   0  0  0  0  0  0  0  0  0  0  0  0
  -31.3699  -24.2202   21.1867 C   0  0  0  0  0  0  0  0  0  0  0  0
  -31.0566  -21.9505   20.4203 C   0  0  0  0  0  0  0  0  0  0  0  0
  -25.4449  -16.1752   21.4346 C   0  0  0  0  0  0  0  0  0  0  0  0
  -25.5202  -18.0604   22.5639 C   0  0  0  0  0  0  0  0  0  0  0  0
  -25.4012  -16.0189   24.0015 C   0  0  0  0  0  0  0  0  0  0  0  0
  -22.9867  -27.8798   23.6109 C   0  0  0  0  0  0  0  0  0  0  0  0
  -24.9264  -28.4446   26.1488 C   0  0  0  0  0  0  0  0  0  0  0  0
  -28.0739  -28.3597   27.4652 C   0  0  0  0  0  0  0  0  0  0  0  0
  -27.5988  -21.4949   18.1215 C   0  0  0  0  0  0  0  0  0  0  0  0
  -17.9779  -27.3559   22.7769 C   0  0  0  0  0  0  0  0  0  0  0  0
  -24.1796  -25.6701   23.8341 C   0  0  0  0  0  0  0  0  0  0  0  0
  -26.0602  -27.9493   23.9501 C   0  0  0  0  0  0  0  0  0  0  0  0
  -18.8435  -28.0611   23.8180 C   0  0  0  0  0  0  0  0  0  0  0  0
  -24.3030  -21.4994   19.4683 C   0  0  0  0  0  0  0  0  0  0  0  0
  -19.9301  -28.8875   23.1375 C   0  0  0  0  0  0  0  0  0  0  0  0
  -24.2225  -20.1828   20.2428 C   0  0  0  0  0  0  0  0  0  0  0  0
  -25.1267  -21.3533   18.1908 C   0  0  0  0  0  0  0  0  0  0  0  0
  -26.3967  -19.4767   19.1598 C   0  0  0  0  0  0  0  0  0  0  0  0
  -20.8668  -27.9958   22.3135 C   0  0  1  0  0  0  0  0  0  0  0  0
  -23.8034  -26.9885   24.5032 C   0  0  1  0  0  0  0  0  0  0  0  0
  -25.6229  -19.5880   20.4846 C   0  0  2  0  0  0  0  0  0  0  0  0
  -29.3531  -28.9213   29.5498 C   0  0  0  0  0  0  0  0  0  0  0  0
  -24.8091  -31.4052   25.4202 C   0  0  0  0  0  0  0  0  0  0  0  0
  -26.8001  -31.7748   26.8924 C   0  0  0  0  0  0  0  0  0  0  0  0
  -24.6677  -30.9276   27.8710 C   0  0  0  0  0  0  0  0  0  0  0  0
  -28.8975  -25.5443   27.8574 C   0  0  0  0  0  0  0  0  0  0  0  0
  -30.7231  -26.1774   19.7117 C   0  0  0  0  0  0  0  0  0  0  0  0
  -30.0805  -21.4988   18.1395 C   0  0  0  0  0  0  0  0  0  0  0  0
  -29.5266  -26.7970   20.4255 C   0  0  0  0  0  0  0  0  0  1  0  0
  -26.0679  -29.3909   26.4322 C   0  0  1  0  0  0  0  0  0  0  0  0
  -28.5969  -27.8408   28.7924 C   0  0  2  0  0  0  0  0  0  0  0  0
  -25.5873  -30.8560   26.6325 C   0  0  0  0  0  0  0  0  0  0  0  0
  -25.5038  -17.1246   20.4971 N   0  0  0  0  0  0  0  0  0  0  0  0
  -25.5485  -18.2598   21.2149 N   0  0  0  0  0  0  0  0  0  0  0  0
  -24.9728  -27.7623   24.9248 N   0  0  0  0  0  0  0  0  0  0  0  0
  -26.4437  -20.7856   18.4895 N   0  0  0  0  0  0  0  0  0  0  0  0
  -25.5581  -19.0935   23.4321 N   0  0  0  0  0  0  0  0  0  0  0  0
  -25.3336  -14.6190   24.0023 N   0  0  0  0  0  0  0  0  0  0  0  0
  -21.8037  -27.3114   23.1785 N   0  0  0  0  0  0  0  0  0  0  0  0
  -26.7844  -28.8355   27.5752 N   0  0  0  0  0  0  0  0  0  0  0  0
  -28.8061  -20.8890   18.4473 N   0  0  0  0  0  0  0  0  0  0  0  0
  -29.5174  -26.6897   28.5721 N   0  3  0  0  0  0  0  0  0  0  0  0
  -25.3990  -16.6343   25.0946 O   0  0  0  0  0  0  0  0  0  0  0  0
  -23.3986  -29.0008   23.3363 O   0  0  0  0  0  0  0  0  0  0  0  0
  -24.0303  -28.3102   26.9858 O   0  0  0  0  0  0  0  0  0  0  0  0
  -28.7436  -28.3478   26.4347 O   0  0  0  0  0  0  0  0  0  0  0  0
  -27.5574  -22.5898   17.5501 O   0  0  0  0  0  0  0  0  0  0  0  0
  -25.2077  -10.7863   19.9613 O   0  0  0  0  0  0  0  0  0  0  0  0
  -28.3261  -26.1508   20.0043 O   0  0  0  0  0  0  0  0  0  1  0  0
  -21.5574   -7.5759   22.5637 F   0  0  0  0  0  0  0  0  0  0  0  0
  -25.3259  -10.4368   22.7011 F   0  0  0  0  0  0  0  0  0  0  0  0
  -29.9346  -24.2616   17.8414 F   0  0  0  0  0  0  0  0  0  0  0  0
  -31.8944  -25.2994   22.4280 Cl  0  0  0  0  0  0  0  0  0  0  0  0
  -31.1987  -20.2579   20.7262 Cl  0  0  0  0  0  0  0  0  0  0  0  0
  1  2  1  0  0  0  0
  1  5  2  0  0  0  0
  2  6  2  0  0  0  0
  3  8  2  0  0  0  0
  3 16  1  0  0  0  0
  4  9  1  0  0  0  0
  4 16  2  0  0  0  0
  5 18  1  0  0  0  0
  6 20  1  0  0  0  0
  7 10  2  0  0  0  0
  7 19  1  0  0  0  0
  8 24  1  0  0  0  0
  9 24  2  0  0  0  0
 10 25  1  0  0  0  0
 11 12  2  0  0  0  0
 11 26  1  0  0  0  0
 12 27  1  0  0  0  0
 13 21  1  0  0  0  0
 13 25  2  0  0  0  0
 14 27  2  0  0  0  0
 14 28  1  0  0  0  0
 15 30  2  0  0  0  0
 15 31  1  0  0  0  0
 16 32  1  0  0  0  0
 17 32  1  0  0  0  0
 17 33  2  0  0  0  0
 17 34  1  0  0  0  0
 18 20  2  0  0  0  0
 18 39  1  0  0  0  0
 19 21  2  0  0  0  0
 19 40  1  0  0  0  0
 20 48  1  0  0  0  0
 21 41  1  0  0  0  0
 22 29  2  0  0  0  0
 22 30  1  0  0  0  0
 22 56  1  0  0  0  0
 23 29  1  0  0  0  0
 23 31  2  0  0  0  0
 23 57  1  0  0  0  0
 24 77  1  0  0  0  0
 25 78  1  0  0  0  0
 26 28  2  0  0  0  0
 26 77  1  0  0  0  0
 27 79  1  0  0  0  0
 28 80  1  0  0  0  0
 29 81  1  0  0  0  0
 30 82  1  0  0  0  0
 31 83  1  0  0  0  0
 32 62  2  0  0  0  0
 33 63  1  0  0  0  0
 33 66  1  0  0  0  0
 34 67  1  0  0  0  0
 34 72  2  0  0  0  0
 35 49  1  0  0  0  0
 35 68  1  0  0  0  0
 35 73  2  0  0  0  0
 36 59  1  0  0  0  0
 36 64  1  0  0  0  0
 36 74  2  0  0  0  0
 37 60  1  0  0  0  0
 37 69  1  0  0  0  0
 37 75  2  0  0  0  0
 38 65  1  0  0  0  0
 38 70  1  0  0  0  0
 38 76  2  0  0  0  0
 39 42  1  0  0  0  0
 40 49  1  0  0  0  0
 41 64  1  0  0  0  0
 42 44  1  0  0  0  0
 43 45  1  0  0  0  0
 43 46  1  0  0  0  0
 44 48  1  0  0  0  0
 45 50  1  0  0  0  0
 46 65  1  0  0  0  0
 47 50  1  0  0  0  0
 47 65  1  0  0  0  0
 48 68  1  0  0  0  0
 49 64  1  0  0  0  0
 50 63  1  0  0  0  0
 51 60  1  0  0  0  0
 52 61  1  0  0  0  0
 53 61  1  0  0  0  0
 54 61  1  0  0  0  0
 55 71  1  0  0  0  0
 56 58  1  0  0  0  0
 57 70  1  0  0  0  0
 58 78  1  0  0  0  0
 59 61  1  0  0  0  0
 59 69  1  0  0  0  0
 60 71  1  0  0  0  0
 62 63  1  0  0  0  0
M  CHG  1  71   1
M  ISO  4  38 100  58 101  70 100  78 101
M  END
> <Batch ID>
0020

> <Smiles>
CNC(C)C(=O)NC(C(=O)N1Cc2cc([101O:1][101CH2:1]Cc3c(Cl)cc(Cl)c(C[100NH:0][100C:0](=O)N4CCCC(n5nc(-c6ccc(Oc7ccc(F)cc7F)cc6)c(C(N)=O)c5N)C4)c3F)ccc2CC1C(=O)NC1CCCc2ccccc21)C(C)(C)C

> <Shape>
0.217

> <Color>
0.089

> <Negative vol penalty>
0.000

$$$$

  -OEChem-04052316093D

 88 96  0     1  0  0  0  0  0999 V2000
  -34.6912  -25.9123   28.7132 C   0  0  0  0  0  0  0  0  0  0  0  0
  -34.7570  -25.7812   27.3298 C   0  0  0  0  0  0  0  0  0  0  0  0
  -23.0069   -9.8972   19.9697 C   0  0  0  0  0  0  0  0  0  0  0  0
  -23.7459   -9.9254   22.2698 C   0  0  0  0  0  0  0  0  0  0  0  0
  -33.4584  -25.8444   29.3608 C   0  0  0  0  0  0  0  0  0  0  0  0
  -33.5900  -25.5812   26.5932 C   0  0  0  0  0  0  0  0  0  0  0  0
  -30.6770  -27.0990   20.2272 C   0  0  0  0  0  0  0  0  0  0  0  0
  -22.2456   -8.7574   20.2283 C   0  0  0  0  0  0  0  0  0  0  0  0
  -22.9845   -8.7856   22.5284 C   0  0  0  0  0  0  0  0  0  0  0  0
  -30.0566  -26.4694   19.1489 C   0  0  0  0  0  0  0  0  0  0  0  0
  -23.2365   -5.4528   22.0186 C   0  0  0  0  0  0  0  0  0  0  0  0
  -23.8318   -4.4294   22.7560 C   0  0  0  0  0  0  0  0  0  0  0  0
  -27.9745  -26.4483   20.3670 C   0  0  0  0  0  0  0  0  0  0  0  0
  -28.3285  -21.8526   19.5499 C   0  0  0  0  0  0  0  0  0  0  0  0
  -22.1174   -4.6485   24.4441 C   0  0  0  0  0  0  0  0  0  0  0  0
  -23.7571  -10.4812   20.9905 C   0  0  0  0  0  0  0  0  0  0  0  0
  -24.1334  -12.9998   20.8396 C   0  0  0  0  0  0  0  0  0  0  0  0
  -32.2747  -25.6531   28.6309 C   0  0  0  0  0  0  0  0  0  0  0  0
  -29.9521  -27.3986   21.3896 C   0  0  0  0  0  0  0  0  0  0  0  0
  -32.3403  -25.5094   27.2318 C   0  0  0  0  0  0  0  0  0  0  0  0
  -28.5874  -27.0840   21.4576 C   0  0  0  0  0  0  0  0  0  0  0  0
  -28.8253  -19.5059   19.8383 C   0  0  0  0  0  0  0  0  0  0  0  0
  -28.8525  -19.3415   18.4534 C   0  0  0  0  0  0  0  0  0  0  0  0
  -28.3557  -21.6882   18.1650 C   0  0  0  0  0  0  0  0  0  0  0  0
  -22.2344   -8.2016   21.5076 C   0  0  0  0  0  0  0  0  0  0  0  0
  -28.7059  -26.1414   19.2198 C   0  0  0  0  0  0  0  0  0  0  0  0
  -22.0817   -6.0742   22.4940 C   0  0  0  0  0  0  0  0  0  0  0  0
  -23.2723   -4.0272   23.9687 C   0  0  0  0  0  0  0  0  0  0  0  0
  -28.5634  -20.7615   20.3865 C   0  0  0  0  0  0  0  0  0  0  0  0
  -21.5221   -5.6720   23.7067 C   0  0  0  0  0  0  0  0  0  0  0  0
  -28.6177  -20.4327   17.6168 C   0  0  0  0  0  0  0  0  0  0  0  0
  -24.5442  -11.6583   20.7239 C   0  0  0  0  0  0  0  0  0  0  0  0
  -25.2386  -13.7299   20.4764 C   0  0  0  0  0  0  0  0  0  0  0  0
  -22.8661  -13.5379   21.2397 C   0  0  0  0  0  0  0  0  0  0  0  0
  -30.1436  -26.5255   24.4400 C   0  0  0  0  0  0  0  0  0  0  0  0
  -27.8007  -28.7373   24.8155 C   0  0  0  0  0  0  0  0  0  0  0  0
  -25.2488  -30.5206   23.4175 C   0  0  0  0  0  0  0  0  0  0  0  0
  -30.7334  -14.6794   20.7020 C   0  0  0  0  0  0  0  0  0  0  0  0
  -30.9705  -25.5392   29.3797 C   0  0  0  0  0  0  0  0  0  0  0  0
  -30.6296  -28.1020   22.5336 C   0  0  0  0  0  0  0  0  0  0  0  0
  -27.7598  -27.4025   22.6750 C   0  0  0  0  0  0  0  0  0  0  0  0
  -29.7409  -25.6996   28.4894 C   0  0  0  0  0  0  0  0  0  0  0  0
  -29.5862  -12.2778   18.3371 C   0  0  0  0  0  0  0  0  0  0  0  0
  -29.8856  -24.8614   27.2232 C   0  0  0  0  0  0  0  0  0  0  0  0
  -28.1411  -12.0089   18.7606 C   0  0  0  0  0  0  0  0  0  0  0  0
  -30.4952  -12.5029   19.5434 C   0  0  0  0  0  0  0  0  0  0  0  0
  -28.5907  -13.2776   20.9023 C   0  0  0  0  0  0  0  0  0  0  0  0
  -31.0939  -25.3160   26.3957 C   0  0  1  0  0  0  0  0  0  0  0  0
  -29.9179  -27.8961   23.8672 C   0  0  1  0  0  0  0  0  0  0  0  0
  -27.6251  -13.0998   19.7181 C   0  0  2  0  0  0  0  0  0  0  0  0
  -29.1356  -17.9847   17.8868 C   0  0  0  0  0  0  0  0  0  0  0  0
  -23.4933  -32.2222   23.9835 C   0  0  0  0  0  0  0  0  0  0  0  0
  -26.1512  -26.5730   26.1956 C   0  0  0  0  0  0  0  0  0  0  0  0
  -24.1270  -28.0122   25.8798 C   0  0  0  0  0  0  0  0  0  0  0  0
  -26.0282  -28.8256   27.2750 C   0  0  0  0  0  0  0  0  0  0  0  0
  -26.6391  -24.1399   16.0095 C   0  0  0  0  0  0  0  0  0  0  0  0
  -25.7395  -22.6036   17.7817 C   0  0  0  0  0  0  0  0  0  0  0  0
  -26.3578  -32.4756   21.4922 C   0  0  0  0  0  0  0  0  0  0  0  0
  -29.0734  -18.3530   20.7556 C   0  0  0  0  0  0  0  0  0  0  0  0
  -30.5600  -17.9901   20.9323 C   0  0  0  0  0  0  0  0  0  0  0  0
  -30.8165  -16.8456   21.9104 C   0  0  0  0  0  0  0  0  0  0  0  0
  -27.0091  -24.6540   18.4685 C   0  0  0  0  0  0  0  0  0  1  0  0
  -26.2921  -28.7162   24.7629 C   0  0  1  0  0  0  0  0  0  0  0  0
  -24.9067  -31.9987   23.4684 C   0  0  2  0  0  0  0  0  0  0  0  0
  -25.6654  -28.0239   26.0060 C   0  0  0  0  0  0  0  0  0  0  0  0
  -26.8826  -23.5526   17.4037 C   0  0  0  0  0  0  0  0  0  0  0  0
  -25.8114  -11.5402   20.3187 N   0  0  0  0  0  0  0  0  0  0  0  0
  -26.2065  -12.8169   20.1766 N   0  0  0  0  0  0  0  0  0  0  0  0
  -28.4691  -28.0850   23.7698 N   0  0  0  0  0  0  0  0  0  0  0  0
  -29.9502  -13.5505   20.4103 N   0  0  0  0  0  0  0  0  0  0  0  0
  -25.4673  -15.0574   20.3874 N   0  0  0  0  0  0  0  0  0  0  0  0
  -21.8392  -12.6467   21.5798 N   0  0  0  0  0  0  0  0  0  0  0  0
  -28.1192  -22.7889   17.3667 N   0  0  0  0  0  0  0  0  0  0  0  0
  -30.7805  -26.5260   25.6662 N   0  0  0  0  0  0  0  0  0  0  0  0
  -25.8709  -30.1002   24.5740 N   0  0  0  0  0  0  0  0  0  0  0  0
  -30.1390  -15.6274   21.5259 N   0  0  0  0  0  0  0  0  0  0  0  0
  -25.0126  -32.6020   22.1098 N   0  3  0  0  0  0  0  0  0  0  0  0
  -22.6456  -14.7721   21.2783 O   0  0  0  0  0  0  0  0  0  0  0  0
  -29.7663  -25.5404   23.8162 O   0  0  0  0  0  0  0  0  0  0  0  0
  -28.3653  -29.3176   25.7462 O   0  0  0  0  0  0  0  0  0  0  0  0
  -24.9867  -29.8092   22.4501 O   0  0  0  0  0  0  0  0  0  0  0  0
  -31.8757  -14.8338   20.2567 O   0  0  0  0  0  0  0  0  0  0  0  0
  -21.4914   -7.0896   21.7603 O   0  0  0  0  0  0  0  0  0  0  0  0
  -28.0981  -25.5262   18.1691 O   0  0  0  0  0  0  0  0  0  1  0  0
  -23.8432   -3.0433   24.6760 F   0  0  0  0  0  0  0  0  0  0  0  0
  -28.5351  -20.9305   21.7161 F   0  0  0  0  0  0  0  0  0  0  0  0
  -20.4121   -6.2643   24.1679 F   0  0  0  0  0  0  0  0  0  0  0  0
  -28.6522  -20.2262   15.8954 Cl  0  0  0  0  0  0  0  0  0  0  0  0
  1  2  1  0  0  0  0
  1  5  2  0  0  0  0
  2  6  2  0  0  0  0
  3  8  2  0  0  0  0
  3 16  1  0  0  0  0
  4  9  1  0  0  0  0
  4 16  2  0  0  0  0
  5 18  1  0  0  0  0
  6 20  1  0  0  0  0
  7 10  2  0  0  0  0
  7 19  1  0  0  0  0
  8 25  1  0  0  0  0
  9 25  2  0  0  0  0
 10 26  1  0  0  0  0
 11 12  2  0  0  0  0
 11 27  1  0  0  0  0
 12 28  1  0  0  0  0
 13 21  1  0  0  0  0
 13 26  2  0  0  0  0
 14 24  1  0  0  0  0
 14 29  2  0  0  0  0
 15 28  2  0  0  0  0
 15 30  1  0  0  0  0
 16 32  1  0  0  0  0
 17 32  1  0  0  0  0
 17 33  2  0  0  0  0
 17 34  1  0  0  0  0
 18 20  2  0  0  0  0
 18 39  1  0  0  0  0
 19 21  2  0  0  0  0
 19 40  1  0  0  0  0
 20 48  1  0  0  0  0
 21 41  1  0  0  0  0
 22 23  2  0  0  0  0
 22 29  1  0  0  0  0
 22 59  1  0  0  0  0
 23 31  1  0  0  0  0
 23 51  1  0  0  0  0
 24 31  2  0  0  0  0
 24 73  1  0  0  0  0
 25 83  1  0  0  0  0
 26 84  1  0  0  0  0
 27 30  2  0  0  0  0
 27 83  1  0  0  0  0
 28 85  1  0  0  0  0
 29 86  1  0  0  0  0
 30 87  1  0  0  0  0
 31 88  1  0  0  0  0
 32 67  2  0  0  0  0
 33 68  1  0  0  0  0
 33 71  1  0  0  0  0
 34 72  1  0  0  0  0
 34 78  2  0  0  0  0
 35 49  1  0  0  0  0
 35 74  1  0  0  0  0
 35 79  2  0  0  0  0
 36 63  1  0  0  0  0
 36 69  1  0  0  0  0
 36 80  2  0  0  0  0
 37 64  1  0  0  0  0
 37 75  1  0  0  0  0
 37 81  2  0  0  0  0
 38 70  1  0  0  0  0
 38 76  1  0  0  0  0
 38 82  2  0  0  0  0
 39 42  1  0  0  0  0
 40 49  1  0  0  0  0
 41 69  1  0  0  0  0
 42 44  1  0  0  0  0
 43 45  1  0  0  0  0
 43 46  1  0  0  0  0
 44 48  1  0  0  0  0
 45 50  1  0  0  0  0
 46 70  1  0  0  0  0
 47 50  1  0  0  0  0
 47 70  1  0  0  0  0
 48 74  1  0  0  0  0
 49 69  1  0  0  0  0
 50 68  1  0  0  0  0
 52 64  1  0  0  0  0
 53 65  1  0  0  0  0
 54 65  1  0  0  0  0
 55 65  1  0  0  0  0
 56 66  1  0  0  0  0
 57 66  1  0  0  0  0
 58 77  1  0  0  0  0
 59 60  1  0  0  0  0
 60 61  1  0  0  0  0
 61 76  1  0  0  0  0
 62 66  1  0  0  0  0
 62 84  1  0  0  0  0
 63 65  1  0  0  0  0
 63 75  1  0  0  0  0
 64 77  1  0  0  0  0
 66 73  1  0  0  0  0
 67 68  1  0  0  0  0
M  CHG  1  77   1
M  ISO  4  38 100  62 101  76 100  84 101
M  END
> <Batch ID>
0020

> <Smiles>
CNC(C)C(=O)NC(C(=O)N1Cc2cc([101O:1][101CH2:1]C(C)(C)Nc3cc(F)c(CCC[100NH:0][100C:0](=O)N4CCCC(n5nc(-c6ccc(Oc7ccc(F)cc7F)cc6)c(C(N)=O)c5N)C4)c(C)c3Cl)ccc2CC1C(=O)NC1CCCc2ccccc21)C(C)(C)C

> <Shape>
0.316

> <Color>
0.198

> <Negative vol penalty>
0.000

$$$$

  -OEChem-04052316093D

 92100  0     1  0  0  0  0  0999 V2000
  -30.4746  -17.8550   36.0308 C   0  0  0  0  0  0  0  0  0  0  0  0
  -30.0036  -18.2270   34.7757 C   0  0  0  0  0  0  0  0  0  0  0  0
  -23.0742   -9.8694   19.9411 C   0  0  0  0  0  0  0  0  0  0  0  0
  -23.8382   -9.8746   22.2331 C   0  0  0  0  0  0  0  0  0  0  0  0
  -31.8376  -17.6356   36.2258 C   0  0  0  0  0  0  0  0  0  0  0  0
  -30.8956  -18.3809   33.7151 C   0  0  0  0  0  0  0  0  0  0  0  0
  -29.2208  -16.2405   29.4421 C   0  0  0  0  0  0  0  0  0  0  0  0
  -22.3313   -8.7156   20.1913 C   0  0  0  0  0  0  0  0  0  0  0  0
  -23.0953   -8.7209   22.4833 C   0  0  0  0  0  0  0  0  0  0  0  0
  -28.2523  -16.9354   28.7190 C   0  0  0  0  0  0  0  0  0  0  0  0
  -19.8686   -7.9209   23.0909 C   0  0  0  0  0  0  0  0  0  0  0  0
  -19.1138   -7.8795   24.2631 C   0  0  0  0  0  0  0  0  0  0  0  0
  -29.9589  -17.7347   27.2130 C   0  0  0  0  0  0  0  0  0  0  0  0
  -20.3575   -5.9420   24.9955 C   0  0  0  0  0  0  0  0  0  0  0  0
  -25.7642  -21.8823   24.7815 C   0  0  0  0  0  0  0  0  0  0  0  0
  -23.8276  -10.4489   20.9619 C   0  0  0  0  0  0  0  0  0  0  0  0
  -24.1680  -12.9743   20.8436 C   0  0  0  0  0  0  0  0  0  0  0  0
  -32.7456  -17.7775   35.1646 C   0  0  0  0  0  0  0  0  0  0  0  0
  -30.5694  -16.2963   29.0619 C   0  0  0  0  0  0  0  0  0  0  0  0
  -32.2722  -18.1645   33.8963 C   0  0  0  0  0  0  0  0  0  0  0  0
  -30.9422  -17.0375   27.9315 C   0  0  0  0  0  0  0  0  0  0  0  0
  -24.9518  -19.8269   23.8059 C   0  0  0  0  0  0  0  0  0  0  0  0
  -26.9633  -19.8164   25.1441 C   0  0  0  0  0  0  0  0  0  0  0  0
  -22.3418   -8.1414   21.4624 C   0  0  0  0  0  0  0  0  0  0  0  0
  -28.6217  -17.6850   27.6060 C   0  0  0  0  0  0  0  0  0  0  0  0
  -20.8679   -6.9728   22.8709 C   0  0  0  0  0  0  0  0  0  0  0  0
  -19.3582   -6.8900   25.2154 C   0  0  0  0  0  0  0  0  0  0  0  0
  -24.8230  -21.2007   24.0102 C   0  0  0  0  0  0  0  0  0  0  0  0
  -26.8345  -21.1902   25.3484 C   0  0  0  0  0  0  0  0  0  0  0  0
  -21.1123   -5.9834   23.8233 C   0  0  0  0  0  0  0  0  0  0  0  0
  -26.0220  -19.1347   24.3728 C   0  0  0  0  0  0  0  0  0  0  0  0
  -24.5956  -11.6404   20.7039 C   0  0  0  0  0  0  0  0  0  0  0  0
  -25.2591  -13.7247   20.4791 C   0  0  0  0  0  0  0  0  0  0  0  0
  -22.8980  -13.4891   21.2653 C   0  0  0  0  0  0  0  0  0  0  0  0
  -33.2444  -17.3345   30.4295 C   0  0  0  0  0  0  0  0  0  0  0  0
  -34.6312  -16.0362   27.8001 C   0  0  0  0  0  0  0  0  0  0  0  0
  -24.3297  -19.6944   20.5857 C   0  0  0  0  0  0  0  0  0  0  0  0
  -34.3181  -15.0482   24.5486 C   0  0  0  0  0  0  0  0  0  0  0  0
  -30.7426  -14.7463   20.6586 C   0  0  0  0  0  0  0  0  0  0  0  0
  -34.2155  -17.5756   35.4351 C   0  0  0  0  0  0  0  0  0  0  0  0
  -31.5982  -15.5194   29.8366 C   0  0  0  0  0  0  0  0  0  0  0  0
  -32.3738  -17.1135   27.4698 C   0  0  0  0  0  0  0  0  0  0  0  0
  -35.0487  -17.3951   34.1688 C   0  0  0  0  0  0  0  0  0  0  0  0
  -29.6020  -12.3635   18.2717 C   0  0  0  0  0  0  0  0  0  0  0  0
  -34.6760  -18.4481   33.1299 C   0  0  0  0  0  0  0  0  0  0  0  0
  -28.1655  -12.0686   18.7069 C   0  0  0  0  0  0  0  0  0  0  0  0
  -30.5211  -12.5836   19.4711 C   0  0  0  0  0  0  0  0  0  0  0  0
  -28.6215  -13.3125   20.8618 C   0  0  0  0  0  0  0  0  0  0  0  0
  -33.2055  -18.3174   32.7149 C   0  0  1  0  0  0  0  0  0  0  0  0
  -33.0130  -16.0630   29.6630 C   0  0  1  0  0  0  0  0  0  0  0  0
  -27.6453  -13.1385   19.6857 C   0  0  2  0  0  0  0  0  0  0  0  0
  -35.6345  -14.0594   22.6547 C   0  0  0  0  0  0  0  0  0  0  0  0
  -35.9842  -18.7314   27.3367 C   0  0  0  0  0  0  0  0  0  0  0  0
  -36.4907  -17.9964   24.9976 C   0  0  0  0  0  0  0  0  0  0  0  0
  -37.4490  -16.7454   26.9313 C   0  0  0  0  0  0  0  0  0  0  0  0
  -32.5560  -12.6744   24.4099 C   0  0  0  0  0  0  0  0  0  0  0  0
  -23.9168  -19.1319   22.9693 C   0  0  0  0  0  0  0  0  0  0  0  0
  -28.1245  -19.1127   25.7701 C   0  0  0  0  0  0  0  0  0  1  0  0
  -24.9105  -19.1291   19.3053 C   0  0  0  0  0  0  0  0  0  0  0  0
  -26.3898  -18.7685   19.4367 C   0  0  0  0  0  0  0  0  0  0  0  0
  -27.3049  -19.9283   19.8458 C   0  0  0  0  0  0  0  0  0  0  0  0
  -28.7871  -19.5510   19.8879 C   0  0  0  0  0  0  0  0  0  0  0  0
  -29.0378  -18.4009   20.8669 C   0  0  0  0  0  0  0  0  0  0  0  0
  -30.5264  -18.0482   20.9395 C   0  0  0  0  0  0  0  0  0  0  0  0
  -30.8096  -16.8958   21.8974 C   0  0  0  0  0  0  0  0  0  0  0  0
  -34.9820  -16.5359   26.4195 C   0  0  1  0  0  0  0  0  0  0  0  0
  -34.7276  -13.7694   23.8405 C   0  0  2  0  0  0  0  0  0  0  0  0
  -36.1997  -17.5026   26.4308 C   0  0  0  0  0  0  0  0  0  0  0  0
  -25.8598  -11.5456   20.2833 N   0  0  0  0  0  0  0  0  0  0  0  0
  -26.2358  -12.8295   20.1555 N   0  0  0  0  0  0  0  0  0  0  0  0
  -33.3438  -16.3415   28.2640 N   0  0  0  0  0  0  0  0  0  0  0  0
  -29.9717  -13.6111   20.3590 N   0  0  0  0  0  0  0  0  0  0  0  0
  -25.4687  -15.0563   20.4070 N   0  0  0  0  0  0  0  0  0  0  0  0
  -21.8871  -12.5791   21.6036 N   0  0  0  0  0  0  0  0  0  0  0  0
  -33.0372  -17.2166   31.7906 N   0  0  0  0  0  0  0  0  0  0  0  0
  -24.4125  -18.8136   21.6506 N   0  0  0  0  0  0  0  0  0  0  0  0
  -35.1686  -15.3495   25.5912 N   0  0  0  0  0  0  0  0  0  0  0  0
  -30.1445  -15.6741   21.5026 N   0  0  0  0  0  0  0  0  0  0  0  0
  -33.5240  -13.0434   23.3451 N   0  3  0  0  0  0  0  0  0  0  0  0
  -22.6612  -14.7195   21.3242 O   0  0  0  0  0  0  0  0  0  0  0  0
  -33.5869  -18.3472   29.8305 O   0  0  0  0  0  0  0  0  0  0  0  0
  -35.4660  -15.3922   28.4405 O   0  0  0  0  0  0  0  0  0  0  0  0
  -23.8399  -20.8209   20.6279 O   0  0  0  0  0  0  0  0  0  0  0  0
  -33.3435  -15.7152   24.2083 O   0  0  0  0  0  0  0  0  0  0  0  0
  -31.8777  -14.9228   20.2031 O   0  0  0  0  0  0  0  0  0  0  0  0
  -21.6169   -7.0157   21.7070 O   0  0  0  0  0  0  0  0  0  0  0  0
  -27.6716  -18.3698   26.8936 O   0  0  0  0  0  0  0  0  0  1  0  0
  -18.6343   -6.8514   26.3418 F   0  0  0  0  0  0  0  0  0  0  0  0
  -23.7988  -21.8763   23.4702 F   0  0  0  0  0  0  0  0  0  0  0  0
  -27.7335  -21.8564   26.0865 F   0  0  0  0  0  0  0  0  0  0  0  0
  -22.0717   -5.0705   23.6181 F   0  0  0  0  0  0  0  0  0  0  0  0
  -26.1803  -17.4281   24.1228 Cl  0  0  0  0  0  0  0  0  0  0  0  0
  1  2  1  0  0  0  0
  1  5  2  0  0  0  0
  2  6  2  0  0  0  0
  3  8  2  0  0  0  0
  3 16  1  0  0  0  0
  4  9  1  0  0  0  0
  4 16  2  0  0  0  0
  5 18  1  0  0  0  0
  6 20  1  0  0  0  0
  7 10  2  0  0  0  0
  7 19  1  0  0  0  0
  8 24  1  0  0  0  0
  9 24  2  0  0  0  0
 10 25  1  0  0  0  0
 11 12  2  0  0  0  0
 11 26  1  0  0  0  0
 12 27  1  0  0  0  0
 13 21  1  0  0  0  0
 13 25  2  0  0  0  0
 14 27  2  0  0  0  0
 14 30  1  0  0  0  0
 15 28  1  0  0  0  0
 15 29  2  0  0  0  0
 16 32  1  0  0  0  0
 17 32  1  0  0  0  0
 17 33  2  0  0  0  0
 17 34  1  0  0  0  0
 18 20  2  0  0  0  0
 18 40  1  0  0  0  0
 19 21  2  0  0  0  0
 19 41  1  0  0  0  0
 20 49  1  0  0  0  0
 21 42  1  0  0  0  0
 22 28  2  0  0  0  0
 22 31  1  0  0  0  0
 22 57  1  0  0  0  0
 23 29  1  0  0  0  0
 23 31  2  0  0  0  0
 23 58  1  0  0  0  0
 24 86  1  0  0  0  0
 25 87  1  0  0  0  0
 26 30  2  0  0  0  0
 26 86  1  0  0  0  0
 27 88  1  0  0  0  0
 28 89  1  0  0  0  0
 29 90  1  0  0  0  0
 30 91  1  0  0  0  0
 31 92  1  0  0  0  0
 32 69  2  0  0  0  0
 33 70  1  0  0  0  0
 33 73  1  0  0  0  0
 34 74  1  0  0  0  0
 34 80  2  0  0  0  0
 35 50  1  0  0  0  0
 35 75  1  0  0  0  0
 35 81  2  0  0  0  0
 36 66  1  0  0  0  0
 36 71  1  0  0  0  0
 36 82  2  0  0  0  0
 37 59  1  0  0  0  0
 37 76  1  0  0  0  0
 37 83  2  0  0  0  0
 38 67  1  0  0  0  0
 38 77  1  0  0  0  0
 38 84  2  0  0  0  0
 39 72  1  0  0  0  0
 39 78  1  0  0  0  0
 39 85  2  0  0  0  0
 40 43  1  0  0  0  0
 41 50  1  0  0  0  0
 42 71  1  0  0  0  0
 43 45  1  0  0  0  0
 44 46  1  0  0  0  0
 44 47  1  0  0  0  0
 45 49  1  0  0  0  0
 46 51  1  0  0  0  0
 47 72  1  0  0  0  0
 48 51  1  0  0  0  0
 48 72  1  0  0  0  0
 49 75  1  0  0  0  0
 50 71  1  0  0  0  0
 51 70  1  0  0  0  0
 52 67  1  0  0  0  0
 53 68  1  0  0  0  0
 54 68  1  0  0  0  0
 55 68  1  0  0  0  0
 56 79  1  0  0  0  0
 57 76  1  0  0  0  0
 58 87  1  0  0  0  0
 59 60  1  0  0  0  0
 60 61  1  0  0  0  0
 61 62  1  0  0  0  0
 62 63  1  0  0  0  0
 63 64  1  0  0  0  0
 64 65  1  0  0  0  0
 65 78  1  0  0  0  0
 66 68  1  0  0  0  0
 66 77  1  0  0  0  0
 67 79  1  0  0  0  0
 69 70  1  0  0  0  0
M  CHG  1  79   1
M  ISO  4  39 100  58 101  78 100  87 101
M  END
> <Batch ID>
0020

> <Smiles>
CNC(C)C(=O)NC(C(=O)N1Cc2cc([101O:1][101CH2:1]c3c(F)cc(F)c(CNC(=O)CCCCCCC[100NH:0][100C:0](=O)N4CCCC(n5nc(-c6ccc(Oc7ccc(F)cc7F)cc6)c(C(N)=O)c5N)C4)c3Cl)ccc2CC1C(=O)NC1CCCc2ccccc21)C(C)(C)C

> <Shape>
0.179

> <Color>
0.184

> <Negative vol penalty>
0.000

$$$$

  -OEChem-04052316093D

 88 96  0     1  0  0  0  0  0999 V2000
  -23.8410  -13.7578   14.5850 C   0  0  0  0  0  0  0  0  0  0  0  0
  -24.3665  -14.6059   15.5545 C   0  0  0  0  0  0  0  0  0  0  0  0
  -23.0596   -9.8883   20.0183 C   0  0  0  0  0  0  0  0  0  0  0  0
  -23.7857   -9.9964   22.3201 C   0  0  0  0  0  0  0  0  0  0  0  0
  -24.1473  -13.9634   13.2405 C   0  0  0  0  0  0  0  0  0  0  0  0
  -25.1995  -15.6596   15.1800 C   0  0  0  0  0  0  0  0  0  0  0  0
  -25.5601  -21.1800   17.8070 C   0  0  0  0  0  0  0  0  0  0  0  0
  -22.2850   -8.7670   20.3152 C   0  0  0  0  0  0  0  0  0  0  0  0
  -23.0110   -8.8750   22.6170 C   0  0  0  0  0  0  0  0  0  0  0  0
  -26.4464  -21.7196   18.7383 C   0  0  0  0  0  0  0  0  0  0  0  0
  -19.7563   -8.1836   23.2083 C   0  0  0  0  0  0  0  0  0  0  0  0
  -18.9815   -8.2216   24.3675 C   0  0  0  0  0  0  0  0  0  0  0  0
  -27.7321  -22.6908   16.9431 C   0  0  0  0  0  0  0  0  0  0  0  0
  -31.9973  -18.3661   23.9788 C   0  0  0  0  0  0  0  0  0  0  0  0
  -20.1657   -6.2968   25.2220 C   0  0  0  0  0  0  0  0  0  0  0  0
  -23.8100  -10.5030   21.0207 C   0  0  0  0  0  0  0  0  0  0  0  0
  -24.2133  -13.0101   20.7767 C   0  0  0  0  0  0  0  0  0  0  0  0
  -24.9767  -15.0260   12.8485 C   0  0  0  0  0  0  0  0  0  0  0  0
  -25.7597  -21.3831   16.4339 C   0  0  0  0  0  0  0  0  0  0  0  0
  -25.5182  -15.8789   13.8291 C   0  0  0  0  0  0  0  0  0  0  0  0
  -26.8455  -22.1549   15.9966 C   0  0  0  0  0  0  0  0  0  0  0  0
  -32.5666  -17.1097   23.7714 C   0  0  0  0  0  0  0  0  0  0  0  0
  -30.8201  -18.7162   23.3176 C   0  0  0  0  0  0  0  0  0  0  0  0
  -31.9586  -16.2034   22.9026 C   0  0  0  0  0  0  0  0  0  0  0  0
  -30.7814  -16.5535   22.2413 C   0  0  0  0  0  0  0  0  0  0  0  0
  -22.2607   -8.2603   21.6146 C   0  0  0  0  0  0  0  0  0  0  0  0
  -27.5342  -22.4726   18.3063 C   0  0  0  0  0  0  0  0  0  0  0  0
  -20.7358   -7.2022   23.0558 C   0  0  0  0  0  0  0  0  0  0  0  0
  -19.1862   -7.2782   25.3744 C   0  0  0  0  0  0  0  0  0  0  0  0
  -20.9405   -6.2588   24.0627 C   0  0  0  0  0  0  0  0  0  0  0  0
  -30.2122  -17.8100   22.4488 C   0  0  0  0  0  0  0  0  0  0  0  0
  -24.6108  -11.6610   20.7145 C   0  0  0  0  0  0  0  0  0  0  0  0
  -25.3282  -13.7146   20.3929 C   0  0  0  0  0  0  0  0  0  0  0  0
  -22.9494  -13.5758   21.1484 C   0  0  0  0  0  0  0  0  0  0  0  0
  -26.3074  -19.4868   13.9423 C   0  0  0  0  0  0  0  0  0  0  0  0
  -25.9975  -22.2479   12.2682 C   0  0  0  0  0  0  0  0  0  0  0  0
  -26.1682  -25.6563   12.2443 C   0  0  0  0  0  0  0  0  0  0  0  0
  -30.8144  -14.6422   20.6006 C   0  0  0  0  0  0  0  0  0  0  0  0
  -25.3176  -15.1798   11.3874 C   0  0  0  0  0  0  0  0  0  0  0  0
  -24.7796  -20.8167   15.4434 C   0  0  0  0  0  0  0  0  0  0  0  0
  -27.0929  -22.4192   14.5346 C   0  0  0  0  0  0  0  0  0  0  0  0
  -25.9058  -16.5449   11.0397 C   0  0  0  0  0  0  0  0  0  0  0  0
  -29.6780  -12.1354   18.3419 C   0  0  0  0  0  0  0  0  0  0  0  0
  -26.9854  -16.9328   12.0451 C   0  0  0  0  0  0  0  0  0  0  0  0
  -28.2257  -11.8995   18.7629 C   0  0  0  0  0  0  0  0  0  0  0  0
  -30.5806  -12.4050   19.5446 C   0  0  0  0  0  0  0  0  0  0  0  0
  -28.6712  -13.2434   20.8564 C   0  0  0  0  0  0  0  0  0  0  0  0
  -26.4056  -17.0478   13.4601 C   0  0  1  0  0  0  0  0  0  0  0  0
  -25.3687  -20.6555   14.0454 C   0  0  1  0  0  0  0  0  0  0  0  0
  -27.7120  -13.0318   19.6737 C   0  0  2  0  0  0  0  0  0  0  0  0
  -33.8287  -16.7604   24.4906 C   0  0  0  0  0  0  0  0  0  0  0  0
  -25.8988  -27.6315   10.7200 C   0  0  0  0  0  0  0  0  0  0  0  0
  -30.8143  -23.1902   23.5001 C   0  0  0  0  0  0  0  0  0  0  0  0
  -28.7078  -21.6399   11.0054 C   0  0  0  0  0  0  0  0  0  0  0  0
  -28.8174  -24.0272   10.2590 C   0  0  0  0  0  0  0  0  0  0  0  0
  -26.9971  -22.5423    9.4200 C   0  0  0  0  0  0  0  0  0  0  0  0
  -23.9592  -26.7605   13.8753 C   0  0  0  0  0  0  0  0  0  0  0  0
  -30.2456  -20.0787   23.5718 C   0  0  0  0  0  0  0  0  0  0  0  0
  -29.5933  -23.0287   21.2948 C   0  0  0  0  0  0  0  0  0  0  0  0
  -28.5796  -22.2828   20.4339 C   0  0  0  0  0  0  0  0  0  1  0  0
  -32.5776  -14.8577   22.6856 C   0  0  0  0  0  0  0  0  0  0  0  0
  -26.9410  -23.3375   11.8192 C   0  0  1  0  0  0  0  0  0  0  0  0
  -25.2113  -26.7090   11.7146 C   0  0  2  0  0  0  0  0  0  0  0  0
  -29.8569  -22.3669   22.6488 C   0  0  1  0  0  0  0  0  0  0  0  0
  -27.8625  -22.8803   10.6534 C   0  0  0  0  0  0  0  0  0  0  0  0
  -25.8790  -11.5147   20.3218 N   0  0  0  0  0  0  0  0  0  0  0  0
  -26.2881  -12.7810   20.1338 N   0  0  0  0  0  0  0  0  0  0  0  0
  -26.1101  -21.8388   13.6046 N   0  0  0  0  0  0  0  0  0  0  0  0
  -30.0334  -13.4923   20.3589 N   0  0  0  0  0  0  0  0  0  0  0  0
  -25.5711  -15.0353   20.2550 N   0  0  0  0  0  0  0  0  0  0  0  0
  -21.9114  -12.7087   21.5157 N   0  0  0  0  0  0  0  0  0  0  0  0
  -30.1772  -15.6229   21.3601 N   0  0  0  0  0  0  0  0  0  0  0  0
  -25.6890  -18.2958   13.6128 N   0  0  0  0  0  0  0  0  0  0  0  0
  -26.1089  -24.4939   11.5049 N   0  0  0  0  0  0  0  0  0  0  0  0
  -24.6807  -27.5370   12.8344 N   0  3  0  0  0  0  0  0  0  0  0  0
  -30.4643  -21.0222   22.4449 N   0  3  0  0  0  0  0  0  0  0  0  0
  -22.7416  -14.8129   21.1387 O   0  0  0  0  0  0  0  0  0  0  0  0
  -27.5044  -19.6535   14.1453 O   0  0  0  0  0  0  0  0  0  0  0  0
  -25.1856  -21.7820   11.4648 O   0  0  0  0  0  0  0  0  0  0  0  0
  -26.8981  -25.8473   13.2145 O   0  0  0  0  0  0  0  0  0  0  0  0
  -31.9540  -14.7606   20.1430 O   0  0  0  0  0  0  0  0  0  0  0  0
  -21.5047   -7.1663   21.9047 O   0  0  0  0  0  0  0  0  0  0  0  0
  -28.4011  -22.9998   19.2132 O   0  0  0  0  0  0  0  0  0  1  0  0
  -18.4431   -7.3158   26.4882 F   0  0  0  0  0  0  0  0  0  0  0  0
  -21.8807   -5.3143   23.9225 F   0  0  0  0  0  0  0  0  0  0  0  0
  -33.2638  -14.4637   23.7880 F   0  0  0  0  0  0  0  0  0  0  0  0
  -33.4715  -14.9024   21.6656 F   0  0  0  0  0  0  0  0  0  0  0  0
  -28.7491  -18.2552   21.6307 Cl  0  0  0  0  0  0  0  0  0  0  0  0
  1  2  1  0  0  0  0
  1  5  2  0  0  0  0
  2  6  2  0  0  0  0
  3  8  2  0  0  0  0
  3 16  1  0  0  0  0
  4  9  1  0  0  0  0
  4 16  2  0  0  0  0
  5 18  1  0  0  0  0
  6 20  1  0  0  0  0
  7 10  2  0  0  0  0
  7 19  1  0  0  0  0
  8 26  1  0  0  0  0
  9 26  2  0  0  0  0
 10 27  1  0  0  0  0
 11 12  2  0  0  0  0
 11 28  1  0  0  0  0
 12 29  1  0  0  0  0
 13 21  1  0  0  0  0
 13 27  2  0  0  0  0
 14 22  2  0  0  0  0
 14 23  1  0  0  0  0
 15 29  2  0  0  0  0
 15 30  1  0  0  0  0
 16 32  1  0  0  0  0
 17 32  1  0  0  0  0
 17 33  2  0  0  0  0
 17 34  1  0  0  0  0
 18 20  2  0  0  0  0
 18 39  1  0  0  0  0
 19 21  2  0  0  0  0
 19 40  1  0  0  0  0
 20 48  1  0  0  0  0
 21 41  1  0  0  0  0
 22 24  1  0  0  0  0
 22 51  1  0  0  0  0
 23 31  2  0  0  0  0
 23 58  1  0  0  0  0
 24 25  2  0  0  0  0
 24 61  1  0  0  0  0
 25 31  1  0  0  0  0
 25 72  1  0  0  0  0
 26 82  1  0  0  0  0
 27 83  1  0  0  0  0
 28 30  2  0  0  0  0
 28 82  1  0  0  0  0
 29 84  1  0  0  0  0
 30 85  1  0  0  0  0
 31 88  1  0  0  0  0
 32 66  2  0  0  0  0
 33 67  1  0  0  0  0
 33 70  1  0  0  0  0
 34 71  1  0  0  0  0
 34 77  2  0  0  0  0
 35 49  1  0  0  0  0
 35 73  1  0  0  0  0
 35 78  2  0  0  0  0
 36 62  1  0  0  0  0
 36 68  1  0  0  0  0
 36 79  2  0  0  0  0
 37 63  1  0  0  0  0
 37 74  1  0  0  0  0
 37 80  2  0  0  0  0
 38 69  1  0  0  0  0
 38 72  1  0  0  0  0
 38 81  2  0  0  0  0
 39 42  1  0  0  0  0
 40 49  1  0  0  0  0
 41 68  1  0  0  0  0
 42 44  1  0  0  0  0
 43 45  1  0  0  0  0
 43 46  1  0  0  0  0
 44 48  1  0  0  0  0
 45 50  1  0  0  0  0
 46 69  1  0  0  0  0
 47 50  1  0  0  0  0
 47 69  1  0  0  0  0
 48 73  1  0  0  0  0
 49 68  1  0  0  0  0
 50 67  1  0  0  0  0
 52 63  1  0  0  0  0
 53 64  1  0  0  0  0
 54 65  1  0  0  0  0
 55 65  1  0  0  0  0
 56 65  1  0  0  0  0
 57 75  1  0  0  0  0
 58 76  1  0  0  0  0
 59 60  1  0  0  0  0
 59 64  1  0  0  0  0
 60 83  1  0  0  0  0
 61 86  1  0  0  0  0
 61 87  1  0  0  0  0
 62 65  1  0  0  0  0
 62 74  1  0  0  0  0
 63 75  1  0  0  0  0
 64 76  1  0  0  0  0
 66 67  1  0  0  0  0
M  CHG  2  75   1  76   1
M  ISO  4  38 100  60 101  72 100  83 101
M  END
> <Batch ID>
0020

> <Smiles>
CNC(C)C(=O)NC(C(=O)N1Cc2cc([101O:1][101CH2:1]CC(C)NCc3cc(C)c(C(F)F)c([100NH:0][100C:0](=O)N4CCCC(n5nc(-c6ccc(Oc7ccc(F)cc7F)cc6)c(C(N)=O)c5N)C4)c3Cl)ccc2CC1C(=O)NC1CCCc2ccccc21)C(C)(C)C

> <Shape>
0.191

> <Color>
0.202

> <Negative vol penalty>
0.000

$$$$

  -OEChem-04052316093D

 89 97  0     1  0  0  0  0  0999 V2000
  -17.5751  -21.3461   28.7806 C   0  0  0  0  0  0  0  0  0  0  0  0
  -18.0661  -20.1306   28.3147 C   0  0  0  0  0  0  0  0  0  0  0  0
  -23.1898   -9.8194   19.9318 C   0  0  0  0  0  0  0  0  0  0  0  0
  -23.5671  -10.0000   22.3113 C   0  0  0  0  0  0  0  0  0  0  0  0
  -18.1719  -22.5391   28.3752 C   0  0  0  0  0  0  0  0  0  0  0  0
  -19.1535  -20.1076   27.4422 C   0  0  0  0  0  0  0  0  0  0  0  0
  -22.5838  -16.6029   28.7051 C   0  0  0  0  0  0  0  0  0  0  0  0
  -22.4232   -8.6729   20.1403 C   0  0  0  0  0  0  0  0  0  0  0  0
  -22.8005   -8.8535   22.5198 C   0  0  0  0  0  0  0  0  0  0  0  0
  -22.2961  -15.2805   28.3699 C   0  0  0  0  0  0  0  0  0  0  0  0
  -21.2420   -5.7701   23.6484 C   0  0  0  0  0  0  0  0  0  0  0  0
  -21.7378   -4.8103   24.5307 C   0  0  0  0  0  0  0  0  0  0  0  0
  -23.7353  -15.4623   26.4425 C   0  0  0  0  0  0  0  0  0  0  0  0
  -25.0931  -12.4437   29.3867 C   0  0  0  0  0  0  0  0  0  0  0  0
  -23.6970   -4.5457   23.1419 C   0  0  0  0  0  0  0  0  0  0  0  0
  -23.7618  -10.4829   21.0173 C   0  0  0  0  0  0  0  0  0  0  0  0
  -24.1010  -12.9995   20.7734 C   0  0  0  0  0  0  0  0  0  0  0  0
  -19.2733  -22.5303   27.5048 C   0  0  0  0  0  0  0  0  0  0  0  0
  -23.4423  -17.3696   27.9041 C   0  0  0  0  0  0  0  0  0  0  0  0
  -19.7648  -21.3017   27.0236 C   0  0  0  0  0  0  0  0  0  0  0  0
  -24.0343  -16.7933   26.7711 C   0  0  0  0  0  0  0  0  0  0  0  0
  -24.9547  -11.2782   28.6330 C   0  0  0  0  0  0  0  0  0  0  0  0
  -26.0588  -10.4544   28.4135 C   0  0  0  0  0  0  0  0  0  0  0  0
  -27.3012  -10.7962   28.9477 C   0  0  0  0  0  0  0  0  0  0  0  0
  -26.3355  -12.7855   29.9209 C   0  0  0  0  0  0  0  0  0  0  0  0
  -22.2285   -8.1900   21.4343 C   0  0  0  0  0  0  0  0  0  0  0  0
  -22.8696  -14.7109   27.2369 C   0  0  0  0  0  0  0  0  0  0  0  0
  -21.9736   -6.1177   22.5128 C   0  0  0  0  0  0  0  0  0  0  0  0
  -22.9653   -4.1981   24.2774 C   0  0  0  0  0  0  0  0  0  0  0  0
  -23.2011   -5.5056   22.2595 C   0  0  0  0  0  0  0  0  0  0  0  0
  -27.4395  -11.9617   29.7014 C   0  0  0  0  0  0  0  0  0  0  0  0
  -24.5542  -11.6670   20.8024 C   0  0  0  0  0  0  0  0  0  0  0  0
  -25.2325  -13.7419   20.5385 C   0  0  0  0  0  0  0  0  0  0  0  0
  -22.7759  -13.5197   20.9436 C   0  0  0  0  0  0  0  0  0  0  0  0
  -23.1339  -20.0313   26.1942 C   0  0  0  0  0  0  0  0  0  0  0  0
  -26.3370  -19.6920   25.8101 C   0  0  0  0  0  0  0  0  0  0  0  0
  -29.0486  -17.6201   25.7859 C   0  0  0  0  0  0  0  0  0  0  0  0
  -31.0466  -12.7510   21.5702 C   0  0  0  0  0  0  0  0  0  0  0  0
  -19.8553  -23.8476   27.0571 C   0  0  0  0  0  0  0  0  0  0  0  0
  -23.7635  -18.7863   28.2941 C   0  0  0  0  0  0  0  0  0  0  0  0
  -24.9785  -17.5675   25.8893 C   0  0  0  0  0  0  0  0  0  0  0  0
  -21.2394  -23.7190   26.4262 C   0  0  0  0  0  0  0  0  0  0  0  0
  -29.5207  -13.4684   18.4344 C   0  0  0  0  0  0  0  0  0  0  0  0
  -21.2618  -22.5756   25.4168 C   0  0  0  0  0  0  0  0  0  0  0  0
  -28.0339  -13.2083   18.6831 C   0  0  0  0  0  0  0  0  0  0  0  0
  -30.4015  -12.4789   19.1941 C   0  0  0  0  0  0  0  0  0  0  0  0
  -28.6472  -12.1366   20.8908 C   0  0  0  0  0  0  0  0  0  0  0  0
  -20.9582  -21.2345   26.0956 C   0  0  1  0  0  0  0  0  0  0  0  0
  -24.2474  -19.6338   27.1215 C   0  0  1  0  0  0  0  0  0  0  0  0
  -27.7202  -13.1445   20.1900 C   0  0  2  0  0  0  0  0  0  0  0  0
  -25.9093   -9.2044   27.6057 C   0  0  0  0  0  0  0  0  0  0  0  0
  -31.5287  -17.6258   25.4030 C   0  0  0  0  0  0  0  0  0  0  0  0
  -25.8694  -19.8776   22.8006 C   0  0  0  0  0  0  0  0  0  0  0  0
  -28.1665  -18.9432   22.4565 C   0  0  0  0  0  0  0  0  0  0  0  0
  -27.8726  -21.1279   23.6241 C   0  0  0  0  0  0  0  0  0  0  0  0
  -29.5931  -16.6848   28.5405 C   0  0  0  0  0  0  0  0  0  0  0  0
  -23.6009  -10.9326   28.0663 C   0  0  0  0  0  0  0  0  0  0  0  0
  -28.4962   -9.9278   28.7255 C   0  0  0  0  0  0  0  0  0  0  0  0
  -23.4702  -11.2146   26.5680 C   0  0  0  0  0  0  0  0  0  0  0  0
  -29.1134  -10.0466   27.3211 C   0  0  0  0  0  0  0  0  0  0  0  0
  -29.6494  -11.4507   27.0243 C   0  0  0  0  0  0  0  0  0  0  0  0
  -30.2778  -11.5210   25.6302 C   0  0  0  0  0  0  0  0  0  0  0  0
  -30.8487  -12.9140   25.3490 C   0  0  0  0  0  0  0  0  0  0  0  0
  -31.5358  -13.0023   23.9903 C   0  0  0  0  0  0  0  0  0  0  0  0
  -23.6048  -12.6919   26.2176 C   0  0  0  0  0  0  0  0  0  1  0  0
  -27.2256  -18.9913   24.8109 C   0  0  1  0  0  0  0  0  0  0  0  0
  -30.4162  -17.7433   26.4332 C   0  0  2  0  0  0  0  0  0  0  0  0
  -27.2643  -19.7207   23.4383 C   0  0  0  0  0  0  0  0  0  0  0  0
  -25.8709  -11.5657   20.6019 N   0  0  0  0  0  0  0  0  0  0  0  0
  -26.2547  -12.8439   20.4444 N   0  0  0  0  0  0  0  0  0  0  0  0
  -25.2563  -18.9510   26.3090 N   0  0  0  0  0  0  0  0  0  0  0  0
  -30.0544  -12.4680   20.6172 N   0  0  0  0  0  0  0  0  0  0  0  0
  -26.4721  -13.9649   30.6824 N   0  0  0  0  0  0  0  0  0  0  0  0
  -25.4427  -15.0687   20.4052 N   0  0  0  0  0  0  0  0  0  0  0  0
  -21.7289  -12.6176   21.1773 N   0  0  0  0  0  0  0  0  0  0  0  0
  -22.1240  -20.7511   26.8038 N   0  0  0  0  0  0  0  0  0  0  0  0
  -28.5293  -18.8527   25.4509 N   0  0  0  0  0  0  0  0  0  0  0  0
  -30.6319  -12.7258   22.8961 N   0  0  0  0  0  0  0  0  0  0  0  0
  -30.6050  -16.6730   27.4529 N   0  3  0  0  0  0  0  0  0  0  0  0
  -22.5249  -14.7467   20.8737 O   0  0  0  0  0  0  0  0  0  0  0  0
  -23.1877  -19.7102   25.0128 O   0  0  0  0  0  0  0  0  0  0  0  0
  -26.5963  -20.8517   26.1412 O   0  0  0  0  0  0  0  0  0  0  0  0
  -28.4979  -16.5384   25.5931 O   0  0  0  0  0  0  0  0  0  0  0  0
  -32.2144  -13.0124   21.2620 O   0  0  0  0  0  0  0  0  0  0  0  0
  -21.4803   -7.0714   21.6382 O   0  0  0  0  0  0  0  0  0  0  0  0
  -22.5900  -13.4206   26.9071 O   0  0  0  0  0  0  0  0  0  1  0  0
  -23.4421   -3.2775   25.1256 F   0  0  0  0  0  0  0  0  0  0  0  0
  -23.9091   -5.8363   21.1708 F   0  0  0  0  0  0  0  0  0  0  0  0
  -28.6346  -12.2900   30.2157 F   0  0  0  0  0  0  0  0  0  0  0  0
  1  2  1  0  0  0  0
  1  5  2  0  0  0  0
  2  6  2  0  0  0  0
  3  8  2  0  0  0  0
  3 16  1  0  0  0  0
  4  9  1  0  0  0  0
  4 16  2  0  0  0  0
  5 18  1  0  0  0  0
  6 20  1  0  0  0  0
  7 10  2  0  0  0  0
  7 19  1  0  0  0  0
  8 26  1  0  0  0  0
  9 26  2  0  0  0  0
 10 27  1  0  0  0  0
 11 12  2  0  0  0  0
 11 28  1  0  0  0  0
 12 29  1  0  0  0  0
 13 21  1  0  0  0  0
 13 27  2  0  0  0  0
 14 22  1  0  0  0  0
 14 25  2  0  0  0  0
 15 29  2  0  0  0  0
 15 30  1  0  0  0  0
 16 32  1  0  0  0  0
 17 32  1  0  0  0  0
 17 33  2  0  0  0  0
 17 34  1  0  0  0  0
 18 20  2  0  0  0  0
 18 39  1  0  0  0  0
 19 21  2  0  0  0  0
 19 40  1  0  0  0  0
 20 48  1  0  0  0  0
 21 41  1  0  0  0  0
 22 23  2  0  0  0  0
 22 57  1  0  0  0  0
 23 24  1  0  0  0  0
 23 51  1  0  0  0  0
 24 31  2  0  0  0  0
 24 58  1  0  0  0  0
 25 31  1  0  0  0  0
 25 73  1  0  0  0  0
 26 85  1  0  0  0  0
 27 86  1  0  0  0  0
 28 30  2  0  0  0  0
 28 85  1  0  0  0  0
 29 87  1  0  0  0  0
 30 88  1  0  0  0  0
 31 89  1  0  0  0  0
 32 69  2  0  0  0  0
 33 70  1  0  0  0  0
 33 74  1  0  0  0  0
 34 75  1  0  0  0  0
 34 80  2  0  0  0  0
 35 49  1  0  0  0  0
 35 76  1  0  0  0  0
 35 81  2  0  0  0  0
 36 66  1  0  0  0  0
 36 71  1  0  0  0  0
 36 82  2  0  0  0  0
 37 67  1  0  0  0  0
 37 77  1  0  0  0  0
 37 83  2  0  0  0  0
 38 72  1  0  0  0  0
 38 78  1  0  0  0  0
 38 84  2  0  0  0  0
 39 42  1  0  0  0  0
 40 49  1  0  0  0  0
 41 71  1  0  0  0  0
 42 44  1  0  0  0  0
 43 45  1  0  0  0  0
 43 46  1  0  0  0  0
 44 48  1  0  0  0  0
 45 50  1  0  0  0  0
 46 72  1  0  0  0  0
 47 50  1  0  0  0  0
 47 72  1  0  0  0  0
 48 76  1  0  0  0  0
 49 71  1  0  0  0  0
 50 70  1  0  0  0  0
 52 67  1  0  0  0  0
 53 68  1  0  0  0  0
 54 68  1  0  0  0  0
 55 68  1  0  0  0  0
 56 79  1  0  0  0  0
 57 59  1  0  0  0  0
 58 60  1  0  0  0  0
 59 65  1  0  0  0  0
 60 61  1  0  0  0  0
 61 62  1  0  0  0  0
 62 63  1  0  0  0  0
 63 64  1  0  0  0  0
 64 78  1  0  0  0  0
 65 86  1  0  0  0  0
 66 68  1  0  0  0  0
 66 77  1  0  0  0  0
 67 79  1  0  0  0  0
 69 70  1  0  0  0  0
M  CHG  1  79   1
M  ISO  4  38 100  65 101  78 100  86 101
M  END
> <Batch ID>
0020

> <Smiles>
CNC(C)C(=O)NC(C(=O)N1Cc2cc([101O:1][101CH2:1]CCc3cc(N)c(F)c(CCCCCC[100NH:0][100C:0](=O)N4CCCC(n5nc(-c6ccc(Oc7ccc(F)cc7F)cc6)c(C(N)=O)c5N)C4)c3C)ccc2CC1C(=O)NC1CCCc2ccccc21)C(C)(C)C

> <Shape>
0.138

> <Color>
0.178

> <Negative vol penalty>
0.000

$$$$

  -OEChem-04052316093D

 99109  0     1  0  0  0  0  0999 V2000
  -21.3637  -24.1100   23.7838 C   0  0  0  0  0  0  0  0  0  0  0  0
  -22.4880  -24.9264   23.8314 C   0  0  0  0  0  0  0  0  0  0  0  0
  -24.3249   -6.6942   23.3662 C   0  0  0  0  0  0  0  0  0  0  0  0
  -26.2259   -7.0966   21.9304 C   0  0  0  0  0  0  0  0  0  0  0  0
  -20.2267  -24.5353   23.0999 C   0  0  0  0  0  0  0  0  0  0  0  0
  -22.4717  -26.1733   23.2053 C   0  0  0  0  0  0  0  0  0  0  0  0
  -26.3574  -29.0979   23.9479 C   0  0  0  0  0  0  0  0  0  0  0  0
  -25.0251   -5.6721   24.0069 C   0  0  0  0  0  0  0  0  0  0  0  0
  -26.9261   -6.0744   22.5711 C   0  0  0  0  0  0  0  0  0  0  0  0
  -27.6060  -28.8513   23.3789 C   0  0  0  0  0  0  0  0  0  0  0  0
  -26.1833   -2.7164   25.7806 C   0  0  0  0  0  0  0  0  0  0  0  0
  -25.5094   -1.5194   26.0227 C   0  0  0  0  0  0  0  0  0  0  0  0
  -29.2057  -26.1048   20.3444 C   0  0  0  0  0  0  0  0  0  0  0  0
  -27.2009  -30.5862   21.7526 C   0  0  0  0  0  0  0  0  0  0  0  0
  -25.1479   -1.2431   23.6499 C   0  0  0  0  0  0  0  0  0  0  0  0
  -24.9253   -7.4065   22.3279 C   0  0  0  0  0  0  0  0  0  0  0  0
  -22.9855   -8.3502   20.9662 C   0  0  0  0  0  0  0  0  0  0  0  0
  -20.2016  -25.7828   22.4549 C   0  0  0  0  0  0  0  0  0  0  0  0
  -25.5151  -30.0848   23.4159 C   0  0  0  0  0  0  0  0  0  0  0  0
  -21.3255  -26.6306   22.5304 C   0  0  0  0  0  0  0  0  0  0  0  0
  -28.4620  -25.5651   19.2950 C   0  0  0  0  0  0  0  0  0  0  0  0
  -25.9431  -30.8452   22.3182 C   0  0  0  0  0  0  0  0  0  0  0  0
  -30.1260  -27.1230   20.0956 C   0  0  0  0  0  0  0  0  0  0  0  0
  -26.3257   -5.3622   23.6094 C   0  0  0  0  0  0  0  0  0  0  0  0
  -28.0268  -29.5935   22.2793 C   0  0  0  0  0  0  0  0  0  0  0  0
  -26.3394   -3.1768   24.4732 C   0  0  0  0  0  0  0  0  0  0  0  0
  -24.9917   -0.7827   24.9574 C   0  0  0  0  0  0  0  0  0  0  0  0
  -25.8218   -2.4401   23.4079 C   0  0  0  0  0  0  0  0  0  0  0  0
  -28.6387  -26.0436   17.9967 C   0  0  0  0  0  0  0  0  0  0  0  0
  -30.3027  -27.6015   18.7973 C   0  0  0  0  0  0  0  0  0  0  0  0
  -29.5591  -27.0618   17.7479 C   0  0  0  0  0  0  0  0  0  0  0  0
  -24.2022   -8.4621   21.6653 C   0  0  0  0  0  0  0  0  0  0  0  0
  -22.7222   -9.6253   20.5289 C   0  0  0  0  0  0  0  0  0  0  0  0
  -22.1664   -7.1967   20.7329 C   0  0  0  0  0  0  0  0  0  0  0  0
  -22.6248  -30.0922   22.0930 C   0  0  0  0  0  0  0  0  0  0  0  0
  -23.0225  -33.3105   22.1753 C   0  0  0  0  0  0  0  0  0  0  0  0
  -25.1673  -35.9632   22.2740 C   0  0  0  0  0  0  0  0  0  0  0  0
  -24.6592  -14.9044   22.6814 C   0  0  0  0  0  0  0  0  0  0  0  0
  -18.9420  -26.1966   21.7357 C   0  0  0  0  0  0  0  0  0  0  0  0
  -24.1823  -30.3568   24.0578 C   0  0  0  0  0  0  0  0  0  0  0  0
  -25.0849  -31.9299   21.7220 C   0  0  0  0  0  0  0  0  0  0  0  0
  -19.1714  -27.3266   20.7372 C   0  0  0  0  0  0  0  0  0  0  0  0
  -25.9986  -12.9432   19.6584 C   0  0  0  0  0  0  0  0  0  0  0  0
  -19.9491  -28.4546   21.3985 C   0  0  0  0  0  0  0  0  0  0  0  0
  -24.6847  -12.1989   19.4398 C   0  0  0  0  0  0  0  0  0  0  0  0
  -25.9718  -17.5274   24.2646 C   0  0  0  0  0  0  0  0  0  0  0  0
  -25.7136  -18.9470   24.7648 C   0  0  0  0  0  0  0  0  0  0  0  0
  -28.1910  -23.2416   20.1406 C   0  0  0  0  0  0  0  0  0  0  0  0
  -26.3876  -24.9685   20.5310 C   0  0  0  0  0  0  0  0  0  0  0  0
  -24.8433  -18.6330   22.4882 C   0  0  0  0  0  0  0  0  0  0  0  0
  -25.7878  -14.1794   20.5271 C   0  0  0  0  0  0  0  0  0  0  0  0
  -24.6321  -12.5209   21.9887 C   0  0  0  0  0  0  0  0  0  0  0  0
  -27.2023  -22.1411   20.5038 C   0  0  0  0  0  0  0  0  0  0  0  0
  -25.4126  -23.8547   20.8909 C   0  0  0  0  0  0  0  0  0  0  0  0
  -27.4782  -24.4769   19.5639 C   0  0  0  0  0  0  0  0  0  0  0  0
  -21.3414  -27.9777   21.8310 C   0  0  1  0  0  0  0  0  0  0  0  0
  -23.1927  -31.0354   23.1156 C   0  0  1  0  0  0  0  0  0  0  0  0
  -23.9527  -11.8851   20.7629 C   0  0  2  0  0  0  0  0  0  0  0  0
  -24.8726  -17.3058   23.2382 C   0  0  1  0  0  0  0  0  0  0  0  0
  -25.0400  -19.6996   23.5899 C   0  0  2  0  0  0  0  0  0  0  0  0
  -25.1975  -38.4724   22.2941 C   0  0  0  0  0  0  0  0  0  0  0  0
  -22.7482  -19.1493   24.4552 C   0  0  0  0  0  0  0  0  0  0  0  0
  -23.8820  -21.2737   25.1660 C   0  0  0  0  0  0  0  0  0  0  0  0
  -30.8802  -28.9484   23.4233 C   0  0  0  0  0  0  0  0  0  0  0  0
  -22.3873  -33.3397   19.1911 C   0  0  0  0  0  0  0  0  0  0  0  0
  -23.3459  -35.6499   19.0806 C   0  0  0  0  0  0  0  0  0  0  0  0
  -21.3434  -35.1989   20.4981 C   0  0  0  0  0  0  0  0  0  0  0  0
  -26.5099  -36.0415   24.9103 C   0  0  0  0  0  0  0  0  0  0  0  0
  -30.9308  -27.7049   21.2337 C   0  0  0  0  0  0  0  0  0  0  0  0
  -25.9265  -20.8432   23.0838 C   0  0  0  0  0  0  0  0  0  0  0  0
  -25.2488  -21.6076   21.9578 C   0  0  0  0  0  0  0  0  0  0  0  0
  -23.6037  -34.3403   21.2368 C   0  0  1  0  0  0  0  0  0  0  0  0
  -25.1892  -37.2092   23.1409 C   0  0  2  0  0  0  0  0  0  0  0  0
  -23.6858  -20.2740   24.0329 C   0  0  0  0  0  0  0  0  0  0  0  0
  -30.0402  -28.3283   22.3138 C   0  0  2  0  0  0  0  0  0  1  0  0
  -22.6857  -34.6105   20.0114 C   0  0  0  0  0  0  0  0  0  0  0  0
  -24.6790   -9.7097   21.6741 N   0  0  0  0  0  0  0  0  0  0  0  0
  -23.7571  -10.3935   20.9751 N   0  0  0  0  0  0  0  0  0  0  0  0
  -23.7876  -32.1538   22.3811 N   0  0  0  0  0  0  0  0  0  0  0  0
  -25.0019  -13.9153   21.7391 N   0  0  0  0  0  0  0  0  0  0  0  0
  -21.7088  -10.1532   19.8101 N   0  0  0  0  0  0  0  0  0  0  0  0
  -22.4036   -6.4301   19.5839 N   0  0  0  0  0  0  0  0  0  0  0  0
  -21.9641  -29.0063   22.6349 N   0  0  0  0  0  0  0  0  0  0  0  0
  -23.8811  -35.5210   22.0476 N   0  0  0  0  0  0  0  0  0  0  0  0
  -25.1277  -16.1818   22.3849 N   0  0  0  0  0  0  0  0  0  0  0  0
  -26.1754  -22.6860   21.4672 N   0  3  0  0  0  0  0  0  0  0  0  0
  -26.4017  -37.2162   24.0073 N   0  3  0  0  0  0  0  0  0  0  0  0
  -21.2405   -6.8653   21.5117 O   0  0  0  0  0  0  0  0  0  0  0  0
  -22.7738  -30.3327   20.9007 O   0  0  0  0  0  0  0  0  0  0  0  0
  -21.9331  -33.5278   22.7118 O   0  0  0  0  0  0  0  0  0  0  0  0
  -26.1889  -35.4371   21.8380 O   0  0  0  0  0  0  0  0  0  0  0  0
  -23.9975  -14.6687   23.6969 O   0  0  0  0  0  0  0  0  0  0  0  0
  -27.0094   -4.3650   24.2345 O   0  0  0  0  0  0  0  0  0  0  0  0
  -29.2448  -29.3544   21.7215 O   0  0  0  0  0  0  0  0  0  1  0  0
  -24.3459    0.3676   25.1898 F   0  0  0  0  0  0  0  0  0  0  0  0
  -25.9697   -2.8768   22.1496 F   0  0  0  0  0  0  0  0  0  0  0  0
  -27.9293  -25.5307   16.9817 F   0  0  0  0  0  0  0  0  0  0  0  0
  -31.1839  -28.5804   18.5484 F   0  0  0  0  0  0  0  0  0  0  0  0
  -29.7292  -27.5209   16.5012 F   0  0  0  0  0  0  0  0  0  0  0  0
  1  2  1  0  0  0  0
  1  5  2  0  0  0  0
  2  6  2  0  0  0  0
  3  8  2  0  0  0  0
  3 16  1  0  0  0  0
  4  9  1  0  0  0  0
  4 16  2  0  0  0  0
  5 18  1  0  0  0  0
  6 20  1  0  0  0  0
  7 10  2  0  0  0  0
  7 19  1  0  0  0  0
  8 24  1  0  0  0  0
  9 24  2  0  0  0  0
 10 25  1  0  0  0  0
 11 12  2  0  0  0  0
 11 26  1  0  0  0  0
 12 27  1  0  0  0  0
 13 21  2  0  0  0  0
 13 23  1  0  0  0  0
 14 22  1  0  0  0  0
 14 25  2  0  0  0  0
 15 27  2  0  0  0  0
 15 28  1  0  0  0  0
 16 32  1  0  0  0  0
 17 32  1  0  0  0  0
 17 33  2  0  0  0  0
 17 34  1  0  0  0  0
 18 20  2  0  0  0  0
 18 39  1  0  0  0  0
 19 22  2  0  0  0  0
 19 40  1  0  0  0  0
 20 56  1  0  0  0  0
 21 29  1  0  0  0  0
 21 55  1  0  0  0  0
 22 41  1  0  0  0  0
 23 30  2  0  0  0  0
 23 69  1  0  0  0  0
 24 93  1  0  0  0  0
 25 94  1  0  0  0  0
 26 28  2  0  0  0  0
 26 93  1  0  0  0  0
 27 95  1  0  0  0  0
 28 96  1  0  0  0  0
 29 31  2  0  0  0  0
 29 97  1  0  0  0  0
 30 31  1  0  0  0  0
 30 98  1  0  0  0  0
 31 99  1  0  0  0  0
 32 77  2  0  0  0  0
 33 78  1  0  0  0  0
 33 81  1  0  0  0  0
 34 82  1  0  0  0  0
 34 88  2  0  0  0  0
 35 57  1  0  0  0  0
 35 83  1  0  0  0  0
 35 89  2  0  0  0  0
 36 72  1  0  0  0  0
 36 79  1  0  0  0  0
 36 90  2  0  0  0  0
 37 73  1  0  0  0  0
 37 84  1  0  0  0  0
 37 91  2  0  0  0  0
 38 80  1  0  0  0  0
 38 85  1  0  0  0  0
 38 92  2  0  0  0  0
 39 42  1  0  0  0  0
 40 57  1  0  0  0  0
 41 79  1  0  0  0  0
 42 44  1  0  0  0  0
 43 45  1  0  0  0  0
 43 51  1  0  0  0  0
 44 56  1  0  0  0  0
 45 58  1  0  0  0  0
 46 47  1  0  0  0  0
 46 59  1  0  0  0  0
 47 60  1  0  0  0  0
 48 53  1  0  0  0  0
 48 55  1  0  0  0  0
 49 54  1  0  0  0  0
 49 55  1  0  0  0  0
 50 59  1  0  0  0  0
 50 60  1  0  0  0  0
 51 80  1  0  0  0  0
 52 58  1  0  0  0  0
 52 80  1  0  0  0  0
 53 86  1  0  0  0  0
 54 86  1  0  0  0  0
 56 83  1  0  0  0  0
 57 79  1  0  0  0  0
 58 78  1  0  0  0  0
 59 85  1  0  0  0  0
 60 70  1  0  0  0  0
 60 74  1  0  0  0  0
 61 73  1  0  0  0  0
 62 74  1  0  0  0  0
 63 74  1  0  0  0  0
 64 75  1  0  0  0  0
 65 76  1  0  0  0  0
 66 76  1  0  0  0  0
 67 76  1  0  0  0  0
 68 87  1  0  0  0  0
 69 75  1  0  0  0  0
 70 71  1  0  0  0  0
 71 86  1  0  0  0  0
 72 76  1  0  0  0  0
 72 84  1  0  0  0  0
 73 87  1  0  0  0  0
 75 94  1  0  0  0  0
 77 78  1  0  0  0  0
M  CHG  2  86   1  87   1
M  ISO  4  38 100  75 101  85 100  94 101
M  END
> <Batch ID>
0020

> <Smiles>
CNC(C)C(=O)NC(C(=O)N1Cc2cc([101O:1][101CH:1](C)Cc3cc(C4CCN(CCC5(C(C)C)CCC([100NH:0][100C:0](=O)N6CCCC(n7nc(-c8ccc(Oc9ccc(F)cc9F)cc8)c(C(N)=O)c7N)C6)C5)CC4)c(F)c(F)c3F)ccc2CC1C(=O)NC1CCCc2ccccc21)C(C)(C)C

> <Shape>
0.235

> <Color>
0.107

> <Negative vol penalty>
0.000

$$$$

  -OEChem-04052316093D

 82 90  0     1  0  0  0  0  0999 V2000
  -17.2557  -25.0503   24.8660 C   0  0  0  0  0  0  0  0  0  0  0  0
  -18.0121  -24.0890   24.2033 C   0  0  0  0  0  0  0  0  0  0  0  0
  -24.3635  -13.6254   24.1919 C   0  0  0  0  0  0  0  0  0  0  0  0
  -23.6095  -15.4878   22.8503 C   0  0  0  0  0  0  0  0  0  0  0  0
  -17.4099  -26.3988   24.5471 C   0  0  0  0  0  0  0  0  0  0  0  0
  -18.9225  -24.4757   23.2203 C   0  0  0  0  0  0  0  0  0  0  0  0
  -24.3207  -21.8672   21.9712 C   0  0  0  0  0  0  0  0  0  0  0  0
  -23.8510  -14.2406   25.3340 C   0  0  0  0  0  0  0  0  0  0  0  0
  -23.0970  -16.1030   23.9925 C   0  0  0  0  0  0  0  0  0  0  0  0
  -24.7159  -20.9474   21.0008 C   0  0  0  0  0  0  0  0  0  0  0  0
  -21.9085  -18.3316   26.6060 C   0  0  0  0  0  0  0  0  0  0  0  0
  -22.1612  -19.6926   26.7781 C   0  0  0  0  0  0  0  0  0  0  0  0
  -25.4730  -22.7596   19.6001 C   0  0  0  0  0  0  0  0  0  0  0  0
  -24.5366  -19.2514   26.7785 C   0  0  0  0  0  0  0  0  0  0  0  0
  -26.0862  -18.6034   14.7640 C   0  0  0  0  0  0  0  0  0  0  0  0
  -24.2428  -14.2490   22.9500 C   0  0  0  0  0  0  0  0  0  0  0  0
  -24.1020  -12.7237   20.9100 C   0  0  0  0  0  0  0  0  0  0  0  0
  -18.3296  -26.8029   23.5665 C   0  0  0  0  0  0  0  0  0  0  0  0
  -24.4890  -23.2429   21.7584 C   0  0  0  0  0  0  0  0  0  0  0  0
  -19.0882  -25.8307   22.8870 C   0  0  0  0  0  0  0  0  0  0  0  0
  -25.0815  -23.6946   20.5705 C   0  0  0  0  0  0  0  0  0  0  0  0
  -27.9912  -18.0250   16.1326 C   0  0  0  0  0  0  0  0  0  0  0  0
  -26.5853  -19.8916   16.7460 C   0  0  0  0  0  0  0  0  0  0  0  0
  -23.2178  -15.4794   25.2343 C   0  0  0  0  0  0  0  0  0  0  0  0
  -25.2894  -21.3937   19.8138 C   0  0  0  0  0  0  0  0  0  0  0  0
  -22.9699  -17.4306   26.5202 C   0  0  0  0  0  0  0  0  0  0  0  0
  -23.4752  -20.1525   26.8644 C   0  0  0  0  0  0  0  0  0  0  0  0
  -24.2839  -17.8905   26.6065 C   0  0  0  0  0  0  0  0  0  0  0  0
  -27.1898  -17.7885   15.0157 C   0  0  0  0  0  0  0  0  0  0  0  0
  -25.7839  -19.6550   15.6292 C   0  0  0  0  0  0  0  0  0  0  0  0
  -27.6890  -19.0766   16.9978 C   0  0  0  0  0  0  0  0  0  0  0  0
  -24.7724  -13.6143   21.7699 C   0  0  0  0  0  0  0  0  0  0  0  0
  -25.0316  -12.4090   19.9491 C   0  0  0  0  0  0  0  0  0  0  0  0
  -22.7591  -12.2256   20.9742 C   0  0  0  0  0  0  0  0  0  0  0  0
  -22.5286  -25.7357   21.5427 C   0  0  0  0  0  0  0  0  0  0  0  0
  -25.3029  -27.4133   21.4369 C   0  0  0  0  0  0  0  0  0  0  0  0
  -28.6428  -27.4479   20.7362 C   0  0  0  0  0  0  0  0  0  0  0  0
  -29.8642  -15.2618   17.8615 C   0  0  0  0  0  0  0  0  0  0  0  0
  -18.4272  -28.2682   23.2228 C   0  0  0  0  0  0  0  0  0  0  0  0
  -24.0820  -24.2208   22.8264 C   0  0  0  0  0  0  0  0  0  0  0  0
  -25.3027  -25.1600   20.3020 C   0  0  0  0  0  0  0  0  0  0  0  0
  -19.6834  -28.6261   22.4326 C   0  0  0  0  0  0  0  0  0  0  0  0
  -29.7543  -12.0057   19.2976 C   0  0  0  0  0  0  0  0  0  0  0  0
  -19.8986  -27.6340   21.2941 C   0  0  0  0  0  0  0  0  0  0  0  0
  -28.4045  -11.9684   20.0165 C   0  0  0  0  0  0  0  0  0  0  0  0
  -30.4029  -13.3853   19.3863 C   0  0  0  0  0  0  0  0  0  0  0  0
  -28.2022  -14.4630   19.6492 C   0  0  0  0  0  0  0  0  0  0  0  0
  -20.1039  -26.2128   21.8322 C   0  0  1  0  0  0  0  0  0  0  0  0
  -23.8297  -25.6250   22.2860 C   0  0  1  0  0  0  0  0  0  0  0  0
  -27.4834  -13.1074   19.5394 C   0  0  2  0  0  0  0  0  0  0  0  0
  -30.6347  -28.9741   20.7115 C   0  0  0  0  0  0  0  0  0  0  0  0
  -24.2780  -28.7054   18.8698 C   0  0  0  0  0  0  0  0  0  0  0  0
  -26.6183  -29.4590   18.3973 C   0  0  0  0  0  0  0  0  0  0  0  0
  -25.4354  -30.2735   20.4369 C   0  0  0  0  0  0  0  0  0  0  0  0
  -30.0798  -25.7948   22.7265 C   0  0  0  0  0  0  0  0  0  0  0  0
  -29.1747  -17.1447   16.3992 C   0  0  0  0  0  0  0  0  0  0  0  0
  -26.2561  -21.0251   17.6724 C   0  0  0  0  0  0  0  0  0  1  0  0
  -26.2315  -27.8758   20.3401 C   0  0  1  0  0  0  0  0  0  0  0  0
  -29.8317  -27.9694   21.5230 C   0  0  2  0  0  0  0  0  0  0  0  0
  -25.6350  -29.0509   19.5150 C   0  0  0  0  0  0  0  0  0  0  0  0
  -26.0307  -13.8499   21.3889 N   0  0  0  0  0  0  0  0  0  0  0  0
  -26.1584  -13.1028   20.2792 N   0  0  0  0  0  0  0  0  0  0  0  0
  -24.8823  -26.0773   21.3741 N   0  0  0  0  0  0  0  0  0  0  0  0
  -29.4780  -14.4202   18.9177 N   0  0  0  0  0  0  0  0  0  0  0  0
  -24.9868  -11.6091   18.8626 N   0  0  0  0  0  0  0  0  0  0  0  0
  -21.9382  -12.6511   22.0275 N   0  0  0  0  0  0  0  0  0  0  0  0
  -21.4486  -26.0552   22.3433 N   0  0  0  0  0  0  0  0  0  0  0  0
  -27.5034  -28.1836   20.9850 N   0  0  0  0  0  0  0  0  0  0  0  0
  -28.9260  -16.2111   17.4750 N   0  0  0  0  0  0  0  0  0  0  0  0
  -30.7333  -26.8458   21.9047 N   0  3  0  0  0  0  0  0  0  0  0  0
  -22.3058  -11.4142   20.1318 O   0  0  0  0  0  0  0  0  0  0  0  0
  -22.5064  -25.5468   20.3321 O   0  0  0  0  0  0  0  0  0  0  0  0
  -24.9690  -28.2062   22.3209 O   0  0  0  0  0  0  0  0  0  0  0  0
  -28.7182  -26.4866   19.9742 O   0  0  0  0  0  0  0  0  0  0  0  0
  -30.9615  -15.1703   17.3007 O   0  0  0  0  0  0  0  0  0  0  0  0
  -22.7174  -16.0799   26.3486 O   0  0  0  0  0  0  0  0  0  0  0  0
  -25.6754  -20.4981   18.8647 O   0  0  0  0  0  0  0  0  0  1  0  0
  -23.7178  -21.4596   27.0281 F   0  0  0  0  0  0  0  0  0  0  0  0
  -25.3077  -17.0298   26.5235 F   0  0  0  0  0  0  0  0  0  0  0  0
  -27.5269  -16.4975   13.9187 Cl  0  0  0  0  0  0  0  0  0  0  0  0
  -24.4083  -20.6394   15.2789 Cl  0  0  0  0  0  0  0  0  0  0  0  0
  -28.6853  -19.3721   18.3856 Cl  0  0  0  0  0  0  0  0  0  0  0  0
  1  2  1  0  0  0  0
  1  5  2  0  0  0  0
  2  6  2  0  0  0  0
  3  8  2  0  0  0  0
  3 16  1  0  0  0  0
  4  9  1  0  0  0  0
  4 16  2  0  0  0  0
  5 18  1  0  0  0  0
  6 20  1  0  0  0  0
  7 10  2  0  0  0  0
  7 19  1  0  0  0  0
  8 24  1  0  0  0  0
  9 24  2  0  0  0  0
 10 25  1  0  0  0  0
 11 12  2  0  0  0  0
 11 26  1  0  0  0  0
 12 27  1  0  0  0  0
 13 21  1  0  0  0  0
 13 25  2  0  0  0  0
 14 27  2  0  0  0  0
 14 28  1  0  0  0  0
 15 29  1  0  0  0  0
 15 30  2  0  0  0  0
 16 32  1  0  0  0  0
 17 32  1  0  0  0  0
 17 33  2  0  0  0  0
 17 34  1  0  0  0  0
 18 20  2  0  0  0  0
 18 39  1  0  0  0  0
 19 21  2  0  0  0  0
 19 40  1  0  0  0  0
 20 48  1  0  0  0  0
 21 41  1  0  0  0  0
 22 29  2  0  0  0  0
 22 31  1  0  0  0  0
 22 56  1  0  0  0  0
 23 30  1  0  0  0  0
 23 31  2  0  0  0  0
 23 57  1  0  0  0  0
 24 76  1  0  0  0  0
 25 77  1  0  0  0  0
 26 28  2  0  0  0  0
 26 76  1  0  0  0  0
 27 78  1  0  0  0  0
 28 79  1  0  0  0  0
 29 80  1  0  0  0  0
 30 81  1  0  0  0  0
 31 82  1  0  0  0  0
 32 61  2  0  0  0  0
 33 62  1  0  0  0  0
 33 65  1  0  0  0  0
 34 66  1  0  0  0  0
 34 71  2  0  0  0  0
 35 49  1  0  0  0  0
 35 67  1  0  0  0  0
 35 72  2  0  0  0  0
 36 58  1  0  0  0  0
 36 63  1  0  0  0  0
 36 73  2  0  0  0  0
 37 59  1  0  0  0  0
 37 68  1  0  0  0  0
 37 74  2  0  0  0  0
 38 64  1  0  0  0  0
 38 69  1  0  0  0  0
 38 75  2  0  0  0  0
 39 42  1  0  0  0  0
 40 49  1  0  0  0  0
 41 63  1  0  0  0  0
 42 44  1  0  0  0  0
 43 45  1  0  0  0  0
 43 46  1  0  0  0  0
 44 48  1  0  0  0  0
 45 50  1  0  0  0  0
 46 64  1  0  0  0  0
 47 50  1  0  0  0  0
 47 64  1  0  0  0  0
 48 67  1  0  0  0  0
 49 63  1  0  0  0  0
 50 62  1  0  0  0  0
 51 59  1  0  0  0  0
 52 60  1  0  0  0  0
 53 60  1  0  0  0  0
 54 60  1  0  0  0  0
 55 70  1  0  0  0  0
 56 69  1  0  0  0  0
 57 77  1  0  0  0  0
 58 60  1  0  0  0  0
 58 68  1  0  0  0  0
 59 70  1  0  0  0  0
 61 62  1  0  0  0  0
M  CHG  1  70   1
M  ISO  4  38 100  57 101  69 100  77 101
M  END
> <Batch ID>
0020

> <Smiles>
CNC(C)C(=O)NC(C(=O)N1Cc2cc([101O:1][101CH2:1]c3c(Cl)cc(Cl)c(C[100NH:0][100C:0](=O)N4CCCC(n5nc(-c6ccc(Oc7ccc(F)cc7F)cc6)c(C(N)=O)c5N)C4)c3Cl)ccc2CC1C(=O)NC1CCCc2ccccc21)C(C)(C)C

> <Shape>
0.173

> <Color>
0.086

> <Negative vol penalty>
0.000

$$$$

  -OEChem-04052316093D

 83 91  0     1  0  0  0  0  0999 V2000
  -24.9667  -35.5823   23.2442 C   0  0  0  0  0  0  0  0  0  0  0  0
  -25.6987  -34.4305   22.9739 C   0  0  0  0  0  0  0  0  0  0  0  0
  -27.0116  -12.3375   21.3963 C   0  0  0  0  0  0  0  0  0  0  0  0
  -26.6212  -13.2846   19.2082 C   0  0  0  0  0  0  0  0  0  0  0  0
  -23.6894  -35.4821   23.7941 C   0  0  0  0  0  0  0  0  0  0  0  0
  -25.1542  -33.1778   23.2545 C   0  0  0  0  0  0  0  0  0  0  0  0
  -25.8662  -29.8631   19.4928 C   0  0  0  0  0  0  0  0  0  0  0  0
  -26.2912  -11.1999   21.0325 C   0  0  0  0  0  0  0  0  0  0  0  0
  -25.9008  -12.1469   18.8443 C   0  0  0  0  0  0  0  0  0  0  0  0
  -27.1292  -29.2823   19.3865 C   0  0  0  0  0  0  0  0  0  0  0  0
  -24.2488   -8.2002   20.7999 C   0  0  0  0  0  0  0  0  0  0  0  0
  -23.3211   -7.6987   21.7128 C   0  0  0  0  0  0  0  0  0  0  0  0
  -26.3025  -27.2985   20.4820 C   0  0  0  0  0  0  0  0  0  0  0  0
  -22.1189   -9.7932   21.6416 C   0  0  0  0  0  0  0  0  0  0  0  0
  -27.1765  -13.3799   20.4842 C   0  0  0  0  0  0  0  0  0  0  0  0
  -29.3026  -14.7721   20.7064 C   0  0  0  0  0  0  0  0  0  0  0  0
  -23.1251  -34.2272   24.0726 C   0  0  0  0  0  0  0  0  0  0  0  0
  -24.8129  -29.1691   20.1053 C   0  0  0  0  0  0  0  0  0  0  0  0
  -23.8687  -33.0608   23.8100 C   0  0  0  0  0  0  0  0  0  0  0  0
  -25.0264  -27.8717   20.5926 C   0  0  0  0  0  0  0  0  0  0  0  0
  -28.9671  -23.4136   19.4335 C   0  0  0  0  0  0  0  0  0  0  0  0
  -29.6779  -22.3369   20.0188 C   0  0  0  0  0  0  0  0  0  0  0  0
  -25.7359  -11.1045   19.7565 C   0  0  0  0  0  0  0  0  0  0  0  0
  -27.3482  -28.0009   19.8837 C   0  0  0  0  0  0  0  0  0  0  0  0
  -24.1116   -9.4982   20.3079 C   0  0  0  0  0  0  0  0  0  0  0  0
  -22.2561   -8.4951   22.1336 C   0  0  0  0  0  0  0  0  0  0  0  0
  -23.0467  -10.2947   20.7288 C   0  0  0  0  0  0  0  0  0  0  0  0
  -27.9201  -14.5557   20.8596 C   0  0  0  0  0  0  0  0  0  0  0  0
  -29.8741  -24.1661   18.7206 C   0  0  0  0  0  0  0  0  0  0  0  0
  -30.9978  -22.4644   19.6459 C   0  0  0  0  0  0  0  0  0  0  0  0
  -29.5113  -16.0314   21.2133 C   0  0  0  0  0  0  0  0  0  0  0  0
  -30.3083  -13.9117   20.1550 C   0  0  0  0  0  0  0  0  0  0  0  0
  -29.6159  -25.4037   17.9265 C   0  0  0  0  0  0  0  0  0  0  0  0
  -22.9909  -29.6597   22.6633 C   0  0  0  0  0  0  0  0  0  0  0  0
  -21.4219  -27.0414   21.5655 C   0  0  0  0  0  0  0  0  0  0  0  0
  -21.5076  -24.1793   19.7086 C   0  0  0  0  0  0  0  0  0  0  0  0
  -28.0651  -21.3859   21.7042 C   0  0  0  0  0  0  0  0  0  0  0  0
  -21.7598  -34.1708   24.7108 C   0  0  0  0  0  0  0  0  0  0  0  0
  -23.4496  -29.7991   20.1882 C   0  0  0  0  0  0  0  0  0  0  0  0
  -23.9237  -27.0765   21.2407 C   0  0  0  0  0  0  0  0  0  0  0  0
  -21.1064  -32.7934   24.6306 C   0  0  0  0  0  0  0  0  0  0  0  0
  -26.4467  -19.0644   23.8649 C   0  0  0  0  0  0  0  0  0  0  0  0
  -22.1004  -31.7071   25.0291 C   0  0  0  0  0  0  0  0  0  0  0  0
  -26.7995  -17.7022   23.2631 C   0  0  0  0  0  0  0  0  0  0  0  0
  -26.2195  -20.1201   22.7844 C   0  0  0  0  0  0  0  0  0  0  0  0
  -27.6628  -18.8942   21.2086 C   0  0  0  0  0  0  0  0  0  0  0  0
  -23.3025  -31.6831   24.0773 C   0  0  1  0  0  0  0  0  0  0  0  0
  -22.5817  -29.2023   21.2918 C   0  0  1  0  0  0  0  0  0  0  0  0
  -27.9644  -17.8139   22.2601 C   0  0  2  0  0  0  0  0  0  0  0  0
  -27.5185  -23.6794   19.5644 C   0  0  0  0  0  0  0  0  0  0  0  0
  -32.1687  -21.6212   19.9715 C   0  0  0  0  0  0  0  0  0  0  0  0
  -20.0836  -22.2270   19.0316 C   0  0  0  0  0  0  0  0  0  0  0  0
  -21.7993  -25.8099   24.3316 C   0  0  0  0  0  0  0  0  0  0  0  0
  -21.2372  -23.5811   23.3394 C   0  0  0  0  0  0  0  0  0  0  0  0
  -19.5492  -25.4175   23.3131 C   0  0  0  0  0  0  0  0  0  0  0  0
  -32.3311  -24.0655   18.2587 C   0  0  0  0  0  0  0  0  0  0  0  0
  -21.7113  -24.8770   16.8397 C   0  0  0  0  0  0  0  0  0  0  0  0
  -30.3403  -26.6859   18.3155 C   0  0  0  0  0  0  0  0  0  0  0  0
  -29.3841  -27.8186   18.6680 C   0  0  0  0  0  0  0  0  0  1  0  0
  -21.5510  -25.5519   21.7747 C   0  0  1  0  0  0  0  0  0  0  0  0
  -20.5532  -23.6264   18.6656 C   0  0  2  0  0  0  0  0  0  0  0  0
  -21.0556  -25.1056   23.1793 C   0  0  0  0  0  0  0  0  0  0  0  0
  -27.2946  -15.5942   21.4202 N   0  0  0  0  0  0  0  0  0  0  0  0
  -31.1054  -23.5799   18.8571 N   0  0  0  0  0  0  0  0  0  0  0  0
  -28.2887  -16.4753   21.6237 N   0  0  0  0  0  0  0  0  0  0  0  0
  -22.6100  -27.7383   21.3038 N   0  0  0  0  0  0  0  0  0  0  0  0
  -27.3654  -20.1724   21.8739 N   0  0  0  0  0  0  0  0  0  0  0  0
  -30.6195  -16.7912   21.3436 N   0  0  0  0  0  0  0  0  0  0  0  0
  -29.9217  -12.6513   19.6793 N   0  0  0  0  0  0  0  0  0  0  0  0
  -29.1560  -21.3063   20.8393 N   0  0  0  0  0  0  0  0  0  0  0  0
  -22.9502  -31.0303   22.8347 N   0  0  0  0  0  0  0  0  0  0  0  0
  -20.8458  -24.9211   20.6642 N   0  0  0  0  0  0  0  0  0  0  0  0
  -21.2200  -23.5651   17.3342 N   0  3  0  0  0  0  0  0  0  0  0  0
  -31.5167  -14.2440   20.1013 O   0  0  0  0  0  0  0  0  0  0  0  0
  -28.8292  -25.3570   16.9836 O   0  0  0  0  0  0  0  0  0  0  0  0
  -23.3178  -28.8305   23.5042 O   0  0  0  0  0  0  0  0  0  0  0  0
  -20.3071  -27.5660   21.6248 O   0  0  0  0  0  0  0  0  0  0  0  0
  -22.7184  -23.9706   19.6808 O   0  0  0  0  0  0  0  0  0  0  0  0
  -27.7382  -22.4129   22.3045 O   0  0  0  0  0  0  0  0  0  0  0  0
  -25.0331   -9.9944   19.4010 O   0  0  0  0  0  0  0  0  0  0  0  0
  -28.5802  -27.4319   19.7819 O   0  0  0  0  0  0  0  0  0  1  0  0
  -21.3644   -8.0129   23.0091 F   0  0  0  0  0  0  0  0  0  0  0  0
  -22.9090  -11.5421   20.2587 F   0  0  0  0  0  0  0  0  0  0  0  0
  1  2  1  0  0  0  0
  1  5  2  0  0  0  0
  2  6  2  0  0  0  0
  3  8  2  0  0  0  0
  3 15  1  0  0  0  0
  4  9  1  0  0  0  0
  4 15  2  0  0  0  0
  5 17  1  0  0  0  0
  6 19  1  0  0  0  0
  7 10  2  0  0  0  0
  7 18  1  0  0  0  0
  8 23  1  0  0  0  0
  9 23  2  0  0  0  0
 10 24  1  0  0  0  0
 11 12  2  0  0  0  0
 11 25  1  0  0  0  0
 12 26  1  0  0  0  0
 13 20  1  0  0  0  0
 13 24  2  0  0  0  0
 14 26  2  0  0  0  0
 14 27  1  0  0  0  0
 15 28  1  0  0  0  0
 16 28  1  0  0  0  0
 16 31  2  0  0  0  0
 16 32  1  0  0  0  0
 17 19  2  0  0  0  0
 17 38  1  0  0  0  0
 18 20  2  0  0  0  0
 18 39  1  0  0  0  0
 19 47  1  0  0  0  0
 20 40  1  0  0  0  0
 21 22  1  0  0  0  0
 21 29  2  0  0  0  0
 21 50  1  0  0  0  0
 22 30  2  0  0  0  0
 22 70  1  0  0  0  0
 23 80  1  0  0  0  0
 24 81  1  0  0  0  0
 25 27  2  0  0  0  0
 25 80  1  0  0  0  0
 26 82  1  0  0  0  0
 27 83  1  0  0  0  0
 28 63  2  0  0  0  0
 29 33  1  0  0  0  0
 29 64  1  0  0  0  0
 30 51  1  0  0  0  0
 30 64  1  0  0  0  0
 31 65  1  0  0  0  0
 31 68  1  0  0  0  0
 32 69  1  0  0  0  0
 32 74  2  0  0  0  0
 33 58  1  0  0  0  0
 33 75  2  0  0  0  0
 34 48  1  0  0  0  0
 34 71  1  0  0  0  0
 34 76  2  0  0  0  0
 35 60  1  0  0  0  0
 35 66  1  0  0  0  0
 35 77  2  0  0  0  0
 36 61  1  0  0  0  0
 36 72  1  0  0  0  0
 36 78  2  0  0  0  0
 37 67  1  0  0  0  0
 37 70  1  0  0  0  0
 37 79  2  0  0  0  0
 38 41  1  0  0  0  0
 39 48  1  0  0  0  0
 40 66  1  0  0  0  0
 41 43  1  0  0  0  0
 42 44  1  0  0  0  0
 42 45  1  0  0  0  0
 43 47  1  0  0  0  0
 44 49  1  0  0  0  0
 45 67  1  0  0  0  0
 46 49  1  0  0  0  0
 46 67  1  0  0  0  0
 47 71  1  0  0  0  0
 48 66  1  0  0  0  0
 49 65  1  0  0  0  0
 52 61  1  0  0  0  0
 53 62  1  0  0  0  0
 54 62  1  0  0  0  0
 55 62  1  0  0  0  0
 56 64  1  0  0  0  0
 57 73  1  0  0  0  0
 58 59  1  0  0  0  0
 59 81  1  0  0  0  0
 60 62  1  0  0  0  0
 60 72  1  0  0  0  0
 61 73  1  0  0  0  0
 63 65  1  0  0  0  0
M  CHG  1  73   1
M  ISO  4  37 100  59 101  70 100  81 101
M  END
> <Batch ID>
0020

> <Smiles>
CNC(C)C(=O)NC(C(=O)N1Cc2cc([101O:1][101CH2:1]CC(=O)c3c(C)c([100NH:0][100C:0](=O)N4CCCC(n5nc(-c6ccc(Oc7ccc(F)cc7F)cc6)c(C(N)=O)c5N)C4)c(C)n3C)ccc2CC1C(=O)NC1CCCc2ccccc21)C(C)(C)C

> <Shape>
0.295

> <Color>
0.086

> <Negative vol penalty>
0.000

$$$$

  -OEChem-04052316093D

 98106  0     1  0  0  0  0  0999 V2000
  -23.2700  -37.7807   18.6302 C   0  0  0  0  0  0  0  0  0  0  0  0
  -23.4763  -36.5952   17.9320 C   0  0  0  0  0  0  0  0  0  0  0  0
  -22.7698  -15.0774   21.2076 C   0  0  0  0  0  0  0  0  0  0  0  0
  -24.5468  -15.0820   22.8444 C   0  0  0  0  0  0  0  0  0  0  0  0
  -23.8736  -37.9708   19.8725 C   0  0  0  0  0  0  0  0  0  0  0  0
  -24.2874  -35.5995   18.4752 C   0  0  0  0  0  0  0  0  0  0  0  0
  -24.9708  -28.4730   18.7229 C   0  0  0  0  0  0  0  0  0  0  0  0
  -22.9479  -13.7070   21.0181 C   0  0  0  0  0  0  0  0  0  0  0  0
  -24.7249  -13.7116   22.6550 C   0  0  0  0  0  0  0  0  0  0  0  0
  -25.9177  -27.4735   18.5036 C   0  0  0  0  0  0  0  0  0  0  0  0
  -26.2055  -11.6809   20.3935 C   0  0  0  0  0  0  0  0  0  0  0  0
  -27.5116  -11.2088   20.2641 C   0  0  0  0  0  0  0  0  0  0  0  0
  -26.8450  -27.8800   20.6931 C   0  0  0  0  0  0  0  0  0  0  0  0
  -27.1989   -9.8105   22.2094 C   0  0  0  0  0  0  0  0  0  0  0  0
  -23.5693  -15.7649   22.1207 C   0  0  0  0  0  0  0  0  0  0  0  0
  -22.5314  -17.8072   23.2430 C   0  0  0  0  0  0  0  0  0  0  0  0
  -24.6847  -36.9730   20.4356 C   0  0  0  0  0  0  0  0  0  0  0  0
  -24.9607  -29.1921   19.9267 C   0  0  0  0  0  0  0  0  0  0  0  0
  -24.9035  -35.7770   19.7256 C   0  0  0  0  0  0  0  0  0  0  0  0
  -25.8953  -28.8864   20.9263 C   0  0  0  0  0  0  0  0  0  0  0  0
  -30.2064  -22.6089   19.4664 C   0  0  0  0  0  0  0  0  0  0  0  0
  -31.4910  -23.0100   19.1166 C   0  0  0  0  0  0  0  0  0  0  0  0
  -29.2729  -23.5579   19.8678 C   0  0  0  0  0  0  0  0  0  0  0  0
  -23.9254  -13.0241   21.7418 C   0  0  0  0  0  0  0  0  0  0  0  0
  -26.8569  -27.1788   19.4876 C   0  0  0  0  0  0  0  0  0  0  0  0
  -25.3960  -11.2178   21.4308 C   0  0  0  0  0  0  0  0  0  0  0  0
  -28.0083  -10.2736   21.1721 C   0  0  0  0  0  0  0  0  0  0  0  0
  -25.8927  -10.2826   22.3388 C   0  0  0  0  0  0  0  0  0  0  0  0
  -23.3863  -17.1807   22.3164 C   0  0  0  0  0  0  0  0  0  0  0  0
  -29.6705  -24.8848   19.9021 C   0  0  0  0  0  0  0  0  0  0  0  0
  -31.7893  -24.3614   19.1843 C   0  0  0  0  0  0  0  0  0  0  0  0
  -22.7228  -19.1509   23.0326 C   0  0  0  0  0  0  0  0  0  0  0  0
  -21.6438  -17.2265   24.2076 C   0  0  0  0  0  0  0  0  0  0  0  0
  -25.3491  -32.2459   20.7186 C   0  0  0  0  0  0  0  0  0  0  0  0
  -30.3217  -16.0675   20.3408 C   0  0  0  0  0  0  0  0  0  0  0  0
  -24.5431  -31.1781   23.6736 C   0  0  0  0  0  0  0  0  0  0  0  0
  -24.3713  -28.5659   25.8631 C   0  0  0  0  0  0  0  0  0  0  0  0
  -27.5429  -21.9730   20.8056 C   0  0  0  0  0  0  0  0  0  0  0  0
  -25.3542  -37.2433   21.7598 C   0  0  0  0  0  0  0  0  0  0  0  0
  -23.9158  -30.2490   20.1585 C   0  0  0  0  0  0  0  0  0  0  0  0
  -25.9141  -29.6154   22.2441 C   0  0  0  0  0  0  0  0  0  0  0  0
  -25.8970  -35.9867   22.4356 C   0  0  0  0  0  0  0  0  0  0  0  0
  -24.1220  -21.6083   19.1060 C   0  0  0  0  0  0  0  0  0  0  0  0
  -26.6676  -35.1324   21.4340 C   0  0  0  0  0  0  0  0  0  0  0  0
  -23.3192  -21.0366   20.2722 C   0  0  0  0  0  0  0  0  0  0  0  0
  -25.3485  -22.3817   19.5734 C   0  0  0  0  0  0  0  0  0  0  0  0
  -25.6730  -20.3427   20.9852 C   0  0  0  0  0  0  0  0  0  0  0  0
  -25.7567  -34.6633   20.2931 C   0  0  1  0  0  0  0  0  0  0  0  0
  -24.3223  -31.2690   21.2175 C   0  0  1  0  0  0  0  0  0  0  0  0
  -24.2082  -20.5123   21.4173 C   0  0  2  0  0  0  0  0  0  0  0  0
  -32.5101  -22.0071   18.6852 C   0  0  0  0  0  0  0  0  0  0  0  0
  -29.0898  -15.4677   19.6863 C   0  0  0  0  0  0  0  0  0  0  0  0
  -30.9970  -14.3865   22.9028 C   0  0  0  0  0  0  0  0  0  0  0  0
  -23.7032  -28.0093   28.2171 C   0  0  0  0  0  0  0  0  0  0  0  0
  -37.5874  -20.2749   18.6065 C   0  0  0  0  0  0  0  0  0  0  0  0
  -36.3805  -20.5729   20.7780 C   0  0  0  0  0  0  0  0  0  0  0  0
  -28.7510  -16.4109   22.2908 C   0  0  0  0  0  0  0  0  0  0  0  0
  -27.1031  -32.4789   24.7052 C   0  0  0  0  0  0  0  0  0  0  0  0
  -26.8738  -31.1134   26.7911 C   0  0  0  0  0  0  0  0  0  0  0  0
  -25.1119  -32.7737   26.1893 C   0  0  0  0  0  0  0  0  0  0  0  0
  -22.3064  -26.6532   24.9481 C   0  0  0  0  0  0  0  0  0  0  0  0
  -29.8303  -21.1504   19.4100 C   0  0  0  0  0  0  0  0  0  0  0  0
  -28.7152  -25.9534   20.3248 C   0  0  0  0  0  0  0  0  0  1  0  0
  -31.1810  -15.8970   22.7716 C   0  0  0  0  0  0  0  0  0  0  0  0
  -30.3867  -20.3767   20.6073 C   0  0  0  0  0  0  0  0  0  0  0  0
  -29.9690  -18.9039   20.5591 C   0  0  0  0  0  0  0  0  0  0  0  0
  -34.7134  -18.1045   20.1069 C   0  0  0  0  0  0  0  0  0  0  0  0
  -33.5112  -17.4316   19.4355 C   0  0  0  0  0  0  0  0  0  0  0  0
  -35.5760  -18.8458   19.0804 C   0  0  0  0  0  0  0  0  0  0  0  0
  -30.4990  -18.1404   21.7809 C   0  0  0  0  0  0  0  0  0  0  0  0
  -32.5997  -16.7318   20.4377 C   0  0  0  0  0  0  0  0  0  0  0  0
  -25.3044  -30.6331   24.8579 C   0  0  1  0  0  0  0  0  0  0  0  0
  -23.2520  -28.0808   26.7666 C   0  0  2  0  0  0  0  0  0  0  0  0
  -36.7875  -19.5652   19.7020 C   0  0  0  0  0  0  0  0  0  0  0  0
  -30.1987  -16.6116   21.7932 C   0  0  1  0  0  0  0  0  0  0  0  0
  -26.0994  -31.7372   25.6104 C   0  0  0  0  0  0  0  0  0  0  0  0
  -24.0698  -18.0545   21.5727 N   0  0  0  0  0  0  0  0  0  0  0  0
  -30.9091  -25.3125   19.5695 N   0  0  0  0  0  0  0  0  0  0  0  0
  -31.4652  -16.1438   19.7458 N   0  0  0  0  0  0  0  0  0  0  0  0
  -23.6445  -19.2439   22.0316 N   0  0  0  0  0  0  0  0  0  0  0  0
  -24.8762  -30.6445   22.4206 N   0  0  0  0  0  0  0  0  0  0  0  0
  -26.2208  -21.5992   20.4611 N   0  0  0  0  0  0  0  0  0  0  0  0
  -33.0969  -24.7779   18.8298 N   0  0  0  0  0  0  0  0  0  0  0  0
  -22.1909  -20.2502   23.6080 N   0  0  0  0  0  0  0  0  0  0  0  0
  -21.5694  -15.8295   24.2912 N   0  0  0  0  0  0  0  0  0  0  0  0
  -27.9571  -23.1790   20.2340 N   0  0  0  0  0  0  0  0  0  0  0  0
  -24.9263  -33.5614   20.7299 N   0  0  0  0  0  0  0  0  0  0  0  0
  -24.3271  -29.9323   25.6840 N   0  0  0  0  0  0  0  0  0  0  0  0
  -22.7994  -26.7241   26.3478 N   0  3  0  0  0  0  0  0  0  0  0  0
  -20.9253  -17.9258   24.9615 O   0  0  0  0  0  0  0  0  0  0  0  0
  -26.4444  -31.8367   20.3520 O   0  0  0  0  0  0  0  0  0  0  0  0
  -23.6795  -32.0401   23.8546 O   0  0  0  0  0  0  0  0  0  0  0  0
  -25.2039  -27.8088   25.3690 O   0  0  0  0  0  0  0  0  0  0  0  0
  -28.2368  -21.2828   21.5552 O   0  0  0  0  0  0  0  0  0  0  0  0
  -24.0992  -11.6868   21.5574 O   0  0  0  0  0  0  0  0  0  0  0  0
  -27.7894  -26.1972   19.2743 O   0  0  0  0  0  0  0  0  0  1  0  0
  -29.2621   -9.8193   21.0468 F   0  0  0  0  0  0  0  0  0  0  0  0
  -25.1195   -9.8332   23.3367 F   0  0  0  0  0  0  0  0  0  0  0  0
  1  2  1  0  0  0  0
  1  5  2  0  0  0  0
  2  6  2  0  0  0  0
  3  8  2  0  0  0  0
  3 15  1  0  0  0  0
  4  9  1  0  0  0  0
  4 15  2  0  0  0  0
  5 17  1  0  0  0  0
  6 19  1  0  0  0  0
  7 10  2  0  0  0  0
  7 18  1  0  0  0  0
  8 24  1  0  0  0  0
  9 24  2  0  0  0  0
 10 25  1  0  0  0  0
 11 12  2  0  0  0  0
 11 26  1  0  0  0  0
 12 27  1  0  0  0  0
 13 20  1  0  0  0  0
 13 25  2  0  0  0  0
 14 27  2  0  0  0  0
 14 28  1  0  0  0  0
 15 29  1  0  0  0  0
 16 29  1  0  0  0  0
 16 32  2  0  0  0  0
 16 33  1  0  0  0  0
 17 19  2  0  0  0  0
 17 39  1  0  0  0  0
 18 20  2  0  0  0  0
 18 40  1  0  0  0  0
 19 48  1  0  0  0  0
 20 41  1  0  0  0  0
 21 22  1  0  0  0  0
 21 23  2  0  0  0  0
 21 62  1  0  0  0  0
 22 31  2  0  0  0  0
 22 51  1  0  0  0  0
 23 30  1  0  0  0  0
 23 86  1  0  0  0  0
 24 95  1  0  0  0  0
 25 96  1  0  0  0  0
 26 28  2  0  0  0  0
 26 95  1  0  0  0  0
 27 97  1  0  0  0  0
 28 98  1  0  0  0  0
 29 77  2  0  0  0  0
 30 63  1  0  0  0  0
 30 78  2  0  0  0  0
 31 78  1  0  0  0  0
 31 83  1  0  0  0  0
 32 80  1  0  0  0  0
 32 84  1  0  0  0  0
 33 85  1  0  0  0  0
 33 90  2  0  0  0  0
 34 49  1  0  0  0  0
 34 87  1  0  0  0  0
 34 91  2  0  0  0  0
 35 52  1  0  0  0  0
 35 75  1  0  0  0  0
 35 79  2  0  0  0  0
 36 72  1  0  0  0  0
 36 81  1  0  0  0  0
 36 92  2  0  0  0  0
 37 73  1  0  0  0  0
 37 88  1  0  0  0  0
 37 93  2  0  0  0  0
 38 82  1  0  0  0  0
 38 86  1  0  0  0  0
 38 94  2  0  0  0  0
 39 42  1  0  0  0  0
 40 49  1  0  0  0  0
 41 81  1  0  0  0  0
 42 44  1  0  0  0  0
 43 45  1  0  0  0  0
 43 46  1  0  0  0  0
 44 48  1  0  0  0  0
 45 50  1  0  0  0  0
 46 82  1  0  0  0  0
 47 50  1  0  0  0  0
 47 82  1  0  0  0  0
 48 87  1  0  0  0  0
 49 81  1  0  0  0  0
 50 80  1  0  0  0  0
 53 64  1  0  0  0  0
 54 73  1  0  0  0  0
 55 74  1  0  0  0  0
 56 74  1  0  0  0  0
 57 75  1  0  0  0  0
 58 76  1  0  0  0  0
 59 76  1  0  0  0  0
 60 76  1  0  0  0  0
 61 89  1  0  0  0  0
 62 65  1  0  0  0  0
 63 96  1  0  0  0  0
 64 75  1  0  0  0  0
 65 66  1  0  0  0  0
 66 70  1  0  0  0  0
 67 68  1  0  0  0  0
 67 69  1  0  0  0  0
 68 71  1  0  0  0  0
 69 74  1  0  0  0  0
 70 75  1  0  0  0  0
 71 79  1  0  0  0  0
 72 76  1  0  0  0  0
 72 88  1  0  0  0  0
 73 89  1  0  0  0  0
 77 80  1  0  0  0  0
M  CHG  1  89   1
M  ISO  4  38 100  63 101  86 100  96 101
M  END
> <Batch ID>
0020

> <Smiles>
C=C(NCCCCC(C)C)C(C)(CC)CCCCc1c(C)c(N)nc([101CH2:1][101O:1]c2ccc3c(c2)CN(C(=O)C(NC(=O)C(C)NC)C(C)(C)C)C(C(=O)NC2CCCc4ccccc42)C3)c1[100NH:0][100C:0](=O)N1CCCC(n2nc(-c3ccc(Oc4ccc(F)cc4F)cc3)c(C(N)=O)c2N)C1

> <Shape>
0.236

> <Color>
0.078

> <Negative vol penalty>
0.000

$$$$

  -OEChem-04052316093D

 87 95  0     1  0  0  0  0  0999 V2000
  -30.8954  -25.2950   17.3097 C   0  0  0  0  0  0  0  0  0  0  0  0
  -29.5153  -25.1677   17.4300 C   0  0  0  0  0  0  0  0  0  0  0  0
  -26.2797  -14.6670   26.0135 C   0  0  0  0  0  0  0  0  0  0  0  0
  -24.4356  -16.2277   25.9910 C   0  0  0  0  0  0  0  0  0  0  0  0
  -31.6338  -25.8715   18.3423 C   0  0  0  0  0  0  0  0  0  0  0  0
  -28.8728  -25.6158   18.5837 C   0  0  0  0  0  0  0  0  0  0  0  0
  -23.2984  -28.1246   18.9547 C   0  0  0  0  0  0  0  0  0  0  0  0
  -26.0738  -14.4433   27.3748 C   0  0  0  0  0  0  0  0  0  0  0  0
  -24.2296  -16.0040   27.3523 C   0  0  0  0  0  0  0  0  0  0  0  0
  -22.0536  -27.5979   19.2965 C   0  0  0  0  0  0  0  0  0  0  0  0
  -22.7923  -13.6436   29.2975 C   0  0  0  0  0  0  0  0  0  0  0  0
  -21.4802  -13.4513   29.7298 C   0  0  0  0  0  0  0  0  0  0  0  0
  -22.3542  -28.3730   21.5610 C   0  0  0  0  0  0  0  0  0  0  0  0
  -22.9228  -24.2808   22.1913 C   0  0  0  0  0  0  0  0  0  0  0  0
  -21.6736  -15.3786   31.1739 C   0  0  0  0  0  0  0  0  0  0  0  0
  -25.4606  -15.5593   25.3216 C   0  0  0  0  0  0  0  0  0  0  0  0
  -25.0931  -15.0906   22.8411 C   0  0  0  0  0  0  0  0  0  0  0  0
  -30.9989  -26.3358   19.5051 C   0  0  0  0  0  0  0  0  0  0  0  0
  -24.0865  -28.7710   19.9177 C   0  0  0  0  0  0  0  0  0  0  0  0
  -29.6036  -26.1979   19.6334 C   0  0  0  0  0  0  0  0  0  0  0  0
  -23.6075  -28.9093   21.2283 C   0  0  0  0  0  0  0  0  0  0  0  0
  -22.2470  -22.2829   21.0132 C   0  0  0  0  0  0  0  0  0  0  0  0
  -24.5585  -22.9845   20.9743 C   0  0  0  0  0  0  0  0  0  0  0  0
  -21.9271  -23.3810   21.8115 C   0  0  0  0  0  0  0  0  0  0  0  0
  -25.0488  -15.1117   28.0442 C   0  0  0  0  0  0  0  0  0  0  0  0
  -21.5826  -27.7195   20.6005 C   0  0  0  0  0  0  0  0  0  0  0  0
  -23.5451  -14.7034   29.8034 C   0  0  0  0  0  0  0  0  0  0  0  0
  -20.9208  -14.3188   30.6680 C   0  0  0  0  0  0  0  0  0  0  0  0
  -24.2386  -24.0827   21.7727 C   0  0  0  0  0  0  0  0  0  0  0  0
  -22.9858  -15.5709   30.7416 C   0  0  0  0  0  0  0  0  0  0  0  0
  -23.5627  -22.0846   20.5945 C   0  0  0  0  0  0  0  0  0  0  0  0
  -25.6732  -15.7913   23.9155 C   0  0  0  0  0  0  0  0  0  0  0  0
  -25.6128  -15.6899   21.7198 C   0  0  0  0  0  0  0  0  0  0  0  0
  -24.1672  -13.9960   22.8554 C   0  0  0  0  0  0  0  0  0  0  0  0
  -26.9526  -28.2486   21.1890 C   0  0  0  0  0  0  0  0  0  0  0  0
  -26.4102  -31.1103   22.6169 C   0  0  0  0  0  0  0  0  0  0  0  0
  -24.1486  -33.4238   23.7029 C   0  0  0  0  0  0  0  0  0  0  0  0
  -27.8258  -21.1537   20.6711 C   0  0  0  0  0  0  0  0  0  0  0  0
  -31.8447  -26.9088   20.6145 C   0  0  0  0  0  0  0  0  0  0  0  0
  -25.4153  -29.3572   19.5266 C   0  0  0  0  0  0  0  0  0  0  0  0
  -24.4060  -29.6121   22.2945 C   0  0  0  0  0  0  0  0  0  0  0  0
  -31.0431  -27.6992   21.6455 C   0  0  0  0  0  0  0  0  0  0  0  0
  -29.4864  -18.0419   20.1856 C   0  0  0  0  0  0  0  0  0  0  0  0
  -29.7947  -26.9259   22.0581 C   0  0  0  0  0  0  0  0  0  0  0  0
  -28.6451  -17.0490   20.9895 C   0  0  0  0  0  0  0  0  0  0  0  0
  -29.5657  -19.4023   20.8749 C   0  0  0  0  0  0  0  0  0  0  0  0
  -27.4203  -19.0070   22.0215 C   0  0  0  0  0  0  0  0  0  0  0  0
  -28.8675  -26.6945   20.8588 C   0  0  1  0  0  0  0  0  0  0  0  0
  -26.3583  -29.5433   20.7113 C   0  0  1  0  0  0  0  0  0  0  0  0
  -27.2648  -17.6374   21.3387 C   0  0  2  0  0  0  0  0  0  0  0  0
  -21.1645  -21.3259   20.6167 C   0  0  0  0  0  0  0  0  0  0  0  0
  -24.0046  -35.6434   24.8648 C   0  0  0  0  0  0  0  0  0  0  0  0
  -18.5140  -23.5263   21.0442 C   0  0  0  0  0  0  0  0  0  0  0  0
  -26.9972  -29.7494   25.2841 C   0  0  0  0  0  0  0  0  0  0  0  0
  -25.9328  -31.7015   26.4349 C   0  0  0  0  0  0  0  0  0  0  0  0
  -27.9755  -32.0384   25.0433 C   0  0  0  0  0  0  0  0  0  0  0  0
  -20.1477  -23.0264   23.5051 C   0  0  0  0  0  0  0  0  0  0  0  0
  -22.8448  -34.6921   21.3683 C   0  0  0  0  0  0  0  0  0  0  0  0
  -25.9809  -22.8092   20.5477 C   0  0  0  0  0  0  0  0  0  0  0  0
  -19.2131  -25.5980   22.2950 C   0  0  0  0  0  0  0  0  0  0  0  0
  -20.2018  -26.7596   22.2822 C   0  0  0  0  0  0  0  0  0  1  0  0
  -25.7683  -31.5560   23.9085 C   0  0  1  0  0  0  0  0  0  0  0  0
  -24.0835  -34.9299   23.5242 C   0  0  2  0  0  0  0  0  0  0  0  0
  -19.6904  -24.4004   21.4676 C   0  0  1  0  0  0  0  0  0  0  0  0
  -26.6540  -31.2463   25.1483 C   0  0  0  0  0  0  0  0  0  0  0  0
  -26.4984  -16.7613   23.5130 N   0  0  0  0  0  0  0  0  0  0  0  0
  -26.4406  -16.6744   22.1731 N   0  0  0  0  0  0  0  0  0  0  0  0
  -25.7018  -30.1629   21.8643 N   0  0  0  0  0  0  0  0  0  0  0  0
  -28.2235  -19.9053   21.1772 N   0  0  0  0  0  0  0  0  0  0  0  0
  -25.4379  -15.4653   20.4002 N   0  0  0  0  0  0  0  0  0  0  0  0
  -23.7352  -13.5024   24.0940 N   0  0  0  0  0  0  0  0  0  0  0  0
  -28.1281  -27.9001   20.5517 N   0  0  0  0  0  0  0  0  0  0  0  0
  -25.4500  -32.9697   23.7396 N   0  0  0  0  0  0  0  0  0  0  0  0
  -26.5359  -21.5527   20.9994 N   0  0  0  0  0  0  0  0  0  0  0  0
  -20.6136  -23.5986   22.2433 N   0  0  3  0  0  0  0  0  0  0  0  0
  -22.8855  -35.3049   22.7210 N   0  3  0  0  0  0  0  0  0  0  0  0
  -23.7482  -13.4606   21.8012 O   0  0  0  0  0  0  0  0  0  0  0  0
  -26.3874  -27.6136   22.0716 O   0  0  0  0  0  0  0  0  0  0  0  0
  -27.4967  -31.5905   22.2844 O   0  0  0  0  0  0  0  0  0  0  0  0
  -23.1454  -32.7210   23.8039 O   0  0  0  0  0  0  0  0  0  0  0  0
  -28.5635  -21.8581   19.9735 O   0  0  0  0  0  0  0  0  0  0  0  0
  -24.8474  -14.8935   29.3725 O   0  0  0  0  0  0  0  0  0  0  0  0
  -20.3682  -27.2057   20.9369 O   0  0  0  0  0  0  0  0  0  1  0  0
  -19.6603  -14.1349   31.0820 F   0  0  0  0  0  0  0  0  0  0  0  0
  -25.1875  -24.9539   22.1435 F   0  0  0  0  0  0  0  0  0  0  0  0
  -23.7037  -16.5915   31.2303 F   0  0  0  0  0  0  0  0  0  0  0  0
  -23.9634  -20.7219   19.6024 Cl  0  0  0  0  0  0  0  0  0  0  0  0
  1  2  1  0  0  0  0
  1  5  2  0  0  0  0
  2  6  2  0  0  0  0
  3  8  2  0  0  0  0
  3 16  1  0  0  0  0
  4  9  1  0  0  0  0
  4 16  2  0  0  0  0
  5 18  1  0  0  0  0
  6 20  1  0  0  0  0
  7 10  2  0  0  0  0
  7 19  1  0  0  0  0
  8 25  1  0  0  0  0
  9 25  2  0  0  0  0
 10 26  1  0  0  0  0
 11 12  2  0  0  0  0
 11 27  1  0  0  0  0
 12 28  1  0  0  0  0
 13 21  1  0  0  0  0
 13 26  2  0  0  0  0
 14 24  1  0  0  0  0
 14 29  2  0  0  0  0
 15 28  2  0  0  0  0
 15 30  1  0  0  0  0
 16 32  1  0  0  0  0
 17 32  1  0  0  0  0
 17 33  2  0  0  0  0
 17 34  1  0  0  0  0
 18 20  2  0  0  0  0
 18 39  1  0  0  0  0
 19 21  2  0  0  0  0
 19 40  1  0  0  0  0
 20 48  1  0  0  0  0
 21 41  1  0  0  0  0
 22 24  2  0  0  0  0
 22 31  1  0  0  0  0
 22 51  1  0  0  0  0
 23 29  1  0  0  0  0
 23 31  2  0  0  0  0
 23 59  1  0  0  0  0
 24 75  1  0  0  0  0
 25 82  1  0  0  0  0
 26 83  1  0  0  0  0
 27 30  2  0  0  0  0
 27 82  1  0  0  0  0
 28 84  1  0  0  0  0
 29 85  1  0  0  0  0
 30 86  1  0  0  0  0
 31 87  1  0  0  0  0
 32 66  2  0  0  0  0
 33 67  1  0  0  0  0
 33 70  1  0  0  0  0
 34 71  1  0  0  0  0
 34 77  2  0  0  0  0
 35 49  1  0  0  0  0
 35 72  1  0  0  0  0
 35 78  2  0  0  0  0
 36 62  1  0  0  0  0
 36 68  1  0  0  0  0
 36 79  2  0  0  0  0
 37 63  1  0  0  0  0
 37 73  1  0  0  0  0
 37 80  2  0  0  0  0
 38 69  1  0  0  0  0
 38 74  1  0  0  0  0
 38 81  2  0  0  0  0
 39 42  1  0  0  0  0
 40 49  1  0  0  0  0
 41 68  1  0  0  0  0
 42 44  1  0  0  0  0
 43 45  1  0  0  0  0
 43 46  1  0  0  0  0
 44 48  1  0  0  0  0
 45 50  1  0  0  0  0
 46 69  1  0  0  0  0
 47 50  1  0  0  0  0
 47 69  1  0  0  0  0
 48 72  1  0  0  0  0
 49 68  1  0  0  0  0
 50 67  1  0  0  0  0
 52 63  1  0  0  0  0
 53 64  1  0  0  0  0
 54 65  1  0  0  0  0
 55 65  1  0  0  0  0
 56 65  1  0  0  0  0
 57 75  1  0  0  0  0
 58 76  1  0  0  0  0
 59 74  1  0  0  0  0
 60 61  1  0  0  0  0
 60 64  1  0  0  0  0
 61 83  1  0  0  0  0
 62 65  1  0  0  0  0
 62 73  1  0  0  0  0
 63 76  1  0  0  0  0
 64 75  1  0  0  0  0
 66 67  1  0  0  0  0
M  CHG  1  76   1
M  ISO  4  38 100  61 101  74 100  83 101
M  END
> <Batch ID>
0020

> <Smiles>
CNC(C)C(=O)NC(C(=O)N1Cc2cc([101O:1][101CH2:1]CC(C)N(C)c3cc(F)c(C[100NH:0][100C:0](=O)N4CCCC(n5nc(-c6ccc(Oc7ccc(F)cc7F)cc6)c(C(N)=O)c5N)C4)c(Cl)c3C)ccc2CC1C(=O)NC1CCCc2ccccc21)C(C)(C)C

> <Shape>
0.234

> <Color>
0.089

> <Negative vol penalty>
0.000

$$$$

  -OEChem-04052316093D

 78 85  0     1  0  0  0  0  0999 V2000
  -21.9017  -21.9586   25.4259 C   0  0  0  0  0  0  0  0  0  0  0  0
  -20.7734  -21.9705   25.0155 C   0  0  0  0  0  0  0  0  0  0  0  0
  -22.0650  -11.8986   19.4391 C   0  0  0  0  0  0  0  0  0  0  0  0
  -21.8291  -13.2410   19.7180 C   0  0  0  0  0  0  0  0  0  0  0  0
  -24.5970  -31.3700   20.5897 C   0  0  0  0  0  0  0  0  0  0  0  0
  -25.4758  -30.2038   22.5144 C   0  0  0  0  0  0  0  0  0  0  0  0
  -23.3100  -11.3376   19.7206 C   0  0  0  0  0  0  0  0  0  0  0  0
  -22.8379  -14.0230   20.2794 C   0  0  0  0  0  0  0  0  0  0  0  0
  -23.2565  -18.5496   18.0478 C   0  0  0  0  0  0  0  0  0  0  0  0
  -25.4352  -32.4511   20.8620 C   0  0  0  0  0  0  0  0  0  0  0  0
  -26.3141  -31.2849   22.7867 C   0  0  0  0  0  0  0  0  0  0  0  0
  -22.3192  -19.5208   18.3971 C   0  0  0  0  0  0  0  0  0  0  0  0
  -27.0863  -35.6667   21.2593 C   0  0  0  0  0  0  0  0  0  0  0  0
  -26.5387  -36.9476   21.1891 C   0  0  0  0  0  0  0  0  0  0  0  0
  -23.9239  -20.5225   19.8939 C   0  0  0  0  0  0  0  0  0  0  0  0
  -24.9522  -36.3639   22.9152 C   0  0  0  0  0  0  0  0  0  0  0  0
  -24.6172  -30.2463   21.4159 C   0  0  0  0  0  0  0  0  0  0  0  0
  -24.0385  -28.0128   20.3279 C   0  0  0  0  0  0  0  0  0  0  0  0
  -24.3376  -12.1156   20.2768 C   0  0  0  0  0  0  0  0  0  0  0  0
  -24.5331  -18.5511   18.6281 C   0  0  0  0  0  0  0  0  0  0  0  0
  -24.0974  -13.4716   20.5698 C   0  0  0  0  0  0  0  0  0  0  0  0
  -24.8764  -19.5518   19.5484 C   0  0  0  0  0  0  0  0  0  0  0  0
  -26.2938  -32.4086   21.9605 C   0  0  0  0  0  0  0  0  0  0  0  0
  -22.6518  -20.5057   19.3224 C   0  0  0  0  0  0  0  0  0  0  0  0
  -26.5668  -34.7343   22.1574 C   0  0  0  0  0  0  0  0  0  0  0  0
  -25.4717  -37.2962   22.0171 C   0  0  0  0  0  0  0  0  0  0  0  0
  -25.4998  -35.0829   22.9853 C   0  0  0  0  0  0  0  0  0  0  0  0
  -23.7512  -29.1295   21.1355 C   0  0  0  0  0  0  0  0  0  0  0  0
  -22.9002  -27.2463   20.3842 C   0  0  0  0  0  0  0  0  0  0  0  0
  -25.2280  -27.6965   19.5925 C   0  0  0  0  0  0  0  0  0  0  0  0
  -26.1686  -16.5294   20.4560 C   0  0  0  0  0  0  0  0  0  0  0  0
  -28.5695  -18.6601   19.9893 C   0  0  0  0  0  0  0  0  0  0  0  0
  -29.5016  -21.8560   19.2381 C   0  0  0  0  0  0  0  0  0  0  0  0
  -18.7280  -24.9347   23.2817 C   0  0  0  0  0  0  0  0  0  0  0  0
  -25.6517  -11.4532   20.6074 C   0  0  0  0  0  0  0  0  0  0  0  0
  -25.5417  -17.5123   18.2207 C   0  0  0  0  0  0  0  0  0  0  0  0
  -26.2402  -19.6096   20.1849 C   0  0  0  0  0  0  0  0  0  0  0  0
  -26.7872  -12.4429   20.8552 C   0  0  0  0  0  0  0  0  0  0  0  0
  -18.3054  -28.3053   22.2154 C   0  0  0  0  0  0  0  0  0  0  0  0
  -26.3262  -13.5632   21.7822 C   0  0  0  0  0  0  0  0  0  0  0  0
  -19.7088  -28.7296   21.7789 C   0  0  0  0  0  0  0  0  0  0  0  0
  -18.3477  -27.3781   23.4281 C   0  0  0  0  0  0  0  0  0  0  0  0
  -20.6159  -26.6180   22.8357 C   0  0  0  0  0  0  0  0  0  0  0  0
  -25.1744  -14.3586   21.1559 C   0  0  1  0  0  0  0  0  0  0  0  0
  -26.6399  -17.3062   19.2593 C   0  0  1  0  0  0  0  0  0  0  0  0
  -20.6277  -27.5089   21.5818 C   0  0  2  0  0  0  0  0  0  0  0  0
  -31.5336  -23.3037   18.9690 C   0  0  0  0  0  0  0  0  0  0  0  0
  -28.8759  -18.7895   23.0223 C   0  0  0  0  0  0  0  0  0  0  0  0
  -30.2065  -20.8899   22.7285 C   0  0  0  0  0  0  0  0  0  0  0  0
  -31.0326  -18.7460   21.7569 C   0  0  0  0  0  0  0  0  0  0  0  0
  -28.8652  -22.4229   16.4039 C   0  0  0  0  0  0  0  0  0  0  0  0
  -19.3886  -21.9830   24.5171 C   0  0  0  0  0  0  0  0  0  0  0  0
  -19.5634  -21.8982   20.6232 C   0  0  0  0  0  0  0  0  0  0  0  0
  -20.0494  -21.6778   22.0630 C   0  0  0  0  0  0  0  0  0  0  0  0
  -20.3626  -21.0797   19.6156 C   0  0  0  0  0  0  0  0  0  1  0  0
  -29.0489  -19.9031   20.6994 C   0  0  1  0  0  0  0  0  0  0  0  0
  -30.5307  -22.4029   18.2652 C   0  0  2  0  0  0  0  0  0  0  0  0
  -19.2604  -22.5189   23.0824 C   0  0  2  0  0  0  0  0  0  0  0  0
  -29.7646  -19.5802   22.0414 C   0  0  0  0  0  0  0  0  0  0  0  0
  -22.5263  -29.0808   21.6659 N   0  0  0  0  0  0  0  0  0  0  0  0
  -22.0338  -27.9242   21.1905 N   0  0  0  0  0  0  0  0  0  0  0  0
  -27.1896  -18.5681   19.7588 N   0  0  0  0  0  0  0  0  0  0  0  0
  -19.2351  -26.2403   23.1754 N   0  0  0  0  0  0  0  0  0  0  0  0
  -22.5657  -26.0653   19.8222 N   0  0  0  0  0  0  0  0  0  0  0  0
  -26.3036  -28.5936   19.6440 N   0  0  0  0  0  0  0  0  0  0  0  0
  -25.6781  -15.2734   20.1540 N   0  0  0  0  0  0  0  0  0  0  0  0
  -29.8758  -20.6278   19.7405 N   0  0  0  0  0  0  0  0  0  0  0  0
  -19.6341  -23.9143   23.0198 N   0  0  0  0  0  0  0  0  0  0  0  0
  -29.8615  -23.1923   17.1928 N   0  3  0  0  0  0  0  0  0  0  0  0
  -25.3279  -26.6575   18.8968 O   0  0  0  0  0  0  0  0  0  0  0  0
  -26.2457  -17.0318   21.5711 O   0  0  0  0  0  0  0  0  0  0  0  0
  -29.3901  -17.8058   19.6452 O   0  0  0  0  0  0  0  0  0  0  0  0
  -28.4707  -22.4599   19.5264 O   0  0  0  0  0  0  0  0  0  0  0  0
  -17.5534  -24.6961   23.5821 O   0  0  0  0  0  0  0  0  0  0  0  0
  -27.1121  -33.4632   22.2264 O   0  0  0  0  0  0  0  0  0  0  0  0
  -21.7386  -21.4545   19.6656 O   0  0  0  0  0  0  0  0  0  1  0  0
  -24.9469  -38.5268   21.9507 F   0  0  0  0  0  0  0  0  0  0  0  0
  -24.9972  -34.1918   23.8509 F   0  0  0  0  0  0  0  0  0  0  0  0
  1  2  3  0  0  0  0
  2 52  1  0  0  0  0
  3  4  1  0  0  0  0
  3  7  2  0  0  0  0
  4  8  2  0  0  0  0
  5 10  2  0  0  0  0
  5 17  1  0  0  0  0
  6 11  1  0  0  0  0
  6 17  2  0  0  0  0
  7 19  1  0  0  0  0
  8 21  1  0  0  0  0
  9 12  2  0  0  0  0
  9 20  1  0  0  0  0
 10 23  1  0  0  0  0
 11 23  2  0  0  0  0
 12 24  1  0  0  0  0
 13 14  2  0  0  0  0
 13 25  1  0  0  0  0
 14 26  1  0  0  0  0
 15 22  1  0  0  0  0
 15 24  2  0  0  0  0
 16 26  2  0  0  0  0
 16 27  1  0  0  0  0
 17 28  1  0  0  0  0
 18 28  1  0  0  0  0
 18 29  2  0  0  0  0
 18 30  1  0  0  0  0
 19 21  2  0  0  0  0
 19 35  1  0  0  0  0
 20 22  2  0  0  0  0
 20 36  1  0  0  0  0
 21 44  1  0  0  0  0
 22 37  1  0  0  0  0
 23 75  1  0  0  0  0
 24 76  1  0  0  0  0
 25 27  2  0  0  0  0
 25 75  1  0  0  0  0
 26 77  1  0  0  0  0
 27 78  1  0  0  0  0
 28 60  2  0  0  0  0
 29 61  1  0  0  0  0
 29 64  1  0  0  0  0
 30 65  1  0  0  0  0
 30 70  2  0  0  0  0
 31 45  1  0  0  0  0
 31 66  1  0  0  0  0
 31 71  2  0  0  0  0
 32 56  1  0  0  0  0
 32 62  1  0  0  0  0
 32 72  2  0  0  0  0
 33 57  1  0  0  0  0
 33 67  1  0  0  0  0
 33 73  2  0  0  0  0
 34 63  1  0  0  0  0
 34 68  1  0  0  0  0
 34 74  2  0  0  0  0
 35 38  1  0  0  0  0
 36 45  1  0  0  0  0
 37 62  1  0  0  0  0
 38 40  1  0  0  0  0
 39 41  1  0  0  0  0
 39 42  1  0  0  0  0
 40 44  1  0  0  0  0
 41 46  1  0  0  0  0
 42 63  1  0  0  0  0
 43 46  1  0  0  0  0
 43 63  1  0  0  0  0
 44 66  1  0  0  0  0
 45 62  1  0  0  0  0
 46 61  1  0  0  0  0
 47 57  1  0  0  0  0
 48 59  1  0  0  0  0
 49 59  1  0  0  0  0
 50 59  1  0  0  0  0
 51 69  1  0  0  0  0
 52 58  1  0  0  0  0
 53 54  1  0  0  0  0
 53 55  1  0  0  0  0
 54 58  1  0  0  0  0
 55 76  1  0  0  0  0
 56 59  1  0  0  0  0
 56 67  1  0  0  0  0
 57 69  1  0  0  0  0
 58 68  1  0  0  0  0
 60 61  1  0  0  0  0
M  CHG  1  69   1
M  ISO  4  34 100  55 101  68 100  76 101
M  END
> <Batch ID>
0020

> <Smiles>
C#CCC(CC[101CH2:1][101O:1]c1ccc2c(c1)CN(C(=O)C(NC(=O)C(C)NC)C(C)(C)C)C(C(=O)NC1CCCc3ccccc31)C2)[100NH:0][100C:0](=O)N1CCCC(n2nc(-c3ccc(Oc4ccc(F)cc4F)cc3)c(C(N)=O)c2N)C1

> <Shape>
0.249

> <Color>
0.072

> <Negative vol penalty>
0.000

$$$$

  -OEChem-04052316093D

 91 99  0     1  0  0  0  0  0999 V2000
  -33.5518  -18.7998   29.1584 C   0  0  0  0  0  0  0  0  0  0  0  0
  -33.2022  -20.1362   28.9929 C   0  0  0  0  0  0  0  0  0  0  0  0
  -29.9857  -17.7945   21.5175 C   0  0  0  0  0  0  0  0  0  0  0  0
  -31.1688  -18.5745   19.5608 C   0  0  0  0  0  0  0  0  0  0  0  0
  -32.9022  -17.8136   28.4172 C   0  0  0  0  0  0  0  0  0  0  0  0
  -32.2034  -20.4872   28.0853 C   0  0  0  0  0  0  0  0  0  0  0  0
  -26.9882  -25.2999   27.1082 C   0  0  0  0  0  0  0  0  0  0  0  0
  -30.2396  -16.4746   21.1449 C   0  0  0  0  0  0  0  0  0  0  0  0
  -31.4228  -17.2545   19.1882 C   0  0  0  0  0  0  0  0  0  0  0  0
  -26.5254  -26.2085   26.1574 C   0  0  0  0  0  0  0  0  0  0  0  0
  -29.0006  -14.2248   18.9477 C   0  0  0  0  0  0  0  0  0  0  0  0
  -27.9454  -13.3159   19.0251 C   0  0  0  0  0  0  0  0  0  0  0  0
  -25.4167  -24.4125   24.9894 C   0  0  0  0  0  0  0  0  0  0  0  0
  -24.3592  -29.0439   20.1594 C   0  0  0  0  0  0  0  0  0  0  0  0
  -29.2086  -11.9833   20.5954 C   0  0  0  0  0  0  0  0  0  0  0  0
  -30.4503  -18.8445   20.7254 C   0  0  0  0  0  0  0  0  0  0  0  0
  -30.9896  -21.0318   21.9223 C   0  0  0  0  0  0  0  0  0  0  0  0
  -31.8883  -18.1518   27.5071 C   0  0  0  0  0  0  0  0  0  0  0  0
  -26.6773  -23.9368   27.0005 C   0  0  0  0  0  0  0  0  0  0  0  0
  -31.5406  -19.5047   27.3303 C   0  0  0  0  0  0  0  0  0  0  0  0
  -25.8747  -23.4890   25.9415 C   0  0  0  0  0  0  0  0  0  0  0  0
  -25.7400  -29.2265   20.2339 C   0  0  0  0  0  0  0  0  0  0  0  0
  -23.5217  -29.6728   21.0808 C   0  0  0  0  0  0  0  0  0  0  0  0
  -25.4460  -30.6668   22.1513 C   0  0  0  0  0  0  0  0  0  0  0  0
  -30.9581  -16.2045   19.9803 C   0  0  0  0  0  0  0  0  0  0  0  0
  -25.7419  -25.7645   25.0962 C   0  0  0  0  0  0  0  0  0  0  0  0
  -30.1599  -14.0130   19.6940 C   0  0  0  0  0  0  0  0  0  0  0  0
  -28.0494  -12.1952   19.8490 C   0  0  0  0  0  0  0  0  0  0  0  0
  -30.2638  -12.8922   20.5179 C   0  0  0  0  0  0  0  0  0  0  0  0
  -26.2835  -30.0379   21.2299 C   0  0  0  0  0  0  0  0  0  0  0  0
  -24.0652  -30.4842   22.0767 C   0  0  0  0  0  0  0  0  0  0  0  0
  -30.1878  -20.2082   21.1095 C   0  0  0  0  0  0  0  0  0  0  0  0
  -30.3075  -22.2224   21.9834 C   0  0  0  0  0  0  0  0  0  0  0  0
  -32.2392  -20.7462   22.5646 C   0  0  0  0  0  0  0  0  0  0  0  0
  -28.3709  -21.2718   26.6354 C   0  0  0  0  0  0  0  0  0  0  0  0
  -25.4854  -19.8458   27.0390 C   0  0  0  0  0  0  0  0  0  0  0  0
  -22.0861  -20.0796   26.8473 C   0  0  0  0  0  0  0  0  0  0  0  0
  -27.5887  -26.2790   19.5137 C   0  0  0  0  0  0  0  0  0  0  0  0
  -31.2474  -17.0552   26.6939 C   0  0  0  0  0  0  0  0  0  0  0  0
  -27.1619  -22.9735   28.0491 C   0  0  0  0  0  0  0  0  0  0  0  0
  -25.4958  -22.0390   25.7918 C   0  0  0  0  0  0  0  0  0  0  0  0
  -29.9406  -17.4761   26.0266 C   0  0  0  0  0  0  0  0  0  0  0  0
  -25.6170  -23.4117   20.5081 C   0  0  0  0  0  0  0  0  0  0  0  0
  -30.0997  -18.8342   25.3504 C   0  0  0  0  0  0  0  0  0  0  0  0
  -26.7081  -22.3863   20.8216 C   0  0  0  0  0  0  0  0  0  0  0  0
  -25.9975  -24.2744   19.3084 C   0  0  0  0  0  0  0  0  0  0  0  0
  -28.3992  -23.9493   19.7553 C   0  0  0  0  0  0  0  0  0  0  0  0
  -30.4451  -19.9228   26.3736 C   0  0  1  0  0  0  0  0  0  0  0  0
  -27.2127  -21.5303   27.5570 C   0  0  1  0  0  0  0  0  0  0  0  0
  -28.0844  -23.0610   20.9726 C   0  0  2  0  0  0  0  0  0  0  0  0
  -26.0690  -31.5284   23.2028 C   0  0  0  0  0  0  0  0  0  0  0  0
  -17.7665  -28.5050   23.3610 C   0  0  0  0  0  0  0  0  0  0  0  0
  -19.9959  -18.7379   27.2057 C   0  0  0  0  0  0  0  0  0  0  0  0
  -21.6889  -28.5091   19.7793 C   0  0  0  0  0  0  0  0  0  0  0  0
  -21.2603  -30.7778   20.8095 C   0  0  0  0  0  0  0  0  0  0  0  0
  -25.9952  -18.3578   24.4245 C   0  0  0  0  0  0  0  0  0  0  0  0
  -23.5564  -17.7965   24.3494 C   0  0  0  0  0  0  0  0  0  0  0  0
  -24.9676  -16.9684   26.2323 C   0  0  0  0  0  0  0  0  0  0  0  0
  -21.1115  -21.9389   28.9334 C   0  0  0  0  0  0  0  0  0  0  0  0
  -26.6326  -28.5531   19.2467 C   0  0  0  0  0  0  0  0  0  0  0  0
  -19.2795  -28.6332   23.4331 C   0  0  0  0  0  0  0  0  0  0  0  0
  -23.3672  -27.6553   23.1438 C   0  0  0  0  0  0  0  0  0  0  0  0
  -19.8928  -28.6975   22.0435 C   0  0  0  0  0  0  0  0  0  0  0  0
  -22.0137  -27.4663   22.4755 C   0  0  0  0  0  0  0  0  0  0  0  0
  -24.0458  -26.3482   23.5347 C   0  0  0  0  0  0  0  0  0  1  0  0
  -24.3649  -19.4213   26.1207 C   0  0  1  0  0  0  0  0  0  0  0  0
  -20.9933  -19.7009   27.8306 C   0  0  2  0  0  0  0  0  0  0  0  0
  -22.0079  -29.4420   20.9599 C   0  0  0  0  0  0  0  0  0  0  0  0
  -24.7296  -18.1631   25.2832 C   0  0  0  0  0  0  0  0  0  0  0  0
  -29.0809  -20.8235   20.6848 N   0  0  0  0  0  0  0  0  0  0  0  0
  -29.1823  -22.0463   21.2330 N   0  0  0  0  0  0  0  0  0  0  0  0
  -25.9992  -21.1350   26.8391 N   0  0  0  0  0  0  0  0  0  0  0  0
  -27.3087  -24.9024   19.5237 N   0  0  0  0  0  0  0  0  0  0  0  0
  -30.5664  -23.3922   22.6054 N   0  0  0  0  0  0  0  0  0  0  0  0
  -32.8006  -19.4729   22.3975 N   0  0  0  0  0  0  0  0  0  0  0  0
  -29.2616  -20.3246   27.1032 N   0  0  0  0  0  0  0  0  0  0  0  0
  -23.1861  -19.2564   26.9643 N   0  0  0  0  0  0  0  0  0  0  0  0
  -26.5023  -27.1134   19.2805 N   0  0  0  0  0  0  0  0  0  0  0  0
  -20.2559  -20.9160   28.2787 N   0  3  0  0  0  0  0  0  0  0  0  0
  -21.3953  -28.7775   22.1693 N   0  3  1  0  0  0  0  0  0  0  0  0
  -32.8319  -21.5896   23.2793 O   0  0  0  0  0  0  0  0  0  0  0  0
  -28.4497  -21.8852   25.5774 O   0  0  0  0  0  0  0  0  0  0  0  0
  -25.8850  -19.0652   27.9065 O   0  0  0  0  0  0  0  0  0  0  0  0
  -21.9735  -21.0100   26.0522 O   0  0  0  0  0  0  0  0  0  0  0  0
  -28.7227  -26.7317   19.7040 O   0  0  0  0  0  0  0  0  0  0  0  0
  -31.2063  -14.9167   19.6166 O   0  0  0  0  0  0  0  0  0  0  0  0
  -25.2895  -26.6491   24.1665 O   0  0  0  0  0  0  0  0  0  1  0  0
  -27.0354  -11.3232   19.9245 F   0  0  0  0  0  0  0  0  0  0  0  0
  -31.3745  -12.6840   21.2381 F   0  0  0  0  0  0  0  0  0  0  0  0
  -27.6115  -30.2134   21.2998 F   0  0  0  0  0  0  0  0  0  0  0  0
  -23.0253  -31.2648   23.2207 Cl  0  0  0  0  0  0  0  0  0  0  0  0
  1  2  1  0  0  0  0
  1  5  2  0  0  0  0
  2  6  2  0  0  0  0
  3  8  2  0  0  0  0
  3 16  1  0  0  0  0
  4  9  1  0  0  0  0
  4 16  2  0  0  0  0
  5 18  1  0  0  0  0
  6 20  1  0  0  0  0
  7 10  2  0  0  0  0
  7 19  1  0  0  0  0
  8 25  1  0  0  0  0
  9 25  2  0  0  0  0
 10 26  1  0  0  0  0
 11 12  2  0  0  0  0
 11 27  1  0  0  0  0
 12 28  1  0  0  0  0
 13 21  1  0  0  0  0
 13 26  2  0  0  0  0
 14 22  2  0  0  0  0
 14 23  1  0  0  0  0
 15 28  2  0  0  0  0
 15 29  1  0  0  0  0
 16 32  1  0  0  0  0
 17 32  1  0  0  0  0
 17 33  2  0  0  0  0
 17 34  1  0  0  0  0
 18 20  2  0  0  0  0
 18 39  1  0  0  0  0
 19 21  2  0  0  0  0
 19 40  1  0  0  0  0
 20 48  1  0  0  0  0
 21 41  1  0  0  0  0
 22 30  1  0  0  0  0
 22 60  1  0  0  0  0
 23 31  2  0  0  0  0
 23 68  1  0  0  0  0
 24 30  2  0  0  0  0
 24 31  1  0  0  0  0
 24 51  1  0  0  0  0
 25 86  1  0  0  0  0
 26 87  1  0  0  0  0
 27 29  2  0  0  0  0
 27 86  1  0  0  0  0
 28 88  1  0  0  0  0
 29 89  1  0  0  0  0
 30 90  1  0  0  0  0
 31 91  1  0  0  0  0
 32 70  2  0  0  0  0
 33 71  1  0  0  0  0
 33 74  1  0  0  0  0
 34 75  1  0  0  0  0
 34 81  2  0  0  0  0
 35 49  1  0  0  0  0
 35 76  1  0  0  0  0
 35 82  2  0  0  0  0
 36 66  1  0  0  0  0
 36 72  1  0  0  0  0
 36 83  2  0  0  0  0
 37 67  1  0  0  0  0
 37 77  1  0  0  0  0
 37 84  2  0  0  0  0
 38 73  1  0  0  0  0
 38 78  1  0  0  0  0
 38 85  2  0  0  0  0
 39 42  1  0  0  0  0
 40 49  1  0  0  0  0
 41 72  1  0  0  0  0
 42 44  1  0  0  0  0
 43 45  1  0  0  0  0
 43 46  1  0  0  0  0
 44 48  1  0  0  0  0
 45 50  1  0  0  0  0
 46 73  1  0  0  0  0
 47 50  1  0  0  0  0
 47 73  1  0  0  0  0
 48 76  1  0  0  0  0
 49 72  1  0  0  0  0
 50 71  1  0  0  0  0
 52 61  1  0  0  0  0
 53 67  1  0  0  0  0
 54 68  1  0  0  0  0
 55 68  1  0  0  0  0
 56 69  1  0  0  0  0
 57 69  1  0  0  0  0
 58 69  1  0  0  0  0
 59 79  1  0  0  0  0
 60 78  1  0  0  0  0
 61 63  1  0  0  0  0
 62 64  1  0  0  0  0
 62 65  1  0  0  0  0
 63 80  1  0  0  0  0
 64 80  1  0  0  0  0
 65 87  1  0  0  0  0
 66 69  1  0  0  0  0
 66 77  1  0  0  0  0
 67 79  1  0  0  0  0
 68 80  1  0  0  0  0
 70 71  1  0  0  0  0
M  CHG  2  79   1  80   1
M  ISO  4  38 100  65 101  78 100  87 101
M  END
> <Batch ID>
0020

> <Smiles>
CCCN(CC[101CH2:1][101O:1]c1ccc2c(c1)CN(C(=O)C(NC(=O)C(C)NC)C(C)(C)C)C(C(=O)NC1CCCc3ccccc31)C2)C(C)(C)c1cc(C[100NH:0][100C:0](=O)N2CCCC(n3nc(-c4ccc(Oc5ccc(F)cc5F)cc4)c(C(N)=O)c3N)C2)c(F)c(C)c1Cl

> <Shape>
0.197

> <Color>
0.080

> <Negative vol penalty>
0.000

$$$$

  -OEChem-04052316093D

 82 90  0     1  0  0  0  0  0999 V2000
  -32.1810  -31.8080   26.3441 C   0  0  0  0  0  0  0  0  0  0  0  0
  -32.2886  -30.4853   25.9267 C   0  0  0  0  0  0  0  0  0  0  0  0
  -23.0839   -9.8524   19.9522 C   0  0  0  0  0  0  0  0  0  0  0  0
  -23.8309   -9.8877   22.2496 C   0  0  0  0  0  0  0  0  0  0  0  0
  -30.9260  -32.4079   26.4393 C   0  0  0  0  0  0  0  0  0  0  0  0
  -31.1410  -29.7613   25.6052 C   0  0  0  0  0  0  0  0  0  0  0  0
  -30.5865  -25.4778   21.2635 C   0  0  0  0  0  0  0  0  0  0  0  0
  -22.3418   -8.7002   20.2112 C   0  0  0  0  0  0  0  0  0  0  0  0
  -23.0887   -8.7354   22.5086 C   0  0  0  0  0  0  0  0  0  0  0  0
  -30.6173  -24.0848   21.3108 C   0  0  0  0  0  0  0  0  0  0  0  0
  -19.8594   -7.9357   23.1021 C   0  0  0  0  0  0  0  0  0  0  0  0
  -19.0960   -7.9071   24.2692 C   0  0  0  0  0  0  0  0  0  0  0  0
  -28.2073  -24.0407   21.4066 C   0  0  0  0  0  0  0  0  0  0  0  0
  -20.3384   -5.9816   25.0347 C   0  0  0  0  0  0  0  0  0  0  0  0
  -23.8286  -10.4462   20.9714 C   0  0  0  0  0  0  0  0  0  0  0  0
  -24.1643  -12.9707   20.8244 C   0  0  0  0  0  0  0  0  0  0  0  0
  -29.7632  -31.6939   26.1095 C   0  0  0  0  0  0  0  0  0  0  0  0
  -29.3642  -26.1643   21.2984 C   0  0  0  0  0  0  0  0  0  0  0  0
  -29.8692  -30.3518   25.6973 C   0  0  0  0  0  0  0  0  0  0  0  0
  -28.1636  -25.4424   21.3570 C   0  0  0  0  0  0  0  0  0  0  0  0
  -30.2025  -19.2381   22.6124 C   0  0  0  0  0  0  0  0  0  0  0  0
  -30.5565  -19.8918   21.4322 C   0  0  0  0  0  0  0  0  0  0  0  0
  -30.2311  -17.1212   21.4485 C   0  0  0  0  0  0  0  0  0  0  0  0
  -22.3441   -8.1417   21.4894 C   0  0  0  0  0  0  0  0  0  0  0  0
  -29.4278  -23.3661   21.3853 C   0  0  0  0  0  0  0  0  0  0  0  0
  -20.8623   -6.9872   22.9013 C   0  0  0  0  0  0  0  0  0  0  0  0
  -19.3355   -6.9301   25.2355 C   0  0  0  0  0  0  0  0  0  0  0  0
  -21.1018   -6.0102   23.8676 C   0  0  0  0  0  0  0  0  0  0  0  0
  -30.0398  -17.8528   22.6206 C   0  0  0  0  0  0  0  0  0  0  0  0
  -30.7478  -19.1602   20.2601 C   0  0  0  0  0  0  0  0  0  0  0  0
  -30.5851  -17.7749   20.2682 C   0  0  0  0  0  0  0  0  0  0  0  0
  -24.5959  -11.6361   20.7043 C   0  0  0  0  0  0  0  0  0  0  0  0
  -25.2565  -13.7190   20.4587 C   0  0  0  0  0  0  0  0  0  0  0  0
  -22.8901  -13.4878   21.2302 C   0  0  0  0  0  0  0  0  0  0  0  0
  -28.0209  -28.2537   23.2818 C   0  0  0  0  0  0  0  0  0  0  0  0
  -25.7329  -28.3720   20.9853 C   0  0  0  0  0  0  0  0  0  0  0  0
  -24.1745  -26.8358   18.3665 C   0  0  0  0  0  0  0  0  0  0  0  0
  -30.7188  -14.7815   20.6519 C   0  0  0  0  0  0  0  0  0  0  0  0
  -28.4251  -32.3701   26.2733 C   0  0  0  0  0  0  0  0  0  0  0  0
  -29.3469  -27.6663   21.2196 C   0  0  0  0  0  0  0  0  0  0  0  0
  -26.8243  -26.1312   21.3767 C   0  0  0  0  0  0  0  0  0  0  0  0
  -27.2868  -31.6501   25.5550 C   0  0  0  0  0  0  0  0  0  0  0  0
  -29.6242  -12.3377   18.3053 C   0  0  0  0  0  0  0  0  0  0  0  0
  -27.3420  -30.1516   25.8350 C   0  0  0  0  0  0  0  0  0  0  0  0
  -28.1829  -12.0471   18.7301 C   0  0  0  0  0  0  0  0  0  0  0  0
  -30.5319  -12.5828   19.5093 C   0  0  0  0  0  0  0  0  0  0  0  0
  -28.6153  -13.3177   20.8715 C   0  0  0  0  0  0  0  0  0  0  0  0
  -28.6495  -29.5412   25.3160 C   0  0  1  0  0  0  0  0  0  0  0  0
  -28.0673  -28.2793   21.7802 C   0  0  1  0  0  0  0  0  0  0  0  0
  -27.6495  -13.1284   19.6903 C   0  0  2  0  0  0  0  0  0  0  0  0
  -29.9933  -20.0042   23.8775 C   0  0  0  0  0  0  0  0  0  0  0  0
  -22.3150  -27.1639   16.7135 C   0  0  0  0  0  0  0  0  0  0  0  0
  -23.6893  -27.7563   23.1658 C   0  0  0  0  0  0  0  0  0  0  0  0
  -22.0520  -27.1636   21.3668 C   0  0  0  0  0  0  0  0  0  0  0  0
  -22.9599  -29.4826   21.5097 C   0  0  0  0  0  0  0  0  0  0  0  0
  -26.0343  -26.6862   16.0692 C   0  0  0  0  0  0  0  0  0  0  0  0
  -30.7374  -21.3810   21.4016 C   0  0  0  0  0  0  0  0  0  1  0  0
  -24.4588  -27.6122   20.7055 C   0  0  1  0  0  0  0  0  0  0  0  0
  -23.8020  -27.3357   16.9823 C   0  0  2  0  0  0  0  0  0  0  0  0
  -23.3152  -27.9905   21.6885 C   0  0  0  0  0  0  0  0  0  0  0  0
  -25.8633  -11.5390   20.2943 N   0  0  0  0  0  0  0  0  0  0  0  0
  -26.2375  -12.8220   20.1533 N   0  0  0  0  0  0  0  0  0  0  0  0
  -26.8599  -27.6012   21.3040 N   0  0  0  0  0  0  0  0  0  0  0  0
  -29.9652  -13.6220   20.3717 N   0  0  0  0  0  0  0  0  0  0  0  0
  -25.4637  -15.0501   20.3716 N   0  0  0  0  0  0  0  0  0  0  0  0
  -21.8787  -12.5798   21.5722 N   0  0  0  0  0  0  0  0  0  0  0  0
  -30.0643  -15.7141   21.4561 N   0  0  0  0  0  0  0  0  0  0  0  0
  -28.5888  -29.3616   23.8812 N   0  0  0  0  0  0  0  0  0  0  0  0
  -24.1424  -27.8491   19.3011 N   0  0  0  0  0  0  0  0  0  0  0  0
  -24.5578  -26.5853   15.9399 N   0  3  0  0  0  0  0  0  0  0  0  0
  -22.6502  -14.7183   21.2722 O   0  0  0  0  0  0  0  0  0  0  0  0
  -27.5065  -27.3000   23.8542 O   0  0  0  0  0  0  0  0  0  0  0  0
  -25.7302  -29.6036   20.9165 O   0  0  0  0  0  0  0  0  0  0  0  0
  -24.4613  -25.6631   18.5964 O   0  0  0  0  0  0  0  0  0  0  0  0
  -31.8500  -14.9480   20.1887 O   0  0  0  0  0  0  0  0  0  0  0  0
  -21.6198   -7.0175   21.7425 O   0  0  0  0  0  0  0  0  0  0  0  0
  -29.4550  -22.0064   21.4323 O   0  0  0  0  0  0  0  0  0  1  0  0
  -18.6033   -6.9037   26.3568 F   0  0  0  0  0  0  0  0  0  0  0  0
  -22.0647   -5.0971   23.6808 F   0  0  0  0  0  0  0  0  0  0  0  0
  -29.6997  -17.2252   23.7568 F   0  0  0  0  0  0  0  0  0  0  0  0
  -31.0891  -19.7782   19.1207 F   0  0  0  0  0  0  0  0  0  0  0  0
  -30.7717  -17.0816   19.1361 F   0  0  0  0  0  0  0  0  0  0  0  0
  1  2  1  0  0  0  0
  1  5  2  0  0  0  0
  2  6  2  0  0  0  0
  3  8  2  0  0  0  0
  3 15  1  0  0  0  0
  4  9  1  0  0  0  0
  4 15  2  0  0  0  0
  5 17  1  0  0  0  0
  6 19  1  0  0  0  0
  7 10  2  0  0  0  0
  7 18  1  0  0  0  0
  8 24  1  0  0  0  0
  9 24  2  0  0  0  0
 10 25  1  0  0  0  0
 11 12  2  0  0  0  0
 11 26  1  0  0  0  0
 12 27  1  0  0  0  0
 13 20  1  0  0  0  0
 13 25  2  0  0  0  0
 14 27  2  0  0  0  0
 14 28  1  0  0  0  0
 15 32  1  0  0  0  0
 16 32  1  0  0  0  0
 16 33  2  0  0  0  0
 16 34  1  0  0  0  0
 17 19  2  0  0  0  0
 17 39  1  0  0  0  0
 18 20  2  0  0  0  0
 18 40  1  0  0  0  0
 19 48  1  0  0  0  0
 20 41  1  0  0  0  0
 21 22  1  0  0  0  0
 21 29  2  0  0  0  0
 21 51  1  0  0  0  0
 22 30  2  0  0  0  0
 22 57  1  0  0  0  0
 23 29  1  0  0  0  0
 23 31  2  0  0  0  0
 23 67  1  0  0  0  0
 24 76  1  0  0  0  0
 25 77  1  0  0  0  0
 26 28  2  0  0  0  0
 26 76  1  0  0  0  0
 27 78  1  0  0  0  0
 28 79  1  0  0  0  0
 29 80  1  0  0  0  0
 30 31  1  0  0  0  0
 30 81  1  0  0  0  0
 31 82  1  0  0  0  0
 32 61  2  0  0  0  0
 33 62  1  0  0  0  0
 33 65  1  0  0  0  0
 34 66  1  0  0  0  0
 34 71  2  0  0  0  0
 35 49  1  0  0  0  0
 35 68  1  0  0  0  0
 35 72  2  0  0  0  0
 36 58  1  0  0  0  0
 36 63  1  0  0  0  0
 36 73  2  0  0  0  0
 37 59  1  0  0  0  0
 37 69  1  0  0  0  0
 37 74  2  0  0  0  0
 38 64  1  0  0  0  0
 38 67  1  0  0  0  0
 38 75  2  0  0  0  0
 39 42  1  0  0  0  0
 40 49  1  0  0  0  0
 41 63  1  0  0  0  0
 42 44  1  0  0  0  0
 43 45  1  0  0  0  0
 43 46  1  0  0  0  0
 44 48  1  0  0  0  0
 45 50  1  0  0  0  0
 46 64  1  0  0  0  0
 47 50  1  0  0  0  0
 47 64  1  0  0  0  0
 48 68  1  0  0  0  0
 49 63  1  0  0  0  0
 50 62  1  0  0  0  0
 52 59  1  0  0  0  0
 53 60  1  0  0  0  0
 54 60  1  0  0  0  0
 55 60  1  0  0  0  0
 56 70  1  0  0  0  0
 57 77  1  0  0  0  0
 58 60  1  0  0  0  0
 58 69  1  0  0  0  0
 59 70  1  0  0  0  0
 61 62  1  0  0  0  0
M  CHG  1  70   1
M  ISO  4  38 100  57 101  67 100  77 101
M  END
> <Batch ID>
0020

> <Smiles>
CNC(C)C(=O)NC(C(=O)N1Cc2cc([101O:1][101CH2:1]c3c(C)c(F)c([100NH:0][100C:0](=O)N4CCCC(n5nc(-c6ccc(Oc7ccc(F)cc7F)cc6)c(C(N)=O)c5N)C4)c(F)c3F)ccc2CC1C(=O)NC1CCCc2ccccc21)C(C)(C)C

> <Shape>
0.309

> <Color>
0.200

> <Negative vol penalty>
0.000

$$$$

  -OEChem-04052316093D

 90 98  0     1  0  0  0  0  0999 V2000
  -25.6957  -36.3570   19.7222 C   0  0  0  0  0  0  0  0  0  0  0  0
  -26.3913  -35.1816   19.9870 C   0  0  0  0  0  0  0  0  0  0  0  0
  -23.3868   -9.6839   19.8647 C   0  0  0  0  0  0  0  0  0  0  0  0
  -23.6332   -9.9070   22.2578 C   0  0  0  0  0  0  0  0  0  0  0  0
  -25.3276  -37.1991   20.7706 C   0  0  0  0  0  0  0  0  0  0  0  0
  -26.7201  -34.8483   21.3005 C   0  0  0  0  0  0  0  0  0  0  0  0
  -25.7957  -29.9833   22.3598 C   0  0  0  0  0  0  0  0  0  0  0  0
  -22.6943   -8.4870   20.0476 C   0  0  0  0  0  0  0  0  0  0  0  0
  -22.9407   -8.7101   22.4406 C   0  0  0  0  0  0  0  0  0  0  0  0
  -26.7178  -29.0449   21.8984 C   0  0  0  0  0  0  0  0  0  0  0  0
  -23.5906   -5.3988   22.2309 C   0  0  0  0  0  0  0  0  0  0  0  0
  -24.1118   -4.4814   23.1433 C   0  0  0  0  0  0  0  0  0  0  0  0
  -27.7115  -28.9507   24.0945 C   0  0  0  0  0  0  0  0  0  0  0  0
  -30.8951  -16.3500   21.9901 C   0  0  0  0  0  0  0  0  0  0  0  0
  -22.0752   -4.6107   24.4366 C   0  0  0  0  0  0  0  0  0  0  0  0
  -23.8562  -10.3939   20.9698 C   0  0  0  0  0  0  0  0  0  0  0  0
  -24.0273  -12.9266   20.7170 C   0  0  0  0  0  0  0  0  0  0  0  0
  -25.6436  -36.8712   22.0984 C   0  0  0  0  0  0  0  0  0  0  0  0
  -25.8315  -30.4213   23.6914 C   0  0  0  0  0  0  0  0  0  0  0  0
  -26.3570  -35.6875   22.3676 C   0  0  0  0  0  0  0  0  0  0  0  0
  -26.7872  -29.8928   24.5709 C   0  0  0  0  0  0  0  0  0  0  0  0
  -32.1754  -15.9626   21.5949 C   0  0  0  0  0  0  0  0  0  0  0  0
  -33.0943  -17.9417   22.6322 C   0  0  0  0  0  0  0  0  0  0  0  0
  -31.8139  -18.3291   23.0274 C   0  0  0  0  0  0  0  0  0  0  0  0
  -22.4713   -8.0001   21.3355 C   0  0  0  0  0  0  0  0  0  0  0  0
  -27.6777  -28.5306   22.7650 C   0  0  0  0  0  0  0  0  0  0  0  0
  -22.3117   -5.9222   22.4214 C   0  0  0  0  0  0  0  0  0  0  0  0
  -23.3541   -4.0874   24.2461 C   0  0  0  0  0  0  0  0  0  0  0  0
  -21.5540   -5.5281   23.5243 C   0  0  0  0  0  0  0  0  0  0  0  0
  -30.7143  -17.5333   22.7063 C   0  0  0  0  0  0  0  0  0  0  0  0
  -33.2751  -16.7585   21.9160 C   0  0  0  0  0  0  0  0  0  0  0  0
  -24.5721  -11.6301   20.7816 C   0  0  0  0  0  0  0  0  0  0  0  0
  -25.1132  -13.7464   20.5296 C   0  0  0  0  0  0  0  0  0  0  0  0
  -22.6617  -13.3518   20.8175 C   0  0  0  0  0  0  0  0  0  0  0  0
  -26.2974  -33.2226   25.1195 C   0  0  0  0  0  0  0  0  0  0  0  0
  -25.5525  -31.5430   27.7928 C   0  0  0  0  0  0  0  0  0  0  0  0
  -30.8332  -13.0169   21.9525 C   0  0  0  0  0  0  0  0  0  0  0  0
  -25.3922  -28.5169   29.3624 C   0  0  0  0  0  0  0  0  0  0  0  0
  -25.2659  -37.8363   23.1941 C   0  0  0  0  0  0  0  0  0  0  0  0
  -24.8130  -31.4142   24.1804 C   0  0  0  0  0  0  0  0  0  0  0  0
  -26.8552  -30.3151   26.0150 C   0  0  0  0  0  0  0  0  0  0  0  0
  -25.3245  -37.2246   24.5915 C   0  0  0  0  0  0  0  0  0  0  0  0
  -29.5070  -13.7843   18.6542 C   0  0  0  0  0  0  0  0  0  0  0  0
  -26.6202  -36.4414   24.7776 C   0  0  0  0  0  0  0  0  0  0  0  0
  -28.0360  -13.4052   18.8204 C   0  0  0  0  0  0  0  0  0  0  0  0
  -30.4196  -12.8546   19.4497 C   0  0  0  0  0  0  0  0  0  0  0  0
  -28.6073  -12.3935   21.0706 C   0  0  0  0  0  0  0  0  0  0  0  0
  -26.7102  -35.2792   23.7813 C   0  0  1  0  0  0  0  0  0  0  0  0
  -25.2668  -32.1725   25.4239 C   0  0  1  0  0  0  0  0  0  0  0  0
  -27.6512  -13.3261   20.3081 C   0  0  2  0  0  0  0  0  0  0  0  0
  -34.2645  -18.8078   22.9855 C   0  0  0  0  0  0  0  0  0  0  0  0
  -24.7782  -27.4662   31.5570 C   0  0  0  0  0  0  0  0  0  0  0  0
  -32.9767  -13.5792   23.0004 C   0  0  0  0  0  0  0  0  0  0  0  0
  -32.9288  -12.1941   20.9201 C   0  0  0  0  0  0  0  0  0  0  0  0
  -28.1631  -32.5555   29.0051 C   0  0  0  0  0  0  0  0  0  0  0  0
  -27.9654  -30.7690   30.7481 C   0  0  0  0  0  0  0  0  0  0  0  0
  -26.2187  -32.5418   30.5779 C   0  0  0  0  0  0  0  0  0  0  0  0
  -23.2684  -26.8761   28.1149 C   0  0  0  0  0  0  0  0  0  0  0  0
  -32.3211  -14.6870   20.8286 C   0  0  0  0  0  0  0  0  0  0  0  0
  -31.6319  -19.6047   23.7960 C   0  0  0  0  0  0  0  0  0  0  0  0
  -29.9446  -24.3125   23.4953 C   0  0  0  0  0  0  0  0  0  0  0  0
  -30.2625  -23.0096   22.7605 C   0  0  0  0  0  0  0  0  0  0  0  0
  -29.4271  -25.3809   22.5347 C   0  0  0  0  0  0  0  0  0  0  0  0
  -30.8109  -21.9624   23.7182 C   0  0  0  0  0  0  0  0  0  0  0  0
  -29.0680  -26.6670   23.2653 C   0  0  0  0  0  0  0  0  0  1  0  0
  -26.3355  -30.7427   28.8055 C   0  0  1  0  0  0  0  0  0  0  0  0
  -24.2891  -27.8591   30.1717 C   0  0  2  0  0  0  0  0  0  0  0  0
  -32.2686  -13.3685   21.6522 C   0  0  0  0  0  0  0  0  0  0  0  0
  -27.1709  -31.6455   29.7565 C   0  0  0  0  0  0  0  0  0  0  0  0
  -25.9008  -11.6219   20.6460 N   0  0  0  0  0  0  0  0  0  0  0  0
  -26.2001  -12.9232   20.4944 N   0  0  0  0  0  0  0  0  0  0  0  0
  -25.8416  -31.2930   26.4439 N   0  0  0  0  0  0  0  0  0  0  0  0
  -30.0032  -12.7853   20.8554 N   0  0  0  0  0  0  0  0  0  0  0  0
  -25.2349  -15.0840   20.3932 N   0  0  0  0  0  0  0  0  0  0  0  0
  -21.6714  -12.3788   21.0094 N   0  0  0  0  0  0  0  0  0  0  0  0
  -25.8772  -34.1775   24.2134 N   0  0  0  0  0  0  0  0  0  0  0  0
  -25.3683  -29.8898   29.4878 N   0  0  0  0  0  0  0  0  0  0  0  0
  -23.8004  -26.6327   29.4804 N   0  3  0  0  0  0  0  0  0  0  0  0
  -31.0614  -20.7057   22.9723 N   0  3  0  0  0  0  0  0  0  0  0  0
  -22.3279  -14.5573   20.7231 O   0  0  0  0  0  0  0  0  0  0  0  0
  -27.3924  -33.1712   25.6674 O   0  0  0  0  0  0  0  0  0  0  0  0
  -24.7102  -32.3548   28.1842 O   0  0  0  0  0  0  0  0  0  0  0  0
  -30.4622  -12.9533   23.1274 O   0  0  0  0  0  0  0  0  0  0  0  0
  -26.1970  -27.8766   28.6895 O   0  0  0  0  0  0  0  0  0  0  0  0
  -21.7954   -6.8322   21.5143 O   0  0  0  0  0  0  0  0  0  0  0  0
  -28.5793  -27.6150   22.3171 O   0  0  0  0  0  0  0  0  0  1  0  0
  -23.8541   -3.2053   25.1214 F   0  0  0  0  0  0  0  0  0  0  0  0
  -20.3243   -6.0265   23.7119 F   0  0  0  0  0  0  0  0  0  0  0  0
  -29.1129  -17.9779   23.1747 Cl  0  0  0  0  0  0  0  0  0  0  0  0
  -34.8638  -16.2730   21.4240 Cl  0  0  0  0  0  0  0  0  0  0  0  0
  1  2  1  0  0  0  0
  1  5  2  0  0  0  0
  2  6  2  0  0  0  0
  3  8  2  0  0  0  0
  3 16  1  0  0  0  0
  4  9  1  0  0  0  0
  4 16  2  0  0  0  0
  5 18  1  0  0  0  0
  6 20  1  0  0  0  0
  7 10  2  0  0  0  0
  7 19  1  0  0  0  0
  8 25  1  0  0  0  0
  9 25  2  0  0  0  0
 10 26  1  0  0  0  0
 11 12  2  0  0  0  0
 11 27  1  0  0  0  0
 12 28  1  0  0  0  0
 13 21  1  0  0  0  0
 13 26  2  0  0  0  0
 14 22  1  0  0  0  0
 14 30  2  0  0  0  0
 15 28  2  0  0  0  0
 15 29  1  0  0  0  0
 16 32  1  0  0  0  0
 17 32  1  0  0  0  0
 17 33  2  0  0  0  0
 17 34  1  0  0  0  0
 18 20  2  0  0  0  0
 18 39  1  0  0  0  0
 19 21  2  0  0  0  0
 19 40  1  0  0  0  0
 20 48  1  0  0  0  0
 21 41  1  0  0  0  0
 22 31  2  0  0  0  0
 22 59  1  0  0  0  0
 23 24  2  0  0  0  0
 23 31  1  0  0  0  0
 23 51  1  0  0  0  0
 24 30  1  0  0  0  0
 24 60  1  0  0  0  0
 25 85  1  0  0  0  0
 26 86  1  0  0  0  0
 27 29  2  0  0  0  0
 27 85  1  0  0  0  0
 28 87  1  0  0  0  0
 29 88  1  0  0  0  0
 30 89  1  0  0  0  0
 31 90  1  0  0  0  0
 32 70  2  0  0  0  0
 33 71  1  0  0  0  0
 33 74  1  0  0  0  0
 34 75  1  0  0  0  0
 34 80  2  0  0  0  0
 35 49  1  0  0  0  0
 35 76  1  0  0  0  0
 35 81  2  0  0  0  0
 36 66  1  0  0  0  0
 36 72  1  0  0  0  0
 36 82  2  0  0  0  0
 37 68  1  0  0  0  0
 37 73  1  0  0  0  0
 37 83  2  0  0  0  0
 38 67  1  0  0  0  0
 38 77  1  0  0  0  0
 38 84  2  0  0  0  0
 39 42  1  0  0  0  0
 40 49  1  0  0  0  0
 41 72  1  0  0  0  0
 42 44  1  0  0  0  0
 43 45  1  0  0  0  0
 43 46  1  0  0  0  0
 44 48  1  0  0  0  0
 45 50  1  0  0  0  0
 46 73  1  0  0  0  0
 47 50  1  0  0  0  0
 47 73  1  0  0  0  0
 48 76  1  0  0  0  0
 49 72  1  0  0  0  0
 50 71  1  0  0  0  0
 52 67  1  0  0  0  0
 53 68  1  0  0  0  0
 54 68  1  0  0  0  0
 55 69  1  0  0  0  0
 56 69  1  0  0  0  0
 57 69  1  0  0  0  0
 58 78  1  0  0  0  0
 59 68  1  0  0  0  0
 60 79  1  0  0  0  0
 61 62  1  0  0  0  0
 61 63  1  0  0  0  0
 62 64  1  0  0  0  0
 63 65  1  0  0  0  0
 64 79  1  0  0  0  0
 65 86  1  0  0  0  0
 66 69  1  0  0  0  0
 66 77  1  0  0  0  0
 67 78  1  0  0  0  0
 70 71  1  0  0  0  0
M  CHG  2  78   1  79   1
M  ISO  4  37 100  65 101  68 100  86 101
M  END
> <Batch ID>
0020

> <Smiles>
CNC(C)C(=O)NC(C(=O)N1Cc2cc([101O:1][101CH2:1]CCCCNCc3c(Cl)cc(C[100C:0](C)(C)[100C:0](=O)N4CCCC(n5nc(-c6ccc(Oc7ccc(F)cc7F)cc6)c(C(N)=O)c5N)C4)c(Cl)c3C)ccc2CC1C(=O)NC1CCCc2ccccc21)C(C)(C)C

> <Shape>
0.282

> <Color>
0.192

> <Negative vol penalty>
0.000

$$$$

  -OEChem-04052316093D

 80 88  0     1  0  0  0  0  0999 V2000
  -34.8478  -31.3448   22.4140 C   0  0  0  0  0  0  0  0  0  0  0  0
  -35.0190  -30.0332   22.8451 C   0  0  0  0  0  0  0  0  0  0  0  0
  -23.0134   -9.9995   19.9099 C   0  0  0  0  0  0  0  0  0  0  0  0
  -23.8302   -9.8624   22.1794 C   0  0  0  0  0  0  0  0  0  0  0  0
  -33.5636  -31.8500   22.2152 C   0  0  0  0  0  0  0  0  0  0  0  0
  -33.9059  -29.2264   23.0789 C   0  0  0  0  0  0  0  0  0  0  0  0
  -33.4628  -23.1950   22.1136 C   0  0  0  0  0  0  0  0  0  0  0  0
  -22.2583   -8.8442   20.1118 C   0  0  0  0  0  0  0  0  0  0  0  0
  -23.0752   -8.7071   22.3814 C   0  0  0  0  0  0  0  0  0  0  0  0
  -33.5765  -22.0978   22.9662 C   0  0  0  0  0  0  0  0  0  0  0  0
  -23.3011   -5.4195   21.6255 C   0  0  0  0  0  0  0  0  0  0  0  0
  -23.9184   -4.3457   22.2669 C   0  0  0  0  0  0  0  0  0  0  0  0
  -31.1775  -22.0503   23.2150 C   0  0  0  0  0  0  0  0  0  0  0  0
  -22.2630   -4.4433   24.0239 C   0  0  0  0  0  0  0  0  0  0  0  0
  -23.7994  -10.5086   20.9437 C   0  0  0  0  0  0  0  0  0  0  0  0
  -24.1768  -13.0315   20.9611 C   0  0  0  0  0  0  0  0  0  0  0  0
  -32.4345  -31.0460   22.4373 C   0  0  0  0  0  0  0  0  0  0  0  0
  -32.2043  -23.7358   21.8134 C   0  0  0  0  0  0  0  0  0  0  0  0
  -32.6054  -29.7218   22.8842 C   0  0  0  0  0  0  0  0  0  0  0  0
  -31.0504  -23.1528   22.3563 C   0  0  0  0  0  0  0  0  0  0  0  0
  -22.2892   -8.1980   21.3476 C   0  0  0  0  0  0  0  0  0  0  0  0
  -32.4340  -21.5271   23.5194 C   0  0  0  0  0  0  0  0  0  0  0  0
  -22.1647   -6.0053   22.1834 C   0  0  0  0  0  0  0  0  0  0  0  0
  -23.3994   -3.8575   23.4660 C   0  0  0  0  0  0  0  0  0  0  0  0
  -21.6456   -5.5171   23.3825 C   0  0  0  0  0  0  0  0  0  0  0  0
  -32.1025  -16.6344   22.8605 C   0  0  0  0  0  0  0  0  0  0  0  0
  -24.5800  -11.7017   20.7355 C   0  0  0  0  0  0  0  0  0  0  0  0
  -32.1007  -17.5954   23.8892 C   0  0  0  0  0  0  0  0  0  0  0  0
  -25.2710  -13.7856   20.6138 C   0  0  0  0  0  0  0  0  0  0  0  0
  -30.7759  -16.4626   22.5487 C   0  0  0  0  0  0  0  0  0  0  0  0
  -22.9253  -13.5396   21.4418 C   0  0  0  0  0  0  0  0  0  0  0  0
  -30.8058  -26.5530   22.2732 C   0  0  0  0  0  0  0  0  0  0  0  0
  -28.4421  -25.2332   20.4863 C   0  0  0  0  0  0  0  0  0  0  0  0
  -26.8924  -22.4072   19.3642 C   0  0  0  0  0  0  0  0  0  0  0  0
  -30.7553  -14.7432   20.7077 C   0  0  0  0  0  0  0  0  0  0  0  0
  -31.0652  -31.6511   22.2543 C   0  0  0  0  0  0  0  0  0  0  0  0
  -32.0967  -24.9030   20.8707 C   0  0  0  0  0  0  0  0  0  0  0  0
  -29.6745  -23.6831   22.0495 C   0  0  0  0  0  0  0  0  0  0  0  0
  -29.9482  -30.6144   22.1645 C   0  0  0  0  0  0  0  0  0  0  0  0
  -29.5451  -12.4872   18.2332 C   0  0  0  0  0  0  0  0  0  0  0  0
  -30.0999  -29.5695   23.2654 C   0  0  0  0  0  0  0  0  0  0  0  0
  -28.1123  -12.1911   18.6822 C   0  0  0  0  0  0  0  0  0  0  0  0
  -30.4933  -12.6328   19.4221 C   0  0  0  0  0  0  0  0  0  0  0  0
  -28.6328  -13.3020   20.8917 C   0  0  0  0  0  0  0  0  0  0  0  0
  -31.4234  -28.8079   23.1247 C   0  0  1  0  0  0  0  0  0  0  0  0
  -30.8022  -25.6919   21.0419 C   0  0  1  0  0  0  0  0  0  0  0  0
  -27.6284  -13.2112   19.7313 C   0  0  2  0  0  0  0  0  0  0  0  0
  -24.9646  -21.6476   17.9485 C   0  0  0  0  0  0  0  0  0  0  0  0
  -26.5092  -25.9602   22.7325 C   0  0  0  0  0  0  0  0  0  0  0  0
  -24.8523  -24.3766   21.7249 C   0  0  0  0  0  0  0  0  0  0  0  0
  -25.6272  -26.3608   20.4268 C   0  0  0  0  0  0  0  0  0  0  0  0
  -28.6549  -17.4823   23.4354 C   0  0  0  0  0  0  0  0  0  0  0  0
  -28.6827  -20.9878   17.4830 C   0  0  0  0  0  0  0  0  0  0  0  0
  -33.2846  -18.1746   24.6248 C   0  0  0  0  0  0  0  0  0  0  0  0
  -33.6426  -19.5740   24.1364 C   0  0  0  0  0  0  0  0  0  1  0  0
  -27.2061  -24.4184   20.7823 C   0  0  1  0  0  0  0  0  0  0  0  0
  -26.4469  -21.9866   17.9753 C   0  0  2  0  0  0  0  0  0  0  0  0
  -26.0746  -25.2700   21.4242 C   0  0  0  0  0  0  0  0  0  0  0  0
  -25.8324  -11.6128   20.2799 N   0  0  0  0  0  0  0  0  0  0  0  0
  -30.8706  -18.0056   24.2094 N   0  0  0  0  0  0  0  0  0  0  0  0
  -26.2256  -12.8963   20.2164 N   0  0  0  0  0  0  0  0  0  0  0  0
  -30.0870  -17.2990   23.3771 N   0  0  0  0  0  0  0  0  0  0  0  0
  -29.6219  -24.8296   21.1274 N   0  0  0  0  0  0  0  0  0  0  0  0
  -29.9723  -13.6184   20.3718 N   0  0  0  0  0  0  0  0  0  0  0  0
  -25.4999  -15.1160   20.6125 N   0  0  0  0  0  0  0  0  0  0  0  0
  -21.9082  -12.6265   21.7519 N   0  0  0  0  0  0  0  0  0  0  0  0
  -30.1428  -15.6278   21.5947 N   0  0  0  0  0  0  0  0  0  0  0  0
  -31.3271  -27.8172   22.0741 N   0  0  0  0  0  0  0  0  0  0  0  0
  -26.8313  -23.7750   19.5277 N   0  0  0  0  0  0  0  0  0  0  0  0
  -27.2112  -20.7884   17.5269 N   0  3  0  0  0  0  0  0  0  0  0  0
  -22.7094  -14.7680   21.5763 O   0  0  0  0  0  0  0  0  0  0  0  0
  -30.3667  -26.1043   23.3256 O   0  0  0  0  0  0  0  0  0  0  0  0
  -28.3651  -26.1881   19.7092 O   0  0  0  0  0  0  0  0  0  0  0  0
  -27.2545  -21.6026   20.2198 O   0  0  0  0  0  0  0  0  0  0  0  0
  -31.8748  -14.9231   20.2217 O   0  0  0  0  0  0  0  0  0  0  0  0
  -21.5524   -7.0708   21.5450 O   0  0  0  0  0  0  0  0  0  0  0  0
  -32.5421  -20.4564   24.3524 O   0  0  0  0  0  0  0  0  0  1  0  0
  -23.9915   -2.8253   24.0810 F   0  0  0  0  0  0  0  0  0  0  0  0
  -20.5534   -6.0750   23.9227 F   0  0  0  0  0  0  0  0  0  0  0  0
  -33.4573  -15.8782   22.1815 Cl  0  0  0  0  0  0  0  0  0  0  0  0
  1  2  1  0  0  0  0
  1  5  2  0  0  0  0
  2  6  2  0  0  0  0
  3  8  2  0  0  0  0
  3 15  1  0  0  0  0
  4  9  1  0  0  0  0
  4 15  2  0  0  0  0
  5 17  1  0  0  0  0
  6 19  1  0  0  0  0
  7 10  2  0  0  0  0
  7 18  1  0  0  0  0
  8 21  1  0  0  0  0
  9 21  2  0  0  0  0
 10 22  1  0  0  0  0
 11 12  2  0  0  0  0
 11 23  1  0  0  0  0
 12 24  1  0  0  0  0
 13 20  1  0  0  0  0
 13 22  2  0  0  0  0
 14 24  2  0  0  0  0
 14 25  1  0  0  0  0
 15 27  1  0  0  0  0
 16 27  1  0  0  0  0
 16 29  2  0  0  0  0
 16 31  1  0  0  0  0
 17 19  2  0  0  0  0
 17 36  1  0  0  0  0
 18 20  2  0  0  0  0
 18 37  1  0  0  0  0
 19 45  1  0  0  0  0
 20 38  1  0  0  0  0
 21 76  1  0  0  0  0
 22 77  1  0  0  0  0
 23 25  2  0  0  0  0
 23 76  1  0  0  0  0
 24 78  1  0  0  0  0
 25 79  1  0  0  0  0
 26 28  1  0  0  0  0
 26 30  2  0  0  0  0
 26 80  1  0  0  0  0
 27 59  2  0  0  0  0
 28 54  1  0  0  0  0
 28 60  2  0  0  0  0
 29 61  1  0  0  0  0
 29 65  1  0  0  0  0
 30 62  1  0  0  0  0
 30 67  1  0  0  0  0
 31 66  1  0  0  0  0
 31 71  2  0  0  0  0
 32 46  1  0  0  0  0
 32 68  1  0  0  0  0
 32 72  2  0  0  0  0
 33 56  1  0  0  0  0
 33 63  1  0  0  0  0
 33 73  2  0  0  0  0
 34 57  1  0  0  0  0
 34 69  1  0  0  0  0
 34 74  2  0  0  0  0
 35 64  1  0  0  0  0
 35 67  1  0  0  0  0
 35 75  2  0  0  0  0
 36 39  1  0  0  0  0
 37 46  1  0  0  0  0
 38 63  1  0  0  0  0
 39 41  1  0  0  0  0
 40 42  1  0  0  0  0
 40 43  1  0  0  0  0
 41 45  1  0  0  0  0
 42 47  1  0  0  0  0
 43 64  1  0  0  0  0
 44 47  1  0  0  0  0
 44 64  1  0  0  0  0
 45 68  1  0  0  0  0
 46 63  1  0  0  0  0
 47 61  1  0  0  0  0
 48 57  1  0  0  0  0
 49 58  1  0  0  0  0
 50 58  1  0  0  0  0
 51 58  1  0  0  0  0
 52 62  1  0  0  0  0
 53 70  1  0  0  0  0
 54 55  1  0  0  0  0
 55 77  1  0  0  0  0
 56 58  1  0  0  0  0
 56 69  1  0  0  0  0
 57 70  1  0  0  0  0
 59 61  1  0  0  0  0
 60 62  1  0  0  0  0
M  CHG  1  70   1
M  ISO  4  35 100  55 101  67 100  77 101
M  END
> <Batch ID>
0020

> <Smiles>
CNC(C)C(=O)NC(C(=O)N1Cc2cc([101O:1][101CH2:1]Cc3nn(C)c([100NH:0][100C:0](=O)N4CCCC(n5nc(-c6ccc(Oc7ccc(F)cc7F)cc6)c(C(N)=O)c5N)C4)c3Cl)ccc2CC1C(=O)NC1CCCc2ccccc21)C(C)(C)C

> <Shape>
0.215

> <Color>
0.213

> <Negative vol penalty>
0.000

$$$$

  -OEChem-04052316093D

 95104  0     1  0  0  0  0  0999 V2000
  -33.6259  -28.6767   20.0786 C   0  0  0  0  0  0  0  0  0  0  0  0
  -33.8132  -27.7788   21.1246 C   0  0  0  0  0  0  0  0  0  0  0  0
  -20.6700  -26.4381   23.4417 C   0  0  0  0  0  0  0  0  0  0  0  0
  -21.7649  -25.7900   21.3878 C   0  0  0  0  0  0  0  0  0  0  0  0
  -32.3880  -28.7552   19.4419 C   0  0  0  0  0  0  0  0  0  0  0  0
  -32.7622  -26.9596   21.5353 C   0  0  0  0  0  0  0  0  0  0  0  0
  -32.4151  -19.1759   22.1019 C   0  0  0  0  0  0  0  0  0  0  0  0
  -21.0334  -27.7658   23.2165 C   0  0  0  0  0  0  0  0  0  0  0  0
  -22.1283  -27.1177   21.1626 C   0  0  0  0  0  0  0  0  0  0  0  0
  -32.1805  -17.8008   22.0930 C   0  0  0  0  0  0  0  0  0  0  0  0
  -24.4856  -29.2766   22.2639 C   0  0  0  0  0  0  0  0  0  0  0  0
  -25.7953  -29.5298   21.8563 C   0  0  0  0  0  0  0  0  0  0  0  0
  -29.8189  -18.1950   21.7535 C   0  0  0  0  0  0  0  0  0  0  0  0
  -24.9675  -30.5350   19.8212 C   0  0  0  0  0  0  0  0  0  0  0  0
  -21.0358  -25.4502   22.5274 C   0  0  0  0  0  0  0  0  0  0  0  0
  -19.4833  -23.4352   22.3346 C   0  0  0  0  0  0  0  0  0  0  0  0
  -31.3242  -27.9296   19.8386 C   0  0  0  0  0  0  0  0  0  0  0  0
  -31.3533  -20.0666   21.9209 C   0  0  0  0  0  0  0  0  0  0  0  0
  -31.5085  -27.0280   20.9042 C   0  0  0  0  0  0  0  0  0  0  0  0
  -30.0495  -19.5732   21.7490 C   0  0  0  0  0  0  0  0  0  0  0  0
  -21.7625  -28.1057   22.0769 C   0  0  0  0  0  0  0  0  0  0  0  0
  -30.8855  -17.3116   21.9195 C   0  0  0  0  0  0  0  0  0  0  0  0
  -23.4168  -29.6525   21.4502 C   0  0  0  0  0  0  0  0  0  0  0  0
  -26.0363  -30.1590   20.6349 C   0  0  0  0  0  0  0  0  0  0  0  0
  -23.6578  -30.2817   20.2289 C   0  0  0  0  0  0  0  0  0  0  0  0
  -20.6611  -24.0784   22.7597 C   0  0  0  0  0  0  0  0  0  0  0  0
  -19.6052  -22.1502   22.8041 C   0  0  0  0  0  0  0  0  0  0  0  0
  -18.3779  -23.9529   21.5825 C   0  0  0  0  0  0  0  0  0  0  0  0
  -30.2391  -23.6388   21.6491 C   0  0  0  0  0  0  0  0  0  0  0  0
  -28.6673  -22.0527   19.5458 C   0  0  0  0  0  0  0  0  0  0  0  0
  -27.4553  -20.0278   17.0824 C   0  0  0  0  0  0  0  0  0  0  0  0
  -23.6220  -18.0744   23.6805 C   0  0  0  0  0  0  0  0  0  0  0  0
  -29.9905  -28.0838   19.1515 C   0  0  0  0  0  0  0  0  0  0  0  0
  -31.5504  -21.5569   21.9848 C   0  0  0  0  0  0  0  0  0  0  0  0
  -28.9331  -20.5693   21.5926 C   0  0  0  0  0  0  0  0  0  0  0  0
  -29.0389  -26.9162   19.3998 C   0  0  0  0  0  0  0  0  0  0  0  0
  -22.2616  -19.9787   26.3637 C   0  0  0  0  0  0  0  0  0  0  0  0
  -29.0146  -26.5530   20.8811 C   0  0  0  0  0  0  0  0  0  0  0  0
  -21.6007  -21.1702   25.6684 C   0  0  0  0  0  0  0  0  0  0  0  0
  -23.0325  -15.1703   19.6871 C   0  0  0  0  0  0  0  0  0  0  0  0
  -29.5674  -12.1951   16.0702 C   0  0  0  0  0  0  0  0  0  0  0  0
  -23.5514  -19.5598   25.6616 C   0  0  0  0  0  0  0  0  0  0  0  0
  -22.7514  -20.4855   23.5223 C   0  0  0  0  0  0  0  0  0  0  0  0
  -24.4890  -15.1702   19.2440 C   0  0  0  0  0  0  0  0  0  0  0  0
  -25.0780  -16.6872   21.1508 C   0  0  0  0  0  0  0  0  0  0  0  0
  -30.4000  -26.1051   21.3621 C   0  0  1  0  0  0  0  0  0  0  0  0
  -30.6260  -22.3295   21.0268 C   0  0  1  0  0  0  0  0  0  0  0  0
  -29.9490  -12.8624   17.3642 C   0  0  2  0  0  0  0  0  0  0  0  0
  -21.4177  -20.9090   24.1612 C   0  0  2  0  0  0  0  0  0  0  0  0
  -23.6176  -16.7024   21.6103 C   0  0  2  0  0  0  0  0  0  0  0  0
  -22.6123  -16.4519   20.4479 C   0  0  0  0  0  0  0  0  0  0  0  0
  -29.6456  -11.3733   17.3392 C   0  0  0  0  0  0  0  0  0  0  0  0
  -22.5531  -17.6448   19.4695 C   0  0  0  0  0  0  0  0  0  0  0  0
  -21.1901  -16.2253   21.0050 C   0  0  0  0  0  0  0  0  0  0  0  0
  -28.3592  -10.8549   17.9260 C   0  0  0  0  0  0  0  0  0  0  0  0
  -30.8115  -10.4324   17.4979 C   0  0  0  0  0  0  0  0  0  0  0  0
  -25.9230  -20.0440   15.0952 C   0  0  0  0  0  0  0  0  0  0  0  0
  -30.9583  -11.8436   21.2971 C   0  0  0  0  0  0  0  0  0  0  0  0
  -28.7865  -12.4712   22.3134 C   0  0  0  0  0  0  0  0  0  0  0  0
  -29.7325  -15.2634   17.9135 C   0  0  0  0  0  0  0  0  0  0  0  0
  -27.7336  -13.9679   17.1878 C   0  0  0  0  0  0  0  0  0  0  0  0
  -26.2541  -22.0119   21.4109 C   0  0  0  0  0  0  0  0  0  0  0  0
  -24.8970  -21.0907   19.5194 C   0  0  0  0  0  0  0  0  0  0  0  0
  -25.9362  -23.3499   19.3221 C   0  0  0  0  0  0  0  0  0  0  0  0
  -29.6525  -19.3044   15.2363 C   0  0  0  0  0  0  0  0  0  0  0  0
  -27.2468  -13.8044   19.9869 C   0  0  0  0  0  0  0  0  0  0  0  0
  -26.8311  -15.2727   20.0833 C   0  0  0  0  0  0  0  0  0  0  0  0
  -29.5759  -15.4909   21.1246 C   0  0  0  0  0  0  0  0  0  1  0  0
  -27.4062  -21.2958   19.2141 C   0  0  1  0  0  0  0  0  0  0  0  0
  -27.3538  -20.2191   15.5799 C   0  0  2  0  0  0  0  0  0  0  0  0
  -30.0901  -13.0359   21.7260 C   0  0  0  0  0  0  0  0  0  0  0  0
  -28.7186  -13.5287   19.5477 C   0  0  2  0  0  0  0  0  0  0  0  0
  -29.8208  -14.0664   20.5669 C   0  0  1  0  0  0  0  0  0  0  0  0
  -29.0005  -13.9010   18.0191 C   0  0  0  0  0  0  0  0  0  0  0  0
  -26.1469  -21.9237   19.8755 C   0  0  0  0  0  0  0  0  0  0  0  0
  -21.4716  -23.2689   23.4466 N   0  0  0  0  0  0  0  0  0  0  0  0
  -20.8019  -22.1038   23.4568 N   0  0  0  0  0  0  0  0  0  0  0  0
  -29.3550  -21.6608   20.7008 N   0  0  0  0  0  0  0  0  0  0  0  0
  -23.3090  -19.3260   24.2360 N   0  0  0  0  0  0  0  0  0  0  0  0
  -18.8045  -21.0668   22.7183 N   0  0  0  0  0  0  0  0  0  0  0  0
  -18.4140  -25.2947   21.1793 N   0  0  0  0  0  0  0  0  0  0  0  0
  -30.6661  -24.7462   20.9414 N   0  0  0  0  0  0  0  0  0  0  0  0
  -27.3438  -21.2244   17.7583 N   0  0  0  0  0  0  0  0  0  0  0  0
  -23.3552  -17.9346   22.3240 N   0  0  0  0  0  0  0  0  0  0  0  0
  -25.3746  -15.3887   20.4422 N   0  3  2  0  0  0  0  0  0  0  0  0
  -28.2141  -19.2290   14.8724 N   0  3  0  0  0  0  0  0  0  0  0  0
  -17.3799  -23.2510   21.2912 O   0  0  0  0  0  0  0  0  0  0  0  0
  -29.5987  -23.6453   22.6940 O   0  0  0  0  0  0  0  0  0  0  0  0
  -29.0321  -22.9706   18.8058 O   0  0  0  0  0  0  0  0  0  0  0  0
  -27.6138  -18.9265   17.6045 O   0  0  0  0  0  0  0  0  0  0  0  0
  -24.0985  -17.1482   24.3454 O   0  0  0  0  0  0  0  0  0  0  0  0
  -22.1171  -29.4012   21.8567 O   0  0  0  0  0  0  0  0  0  0  0  0
  -30.6624  -15.9565   21.9073 O   0  0  0  0  0  0  0  0  0  1  0  0
  -27.2939  -30.4035   20.2443 F   0  0  0  0  0  0  0  0  0  0  0  0
  -22.6351  -30.6462   19.4434 F   0  0  0  0  0  0  0  0  0  0  0  0
  1  2  1  0  0  0  0
  1  5  2  0  0  0  0
  2  6  2  0  0  0  0
  3  8  2  0  0  0  0
  3 15  1  0  0  0  0
  4  9  1  0  0  0  0
  4 15  2  0  0  0  0
  5 17  1  0  0  0  0
  6 19  1  0  0  0  0
  7 10  2  0  0  0  0
  7 18  1  0  0  0  0
  8 21  1  0  0  0  0
  9 21  2  0  0  0  0
 10 22  1  0  0  0  0
 11 12  2  0  0  0  0
 11 23  1  0  0  0  0
 12 24  1  0  0  0  0
 13 20  1  0  0  0  0
 13 22  2  0  0  0  0
 14 24  2  0  0  0  0
 14 25  1  0  0  0  0
 15 26  1  0  0  0  0
 16 26  1  0  0  0  0
 16 27  2  0  0  0  0
 16 28  1  0  0  0  0
 17 19  2  0  0  0  0
 17 33  1  0  0  0  0
 18 20  2  0  0  0  0
 18 34  1  0  0  0  0
 19 46  1  0  0  0  0
 20 35  1  0  0  0  0
 21 92  1  0  0  0  0
 22 93  1  0  0  0  0
 23 25  2  0  0  0  0
 23 92  1  0  0  0  0
 24 94  1  0  0  0  0
 25 95  1  0  0  0  0
 26 76  2  0  0  0  0
 27 77  1  0  0  0  0
 27 80  1  0  0  0  0
 28 81  1  0  0  0  0
 28 87  2  0  0  0  0
 29 47  1  0  0  0  0
 29 82  1  0  0  0  0
 29 88  2  0  0  0  0
 30 69  1  0  0  0  0
 30 78  1  0  0  0  0
 30 89  2  0  0  0  0
 31 70  1  0  0  0  0
 31 83  1  0  0  0  0
 31 90  2  0  0  0  0
 32 79  1  0  0  0  0
 32 84  1  0  0  0  0
 32 91  2  0  0  0  0
 33 36  1  0  0  0  0
 34 47  1  0  0  0  0
 35 78  1  0  0  0  0
 36 38  1  0  0  0  0
 37 39  1  0  0  0  0
 37 42  1  0  0  0  0
 38 46  1  0  0  0  0
 39 49  1  0  0  0  0
 40 44  1  0  0  0  0
 40 51  1  0  0  0  0
 41 48  1  0  0  0  0
 41 52  1  0  0  0  0
 42 79  1  0  0  0  0
 43 49  1  0  0  0  0
 43 79  1  0  0  0  0
 44 85  1  0  0  0  0
 45 50  1  0  0  0  0
 45 85  1  0  0  0  0
 46 82  1  0  0  0  0
 47 78  1  0  0  0  0
 48 52  1  0  0  0  0
 48 74  1  0  0  0  0
 49 77  1  0  0  0  0
 50 51  1  0  0  0  0
 50 84  1  0  0  0  0
 51 53  1  0  0  0  0
 51 54  1  0  0  0  0
 52 55  1  0  0  0  0
 52 56  1  0  0  0  0
 57 70  1  0  0  0  0
 58 71  1  0  0  0  0
 59 71  1  0  0  0  0
 60 74  1  0  0  0  0
 61 74  1  0  0  0  0
 62 75  1  0  0  0  0
 63 75  1  0  0  0  0
 64 75  1  0  0  0  0
 65 86  1  0  0  0  0
 66 67  1  0  0  0  0
 66 72  1  0  0  0  0
 67 85  1  0  0  0  0
 68 73  1  0  0  0  0
 68 93  1  0  0  0  0
 69 75  1  0  0  0  0
 69 83  1  0  0  0  0
 70 86  1  0  0  0  0
 71 73  1  0  0  0  0
 72 73  1  0  0  0  0
 72 74  1  0  0  0  0
 76 77  1  0  0  0  0
M  CHG  2  85   1  86   1
M  ISO  4  32 100  68 101  84 100  93 101
M  END
> <Batch ID>
0020

> <Smiles>
CNC(C)C(=O)NC(C(=O)N1Cc2cc([101O:1][101CH2:1]C(C(C)C)C(CCN3CCC(C)(C)C([100NH:0][100C:0](=O)N4CCCC(n5nc(-c6ccc(Oc7ccc(F)cc7F)cc6)c(C(N)=O)c5N)C4)C3)C(C)(C)C3CC3(C)C)ccc2CC1C(=O)NC1CCCc2ccccc21)C(C)(C)C

> <Shape>
0.228

> <Color>
0.047

> <Negative vol penalty>
0.000

$$$$

  -OEChem-04052316093D

 96104  0     1  0  0  0  0  0999 V2000
  -27.4625  -38.2145   23.5211 C   0  0  0  0  0  0  0  0  0  0  0  0
  -28.1621  -37.1115   23.9998 C   0  0  0  0  0  0  0  0  0  0  0  0
  -24.6222   -8.8929   21.4583 C   0  0  0  0  0  0  0  0  0  0  0  0
  -22.9640  -10.6183   21.1266 C   0  0  0  0  0  0  0  0  0  0  0  0
  -26.0686  -38.1971   23.4955 C   0  0  0  0  0  0  0  0  0  0  0  0
  -27.4681  -35.9906   24.4542 C   0  0  0  0  0  0  0  0  0  0  0  0
  -28.5211  -29.5173   21.4744 C   0  0  0  0  0  0  0  0  0  0  0  0
  -23.7951   -8.2787   22.3986 C   0  0  0  0  0  0  0  0  0  0  0  0
  -22.1368  -10.0041   22.0669 C   0  0  0  0  0  0  0  0  0  0  0  0
  -28.8215  -28.2081   21.0979 C   0  0  0  0  0  0  0  0  0  0  0  0
  -21.0665   -6.2818   22.3891 C   0  0  0  0  0  0  0  0  0  0  0  0
  -20.9122   -4.8977   22.3109 C   0  0  0  0  0  0  0  0  0  0  0  0
  -27.0985  -27.3760   22.5767 C   0  0  0  0  0  0  0  0  0  0  0  0
  -21.8108   -4.6715   24.5421 C   0  0  0  0  0  0  0  0  0  0  0  0
  -24.2067  -10.0628   20.8223 C   0  0  0  0  0  0  0  0  0  0  0  0
  -25.0929  -10.4623   18.4638 C   0  0  0  0  0  0  0  0  0  0  0  0
  -25.3574  -37.0717   23.9408 C   0  0  0  0  0  0  0  0  0  0  0  0
  -27.4966  -29.7621   22.3931 C   0  0  0  0  0  0  0  0  0  0  0  0
  -26.0634  -35.9586   24.4358 C   0  0  0  0  0  0  0  0  0  0  0  0
  -26.7847  -28.6861   22.9483 C   0  0  0  0  0  0  0  0  0  0  0  0
  -22.5524   -8.8343   22.7029 C   0  0  0  0  0  0  0  0  0  0  0  0
  -28.1121  -27.1401   21.6479 C   0  0  0  0  0  0  0  0  0  0  0  0
  -21.5930   -6.8607   23.5438 C   0  0  0  0  0  0  0  0  0  0  0  0
  -21.2843   -4.0926   23.3874 C   0  0  0  0  0  0  0  0  0  0  0  0
  -21.9651   -6.0556   24.6203 C   0  0  0  0  0  0  0  0  0  0  0  0
  -25.0609  -10.6980   19.8513 C   0  0  0  0  0  0  0  0  0  0  0  0
  -26.0669  -11.3092   17.9940 C   0  0  0  0  0  0  0  0  0  0  0  0
  -24.3120   -9.5587   17.6705 C   0  0  0  0  0  0  0  0  0  0  0  0
  -25.5151  -32.3066   24.3101 C   0  0  0  0  0  0  0  0  0  0  0  0
  -23.5352  -30.1618   23.3667 C   0  0  0  0  0  0  0  0  0  0  0  0
  -29.6141  -21.6781   20.4691 C   0  0  0  0  0  0  0  0  0  0  0  0
  -21.6265  -27.8180   21.7853 C   0  0  0  0  0  0  0  0  0  0  0  0
  -28.1564  -16.4305   20.0585 C   0  0  0  0  0  0  0  0  0  0  0  0
  -23.8499  -37.1177   23.9379 C   0  0  0  0  0  0  0  0  0  0  0  0
  -27.1799  -31.1522   22.8740 C   0  0  0  0  0  0  0  0  0  0  0  0
  -25.7142  -28.9949   23.9590 C   0  0  0  0  0  0  0  0  0  0  0  0
  -23.1983  -35.7454   24.0881 C   0  0  0  0  0  0  0  0  0  0  0  0
  -30.1168  -13.4736   19.3435 C   0  0  0  0  0  0  0  0  0  0  0  0
  -23.8630  -34.9592   25.2137 C   0  0  0  0  0  0  0  0  0  0  0  0
  -29.0297  -12.4004   19.2615 C   0  0  0  0  0  0  0  0  0  0  0  0
  -29.6168  -25.7269   17.9705 C   0  0  0  0  0  0  0  0  0  0  0  0
  -28.5079  -24.9202   18.6449 C   0  0  0  0  0  0  0  0  0  0  0  0
  -30.4761  -23.5195   18.1846 C   0  0  0  0  0  0  0  0  0  0  0  0
  -29.8031  -14.4961   20.4317 C   0  0  0  0  0  0  0  0  0  0  0  0
  -27.3837  -14.0807   20.2139 C   0  0  0  0  0  0  0  0  0  0  0  0
  -25.3468  -34.7145   24.9142 C   0  0  1  0  0  0  0  0  0  0  0  0
  -25.6813  -31.3679   23.1515 C   0  0  1  0  0  0  0  0  0  0  0  0
  -27.6312  -13.0294   19.1169 C   0  0  2  0  0  0  0  0  0  0  0  0
  -30.3851  -24.6724   17.1986 C   0  0  2  0  0  0  0  0  0  0  0  0
  -29.0782  -23.4911   18.8458 C   0  0  1  0  0  0  0  0  0  0  0  0
  -30.9108  -20.3034   25.8228 C   0  0  0  0  0  0  0  0  0  0  0  0
  -27.1842  -21.6902   15.9236 C   0  0  0  0  0  0  0  0  0  0  0  0
  -19.2442  -27.0816   21.5030 C   0  0  0  0  0  0  0  0  0  0  0  0
  -26.7901  -22.4782   18.8004 C   0  0  0  0  0  0  0  0  0  0  0  0
  -31.2076  -24.6420   23.3945 C   0  0  0  0  0  0  0  0  0  0  0  0
  -28.8938  -23.6916   23.3864 C   0  0  0  0  0  0  0  0  0  0  0  0
  -23.5954  -28.9129   26.1488 C   0  0  0  0  0  0  0  0  0  0  0  0
  -21.6852  -27.4503   25.4562 C   0  0  0  0  0  0  0  0  0  0  0  0
  -21.4016  -29.9281   25.5079 C   0  0  0  0  0  0  0  0  0  0  0  0
  -21.7028  -28.2966   18.8657 C   0  0  0  0  0  0  0  0  0  0  0  0
  -31.0517  -19.5843   24.4906 C   0  0  0  0  0  0  0  0  0  0  0  0
  -28.0593  -22.7054   16.6449 C   0  0  0  0  0  0  0  0  0  0  0  0
  -29.8831  -19.9006   23.5566 C   0  0  0  0  0  0  0  0  0  0  0  0
  -30.0461  -19.1962   22.2049 C   0  0  0  0  0  0  0  0  0  0  0  0
  -29.0773  -18.7307   19.9253 C   0  0  0  0  0  0  0  0  0  0  0  0
  -29.7517  -25.5914   20.8894 C   0  0  0  0  0  0  0  0  0  1  0  0
  -22.8106  -28.8796   23.6894 C   0  0  1  0  0  0  0  0  0  0  0  0
  -29.1905  -23.1436   20.3346 C   0  0  2  0  0  0  0  0  0  0  0  0
  -20.3674  -27.9429   20.9466 C   0  0  2  0  0  0  0  0  0  0  0  0
  -28.1756  -22.4565   18.1561 C   0  0  1  0  0  0  0  0  0  0  0  0
  -30.2291  -23.7325   22.6395 C   0  0  0  0  0  0  0  0  0  0  0  0
  -30.1275  -24.1124   21.1231 C   0  0  2  0  0  0  0  0  0  0  0  0
  -28.8581  -19.4446   21.2620 C   0  0  2  0  0  0  0  0  0  0  0  0
  -22.3975  -28.7928   25.1858 C   0  0  0  0  0  0  0  0  0  0  0  0
  -25.9444  -11.6221   20.2379 N   0  0  0  0  0  0  0  0  0  0  0  0
  -26.5408  -11.9745   19.0862 N   0  0  0  0  0  0  0  0  0  0  0  0
  -24.9272  -30.1571   23.5180 N   0  0  0  0  0  0  0  0  0  0  0  0
  -28.4660  -15.0705   20.2255 N   0  0  0  0  0  0  0  0  0  0  0  0
  -26.5556  -11.5421   16.7574 N   0  0  0  0  0  0  0  0  0  0  0  0
  -23.3551   -8.7614   18.3131 N   0  0  0  0  0  0  0  0  0  0  0  0
  -25.4986  -33.6418   23.9546 N   0  0  0  0  0  0  0  0  0  0  0  0
  -21.6932  -28.7959   22.7552 N   0  0  0  0  0  0  0  0  0  0  0  0
  -28.6583  -20.8592   21.0457 N   0  0  0  0  0  0  0  0  0  0  0  0
  -29.2374  -17.3029   20.0890 N   0  0  0  0  0  0  0  0  0  0  0  0
  -31.7231  -25.1580   16.8184 N   0  3  0  0  0  0  0  0  0  0  0  0
  -20.6351  -27.5173   19.5437 N   0  3  0  0  0  0  0  0  0  0  0  0
  -24.4699   -9.4492   16.4309 O   0  0  0  0  0  0  0  0  0  0  0  0
  -25.4081  -31.8540   25.4439 O   0  0  0  0  0  0  0  0  0  0  0  0
  -22.8866  -31.1442   22.9957 O   0  0  0  0  0  0  0  0  0  0  0  0
  -30.7210  -21.3032   20.0824 O   0  0  0  0  0  0  0  0  0  0  0  0
  -22.4651  -26.9386   21.6011 O   0  0  0  0  0  0  0  0  0  0  0  0
  -27.0018  -16.8371   19.8891 O   0  0  0  0  0  0  0  0  0  0  0  0
  -21.7449   -8.2351   23.6202 O   0  0  0  0  0  0  0  0  0  0  0  0
  -28.4099  -25.8547   21.2695 O   0  0  0  0  0  0  0  0  0  1  0  0
  -21.1346   -2.7636   23.3127 F   0  0  0  0  0  0  0  0  0  0  0  0
  -22.4704   -6.6061   25.7327 F   0  0  0  0  0  0  0  0  0  0  0  0
  1  2  1  0  0  0  0
  1  5  2  0  0  0  0
  2  6  2  0  0  0  0
  3  8  2  0  0  0  0
  3 15  1  0  0  0  0
  4  9  1  0  0  0  0
  4 15  2  0  0  0  0
  5 17  1  0  0  0  0
  6 19  1  0  0  0  0
  7 10  2  0  0  0  0
  7 18  1  0  0  0  0
  8 21  1  0  0  0  0
  9 21  2  0  0  0  0
 10 22  1  0  0  0  0
 11 12  2  0  0  0  0
 11 23  1  0  0  0  0
 12 24  1  0  0  0  0
 13 20  1  0  0  0  0
 13 22  2  0  0  0  0
 14 24  2  0  0  0  0
 14 25  1  0  0  0  0
 15 26  1  0  0  0  0
 16 26  1  0  0  0  0
 16 27  2  0  0  0  0
 16 28  1  0  0  0  0
 17 19  2  0  0  0  0
 17 34  1  0  0  0  0
 18 20  2  0  0  0  0
 18 35  1  0  0  0  0
 19 46  1  0  0  0  0
 20 36  1  0  0  0  0
 21 93  1  0  0  0  0
 22 94  1  0  0  0  0
 23 25  2  0  0  0  0
 23 93  1  0  0  0  0
 24 95  1  0  0  0  0
 25 96  1  0  0  0  0
 26 75  2  0  0  0  0
 27 76  1  0  0  0  0
 27 79  1  0  0  0  0
 28 80  1  0  0  0  0
 28 87  2  0  0  0  0
 29 47  1  0  0  0  0
 29 81  1  0  0  0  0
 29 88  2  0  0  0  0
 30 67  1  0  0  0  0
 30 77  1  0  0  0  0
 30 89  2  0  0  0  0
 31 68  1  0  0  0  0
 31 83  1  0  0  0  0
 31 90  2  0  0  0  0
 32 69  1  0  0  0  0
 32 82  1  0  0  0  0
 32 91  2  0  0  0  0
 33 78  1  0  0  0  0
 33 84  1  0  0  0  0
 33 92  2  0  0  0  0
 34 37  1  0  0  0  0
 35 47  1  0  0  0  0
 36 77  1  0  0  0  0
 37 39  1  0  0  0  0
 38 40  1  0  0  0  0
 38 44  1  0  0  0  0
 39 46  1  0  0  0  0
 40 48  1  0  0  0  0
 41 42  1  0  0  0  0
 41 49  1  0  0  0  0
 42 50  1  0  0  0  0
 43 49  1  0  0  0  0
 43 50  1  0  0  0  0
 44 78  1  0  0  0  0
 45 48  1  0  0  0  0
 45 78  1  0  0  0  0
 46 81  1  0  0  0  0
 47 77  1  0  0  0  0
 48 76  1  0  0  0  0
 49 85  1  0  0  0  0
 50 68  1  0  0  0  0
 50 70  1  0  0  0  0
 51 61  1  0  0  0  0
 52 62  1  0  0  0  0
 53 69  1  0  0  0  0
 54 70  1  0  0  0  0
 55 71  1  0  0  0  0
 56 71  1  0  0  0  0
 57 74  1  0  0  0  0
 58 74  1  0  0  0  0
 59 74  1  0  0  0  0
 60 86  1  0  0  0  0
 61 63  1  0  0  0  0
 62 70  1  0  0  0  0
 63 64  1  0  0  0  0
 64 73  1  0  0  0  0
 65 73  1  0  0  0  0
 65 84  1  0  0  0  0
 66 72  1  0  0  0  0
 66 94  1  0  0  0  0
 67 74  1  0  0  0  0
 67 82  1  0  0  0  0
 68 72  1  0  0  0  0
 69 86  1  0  0  0  0
 71 72  1  0  0  0  0
 73 83  1  0  0  0  0
 75 76  1  0  0  0  0
M  CHG  2  85   1  86   1
M  ISO  4  33 100  66 101  84 100  94 101
M  END
> <Batch ID>
0020

> <Smiles>
CCCCC(C[100NH:0][100C:0](=O)N1CCCC(n2nc(-c3ccc(Oc4ccc(F)cc4F)cc3)c(C(N)=O)c2N)C1)NC(=O)C(C(C(C)C)[101CH2:1][101O:1]c1ccc2c(c1)CN(C(=O)C(NC(=O)C(C)NC)C(C)(C)C)C(C(=O)NC1CCCc3ccccc31)C2)C1(C(C)CC)CCC(N)C1

> <Shape>
0.370

> <Color>
0.079

> <Negative vol penalty>
0.000

$$$$

  -OEChem-04052316093D

 82 90  0     1  0  0  0  0  0999 V2000
  -27.5911  -30.4667   13.6053 C   0  0  0  0  0  0  0  0  0  0  0  0
  -28.0622  -29.2338   14.0451 C   0  0  0  0  0  0  0  0  0  0  0  0
  -22.9860   -9.9359   19.9530 C   0  0  0  0  0  0  0  0  0  0  0  0
  -23.7795   -9.8781   22.2342 C   0  0  0  0  0  0  0  0  0  0  0  0
  -27.1347  -31.4068   14.5283 C   0  0  0  0  0  0  0  0  0  0  0  0
  -28.0782  -28.9407   15.4083 C   0  0  0  0  0  0  0  0  0  0  0  0
  -27.1108  -23.4826   18.0120 C   0  0  0  0  0  0  0  0  0  0  0  0
  -22.1940   -8.8147   20.2000 C   0  0  0  0  0  0  0  0  0  0  0  0
  -22.9874   -8.7569   22.4813 C   0  0  0  0  0  0  0  0  0  0  0  0
  -27.9810  -22.5061   18.4946 C   0  0  0  0  0  0  0  0  0  0  0  0
  -19.7354   -8.0992   23.1238 C   0  0  0  0  0  0  0  0  0  0  0  0
  -18.9950   -8.0784   24.3056 C   0  0  0  0  0  0  0  0  0  0  0  0
  -27.7470  -23.4062   20.7204 C   0  0  0  0  0  0  0  0  0  0  0  0
  -31.1033  -18.8352   20.2919 C   0  0  0  0  0  0  0  0  0  0  0  0
  -20.1572   -6.0769   24.9986 C   0  0  0  0  0  0  0  0  0  0  0  0
  -23.7789  -10.4676   20.9701 C   0  0  0  0  0  0  0  0  0  0  0  0
  -24.2341  -12.9759   20.8762 C   0  0  0  0  0  0  0  0  0  0  0  0
  -27.1361  -31.1214   15.9027 C   0  0  0  0  0  0  0  0  0  0  0  0
  -26.5597  -24.4366   18.8797 C   0  0  0  0  0  0  0  0  0  0  0  0
  -27.6226  -29.8784   16.3506 C   0  0  0  0  0  0  0  0  0  0  0  0
  -26.8680  -24.3922   20.2468 C   0  0  0  0  0  0  0  0  0  0  0  0
  -30.9761  -19.5625   21.4754 C   0  0  0  0  0  0  0  0  0  0  0  0
  -30.6144  -18.9147   22.6566 C   0  0  0  0  0  0  0  0  0  0  0  0
  -30.3798  -17.5397   22.6543 C   0  0  0  0  0  0  0  0  0  0  0  0
  -30.5069  -16.8124   21.4708 C   0  0  0  0  0  0  0  0  0  0  0  0
  -22.1946   -8.2252   21.4642 C   0  0  0  0  0  0  0  0  0  0  0  0
  -28.3015  -22.4696   19.8485 C   0  0  0  0  0  0  0  0  0  0  0  0
  -20.6868   -7.1087   22.8792 C   0  0  0  0  0  0  0  0  0  0  0  0
  -19.2059   -7.0673   25.2431 C   0  0  0  0  0  0  0  0  0  0  0  0
  -30.8686  -17.4602   20.2896 C   0  0  0  0  0  0  0  0  0  0  0  0
  -20.8977   -6.0976   23.8167 C   0  0  0  0  0  0  0  0  0  0  0  0
  -24.5977  -11.6255   20.7153 C   0  0  0  0  0  0  0  0  0  0  0  0
  -25.3539  -13.6795   20.5054 C   0  0  0  0  0  0  0  0  0  0  0  0
  -22.9949  -13.5435   21.3211 C   0  0  0  0  0  0  0  0  0  0  0  0
  -26.7002  -27.6036   19.1123 C   0  0  0  0  0  0  0  0  0  0  0  0
  -24.4926  -27.1405   21.4435 C   0  0  0  0  0  0  0  0  0  0  0  0
  -23.1153  -25.0395   23.7534 C   0  0  0  0  0  0  0  0  0  0  0  0
  -30.8642  -14.4725   20.6085 C   0  0  0  0  0  0  0  0  0  0  0  0
  -26.6770  -32.1873   16.8659 C   0  0  0  0  0  0  0  0  0  0  0  0
  -25.6017  -25.4670   18.3479 C   0  0  0  0  0  0  0  0  0  0  0  0
  -26.2872  -25.3810   21.2232 C   0  0  0  0  0  0  0  0  0  0  0  0
  -26.3777  -31.6558   18.2653 C   0  0  0  0  0  0  0  0  0  0  0  0
  -29.6053  -12.1433   18.2279 C   0  0  0  0  0  0  0  0  0  0  0  0
  -27.4983  -30.7348   18.7374 C   0  0  0  0  0  0  0  0  0  0  0  0
  -28.1604  -11.9121   18.6761 C   0  0  0  0  0  0  0  0  0  0  0  0
  -30.5477  -12.3144   19.4180 C   0  0  0  0  0  0  0  0  0  0  0  0
  -28.6967  -13.1068   20.8375 C   0  0  0  0  0  0  0  0  0  0  0  0
  -27.6327  -29.5139   17.8193 C   0  0  1  0  0  0  0  0  0  0  0  0
  -25.5025  -26.7045   19.2345 C   0  0  1  0  0  0  0  0  0  0  0  0
  -27.6996  -12.9935   19.6729 C   0  0  2  0  0  0  0  0  0  0  0  0
  -30.4765  -19.6969   23.9243 C   0  0  0  0  0  0  0  0  0  0  0  0
  -29.9908  -16.8459   23.9227 C   0  0  0  0  0  0  0  0  0  0  0  0
  -21.3522  -24.9566   25.5371 C   0  0  0  0  0  0  0  0  0  0  0  0
  -26.3001  -28.7501   23.3014 C   0  0  0  0  0  0  0  0  0  0  0  0
  -24.9999  -27.8422   25.2388 C   0  0  0  0  0  0  0  0  0  0  0  0
  -23.8605  -29.2530   23.5259 C   0  0  0  0  0  0  0  0  0  0  0  0
  -21.6447  -22.8806   22.3621 C   0  0  0  0  0  0  0  0  0  0  0  0
  -31.2346  -21.0493   21.4498 C   0  0  0  0  0  0  0  0  0  0  0  0
  -29.9446  -21.8623   21.4570 C   0  0  0  0  0  0  0  0  0  1  0  0
  -24.5451  -26.8928   22.9317 C   0  0  1  0  0  0  0  0  0  0  0  0
  -21.6702  -24.7011   24.0721 C   0  0  2  0  0  0  0  0  0  0  0  0
  -24.9390  -28.1670   23.7310 C   0  0  0  0  0  0  0  0  0  0  0  0
  -25.8505  -11.4776   20.2763 N   0  0  0  0  0  0  0  0  0  0  0  0
  -26.2838  -12.7442   20.1582 N   0  0  0  0  0  0  0  0  0  0  0  0
  -25.3604  -26.3731   20.6538 N   0  0  0  0  0  0  0  0  0  0  0  0
  -30.0497  -13.3580   20.3167 N   0  0  0  0  0  0  0  0  0  0  0  0
  -25.6239  -15.0009   20.4457 N   0  0  0  0  0  0  0  0  0  0  0  0
  -21.9476  -12.6771   21.6627 N   0  0  0  0  0  0  0  0  0  0  0  0
  -30.2721  -15.4153   21.4483 N   0  0  0  0  0  0  0  0  0  0  0  0
  -26.5951  -28.5474   18.1085 N   0  0  0  0  0  0  0  0  0  0  0  0
  -23.2483  -26.3344   23.2986 N   0  0  0  0  0  0  0  0  0  0  0  0
  -21.3965  -23.2665   23.7751 N   0  3  0  0  0  0  0  0  0  0  0  0
  -22.8161  -14.7828   21.3974 O   0  0  0  0  0  0  0  0  0  0  0  0
  -27.6488  -27.4531   19.8734 O   0  0  0  0  0  0  0  0  0  0  0  0
  -23.7052  -27.9788   20.9974 O   0  0  0  0  0  0  0  0  0  0  0  0
  -24.0348  -24.2367   23.8972 O   0  0  0  0  0  0  0  0  0  0  0  0
  -31.9927  -14.5957   20.1256 O   0  0  0  0  0  0  0  0  0  0  0  0
  -21.4216   -7.1312   21.7057 O   0  0  0  0  0  0  0  0  0  0  0  0
  -29.1512  -21.5179   20.3220 O   0  0  0  0  0  0  0  0  0  1  0  0
  -18.4958   -7.0483   26.3787 F   0  0  0  0  0  0  0  0  0  0  0  0
  -30.9955  -16.7720   19.1460 F   0  0  0  0  0  0  0  0  0  0  0  0
  -21.8110   -5.1441   23.5879 F   0  0  0  0  0  0  0  0  0  0  0  0
  1  2  1  0  0  0  0
  1  5  2  0  0  0  0
  2  6  2  0  0  0  0
  3  8  2  0  0  0  0
  3 16  1  0  0  0  0
  4  9  1  0  0  0  0
  4 16  2  0  0  0  0
  5 18  1  0  0  0  0
  6 20  1  0  0  0  0
  7 10  2  0  0  0  0
  7 19  1  0  0  0  0
  8 26  1  0  0  0  0
  9 26  2  0  0  0  0
 10 27  1  0  0  0  0
 11 12  2  0  0  0  0
 11 28  1  0  0  0  0
 12 29  1  0  0  0  0
 13 21  1  0  0  0  0
 13 27  2  0  0  0  0
 14 22  1  0  0  0  0
 14 30  2  0  0  0  0
 15 29  2  0  0  0  0
 15 31  1  0  0  0  0
 16 32  1  0  0  0  0
 17 32  1  0  0  0  0
 17 33  2  0  0  0  0
 17 34  1  0  0  0  0
 18 20  2  0  0  0  0
 18 39  1  0  0  0  0
 19 21  2  0  0  0  0
 19 40  1  0  0  0  0
 20 48  1  0  0  0  0
 21 41  1  0  0  0  0
 22 23  2  0  0  0  0
 22 58  1  0  0  0  0
 23 24  1  0  0  0  0
 23 51  1  0  0  0  0
 24 25  2  0  0  0  0
 24 52  1  0  0  0  0
 25 30  1  0  0  0  0
 25 69  1  0  0  0  0
 26 78  1  0  0  0  0
 27 79  1  0  0  0  0
 28 31  2  0  0  0  0
 28 78  1  0  0  0  0
 29 80  1  0  0  0  0
 30 81  1  0  0  0  0
 31 82  1  0  0  0  0
 32 63  2  0  0  0  0
 33 64  1  0  0  0  0
 33 67  1  0  0  0  0
 34 68  1  0  0  0  0
 34 73  2  0  0  0  0
 35 49  1  0  0  0  0
 35 70  1  0  0  0  0
 35 74  2  0  0  0  0
 36 60  1  0  0  0  0
 36 65  1  0  0  0  0
 36 75  2  0  0  0  0
 37 61  1  0  0  0  0
 37 71  1  0  0  0  0
 37 76  2  0  0  0  0
 38 66  1  0  0  0  0
 38 69  1  0  0  0  0
 38 77  2  0  0  0  0
 39 42  1  0  0  0  0
 40 49  1  0  0  0  0
 41 65  1  0  0  0  0
 42 44  1  0  0  0  0
 43 45  1  0  0  0  0
 43 46  1  0  0  0  0
 44 48  1  0  0  0  0
 45 50  1  0  0  0  0
 46 66  1  0  0  0  0
 47 50  1  0  0  0  0
 47 66  1  0  0  0  0
 48 70  1  0  0  0  0
 49 65  1  0  0  0  0
 50 64  1  0  0  0  0
 53 61  1  0  0  0  0
 54 62  1  0  0  0  0
 55 62  1  0  0  0  0
 56 62  1  0  0  0  0
 57 72  1  0  0  0  0
 58 59  1  0  0  0  0
 59 79  1  0  0  0  0
 60 62  1  0  0  0  0
 60 71  1  0  0  0  0
 61 72  1  0  0  0  0
 63 64  1  0  0  0  0
M  CHG  1  72   1
M  ISO  4  38 100  59 101  69 100  79 101
M  END
> <Batch ID>
0020

> <Smiles>
CNC(C)C(=O)NC(C(=O)N1Cc2cc([101O:1][101CH2:1]Cc3cc(F)c([100NH:0][100C:0](=O)N4CCCC(n5nc(-c6ccc(Oc7ccc(F)cc7F)cc6)c(C(N)=O)c5N)C4)c(C)c3C)ccc2CC1C(=O)NC1CCCc2ccccc21)C(C)(C)C

> <Shape>
0.250

> <Color>
0.208

> <Negative vol penalty>
0.000

$$$$

  -OEChem-04052316093D

 81 89  0     1  0  0  0  0  0999 V2000
  -21.8993  -29.7903   21.6388 C   0  0  0  0  0  0  0  0  0  0  0  0
  -22.3414  -28.7232   22.4142 C   0  0  0  0  0  0  0  0  0  0  0  0
  -22.9706   -9.9371   19.9851 C   0  0  0  0  0  0  0  0  0  0  0  0
  -23.7176   -9.9519   22.2827 C   0  0  0  0  0  0  0  0  0  0  0  0
  -22.4237  -29.9870   20.3620 C   0  0  0  0  0  0  0  0  0  0  0  0
  -23.3075  -27.8516   21.9129 C   0  0  0  0  0  0  0  0  0  0  0  0
  -28.8133  -23.7958   24.0465 C   0  0  0  0  0  0  0  0  0  0  0  0
  -22.1924   -8.8092   20.2453 C   0  0  0  0  0  0  0  0  0  0  0  0
  -22.9393   -8.8240   22.5430 C   0  0  0  0  0  0  0  0  0  0  0  0
  -29.2870  -22.4878   23.9540 C   0  0  0  0  0  0  0  0  0  0  0  0
  -23.1373   -5.4881   22.0300 C   0  0  0  0  0  0  0  0  0  0  0  0
  -23.7190   -4.4549   22.7646 C   0  0  0  0  0  0  0  0  0  0  0  0
  -30.1792  -22.9721   21.7657 C   0  0  0  0  0  0  0  0  0  0  0  0
  -22.0138   -4.6995   24.4586 C   0  0  0  0  0  0  0  0  0  0  0  0
  -32.5420  -16.9730   23.9342 C   0  0  0  0  0  0  0  0  0  0  0  0
  -23.7333  -10.5084   21.0037 C   0  0  0  0  0  0  0  0  0  0  0  0
  -24.1485  -13.0209   20.8534 C   0  0  0  0  0  0  0  0  0  0  0  0
  -23.4038  -29.1230   19.8485 C   0  0  0  0  0  0  0  0  0  0  0  0
  -29.0098  -24.7001   22.9930 C   0  0  0  0  0  0  0  0  0  0  0  0
  -23.8446  -28.0362   20.6275 C   0  0  0  0  0  0  0  0  0  0  0  0
  -29.7093  -24.2917   21.8484 C   0  0  0  0  0  0  0  0  0  0  0  0
  -30.7913  -18.5926   23.5485 C   0  0  0  0  0  0  0  0  0  0  0  0
  -30.7490  -16.4703   22.3948 C   0  0  0  0  0  0  0  0  0  0  0  0
  -22.1767   -8.2526   21.5243 C   0  0  0  0  0  0  0  0  0  0  0  0
  -29.9675  -22.0749   22.8122 C   0  0  0  0  0  0  0  0  0  0  0  0
  -21.9940   -6.1271   22.5096 C   0  0  0  0  0  0  0  0  0  0  0  0
  -23.1572   -4.0606   23.9790 C   0  0  0  0  0  0  0  0  0  0  0  0
  -21.4322   -5.7328   23.7239 C   0  0  0  0  0  0  0  0  0  0  0  0
  -31.9725  -18.2203   24.1902 C   0  0  0  0  0  0  0  0  0  0  0  0
  -31.9302  -16.0980   23.0365 C   0  0  0  0  0  0  0  0  0  0  0  0
  -30.1795  -17.7176   22.6508 C   0  0  0  0  0  0  0  0  0  0  0  0
  -24.5378  -11.6732   20.7354 C   0  0  0  0  0  0  0  0  0  0  0  0
  -25.2639  -13.7339   20.4871 C   0  0  0  0  0  0  0  0  0  0  0  0
  -22.8911  -13.5785   21.2581 C   0  0  0  0  0  0  0  0  0  0  0  0
  -27.0945  -26.3291   21.0484 C   0  0  0  0  0  0  0  0  0  0  0  0
  -29.8791  -27.6703   20.0637 C   0  0  0  0  0  0  0  0  0  0  0  0
  -33.2684  -27.4149   19.7564 C   0  0  0  0  0  0  0  0  0  0  0  0
  -30.7569  -14.6239   20.6810 C   0  0  0  0  0  0  0  0  0  0  0  0
  -23.9067  -29.3484   18.4446 C   0  0  0  0  0  0  0  0  0  0  0  0
  -28.5161  -26.1153   23.1194 C   0  0  0  0  0  0  0  0  0  0  0  0
  -29.9641  -25.2298   20.6979 C   0  0  0  0  0  0  0  0  0  0  0  0
  -25.1994  -28.5987   18.1330 C   0  0  0  0  0  0  0  0  0  0  0  0
  -29.5865  -12.2126   18.3372 C   0  0  0  0  0  0  0  0  0  0  0  0
  -25.1059  -27.1526   18.6092 C   0  0  0  0  0  0  0  0  0  0  0  0
  -28.1367  -11.9682   18.7619 C   0  0  0  0  0  0  0  0  0  0  0  0
  -30.5011  -12.4306   19.5413 C   0  0  0  0  0  0  0  0  0  0  0  0
  -28.6082  -13.2275   20.9018 C   0  0  0  0  0  0  0  0  0  0  0  0
  -24.9092  -27.0836   20.1284 C   0  0  1  0  0  0  0  0  0  0  0  0
  -28.3231  -26.8035   21.7717 C   0  0  1  0  0  0  0  0  0  0  0  0
  -27.6374  -13.0670   19.7205 C   0  0  2  0  0  0  0  0  0  0  0  0
  -35.2654  -28.6535   18.8759 C   0  0  0  0  0  0  0  0  0  0  0  0
  -29.0970  -26.9021   17.2162 C   0  0  0  0  0  0  0  0  0  0  0  0
  -31.4755  -27.2841   16.5343 C   0  0  0  0  0  0  0  0  0  0  0  0
  -30.1209  -29.1727   17.4403 C   0  0  0  0  0  0  0  0  0  0  0  0
  -34.5099  -27.5547   22.4393 C   0  0  0  0  0  0  0  0  0  0  0  0
  -30.1835  -19.9356   23.8284 C   0  0  0  0  0  0  0  0  0  1  0  0
  -30.9052  -27.3478   19.0045 C   0  0  1  0  0  0  0  0  0  0  0  0
  -34.3859  -28.3874   20.0877 C   0  0  2  0  0  0  0  0  0  0  0  0
  -30.3933  -27.6582   17.5695 C   0  0  0  0  0  0  0  0  0  0  0  0
  -25.8017  -11.5356   20.3259 N   0  0  0  0  0  0  0  0  0  0  0  0
  -26.2162  -12.8060   20.1834 N   0  0  0  0  0  0  0  0  0  0  0  0
  -29.4562  -26.6013   20.8664 N   0  0  0  0  0  0  0  0  0  0  0  0
  -29.9672  -13.4884   20.4021 N   0  0  0  0  0  0  0  0  0  0  0  0
  -25.5130  -15.0577   20.3983 N   0  0  0  0  0  0  0  0  0  0  0  0
  -21.8515  -12.7033   21.6010 N   0  0  0  0  0  0  0  0  0  0  0  0
  -30.1319  -15.5777   21.4836 N   0  0  0  0  0  0  0  0  0  0  0  0
  -26.1626  -27.3216   20.8116 N   0  0  0  0  0  0  0  0  0  0  0  0
  -32.1166  -28.0708   19.3761 N   0  0  0  0  0  0  0  0  0  0  0  0
  -35.2417  -27.8409   21.1786 N   0  3  0  0  0  0  0  0  0  0  0  0
  -22.6902  -14.8160   21.2983 O   0  0  0  0  0  0  0  0  0  0  0  0
  -26.9996  -25.1503   20.7275 O   0  0  0  0  0  0  0  0  0  0  0  0
  -29.4732  -28.8293   20.1795 O   0  0  0  0  0  0  0  0  0  0  0  0
  -33.4047  -26.1954   19.8243 O   0  0  0  0  0  0  0  0  0  0  0  0
  -31.8930  -14.7540   20.2180 O   0  0  0  0  0  0  0  0  0  0  0  0
  -21.4172   -7.1522   21.7787 O   0  0  0  0  0  0  0  0  0  0  0  0
  -30.4303  -20.7986   22.7191 O   0  0  0  0  0  0  0  0  0  1  0  0
  -23.7149   -3.0673   24.6836 F   0  0  0  0  0  0  0  0  0  0  0  0
  -20.3331   -6.3421   24.1893 F   0  0  0  0  0  0  0  0  0  0  0  0
  -32.7640  -19.2725   25.3082 Cl  0  0  0  0  0  0  0  0  0  0  0  0
  -32.6753  -14.5638   22.7523 Cl  0  0  0  0  0  0  0  0  0  0  0  0
  -28.7111  -18.1871   21.8537 Cl  0  0  0  0  0  0  0  0  0  0  0  0
  1  2  1  0  0  0  0
  1  5  2  0  0  0  0
  2  6  2  0  0  0  0
  3  8  2  0  0  0  0
  3 16  1  0  0  0  0
  4  9  1  0  0  0  0
  4 16  2  0  0  0  0
  5 18  1  0  0  0  0
  6 20  1  0  0  0  0
  7 10  2  0  0  0  0
  7 19  1  0  0  0  0
  8 24  1  0  0  0  0
  9 24  2  0  0  0  0
 10 25  1  0  0  0  0
 11 12  2  0  0  0  0
 11 26  1  0  0  0  0
 12 27  1  0  0  0  0
 13 21  1  0  0  0  0
 13 25  2  0  0  0  0
 14 27  2  0  0  0  0
 14 28  1  0  0  0  0
 15 29  2  0  0  0  0
 15 30  1  0  0  0  0
 16 32  1  0  0  0  0
 17 32  1  0  0  0  0
 17 33  2  0  0  0  0
 17 34  1  0  0  0  0
 18 20  2  0  0  0  0
 18 39  1  0  0  0  0
 19 21  2  0  0  0  0
 19 40  1  0  0  0  0
 20 48  1  0  0  0  0
 21 41  1  0  0  0  0
 22 29  1  0  0  0  0
 22 31  2  0  0  0  0
 22 56  1  0  0  0  0
 23 30  2  0  0  0  0
 23 31  1  0  0  0  0
 23 66  1  0  0  0  0
 24 75  1  0  0  0  0
 25 76  1  0  0  0  0
 26 28  2  0  0  0  0
 26 75  1  0  0  0  0
 27 77  1  0  0  0  0
 28 78  1  0  0  0  0
 29 79  1  0  0  0  0
 30 80  1  0  0  0  0
 31 81  1  0  0  0  0
 32 60  2  0  0  0  0
 33 61  1  0  0  0  0
 33 64  1  0  0  0  0
 34 65  1  0  0  0  0
 34 70  2  0  0  0  0
 35 49  1  0  0  0  0
 35 67  1  0  0  0  0
 35 71  2  0  0  0  0
 36 57  1  0  0  0  0
 36 62  1  0  0  0  0
 36 72  2  0  0  0  0
 37 58  1  0  0  0  0
 37 68  1  0  0  0  0
 37 73  2  0  0  0  0
 38 63  1  0  0  0  0
 38 66  1  0  0  0  0
 38 74  2  0  0  0  0
 39 42  1  0  0  0  0
 40 49  1  0  0  0  0
 41 62  1  0  0  0  0
 42 44  1  0  0  0  0
 43 45  1  0  0  0  0
 43 46  1  0  0  0  0
 44 48  1  0  0  0  0
 45 50  1  0  0  0  0
 46 63  1  0  0  0  0
 47 50  1  0  0  0  0
 47 63  1  0  0  0  0
 48 67  1  0  0  0  0
 49 62  1  0  0  0  0
 50 61  1  0  0  0  0
 51 58  1  0  0  0  0
 52 59  1  0  0  0  0
 53 59  1  0  0  0  0
 54 59  1  0  0  0  0
 55 69  1  0  0  0  0
 56 76  1  0  0  0  0
 57 59  1  0  0  0  0
 57 68  1  0  0  0  0
 58 69  1  0  0  0  0
 60 61  1  0  0  0  0
M  CHG  1  69   1
M  ISO  4  38 100  56 101  66 100  76 101
M  END
> <Batch ID>
0020

> <Smiles>
CNC(C)C(=O)NC(C(=O)N1Cc2cc([101O:1][101CH2:1]c3c(Cl)cc(Cl)c([100NH:0][100C:0](=O)N4CCCC(n5nc(-c6ccc(Oc7ccc(F)cc7F)cc6)c(C(N)=O)c5N)C4)c3Cl)ccc2CC1C(=O)NC1CCCc2ccccc21)C(C)(C)C

> <Shape>
0.294

> <Color>
0.207

> <Negative vol penalty>
0.000

$$$$

  -OEChem-04052316093D

 87 95  0     1  0  0  0  0  0999 V2000
  -34.4295  -33.2171   20.0945 C   0  0  0  0  0  0  0  0  0  0  0  0
  -33.8914  -32.0401   19.5840 C   0  0  0  0  0  0  0  0  0  0  0  0
  -26.6941  -13.0335   20.2608 C   0  0  0  0  0  0  0  0  0  0  0  0
  -25.2720  -14.9482   20.6465 C   0  0  0  0  0  0  0  0  0  0  0  0
  -34.1268  -33.6135   21.3965 C   0  0  0  0  0  0  0  0  0  0  0  0
  -33.0510  -31.2582   20.3758 C   0  0  0  0  0  0  0  0  0  0  0  0
  -28.2370  -27.9691   18.5016 C   0  0  0  0  0  0  0  0  0  0  0  0
  -25.5666  -12.2278   20.1030 C   0  0  0  0  0  0  0  0  0  0  0  0
  -24.1444  -14.1424   20.4886 C   0  0  0  0  0  0  0  0  0  0  0  0
  -28.0827  -26.6145   18.2100 C   0  0  0  0  0  0  0  0  0  0  0  0
  -23.0618   -9.5957   19.9548 C   0  0  0  0  0  0  0  0  0  0  0  0
  -23.0527   -8.3575   20.5969 C   0  0  0  0  0  0  0  0  0  0  0  0
  -27.2426  -26.2365   20.4395 C   0  0  0  0  0  0  0  0  0  0  0  0
  -31.1042  -22.4068   21.1878 C   0  0  0  0  0  0  0  0  0  0  0  0
  -23.2860   -9.4630   22.7324 C   0  0  0  0  0  0  0  0  0  0  0  0
  -26.5469  -14.3937   20.5326 C   0  0  0  0  0  0  0  0  0  0  0  0
  -28.3958  -15.9374   19.6924 C   0  0  0  0  0  0  0  0  0  0  0  0
  -33.2746  -32.8410   22.2012 C   0  0  0  0  0  0  0  0  0  0  0  0
  -27.9049  -28.4665   19.7699 C   0  0  0  0  0  0  0  0  0  0  0  0
  -32.7377  -31.6439   21.6902 C   0  0  0  0  0  0  0  0  0  0  0  0
  -27.3911  -27.5982   20.7438 C   0  0  0  0  0  0  0  0  0  0  0  0
  -30.2983  -21.9868   22.2458 C   0  0  0  0  0  0  0  0  0  0  0  0
  -28.4091  -21.8370   20.7473 C   0  0  0  0  0  0  0  0  0  0  0  0
  -29.2151  -22.2571   19.6892 C   0  0  0  0  0  0  0  0  0  0  0  0
  -24.2917  -12.7822   20.2169 C   0  0  0  0  0  0  0  0  0  0  0  0
  -27.5882  -25.7474   19.1800 C   0  0  0  0  0  0  0  0  0  0  0  0
  -23.1831  -10.7677   20.7015 C   0  0  0  0  0  0  0  0  0  0  0  0
  -23.1647   -8.2911   21.9856 C   0  0  0  0  0  0  0  0  0  0  0  0
  -23.2951  -10.7013   22.0903 C   0  0  0  0  0  0  0  0  0  0  0  0
  -30.5627  -22.5420   19.9094 C   0  0  0  0  0  0  0  0  0  0  0  0
  -28.9507  -21.7018   22.0256 C   0  0  0  0  0  0  0  0  0  0  0  0
  -27.7113  -15.2265   20.6963 C   0  0  0  0  0  0  0  0  0  0  0  0
  -29.4211  -16.5664   20.3556 C   0  0  0  0  0  0  0  0  0  0  0  0
  -28.1288  -16.0218   18.2863 C   0  0  0  0  0  0  0  0  0  0  0  0
  -29.5138  -29.8888   22.1135 C   0  0  0  0  0  0  0  0  0  0  0  0
  -26.5633  -30.1962   23.4259 C   0  0  0  0  0  0  0  0  0  0  0  0
  -23.3492  -29.0665   23.6257 C   0  0  0  0  0  0  0  0  0  0  0  0
  -30.8502  -19.6822   24.8907 C   0  0  0  0  0  0  0  0  0  0  0  0
  -33.0142  -33.2858   23.6187 C   0  0  0  0  0  0  0  0  0  0  0  0
  -28.0519  -29.9350   20.0600 C   0  0  0  0  0  0  0  0  0  0  0  0
  -27.0007  -28.0858   22.1143 C   0  0  0  0  0  0  0  0  0  0  0  0
  -31.8161  -32.5939   24.2638 C   0  0  0  0  0  0  0  0  0  0  0  0
  -31.1607  -15.9976   25.0614 C   0  0  0  0  0  0  0  0  0  0  0  0
  -31.8675  -31.0906   24.0102 C   0  0  0  0  0  0  0  0  0  0  0  0
  -30.2858  -15.5353   23.8975 C   0  0  0  0  0  0  0  0  0  0  0  0
  -30.6896  -17.3328   25.6297 C   0  0  0  0  0  0  0  0  0  0  0  0
  -29.7014  -17.9515   23.4492 C   0  0  0  0  0  0  0  0  0  0  0  0
  -31.8022  -30.7816   22.5096 C   0  0  1  0  0  0  0  0  0  0  0  0
  -28.1662  -30.2412   21.5502 C   0  0  1  0  0  0  0  0  0  0  0  0
  -30.1772  -16.6317   22.8236 C   0  0  2  0  0  0  0  0  0  0  0  0
  -26.9639  -21.5349   20.4933 C   0  0  0  0  0  0  0  0  0  0  0  0
  -33.6608  -23.8378   25.5607 C   0  0  0  0  0  0  0  0  0  0  0  0
  -21.1808  -29.4951   24.8137 C   0  0  0  0  0  0  0  0  0  0  0  0
  -27.6782  -28.8663   25.9356 C   0  0  0  0  0  0  0  0  0  0  0  0
  -25.3232  -28.4639   26.6841 C   0  0  0  0  0  0  0  0  0  0  0  0
  -26.1487  -30.7968   26.3697 C   0  0  0  0  0  0  0  0  0  0  0  0
  -32.1261  -19.8619   22.7885 C   0  0  0  0  0  0  0  0  0  0  0  0
  -21.9426  -29.6566   21.0895 C   0  0  0  0  0  0  0  0  0  0  0  0
  -28.6173  -22.4011   18.3107 C   0  0  0  0  0  0  0  0  0  0  0  0
  -32.4421  -22.9536   25.3456 C   0  0  0  0  0  0  0  0  0  0  0  0
  -32.1072  -22.8173   23.8572 C   0  0  0  0  0  0  0  0  0  0  0  0
  -28.3382  -23.8559   17.9489 C   0  0  0  0  0  0  0  0  0  1  0  0
  -30.9217  -21.8566   23.5987 C   0  0  2  0  0  0  0  0  0  0  0  0
  -25.7072  -29.3542   24.3408 C   0  0  1  0  0  0  0  0  0  0  0  0
  -22.0198  -29.7981   23.5820 C   0  0  2  0  0  0  0  0  0  0  0  0
  -26.2234  -29.3605   25.8074 C   0  0  0  0  0  0  0  0  0  0  0  0
  -28.2558  -15.3881   21.9052 N   0  0  0  0  0  0  0  0  0  0  0  0
  -29.2934  -16.2077   21.6652 N   0  0  0  0  0  0  0  0  0  0  0  0
  -27.1689  -29.5290   22.3516 N   0  0  0  0  0  0  0  0  0  0  0  0
  -30.5535  -18.3446   24.5814 N   0  0  0  0  0  0  0  0  0  0  0  0
  -30.4103  -17.3858   19.9403 N   0  0  0  0  0  0  0  0  0  0  0  0
  -27.0356  -15.3128   17.7701 N   0  0  0  0  0  0  0  0  0  0  0  0
  -30.4438  -30.9071   22.0265 N   0  0  0  0  0  0  0  0  0  0  0  0
  -24.3414  -29.8429   24.1860 N   0  0  0  0  0  0  0  0  0  0  0  0
  -31.3503  -20.4829   23.8527 N   0  0  0  0  0  0  0  0  0  0  0  0
  -21.2454  -29.3936   22.3747 N   0  3  0  0  0  0  0  0  0  0  0  0
  -28.8484  -16.6925   17.5079 O   0  0  0  0  0  0  0  0  0  0  0  0
  -29.6960  -28.7758   22.5929 O   0  0  0  0  0  0  0  0  0  0  0  0
  -26.6844  -31.4028   23.6518 O   0  0  0  0  0  0  0  0  0  0  0  0
  -23.4923  -27.9194   23.2081 O   0  0  0  0  0  0  0  0  0  0  0  0
  -30.6869  -20.1323   26.0320 O   0  0  0  0  0  0  0  0  0  0  0  0
  -23.1912  -11.9963   20.0627 O   0  0  0  0  0  0  0  0  0  0  0  0
  -27.4373  -24.4246   18.8982 O   0  0  0  0  0  0  0  0  0  1  0  0
  -23.1544   -7.1020   22.6022 F   0  0  0  0  0  0  0  0  0  0  0  0
  -23.4107  -11.8238   22.8131 F   0  0  0  0  0  0  0  0  0  0  0  0
  -31.5938  -23.0667   18.6276 Cl  0  0  0  0  0  0  0  0  0  0  0  0
  -27.9533  -21.1794   23.3425 Cl  0  0  0  0  0  0  0  0  0  0  0  0
  1  2  1  0  0  0  0
  1  5  2  0  0  0  0
  2  6  2  0  0  0  0
  3  8  2  0  0  0  0
  3 16  1  0  0  0  0
  4  9  1  0  0  0  0
  4 16  2  0  0  0  0
  5 18  1  0  0  0  0
  6 20  1  0  0  0  0
  7 10  2  0  0  0  0
  7 19  1  0  0  0  0
  8 25  1  0  0  0  0
  9 25  2  0  0  0  0
 10 26  1  0  0  0  0
 11 12  2  0  0  0  0
 11 27  1  0  0  0  0
 12 28  1  0  0  0  0
 13 21  1  0  0  0  0
 13 26  2  0  0  0  0
 14 22  1  0  0  0  0
 14 30  2  0  0  0  0
 15 28  2  0  0  0  0
 15 29  1  0  0  0  0
 16 32  1  0  0  0  0
 17 32  1  0  0  0  0
 17 33  2  0  0  0  0
 17 34  1  0  0  0  0
 18 20  2  0  0  0  0
 18 39  1  0  0  0  0
 19 21  2  0  0  0  0
 19 40  1  0  0  0  0
 20 48  1  0  0  0  0
 21 41  1  0  0  0  0
 22 31  2  0  0  0  0
 22 63  1  0  0  0  0
 23 24  2  0  0  0  0
 23 31  1  0  0  0  0
 23 51  1  0  0  0  0
 24 30  1  0  0  0  0
 24 59  1  0  0  0  0
 25 82  1  0  0  0  0
 26 83  1  0  0  0  0
 27 29  2  0  0  0  0
 27 82  1  0  0  0  0
 28 84  1  0  0  0  0
 29 85  1  0  0  0  0
 30 86  1  0  0  0  0
 31 87  1  0  0  0  0
 32 67  2  0  0  0  0
 33 68  1  0  0  0  0
 33 71  1  0  0  0  0
 34 72  1  0  0  0  0
 34 77  2  0  0  0  0
 35 49  1  0  0  0  0
 35 73  1  0  0  0  0
 35 78  2  0  0  0  0
 36 64  1  0  0  0  0
 36 69  1  0  0  0  0
 36 79  2  0  0  0  0
 37 65  1  0  0  0  0
 37 74  1  0  0  0  0
 37 80  2  0  0  0  0
 38 70  1  0  0  0  0
 38 75  1  0  0  0  0
 38 81  2  0  0  0  0
 39 42  1  0  0  0  0
 40 49  1  0  0  0  0
 41 69  1  0  0  0  0
 42 44  1  0  0  0  0
 43 45  1  0  0  0  0
 43 46  1  0  0  0  0
 44 48  1  0  0  0  0
 45 50  1  0  0  0  0
 46 70  1  0  0  0  0
 47 50  1  0  0  0  0
 47 70  1  0  0  0  0
 48 73  1  0  0  0  0
 49 69  1  0  0  0  0
 50 68  1  0  0  0  0
 52 60  1  0  0  0  0
 53 65  1  0  0  0  0
 54 66  1  0  0  0  0
 55 66  1  0  0  0  0
 56 66  1  0  0  0  0
 57 75  1  0  0  0  0
 58 76  1  0  0  0  0
 59 62  1  0  0  0  0
 60 61  1  0  0  0  0
 61 63  1  0  0  0  0
 62 83  1  0  0  0  0
 63 75  1  0  0  0  0
 64 66  1  0  0  0  0
 64 74  1  0  0  0  0
 65 76  1  0  0  0  0
 67 68  1  0  0  0  0
M  CHG  1  76   1
M  ISO  4  38 100  62 101  75 100  83 101
M  END
> <Batch ID>
0020

> <Smiles>
CCCC(c1cc(Cl)c(C[101CH2:1][101O:1]c2ccc3c(c2)CN(C(=O)C(NC(=O)C(C)NC)C(C)(C)C)C(C(=O)NC2CCCc4ccccc42)C3)c(C)c1Cl)[100N:0](C)[100C:0](=O)N1CCCC(n2nc(-c3ccc(Oc4ccc(F)cc4F)cc3)c(C(N)=O)c2N)C1

> <Shape>
0.230

> <Color>
0.072

> <Negative vol penalty>
0.000

$$$$

  -OEChem-04052316093D

 84 92  0     1  0  0  0  0  0999 V2000
  -24.9591  -37.1766   18.8554 C   0  0  0  0  0  0  0  0  0  0  0  0
  -25.6925  -36.0125   18.6497 C   0  0  0  0  0  0  0  0  0  0  0  0
  -30.0816  -12.9469   17.9930 C   0  0  0  0  0  0  0  0  0  0  0  0
  -30.7222  -12.9834   20.3222 C   0  0  0  0  0  0  0  0  0  0  0  0
  -24.2649  -37.3598   20.0505 C   0  0  0  0  0  0  0  0  0  0  0  0
  -25.7330  -35.0312   19.6396 C   0  0  0  0  0  0  0  0  0  0  0  0
  -25.9928  -28.9696   18.8062 C   0  0  0  0  0  0  0  0  0  0  0  0
  -31.1674  -12.1193   17.7073 C   0  0  0  0  0  0  0  0  0  0  0  0
  -31.8080  -12.1558   20.0366 C   0  0  0  0  0  0  0  0  0  0  0  0
  -27.0522  -28.0637   18.8326 C   0  0  0  0  0  0  0  0  0  0  0  0
  -31.9498   -8.8436   18.0083 C   0  0  0  0  0  0  0  0  0  0  0  0
  -31.7256   -7.7417   17.1829 C   0  0  0  0  0  0  0  0  0  0  0  0
  -26.5414  -27.5426   21.1319 C   0  0  0  0  0  0  0  0  0  0  0  0
  -33.3381   -8.5985   15.6009 C   0  0  0  0  0  0  0  0  0  0  0  0
  -29.8590  -13.3790   19.3004 C   0  0  0  0  0  0  0  0  0  0  0  0
  -27.4375  -13.8362   19.9601 C   0  0  0  0  0  0  0  0  0  0  0  0
  -24.2890  -36.3760   21.0517 C   0  0  0  0  0  0  0  0  0  0  0  0
  -25.2051  -29.1772   19.9476 C   0  0  0  0  0  0  0  0  0  0  0  0
  -25.0395  -35.2020   20.8498 C   0  0  0  0  0  0  0  0  0  0  0  0
  -25.4709  -28.4498   21.1166 C   0  0  0  0  0  0  0  0  0  0  0  0
  -32.0306  -11.7237   18.7291 C   0  0  0  0  0  0  0  0  0  0  0  0
  -27.3285  -27.3522   19.9965 C   0  0  0  0  0  0  0  0  0  0  0  0
  -32.8681   -9.8230   17.6299 C   0  0  0  0  0  0  0  0  0  0  0  0
  -32.4197   -7.6192   15.9793 C   0  0  0  0  0  0  0  0  0  0  0  0
  -33.5622   -9.7005   16.4262 C   0  0  0  0  0  0  0  0  0  0  0  0
  -28.7378  -14.2344   19.5961 C   0  0  0  0  0  0  0  0  0  0  0  0
  -26.7527  -15.0145   20.1308 C   0  0  0  0  0  0  0  0  0  0  0  0
  -26.8970  -12.5190   20.1290 C   0  0  0  0  0  0  0  0  0  0  0  0
  -24.5893  -31.6667   21.8256 C   0  0  0  0  0  0  0  0  0  0  0  0
  -22.4783  -29.6177   23.1924 C   0  0  0  0  0  0  0  0  0  0  0  0
  -21.5600  -26.3896   23.8107 C   0  0  0  0  0  0  0  0  0  0  0  0
  -28.3531  -20.3862   21.6111 C   0  0  0  0  0  0  0  0  0  0  0  0
  -23.5612  -36.6396   22.3461 C   0  0  0  0  0  0  0  0  0  0  0  0
  -24.0493  -30.1382   19.8947 C   0  0  0  0  0  0  0  0  0  0  0  0
  -24.6426  -28.6212   22.3628 C   0  0  0  0  0  0  0  0  0  0  0  0
  -23.3504  -35.3868   23.1924 C   0  0  0  0  0  0  0  0  0  0  0  0
  -26.6512  -19.5483   18.6323 C   0  0  0  0  0  0  0  0  0  0  0  0
  -24.6403  -34.5770   23.2780 C   0  0  0  0  0  0  0  0  0  0  0  0
  -26.8751  -18.0380   18.5704 C   0  0  0  0  0  0  0  0  0  0  0  0
  -30.5019  -24.4911   20.0373 C   0  0  0  0  0  0  0  0  0  0  0  0
  -28.2653  -23.5319   19.8370 C   0  0  0  0  0  0  0  0  0  0  0  0
  -27.8959  -20.2944   19.1163 C   0  0  0  0  0  0  0  0  0  0  0  0
  -28.6555  -18.2825   20.3401 C   0  0  0  0  0  0  0  0  0  0  0  0
  -25.0876  -34.1036   21.8897 C   0  0  1  0  0  0  0  0  0  0  0  0
  -23.6333  -30.6488   21.2708 C   0  0  1  0  0  0  0  0  0  0  0  0
  -29.2683  -24.4386   19.1193 C   0  0  1  0  0  0  0  0  0  0  0  0
  -30.2558  -23.4535   21.1445 C   0  0  1  0  0  0  0  0  0  0  0  0
  -27.4011  -17.5043   19.9141 C   0  0  2  0  0  0  0  0  0  0  0  0
  -29.1647  -22.5458   20.5707 C   0  0  1  0  0  0  0  0  0  0  0  0
  -32.5759  -23.6343   22.0573 C   0  0  0  0  0  0  0  0  0  0  0  0
  -19.8092  -25.0305   24.9875 C   0  0  0  0  0  0  0  0  0  0  0  0
  -26.5934  -22.3113   23.1049 C   0  0  0  0  0  0  0  0  0  0  0  0
  -28.9552  -22.1606   23.9548 C   0  0  0  0  0  0  0  0  0  0  0  0
  -29.7387  -26.6812   18.0909 C   0  0  0  0  0  0  0  0  0  0  0  0
  -27.4305  -25.7007   17.9510 C   0  0  0  0  0  0  0  0  0  0  0  0
  -23.7957  -30.2455   25.8721 C   0  0  0  0  0  0  0  0  0  0  0  0
  -22.6836  -28.2108   26.8163 C   0  0  0  0  0  0  0  0  0  0  0  0
  -21.3004  -30.0954   25.9460 C   0  0  0  0  0  0  0  0  0  0  0  0
  -20.6841  -25.1182   21.2857 C   0  0  0  0  0  0  0  0  0  0  0  0
  -31.5177  -22.7070   21.5495 C   0  0  0  0  0  0  0  0  0  0  0  0
  -22.5396  -28.6119   24.3165 C   0  0  1  0  0  0  0  0  0  0  0  0
  -20.2255  -25.6786   23.6762 C   0  0  2  0  0  0  0  0  0  0  0  0
  -28.0641  -22.5383   22.7786 C   0  0  0  0  0  0  0  0  0  0  0  0
  -28.6961  -25.8188   18.7990 C   0  0  0  0  0  0  0  0  0  1  0  0
  -22.5968  -29.2889   25.7150 C   0  0  0  0  0  0  0  0  0  0  0  0
  -28.8734  -15.5619   19.5385 N   0  0  0  0  0  0  0  0  0  0  0  0
  -27.6494  -16.0081   19.8685 N   0  0  0  0  0  0  0  0  0  0  0  0
  -23.5274  -29.5772   22.2631 N   0  0  0  0  0  0  0  0  0  0  0  0
  -28.3922  -19.7231   20.3757 N   0  0  0  0  0  0  0  0  0  0  0  0
  -25.4770  -15.2872   20.4781 N   0  0  0  0  0  0  0  0  0  0  0  0
  -27.7384  -11.4189   19.9141 N   0  0  0  0  0  0  0  0  0  0  0  0
  -24.2976  -32.9681   21.4641 N   0  0  0  0  0  0  0  0  0  0  0  0
  -21.3993  -27.7213   24.1299 N   0  0  0  0  0  0  0  0  0  0  0  0
  -28.4464  -21.7859   21.5920 N   0  0  0  0  0  0  0  0  0  0  0  0
  -20.3066  -24.6178   22.6326 N   0  3  0  0  0  0  0  0  0  0  0  0
  -25.6989  -12.3230   20.4446 O   0  0  0  0  0  0  0  0  0  0  0  0
  -25.5216  -31.2987   22.5306 O   0  0  0  0  0  0  0  0  0  0  0  0
  -21.5308  -30.4055   23.1368 O   0  0  0  0  0  0  0  0  0  0  0  0
  -22.6373  -25.8196   23.6523 O   0  0  0  0  0  0  0  0  0  0  0  0
  -28.2486  -19.7622   22.6750 O   0  0  0  0  0  0  0  0  0  0  0  0
  -33.0902  -10.9160   18.4507 O   0  0  0  0  0  0  0  0  0  0  0  0
  -28.3624  -26.4678   20.0252 O   0  0  0  0  0  0  0  0  0  1  0  0
  -32.2054   -6.5602   15.1876 F   0  0  0  0  0  0  0  0  0  0  0  0
  -34.4466  -10.6376   16.0580 F   0  0  0  0  0  0  0  0  0  0  0  0
  1  2  1  0  0  0  0
  1  5  2  0  0  0  0
  2  6  2  0  0  0  0
  3  8  2  0  0  0  0
  3 15  1  0  0  0  0
  4  9  1  0  0  0  0
  4 15  2  0  0  0  0
  5 17  1  0  0  0  0
  6 19  1  0  0  0  0
  7 10  2  0  0  0  0
  7 18  1  0  0  0  0
  8 21  1  0  0  0  0
  9 21  2  0  0  0  0
 10 22  1  0  0  0  0
 11 12  2  0  0  0  0
 11 23  1  0  0  0  0
 12 24  1  0  0  0  0
 13 20  1  0  0  0  0
 13 22  2  0  0  0  0
 14 24  2  0  0  0  0
 14 25  1  0  0  0  0
 15 26  1  0  0  0  0
 16 26  1  0  0  0  0
 16 27  2  0  0  0  0
 16 28  1  0  0  0  0
 17 19  2  0  0  0  0
 17 33  1  0  0  0  0
 18 20  2  0  0  0  0
 18 34  1  0  0  0  0
 19 44  1  0  0  0  0
 20 35  1  0  0  0  0
 21 81  1  0  0  0  0
 22 82  1  0  0  0  0
 23 25  2  0  0  0  0
 23 81  1  0  0  0  0
 24 83  1  0  0  0  0
 25 84  1  0  0  0  0
 26 66  2  0  0  0  0
 27 67  1  0  0  0  0
 27 70  1  0  0  0  0
 28 71  1  0  0  0  0
 28 76  2  0  0  0  0
 29 45  1  0  0  0  0
 29 72  1  0  0  0  0
 29 77  2  0  0  0  0
 30 61  1  0  0  0  0
 30 68  1  0  0  0  0
 30 78  2  0  0  0  0
 31 62  1  0  0  0  0
 31 73  1  0  0  0  0
 31 79  2  0  0  0  0
 32 69  1  0  0  0  0
 32 74  1  0  0  0  0
 32 80  2  0  0  0  0
 33 36  1  0  0  0  0
 34 45  1  0  0  0  0
 35 68  1  0  0  0  0
 36 38  1  0  0  0  0
 37 39  1  0  0  0  0
 37 42  1  0  0  0  0
 38 44  1  0  0  0  0
 39 48  1  0  0  0  0
 40 46  1  0  0  0  0
 40 47  1  0  0  0  0
 41 46  1  0  0  0  0
 41 49  1  0  0  0  0
 42 69  1  0  0  0  0
 43 48  1  0  0  0  0
 43 69  1  0  0  0  0
 44 72  1  0  0  0  0
 45 68  1  0  0  0  0
 46 64  1  0  0  0  0
 47 49  1  0  0  0  0
 47 60  1  0  0  0  0
 48 67  1  0  0  0  0
 49 74  1  0  0  0  0
 50 60  1  0  0  0  0
 51 62  1  0  0  0  0
 52 63  1  0  0  0  0
 53 63  1  0  0  0  0
 54 64  1  0  0  0  0
 55 64  1  0  0  0  0
 56 65  1  0  0  0  0
 57 65  1  0  0  0  0
 58 65  1  0  0  0  0
 59 75  1  0  0  0  0
 61 65  1  0  0  0  0
 61 73  1  0  0  0  0
 62 75  1  0  0  0  0
 63 74  1  0  0  0  0
 64 82  1  0  0  0  0
 66 67  1  0  0  0  0
M  CHG  1  75   1
M  ISO  4  32 100  64 101  74 100  82 101
M  END
> <Batch ID>
0020

> <Smiles>
CCC1CC([101C:1](C)(C)[101O:1]c2ccc3c(c2)CN(C(=O)C(NC(=O)C(C)NC)C(C)(C)C)C(C(=O)NC2CCCc4ccccc42)C3)CC1[100N:0](C(C)C)[100C:0](=O)N1CCCC(n2nc(-c3ccc(Oc4ccc(F)cc4F)cc3)c(C(N)=O)c2N)C1

> <Shape>
0.250

> <Color>
0.099

> <Negative vol penalty>
0.000

$$$$

  -OEChem-04052316093D

 82 90  0     1  0  0  0  0  0999 V2000
  -17.2216  -25.6521   23.5399 C   0  0  0  0  0  0  0  0  0  0  0  0
  -18.3215  -25.5539   22.6938 C   0  0  0  0  0  0  0  0  0  0  0  0
  -26.4880  -11.0946   21.1211 C   0  0  0  0  0  0  0  0  0  0  0  0
  -25.5029  -12.6633   19.5700 C   0  0  0  0  0  0  0  0  0  0  0  0
  -16.7957  -26.9028   23.9853 C   0  0  0  0  0  0  0  0  0  0  0  0
  -18.9956  -26.7064   22.2917 C   0  0  0  0  0  0  0  0  0  0  0  0
  -24.0278  -26.2079   22.5618 C   0  0  0  0  0  0  0  0  0  0  0  0
  -25.2188  -10.6096   21.4367 C   0  0  0  0  0  0  0  0  0  0  0  0
  -24.2337  -12.1783   19.8856 C   0  0  0  0  0  0  0  0  0  0  0  0
  -24.6527  -25.4946   21.5398 C   0  0  0  0  0  0  0  0  0  0  0  0
  -22.3217   -9.5070   19.0925 C   0  0  0  0  0  0  0  0  0  0  0  0
  -21.4441   -9.2576   18.0374 C   0  0  0  0  0  0  0  0  0  0  0  0
  -25.2857  -27.5703   20.4862 C   0  0  0  0  0  0  0  0  0  0  0  0
  -29.6327  -21.1305   20.5452 C   0  0  0  0  0  0  0  0  0  0  0  0
  -19.8840  -10.8567   18.9571 C   0  0  0  0  0  0  0  0  0  0  0  0
  -26.6300  -12.1215   20.1878 C   0  0  0  0  0  0  0  0  0  0  0  0
  -28.8002  -12.1605   18.8475 C   0  0  0  0  0  0  0  0  0  0  0  0
  -17.4708  -28.0705   23.5963 C   0  0  0  0  0  0  0  0  0  0  0  0
  -24.0177  -27.6101   22.5479 C   0  0  0  0  0  0  0  0  0  0  0  0
  -18.5775  -27.9740   22.7313 C   0  0  0  0  0  0  0  0  0  0  0  0
  -24.6621  -28.2991   21.5105 C   0  0  0  0  0  0  0  0  0  0  0  0
  -29.0671  -22.3770   20.2768 C   0  0  0  0  0  0  0  0  0  0  0  0
  -27.9124  -21.4427   18.3713 C   0  0  0  0  0  0  0  0  0  0  0  0
  -28.2070  -22.5331   19.1899 C   0  0  0  0  0  0  0  0  0  0  0  0
  -28.4781  -20.1963   18.6397 C   0  0  0  0  0  0  0  0  0  0  0  0
  -29.3382  -20.0402   19.7266 C   0  0  0  0  0  0  0  0  0  0  0  0
  -24.0917  -11.1514   20.8189 C   0  0  0  0  0  0  0  0  0  0  0  0
  -25.2793  -26.1758   20.5003 C   0  0  0  0  0  0  0  0  0  0  0  0
  -21.9804  -10.4312   20.0800 C   0  0  0  0  0  0  0  0  0  0  0  0
  -20.2253   -9.9325   17.9697 C   0  0  0  0  0  0  0  0  0  0  0  0
  -20.7616  -11.1060   20.0123 C   0  0  0  0  0  0  0  0  0  0  0  0
  -27.9408  -12.6234   19.8618 C   0  0  0  0  0  0  0  0  0  0  0  0
  -29.9124  -12.9600   18.9485 C   0  0  0  0  0  0  0  0  0  0  0  0
  -28.6102  -11.1024   17.8988 C   0  0  0  0  0  0  0  0  0  0  0  0
  -21.7526  -29.8357   22.4060 C   0  0  0  0  0  0  0  0  0  0  0  0
  -24.2513  -31.8533   22.8624 C   0  0  0  0  0  0  0  0  0  0  0  0
  -27.6067  -32.4161   22.5959 C   0  0  0  0  0  0  0  0  0  0  0  0
  -30.7943  -18.4785   21.0635 C   0  0  0  0  0  0  0  0  0  0  0  0
  -16.9446  -29.4037   24.0655 C   0  0  0  0  0  0  0  0  0  0  0  0
  -23.3623  -28.3650   23.6717 C   0  0  0  0  0  0  0  0  0  0  0  0
  -24.6971  -29.8040   21.4599 C   0  0  0  0  0  0  0  0  0  0  0  0
  -17.9417  -30.5467   23.8938 C   0  0  0  0  0  0  0  0  0  0  0  0
  -32.4211  -15.5001   22.1405 C   0  0  0  0  0  0  0  0  0  0  0  0
  -18.5702  -30.5027   22.5046 C   0  0  0  0  0  0  0  0  0  0  0  0
  -31.5383  -14.3822   21.5809 C   0  0  0  0  0  0  0  0  0  0  0  0
  -31.5939  -16.6986   22.6022 C   0  0  0  0  0  0  0  0  0  0  0  0
  -29.7798  -16.1151   21.0409 C   0  0  0  0  0  0  0  0  0  0  0  0
  -19.3499  -29.1993   22.2929 C   0  0  1  0  0  0  0  0  0  0  0  0
  -22.9692  -29.7878   23.2865 C   0  0  1  0  0  0  0  0  0  0  0  0
  -30.5727  -14.9128   20.5031 C   0  0  2  0  0  0  0  0  0  0  0  0
  -29.4017  -23.5293   21.1666 C   0  0  0  0  0  0  0  0  0  0  0  0
  -26.9897  -21.6110   17.2053 C   0  0  0  0  0  0  0  0  0  0  0  0
  -28.1618  -19.0281   17.7587 C   0  0  0  0  0  0  0  0  0  0  0  0
  -29.3488  -34.1731   23.0147 C   0  0  0  0  0  0  0  0  0  0  0  0
  -23.3306  -33.3563   20.3718 C   0  0  0  0  0  0  0  0  0  0  0  0
  -25.5747  -34.4639   20.2957 C   0  0  0  0  0  0  0  0  0  0  0  0
  -24.0758  -34.8201   22.2577 C   0  0  0  0  0  0  0  0  0  0  0  0
  -29.0464  -30.6939   24.5247 C   0  0  0  0  0  0  0  0  0  0  0  0
  -27.5977  -23.8836   18.9017 C   0  0  0  0  0  0  0  0  0  0  0  0
  -26.4369  -24.2074   19.8360 C   0  0  0  0  0  0  0  0  0  1  0  0
  -25.2151  -32.5830   21.9582 C   0  0  1  0  0  0  0  0  0  0  0  0
  -28.6172  -32.9681   23.5852 C   0  0  2  0  0  0  0  0  0  0  0  0
  -24.5469  -33.7775   21.2205 C   0  0  0  0  0  0  0  0  0  0  0  0
  -28.4623  -13.6382   20.5562 N   0  0  0  0  0  0  0  0  0  0  0  0
  -29.6614  -13.8195   19.9773 N   0  0  0  0  0  0  0  0  0  0  0  0
  -24.0368  -30.4971   22.5784 N   0  0  0  0  0  0  0  0  0  0  0  0
  -30.7060  -17.1492   21.5282 N   0  0  0  0  0  0  0  0  0  0  0  0
  -31.0708  -13.0046   18.2568 N   0  0  0  0  0  0  0  0  0  0  0  0
  -27.4088  -10.3814   17.9338 N   0  0  0  0  0  0  0  0  0  0  0  0
  -29.9232  -18.7829   20.0180 N   0  0  0  0  0  0  0  0  0  0  0  0
  -20.6288  -29.2601   22.9675 N   0  0  0  0  0  0  0  0  0  0  0  0
  -26.3532  -32.9563   22.7911 N   0  0  0  0  0  0  0  0  0  0  0  0
  -29.6254  -31.9266   23.9312 N   0  3  0  0  0  0  0  0  0  0  0  0
  -29.4867  -10.7943   17.0560 O   0  0  0  0  0  0  0  0  0  0  0  0
  -21.8275  -30.3575   21.2998 O   0  0  0  0  0  0  0  0  0  0  0  0
  -23.7141  -32.4623   23.7909 O   0  0  0  0  0  0  0  0  0  0  0  0
  -27.9008  -31.5912   21.7336 O   0  0  0  0  0  0  0  0  0  0  0  0
  -31.6036  -19.2796   21.5384 O   0  0  0  0  0  0  0  0  0  0  0  0
  -22.8531  -10.6782   21.1264 O   0  0  0  0  0  0  0  0  0  0  0  0
  -25.8894  -25.4820   19.5012 O   0  0  0  0  0  0  0  0  0  1  0  0
  -19.3833   -9.6940   16.9556 F   0  0  0  0  0  0  0  0  0  0  0  0
  -20.4287  -11.9959   20.9574 F   0  0  0  0  0  0  0  0  0  0  0  0
  1  2  1  0  0  0  0
  1  5  2  0  0  0  0
  2  6  2  0  0  0  0
  3  8  2  0  0  0  0
  3 16  1  0  0  0  0
  4  9  1  0  0  0  0
  4 16  2  0  0  0  0
  5 18  1  0  0  0  0
  6 20  1  0  0  0  0
  7 10  2  0  0  0  0
  7 19  1  0  0  0  0
  8 27  1  0  0  0  0
  9 27  2  0  0  0  0
 10 28  1  0  0  0  0
 11 12  2  0  0  0  0
 11 29  1  0  0  0  0
 12 30  1  0  0  0  0
 13 21  1  0  0  0  0
 13 28  2  0  0  0  0
 14 22  2  0  0  0  0
 14 26  1  0  0  0  0
 15 30  2  0  0  0  0
 15 31  1  0  0  0  0
 16 32  1  0  0  0  0
 17 32  1  0  0  0  0
 17 33  2  0  0  0  0
 17 34  1  0  0  0  0
 18 20  2  0  0  0  0
 18 39  1  0  0  0  0
 19 21  2  0  0  0  0
 19 40  1  0  0  0  0
 20 48  1  0  0  0  0
 21 41  1  0  0  0  0
 22 24  1  0  0  0  0
 22 51  1  0  0  0  0
 23 24  2  0  0  0  0
 23 25  1  0  0  0  0
 23 52  1  0  0  0  0
 24 59  1  0  0  0  0
 25 26  2  0  0  0  0
 25 53  1  0  0  0  0
 26 70  1  0  0  0  0
 27 79  1  0  0  0  0
 28 80  1  0  0  0  0
 29 31  2  0  0  0  0
 29 79  1  0  0  0  0
 30 81  1  0  0  0  0
 31 82  1  0  0  0  0
 32 64  2  0  0  0  0
 33 65  1  0  0  0  0
 33 68  1  0  0  0  0
 34 69  1  0  0  0  0
 34 74  2  0  0  0  0
 35 49  1  0  0  0  0
 35 71  1  0  0  0  0
 35 75  2  0  0  0  0
 36 61  1  0  0  0  0
 36 66  1  0  0  0  0
 36 76  2  0  0  0  0
 37 62  1  0  0  0  0
 37 72  1  0  0  0  0
 37 77  2  0  0  0  0
 38 67  1  0  0  0  0
 38 70  1  0  0  0  0
 38 78  2  0  0  0  0
 39 42  1  0  0  0  0
 40 49  1  0  0  0  0
 41 66  1  0  0  0  0
 42 44  1  0  0  0  0
 43 45  1  0  0  0  0
 43 46  1  0  0  0  0
 44 48  1  0  0  0  0
 45 50  1  0  0  0  0
 46 67  1  0  0  0  0
 47 50  1  0  0  0  0
 47 67  1  0  0  0  0
 48 71  1  0  0  0  0
 49 66  1  0  0  0  0
 50 65  1  0  0  0  0
 54 62  1  0  0  0  0
 55 63  1  0  0  0  0
 56 63  1  0  0  0  0
 57 63  1  0  0  0  0
 58 73  1  0  0  0  0
 59 60  1  0  0  0  0
 60 80  1  0  0  0  0
 61 63  1  0  0  0  0
 61 72  1  0  0  0  0
 62 73  1  0  0  0  0
 64 65  1  0  0  0  0
M  CHG  1  73   1
M  ISO  4  38 100  60 101  70 100  80 101
M  END
> <Batch ID>
0020

> <Smiles>
CNC(C)C(=O)NC(C(=O)N1Cc2cc([101O:1][101CH2:1]Cc3c(C)cc([100NH:0][100C:0](=O)N4CCCC(n5nc(-c6ccc(Oc7ccc(F)cc7F)cc6)c(C(N)=O)c5N)C4)c(C)c3C)ccc2CC1C(=O)NC1CCCc2ccccc21)C(C)(C)C

> <Shape>
0.312

> <Color>
0.068

> <Negative vol penalty>
0.000

$$$$

  -OEChem-04052316093D

 94102  0     1  0  0  0  0  0999 V2000
  -27.4906  -36.2026   19.5621 C   0  0  0  0  0  0  0  0  0  0  0  0
  -27.8897  -34.8925   19.8063 C   0  0  0  0  0  0  0  0  0  0  0  0
  -23.4925   -9.9602   22.2775 C   0  0  0  0  0  0  0  0  0  0  0  0
  -21.5749  -10.4890   20.9063 C   0  0  0  0  0  0  0  0  0  0  0  0
  -26.3764  -36.7244   20.2180 C   0  0  0  0  0  0  0  0  0  0  0  0
  -27.1755  -34.1037   20.7075 C   0  0  0  0  0  0  0  0  0  0  0  0
  -26.3279  -29.4302   18.9510 C   0  0  0  0  0  0  0  0  0  0  0  0
  -23.2153   -8.6001   22.1408 C   0  0  0  0  0  0  0  0  0  0  0  0
  -21.2976   -9.1288   20.7695 C   0  0  0  0  0  0  0  0  0  0  0  0
  -27.3873  -28.5259   19.0102 C   0  0  0  0  0  0  0  0  0  0  0  0
  -21.0773   -6.3479   23.4755 C   0  0  0  0  0  0  0  0  0  0  0  0
  -21.1388   -5.5563   24.6222 C   0  0  0  0  0  0  0  0  0  0  0  0
  -26.4359  -27.5509   21.0011 C   0  0  0  0  0  0  0  0  0  0  0  0
  -22.8635   -4.2086   23.5994 C   0  0  0  0  0  0  0  0  0  0  0  0
  -22.6723  -10.9047   21.6602 C   0  0  0  0  0  0  0  0  0  0  0  0
  -23.7717  -13.1000   20.9677 C   0  0  0  0  0  0  0  0  0  0  0  0
  -25.6424  -35.9385   21.1204 C   0  0  0  0  0  0  0  0  0  0  0  0
  -25.3185  -29.4088   19.9242 C   0  0  0  0  0  0  0  0  0  0  0  0
  -26.0512  -34.6159   21.3771 C   0  0  0  0  0  0  0  0  0  0  0  0
  -25.3634  -28.4544   20.9505 C   0  0  0  0  0  0  0  0  0  0  0  0
  -22.1178   -8.1844   21.3868 C   0  0  0  0  0  0  0  0  0  0  0  0
  -27.4430  -27.5879   20.0370 C   0  0  0  0  0  0  0  0  0  0  0  0
  -21.9088   -6.0699   22.3906 C   0  0  0  0  0  0  0  0  0  0  0  0
  -22.0320   -4.4867   24.6842 C   0  0  0  0  0  0  0  0  0  0  0  0
  -22.8020   -5.0002   22.4526 C   0  0  0  0  0  0  0  0  0  0  0  0
  -22.9579  -12.3099   21.8015 C   0  0  0  0  0  0  0  0  0  0  0  0
  -23.7183  -14.3544   21.5246 C   0  0  0  0  0  0  0  0  0  0  0  0
  -28.2318  -18.6859   20.6570 C   0  0  0  0  0  0  0  0  0  0  0  0
  -24.5098  -12.7329   19.7947 C   0  0  0  0  0  0  0  0  0  0  0  0
  -28.6281  -18.3582   21.8923 C   0  0  0  0  0  0  0  0  0  0  0  0
  -24.2568  -31.4679   22.1005 C   0  0  0  0  0  0  0  0  0  0  0  0
  -21.9765  -29.2071   22.5601 C   0  0  0  0  0  0  0  0  0  0  0  0
  -21.0520  -25.9316   22.3088 C   0  0  0  0  0  0  0  0  0  0  0  0
  -20.8292  -18.5411   23.8203 C   0  0  0  0  0  0  0  0  0  0  0  0
  -24.4731  -36.5614   21.8411 C   0  0  0  0  0  0  0  0  0  0  0  0
  -24.1684  -30.3737   19.8310 C   0  0  0  0  0  0  0  0  0  0  0  0
  -24.2940  -28.3765   22.0083 C   0  0  0  0  0  0  0  0  0  0  0  0
  -27.9048  -17.7201   19.5636 C   0  0  0  0  0  0  0  0  0  0  0  0
  -23.5487  -35.5400   22.4987 C   0  0  0  0  0  0  0  0  0  0  0  0
  -28.3643  -18.5161   18.3549 C   0  0  0  0  0  0  0  0  0  0  0  0
  -21.8771  -15.9060   25.9731 C   0  0  0  0  0  0  0  0  0  0  0  0
  -24.3606  -34.5025   23.2677 C   0  0  0  0  0  0  0  0  0  0  0  0
  -22.3126  -14.7992   25.0113 C   0  0  0  0  0  0  0  0  0  0  0  0
  -20.6695  -16.6739   25.4402 C   0  0  0  0  0  0  0  0  0  0  0  0
  -21.2680  -16.1102   23.1169 C   0  0  0  0  0  0  0  0  0  0  0  0
  -28.0169  -19.9534   18.7088 C   0  0  0  0  0  0  0  0  0  0  0  0
  -25.2876  -33.7210   22.3290 C   0  0  1  0  0  0  0  0  0  0  0  0
  -23.4656  -30.5964   21.1666 C   0  0  1  0  0  0  0  0  0  0  0  0
  -22.5172  -15.3442   23.5849 C   0  0  2  0  0  0  0  0  0  0  0  0
  -28.9366  -19.3973   22.9315 C   0  0  0  0  0  0  0  0  0  0  0  0
  -28.7918  -16.9289   22.3229 C   0  0  0  0  0  0  0  0  0  0  0  0
  -19.1413  -24.3808   22.8004 C   0  0  0  0  0  0  0  0  0  0  0  0
  -22.7012  -29.2574   25.5236 C   0  0  0  0  0  0  0  0  0  0  0  0
  -21.4839  -27.0855   25.7867 C   0  0  0  0  0  0  0  0  0  0  0  0
  -20.2489  -29.1244   25.0515 C   0  0  0  0  0  0  0  0  0  0  0  0
  -20.7477  -25.2145   19.4536 C   0  0  0  0  0  0  0  0  0  0  0  0
  -23.4707  -20.3088   21.4107 C   0  0  0  0  0  0  0  0  0  0  0  0
  -24.8162  -21.0261   21.5427 C   0  0  0  0  0  0  0  0  0  0  0  0
  -22.3907  -20.9945   22.2478 C   0  0  0  0  0  0  0  0  0  0  0  0
  -25.9055  -20.3139   20.7365 C   0  0  0  0  0  0  0  0  0  0  0  0
  -21.0419  -20.3040   22.0864 C   0  0  0  0  0  0  0  0  0  0  0  0
  -28.2051  -25.4289   20.6803 C   0  0  0  0  0  0  0  0  0  1  0  0
  -21.8390  -27.9917   23.4450 C   0  0  1  0  0  0  0  0  0  0  0  0
  -19.7954  -25.2788   21.7618 C   0  0  2  0  0  0  0  0  0  0  0  0
  -27.2987  -20.9314   20.9151 C   0  0  2  0  0  0  0  0  0  0  0  0
  -27.4933  -22.3784   20.4357 C   0  0  1  0  0  0  0  0  0  0  0  0
  -21.5896  -28.3672   24.9330 C   0  0  0  0  0  0  0  0  0  0  0  0
  -29.0701  -24.3714   20.0192 C   0  0  0  0  0  0  0  0  0  0  0  0
  -28.9032  -22.9585   20.5588 C   0  0  0  0  0  0  0  0  0  0  0  0
  -22.4266  -13.0041   22.8114 N   0  0  0  0  0  0  0  0  0  0  0  0
  -22.9076  -14.2437   22.6158 N   0  0  0  0  0  0  0  0  0  0  0  0
  -23.1934  -29.3456   21.8776 N   0  0  0  0  0  0  0  0  0  0  0  0
  -20.9290  -17.1652   24.0848 N   0  0  0  0  0  0  0  0  0  0  0  0
  -24.2863  -15.5304   21.1825 N   0  0  0  0  0  0  0  0  0  0  0  0
  -24.4546  -11.4017   19.3599 N   0  0  0  0  0  0  0  0  0  0  0  0
  -24.5392  -32.7228   21.5955 N   0  0  0  0  0  0  0  0  0  0  0  0
  -20.7885  -27.1715   22.8515 N   0  0  0  0  0  0  0  0  0  0  0  0
  -21.0973  -18.9230   22.5115 N   0  0  0  0  0  0  0  0  0  0  0  0
  -28.2819  -20.0511   20.2048 N   0  3  1  0  0  0  0  0  0  0  0  0
  -20.1198  -24.4533   20.5642 N   0  3  0  0  0  0  0  0  0  0  0  0
  -25.2111  -13.5573   19.1605 O   0  0  0  0  0  0  0  0  0  0  0  0
  -24.5854  -31.0345   23.1987 O   0  0  0  0  0  0  0  0  0  0  0  0
  -21.0361  -30.0005   22.4720 O   0  0  0  0  0  0  0  0  0  0  0  0
  -22.1561  -25.3937   22.2629 O   0  0  0  0  0  0  0  0  0  0  0  0
  -20.5289  -19.3686   24.6875 O   0  0  0  0  0  0  0  0  0  0  0  0
  -21.8471   -6.8572   21.2530 O   0  0  0  0  0  0  0  0  0  0  0  0
  -28.4826  -26.6991   20.0979 O   0  0  0  0  0  0  0  0  0  1  0  0
  -22.0920   -3.7275   25.7861 F   0  0  0  0  0  0  0  0  0  0  0  0
  -23.6042   -4.7289   21.4140 F   0  0  0  0  0  0  0  0  0  0  0  0
  -27.1041  -22.4382   19.1306 F   0  0  0  0  0  0  0  0  0  0  0  0
  -30.3749  -24.7357   20.1208 F   0  0  0  0  0  0  0  0  0  0  0  0
  -28.7795  -24.3481   18.6886 F   0  0  0  0  0  0  0  0  0  0  0  0
  -29.2602  -22.9798   21.8723 F   0  0  0  0  0  0  0  0  0  0  0  0
  -29.7953  -22.1501   19.9324 F   0  0  0  0  0  0  0  0  0  0  0  0
  1  2  1  0  0  0  0
  1  5  2  0  0  0  0
  2  6  2  0  0  0  0
  3  8  2  0  0  0  0
  3 15  1  0  0  0  0
  4  9  1  0  0  0  0
  4 15  2  0  0  0  0
  5 17  1  0  0  0  0
  6 19  1  0  0  0  0
  7 10  2  0  0  0  0
  7 18  1  0  0  0  0
  8 21  1  0  0  0  0
  9 21  2  0  0  0  0
 10 22  1  0  0  0  0
 11 12  2  0  0  0  0
 11 23  1  0  0  0  0
 12 24  1  0  0  0  0
 13 20  1  0  0  0  0
 13 22  2  0  0  0  0
 14 24  2  0  0  0  0
 14 25  1  0  0  0  0
 15 26  1  0  0  0  0
 16 26  1  0  0  0  0
 16 27  2  0  0  0  0
 16 29  1  0  0  0  0
 17 19  2  0  0  0  0
 17 35  1  0  0  0  0
 18 20  2  0  0  0  0
 18 36  1  0  0  0  0
 19 47  1  0  0  0  0
 20 37  1  0  0  0  0
 21 86  1  0  0  0  0
 22 87  1  0  0  0  0
 23 25  2  0  0  0  0
 23 86  1  0  0  0  0
 24 88  1  0  0  0  0
 25 89  1  0  0  0  0
 26 70  2  0  0  0  0
 27 71  1  0  0  0  0
 27 74  1  0  0  0  0
 28 30  2  0  0  0  0
 28 38  1  0  0  0  0
 28 79  1  0  0  0  0
 29 75  1  0  0  0  0
 29 81  2  0  0  0  0
 30 50  1  0  0  0  0
 30 51  1  0  0  0  0
 31 48  1  0  0  0  0
 31 76  1  0  0  0  0
 31 82  2  0  0  0  0
 32 63  1  0  0  0  0
 32 72  1  0  0  0  0
 32 83  2  0  0  0  0
 33 64  1  0  0  0  0
 33 77  1  0  0  0  0
 33 84  2  0  0  0  0
 34 73  1  0  0  0  0
 34 78  1  0  0  0  0
 34 85  2  0  0  0  0
 35 39  1  0  0  0  0
 36 48  1  0  0  0  0
 37 72  1  0  0  0  0
 38 40  1  0  0  0  0
 39 42  1  0  0  0  0
 40 46  1  0  0  0  0
 41 43  1  0  0  0  0
 41 44  1  0  0  0  0
 42 47  1  0  0  0  0
 43 49  1  0  0  0  0
 44 73  1  0  0  0  0
 45 49  1  0  0  0  0
 45 73  1  0  0  0  0
 46 79  1  0  0  0  0
 47 76  1  0  0  0  0
 48 72  1  0  0  0  0
 49 71  1  0  0  0  0
 52 64  1  0  0  0  0
 53 67  1  0  0  0  0
 54 67  1  0  0  0  0
 55 67  1  0  0  0  0
 56 80  1  0  0  0  0
 57 58  1  0  0  0  0
 57 59  1  0  0  0  0
 58 60  1  0  0  0  0
 59 61  1  0  0  0  0
 60 65  1  0  0  0  0
 61 78  1  0  0  0  0
 62 68  1  0  0  0  0
 62 87  1  0  0  0  0
 63 67  1  0  0  0  0
 63 77  1  0  0  0  0
 64 80  1  0  0  0  0
 65 66  1  0  0  0  0
 65 79  1  0  0  0  0
 66 69  1  0  0  0  0
 66 90  1  0  0  0  0
 68 69  1  0  0  0  0
 68 91  1  0  0  0  0
 68 92  1  0  0  0  0
 69 93  1  0  0  0  0
 69 94  1  0  0  0  0
 70 71  1  0  0  0  0
M  CHG  2  79   1  80   1
M  ISO  4  34 100  62 101  78 100  87 101
M  END
> <Batch ID>
0020

> <Smiles>
CNC(C)C(=O)NC(C(=O)N1Cc2cc([101O:1][101CH2:1]C(F)(F)C(F)(F)C(F)C(CCCCC[100NH:0][100C:0](=O)N3CCCC(n4nc(-c5ccc(Oc6ccc(F)cc6F)cc5)c(C(N)=O)c4N)C3)N3CCCC3=C(C)C)ccc2CC1C(=O)NC1CCCc2ccccc21)C(C)(C)C

> <Shape>
0.301

> <Color>
0.093

> <Negative vol penalty>
0.000

$$$$

  -OEChem-04052316093D

 82 90  0     1  0  0  0  0  0999 V2000
  -15.2286  -22.3658   19.8001 C   0  0  0  0  0  0  0  0  0  0  0  0
  -16.4572  -21.7325   19.6423 C   0  0  0  0  0  0  0  0  0  0  0  0
  -23.0730   -9.8698   19.9426 C   0  0  0  0  0  0  0  0  0  0  0  0
  -23.8369   -9.8767   22.2347 C   0  0  0  0  0  0  0  0  0  0  0  0
  -15.1351  -23.5195   20.5774 C   0  0  0  0  0  0  0  0  0  0  0  0
  -17.5933  -22.2532   20.2608 C   0  0  0  0  0  0  0  0  0  0  0  0
  -22.2996  -19.0922   22.5770 C   0  0  0  0  0  0  0  0  0  0  0  0
  -22.3299   -8.7164   20.1936 C   0  0  0  0  0  0  0  0  0  0  0  0
  -23.0937   -8.7233   22.4857 C   0  0  0  0  0  0  0  0  0  0  0  0
  -23.5609  -18.7817   22.0705 C   0  0  0  0  0  0  0  0  0  0  0  0
  -19.8668   -7.9245   23.0937 C   0  0  0  0  0  0  0  0  0  0  0  0
  -19.1119   -7.8841   24.2658 C   0  0  0  0  0  0  0  0  0  0  0  0
  -24.4908  -20.6740   23.2425 C   0  0  0  0  0  0  0  0  0  0  0  0
  -28.7100  -20.3802   20.5361 C   0  0  0  0  0  0  0  0  0  0  0  0
  -20.3551   -5.9469   24.9999 C   0  0  0  0  0  0  0  0  0  0  0  0
  -23.8266  -10.4499   20.9631 C   0  0  0  0  0  0  0  0  0  0  0  0
  -24.1675  -12.9752   20.8429 C   0  0  0  0  0  0  0  0  0  0  0  0
  -16.2689  -24.0492   21.2136 C   0  0  0  0  0  0  0  0  0  0  0  0
  -22.1222  -20.2042   23.4127 C   0  0  0  0  0  0  0  0  0  0  0  0
  -17.5151  -23.4158   21.0462 C   0  0  0  0  0  0  0  0  0  0  0  0
  -23.2267  -20.9950   23.7603 C   0  0  0  0  0  0  0  0  0  0  0  0
  -29.8783  -19.9747   19.8912 C   0  0  0  0  0  0  0  0  0  0  0  0
  -28.2249  -19.6530   21.6232 C   0  0  0  0  0  0  0  0  0  0  0  0
  -30.0766  -18.1145   21.4201 C   0  0  0  0  0  0  0  0  0  0  0  0
  -22.3402   -8.1432   21.4652 C   0  0  0  0  0  0  0  0  0  0  0  0
  -24.6562  -19.5743   22.4009 C   0  0  0  0  0  0  0  0  0  0  0  0
  -20.8658   -6.9760   22.8745 C   0  0  0  0  0  0  0  0  0  0  0  0
  -19.3560   -6.8954   25.2190 C   0  0  0  0  0  0  0  0  0  0  0  0
  -21.1100   -5.9872   23.8276 C   0  0  0  0  0  0  0  0  0  0  0  0
  -30.5617  -18.8418   20.3331 C   0  0  0  0  0  0  0  0  0  0  0  0
  -28.9083  -18.5201   22.0651 C   0  0  0  0  0  0  0  0  0  0  0  0
  -24.5949  -11.6411   20.7042 C   0  0  0  0  0  0  0  0  0  0  0  0
  -25.2588  -13.7250   20.4779 C   0  0  0  0  0  0  0  0  0  0  0  0
  -22.8976  -13.4906   21.2641 C   0  0  0  0  0  0  0  0  0  0  0  0
  -20.4481  -22.9003   23.2337 C   0  0  0  0  0  0  0  0  0  0  0  0
  -21.4951  -23.2949   26.2784 C   0  0  0  0  0  0  0  0  0  0  0  0
  -23.8302  -22.5624   28.6570 C   0  0  0  0  0  0  0  0  0  0  0  0
  -30.7426  -14.7456   20.6570 C   0  0  0  0  0  0  0  0  0  0  0  0
  -16.1274  -25.3252   22.0051 C   0  0  0  0  0  0  0  0  0  0  0  0
  -20.7600  -20.5102   23.9723 C   0  0  0  0  0  0  0  0  0  0  0  0
  -23.0930  -22.1879   24.6701 C   0  0  0  0  0  0  0  0  0  0  0  0
  -17.3082  -25.6007   22.9326 C   0  0  0  0  0  0  0  0  0  0  0  0
  -29.6016  -12.3611   18.2718 C   0  0  0  0  0  0  0  0  0  0  0  0
  -18.6267  -25.3878   22.1958 C   0  0  0  0  0  0  0  0  0  0  0  0
  -28.1649  -12.0670   18.7072 C   0  0  0  0  0  0  0  0  0  0  0  0
  -30.5207  -12.5820   19.4712 C   0  0  0  0  0  0  0  0  0  0  0  0
  -28.6211  -13.3124   20.8611 C   0  0  0  0  0  0  0  0  0  0  0  0
  -18.7655  -23.9362   21.7214 C   0  0  1  0  0  0  0  0  0  0  0  0
  -20.6030  -21.9661   24.4002 C   0  0  1  0  0  0  0  0  0  0  0  0
  -27.6450  -13.1377   19.6851 C   0  0  2  0  0  0  0  0  0  0  0  0
  -30.3615  -20.7862   18.7321 C   0  0  0  0  0  0  0  0  0  0  0  0
  -24.4403  -23.0641   31.0389 C   0  0  0  0  0  0  0  0  0  0  0  0
  -22.5409  -26.0333   25.4311 C   0  0  0  0  0  0  0  0  0  0  0  0
  -23.9324  -26.0684   27.5121 C   0  0  0  0  0  0  0  0  0  0  0  0
  -21.4448  -25.9848   27.6785 C   0  0  0  0  0  0  0  0  0  0  0  0
  -23.5710  -19.7211   29.4437 C   0  0  0  0  0  0  0  0  0  0  0  0
  -30.8099  -16.8960   21.8941 C   0  0  0  0  0  0  0  0  0  0  0  0
  -26.9661  -20.1286   22.2868 C   0  0  0  0  0  0  0  0  0  1  0  0
  -22.7060  -23.9295   26.9187 C   0  0  1  0  0  0  0  0  0  0  0  0
  -23.6911  -22.1268   30.1046 C   0  0  2  0  0  0  0  0  0  0  0  0
  -22.6586  -25.4827   26.8664 C   0  0  0  0  0  0  0  0  0  0  0  0
  -25.8590  -11.5457   20.2838 N   0  0  0  0  0  0  0  0  0  0  0  0
  -26.2354  -12.8294   20.1550 N   0  0  0  0  0  0  0  0  0  0  0  0
  -21.7395  -22.4498   25.1867 N   0  0  0  0  0  0  0  0  0  0  0  0
  -29.9714  -13.6103   20.3582 N   0  0  0  0  0  0  0  0  0  0  0  0
  -25.4687  -15.0566   20.4047 N   0  0  0  0  0  0  0  0  0  0  0  0
  -21.8865  -12.5811   21.6029 N   0  0  0  0  0  0  0  0  0  0  0  0
  -19.1402  -23.0776   22.8246 N   0  0  0  0  0  0  0  0  0  0  0  0
  -22.7901  -23.3794   28.2673 N   0  0  0  0  0  0  0  0  0  0  0  0
  -30.1446  -15.6741   21.5002 N   0  0  0  0  0  0  0  0  0  0  0  0
  -24.2332  -20.7505   30.2857 N   0  3  0  0  0  0  0  0  0  0  0  0
  -22.6611  -14.7211   21.3220 O   0  0  0  0  0  0  0  0  0  0  0  0
  -21.4416  -23.4229   22.7421 O   0  0  0  0  0  0  0  0  0  0  0  0
  -20.3744  -23.5345   26.7346 O   0  0  0  0  0  0  0  0  0  0  0  0
  -24.7696  -22.2157   27.9444 O   0  0  0  0  0  0  0  0  0  0  0  0
  -31.8777  -14.9214   20.2015 O   0  0  0  0  0  0  0  0  0  0  0  0
  -21.6150   -7.0178   21.7106 O   0  0  0  0  0  0  0  0  0  0  0  0
  -25.8883  -19.2738   21.9074 O   0  0  0  0  0  0  0  0  0  1  0  0
  -18.6320   -6.8577   26.3453 F   0  0  0  0  0  0  0  0  0  0  0  0
  -22.0692   -5.0741   23.6232 F   0  0  0  0  0  0  0  0  0  0  0  0
  -32.0126  -18.3445   19.5268 Cl  0  0  0  0  0  0  0  0  0  0  0  0
  -28.2997  -17.6210   23.4163 Cl  0  0  0  0  0  0  0  0  0  0  0  0
  1  2  1  0  0  0  0
  1  5  2  0  0  0  0
  2  6  2  0  0  0  0
  3  8  2  0  0  0  0
  3 16  1  0  0  0  0
  4  9  1  0  0  0  0
  4 16  2  0  0  0  0
  5 18  1  0  0  0  0
  6 20  1  0  0  0  0
  7 10  2  0  0  0  0
  7 19  1  0  0  0  0
  8 25  1  0  0  0  0
  9 25  2  0  0  0  0
 10 26  1  0  0  0  0
 11 12  2  0  0  0  0
 11 27  1  0  0  0  0
 12 28  1  0  0  0  0
 13 21  1  0  0  0  0
 13 26  2  0  0  0  0
 14 22  2  0  0  0  0
 14 23  1  0  0  0  0
 15 28  2  0  0  0  0
 15 29  1  0  0  0  0
 16 32  1  0  0  0  0
 17 32  1  0  0  0  0
 17 33  2  0  0  0  0
 17 34  1  0  0  0  0
 18 20  2  0  0  0  0
 18 39  1  0  0  0  0
 19 21  2  0  0  0  0
 19 40  1  0  0  0  0
 20 48  1  0  0  0  0
 21 41  1  0  0  0  0
 22 30  1  0  0  0  0
 22 51  1  0  0  0  0
 23 31  2  0  0  0  0
 23 58  1  0  0  0  0
 24 30  2  0  0  0  0
 24 31  1  0  0  0  0
 24 57  1  0  0  0  0
 25 77  1  0  0  0  0
 26 78  1  0  0  0  0
 27 29  2  0  0  0  0
 27 77  1  0  0  0  0
 28 79  1  0  0  0  0
 29 80  1  0  0  0  0
 30 81  1  0  0  0  0
 31 82  1  0  0  0  0
 32 62  2  0  0  0  0
 33 63  1  0  0  0  0
 33 66  1  0  0  0  0
 34 67  1  0  0  0  0
 34 72  2  0  0  0  0
 35 49  1  0  0  0  0
 35 68  1  0  0  0  0
 35 73  2  0  0  0  0
 36 59  1  0  0  0  0
 36 64  1  0  0  0  0
 36 74  2  0  0  0  0
 37 60  1  0  0  0  0
 37 69  1  0  0  0  0
 37 75  2  0  0  0  0
 38 65  1  0  0  0  0
 38 70  1  0  0  0  0
 38 76  2  0  0  0  0
 39 42  1  0  0  0  0
 40 49  1  0  0  0  0
 41 64  1  0  0  0  0
 42 44  1  0  0  0  0
 43 45  1  0  0  0  0
 43 46  1  0  0  0  0
 44 48  1  0  0  0  0
 45 50  1  0  0  0  0
 46 65  1  0  0  0  0
 47 50  1  0  0  0  0
 47 65  1  0  0  0  0
 48 68  1  0  0  0  0
 49 64  1  0  0  0  0
 50 63  1  0  0  0  0
 52 60  1  0  0  0  0
 53 61  1  0  0  0  0
 54 61  1  0  0  0  0
 55 61  1  0  0  0  0
 56 71  1  0  0  0  0
 57 70  1  0  0  0  0
 58 78  1  0  0  0  0
 59 61  1  0  0  0  0
 59 69  1  0  0  0  0
 60 71  1  0  0  0  0
 62 63  1  0  0  0  0
M  CHG  1  71   1
M  ISO  4  38 100  58 101  70 100  78 101
M  END
> <Batch ID>
0020

> <Smiles>
CNC(C)C(=O)NC(C(=O)N1Cc2cc([101O:1][101CH2:1]c3cc(C)c(Cl)c(C[100NH:0][100C:0](=O)N4CCCC(n5nc(-c6ccc(Oc7ccc(F)cc7F)cc6)c(C(N)=O)c5N)C4)c3Cl)ccc2CC1C(=O)NC1CCCc2ccccc21)C(C)(C)C

> <Shape>
0.205

> <Color>
0.200

> <Negative vol penalty>
0.000

$$$$

  -OEChem-04052316093D

100110  0     1  0  0  0  0  0999 V2000
  -24.5765   -9.4805   19.7847 C   0  0  0  0  0  0  0  0  0  0  0  0
  -25.1641  -28.7567   20.1481 C   0  0  0  0  0  0  0  0  0  0  0  0
  -24.7754  -27.5495   19.5762 C   0  0  0  0  0  0  0  0  0  0  0  0
  -24.4370  -27.3001   24.0082 C   0  0  0  0  0  0  0  0  0  0  0  0
  -23.9321  -26.3832   26.1857 C   0  0  0  0  0  0  0  0  0  0  0  0
  -26.5000  -28.9682   20.4864 C   0  0  0  0  0  0  0  0  0  0  0  0
  -25.7226  -26.5536   19.3412 C   0  0  0  0  0  0  0  0  0  0  0  0
  -26.4114  -19.4245   19.2042 C   0  0  0  0  0  0  0  0  0  0  0  0
  -25.6692  -27.7495   24.4831 C   0  0  0  0  0  0  0  0  0  0  0  0
  -25.1643  -26.8325   26.6606 C   0  0  0  0  0  0  0  0  0  0  0  0
  -26.8657  -18.4021   18.3723 C   0  0  0  0  0  0  0  0  0  0  0  0
  -28.7960  -29.4531   25.2208 C   0  0  0  0  0  0  0  0  0  0  0  0
  -29.1869  -30.7501   24.8886 C   0  0  0  0  0  0  0  0  0  0  0  0
  -29.1311  -18.8490   19.0705 C   0  0  0  0  0  0  0  0  0  0  0  0
  -20.9222  -15.9923   21.3435 C   0  0  0  0  0  0  0  0  0  0  0  0
  -27.2289  -31.6252   26.0011 C   0  0  0  0  0  0  0  0  0  0  0  0
  -23.5685  -26.6170   24.8595 C   0  0  0  0  0  0  0  0  0  0  0  0
  -21.2537  -26.9351   23.8356 C   0  0  0  0  0  0  0  0  0  0  0  0
  -27.4625  -27.9707   20.2644 C   0  0  0  0  0  0  0  0  0  0  0  0
  -27.3162  -20.1753   19.9685 C   0  0  0  0  0  0  0  0  0  0  0  0
  -27.0729  -26.7525   19.6757 C   0  0  0  0  0  0  0  0  0  0  0  0
  -28.6855  -19.8787   19.9132 C   0  0  0  0  0  0  0  0  0  0  0  0
  -19.7582  -16.7593   21.3912 C   0  0  0  0  0  0  0  0  0  0  0  0
  -18.5201  -14.8326   22.1606 C   0  0  0  0  0  0  0  0  0  0  0  0
  -20.8852  -14.6454   21.7042 C   0  0  0  0  0  0  0  0  0  0  0  0
  -26.0328  -27.5156   25.8093 C   0  0  0  0  0  0  0  0  0  0  0  0
  -28.2261  -18.1161   18.3031 C   0  0  0  0  0  0  0  0  0  0  0  0
  -27.6215  -29.2420   25.9432 C   0  0  0  0  0  0  0  0  0  0  0  0
  -28.4034  -31.8362   25.2787 C   0  0  0  0  0  0  0  0  0  0  0  0
  -26.8380  -30.3281   26.3333 C   0  0  0  0  0  0  0  0  0  0  0  0
  -18.5571  -16.1795   21.7998 C   0  0  0  0  0  0  0  0  0  0  0  0
  -19.6841  -14.0655   22.1128 C   0  0  0  0  0  0  0  0  0  0  0  0
  -22.2953  -26.1530   24.3697 C   0  0  0  0  0  0  0  0  0  0  0  0
  -20.2710  -26.0289   23.5203 C   0  0  0  0  0  0  0  0  0  0  0  0
  -21.1811  -28.3539   23.6419 C   0  0  0  0  0  0  0  0  0  0  0  0
  -23.3424  -14.3512   21.2573 C   0  0  0  0  0  0  0  0  0  0  0  0
  -28.1464  -23.2412   20.0896 C   0  0  0  0  0  0  0  0  0  0  0  0
  -29.8841  -22.2670   22.6496 C   0  0  0  0  0  0  0  0  0  0  0  0
  -31.4619  -19.7172   24.2794 C   0  0  0  0  0  0  0  0  0  0  0  0
  -20.5034  -20.2887   22.1597 C   0  0  0  0  0  0  0  0  0  0  0  0
  -28.9027  -28.2633   20.6032 C   0  0  0  0  0  0  0  0  0  0  0  0
  -26.8074  -21.2572   20.8812 C   0  0  0  0  0  0  0  0  0  0  0  0
  -29.6958  -20.6418   20.7290 C   0  0  0  0  0  0  0  0  0  0  0  0
  -29.7793  -27.0151   20.6664 C   0  0  0  0  0  0  0  0  0  0  0  0
  -18.5546  -21.7580   24.8320 C   0  0  0  0  0  0  0  0  0  0  0  0
  -29.5222  -26.1205   19.4580 C   0  0  0  0  0  0  0  0  0  0  0  0
  -25.7014  -13.8329   21.7717 C   0  0  0  0  0  0  0  0  0  0  0  0
  -19.2051  -23.1366   24.9603 C   0  0  0  0  0  0  0  0  0  0  0  0
  -26.5588  -14.4322   20.6566 C   0  0  0  0  0  0  0  0  0  0  0  0
  -28.5041  -12.6821   20.8808 C   0  0  0  0  0  0  0  0  0  0  0  0
  -24.3379  -12.4666   20.0133 C   0  0  0  0  0  0  0  0  0  0  0  0
  -26.6857  -12.4201   19.0378 C   0  0  0  0  0  0  0  0  0  0  0  0
  -19.5936  -20.6826   24.5282 C   0  0  0  0  0  0  0  0  0  0  0  0
  -21.0745  -22.3287   23.4461 C   0  0  0  0  0  0  0  0  0  0  0  0
  -29.5290  -13.0068   19.7839 C   0  0  0  0  0  0  0  0  0  0  0  0
  -28.0668  -25.6385   19.4281 C   0  0  1  0  0  0  0  0  0  0  0  0
  -24.3593  -13.2478   21.3286 C   0  0  2  0  0  0  0  0  0  0  0  0
  -27.8693  -22.2971   21.2252 C   0  0  1  0  0  0  0  0  0  0  0  0
  -25.5862  -11.6076   19.7502 C   0  0  2  0  0  0  0  0  0  0  0  0
  -20.0734  -23.4631   23.7308 C   0  0  2  0  0  0  0  0  0  0  0  0
  -27.4475  -13.3824   19.9682 C   0  0  1  0  0  0  0  0  0  0  0  0
  -17.2287  -14.2101   22.5996 C   0  0  0  0  0  0  0  0  0  0  0  0
  -32.8270  -19.2356   26.3293 C   0  0  0  0  0  0  0  0  0  0  0  0
  -32.3177  -23.5467   21.3267 C   0  0  0  0  0  0  0  0  0  0  0  0
  -33.7693  -22.2413   22.8943 C   0  0  0  0  0  0  0  0  0  0  0  0
  -32.1562  -23.9176   23.7947 C   0  0  0  0  0  0  0  0  0  0  0  0
  -29.4428  -17.8199   25.3197 C   0  0  0  0  0  0  0  0  0  0  0  0
  -25.1992  -10.4166   18.8615 C   0  0  0  0  0  0  0  0  0  0  0  0
  -19.8458  -18.1985   20.9954 C   0  0  0  0  0  0  0  0  0  0  0  0
  -29.8026  -15.0026   17.3705 C   0  0  0  0  0  0  0  0  0  0  0  0
  -28.5982  -14.2139   17.8622 C   0  0  0  0  0  0  0  0  0  0  0  0
  -29.8551  -16.4321   17.8954 C   0  0  0  0  0  0  0  0  0  1  0  0
  -31.2838  -21.7394   22.8534 C   0  0  1  0  0  0  0  0  0  0  0  0
  -31.4290  -19.2771   25.7319 C   0  0  2  0  0  0  0  0  0  0  0  0
  -32.3632  -22.8479   22.7003 C   0  0  0  0  0  0  0  0  0  0  0  0
  -24.0746   -8.7089   20.4915 N   0  0  0  0  0  0  0  0  0  0  0  0
  -22.0016  -24.8503   24.3940 N   0  0  0  0  0  0  0  0  0  0  0  0
  -20.7643  -24.8068   23.8713 N   0  0  0  0  0  0  0  0  0  0  0  0
  -29.1496  -21.6944   21.6015 N   0  0  0  0  0  0  0  0  0  0  0  0
  -20.3733  -21.0451   23.3363 N   0  0  0  0  0  0  0  0  0  0  0  0
  -19.0415  -26.1663   22.9798 N   0  0  0  0  0  0  0  0  0  0  0  0
  -21.6280  -28.8857   22.4246 N   0  0  0  0  0  0  0  0  0  0  0  0
  -22.0865  -13.9000   21.6428 N   0  0  0  0  0  0  0  0  0  0  0  0
  -27.8705  -24.5642   20.3778 N   0  0  0  0  0  0  0  0  0  0  0  0
  -31.2858  -21.0790   24.1543 N   0  0  0  0  0  0  0  0  0  0  0  0
  -19.8134  -19.0828   22.1390 N   0  0  0  0  0  0  0  0  0  0  0  0
  -28.6278  -14.0823   19.3337 N   0  3  2  0  0  0  0  0  0  0  0  0
  -30.8277  -17.9185   25.8480 N   0  3  0  0  0  0  0  0  0  0  0  0
  -20.7484  -29.1287   24.5284 O   0  0  0  0  0  0  0  0  0  0  0  0
  -23.6637  -15.4792   20.8976 O   0  0  0  0  0  0  0  0  0  0  0  0
  -28.5799  -22.8020   19.0309 O   0  0  0  0  0  0  0  0  0  0  0  0
  -29.4557  -23.1495   23.3974 O   0  0  0  0  0  0  0  0  0  0  0  0
  -31.6308  -18.9320   23.3491 O   0  0  0  0  0  0  0  0  0  0  0  0
  -21.1804  -20.6630   21.1960 O   0  0  0  0  0  0  0  0  0  0  0  0
  -27.2351  -27.9538   26.2730 O   0  0  0  0  0  0  0  0  0  0  0  0
  -28.6754  -17.1122   17.4858 O   0  0  0  0  0  0  0  0  0  1  0  0
  -28.7798  -33.0818   24.9608 F   0  0  0  0  0  0  0  0  0  0  0  0
  -25.7093  -30.1318   27.0284 F   0  0  0  0  0  0  0  0  0  0  0  0
  -17.1150  -17.1390   21.8565 Cl  0  0  0  0  0  0  0  0  0  0  0  0
  -19.6393  -12.3902   22.5613 Cl  0  0  0  0  0  0  0  0  0  0  0  0
  1 68  1  0  0  0  0
  1 76  3  0  0  0  0
  2  3  1  0  0  0  0
  2  6  2  0  0  0  0
  3  7  2  0  0  0  0
  4  9  2  0  0  0  0
  4 17  1  0  0  0  0
  5 10  1  0  0  0  0
  5 17  2  0  0  0  0
  6 19  1  0  0  0  0
  7 21  1  0  0  0  0
  8 11  2  0  0  0  0
  8 20  1  0  0  0  0
  9 26  1  0  0  0  0
 10 26  2  0  0  0  0
 11 27  1  0  0  0  0
 12 13  2  0  0  0  0
 12 28  1  0  0  0  0
 13 29  1  0  0  0  0
 14 22  1  0  0  0  0
 14 27  2  0  0  0  0
 15 23  2  0  0  0  0
 15 25  1  0  0  0  0
 16 29  2  0  0  0  0
 16 30  1  0  0  0  0
 17 33  1  0  0  0  0
 18 33  1  0  0  0  0
 18 34  2  0  0  0  0
 18 35  1  0  0  0  0
 19 21  2  0  0  0  0
 19 41  1  0  0  0  0
 20 22  2  0  0  0  0
 20 42  1  0  0  0  0
 21 56  1  0  0  0  0
 22 43  1  0  0  0  0
 23 31  1  0  0  0  0
 23 69  1  0  0  0  0
 24 31  2  0  0  0  0
 24 32  1  0  0  0  0
 24 62  1  0  0  0  0
 25 32  2  0  0  0  0
 25 83  1  0  0  0  0
 26 95  1  0  0  0  0
 27 96  1  0  0  0  0
 28 30  2  0  0  0  0
 28 95  1  0  0  0  0
 29 97  1  0  0  0  0
 30 98  1  0  0  0  0
 31 99  1  0  0  0  0
 32100  1  0  0  0  0
 33 77  2  0  0  0  0
 34 78  1  0  0  0  0
 34 81  1  0  0  0  0
 35 82  1  0  0  0  0
 35 89  2  0  0  0  0
 36 57  1  0  0  0  0
 36 83  1  0  0  0  0
 36 90  2  0  0  0  0
 37 58  1  0  0  0  0
 37 84  1  0  0  0  0
 37 91  2  0  0  0  0
 38 73  1  0  0  0  0
 38 79  1  0  0  0  0
 38 92  2  0  0  0  0
 39 74  1  0  0  0  0
 39 85  1  0  0  0  0
 39 93  2  0  0  0  0
 40 80  1  0  0  0  0
 40 86  1  0  0  0  0
 40 94  2  0  0  0  0
 41 44  1  0  0  0  0
 42 58  1  0  0  0  0
 43 79  1  0  0  0  0
 44 46  1  0  0  0  0
 45 48  1  0  0  0  0
 45 53  1  0  0  0  0
 46 56  1  0  0  0  0
 47 49  1  0  0  0  0
 47 57  1  0  0  0  0
 48 60  1  0  0  0  0
 49 61  1  0  0  0  0
 50 55  1  0  0  0  0
 50 61  1  0  0  0  0
 51 57  1  0  0  0  0
 51 59  1  0  0  0  0
 52 59  1  0  0  0  0
 52 61  1  0  0  0  0
 53 80  1  0  0  0  0
 54 60  1  0  0  0  0
 54 80  1  0  0  0  0
 55 87  1  0  0  0  0
 56 84  1  0  0  0  0
 58 79  1  0  0  0  0
 59 68  1  0  0  0  0
 60 78  1  0  0  0  0
 61 87  1  0  0  0  0
 63 74  1  0  0  0  0
 64 75  1  0  0  0  0
 65 75  1  0  0  0  0
 66 75  1  0  0  0  0
 67 88  1  0  0  0  0
 69 86  1  0  0  0  0
 70 71  1  0  0  0  0
 70 72  1  0  0  0  0
 71 87  1  0  0  0  0
 72 96  1  0  0  0  0
 73 75  1  0  0  0  0
 73 85  1  0  0  0  0
 74 88  1  0  0  0  0
 77 78  1  0  0  0  0
M  CHG  2  87   1  88   1
M  ISO  4  40 100  72 101  86 100  96 101
M  END
> <Batch ID>
0020

> <Smiles>
CNC(C)C(=O)NC(C(=O)N1Cc2cc([101O:1][101CH2:1]CCN3CCC34CCC(C(=O)Nc3cc(C[100NH:0][100C:0](=O)N5CCCC(n6nc(-c7ccc(Oc8ccc(F)cc8F)cc7)c(C(N)=O)c6N)C5)c(Cl)c(C)c3Cl)CC(CC#N)C4)ccc2CC1C(=O)NC1CCCc2ccccc21)C(C)(C)C

> <Shape>
0.242

> <Color>
0.066

> <Negative vol penalty>
0.000

$$$$

  -OEChem-04052316093D

 81 89  0     1  0  0  0  0  0999 V2000
  -28.1571  -37.0253   21.3014 C   0  0  0  0  0  0  0  0  0  0  0  0
  -28.5557  -35.7064   21.1085 C   0  0  0  0  0  0  0  0  0  0  0  0
  -26.8726  -12.7132   21.8001 C   0  0  0  0  0  0  0  0  0  0  0  0
  -26.2255  -14.3215   20.1173 C   0  0  0  0  0  0  0  0  0  0  0  0
  -27.0426  -37.3073   22.0902 C   0  0  0  0  0  0  0  0  0  0  0  0
  -27.8405  -34.6688   21.7053 C   0  0  0  0  0  0  0  0  0  0  0  0
  -26.8491  -29.0809   19.4034 C   0  0  0  0  0  0  0  0  0  0  0  0
  -25.5546  -12.2630   21.8766 C   0  0  0  0  0  0  0  0  0  0  0  0
  -24.9075  -13.8713   20.1938 C   0  0  0  0  0  0  0  0  0  0  0  0
  -27.4725  -27.8529   19.6205 C   0  0  0  0  0  0  0  0  0  0  0  0
  -22.4294  -10.4449   22.2543 C   0  0  0  0  0  0  0  0  0  0  0  0
  -22.2150   -9.0668   22.2748 C   0  0  0  0  0  0  0  0  0  0  0  0
  -25.7789  -27.2867   21.2424 C   0  0  0  0  0  0  0  0  0  0  0  0
  -30.3430  -22.6561   21.9260 C   0  0  0  0  0  0  0  0  0  0  0  0
  -23.2885   -8.8677   20.1196 C   0  0  0  0  0  0  0  0  0  0  0  0
  -27.2080  -13.7425   20.9205 C   0  0  0  0  0  0  0  0  0  0  0  0
  -29.5840  -13.7284   19.9920 C   0  0  0  0  0  0  0  0  0  0  0  0
  -26.3077  -36.2720   22.6891 C   0  0  0  0  0  0  0  0  0  0  0  0
  -25.6901  -29.4261   20.1134 C   0  0  0  0  0  0  0  0  0  0  0  0
  -26.7159  -34.9372   22.5040 C   0  0  0  0  0  0  0  0  0  0  0  0
  -25.1413  -28.5186   21.0306 C   0  0  0  0  0  0  0  0  0  0  0  0
  -29.8706  -23.9214   21.5778 C   0  0  0  0  0  0  0  0  0  0  0  0
  -29.2250  -24.1130   20.3562 C   0  0  0  0  0  0  0  0  0  0  0  0
  -29.5243  -21.7738   19.8313 C   0  0  0  0  0  0  0  0  0  0  0  0
  -30.1699  -21.5823   21.0528 C   0  0  0  0  0  0  0  0  0  0  0  0
  -24.5721  -12.8420   21.0735 C   0  0  0  0  0  0  0  0  0  0  0  0
  -26.9390  -26.9567   20.5422 C   0  0  0  0  0  0  0  0  0  0  0  0
  -23.0732  -11.0345   21.1663 C   0  0  0  0  0  0  0  0  0  0  0  0
  -22.6446   -8.2782   21.2075 C   0  0  0  0  0  0  0  0  0  0  0  0
  -23.5028  -10.2458   20.0990 C   0  0  0  0  0  0  0  0  0  0  0  0
  -29.0518  -23.0391   19.4830 C   0  0  0  0  0  0  0  0  0  0  0  0
  -28.5692  -14.2085   20.8414 C   0  0  0  0  0  0  0  0  0  0  0  0
  -30.6813  -14.4945   20.3010 C   0  0  0  0  0  0  0  0  0  0  0  0
  -29.5388  -12.6835   19.0113 C   0  0  0  0  0  0  0  0  0  0  0  0
  -24.9198  -31.7256   22.1683 C   0  0  0  0  0  0  0  0  0  0  0  0
  -21.9515  -30.4487   21.8838 C   0  0  0  0  0  0  0  0  0  0  0  0
  -20.0252  -27.7349   21.1279 C   0  0  0  0  0  0  0  0  0  0  0  0
  -31.3189  -19.9689   22.6095 C   0  0  0  0  0  0  0  0  0  0  0  0
  -25.1380  -36.6287   23.5719 C   0  0  0  0  0  0  0  0  0  0  0  0
  -25.0146  -30.7436   19.8482 C   0  0  0  0  0  0  0  0  0  0  0  0
  -23.8875  -28.8329   21.8037 C   0  0  0  0  0  0  0  0  0  0  0  0
  -24.2128  -35.4499   23.8629 C   0  0  0  0  0  0  0  0  0  0  0  0
  -32.6437  -16.9364   23.9232 C   0  0  0  0  0  0  0  0  0  0  0  0
  -25.0237  -34.2189   24.2551 C   0  0  0  0  0  0  0  0  0  0  0  0
  -31.8457  -15.8489   23.2002 C   0  0  0  0  0  0  0  0  0  0  0  0
  -31.7800  -18.1549   24.2441 C   0  0  0  0  0  0  0  0  0  0  0  0
  -30.2608  -17.6363   22.3754 C   0  0  0  0  0  0  0  0  0  0  0  0
  -25.9512  -33.7828   23.1144 C   0  0  1  0  0  0  0  0  0  0  0  0
  -24.1290  -31.2039   21.0020 C   0  0  1  0  0  0  0  0  0  0  0  0
  -31.1044  -16.4154   21.9734 C   0  0  2  0  0  0  0  0  0  0  0  0
  -30.0708  -25.0534   22.5320 C   0  0  0  0  0  0  0  0  0  0  0  0
  -29.3478  -20.6097   18.9041 C   0  0  0  0  0  0  0  0  0  0  0  0
  -17.6328  -26.9847   21.0243 C   0  0  0  0  0  0  0  0  0  0  0  0
  -21.8922  -30.2253   24.9263 C   0  0  0  0  0  0  0  0  0  0  0  0
  -19.9634  -28.6448   24.7031 C   0  0  0  0  0  0  0  0  0  0  0  0
  -19.7479  -30.9949   23.8949 C   0  0  0  0  0  0  0  0  0  0  0  0
  -20.2025  -27.1840   18.2255 C   0  0  0  0  0  0  0  0  0  0  0  0
  -28.7258  -25.4830   20.0023 C   0  0  0  0  0  0  0  0  0  1  0  0
  -21.1810  -29.3648   22.5983 C   0  0  1  0  0  0  0  0  0  0  0  0
  -18.7958  -27.5853   20.2501 C   0  0  2  0  0  0  0  0  0  0  0  0
  -20.7209  -29.8021   24.0176 C   0  0  0  0  0  0  0  0  0  0  0  0
  -28.9848  -15.2024   21.6308 N   0  0  0  0  0  0  0  0  0  0  0  0
  -30.2730  -15.3532   21.2788 N   0  0  0  0  0  0  0  0  0  0  0  0
  -23.2673  -30.1363   21.5138 N   0  0  0  0  0  0  0  0  0  0  0  0
  -31.1122  -18.6393   23.0340 N   0  0  0  0  0  0  0  0  0  0  0  0
  -31.9460  -14.5106   19.8290 N   0  0  0  0  0  0  0  0  0  0  0  0
  -28.3315  -11.9975   18.8210 N   0  0  0  0  0  0  0  0  0  0  0  0
  -30.6584  -20.3064   21.4286 N   0  0  0  0  0  0  0  0  0  0  0  0
  -25.2030  -33.0763   22.0968 N   0  0  0  0  0  0  0  0  0  0  0  0
  -20.0902  -28.9844   21.7073 N   0  0  0  0  0  0  0  0  0  0  0  0
  -19.0935  -26.7010   19.0880 N   0  3  0  0  0  0  0  0  0  0  0  0
  -30.5438  -12.3564   18.3356 O   0  0  0  0  0  0  0  0  0  0  0  0
  -25.2474  -30.9599   23.0671 O   0  0  0  0  0  0  0  0  0  0  0  0
  -21.4036  -31.5302   21.6559 O   0  0  0  0  0  0  0  0  0  0  0  0
  -20.8440  -26.8322   21.2869 O   0  0  0  0  0  0  0  0  0  0  0  0
  -32.0511  -20.7425   23.2320 O   0  0  0  0  0  0  0  0  0  0  0  0
  -23.2860  -12.4027   21.1477 O   0  0  0  0  0  0  0  0  0  0  0  0
  -27.5459  -25.7577   20.7564 O   0  0  0  0  0  0  0  0  0  1  0  0
  -22.4400   -6.9546   21.2281 F   0  0  0  0  0  0  0  0  0  0  0  0
  -24.1229  -10.8063   19.0516 F   0  0  0  0  0  0  0  0  0  0  0  0
  -28.2485  -23.2779   17.9658 Cl  0  0  0  0  0  0  0  0  0  0  0  0
  1  2  1  0  0  0  0
  1  5  2  0  0  0  0
  2  6  2  0  0  0  0
  3  8  2  0  0  0  0
  3 16  1  0  0  0  0
  4  9  1  0  0  0  0
  4 16  2  0  0  0  0
  5 18  1  0  0  0  0
  6 20  1  0  0  0  0
  7 10  2  0  0  0  0
  7 19  1  0  0  0  0
  8 26  1  0  0  0  0
  9 26  2  0  0  0  0
 10 27  1  0  0  0  0
 11 12  2  0  0  0  0
 11 28  1  0  0  0  0
 12 29  1  0  0  0  0
 13 21  1  0  0  0  0
 13 27  2  0  0  0  0
 14 22  2  0  0  0  0
 14 25  1  0  0  0  0
 15 29  2  0  0  0  0
 15 30  1  0  0  0  0
 16 32  1  0  0  0  0
 17 32  1  0  0  0  0
 17 33  2  0  0  0  0
 17 34  1  0  0  0  0
 18 20  2  0  0  0  0
 18 39  1  0  0  0  0
 19 21  2  0  0  0  0
 19 40  1  0  0  0  0
 20 48  1  0  0  0  0
 21 41  1  0  0  0  0
 22 23  1  0  0  0  0
 22 51  1  0  0  0  0
 23 31  2  0  0  0  0
 23 58  1  0  0  0  0
 24 25  2  0  0  0  0
 24 31  1  0  0  0  0
 24 52  1  0  0  0  0
 25 68  1  0  0  0  0
 26 77  1  0  0  0  0
 27 78  1  0  0  0  0
 28 30  2  0  0  0  0
 28 77  1  0  0  0  0
 29 79  1  0  0  0  0
 30 80  1  0  0  0  0
 31 81  1  0  0  0  0
 32 62  2  0  0  0  0
 33 63  1  0  0  0  0
 33 66  1  0  0  0  0
 34 67  1  0  0  0  0
 34 72  2  0  0  0  0
 35 49  1  0  0  0  0
 35 69  1  0  0  0  0
 35 73  2  0  0  0  0
 36 59  1  0  0  0  0
 36 64  1  0  0  0  0
 36 74  2  0  0  0  0
 37 60  1  0  0  0  0
 37 70  1  0  0  0  0
 37 75  2  0  0  0  0
 38 65  1  0  0  0  0
 38 68  1  0  0  0  0
 38 76  2  0  0  0  0
 39 42  1  0  0  0  0
 40 49  1  0  0  0  0
 41 64  1  0  0  0  0
 42 44  1  0  0  0  0
 43 45  1  0  0  0  0
 43 46  1  0  0  0  0
 44 48  1  0  0  0  0
 45 50  1  0  0  0  0
 46 65  1  0  0  0  0
 47 50  1  0  0  0  0
 47 65  1  0  0  0  0
 48 69  1  0  0  0  0
 49 64  1  0  0  0  0
 50 63  1  0  0  0  0
 53 60  1  0  0  0  0
 54 61  1  0  0  0  0
 55 61  1  0  0  0  0
 56 61  1  0  0  0  0
 57 71  1  0  0  0  0
 58 78  1  0  0  0  0
 59 61  1  0  0  0  0
 59 70  1  0  0  0  0
 60 71  1  0  0  0  0
 62 63  1  0  0  0  0
M  CHG  1  71   1
M  ISO  4  38 100  58 101  68 100  78 101
M  END
> <Batch ID>
0020

> <Smiles>
CNC(C)C(=O)NC(C(=O)N1Cc2cc([101O:1][101CH2:1]c3c(C)cc([100NH:0][100C:0](=O)N4CCCC(n5nc(-c6ccc(Oc7ccc(F)cc7F)cc6)c(C(N)=O)c5N)C4)c(C)c3Cl)ccc2CC1C(=O)NC1CCCc2ccccc21)C(C)(C)C

> <Shape>
0.349

> <Color>
0.081

> <Negative vol penalty>
0.000

$$$$

  -OEChem-04052316093D

 93102  0     1  0  0  0  0  0999 V2000
  -29.5671  -24.7360   17.6479 C   0  0  0  0  0  0  0  0  0  0  0  0
  -28.1887  -24.8508   17.7973 C   0  0  0  0  0  0  0  0  0  0  0  0
  -23.1710  -10.1133   22.2820 C   0  0  0  0  0  0  0  0  0  0  0  0
  -25.4432   -9.8516   23.0602 C   0  0  0  0  0  0  0  0  0  0  0  0
  -30.4177  -25.2269   18.6376 C   0  0  0  0  0  0  0  0  0  0  0  0
  -27.6601  -25.4558   18.9370 C   0  0  0  0  0  0  0  0  0  0  0  0
  -22.6004  -28.8899   19.2715 C   0  0  0  0  0  0  0  0  0  0  0  0
  -22.7868   -8.9998   23.0291 C   0  0  0  0  0  0  0  0  0  0  0  0
  -25.0590   -8.7381   23.8073 C   0  0  0  0  0  0  0  0  0  0  0  0
  -21.2934  -28.5992   19.6601 C   0  0  0  0  0  0  0  0  0  0  0  0
  -22.9672   -5.6356   22.7574 C   0  0  0  0  0  0  0  0  0  0  0  0
  -22.1421   -4.6954   22.1404 C   0  0  0  0  0  0  0  0  0  0  0  0
  -21.7767  -29.4184   21.8769 C   0  0  0  0  0  0  0  0  0  0  0  0
  -21.4875  -21.2688   22.9356 C   0  0  0  0  0  0  0  0  0  0  0  0
  -20.4548   -5.0681   23.8289 C   0  0  0  0  0  0  0  0  0  0  0  0
  -24.4992  -10.5391   22.2975 C   0  0  0  0  0  0  0  0  0  0  0  0
  -24.7973  -11.8521   20.1307 C   0  0  0  0  0  0  0  0  0  0  0  0
  -29.8994  -25.8469   19.7855 C   0  0  0  0  0  0  0  0  0  0  0  0
  -23.5100  -29.4379   20.1872 C   0  0  0  0  0  0  0  0  0  0  0  0
  -28.5045  -25.9543   19.9436 C   0  0  0  0  0  0  0  0  0  0  0  0
  -23.0939  -29.7176   21.4967 C   0  0  0  0  0  0  0  0  0  0  0  0
  -22.8684  -21.4644   22.9527 C   0  0  0  0  0  0  0  0  0  0  0  0
  -21.1522  -23.5826   23.5447 C   0  0  0  0  0  0  0  0  0  0  0  0
  -23.7308   -8.3122   23.7918 C   0  0  0  0  0  0  0  0  0  0  0  0
  -20.8822  -28.8607   20.9638 C   0  0  0  0  0  0  0  0  0  0  0  0
  -22.5362   -6.2920   23.9102 C   0  0  0  0  0  0  0  0  0  0  0  0
  -20.8858   -4.4116   22.6761 C   0  0  0  0  0  0  0  0  0  0  0  0
  -21.2800   -6.0083   24.4460 C   0  0  0  0  0  0  0  0  0  0  0  0
  -20.6293  -22.3279   23.2316 C   0  0  0  0  0  0  0  0  0  0  0  0
  -23.3913  -22.7190   23.2658 C   0  0  0  0  0  0  0  0  0  0  0  0
  -22.5332  -23.7782   23.5618 C   0  0  0  0  0  0  0  0  0  0  0  0
  -24.8968  -11.6889   21.5254 C   0  0  0  0  0  0  0  0  0  0  0  0
  -25.3045  -13.1066   19.8948 C   0  0  0  0  0  0  0  0  0  0  0  0
  -24.2916  -10.9505   19.1372 C   0  0  0  0  0  0  0  0  0  0  0  0
  -26.2775  -28.4971   21.4361 C   0  0  0  0  0  0  0  0  0  0  0  0
  -26.2618  -31.4737   22.7252 C   0  0  0  0  0  0  0  0  0  0  0  0
  -24.4511  -34.1867   23.7289 C   0  0  0  0  0  0  0  0  0  0  0  0
  -25.7957  -18.0154   23.1103 C   0  0  0  0  0  0  0  0  0  0  0  0
  -30.8572  -26.3199   20.8502 C   0  0  0  0  0  0  0  0  0  0  0  0
  -24.9086  -29.7707   19.7449 C   0  0  0  0  0  0  0  0  0  0  0  0
  -24.0260  -30.3243   22.5125 C   0  0  0  0  0  0  0  0  0  0  0  0
  -30.2264  -27.2830   21.8526 C   0  0  0  0  0  0  0  0  0  0  0  0
  -21.8677  -15.3234   22.6998 C   0  0  0  0  0  0  0  0  0  0  0  0
  -21.7717  -16.0994   21.3845 C   0  0  0  0  0  0  0  0  0  0  0  0
  -28.4144  -16.2868   21.6335 C   0  0  0  0  0  0  0  0  0  0  0  0
  -28.8760  -26.7534   22.3246 C   0  0  0  0  0  0  0  0  0  0  0  0
  -27.8125  -14.9223   21.3005 C   0  0  0  0  0  0  0  0  0  0  0  0
  -22.8332  -16.1067   23.5843 C   0  0  0  0  0  0  0  0  0  0  0  0
  -22.6849  -17.3120   21.5406 C   0  0  0  0  0  0  0  0  0  0  0  0
  -27.9349  -16.7755   22.9951 C   0  0  0  0  0  0  0  0  0  0  0  0
  -25.8268  -15.4977   22.7846 C   0  0  0  0  0  0  0  0  0  0  0  0
  -27.8936  -26.6264   21.1541 C   0  0  1  0  0  0  0  0  0  0  0  0
  -25.8986  -29.8498   20.9030 C   0  0  1  0  0  0  0  0  0  0  0  0
  -26.2783  -14.9542   21.4134 C   0  0  2  0  0  0  0  0  0  0  0  0
  -23.6957  -16.8730   22.5912 C   0  0  0  0  0  0  0  0  0  0  0  0
  -24.7128  -36.4511   24.7785 C   0  0  0  0  0  0  0  0  0  0  0  0
  -23.8885  -19.4990   25.0268 C   0  0  0  0  0  0  0  0  0  0  0  0
  -26.6766  -30.1609   25.4481 C   0  0  0  0  0  0  0  0  0  0  0  0
  -25.9861  -32.3178   26.5154 C   0  0  0  0  0  0  0  0  0  0  0  0
  -28.0211  -32.2364   25.0750 C   0  0  0  0  0  0  0  0  0  0  0  0
  -23.3225  -35.5459   21.3545 C   0  0  0  0  0  0  0  0  0  0  0  0
  -23.7458  -20.2975   22.6286 C   0  0  0  0  0  0  0  0  0  0  0  0
  -20.2209  -24.7153   23.8619 C   0  0  0  0  0  0  0  0  0  0  0  0
  -17.9529  -26.8677   21.6518 C   0  0  0  0  0  0  0  0  0  0  0  0
  -18.5743  -26.3523   22.9411 C   0  0  0  0  0  0  0  0  0  0  0  0
  -18.9599  -27.4873   20.6907 C   0  0  0  0  0  0  0  0  0  1  0  0
  -25.7366  -32.0827   24.0028 C   0  0  1  0  0  0  0  0  0  0  0  0
  -24.6368  -35.6718   23.4748 C   0  0  2  0  0  0  0  0  0  0  0  0
  -23.5624  -19.1049   23.5897 C   0  0  1  0  0  0  0  0  0  0  0  0
  -26.5878  -31.6862   25.2420 C   0  0  0  0  0  0  0  0  0  0  0  0
  -25.4257  -12.7544   22.1329 N   0  0  0  0  0  0  0  0  0  0  0  0
  -25.6632  -13.5992   21.1150 N   0  0  0  0  0  0  0  0  0  0  0  0
  -25.3851  -30.6259   22.0335 N   0  0  0  0  0  0  0  0  0  0  0  0
  -26.4737  -16.7880   23.0688 N   0  0  0  0  0  0  0  0  0  0  0  0
  -25.4741  -13.8253   18.7647 N   0  0  0  0  0  0  0  0  0  0  0  0
  -25.1820  -10.0493   18.5377 N   0  0  0  0  0  0  0  0  0  0  0  0
  -27.3610  -27.9241   20.7981 N   0  0  0  0  0  0  0  0  0  0  0  0
  -25.6576  -33.5203   23.7673 N   0  0  0  0  0  0  0  0  0  0  0  0
  -24.3956  -17.9726   23.1893 N   0  0  0  0  0  0  0  0  0  0  0  0
  -23.4997  -36.2063   22.6734 N   0  3  0  0  0  0  0  0  0  0  0  0
  -19.5492  -25.2735   22.6558 N   0  3  0  0  0  0  0  0  0  0  0  0
  -23.0893  -10.9553   18.7796 O   0  0  0  0  0  0  0  0  0  0  0  0
  -25.6352  -28.0099   22.3591 O   0  0  0  0  0  0  0  0  0  0  0  0
  -27.4052  -31.7460   22.3508 O   0  0  0  0  0  0  0  0  0  0  0  0
  -23.3464  -33.6702   23.8821 O   0  0  0  0  0  0  0  0  0  0  0  0
  -26.4072  -19.0913   23.0858 O   0  0  0  0  0  0  0  0  0  0  0  0
  -23.3563   -7.2258   24.5211 O   0  0  0  0  0  0  0  0  0  0  0  0
  -19.6073  -28.5773   21.3459 O   0  0  0  0  0  0  0  0  0  1  0  0
  -20.0929   -3.5099   22.0827 F   0  0  0  0  0  0  0  0  0  0  0  0
  -20.8599   -6.6366   25.5526 F   0  0  0  0  0  0  0  0  0  0  0  0
  -18.9267  -22.0410   23.1972 Cl  0  0  0  0  0  0  0  0  0  0  0  0
  -25.1149  -22.9276   23.2792 Cl  0  0  0  0  0  0  0  0  0  0  0  0
  -23.1590  -25.3502   23.9553 Cl  0  0  0  0  0  0  0  0  0  0  0  0
  1  2  1  0  0  0  0
  1  5  2  0  0  0  0
  2  6  2  0  0  0  0
  3  8  2  0  0  0  0
  3 16  1  0  0  0  0
  4  9  1  0  0  0  0
  4 16  2  0  0  0  0
  5 18  1  0  0  0  0
  6 20  1  0  0  0  0
  7 10  2  0  0  0  0
  7 19  1  0  0  0  0
  8 24  1  0  0  0  0
  9 24  2  0  0  0  0
 10 25  1  0  0  0  0
 11 12  2  0  0  0  0
 11 26  1  0  0  0  0
 12 27  1  0  0  0  0
 13 21  1  0  0  0  0
 13 25  2  0  0  0  0
 14 22  1  0  0  0  0
 14 29  2  0  0  0  0
 15 27  2  0  0  0  0
 15 28  1  0  0  0  0
 16 32  1  0  0  0  0
 17 32  1  0  0  0  0
 17 33  2  0  0  0  0
 17 34  1  0  0  0  0
 18 20  2  0  0  0  0
 18 39  1  0  0  0  0
 19 21  2  0  0  0  0
 19 40  1  0  0  0  0
 20 52  1  0  0  0  0
 21 41  1  0  0  0  0
 22 30  2  0  0  0  0
 22 62  1  0  0  0  0
 23 29  1  0  0  0  0
 23 31  2  0  0  0  0
 23 63  1  0  0  0  0
 24 87  1  0  0  0  0
 25 88  1  0  0  0  0
 26 28  2  0  0  0  0
 26 87  1  0  0  0  0
 27 89  1  0  0  0  0
 28 90  1  0  0  0  0
 29 91  1  0  0  0  0
 30 31  1  0  0  0  0
 30 92  1  0  0  0  0
 31 93  1  0  0  0  0
 32 71  2  0  0  0  0
 33 72  1  0  0  0  0
 33 75  1  0  0  0  0
 34 76  1  0  0  0  0
 34 82  2  0  0  0  0
 35 53  1  0  0  0  0
 35 77  1  0  0  0  0
 35 83  2  0  0  0  0
 36 67  1  0  0  0  0
 36 73  1  0  0  0  0
 36 84  2  0  0  0  0
 37 68  1  0  0  0  0
 37 78  1  0  0  0  0
 37 85  2  0  0  0  0
 38 74  1  0  0  0  0
 38 79  1  0  0  0  0
 38 86  2  0  0  0  0
 39 42  1  0  0  0  0
 40 53  1  0  0  0  0
 41 73  1  0  0  0  0
 42 46  1  0  0  0  0
 43 44  1  0  0  0  0
 43 48  1  0  0  0  0
 44 49  1  0  0  0  0
 45 47  1  0  0  0  0
 45 50  1  0  0  0  0
 46 52  1  0  0  0  0
 47 54  1  0  0  0  0
 48 55  1  0  0  0  0
 49 55  1  0  0  0  0
 50 74  1  0  0  0  0
 51 54  1  0  0  0  0
 51 74  1  0  0  0  0
 52 77  1  0  0  0  0
 53 73  1  0  0  0  0
 54 72  1  0  0  0  0
 55 79  1  0  0  0  0
 56 68  1  0  0  0  0
 57 69  1  0  0  0  0
 58 70  1  0  0  0  0
 59 70  1  0  0  0  0
 60 70  1  0  0  0  0
 61 80  1  0  0  0  0
 62 69  1  0  0  0  0
 63 81  1  0  0  0  0
 64 65  1  0  0  0  0
 64 66  1  0  0  0  0
 65 81  1  0  0  0  0
 66 88  1  0  0  0  0
 67 70  1  0  0  0  0
 67 78  1  0  0  0  0
 68 80  1  0  0  0  0
 69 79  1  0  0  0  0
 71 72  1  0  0  0  0
M  CHG  2  80   1  81   1
M  ISO  4  38 100  66 101  79 100  88 101
M  END
> <Batch ID>
0020

> <Smiles>
CNC(C)C(=O)NC(C(=O)N1Cc2cc([101O:1][101CH2:1]CCNCc3c(Cl)cc(CC(C)[100N:0](C4CCCC4)[100C:0](=O)N4CCCC(n5nc(-c6ccc(Oc7ccc(F)cc7F)cc6)c(C(N)=O)c5N)C4)c(Cl)c3Cl)ccc2CC1C(=O)NC1CCCc2ccccc21)C(C)(C)C

> <Shape>
0.295

> <Color>
0.086

> <Negative vol penalty>
0.000

$$$$

  -OEChem-04052316093D

 83 91  0     1  0  0  0  0  0999 V2000
  -20.0288  -17.7570   18.6386 C   0  0  0  0  0  0  0  0  0  0  0  0
  -21.1496  -18.3554   19.2052 C   0  0  0  0  0  0  0  0  0  0  0  0
  -23.0739   -9.8689   19.9423 C   0  0  0  0  0  0  0  0  0  0  0  0
  -23.8310   -9.8789   22.2366 C   0  0  0  0  0  0  0  0  0  0  0  0
  -18.7575  -18.2580   18.9157 C   0  0  0  0  0  0  0  0  0  0  0  0
  -20.9999  -19.4558   20.0485 C   0  0  0  0  0  0  0  0  0  0  0  0
  -23.8544  -19.1114   24.2172 C   0  0  0  0  0  0  0  0  0  0  0  0
  -22.3289   -8.7166   20.1931 C   0  0  0  0  0  0  0  0  0  0  0  0
  -23.0859   -8.7266   22.4875 C   0  0  0  0  0  0  0  0  0  0  0  0
  -25.2109  -19.4055   24.0861 C   0  0  0  0  0  0  0  0  0  0  0  0
  -19.3783   -7.9243   21.6420 C   0  0  0  0  0  0  0  0  0  0  0  0
  -18.0720   -7.8782   21.1553 C   0  0  0  0  0  0  0  0  0  0  0  0
  -24.8142  -21.6077   24.9872 C   0  0  0  0  0  0  0  0  0  0  0  0
  -32.2321  -18.2158   23.1480 C   0  0  0  0  0  0  0  0  0  0  0  0
  -18.6320   -5.9327   19.8367 C   0  0  0  0  0  0  0  0  0  0  0  0
  -23.8250  -10.4500   20.9641 C   0  0  0  0  0  0  0  0  0  0  0  0
  -24.1687  -12.9747   20.8406 C   0  0  0  0  0  0  0  0  0  0  0  0
  -18.5914  -19.3591   19.7704 C   0  0  0  0  0  0  0  0  0  0  0  0
  -22.9643  -20.0687   24.7250 C   0  0  0  0  0  0  0  0  0  0  0  0
  -19.7253  -19.9728   20.3362 C   0  0  0  0  0  0  0  0  0  0  0  0
  -23.4474  -21.3224   25.1261 C   0  0  0  0  0  0  0  0  0  0  0  0
  -31.5620  -19.3931   22.8156 C   0  0  0  0  0  0  0  0  0  0  0  0
  -30.4038  -19.3413   22.0401 C   0  0  0  0  0  0  0  0  0  0  0  0
  -29.9156  -18.1120   21.5970 C   0  0  0  0  0  0  0  0  0  0  0  0
  -30.5856  -16.9347   21.9293 C   0  0  0  0  0  0  0  0  0  0  0  0
  -22.3349   -8.1455   21.4657 C   0  0  0  0  0  0  0  0  0  0  0  0
  -25.6905  -20.6548   24.4685 C   0  0  0  0  0  0  0  0  0  0  0  0
  -20.3115   -6.9747   21.2261 C   0  0  0  0  0  0  0  0  0  0  0  0
  -17.6988   -6.8824   20.2526 C   0  0  0  0  0  0  0  0  0  0  0  0
  -19.9383   -5.9789   20.3235 C   0  0  0  0  0  0  0  0  0  0  0  0
  -31.7439  -16.9866   22.7048 C   0  0  0  0  0  0  0  0  0  0  0  0
  -24.5952  -11.6399   20.7054 C   0  0  0  0  0  0  0  0  0  0  0  0
  -25.2618  -13.7229   20.4775 C   0  0  0  0  0  0  0  0  0  0  0  0
  -22.8981  -13.4920   21.2571 C   0  0  0  0  0  0  0  0  0  0  0  0
  -20.4172  -21.5908   23.5852 C   0  0  0  0  0  0  0  0  0  0  0  0
  -20.2136  -22.7131   26.6219 C   0  0  0  0  0  0  0  0  0  0  0  0
  -21.7958  -23.4171   29.5626 C   0  0  0  0  0  0  0  0  0  0  0  0
  -30.7285  -14.7649   20.6573 C   0  0  0  0  0  0  0  0  0  0  0  0
  -17.2007  -19.8945   20.0027 C   0  0  0  0  0  0  0  0  0  0  0  0
  -21.5084  -19.7265   24.8850 C   0  0  0  0  0  0  0  0  0  0  0  0
  -22.5365  -22.3779   25.6960 C   0  0  0  0  0  0  0  0  0  0  0  0
  -17.1014  -20.8312   21.2040 C   0  0  0  0  0  0  0  0  0  0  0  0
  -29.6153  -12.3483   18.2914 C   0  0  0  0  0  0  0  0  0  0  0  0
  -18.2383  -21.8480   21.1835 C   0  0  0  0  0  0  0  0  0  0  0  0
  -28.1749  -12.0583   18.7196 C   0  0  0  0  0  0  0  0  0  0  0  0
  -30.5291  -12.5783   19.4938 C   0  0  0  0  0  0  0  0  0  0  0  0
  -28.6210  -13.3062   20.8716 C   0  0  0  0  0  0  0  0  0  0  0  0
  -19.6020  -21.1528   21.2756 C   0  0  1  0  0  0  0  0  0  0  0  0
  -20.6074  -20.9565   24.9340 C   0  0  1  0  0  0  0  0  0  0  0  0
  -27.6495  -13.1318   19.6928 C   0  0  2  0  0  0  0  0  0  0  0  0
  -32.1057  -20.6962   23.3036 C   0  0  0  0  0  0  0  0  0  0  0  0
  -28.6717  -18.0635   20.7650 C   0  0  0  0  0  0  0  0  0  0  0  0
  -21.3749  -24.3622   31.8489 C   0  0  0  0  0  0  0  0  0  0  0  0
  -20.1515  -25.5273   25.4445 C   0  0  0  0  0  0  0  0  0  0  0  0
  -20.6875  -26.4170   27.7226 C   0  0  0  0  0  0  0  0  0  0  0  0
  -18.5684  -25.1563   27.3446 C   0  0  0  0  0  0  0  0  0  0  0  0
  -22.5872  -20.8881   30.8806 C   0  0  0  0  0  0  0  0  0  0  0  0
  -29.6822  -20.6159   21.6819 C   0  0  0  0  0  0  0  0  0  0  0  0
  -28.8614  -21.2031   22.8321 C   0  0  0  0  0  0  0  0  0  0  0  0
  -27.7219  -20.2974   23.2845 C   0  0  0  0  0  0  0  0  0  1  0  0
  -20.7672  -23.9085   27.3593 C   0  0  1  0  0  0  0  0  0  0  0  0
  -21.4336  -23.1001   31.0024 C   0  0  2  0  0  0  0  0  0  0  0  0
  -20.0607  -25.2333   26.9552 C   0  0  0  0  0  0  0  0  0  0  0  0
  -25.8605  -11.5426   20.2889 N   0  0  0  0  0  0  0  0  0  0  0  0
  -26.2384  -12.8257   20.1590 N   0  0  0  0  0  0  0  0  0  0  0  0
  -21.1202  -21.9976   25.8269 N   0  0  0  0  0  0  0  0  0  0  0  0
  -29.9698  -13.6108   20.3689 N   0  0  0  0  0  0  0  0  0  0  0  0
  -25.4732  -15.0541   20.4027 N   0  0  0  0  0  0  0  0  0  0  0  0
  -21.8851  -12.5841   21.5946 N   0  0  0  0  0  0  0  0  0  0  0  0
  -30.0808  -15.6917   21.4735 N   0  0  0  0  0  0  0  0  0  0  0  0
  -19.8708  -20.7458   22.6382 N   0  0  0  0  0  0  0  0  0  0  0  0
  -20.6739  -23.5907   28.7801 N   0  0  0  0  0  0  0  0  0  0  0  0
  -22.4422  -22.1800   31.5997 N   0  3  0  0  0  0  0  0  0  0  0  0
  -22.6626  -14.7229   21.3123 O   0  0  0  0  0  0  0  0  0  0  0  0
  -20.7408  -22.7607   23.4167 O   0  0  0  0  0  0  0  0  0  0  0  0
  -19.0224  -22.4206   26.7523 O   0  0  0  0  0  0  0  0  0  0  0  0
  -22.9578  -23.5057   29.1722 O   0  0  0  0  0  0  0  0  0  0  0  0
  -31.8583  -14.9322   20.1908 O   0  0  0  0  0  0  0  0  0  0  0  0
  -21.6079   -7.0213   21.7109 O   0  0  0  0  0  0  0  0  0  0  0  0
  -27.0140  -20.9447   24.3410 O   0  0  0  0  0  0  0  0  0  1  0  0
  -16.4439   -6.8374   19.7864 F   0  0  0  0  0  0  0  0  0  0  0  0
  -20.8301   -5.0631   19.9211 F   0  0  0  0  0  0  0  0  0  0  0  0
  -32.6074  -15.5544   23.1414 Cl  0  0  0  0  0  0  0  0  0  0  0  0
  1  2  1  0  0  0  0
  1  5  2  0  0  0  0
  2  6  2  0  0  0  0
  3  8  2  0  0  0  0
  3 16  1  0  0  0  0
  4  9  1  0  0  0  0
  4 16  2  0  0  0  0
  5 18  1  0  0  0  0
  6 20  1  0  0  0  0
  7 10  2  0  0  0  0
  7 19  1  0  0  0  0
  8 26  1  0  0  0  0
  9 26  2  0  0  0  0
 10 27  1  0  0  0  0
 11 12  2  0  0  0  0
 11 28  1  0  0  0  0
 12 29  1  0  0  0  0
 13 21  1  0  0  0  0
 13 27  2  0  0  0  0
 14 22  2  0  0  0  0
 14 31  1  0  0  0  0
 15 29  2  0  0  0  0
 15 30  1  0  0  0  0
 16 32  1  0  0  0  0
 17 32  1  0  0  0  0
 17 33  2  0  0  0  0
 17 34  1  0  0  0  0
 18 20  2  0  0  0  0
 18 39  1  0  0  0  0
 19 21  2  0  0  0  0
 19 40  1  0  0  0  0
 20 48  1  0  0  0  0
 21 41  1  0  0  0  0
 22 23  1  0  0  0  0
 22 51  1  0  0  0  0
 23 24  2  0  0  0  0
 23 58  1  0  0  0  0
 24 25  1  0  0  0  0
 24 52  1  0  0  0  0
 25 31  2  0  0  0  0
 25 70  1  0  0  0  0
 26 79  1  0  0  0  0
 27 80  1  0  0  0  0
 28 30  2  0  0  0  0
 28 79  1  0  0  0  0
 29 81  1  0  0  0  0
 30 82  1  0  0  0  0
 31 83  1  0  0  0  0
 32 64  2  0  0  0  0
 33 65  1  0  0  0  0
 33 68  1  0  0  0  0
 34 69  1  0  0  0  0
 34 74  2  0  0  0  0
 35 49  1  0  0  0  0
 35 71  1  0  0  0  0
 35 75  2  0  0  0  0
 36 61  1  0  0  0  0
 36 66  1  0  0  0  0
 36 76  2  0  0  0  0
 37 62  1  0  0  0  0
 37 72  1  0  0  0  0
 37 77  2  0  0  0  0
 38 67  1  0  0  0  0
 38 70  1  0  0  0  0
 38 78  2  0  0  0  0
 39 42  1  0  0  0  0
 40 49  1  0  0  0  0
 41 66  1  0  0  0  0
 42 44  1  0  0  0  0
 43 45  1  0  0  0  0
 43 46  1  0  0  0  0
 44 48  1  0  0  0  0
 45 50  1  0  0  0  0
 46 67  1  0  0  0  0
 47 50  1  0  0  0  0
 47 67  1  0  0  0  0
 48 71  1  0  0  0  0
 49 66  1  0  0  0  0
 50 65  1  0  0  0  0
 53 62  1  0  0  0  0
 54 63  1  0  0  0  0
 55 63  1  0  0  0  0
 56 63  1  0  0  0  0
 57 73  1  0  0  0  0
 58 59  1  0  0  0  0
 59 60  1  0  0  0  0
 60 80  1  0  0  0  0
 61 63  1  0  0  0  0
 61 72  1  0  0  0  0
 62 73  1  0  0  0  0
 64 65  1  0  0  0  0
M  CHG  1  73   1
M  ISO  4  38 100  60 101  70 100  80 101
M  END
> <Batch ID>
0020

> <Smiles>
CNC(C)C(=O)NC(C(=O)N1Cc2cc([101O:1][101CH2:1]CCc3c(C)cc(Cl)c([100NH:0][100C:0](=O)N4CCCC(n5nc(-c6ccc(Oc7ccc(F)cc7F)cc6)c(C(N)=O)c5N)C4)c3C)ccc2CC1C(=O)NC1CCCc2ccccc21)C(C)(C)C

> <Shape>
0.167

> <Color>
0.200

> <Negative vol penalty>
0.000

$$$$

  -OEChem-04052316093D

 92100  0     1  0  0  0  0  0999 V2000
  -29.5707  -28.3507   12.0882 C   0  0  0  0  0  0  0  0  0  0  0  0
  -29.1634  -27.0569   12.3974 C   0  0  0  0  0  0  0  0  0  0  0  0
  -22.9795   -9.9139   19.9879 C   0  0  0  0  0  0  0  0  0  0  0  0
  -23.7117   -9.9546   22.2899 C   0  0  0  0  0  0  0  0  0  0  0  0
  -30.0995  -29.1706   13.0842 C   0  0  0  0  0  0  0  0  0  0  0  0
  -29.2858  -26.5819   13.7027 C   0  0  0  0  0  0  0  0  0  0  0  0
  -25.4992  -22.7297   16.5886 C   0  0  0  0  0  0  0  0  0  0  0  0
  -22.2042   -8.7854   20.2544 C   0  0  0  0  0  0  0  0  0  0  0  0
  -22.9363   -8.8261   22.5565 C   0  0  0  0  0  0  0  0  0  0  0  0
  -25.5544  -21.3554   16.8172 C   0  0  0  0  0  0  0  0  0  0  0  0
  -23.1511   -5.4861   22.0779 C   0  0  0  0  0  0  0  0  0  0  0  0
  -23.7322   -4.4626   22.8265 C   0  0  0  0  0  0  0  0  0  0  0  0
  -26.5078  -21.7622   18.9954 C   0  0  0  0  0  0  0  0  0  0  0  0
  -28.6761  -17.7739   19.4143 C   0  0  0  0  0  0  0  0  0  0  0  0
  -22.0153   -4.7171   24.5071 C   0  0  0  0  0  0  0  0  0  0  0  0
  -23.7333  -10.4985   21.0056 C   0  0  0  0  0  0  0  0  0  0  0  0
  -24.1393  -13.0110   20.8329 C   0  0  0  0  0  0  0  0  0  0  0  0
  -30.2195  -28.7087   14.4044 C   0  0  0  0  0  0  0  0  0  0  0  0
  -25.9587  -23.6316   17.5590 C   0  0  0  0  0  0  0  0  0  0  0  0
  -29.8180  -27.3959   14.7170 C   0  0  0  0  0  0  0  0  0  0  0  0
  -26.4549  -23.1474   18.7777 C   0  0  0  0  0  0  0  0  0  0  0  0
  -29.9248  -18.1038   19.9411 C   0  0  0  0  0  0  0  0  0  0  0  0
  -28.4660  -17.8209   18.0361 C   0  0  0  0  0  0  0  0  0  0  0  0
  -30.9634  -18.4808   19.0898 C   0  0  0  0  0  0  0  0  0  0  0  0
  -29.5047  -18.1978   17.1848 C   0  0  0  0  0  0  0  0  0  0  0  0
  -22.1826   -8.2415   21.5387 C   0  0  0  0  0  0  0  0  0  0  0  0
  -26.0614  -20.8714   18.0195 C   0  0  0  0  0  0  0  0  0  0  0  0
  -22.0021   -6.1251   22.5439 C   0  0  0  0  0  0  0  0  0  0  0  0
  -23.1643   -4.0781   24.0411 C   0  0  0  0  0  0  0  0  0  0  0  0
  -21.4342   -5.7406   23.7585 C   0  0  0  0  0  0  0  0  0  0  0  0
  -30.7534  -18.5278   17.7116 C   0  0  0  0  0  0  0  0  0  0  0  0
  -24.5348  -11.6638   20.7308 C   0  0  0  0  0  0  0  0  0  0  0  0
  -25.2541  -13.7249   20.4666 C   0  0  0  0  0  0  0  0  0  0  0  0
  -22.8771  -13.5674   21.2241 C   0  0  0  0  0  0  0  0  0  0  0  0
  -28.2584  -25.8230   17.6745 C   0  0  0  0  0  0  0  0  0  0  0  0
  -26.9322  -26.4995   20.5565 C   0  0  0  0  0  0  0  0  0  0  0  0
  -25.0700  -25.4342   23.2106 C   0  0  0  0  0  0  0  0  0  0  0  0
  -30.7588  -14.6127   20.7009 C   0  0  0  0  0  0  0  0  0  0  0  0
  -30.8410  -29.6153   15.4371 C   0  0  0  0  0  0  0  0  0  0  0  0
  -25.8676  -25.1119   17.3078 C   0  0  0  0  0  0  0  0  0  0  0  0
  -26.9421  -24.0746   19.8601 C   0  0  0  0  0  0  0  0  0  0  0  0
  -30.5896  -29.1646   16.8737 C   0  0  0  0  0  0  0  0  0  0  0  0
  -29.5910  -12.2029   18.3545 C   0  0  0  0  0  0  0  0  0  0  0  0
  -30.8550  -27.6694   17.0183 C   0  0  0  0  0  0  0  0  0  0  0  0
  -28.1416  -11.9547   18.7758 C   0  0  0  0  0  0  0  0  0  0  0  0
  -30.4988  -12.4285   19.5615 C   0  0  0  0  0  0  0  0  0  0  0  0
  -28.5994  -13.2377   20.9072 C   0  0  0  0  0  0  0  0  0  0  0  0
  -29.9118  -26.8529   16.1265 C   0  0  1  0  0  0  0  0  0  0  0  0
  -26.8395  -25.9233   18.1588 C   0  0  1  0  0  0  0  0  0  0  0  0
  -27.6354  -13.0603   19.7216 C   0  0  2  0  0  0  0  0  0  0  0  0
  -30.1435  -17.2476   14.9392 C   0  0  0  0  0  0  0  0  0  0  0  0
  -29.4257  -19.6566   15.1306 C   0  0  0  0  0  0  0  0  0  0  0  0
  -24.1878  -26.1995   25.4317 C   0  0  0  0  0  0  0  0  0  0  0  0
  -35.7802  -22.4284   20.2689 C   0  0  0  0  0  0  0  0  0  0  0  0
  -34.6434  -22.0769   18.0716 C   0  0  0  0  0  0  0  0  0  0  0  0
  -33.3752  -23.0769   19.9784 C   0  0  0  0  0  0  0  0  0  0  0  0
  -29.7094  -26.1603   21.7738 C   0  0  0  0  0  0  0  0  0  0  0  0
  -28.6259  -25.9889   24.0243 C   0  0  0  0  0  0  0  0  0  0  0  0
  -28.3974  -28.0830   22.6882 C   0  0  0  0  0  0  0  0  0  0  0  0
  -22.2617  -25.0645   22.3531 C   0  0  0  0  0  0  0  0  0  0  0  0
  -30.1212  -18.0447   21.4209 C   0  0  0  0  0  0  0  0  0  0  0  0
  -27.1046  -17.4585   17.4943 C   0  0  0  0  0  0  0  0  0  0  0  0
  -32.2957  -18.8309   19.6772 C   0  0  0  0  0  0  0  0  0  0  0  0
  -30.8633  -16.7887   21.8897 C   0  0  0  0  0  0  0  0  0  0  0  0
  -34.0170  -20.6136   19.9894 C   0  0  0  0  0  0  0  0  0  0  0  0
  -26.2890  -18.6871   17.1068 C   0  0  0  0  0  0  0  0  0  1  0  0
  -29.2567  -18.2413   15.7086 C   0  0  0  0  0  0  0  0  0  0  0  0
  -27.1394  -26.0110   21.9698 C   0  0  1  0  0  0  0  0  0  0  0  0
  -23.9034  -26.0720   23.9432 C   0  0  2  0  0  0  0  0  0  0  0  0
  -34.4497  -22.0429   19.5998 C   0  0  0  0  0  0  0  0  0  0  0  0
  -28.4607  -26.5430   22.5930 C   0  0  0  0  0  0  0  0  0  0  0  0
  -25.8019  -11.5274   20.3307 N   0  0  0  0  0  0  0  0  0  0  0  0
  -26.2121  -12.7980   20.1782 N   0  0  0  0  0  0  0  0  0  0  0  0
  -26.8382  -25.5131   19.5645 N   0  0  0  0  0  0  0  0  0  0  0  0
  -29.9634  -13.4903   20.4170 N   0  0  0  0  0  0  0  0  0  0  0  0
  -25.4984  -15.0488   20.3662 N   0  0  0  0  0  0  0  0  0  0  0  0
  -21.8389  -12.6914   21.5690 N   0  0  0  0  0  0  0  0  0  0  0  0
  -28.5970  -26.7685   16.7253 N   0  0  0  0  0  0  0  0  0  0  0  0
  -25.9380  -26.3815   22.7100 N   0  0  0  0  0  0  0  0  0  0  0  0
  -30.1729  -15.5750   21.5142 N   0  0  0  0  0  0  0  0  0  0  0  0
  -22.6714  -25.2517   23.7687 N   0  3  0  0  0  0  0  0  0  0  0  0
  -32.7231  -20.2212   19.3702 N   0  3  0  0  0  0  0  0  0  0  0  0
  -22.6709  -14.8045   21.2507 O   0  0  0  0  0  0  0  0  0  0  0  0
  -28.9920  -24.9533   18.1294 O   0  0  0  0  0  0  0  0  0  0  0  0
  -26.8494  -27.7114   20.3416 O   0  0  0  0  0  0  0  0  0  0  0  0
  -25.2004  -24.2174   23.0972 O   0  0  0  0  0  0  0  0  0  0  0  0
  -31.9042  -14.7497   20.2578 O   0  0  0  0  0  0  0  0  0  0  0  0
  -21.4260   -7.1405   21.7992 O   0  0  0  0  0  0  0  0  0  0  0  0
  -26.1170  -19.5305   18.2450 O   0  0  0  0  0  0  0  0  0  1  0  0
  -23.7215   -3.0942   24.7591 F   0  0  0  0  0  0  0  0  0  0  0  0
  -20.3297   -6.3500   24.2108 F   0  0  0  0  0  0  0  0  0  0  0  0
  -32.0438  -18.9962   16.6538 Cl  0  0  0  0  0  0  0  0  0  0  0  0
  1  2  1  0  0  0  0
  1  5  2  0  0  0  0
  2  6  2  0  0  0  0
  3  8  2  0  0  0  0
  3 16  1  0  0  0  0
  4  9  1  0  0  0  0
  4 16  2  0  0  0  0
  5 18  1  0  0  0  0
  6 20  1  0  0  0  0
  7 10  2  0  0  0  0
  7 19  1  0  0  0  0
  8 26  1  0  0  0  0
  9 26  2  0  0  0  0
 10 27  1  0  0  0  0
 11 12  2  0  0  0  0
 11 28  1  0  0  0  0
 12 29  1  0  0  0  0
 13 21  1  0  0  0  0
 13 27  2  0  0  0  0
 14 22  2  0  0  0  0
 14 23  1  0  0  0  0
 15 29  2  0  0  0  0
 15 30  1  0  0  0  0
 16 32  1  0  0  0  0
 17 32  1  0  0  0  0
 17 33  2  0  0  0  0
 17 34  1  0  0  0  0
 18 20  2  0  0  0  0
 18 39  1  0  0  0  0
 19 21  2  0  0  0  0
 19 40  1  0  0  0  0
 20 48  1  0  0  0  0
 21 41  1  0  0  0  0
 22 24  1  0  0  0  0
 22 61  1  0  0  0  0
 23 25  2  0  0  0  0
 23 62  1  0  0  0  0
 24 31  2  0  0  0  0
 24 63  1  0  0  0  0
 25 31  1  0  0  0  0
 25 67  1  0  0  0  0
 26 88  1  0  0  0  0
 27 89  1  0  0  0  0
 28 30  2  0  0  0  0
 28 88  1  0  0  0  0
 29 90  1  0  0  0  0
 30 91  1  0  0  0  0
 31 92  1  0  0  0  0
 32 72  2  0  0  0  0
 33 73  1  0  0  0  0
 33 76  1  0  0  0  0
 34 77  1  0  0  0  0
 34 83  2  0  0  0  0
 35 49  1  0  0  0  0
 35 78  1  0  0  0  0
 35 84  2  0  0  0  0
 36 68  1  0  0  0  0
 36 74  1  0  0  0  0
 36 85  2  0  0  0  0
 37 69  1  0  0  0  0
 37 79  1  0  0  0  0
 37 86  2  0  0  0  0
 38 75  1  0  0  0  0
 38 80  1  0  0  0  0
 38 87  2  0  0  0  0
 39 42  1  0  0  0  0
 40 49  1  0  0  0  0
 41 74  1  0  0  0  0
 42 44  1  0  0  0  0
 43 45  1  0  0  0  0
 43 46  1  0  0  0  0
 44 48  1  0  0  0  0
 45 50  1  0  0  0  0
 46 75  1  0  0  0  0
 47 50  1  0  0  0  0
 47 75  1  0  0  0  0
 48 78  1  0  0  0  0
 49 74  1  0  0  0  0
 50 73  1  0  0  0  0
 51 67  1  0  0  0  0
 52 67  1  0  0  0  0
 53 69  1  0  0  0  0
 54 70  1  0  0  0  0
 55 70  1  0  0  0  0
 56 70  1  0  0  0  0
 57 71  1  0  0  0  0
 58 71  1  0  0  0  0
 59 71  1  0  0  0  0
 60 81  1  0  0  0  0
 61 64  1  0  0  0  0
 62 66  1  0  0  0  0
 63 82  1  0  0  0  0
 64 80  1  0  0  0  0
 65 70  1  0  0  0  0
 65 82  1  0  0  0  0
 66 89  1  0  0  0  0
 68 71  1  0  0  0  0
 68 79  1  0  0  0  0
 69 81  1  0  0  0  0
 72 73  1  0  0  0  0
M  CHG  2  81   1  82   1
M  ISO  4  38 100  66 101  80 100  89 101
M  END
> <Batch ID>
0020

> <Smiles>
CNC(C)C(=O)NC(C(=O)N1Cc2cc([101O:1][101CH2:1]Cc3cc(CC[100NH:0][100C:0](=O)N4CCCC(n5nc(-c6ccc(Oc7ccc(F)cc7F)cc6)c(C(N)=O)c5N)C4)c(CNCC(C)(C)C)c(Cl)c3C(C)C)ccc2CC1C(=O)NC1CCCc2ccccc21)C(C)(C)C

> <Shape>
0.235

> <Color>
0.190

> <Negative vol penalty>
0.000

$$$$

  -OEChem-04052316093D

 83 91  0     1  0  0  0  0  0999 V2000
  -36.5671  -22.9021   36.6488 C   0  0  0  0  0  0  0  0  0  0  0  0
  -35.8946  -23.1953   35.4667 C   0  0  0  0  0  0  0  0  0  0  0  0
  -23.0751   -9.8685   19.9405 C   0  0  0  0  0  0  0  0  0  0  0  0
  -23.8348   -9.8748   22.2339 C   0  0  0  0  0  0  0  0  0  0  0  0
  -37.7161  -22.1130   36.6185 C   0  0  0  0  0  0  0  0  0  0  0  0
  -36.3714  -22.7003   34.2535 C   0  0  0  0  0  0  0  0  0  0  0  0
  -33.0341  -20.9238   29.4355 C   0  0  0  0  0  0  0  0  0  0  0  0
  -22.3308   -8.7156   20.1901 C   0  0  0  0  0  0  0  0  0  0  0  0
  -23.0904   -8.7219   22.4836 C   0  0  0  0  0  0  0  0  0  0  0  0
  -32.6863  -21.5654   28.2476 C   0  0  0  0  0  0  0  0  0  0  0  0
  -19.8618   -7.9252   23.0857 C   0  0  0  0  0  0  0  0  0  0  0  0
  -19.1047   -7.8854   24.2565 C   0  0  0  0  0  0  0  0  0  0  0  0
  -34.5358  -20.4903   27.1327 C   0  0  0  0  0  0  0  0  0  0  0  0
  -20.3453   -5.9473   24.9927 C   0  0  0  0  0  0  0  0  0  0  0  0
  -23.8272  -10.4481   20.9624 C   0  0  0  0  0  0  0  0  0  0  0  0
  -24.1700  -12.9731   20.8428 C   0  0  0  0  0  0  0  0  0  0  0  0
  -38.2018  -21.6001   35.4053 C   0  0  0  0  0  0  0  0  0  0  0  0
  -34.1437  -20.0677   29.4837 C   0  0  0  0  0  0  0  0  0  0  0  0
  -37.5287  -21.9047   34.2067 C   0  0  0  0  0  0  0  0  0  0  0  0
  -34.8940  -19.8371   28.3218 C   0  0  0  0  0  0  0  0  0  0  0  0
  -31.8809  -16.4035   23.1192 C   0  0  0  0  0  0  0  0  0  0  0  0
  -30.6787  -16.5890   22.3930 C   0  0  0  0  0  0  0  0  0  0  0  0
  -22.3383   -8.1423   21.4617 C   0  0  0  0  0  0  0  0  0  0  0  0
  -33.4389  -21.3509   27.0966 C   0  0  0  0  0  0  0  0  0  0  0  0
  -20.8606   -6.9761   22.8683 C   0  0  0  0  0  0  0  0  0  0  0  0
  -19.3465   -6.8965   25.2100 C   0  0  0  0  0  0  0  0  0  0  0  0
  -21.1024   -5.9871   23.8218 C   0  0  0  0  0  0  0  0  0  0  0  0
  -24.5967  -11.6387   20.7049 C   0  0  0  0  0  0  0  0  0  0  0  0
  -30.1746  -17.8230   22.7401 C   0  0  0  0  0  0  0  0  0  0  0  0
  -25.2625  -13.7222   20.4798 C   0  0  0  0  0  0  0  0  0  0  0  0
  -32.0748  -17.5298   23.8882 C   0  0  0  0  0  0  0  0  0  0  0  0
  -22.8997  -13.4893   21.2617 C   0  0  0  0  0  0  0  0  0  0  0  0
  -36.8957  -20.0499   31.0743 C   0  0  0  0  0  0  0  0  0  0  0  0
  -37.2271  -17.1340   29.6922 C   0  0  0  0  0  0  0  0  0  0  0  0
  -36.3952  -15.0258   27.1407 C   0  0  0  0  0  0  0  0  0  0  0  0
  -30.7290  -14.7658   20.6552 C   0  0  0  0  0  0  0  0  0  0  0  0
  -39.4744  -20.7909   35.4170 C   0  0  0  0  0  0  0  0  0  0  0  0
  -34.4897  -19.3625   30.7664 C   0  0  0  0  0  0  0  0  0  0  0  0
  -36.0823  -18.9117   28.3158 C   0  0  0  0  0  0  0  0  0  0  0  0
  -39.7019  -19.9949   34.1344 C   0  0  0  0  0  0  0  0  0  0  0  0
  -29.6140  -12.3526   18.2866 C   0  0  0  0  0  0  0  0  0  0  0  0
  -39.4519  -20.8711   32.9110 C   0  0  0  0  0  0  0  0  0  0  0  0
  -28.1742  -12.0615   18.7159 C   0  0  0  0  0  0  0  0  0  0  0  0
  -30.5290  -12.5810   19.4883 C   0  0  0  0  0  0  0  0  0  0  0  0
  -28.6222  -13.3060   20.8694 C   0  0  0  0  0  0  0  0  0  0  0  0
  -38.0009  -21.3657   32.8738 C   0  0  1  0  0  0  0  0  0  0  0  0
  -35.9460  -18.9121   30.8266 C   0  0  1  0  0  0  0  0  0  0  0  0
  -27.6494  -13.1332   19.6915 C   0  0  2  0  0  0  0  0  0  0  0  0
  -32.7649  -15.2203   23.0625 C   0  0  0  0  0  0  0  0  0  0  0  0
  -28.9502  -18.5169   22.2842 C   0  0  0  0  0  0  0  0  0  0  0  0
  -36.8545  -12.7211   26.2605 C   0  0  0  0  0  0  0  0  0  0  0  0
  -39.9367  -18.0742   28.6510 C   0  0  0  0  0  0  0  0  0  0  0  0
  -39.9063  -16.1556   27.0429 C   0  0  0  0  0  0  0  0  0  0  0  0
  -39.9042  -15.7218   29.4994 C   0  0  0  0  0  0  0  0  0  0  0  0
  -33.5571  -14.2314   27.4104 C   0  0  0  0  0  0  0  0  0  0  0  0
  -31.6993  -20.8446   23.6565 C   0  0  0  0  0  0  0  0  0  0  0  0
  -31.4185  -22.2286   24.2442 C   0  0  0  0  0  0  0  0  0  0  0  0
  -30.8371  -19.7415   24.2807 C   0  0  0  0  0  0  0  0  0  0  0  0
  -31.7209  -22.2745   25.7359 C   0  0  0  0  0  0  0  0  0  1  0  0
  -37.8151  -16.6248   28.3984 C   0  0  1  0  0  0  0  0  0  0  0  0
  -35.9513  -13.5741   27.1377 C   0  0  2  0  0  0  0  0  0  0  0  0
  -39.3694  -16.6631   28.3982 C   0  0  0  0  0  0  0  0  0  0  0  0
  -25.8616  -11.5424   20.2868 N   0  0  0  0  0  0  0  0  0  0  0  0
  -31.0313  -18.3857   23.6498 N   0  0  0  0  0  0  0  0  0  0  0  0
  -26.2390  -12.8259   20.1587 N   0  0  0  0  0  0  0  0  0  0  0  0
  -36.3843  -18.2504   29.5960 N   0  0  0  0  0  0  0  0  0  0  0  0
  -29.9703  -13.6119   20.3658 N   0  0  0  0  0  0  0  0  0  0  0  0
  -25.4734  -15.0536   20.4071 N   0  0  0  0  0  0  0  0  0  0  0  0
  -21.8874  -12.5805   21.5987 N   0  0  0  0  0  0  0  0  0  0  0  0
  -30.0819  -15.6910   21.4736 N   0  0  0  0  0  0  0  0  0  0  0  0
  -37.1202  -20.3142   32.4119 N   0  0  0  0  0  0  0  0  0  0  0  0
  -37.2501  -15.2962   28.1883 N   0  0  0  0  0  0  0  0  0  0  0  0
  -34.5560  -13.4602   26.6266 N   0  3  0  0  0  0  0  0  0  0  0  0
  -22.6639  -14.7200   21.3192 O   0  0  0  0  0  0  0  0  0  0  0  0
  -37.3893  -20.6431   30.1224 O   0  0  0  0  0  0  0  0  0  0  0  0
  -37.4997  -16.5580   30.7484 O   0  0  0  0  0  0  0  0  0  0  0  0
  -36.0240  -15.8377   26.2960 O   0  0  0  0  0  0  0  0  0  0  0  0
  -31.8582  -14.9342   20.1877 O   0  0  0  0  0  0  0  0  0  0  0  0
  -21.6119   -7.0174   21.7058 O   0  0  0  0  0  0  0  0  0  0  0  0
  -33.1020  -21.9764   25.9359 O   0  0  0  0  0  0  0  0  0  1  0  0
  -18.6204   -6.8593   26.3350 F   0  0  0  0  0  0  0  0  0  0  0  0
  -22.0614   -5.0733   23.6192 F   0  0  0  0  0  0  0  0  0  0  0  0
  -33.3115  -17.9486   24.9789 Cl  0  0  0  0  0  0  0  0  0  0  0  0
  1  2  1  0  0  0  0
  1  5  2  0  0  0  0
  2  6  2  0  0  0  0
  3  8  2  0  0  0  0
  3 15  1  0  0  0  0
  4  9  1  0  0  0  0
  4 15  2  0  0  0  0
  5 17  1  0  0  0  0
  6 19  1  0  0  0  0
  7 10  2  0  0  0  0
  7 18  1  0  0  0  0
  8 23  1  0  0  0  0
  9 23  2  0  0  0  0
 10 24  1  0  0  0  0
 11 12  2  0  0  0  0
 11 25  1  0  0  0  0
 12 26  1  0  0  0  0
 13 20  1  0  0  0  0
 13 24  2  0  0  0  0
 14 26  2  0  0  0  0
 14 27  1  0  0  0  0
 15 28  1  0  0  0  0
 16 28  1  0  0  0  0
 16 30  2  0  0  0  0
 16 32  1  0  0  0  0
 17 19  2  0  0  0  0
 17 37  1  0  0  0  0
 18 20  2  0  0  0  0
 18 38  1  0  0  0  0
 19 46  1  0  0  0  0
 20 39  1  0  0  0  0
 21 22  1  0  0  0  0
 21 31  2  0  0  0  0
 21 49  1  0  0  0  0
 22 29  2  0  0  0  0
 22 70  1  0  0  0  0
 23 79  1  0  0  0  0
 24 80  1  0  0  0  0
 25 27  2  0  0  0  0
 25 79  1  0  0  0  0
 26 81  1  0  0  0  0
 27 82  1  0  0  0  0
 28 63  2  0  0  0  0
 29 50  1  0  0  0  0
 29 64  1  0  0  0  0
 30 65  1  0  0  0  0
 30 68  1  0  0  0  0
 31 64  1  0  0  0  0
 31 83  1  0  0  0  0
 32 69  1  0  0  0  0
 32 74  2  0  0  0  0
 33 47  1  0  0  0  0
 33 71  1  0  0  0  0
 33 75  2  0  0  0  0
 34 60  1  0  0  0  0
 34 66  1  0  0  0  0
 34 76  2  0  0  0  0
 35 61  1  0  0  0  0
 35 72  1  0  0  0  0
 35 77  2  0  0  0  0
 36 67  1  0  0  0  0
 36 70  1  0  0  0  0
 36 78  2  0  0  0  0
 37 40  1  0  0  0  0
 38 47  1  0  0  0  0
 39 66  1  0  0  0  0
 40 42  1  0  0  0  0
 41 43  1  0  0  0  0
 41 44  1  0  0  0  0
 42 46  1  0  0  0  0
 43 48  1  0  0  0  0
 44 67  1  0  0  0  0
 45 48  1  0  0  0  0
 45 67  1  0  0  0  0
 46 71  1  0  0  0  0
 47 66  1  0  0  0  0
 48 65  1  0  0  0  0
 51 61  1  0  0  0  0
 52 62  1  0  0  0  0
 53 62  1  0  0  0  0
 54 62  1  0  0  0  0
 55 73  1  0  0  0  0
 56 57  1  0  0  0  0
 56 58  1  0  0  0  0
 57 59  1  0  0  0  0
 58 64  1  0  0  0  0
 59 80  1  0  0  0  0
 60 62  1  0  0  0  0
 60 72  1  0  0  0  0
 61 73  1  0  0  0  0
 63 65  1  0  0  0  0
M  CHG  1  73   1
M  ISO  4  36 100  59 101  70 100  80 101
M  END
> <Batch ID>
0020

> <Smiles>
CNC(C)C(=O)NC(C(=O)N1Cc2cc([101O:1][101CH2:1]CCCn3c(C)c([100NH:0][100C:0](=O)N4CCCC(n5nc(-c6ccc(Oc7ccc(F)cc7F)cc6)c(C(N)=O)c5N)C4)c(C)c3Cl)ccc2CC1C(=O)NC1CCCc2ccccc21)C(C)(C)C

> <Shape>
0.171

> <Color>
0.200

> <Negative vol penalty>
0.000

$$$$

  -OEChem-04052316093D

 86 94  0     1  0  0  0  0  0999 V2000
  -30.1254  -33.7901   22.6290 C   0  0  0  0  0  0  0  0  0  0  0  0
  -30.3323  -32.4205   22.4992 C   0  0  0  0  0  0  0  0  0  0  0  0
  -23.0571   -9.8659   19.9936 C   0  0  0  0  0  0  0  0  0  0  0  0
  -23.7969   -9.9413   22.2923 C   0  0  0  0  0  0  0  0  0  0  0  0
  -28.8894  -34.3420   22.2949 C   0  0  0  0  0  0  0  0  0  0  0  0
  -29.3028  -31.6019   22.0361 C   0  0  0  0  0  0  0  0  0  0  0  0
  -29.8630  -26.6007   18.5460 C   0  0  0  0  0  0  0  0  0  0  0  0
  -22.2915   -8.7349   20.2770 C   0  0  0  0  0  0  0  0  0  0  0  0
  -23.0313   -8.8103   22.5758 C   0  0  0  0  0  0  0  0  0  0  0  0
  -29.8768  -25.2405   18.8515 C   0  0  0  0  0  0  0  0  0  0  0  0
  -19.7848   -8.0884   23.1758 C   0  0  0  0  0  0  0  0  0  0  0  0
  -19.0171   -8.1026   24.3403 C   0  0  0  0  0  0  0  0  0  0  0  0
  -27.5221  -25.1089   18.3442 C   0  0  0  0  0  0  0  0  0  0  0  0
  -29.4866  -18.5794   20.6930 C   0  0  0  0  0  0  0  0  0  0  0  0
  -20.2188   -6.1719   25.1561 C   0  0  0  0  0  0  0  0  0  0  0  0
  -23.8098  -10.4691   21.0012 C   0  0  0  0  0  0  0  0  0  0  0  0
  -24.1957  -12.9823   20.7955 C   0  0  0  0  0  0  0  0  0  0  0  0
  -27.8474  -33.5311   21.8183 C   0  0  0  0  0  0  0  0  0  0  0  0
  -28.6743  -27.2287   18.1472 C   0  0  0  0  0  0  0  0  0  0  0  0
  -28.0513  -32.1433   21.6966 C   0  0  0  0  0  0  0  0  0  0  0  0
  -27.4965  -26.4767   18.0317 C   0  0  0  0  0  0  0  0  0  0  0  0
  -30.7022  -17.8990   20.7640 C   0  0  0  0  0  0  0  0  0  0  0  0
  -31.5530  -19.2281   18.9346 C   0  0  0  0  0  0  0  0  0  0  0  0
  -29.3041  -19.5841   19.7427 C   0  0  0  0  0  0  0  0  0  0  0  0
  -22.2786   -8.2071   21.5681 C   0  0  0  0  0  0  0  0  0  0  0  0
  -28.7056  -24.4950   18.7534 C   0  0  0  0  0  0  0  0  0  0  0  0
  -20.7695   -7.1159   23.0014 C   0  0  0  0  0  0  0  0  0  0  0  0
  -19.2341   -7.1444   25.3304 C   0  0  0  0  0  0  0  0  0  0  0  0
  -20.9865   -6.1577   23.9916 C   0  0  0  0  0  0  0  0  0  0  0  0
  -31.7354  -18.2234   19.8848 C   0  0  0  0  0  0  0  0  0  0  0  0
  -30.3373  -19.9084   18.8635 C   0  0  0  0  0  0  0  0  0  0  0  0
  -24.6013  -11.6371   20.7089 C   0  0  0  0  0  0  0  0  0  0  0  0
  -25.3036  -13.7001   20.4163 C   0  0  0  0  0  0  0  0  0  0  0  0
  -22.9306  -13.5338   21.1841 C   0  0  0  0  0  0  0  0  0  0  0  0
  -26.8750  -29.5740   19.3157 C   0  0  0  0  0  0  0  0  0  0  0  0
  -25.2497  -29.1862   16.5354 C   0  0  0  0  0  0  0  0  0  0  0  0
  -24.4072  -27.1464   13.9323 C   0  0  0  0  0  0  0  0  0  0  0  0
  -30.8021  -14.6333   20.6199 C   0  0  0  0  0  0  0  0  0  0  0  0
  -26.5137  -34.1666   21.5147 C   0  0  0  0  0  0  0  0  0  0  0  0
  -28.6820  -28.6911   17.7954 C   0  0  0  0  0  0  0  0  0  0  0  0
  -26.1985  -27.0991   17.5885 C   0  0  0  0  0  0  0  0  0  0  0  0
  -25.5945  -33.2823   20.6760 C   0  0  0  0  0  0  0  0  0  0  0  0
  -29.6449  -12.1853   18.3080 C   0  0  0  0  0  0  0  0  0  0  0  0
  -25.5721  -31.8605   21.2280 C   0  0  0  0  0  0  0  0  0  0  0  0
  -28.1989  -11.9311   18.7376 C   0  0  0  0  0  0  0  0  0  0  0  0
  -30.5551  -12.4330   19.5089 C   0  0  0  0  0  0  0  0  0  0  0  0
  -28.6541  -13.2444   20.8511 C   0  0  0  0  0  0  0  0  0  0  0  0
  -26.9670  -31.2258   21.1742 C   0  0  1  0  0  0  0  0  0  0  0  0
  -27.3034  -29.3368   17.8952 C   0  0  1  0  0  0  0  0  0  0  0  0
  -27.6874  -13.0446   19.6713 C   0  0  2  0  0  0  0  0  0  0  0  0
  -32.6857  -19.5435   18.0104 C   0  0  0  0  0  0  0  0  0  0  0  0
  -23.0324  -27.0969   11.8335 C   0  0  0  0  0  0  0  0  0  0  0  0
  -26.6791  -21.1569   21.4521 C   0  0  0  0  0  0  0  0  0  0  0  0
  -22.7152  -28.8756   18.2058 C   0  0  0  0  0  0  0  0  0  0  0  0
  -21.5900  -27.9045   16.1911 C   0  0  0  0  0  0  0  0  0  0  0  0
  -22.4378  -30.2498   16.1348 C   0  0  0  0  0  0  0  0  0  0  0  0
  -26.9918  -19.7413   18.8548 C   0  0  0  0  0  0  0  0  0  0  0  0
  -26.7915  -26.6759   12.2433 C   0  0  0  0  0  0  0  0  0  0  0  0
  -30.8937  -16.8249   21.7808 C   0  0  0  0  0  0  0  0  0  0  0  0
  -27.5099  -22.6085   19.5704 C   0  0  0  0  0  0  0  0  0  1  0  0
  -24.0871  -28.3342   16.0866 C   0  0  1  0  0  0  0  0  0  0  0  0
  -24.4019  -27.3780   12.4320 C   0  0  2  0  0  0  0  0  0  0  0  0
  -27.8290  -21.4339   20.4927 C   0  0  2  0  0  0  0  0  0  0  0  0
  -22.7314  -28.8294   16.6648 C   0  0  0  0  0  0  0  0  0  0  0  0
  -25.8680  -11.5054   20.3061 N   0  0  0  0  0  0  0  0  0  0  0  0
  -26.2678  -12.7771   20.1361 N   0  0  0  0  0  0  0  0  0  0  0  0
  -26.2557  -28.5335   17.2618 N   0  0  0  0  0  0  0  0  0  0  0  0
  -30.0144  -13.5013   20.3529 N   0  0  0  0  0  0  0  0  0  0  0  0
  -25.5373  -15.0245   20.2984 N   0  0  0  0  0  0  0  0  0  0  0  0
  -21.9004  -12.6542   21.5437 N   0  0  0  0  0  0  0  0  0  0  0  0
  -27.2742  -30.7939   19.8275 N   0  0  0  0  0  0  0  0  0  0  0  0
  -24.1404  -28.3060   14.6290 N   0  0  0  0  0  0  0  0  0  0  0  0
  -30.2115  -15.6012   21.4231 N   0  0  0  0  0  0  0  0  0  0  0  0
  -28.0724  -20.2461   19.6988 N   0  0  3  0  0  0  0  0  0  0  0  0
  -25.3967  -26.4894   11.7673 N   0  3  0  0  0  0  0  0  0  0  0  0
  -22.7148  -14.7695   21.1959 O   0  0  0  0  0  0  0  0  0  0  0  0
  -26.2288  -28.7145   19.9035 O   0  0  0  0  0  0  0  0  0  0  0  0
  -25.2681  -30.3851   16.2459 O   0  0  0  0  0  0  0  0  0  0  0  0
  -24.6225  -26.0461   14.4357 O   0  0  0  0  0  0  0  0  0  0  0  0
  -31.9448  -14.7736   20.1710 O   0  0  0  0  0  0  0  0  0  0  0  0
  -21.5314   -7.1037   21.8451 O   0  0  0  0  0  0  0  0  0  0  0  0
  -28.7161  -23.1672   19.0515 O   0  0  0  0  0  0  0  0  0  1  0  0
  -18.4978   -7.1590   26.4493 F   0  0  0  0  0  0  0  0  0  0  0  0
  -21.9319   -5.2217   23.8302 F   0  0  0  0  0  0  0  0  0  0  0  0
  -32.9036  -17.5676   19.9546 F   0  0  0  0  0  0  0  0  0  0  0  0
  -30.1163  -21.1560   17.6802 Cl  0  0  0  0  0  0  0  0  0  0  0  0
  1  2  1  0  0  0  0
  1  5  2  0  0  0  0
  2  6  2  0  0  0  0
  3  8  2  0  0  0  0
  3 16  1  0  0  0  0
  4  9  1  0  0  0  0
  4 16  2  0  0  0  0
  5 18  1  0  0  0  0
  6 20  1  0  0  0  0
  7 10  2  0  0  0  0
  7 19  1  0  0  0  0
  8 25  1  0  0  0  0
  9 25  2  0  0  0  0
 10 26  1  0  0  0  0
 11 12  2  0  0  0  0
 11 27  1  0  0  0  0
 12 28  1  0  0  0  0
 13 21  1  0  0  0  0
 13 26  2  0  0  0  0
 14 22  2  0  0  0  0
 14 24  1  0  0  0  0
 15 28  2  0  0  0  0
 15 29  1  0  0  0  0
 16 32  1  0  0  0  0
 17 32  1  0  0  0  0
 17 33  2  0  0  0  0
 17 34  1  0  0  0  0
 18 20  2  0  0  0  0
 18 39  1  0  0  0  0
 19 21  2  0  0  0  0
 19 40  1  0  0  0  0
 20 48  1  0  0  0  0
 21 41  1  0  0  0  0
 22 30  1  0  0  0  0
 22 59  1  0  0  0  0
 23 30  2  0  0  0  0
 23 31  1  0  0  0  0
 23 51  1  0  0  0  0
 24 31  2  0  0  0  0
 24 74  1  0  0  0  0
 25 81  1  0  0  0  0
 26 82  1  0  0  0  0
 27 29  2  0  0  0  0
 27 81  1  0  0  0  0
 28 83  1  0  0  0  0
 29 84  1  0  0  0  0
 30 85  1  0  0  0  0
 31 86  1  0  0  0  0
 32 65  2  0  0  0  0
 33 66  1  0  0  0  0
 33 69  1  0  0  0  0
 34 70  1  0  0  0  0
 34 76  2  0  0  0  0
 35 49  1  0  0  0  0
 35 71  1  0  0  0  0
 35 77  2  0  0  0  0
 36 61  1  0  0  0  0
 36 67  1  0  0  0  0
 36 78  2  0  0  0  0
 37 62  1  0  0  0  0
 37 72  1  0  0  0  0
 37 79  2  0  0  0  0
 38 68  1  0  0  0  0
 38 73  1  0  0  0  0
 38 80  2  0  0  0  0
 39 42  1  0  0  0  0
 40 49  1  0  0  0  0
 41 67  1  0  0  0  0
 42 44  1  0  0  0  0
 43 45  1  0  0  0  0
 43 46  1  0  0  0  0
 44 48  1  0  0  0  0
 45 50  1  0  0  0  0
 46 68  1  0  0  0  0
 47 50  1  0  0  0  0
 47 68  1  0  0  0  0
 48 71  1  0  0  0  0
 49 67  1  0  0  0  0
 50 66  1  0  0  0  0
 52 62  1  0  0  0  0
 53 63  1  0  0  0  0
 54 64  1  0  0  0  0
 55 64  1  0  0  0  0
 56 64  1  0  0  0  0
 57 74  1  0  0  0  0
 58 75  1  0  0  0  0
 59 73  1  0  0  0  0
 60 63  1  0  0  0  0
 60 82  1  0  0  0  0
 61 64  1  0  0  0  0
 61 72  1  0  0  0  0
 62 75  1  0  0  0  0
 63 74  1  0  0  0  0
 65 66  1  0  0  0  0
M  CHG  1  75   1
M  ISO  4  38 100  60 101  73 100  82 101
M  END
> <Batch ID>
0020

> <Smiles>
CNC(C)C(=O)NC(C(=O)N1Cc2cc([101O:1][101CH2:1]C(C)N(C)c3cc(C[100NH:0][100C:0](=O)N4CCCC(n5nc(-c6ccc(Oc7ccc(F)cc7F)cc6)c(C(N)=O)c5N)C4)c(F)c(C)c3Cl)ccc2CC1C(=O)NC1CCCc2ccccc21)C(C)(C)C

> <Shape>
0.270

> <Color>
0.220

> <Negative vol penalty>
0.000

$$$$

  -OEChem-04052316093D

 83 91  0     1  0  0  0  0  0999 V2000
  -25.3842  -30.6176   24.7918 C   0  0  0  0  0  0  0  0  0  0  0  0
  -25.8120  -29.2959   24.7170 C   0  0  0  0  0  0  0  0  0  0  0  0
  -23.5611   -9.6981   20.6751 C   0  0  0  0  0  0  0  0  0  0  0  0
  -24.1105  -10.3373   22.9393 C   0  0  0  0  0  0  0  0  0  0  0  0
  -24.9249  -31.2663   23.6463 C   0  0  0  0  0  0  0  0  0  0  0  0
  -25.7797  -28.6218   23.4967 C   0  0  0  0  0  0  0  0  0  0  0  0
  -30.0166  -25.9907   22.6183 C   0  0  0  0  0  0  0  0  0  0  0  0
  -22.9601   -8.5324   21.1500 C   0  0  0  0  0  0  0  0  0  0  0  0
  -23.5095   -9.1716   23.4142 C   0  0  0  0  0  0  0  0  0  0  0  0
  -30.1577  -24.7716   23.2798 C   0  0  0  0  0  0  0  0  0  0  0  0
  -20.0307   -7.6481   22.5886 C   0  0  0  0  0  0  0  0  0  0  0  0
  -18.7892   -7.2967   22.0589 C   0  0  0  0  0  0  0  0  0  0  0  0
  -29.4643  -23.6134   21.2806 C   0  0  0  0  0  0  0  0  0  0  0  0
  -19.7181   -5.2127   21.2644 C   0  0  0  0  0  0  0  0  0  0  0  0
  -24.1363  -10.6006   21.5697 C   0  0  0  0  0  0  0  0  0  0  0  0
  -24.1446  -13.0553   20.8756 C   0  0  0  0  0  0  0  0  0  0  0  0
  -24.8961  -30.6029   22.4095 C   0  0  0  0  0  0  0  0  0  0  0  0
  -29.5870  -26.0310   21.2840 C   0  0  0  0  0  0  0  0  0  0  0  0
  -25.3184  -29.2618   22.3339 C   0  0  0  0  0  0  0  0  0  0  0  0
  -29.3210  -24.8341   20.6036 C   0  0  0  0  0  0  0  0  0  0  0  0
  -22.9343   -8.2691   22.5196 C   0  0  0  0  0  0  0  0  0  0  0  0
  -29.8788  -23.5829   22.6119 C   0  0  0  0  0  0  0  0  0  0  0  0
  -21.1160   -6.7819   22.4562 C   0  0  0  0  0  0  0  0  0  0  0  0
  -18.6328   -6.0789   21.3968 C   0  0  0  0  0  0  0  0  0  0  0  0
  -20.9597   -5.5641   21.7941 C   0  0  0  0  0  0  0  0  0  0  0  0
  -24.7578  -11.8046   21.0797 C   0  0  0  0  0  0  0  0  0  0  0  0
  -30.1330  -17.8967   23.9557 C   0  0  0  0  0  0  0  0  0  0  0  0
  -30.1493  -18.7142   25.0611 C   0  0  0  0  0  0  0  0  0  0  0  0
  -25.1535  -13.8595   20.4046 C   0  0  0  0  0  0  0  0  0  0  0  0
  -29.8938  -20.0145   23.3954 C   0  0  0  0  0  0  0  0  0  0  0  0
  -22.7847  -13.4544   21.0925 C   0  0  0  0  0  0  0  0  0  0  0  0
  -27.0780  -27.2641   19.7715 C   0  0  0  0  0  0  0  0  0  0  0  0
  -28.6891  -26.2979   17.1270 C   0  0  0  0  0  0  0  0  0  0  0  0
  -31.0056  -24.2044   15.7494 C   0  0  0  0  0  0  0  0  0  0  0  0
  -31.1107  -13.6878   20.9816 C   0  0  0  0  0  0  0  0  0  0  0  0
  -24.3470  -31.3306   21.2080 C   0  0  0  0  0  0  0  0  0  0  0  0
  -29.4655  -27.3527   20.5764 C   0  0  0  0  0  0  0  0  0  0  0  0
  -28.8763  -24.8220   19.1646 C   0  0  0  0  0  0  0  0  0  0  0  0
  -24.6967  -30.6640   19.8799 C   0  0  0  0  0  0  0  0  0  0  0  0
  -29.2527  -13.6713   17.9445 C   0  0  0  0  0  0  0  0  0  0  0  0
  -24.4421  -29.1618   19.9532 C   0  0  0  0  0  0  0  0  0  0  0  0
  -27.8347  -13.3039   18.3852 C   0  0  0  0  0  0  0  0  0  0  0  0
  -30.3078  -12.9313   18.7637 C   0  0  0  0  0  0  0  0  0  0  0  0
  -28.7559  -12.7124   20.6656 C   0  0  0  0  0  0  0  0  0  0  0  0
  -25.3219  -28.5048   21.0236 C   0  0  1  0  0  0  0  0  0  0  0  0
  -28.5267  -27.3031   19.3749 C   0  0  1  0  0  0  0  0  0  0  0  0
  -27.6578  -13.4760   19.9058 C   0  0  2  0  0  0  0  0  0  0  0  0
  -28.4615  -18.3898   20.9825 C   0  0  0  0  0  0  0  0  0  0  0  0
  -32.0806  -23.6253   13.5570 C   0  0  0  0  0  0  0  0  0  0  0  0
  -26.1618  -24.8111   16.2834 C   0  0  0  0  0  0  0  0  0  0  0  0
  -27.5510  -23.5193   14.6495 C   0  0  0  0  0  0  0  0  0  0  0  0
  -27.3450  -25.9951   14.4252 C   0  0  0  0  0  0  0  0  0  0  0  0
  -33.6970  -24.9278   16.7456 C   0  0  0  0  0  0  0  0  0  0  0  0
  -30.2542  -16.4346   23.8069 C   0  0  0  0  0  0  0  0  0  0  0  0
  -29.7123  -21.2126   22.5106 C   0  0  0  0  0  0  0  0  0  1  0  0
  -31.6530  -15.9346   23.3694 C   0  0  0  0  0  0  0  0  0  0  0  0
  -29.8881  -18.3653   21.5038 C   0  0  0  0  0  0  0  0  0  0  0  0
  -31.7656  -14.4153   23.2622 C   0  0  0  0  0  0  0  0  0  0  0  0
  -28.7341  -25.0323   16.3054 C   0  0  1  0  0  0  0  0  0  0  0  0
  -32.1753  -24.4691   14.8187 C   0  0  2  0  0  0  0  0  0  0  0  0
  -27.4545  -24.8394   15.4436 C   0  0  0  0  0  0  0  0  0  0  0  0
  -26.0556  -11.8090   20.7641 N   0  0  0  0  0  0  0  0  0  0  0  0
  -29.9996  -20.0313   24.7056 N   0  0  0  0  0  0  0  0  0  0  0  0
  -29.9682  -18.7439   22.8963 N   0  0  0  0  0  0  0  0  0  0  0  0
  -26.2662  -13.0723   20.3568 N   0  0  0  0  0  0  0  0  0  0  0  0
  -28.7663  -26.1400   18.5181 N   0  0  0  0  0  0  0  0  0  0  0  0
  -30.0844  -13.1367   20.1968 N   0  0  0  0  0  0  0  0  0  0  0  0
  -25.1885  -15.1562   20.0308 N   0  0  0  0  0  0  0  0  0  0  0  0
  -21.8787  -12.5027   21.5802 N   0  0  0  0  0  0  0  0  0  0  0  0
  -26.6748  -28.3423   20.5360 N   0  0  0  0  0  0  0  0  0  0  0  0
  -29.9710  -25.0901   15.5340 N   0  0  0  0  0  0  0  0  0  0  0  0
  -30.8140  -13.8549   22.3288 N   0  0  0  0  0  0  0  0  0  0  0  0
  -33.4619  -24.1520   15.5007 N   0  3  0  0  0  0  0  0  0  0  0  0
  -22.3810  -14.6160   20.8450 O   0  0  0  0  0  0  0  0  0  0  0  0
  -26.3775  -26.3261   19.4094 O   0  0  0  0  0  0  0  0  0  0  0  0
  -28.5964  -27.3871   16.5553 O   0  0  0  0  0  0  0  0  0  0  0  0
  -31.0079  -23.2999   16.5815 O   0  0  0  0  0  0  0  0  0  0  0  0
  -32.2081  -14.0122   20.5153 O   0  0  0  0  0  0  0  0  0  0  0  0
  -22.3478   -7.1319   22.9834 O   0  0  0  0  0  0  0  0  0  0  0  0
  -30.0151  -22.3916   23.2554 O   0  0  0  0  0  0  0  0  0  1  0  0
  -17.4401   -5.7409   20.8895 F   0  0  0  0  0  0  0  0  0  0  0  0
  -21.9983   -4.7273   21.6648 F   0  0  0  0  0  0  0  0  0  0  0  0
  -30.3273  -18.2282   26.6843 Cl  0  0  0  0  0  0  0  0  0  0  0  0
  1  2  1  0  0  0  0
  1  5  2  0  0  0  0
  2  6  2  0  0  0  0
  3  8  2  0  0  0  0
  3 15  1  0  0  0  0
  4  9  1  0  0  0  0
  4 15  2  0  0  0  0
  5 17  1  0  0  0  0
  6 19  1  0  0  0  0
  7 10  2  0  0  0  0
  7 18  1  0  0  0  0
  8 21  1  0  0  0  0
  9 21  2  0  0  0  0
 10 22  1  0  0  0  0
 11 12  2  0  0  0  0
 11 23  1  0  0  0  0
 12 24  1  0  0  0  0
 13 20  1  0  0  0  0
 13 22  2  0  0  0  0
 14 24  2  0  0  0  0
 14 25  1  0  0  0  0
 15 26  1  0  0  0  0
 16 26  1  0  0  0  0
 16 29  2  0  0  0  0
 16 31  1  0  0  0  0
 17 19  2  0  0  0  0
 17 36  1  0  0  0  0
 18 20  2  0  0  0  0
 18 37  1  0  0  0  0
 19 45  1  0  0  0  0
 20 38  1  0  0  0  0
 21 79  1  0  0  0  0
 22 80  1  0  0  0  0
 23 25  2  0  0  0  0
 23 79  1  0  0  0  0
 24 81  1  0  0  0  0
 25 82  1  0  0  0  0
 26 62  2  0  0  0  0
 27 28  2  0  0  0  0
 27 54  1  0  0  0  0
 27 64  1  0  0  0  0
 28 63  1  0  0  0  0
 28 83  1  0  0  0  0
 29 65  1  0  0  0  0
 29 68  1  0  0  0  0
 30 55  1  0  0  0  0
 30 63  2  0  0  0  0
 30 64  1  0  0  0  0
 31 69  1  0  0  0  0
 31 74  2  0  0  0  0
 32 46  1  0  0  0  0
 32 70  1  0  0  0  0
 32 75  2  0  0  0  0
 33 59  1  0  0  0  0
 33 66  1  0  0  0  0
 33 76  2  0  0  0  0
 34 60  1  0  0  0  0
 34 71  1  0  0  0  0
 34 77  2  0  0  0  0
 35 67  1  0  0  0  0
 35 72  1  0  0  0  0
 35 78  2  0  0  0  0
 36 39  1  0  0  0  0
 37 46  1  0  0  0  0
 38 66  1  0  0  0  0
 39 41  1  0  0  0  0
 40 42  1  0  0  0  0
 40 43  1  0  0  0  0
 41 45  1  0  0  0  0
 42 47  1  0  0  0  0
 43 67  1  0  0  0  0
 44 47  1  0  0  0  0
 44 67  1  0  0  0  0
 45 70  1  0  0  0  0
 46 66  1  0  0  0  0
 47 65  1  0  0  0  0
 48 57  1  0  0  0  0
 49 60  1  0  0  0  0
 50 61  1  0  0  0  0
 51 61  1  0  0  0  0
 52 61  1  0  0  0  0
 53 73  1  0  0  0  0
 54 56  1  0  0  0  0
 55 80  1  0  0  0  0
 56 58  1  0  0  0  0
 57 64  1  0  0  0  0
 58 72  1  0  0  0  0
 59 61  1  0  0  0  0
 59 71  1  0  0  0  0
 60 73  1  0  0  0  0
 62 65  1  0  0  0  0
M  CHG  1  73   1
M  ISO  4  35 100  55 101  72 100  80 101
M  END
> <Batch ID>
0020

> <Smiles>
CCn1c([101CH2:1][101O:1]c2ccc3c(c2)CN(C(=O)C(NC(=O)C(C)NC)C(C)(C)C)C(C(=O)NC2CCCc4ccccc42)C3)nc(Cl)c1CCC[100NH:0][100C:0](=O)N1CCCC(n2nc(-c3ccc(Oc4ccc(F)cc4F)cc3)c(C(N)=O)c2N)C1

> <Shape>
0.277

> <Color>
0.164

> <Negative vol penalty>
0.000

$$$$

  -OEChem-04052316093D

 82 90  0     1  0  0  0  0  0999 V2000
  -19.5225  -12.0021   20.4179 C   0  0  0  0  0  0  0  0  0  0  0  0
  -20.1409  -13.2249   20.6580 C   0  0  0  0  0  0  0  0  0  0  0  0
  -21.5376  -29.5011   19.7305 C   0  0  0  0  0  0  0  0  0  0  0  0
  -21.7486  -27.8769   21.5065 C   0  0  0  0  0  0  0  0  0  0  0  0
  -20.2022  -10.8143   20.6844 C   0  0  0  0  0  0  0  0  0  0  0  0
  -21.4390  -13.2607   21.1658 C   0  0  0  0  0  0  0  0  0  0  0  0
  -25.7822  -17.3831   19.8819 C   0  0  0  0  0  0  0  0  0  0  0  0
  -20.2538  -29.0315   19.4535 C   0  0  0  0  0  0  0  0  0  0  0  0
  -20.4647  -27.4072   21.2296 C   0  0  0  0  0  0  0  0  0  0  0  0
  -26.2250  -18.5201   20.5563 C   0  0  0  0  0  0  0  0  0  0  0  0
  -17.2805  -28.3467   21.8608 C   0  0  0  0  0  0  0  0  0  0  0  0
  -16.4284  -28.1185   22.9413 C   0  0  0  0  0  0  0  0  0  0  0  0
  -28.0012  -17.2288   21.5546 C   0  0  0  0  0  0  0  0  0  0  0  0
  -28.0934  -22.9270   24.7576 C   0  0  0  0  0  0  0  0  0  0  0  0
  -16.2509  -25.7932   22.3102 C   0  0  0  0  0  0  0  0  0  0  0  0
  -22.2851  -28.9238   20.7570 C   0  0  0  0  0  0  0  0  0  0  0  0
  -23.9670  -30.4339   21.9395 C   0  0  0  0  0  0  0  0  0  0  0  0
  -21.5129  -10.8355   21.1866 C   0  0  0  0  0  0  0  0  0  0  0  0
  -26.4401  -16.1558   20.0475 C   0  0  0  0  0  0  0  0  0  0  0  0
  -22.1365  -12.0720   21.4405 C   0  0  0  0  0  0  0  0  0  0  0  0
  -27.5664  -16.0782   20.8791 C   0  0  0  0  0  0  0  0  0  0  0  0
  -27.5023  -21.9093   24.0090 C   0  0  0  0  0  0  0  0  0  0  0  0
  -27.6851  -21.8637   22.6269 C   0  0  0  0  0  0  0  0  0  0  0  0
  -29.0502  -23.8538   22.7420 C   0  0  0  0  0  0  0  0  0  0  0  0
  -19.7173  -27.9846   20.2030 C   0  0  0  0  0  0  0  0  0  0  0  0
  -27.3329  -18.4424   21.3951 C   0  0  0  0  0  0  0  0  0  0  0  0
  -17.6178  -27.2982   21.0049 C   0  0  0  0  0  0  0  0  0  0  0  0
  -15.9136  -26.8418   23.1660 C   0  0  0  0  0  0  0  0  0  0  0  0
  -17.1030  -26.0214   21.2296 C   0  0  0  0  0  0  0  0  0  0  0  0
  -28.8673  -23.8993   24.1241 C   0  0  0  0  0  0  0  0  0  0  0  0
  -28.4591  -22.8360   21.9934 C   0  0  0  0  0  0  0  0  0  0  0  0
  -23.6116  -29.4081   21.0433 C   0  0  0  0  0  0  0  0  0  0  0  0
  -25.3353  -30.5107   21.8483 C   0  0  0  0  0  0  0  0  0  0  0  0
  -23.1347  -31.2448   22.7794 C   0  0  0  0  0  0  0  0  0  0  0  0
  -25.6110  -13.2996   21.1692 C   0  0  0  0  0  0  0  0  0  0  0  0
  -28.5669  -12.4642   20.1268 C   0  0  0  0  0  0  0  0  0  0  0  0
  -31.7376  -13.4372   19.3225 C   0  0  0  0  0  0  0  0  0  0  0  0
  -29.5434  -26.5612   20.2532 C   0  0  0  0  0  0  0  0  0  0  0  0
  -22.1901   -9.5256   21.5037 C   0  0  0  0  0  0  0  0  0  0  0  0
  -25.9661  -14.9446   19.2920 C   0  0  0  0  0  0  0  0  0  0  0  0
  -28.3201  -14.7891   21.0752 C   0  0  0  0  0  0  0  0  0  0  0  0
  -23.7004   -9.6497   21.6878 C   0  0  0  0  0  0  0  0  0  0  0  0
  -28.9327  -29.7480   18.7876 C   0  0  0  0  0  0  0  0  0  0  0  0
  -24.0328  -10.8347   22.5889 C   0  0  0  0  0  0  0  0  0  0  0  0
  -27.5318  -30.1148   19.2804 C   0  0  0  0  0  0  0  0  0  0  0  0
  -29.0591  -28.2519   18.5087 C   0  0  0  0  0  0  0  0  0  0  0  0
  -27.2676  -27.7445   20.1232 C   0  0  0  0  0  0  0  0  0  0  0  0
  -23.5528  -12.1519   21.9676 C   0  0  1  0  0  0  0  0  0  0  0  0
  -26.4012  -13.6313   19.9350 C   0  0  1  0  0  0  0  0  0  0  0  0
  -27.1079  -29.2343   20.4713 C   0  0  2  0  0  0  0  0  0  0  0  0
  -26.6786  -20.8813   24.7138 C   0  0  0  0  0  0  0  0  0  0  0  0
  -33.9394  -12.5234   18.5386 C   0  0  0  0  0  0  0  0  0  0  0  0
  -29.1114  -11.3808   22.9267 C   0  0  0  0  0  0  0  0  0  0  0  0
  -31.5525  -11.3668   22.3709 C   0  0  0  0  0  0  0  0  0  0  0  0
  -29.9702   -9.9455   21.0675 C   0  0  0  0  0  0  0  0  0  0  0  0
  -31.6669  -15.0674   16.8535 C   0  0  0  0  0  0  0  0  0  0  0  0
  -29.8828  -24.9012   22.0665 C   0  0  0  0  0  0  0  0  0  0  0  0
  -27.0398  -20.7598   21.8420 C   0  0  0  0  0  0  0  0  0  1  0  0
  -29.9499  -12.4513   20.7319 C   0  0  1  0  0  0  0  0  0  0  0  0
  -32.6103  -13.1314   18.1186 C   0  0  2  0  0  0  0  0  0  0  0  0
  -30.1309  -11.3101   21.7723 C   0  0  0  0  0  0  0  0  0  0  0  0
  -24.6688  -28.8718   20.4279 N   0  0  0  0  0  0  0  0  0  0  0  0
  -25.7019  -29.5633   20.9382 N   0  0  0  0  0  0  0  0  0  0  0  0
  -27.8140  -13.6312   20.3197 N   0  0  0  0  0  0  0  0  0  0  0  0
  -28.6434  -27.4734   19.6778 N   0  0  0  0  0  0  0  0  0  0  0  0
  -26.2486  -31.2955   22.4586 N   0  0  0  0  0  0  0  0  0  0  0  0
  -21.7494  -31.0343   22.7505 N   0  0  0  0  0  0  0  0  0  0  0  0
  -24.4589  -12.5776   20.9225 N   0  0  0  0  0  0  0  0  0  0  0  0
  -30.8845  -12.3937   19.6132 N   0  0  0  0  0  0  0  0  0  0  0  0
  -29.0719  -25.8690   21.3619 N   0  0  0  0  0  0  0  0  0  0  0  0
  -32.8857  -14.3773   17.3487 N   0  3  0  0  0  0  0  0  0  0  0  0
  -23.6041  -32.1410   23.5211 O   0  0  0  0  0  0  0  0  0  0  0  0
  -26.0172  -13.6701   22.2644 O   0  0  0  0  0  0  0  0  0  0  0  0
  -28.1720  -11.4781   19.4996 O   0  0  0  0  0  0  0  0  0  0  0  0
  -31.8085  -14.4944   19.9453 O   0  0  0  0  0  0  0  0  0  0  0  0
  -30.6846  -26.3812   19.8147 O   0  0  0  0  0  0  0  0  0  0  0  0
  -18.4644  -27.5262   19.9331 O   0  0  0  0  0  0  0  0  0  0  0  0
  -27.7668  -19.5505   22.0552 O   0  0  0  0  0  0  0  0  0  1  0  0
  -15.0966  -26.6224   24.2045 F   0  0  0  0  0  0  0  0  0  0  0  0
  -17.4244  -25.0098   20.4115 F   0  0  0  0  0  0  0  0  0  0  0  0
  -29.5804  -25.1411   25.0897 Cl  0  0  0  0  0  0  0  0  0  0  0  0
  -28.6847  -22.7770   20.2757 Cl  0  0  0  0  0  0  0  0  0  0  0  0
  1  2  1  0  0  0  0
  1  5  2  0  0  0  0
  2  6  2  0  0  0  0
  3  8  2  0  0  0  0
  3 16  1  0  0  0  0
  4  9  1  0  0  0  0
  4 16  2  0  0  0  0
  5 18  1  0  0  0  0
  6 20  1  0  0  0  0
  7 10  2  0  0  0  0
  7 19  1  0  0  0  0
  8 25  1  0  0  0  0
  9 25  2  0  0  0  0
 10 26  1  0  0  0  0
 11 12  2  0  0  0  0
 11 27  1  0  0  0  0
 12 28  1  0  0  0  0
 13 21  1  0  0  0  0
 13 26  2  0  0  0  0
 14 22  2  0  0  0  0
 14 30  1  0  0  0  0
 15 28  2  0  0  0  0
 15 29  1  0  0  0  0
 16 32  1  0  0  0  0
 17 32  1  0  0  0  0
 17 33  2  0  0  0  0
 17 34  1  0  0  0  0
 18 20  2  0  0  0  0
 18 39  1  0  0  0  0
 19 21  2  0  0  0  0
 19 40  1  0  0  0  0
 20 48  1  0  0  0  0
 21 41  1  0  0  0  0
 22 23  1  0  0  0  0
 22 51  1  0  0  0  0
 23 31  2  0  0  0  0
 23 58  1  0  0  0  0
 24 30  2  0  0  0  0
 24 31  1  0  0  0  0
 24 57  1  0  0  0  0
 25 77  1  0  0  0  0
 26 78  1  0  0  0  0
 27 29  2  0  0  0  0
 27 77  1  0  0  0  0
 28 79  1  0  0  0  0
 29 80  1  0  0  0  0
 30 81  1  0  0  0  0
 31 82  1  0  0  0  0
 32 62  2  0  0  0  0
 33 63  1  0  0  0  0
 33 66  1  0  0  0  0
 34 67  1  0  0  0  0
 34 72  2  0  0  0  0
 35 49  1  0  0  0  0
 35 68  1  0  0  0  0
 35 73  2  0  0  0  0
 36 59  1  0  0  0  0
 36 64  1  0  0  0  0
 36 74  2  0  0  0  0
 37 60  1  0  0  0  0
 37 69  1  0  0  0  0
 37 75  2  0  0  0  0
 38 65  1  0  0  0  0
 38 70  1  0  0  0  0
 38 76  2  0  0  0  0
 39 42  1  0  0  0  0
 40 49  1  0  0  0  0
 41 64  1  0  0  0  0
 42 44  1  0  0  0  0
 43 45  1  0  0  0  0
 43 46  1  0  0  0  0
 44 48  1  0  0  0  0
 45 50  1  0  0  0  0
 46 65  1  0  0  0  0
 47 50  1  0  0  0  0
 47 65  1  0  0  0  0
 48 68  1  0  0  0  0
 49 64  1  0  0  0  0
 50 63  1  0  0  0  0
 52 60  1  0  0  0  0
 53 61  1  0  0  0  0
 54 61  1  0  0  0  0
 55 61  1  0  0  0  0
 56 71  1  0  0  0  0
 57 70  1  0  0  0  0
 58 78  1  0  0  0  0
 59 61  1  0  0  0  0
 59 69  1  0  0  0  0
 60 71  1  0  0  0  0
 62 63  1  0  0  0  0
M  CHG  1  71   1
M  ISO  4  38 100  58 101  70 100  78 101
M  END
> <Batch ID>
0020

> <Smiles>
CNC(C)C(=O)NC(C(=O)N1Cc2cc([101O:1][101CH2:1]c3c(C)cc(Cl)c(C[100NH:0][100C:0](=O)N4CCCC(n5nc(-c6ccc(Oc7ccc(F)cc7F)cc6)c(C(N)=O)c5N)C4)c3Cl)ccc2CC1C(=O)NC1CCCc2ccccc21)C(C)(C)C

> <Shape>
0.262

> <Color>
0.061

> <Negative vol penalty>
0.000

$$$$

  -OEChem-04052316093D

 85 93  0     1  0  0  0  0  0999 V2000
  -19.4337  -10.1530   21.3504 C   0  0  0  0  0  0  0  0  0  0  0  0
  -19.9821  -11.3526   21.7928 C   0  0  0  0  0  0  0  0  0  0  0  0
  -23.1131  -28.1783   23.1423 C   0  0  0  0  0  0  0  0  0  0  0  0
  -23.5777  -29.3368   21.0737 C   0  0  0  0  0  0  0  0  0  0  0  0
  -20.2687   -9.0892   21.0115 C   0  0  0  0  0  0  0  0  0  0  0  0
  -21.3659  -11.4886   21.8975 C   0  0  0  0  0  0  0  0  0  0  0  0
  -23.0338  -15.8845   20.0162 C   0  0  0  0  0  0  0  0  0  0  0  0
  -23.1351  -29.3930   23.8275 C   0  0  0  0  0  0  0  0  0  0  0  0
  -23.5997  -30.5516   21.7590 C   0  0  0  0  0  0  0  0  0  0  0  0
  -22.8695  -17.0196   20.8089 C   0  0  0  0  0  0  0  0  0  0  0  0
  -24.1350  -33.9181   23.0199 C   0  0  0  0  0  0  0  0  0  0  0  0
  -25.1689  -34.8080   22.7290 C   0  0  0  0  0  0  0  0  0  0  0  0
  -25.1758  -16.8642   21.4988 C   0  0  0  0  0  0  0  0  0  0  0  0
  -24.9957  -20.9827   20.6363 C   0  0  0  0  0  0  0  0  0  0  0  0
  -26.7873  -33.1573   23.4313 C   0  0  0  0  0  0  0  0  0  0  0  0
  -23.3345  -28.1502   21.7653 C   0  0  0  0  0  0  0  0  0  0  0  0
  -22.2381  -25.9908   20.9638 C   0  0  0  0  0  0  0  0  0  0  0  0
  -21.6638   -9.2154   21.1029 C   0  0  0  0  0  0  0  0  0  0  0  0
  -24.2695  -15.2233   19.9673 C   0  0  0  0  0  0  0  0  0  0  0  0
  -22.2203  -10.4250   21.5608 C   0  0  0  0  0  0  0  0  0  0  0  0
  -25.3539  -15.7225   20.7028 C   0  0  0  0  0  0  0  0  0  0  0  0
  -24.5862  -21.4055   21.9009 C   0  0  0  0  0  0  0  0  0  0  0  0
  -26.2414  -21.3685   20.1414 C   0  0  0  0  0  0  0  0  0  0  0  0
  -25.4224  -22.2143   22.6705 C   0  0  0  0  0  0  0  0  0  0  0  0
  -26.6681  -22.6002   22.1755 C   0  0  0  0  0  0  0  0  0  0  0  0
  -27.0776  -22.1773   20.9109 C   0  0  0  0  0  0  0  0  0  0  0  0
  -23.3783  -30.5796   23.1359 C   0  0  0  0  0  0  0  0  0  0  0  0
  -23.9398  -17.5079   21.5526 C   0  0  0  0  0  0  0  0  0  0  0  0
  -24.4272  -32.6478   23.5166 C   0  0  0  0  0  0  0  0  0  0  0  0
  -26.4951  -34.4276   22.9346 C   0  0  0  0  0  0  0  0  0  0  0  0
  -25.7533  -32.2674   23.7223 C   0  0  0  0  0  0  0  0  0  0  0  0
  -23.3124  -26.8957   21.0570 C   0  0  0  0  0  0  0  0  0  0  0  0
  -22.7194  -24.9651   20.1874 C   0  0  0  0  0  0  0  0  0  0  0  0
  -20.9226  -26.0702   21.5286 C   0  0  0  0  0  0  0  0  0  0  0  0
  -25.2885  -12.3133   20.7400 C   0  0  0  0  0  0  0  0  0  0  0  0
  -28.0534  -13.3487   19.3963 C   0  0  0  0  0  0  0  0  0  0  0  0
  -30.0415  -15.9810   18.5215 C   0  0  0  0  0  0  0  0  0  0  0  0
  -28.5326  -23.3128   19.2125 C   0  0  0  0  0  0  0  0  0  0  0  0
  -22.5240   -8.0221   20.7705 C   0  0  0  0  0  0  0  0  0  0  0  0
  -24.4378  -14.0157   19.0865 C   0  0  0  0  0  0  0  0  0  0  0  0
  -26.7066  -15.0610   20.6690 C   0  0  0  0  0  0  0  0  0  0  0  0
  -23.9937   -8.3724   20.5523 C   0  0  0  0  0  0  0  0  0  0  0  0
  -25.8816  -24.0204   16.7297 C   0  0  0  0  0  0  0  0  0  0  0  0
  -24.4922   -9.2961   21.6592 C   0  0  0  0  0  0  0  0  0  0  0  0
  -24.8711  -24.8351   17.5351 C   0  0  0  0  0  0  0  0  0  0  0  0
  -27.3020  -24.1982   17.2576 C   0  0  0  0  0  0  0  0  0  0  0  0
  -26.4275  -24.7037   19.5206 C   0  0  0  0  0  0  0  0  0  0  0  0
  -23.7175  -10.6195   21.6641 C   0  0  1  0  0  0  0  0  0  0  0  0
  -25.5988  -13.1225   19.5126 C   0  0  1  0  0  0  0  0  0  0  0  0
  -24.9836  -24.5100   19.0337 C   0  0  1  0  0  0  0  0  0  0  0  0
  -24.9801  -22.6661   24.0263 C   0  0  0  0  0  0  0  0  0  0  0  0
  -27.5616  -23.4685   23.0054 C   0  0  0  0  0  0  0  0  0  0  0  0
  -27.1047  -19.4416   18.7892 C   0  0  0  0  0  0  0  0  0  0  0  0
  -22.1486  -22.0046   22.0766 C   0  0  0  0  0  0  0  0  0  0  0  0
  -31.9821  -17.1907   17.4880 C   0  0  0  0  0  0  0  0  0  0  0  0
  -29.4645  -12.5409   21.9782 C   0  0  0  0  0  0  0  0  0  0  0  0
  -31.4196  -13.9315   21.2627 C   0  0  0  0  0  0  0  0  0  0  0  0
  -30.7125  -11.9750   19.8862 C   0  0  0  0  0  0  0  0  0  0  0  0
  -29.5550  -21.9609   20.9898 C   0  0  0  0  0  0  0  0  0  0  0  0
  -28.6413  -16.2513   15.9282 C   0  0  0  0  0  0  0  0  0  0  0  0
  -26.6524  -20.8983   18.7835 C   0  0  0  0  0  0  0  0  0  0  0  0
  -22.8277  -19.5826   21.8916 C   0  0  0  0  0  0  0  0  0  1  0  0
  -23.2240  -20.9691   22.4171 C   0  0  1  0  0  0  0  0  0  0  0  0
  -29.2852  -14.0618   19.8995 C   0  0  1  0  0  0  0  0  0  0  0  0
  -30.7716  -16.3067   17.2311 C   0  0  2  0  0  0  0  0  0  0  0  0
  -30.1945  -13.1389   20.7590 C   0  0  0  0  0  0  0  0  0  0  0  0
  -24.3947  -26.4813   20.3929 N   0  0  0  0  0  0  0  0  0  0  0  0
  -24.0029  -25.3046   19.8751 N   0  0  0  0  0  0  0  0  0  0  0  0
  -26.8193  -13.8797   19.7977 N   0  0  0  0  0  0  0  0  0  0  0  0
  -27.3819  -23.9439   18.6969 N   0  0  0  0  0  0  0  0  0  0  0  0
  -22.1657  -23.8149   19.7483 N   0  0  0  0  0  0  0  0  0  0  0  0
  -19.9102  -26.6856   20.7800 N   0  0  0  0  0  0  0  0  0  0  0  0
  -24.1901  -11.4857   20.6054 N   0  0  0  0  0  0  0  0  0  0  0  0
  -29.9425  -14.6206   18.7231 N   0  0  0  0  0  0  0  0  0  0  0  0
  -28.3668  -22.5721   20.3983 N   0  0  0  0  0  0  0  0  0  0  0  0
  -29.8631  -17.0166   16.2868 N   0  3  0  0  0  0  0  0  0  0  0  0
  -20.6569  -25.6238   22.6704 O   0  0  0  0  0  0  0  0  0  0  0  0
  -25.9943  -12.4299   21.7350 O   0  0  0  0  0  0  0  0  0  0  0  0
  -28.1813  -12.3615   18.6679 O   0  0  0  0  0  0  0  0  0  0  0  0
  -29.6059  -16.8470   19.2772 O   0  0  0  0  0  0  0  0  0  0  0  0
  -29.6437  -23.4453   18.6846 O   0  0  0  0  0  0  0  0  0  0  0  0
  -23.3996  -31.7651   23.8042 O   0  0  0  0  0  0  0  0  0  0  0  0
  -23.7819  -18.6153   22.3277 O   0  0  0  0  0  0  0  0  0  1  0  0
  -27.4879  -35.2817   22.6537 F   0  0  0  0  0  0  0  0  0  0  0  0
  -26.0403  -31.0479   24.1981 F   0  0  0  0  0  0  0  0  0  0  0  0
  1  2  1  0  0  0  0
  1  5  2  0  0  0  0
  2  6  2  0  0  0  0
  3  8  2  0  0  0  0
  3 16  1  0  0  0  0
  4  9  1  0  0  0  0
  4 16  2  0  0  0  0
  5 18  1  0  0  0  0
  6 20  1  0  0  0  0
  7 10  2  0  0  0  0
  7 19  1  0  0  0  0
  8 27  1  0  0  0  0
  9 27  2  0  0  0  0
 10 28  1  0  0  0  0
 11 12  2  0  0  0  0
 11 29  1  0  0  0  0
 12 30  1  0  0  0  0
 13 21  1  0  0  0  0
 13 28  2  0  0  0  0
 14 22  2  0  0  0  0
 14 23  1  0  0  0  0
 15 30  2  0  0  0  0
 15 31  1  0  0  0  0
 16 32  1  0  0  0  0
 17 32  1  0  0  0  0
 17 33  2  0  0  0  0
 17 34  1  0  0  0  0
 18 20  2  0  0  0  0
 18 39  1  0  0  0  0
 19 21  2  0  0  0  0
 19 40  1  0  0  0  0
 20 48  1  0  0  0  0
 21 41  1  0  0  0  0
 22 24  1  0  0  0  0
 22 63  1  0  0  0  0
 23 26  2  0  0  0  0
 23 61  1  0  0  0  0
 24 25  2  0  0  0  0
 24 51  1  0  0  0  0
 25 26  1  0  0  0  0
 25 52  1  0  0  0  0
 26 75  1  0  0  0  0
 27 82  1  0  0  0  0
 28 83  1  0  0  0  0
 29 31  2  0  0  0  0
 29 82  1  0  0  0  0
 30 84  1  0  0  0  0
 31 85  1  0  0  0  0
 32 67  2  0  0  0  0
 33 68  1  0  0  0  0
 33 71  1  0  0  0  0
 34 72  1  0  0  0  0
 34 77  2  0  0  0  0
 35 49  1  0  0  0  0
 35 73  1  0  0  0  0
 35 78  2  0  0  0  0
 36 64  1  0  0  0  0
 36 69  1  0  0  0  0
 36 79  2  0  0  0  0
 37 65  1  0  0  0  0
 37 74  1  0  0  0  0
 37 80  2  0  0  0  0
 38 70  1  0  0  0  0
 38 75  1  0  0  0  0
 38 81  2  0  0  0  0
 39 42  1  0  0  0  0
 40 49  1  0  0  0  0
 41 69  1  0  0  0  0
 42 44  1  0  0  0  0
 43 45  1  0  0  0  0
 43 46  1  0  0  0  0
 44 48  1  0  0  0  0
 45 50  1  0  0  0  0
 46 70  1  0  0  0  0
 47 50  1  0  0  0  0
 47 70  1  0  0  0  0
 48 73  1  0  0  0  0
 49 69  1  0  0  0  0
 50 68  1  0  0  0  0
 53 61  1  0  0  0  0
 54 63  1  0  0  0  0
 55 65  1  0  0  0  0
 56 66  1  0  0  0  0
 57 66  1  0  0  0  0
 58 66  1  0  0  0  0
 59 75  1  0  0  0  0
 60 76  1  0  0  0  0
 62 63  1  0  0  0  0
 62 83  1  0  0  0  0
 64 66  1  0  0  0  0
 64 74  1  0  0  0  0
 65 76  1  0  0  0  0
 67 68  1  0  0  0  0
M  CHG  1  76   1
M  ISO  4  38 100  62 101  75 100  83 101
M  END
> <Batch ID>
0020

> <Smiles>
CCc1cc(C(C)[101CH2:1][101O:1]c2ccc3c(c2)CN(C(=O)C(NC(=O)C(C)NC)C(C)(C)C)C(C(=O)NC2CCCc4ccccc42)C3)c(C)c(C)c1[100N:0](C)[100C:0](=O)N1CCCC(n2nc(-c3ccc(Oc4ccc(F)cc4F)cc3)c(C(N)=O)c2N)C1

> <Shape>
0.251

> <Color>
0.052

> <Negative vol penalty>
0.000

$$$$

  -OEChem-04052316093D

 88 96  0     1  0  0  0  0  0999 V2000
  -27.6491  -24.6423   16.5463 C   0  0  0  0  0  0  0  0  0  0  0  0
  -26.4734  -24.9078   17.2411 C   0  0  0  0  0  0  0  0  0  0  0  0
  -29.3982  -17.9794   22.4171 C   0  0  0  0  0  0  0  0  0  0  0  0
  -27.5226  -17.4709   20.9817 C   0  0  0  0  0  0  0  0  0  0  0  0
  -28.8752  -25.0458   17.0733 C   0  0  0  0  0  0  0  0  0  0  0  0
  -26.5233  -25.5760   18.4640 C   0  0  0  0  0  0  0  0  0  0  0  0
  -23.0096  -29.2033   18.8406 C   0  0  0  0  0  0  0  0  0  0  0  0
  -30.1578  -17.0048   21.7699 C   0  0  0  0  0  0  0  0  0  0  0  0
  -28.2821  -16.4964   20.3344 C   0  0  0  0  0  0  0  0  0  0  0  0
  -21.7053  -28.7995   19.1226 C   0  0  0  0  0  0  0  0  0  0  0  0
  -29.2743  -13.3172   20.9167 C   0  0  0  0  0  0  0  0  0  0  0  0
  -28.6725  -12.0828   20.6725 C   0  0  0  0  0  0  0  0  0  0  0  0
  -22.0304  -29.3883   21.4393 C   0  0  0  0  0  0  0  0  0  0  0  0
  -18.9091  -26.5608   23.1762 C   0  0  0  0  0  0  0  0  0  0  0  0
  -29.0076  -12.3890   18.2995 C   0  0  0  0  0  0  0  0  0  0  0  0
  -28.0806  -18.2124   22.0230 C   0  0  0  0  0  0  0  0  0  0  0  0
  -27.5758  -20.5952   22.7814 C   0  0  0  0  0  0  0  0  0  0  0  0
  -28.9393  -25.7278   18.2987 C   0  0  0  0  0  0  0  0  0  0  0  0
  -23.8391  -29.6932   19.8596 C   0  0  0  0  0  0  0  0  0  0  0  0
  -27.7515  -25.9878   19.0086 C   0  0  0  0  0  0  0  0  0  0  0  0
  -23.3440  -29.8000   21.1671 C   0  0  0  0  0  0  0  0  0  0  0  0
  -19.1222  -25.9830   21.9247 C   0  0  0  0  0  0  0  0  0  0  0  0
  -20.5553  -24.3214   22.9359 C   0  0  0  0  0  0  0  0  0  0  0  0
  -29.5998  -16.2633   20.7285 C   0  0  0  0  0  0  0  0  0  0  0  0
  -21.2165  -28.8892   20.4226 C   0  0  0  0  0  0  0  0  0  0  0  0
  -29.7427  -14.0875   19.8524 C   0  0  0  0  0  0  0  0  0  0  0  0
  -28.5391  -11.6187   19.3639 C   0  0  0  0  0  0  0  0  0  0  0  0
  -19.5191  -26.0189   24.3076 C   0  0  0  0  0  0  0  0  0  0  0  0
  -29.6094  -13.6234   18.5438 C   0  0  0  0  0  0  0  0  0  0  0  0
  -20.3421  -24.8992   24.1875 C   0  0  0  0  0  0  0  0  0  0  0  0
  -19.9453  -24.8633   21.8046 C   0  0  0  0  0  0  0  0  0  0  0  0
  -27.2953  -19.2186   22.6916 C   0  0  0  0  0  0  0  0  0  0  0  0
  -26.5341  -21.1109   23.5131 C   0  0  0  0  0  0  0  0  0  0  0  0
  -28.6793  -21.3411   22.2508 C   0  0  0  0  0  0  0  0  0  0  0  0
  -26.5947  -28.7699   21.1473 C   0  0  0  0  0  0  0  0  0  0  0  0
  -26.3368  -31.5766   22.7530 C   0  0  0  0  0  0  0  0  0  0  0  0
  -20.9080  -19.1895   24.3894 C   0  0  0  0  0  0  0  0  0  0  0  0
  -24.3190  -34.0558   23.9483 C   0  0  0  0  0  0  0  0  0  0  0  0
  -30.2918  -26.1023   18.8511 C   0  0  0  0  0  0  0  0  0  0  0  0
  -25.2348  -30.1497   19.5339 C   0  0  0  0  0  0  0  0  0  0  0  0
  -24.1874  -30.3381   22.2929 C   0  0  0  0  0  0  0  0  0  0  0  0
  -30.2268  -27.1364   19.9721 C   0  0  0  0  0  0  0  0  0  0  0  0
  -23.3694  -19.9229   26.8882 C   0  0  0  0  0  0  0  0  0  0  0  0
  -29.1479  -26.7609   20.9829 C   0  0  0  0  0  0  0  0  0  0  0  0
  -24.6837  -19.9224   26.1086 C   0  0  0  0  0  0  0  0  0  0  0  0
  -22.3952  -18.8842   26.3412 C   0  0  0  0  0  0  0  0  0  0  0  0
  -23.4297  -19.0226   24.0979 C   0  0  0  0  0  0  0  0  0  0  0  0
  -27.7625  -26.7321   20.3261 C   0  0  1  0  0  0  0  0  0  0  0  0
  -26.1610  -30.1515   20.7461 C   0  0  1  0  0  0  0  0  0  0  0  0
  -24.4307  -20.0788   24.5986 C   0  0  2  0  0  0  0  0  0  0  0  0
  -23.6967  -36.2356   25.0247 C   0  0  0  0  0  0  0  0  0  0  0  0
  -22.1148  -20.6679   21.0834 C   0  0  0  0  0  0  0  0  0  0  0  0
  -19.2822  -19.4936   22.5962 C   0  0  0  0  0  0  0  0  0  0  0  0
  -21.3203  -18.0903   22.2227 C   0  0  0  0  0  0  0  0  0  0  0  0
  -26.6979  -29.9892   25.3337 C   0  0  0  0  0  0  0  0  0  0  0  0
  -25.8275  -31.9708   26.5923 C   0  0  0  0  0  0  0  0  0  0  0  0
  -27.9310  -32.1639   25.2654 C   0  0  0  0  0  0  0  0  0  0  0  0
  -24.4778  -35.5058   21.3732 C   0  0  0  0  0  0  0  0  0  0  0  0
  -18.4422  -26.6042   20.7290 C   0  0  0  0  0  0  0  0  0  0  0  0
  -21.4433  -23.1217   22.8510 C   0  0  0  0  0  0  0  0  0  0  0  0
  -19.3962  -27.4525   19.8951 C   0  0  0  0  0  0  0  0  0  1  0  0
  -25.7146  -32.0078   24.0591 C   0  0  1  0  0  0  0  0  0  0  0  0
  -24.4267  -35.5680   23.8696 C   0  0  2  0  0  0  0  0  0  0  0  0
  -21.5614  -20.6504   22.5083 C   0  0  2  0  0  0  0  0  0  0  0  0
  -20.7862  -19.3625   22.8964 C   0  0  0  0  0  0  0  0  0  0  0  0
  -26.5272  -31.5209   25.2920 C   0  0  0  0  0  0  0  0  0  0  0  0
  -26.1641  -18.8811   23.3165 N   0  0  0  0  0  0  0  0  0  0  0  0
  -25.7246  -20.0530   23.8060 N   0  0  0  0  0  0  0  0  0  0  0  0
  -25.5474  -30.7657   21.9253 N   0  0  0  0  0  0  0  0  0  0  0  0
  -22.1989  -19.0524   24.9002 N   0  0  0  0  0  0  0  0  0  0  0  0
  -26.2407  -22.3615   23.9281 N   0  0  0  0  0  0  0  0  0  0  0  0
  -28.5611  -21.8854   20.9646 N   0  0  0  0  0  0  0  0  0  0  0  0
  -27.2576  -28.0772   20.1522 N   0  0  0  0  0  0  0  0  0  0  0  0
  -25.5603  -33.4563   23.9793 N   0  0  0  0  0  0  0  0  0  0  0  0
  -23.8389  -36.0634   22.5930 N   0  3  0  0  0  0  0  0  0  0  0  0
  -20.6962  -21.8507   22.6528 N   0  3  0  0  0  0  0  0  0  0  0  0
  -29.7451  -21.5058   22.8915 O   0  0  0  0  0  0  0  0  0  0  0  0
  -26.3475  -28.3631   22.2765 O   0  0  0  0  0  0  0  0  0  0  0  0
  -27.4784  -31.9515   22.4742 O   0  0  0  0  0  0  0  0  0  0  0  0
  -19.8855  -19.1797   25.0798 O   0  0  0  0  0  0  0  0  0  0  0  0
  -23.2415  -33.4657   23.9829 O   0  0  0  0  0  0  0  0  0  0  0  0
  -30.3407  -15.3124   20.0966 O   0  0  0  0  0  0  0  0  0  0  0  0
  -19.9440  -28.4952   20.7008 O   0  0  0  0  0  0  0  0  0  1  0  0
  -27.9626  -10.4326   19.1296 F   0  0  0  0  0  0  0  0  0  0  0  0
  -19.3134  -26.5730   25.5097 F   0  0  0  0  0  0  0  0  0  0  0  0
  -30.0585  -14.3585   17.5172 F   0  0  0  0  0  0  0  0  0  0  0  0
  -20.9224  -24.3862   25.2816 F   0  0  0  0  0  0  0  0  0  0  0  0
  -20.2064  -24.1439   20.2510 Cl  0  0  0  0  0  0  0  0  0  0  0  0
  1  2  1  0  0  0  0
  1  5  2  0  0  0  0
  2  6  2  0  0  0  0
  3  8  2  0  0  0  0
  3 16  1  0  0  0  0
  4  9  1  0  0  0  0
  4 16  2  0  0  0  0
  5 18  1  0  0  0  0
  6 20  1  0  0  0  0
  7 10  2  0  0  0  0
  7 19  1  0  0  0  0
  8 24  1  0  0  0  0
  9 24  2  0  0  0  0
 10 25  1  0  0  0  0
 11 12  2  0  0  0  0
 11 26  1  0  0  0  0
 12 27  1  0  0  0  0
 13 21  1  0  0  0  0
 13 25  2  0  0  0  0
 14 22  1  0  0  0  0
 14 28  2  0  0  0  0
 15 27  2  0  0  0  0
 15 29  1  0  0  0  0
 16 32  1  0  0  0  0
 17 32  1  0  0  0  0
 17 33  2  0  0  0  0
 17 34  1  0  0  0  0
 18 20  2  0  0  0  0
 18 39  1  0  0  0  0
 19 21  2  0  0  0  0
 19 40  1  0  0  0  0
 20 48  1  0  0  0  0
 21 41  1  0  0  0  0
 22 31  2  0  0  0  0
 22 59  1  0  0  0  0
 23 30  2  0  0  0  0
 23 31  1  0  0  0  0
 23 60  1  0  0  0  0
 24 82  1  0  0  0  0
 25 83  1  0  0  0  0
 26 29  2  0  0  0  0
 26 82  1  0  0  0  0
 27 84  1  0  0  0  0
 28 30  1  0  0  0  0
 28 85  1  0  0  0  0
 29 86  1  0  0  0  0
 30 87  1  0  0  0  0
 31 88  1  0  0  0  0
 32 67  2  0  0  0  0
 33 68  1  0  0  0  0
 33 71  1  0  0  0  0
 34 72  1  0  0  0  0
 34 77  2  0  0  0  0
 35 49  1  0  0  0  0
 35 73  1  0  0  0  0
 35 78  2  0  0  0  0
 36 62  1  0  0  0  0
 36 69  1  0  0  0  0
 36 79  2  0  0  0  0
 37 65  1  0  0  0  0
 37 70  1  0  0  0  0
 37 80  2  0  0  0  0
 38 63  1  0  0  0  0
 38 74  1  0  0  0  0
 38 81  2  0  0  0  0
 39 42  1  0  0  0  0
 40 49  1  0  0  0  0
 41 69  1  0  0  0  0
 42 44  1  0  0  0  0
 43 45  1  0  0  0  0
 43 46  1  0  0  0  0
 44 48  1  0  0  0  0
 45 50  1  0  0  0  0
 46 70  1  0  0  0  0
 47 50  1  0  0  0  0
 47 70  1  0  0  0  0
 48 73  1  0  0  0  0
 49 69  1  0  0  0  0
 50 68  1  0  0  0  0
 51 63  1  0  0  0  0
 52 64  1  0  0  0  0
 53 65  1  0  0  0  0
 54 65  1  0  0  0  0
 55 66  1  0  0  0  0
 56 66  1  0  0  0  0
 57 66  1  0  0  0  0
 58 75  1  0  0  0  0
 59 61  1  0  0  0  0
 60 76  1  0  0  0  0
 61 83  1  0  0  0  0
 62 66  1  0  0  0  0
 62 74  1  0  0  0  0
 63 75  1  0  0  0  0
 64 65  1  0  0  0  0
 64 76  1  0  0  0  0
 67 68  1  0  0  0  0
M  CHG  2  75   1  76   1
M  ISO  4  37 100  61 101  65 100  83 101
M  END
> <Batch ID>
0020

> <Smiles>
CNC(C)C(=O)NC(C(=O)N1Cc2cc([101O:1][101CH2:1]Cc3cc(F)c(F)c(CNC(C)[100C:0](C)(C)[100C:0](=O)N4CCCC(n5nc(-c6ccc(Oc7ccc(F)cc7F)cc6)c(C(N)=O)c5N)C4)c3Cl)ccc2CC1C(=O)NC1CCCc2ccccc21)C(C)(C)C

> <Shape>
0.283

> <Color>
0.076

> <Negative vol penalty>
0.000

$$$$

  -OEChem-04052316093D

 92100  0     1  0  0  0  0  0999 V2000
  -28.2500  -17.8839   26.1979 C   0  0  0  0  0  0  0  0  0  0  0  0
  -28.3557  -19.2376   25.8994 C   0  0  0  0  0  0  0  0  0  0  0  0
  -23.2314   -9.6475   20.0269 C   0  0  0  0  0  0  0  0  0  0  0  0
  -23.8147   -9.9365   22.3536 C   0  0  0  0  0  0  0  0  0  0  0  0
  -27.2597  -17.1153   25.5898 C   0  0  0  0  0  0  0  0  0  0  0  0
  -27.4638  -19.8258   25.0019 C   0  0  0  0  0  0  0  0  0  0  0  0
  -27.6945  -24.7145   24.5018 C   0  0  0  0  0  0  0  0  0  0  0  0
  -22.5257   -8.4880   20.3479 C   0  0  0  0  0  0  0  0  0  0  0  0
  -23.1090   -8.7770   22.6745 C   0  0  0  0  0  0  0  0  0  0  0  0
  -28.7448  -25.3565   23.8472 C   0  0  0  0  0  0  0  0  0  0  0  0
  -21.1594   -6.0906   24.1580 C   0  0  0  0  0  0  0  0  0  0  0  0
  -20.3197   -6.1288   25.2712 C   0  0  0  0  0  0  0  0  0  0  0  0
  -27.3303  -25.6952   21.9227 C   0  0  0  0  0  0  0  0  0  0  0  0
  -19.0444   -7.9076   24.2482 C   0  0  0  0  0  0  0  0  0  0  0  0
  -32.1524  -29.4086   19.9747 C   0  0  0  0  0  0  0  0  0  0  0  0
  -23.8760  -10.3718   21.0298 C   0  0  0  0  0  0  0  0  0  0  0  0
  -24.1070  -12.8853   20.6605 C   0  0  0  0  0  0  0  0  0  0  0  0
  -26.3636  -17.6924   24.6750 C   0  0  0  0  0  0  0  0  0  0  0  0
  -26.4554  -24.5481   23.8665 C   0  0  0  0  0  0  0  0  0  0  0  0
  -26.4425  -19.0720   24.3959 C   0  0  0  0  0  0  0  0  0  0  0  0
  -26.2651  -25.0530   22.5723 C   0  0  0  0  0  0  0  0  0  0  0  0
  -31.3355  -26.8895   19.0976 C   0  0  0  0  0  0  0  0  0  0  0  0
  -30.5812  -27.5749   20.0500 C   0  0  0  0  0  0  0  0  0  0  0  0
  -32.4982  -27.4637   18.5838 C   0  0  0  0  0  0  0  0  0  0  0  0
  -22.4645   -8.0527   21.6717 C   0  0  0  0  0  0  0  0  0  0  0  0
  -28.5637  -25.8444   22.5563 C   0  0  0  0  0  0  0  0  0  0  0  0
  -20.9417   -6.9610   23.0900 C   0  0  0  0  0  0  0  0  0  0  0  0
  -19.2622   -7.0372   25.3163 C   0  0  0  0  0  0  0  0  0  0  0  0
  -19.8842   -7.8695   23.1351 C   0  0  0  0  0  0  0  0  0  0  0  0
  -30.9896  -28.8345   20.4884 C   0  0  0  0  0  0  0  0  0  0  0  0
  -32.9067  -28.7232   19.0223 C   0  0  0  0  0  0  0  0  0  0  0  0
  -24.6056  -11.5694   20.6988 C   0  0  0  0  0  0  0  0  0  0  0  0
  -25.1871  -13.6512   20.2955 C   0  0  0  0  0  0  0  0  0  0  0  0
  -22.7858  -13.3719   20.9309 C   0  0  0  0  0  0  0  0  0  0  0  0
  -24.7091  -22.0458   22.9766 C   0  0  0  0  0  0  0  0  0  0  0  0
  -22.5252  -24.3268   22.2351 C   0  0  0  0  0  0  0  0  0  0  0  0
  -21.8980  -27.5788   21.4120 C   0  0  0  0  0  0  0  0  0  0  0  0
  -30.5871  -14.9830   20.7558 C   0  0  0  0  0  0  0  0  0  0  0  0
  -25.3060  -16.8157   24.0519 C   0  0  0  0  0  0  0  0  0  0  0  0
  -25.3243  -23.8771   24.5964 C   0  0  0  0  0  0  0  0  0  0  0  0
  -24.9481  -24.9180   21.8542 C   0  0  0  0  0  0  0  0  0  0  0  0
  -24.6981  -17.4221   22.7914 C   0  0  0  0  0  0  0  0  0  0  0  0
  -29.7462  -12.3027   18.5683 C   0  0  0  0  0  0  0  0  0  0  0  0
  -24.2837  -18.8620   23.0550 C   0  0  0  0  0  0  0  0  0  0  0  0
  -28.2955  -11.9777   18.9287 C   0  0  0  0  0  0  0  0  0  0  0  0
  -30.5586  -12.6981   19.7994 C   0  0  0  0  0  0  0  0  0  0  0  0
  -28.5254  -13.4653   20.9617 C   0  0  0  0  0  0  0  0  0  0  0  0
  -25.5028  -19.7268   23.3996 C   0  0  1  0  0  0  0  0  0  0  0  0
  -24.2633  -23.3076   23.6597 C   0  0  1  0  0  0  0  0  0  0  0  0
  -27.6522  -13.1152   19.7447 C   0  0  2  0  0  0  0  0  0  0  0  0
  -20.0185  -29.1360   20.8287 C   0  0  0  0  0  0  0  0  0  0  0  0
  -32.2752  -27.0524   15.4441 C   0  0  0  0  0  0  0  0  0  0  0  0
  -34.7320  -26.5769   15.7339 C   0  0  0  0  0  0  0  0  0  0  0  0
  -22.3846  -23.1070   19.4418 C   0  0  0  0  0  0  0  0  0  0  0  0
  -21.2692  -25.2065   18.6569 C   0  0  0  0  0  0  0  0  0  0  0  0
  -20.1753  -23.7897   20.3944 C   0  0  0  0  0  0  0  0  0  0  0  0
  -22.4492  -29.3065   23.7508 C   0  0  0  0  0  0  0  0  0  0  0  0
  -30.8938  -25.5376   18.6291 C   0  0  0  0  0  0  0  0  0  0  0  0
  -29.3321  -26.9460   20.5937 C   0  0  0  0  0  0  0  0  0  1  0  0
  -30.7816  -19.6554   20.9912 C   0  0  0  0  0  0  0  0  0  0  0  0
  -30.4885  -20.7155   19.9250 C   0  0  0  0  0  0  0  0  0  0  0  0
  -30.1964  -18.2794   20.6562 C   0  0  0  0  0  0  0  0  0  0  0  0
  -31.0077  -22.1071   20.2920 C   0  0  0  0  0  0  0  0  0  0  0  0
  -30.4584  -17.2517   21.7535 C   0  0  0  0  0  0  0  0  0  0  0  0
  -30.6636  -23.1187   19.2077 C   0  0  0  0  0  0  0  0  0  0  0  0
  -22.2148  -25.1515   21.0094 C   0  0  1  0  0  0  0  0  0  0  0  0
  -20.8851  -28.5757   21.9457 C   0  0  2  0  0  0  0  0  0  0  0  0
  -33.5072  -27.2726   16.3098 C   0  0  0  0  0  0  0  0  0  0  0  0
  -21.5365  -24.3147   19.8882 C   0  0  0  0  0  0  0  0  0  0  0  0
  -25.9015  -11.4996   20.3830 N   0  0  0  0  0  0  0  0  0  0  0  0
  -26.2264  -12.7813   20.1428 N   0  0  0  0  0  0  0  0  0  0  0  0
  -23.8747  -24.2486   22.6073 N   0  0  0  0  0  0  0  0  0  0  0  0
  -29.8951  -13.7821   20.5277 N   0  0  0  0  0  0  0  0  0  0  0  0
  -25.3398  -14.9772   20.0932 N   0  0  0  0  0  0  0  0  0  0  0  0
  -21.7950  -12.4491   21.2932 N   0  0  0  0  0  0  0  0  0  0  0  0
  -33.2569  -26.7598   17.6183 N   0  0  0  0  0  0  0  0  0  0  0  0
  -25.0494  -21.0260   23.8447 N   0  0  0  0  0  0  0  0  0  0  0  0
  -21.4221  -26.2861   21.4707 N   0  0  0  0  0  0  0  0  0  0  0  0
  -29.8832  -15.9608   21.4480 N   0  0  0  0  0  0  0  0  0  0  0  0
  -21.5796  -29.7110   22.6163 N   0  3  0  0  0  0  0  0  0  0  0  0
  -31.1448  -24.4626   19.6249 N   0  3  0  0  0  0  0  0  0  0  0  0
  -22.4884  -14.5870   20.8376 O   0  0  0  0  0  0  0  0  0  0  0  0
  -24.7405  -22.0002   21.7524 O   0  0  0  0  0  0  0  0  0  0  0  0
  -21.6034  -23.7782   22.8442 O   0  0  0  0  0  0  0  0  0  0  0  0
  -22.9996  -27.9139   20.9822 O   0  0  0  0  0  0  0  0  0  0  0  0
  -31.7446  -15.1718   20.3666 O   0  0  0  0  0  0  0  0  0  0  0  0
  -21.7757   -6.9214   21.9853 O   0  0  0  0  0  0  0  0  0  0  0  0
  -29.5874  -26.4708   21.9149 O   0  0  0  0  0  0  0  0  0  1  0  0
  -18.4550   -7.0727   26.3846 F   0  0  0  0  0  0  0  0  0  0  0  0
  -19.6693   -8.7074   22.1115 F   0  0  0  0  0  0  0  0  0  0  0  0
  -30.0857  -29.7143   21.6678 Cl  0  0  0  0  0  0  0  0  0  0  0  0
  -34.3392  -29.4740   18.4130 Cl  0  0  0  0  0  0  0  0  0  0  0  0
  1  2  1  0  0  0  0
  1  5  2  0  0  0  0
  2  6  2  0  0  0  0
  3  8  2  0  0  0  0
  3 16  1  0  0  0  0
  4  9  1  0  0  0  0
  4 16  2  0  0  0  0
  5 18  1  0  0  0  0
  6 20  1  0  0  0  0
  7 10  2  0  0  0  0
  7 19  1  0  0  0  0
  8 25  1  0  0  0  0
  9 25  2  0  0  0  0
 10 26  1  0  0  0  0
 11 12  2  0  0  0  0
 11 27  1  0  0  0  0
 12 28  1  0  0  0  0
 13 21  1  0  0  0  0
 13 26  2  0  0  0  0
 14 28  2  0  0  0  0
 14 29  1  0  0  0  0
 15 30  2  0  0  0  0
 15 31  1  0  0  0  0
 16 32  1  0  0  0  0
 17 32  1  0  0  0  0
 17 33  2  0  0  0  0
 17 34  1  0  0  0  0
 18 20  2  0  0  0  0
 18 39  1  0  0  0  0
 19 21  2  0  0  0  0
 19 40  1  0  0  0  0
 20 48  1  0  0  0  0
 21 41  1  0  0  0  0
 22 23  2  0  0  0  0
 22 24  1  0  0  0  0
 22 58  1  0  0  0  0
 23 30  1  0  0  0  0
 23 59  1  0  0  0  0
 24 31  2  0  0  0  0
 24 76  1  0  0  0  0
 25 87  1  0  0  0  0
 26 88  1  0  0  0  0
 27 29  2  0  0  0  0
 27 87  1  0  0  0  0
 28 89  1  0  0  0  0
 29 90  1  0  0  0  0
 30 91  1  0  0  0  0
 31 92  1  0  0  0  0
 32 70  2  0  0  0  0
 33 71  1  0  0  0  0
 33 74  1  0  0  0  0
 34 75  1  0  0  0  0
 34 82  2  0  0  0  0
 35 49  1  0  0  0  0
 35 77  1  0  0  0  0
 35 83  2  0  0  0  0
 36 66  1  0  0  0  0
 36 72  1  0  0  0  0
 36 84  2  0  0  0  0
 37 67  1  0  0  0  0
 37 78  1  0  0  0  0
 37 85  2  0  0  0  0
 38 73  1  0  0  0  0
 38 79  1  0  0  0  0
 38 86  2  0  0  0  0
 39 42  1  0  0  0  0
 40 49  1  0  0  0  0
 41 72  1  0  0  0  0
 42 44  1  0  0  0  0
 43 45  1  0  0  0  0
 43 46  1  0  0  0  0
 44 48  1  0  0  0  0
 45 50  1  0  0  0  0
 46 73  1  0  0  0  0
 47 50  1  0  0  0  0
 47 73  1  0  0  0  0
 48 77  1  0  0  0  0
 49 72  1  0  0  0  0
 50 71  1  0  0  0  0
 51 67  1  0  0  0  0
 52 68  1  0  0  0  0
 53 68  1  0  0  0  0
 54 69  1  0  0  0  0
 55 69  1  0  0  0  0
 56 69  1  0  0  0  0
 57 80  1  0  0  0  0
 58 81  1  0  0  0  0
 59 88  1  0  0  0  0
 60 61  1  0  0  0  0
 60 62  1  0  0  0  0
 61 63  1  0  0  0  0
 62 64  1  0  0  0  0
 63 65  1  0  0  0  0
 64 79  1  0  0  0  0
 65 81  1  0  0  0  0
 66 69  1  0  0  0  0
 66 78  1  0  0  0  0
 67 80  1  0  0  0  0
 68 76  1  0  0  0  0
 70 71  1  0  0  0  0
M  CHG  2  80   1  81   1
M  ISO  4  38 100  59 101  79 100  88 101
M  END
> <Batch ID>
0020

> <Smiles>
CNC(C)C(=O)NC(C(=O)N1Cc2cc([101O:1][101CH2:1]c3c(Cl)cc(Cl)c(NC(C)C)c3CNCCCCCC[100NH:0][100C:0](=O)N3CCCC(n4nc(-c5ccc(Oc6ccc(F)cc6F)cc5)c(C(N)=O)c4N)C3)ccc2CC1C(=O)NC1CCCc2ccccc21)C(C)(C)C

> <Shape>
0.243

> <Color>
0.185

> <Negative vol penalty>
0.000

$$$$

  -OEChem-04052316093D

 97105  0     1  0  0  0  0  0999 V2000
  -23.7874  -33.0514   16.5914 C   0  0  0  0  0  0  0  0  0  0  0  0
  -24.2608  -31.7681   16.3375 C   0  0  0  0  0  0  0  0  0  0  0  0
  -23.1279   -9.8043   21.4158 C   0  0  0  0  0  0  0  0  0  0  0  0
  -23.8677  -10.6765   23.5439 C   0  0  0  0  0  0  0  0  0  0  0  0
  -24.0717  -33.6701   17.8080 C   0  0  0  0  0  0  0  0  0  0  0  0
  -25.0198  -31.1031   17.2999 C   0  0  0  0  0  0  0  0  0  0  0  0
  -26.3163  -24.5243   19.8209 C   0  0  0  0  0  0  0  0  0  0  0  0
  -22.4169   -8.8009   22.0742 C   0  0  0  0  0  0  0  0  0  0  0  0
  -23.1568   -9.6732   24.2023 C   0  0  0  0  0  0  0  0  0  0  0  0
  -27.3806  -23.6674   20.0977 C   0  0  0  0  0  0  0  0  0  0  0  0
  -23.0863   -5.8407   23.5618 C   0  0  0  0  0  0  0  0  0  0  0  0
  -23.1921   -4.5409   23.0667 C   0  0  0  0  0  0  0  0  0  0  0  0
  -27.7423  -24.8038   22.1946 C   0  0  0  0  0  0  0  0  0  0  0  0
  -25.9801  -18.4058   25.5129 C   0  0  0  0  0  0  0  0  0  0  0  0
  -27.6657  -19.2446   23.9990 C   0  0  0  0  0  0  0  0  0  0  0  0
  -20.8067   -4.4918   22.6862 C   0  0  0  0  0  0  0  0  0  0  0  0
  -23.8533  -10.7421   22.1507 C   0  0  0  0  0  0  0  0  0  0  0  0
  -24.1200  -13.0560   21.1105 C   0  0  0  0  0  0  0  0  0  0  0  0
  -24.8264  -33.0086   18.7896 C   0  0  0  0  0  0  0  0  0  0  0  0
  -25.9633  -25.5362   20.7254 C   0  0  0  0  0  0  0  0  0  0  0  0
  -25.3156  -31.7141   18.5303 C   0  0  0  0  0  0  0  0  0  0  0  0
  -26.6715  -25.6707   21.9281 C   0  0  0  0  0  0  0  0  0  0  0  0
  -26.3402  -19.2105   24.4320 C   0  0  0  0  0  0  0  0  0  0  0  0
  -26.9455  -17.6352   26.1608 C   0  0  0  0  0  0  0  0  0  0  0  0
  -28.6311  -18.4740   24.6469 C   0  0  0  0  0  0  0  0  0  0  0  0
  -22.4313   -8.7354   23.4674 C   0  0  0  0  0  0  0  0  0  0  0  0
  -28.0956  -23.8088   21.2834 C   0  0  0  0  0  0  0  0  0  0  0  0
  -21.8408   -6.4659   23.6192 C   0  0  0  0  0  0  0  0  0  0  0  0
  -22.0523   -3.8665   22.6289 C   0  0  0  0  0  0  0  0  0  0  0  0
  -20.7010   -5.7915   23.1814 C   0  0  0  0  0  0  0  0  0  0  0  0
  -28.2710  -17.6693   25.7278 C   0  0  0  0  0  0  0  0  0  0  0  0
  -24.5884  -11.7784   21.4711 C   0  0  0  0  0  0  0  0  0  0  0  0
  -25.1922  -13.6533   20.4939 C   0  0  0  0  0  0  0  0  0  0  0  0
  -22.8311  -13.6499   21.3147 C   0  0  0  0  0  0  0  0  0  0  0  0
  -25.8639  -28.7112   20.6125 C   0  0  0  0  0  0  0  0  0  0  0  0
  -24.5150  -28.3846   23.5444 C   0  0  0  0  0  0  0  0  0  0  0  0
  -24.1042  -26.4841   26.3490 C   0  0  0  0  0  0  0  0  0  0  0  0
  -30.6410  -14.8404   20.2774 C   0  0  0  0  0  0  0  0  0  0  0  0
  -25.1481  -33.7364   20.0709 C   0  0  0  0  0  0  0  0  0  0  0  0
  -24.7958  -26.4353   20.4243 C   0  0  0  0  0  0  0  0  0  0  0  0
  -26.3198  -26.7278   22.9416 C   0  0  0  0  0  0  0  0  0  0  0  0
  -25.6423  -32.8178   21.1855 C   0  0  0  0  0  0  0  0  0  0  0  0
  -29.5959  -11.7119   18.9369 C   0  0  0  0  0  0  0  0  0  0  0  0
  -26.6994  -31.8548   20.6543 C   0  0  0  0  0  0  0  0  0  0  0  0
  -28.1643  -11.5531   19.4520 C   0  0  0  0  0  0  0  0  0  0  0  0
  -30.4958  -12.3866   19.9698 C   0  0  0  0  0  0  0  0  0  0  0  0
  -28.5612  -13.5163   20.9970 C   0  0  0  0  0  0  0  0  0  0  0  0
  -26.1213  -30.9506   19.5590 C   0  0  1  0  0  0  0  0  0  0  0  0
  -24.8502  -27.7589   21.1810 C   0  0  1  0  0  0  0  0  0  0  0  0
  -27.6028  -12.8913   19.9689 C   0  0  2  0  0  0  0  0  0  0  0  0
  -22.9759  -26.4985   28.5905 C   0  0  0  0  0  0  0  0  0  0  0  0
  -30.3345  -17.9222   19.2792 C   0  0  0  0  0  0  0  0  0  0  0  0
  -24.6432  -21.0497   24.7207 C   0  0  0  0  0  0  0  0  0  0  0  0
  -24.1746  -19.1421   23.1466 C   0  0  0  0  0  0  0  0  0  0  0  0
  -25.8298  -20.8958   22.5412 C   0  0  0  0  0  0  0  0  0  0  0  0
  -24.9851  -16.9397   27.5816 C   0  0  0  0  0  0  0  0  0  0  0  0
  -27.2645  -17.1899   28.6199 C   0  0  0  0  0  0  0  0  0  0  0  0
  -26.7591  -15.2534   27.1447 C   0  0  0  0  0  0  0  0  0  0  0  0
  -26.6353  -30.3100   24.5965 C   0  0  0  0  0  0  0  0  0  0  0  0
  -26.0715  -29.5537   26.9156 C   0  0  0  0  0  0  0  0  0  0  0  0
  -24.3400  -30.6810   25.5177 C   0  0  0  0  0  0  0  0  0  0  0  0
  -32.2371  -19.3275   24.0159 C   0  0  0  0  0  0  0  0  0  0  0  0
  -31.0422  -19.2552   26.2150 C   0  0  0  0  0  0  0  0  0  0  0  0
  -22.4965  -24.0897   25.6847 C   0  0  0  0  0  0  0  0  0  0  0  0
  -30.0169  -21.3042   23.0386 C   0  0  0  0  0  0  0  0  0  0  0  0
  -30.3101  -20.9356   24.4969 C   0  0  0  0  0  0  0  0  0  0  0  0
  -30.1656  -18.2142   21.7759 C   0  0  0  0  0  0  0  0  0  0  0  0
  -30.4196  -17.6118   23.1575 C   0  0  0  0  0  0  0  0  0  0  0  0
  -29.3999  -22.6932   22.9296 C   0  0  0  0  0  0  0  0  0  1  0  0
  -25.0364  -28.3155   24.9594 C   0  0  1  0  0  0  0  0  0  0  0  0
  -22.8613  -26.0947   27.1288 C   0  0  2  0  0  0  0  0  0  0  0  0
  -30.6316  -17.2958   20.6378 C   0  0  1  0  0  0  0  0  0  0  0  0
  -25.3083  -20.0352   23.7396 C   0  0  0  0  0  0  0  0  0  0  0  0
  -26.5133  -16.7879   27.3143 C   0  0  0  0  0  0  0  0  0  0  0  0
  -25.5289  -29.6963   25.4775 C   0  0  0  0  0  0  0  0  0  0  0  0
  -30.8833  -19.5152   24.7100 C   0  0  0  0  0  0  0  0  0  0  0  0
  -25.8591  -11.5750   21.1133 N   0  0  0  0  0  0  0  0  0  0  0  0
  -26.1982  -12.7329   20.5213 N   0  0  0  0  0  0  0  0  0  0  0  0
  -25.1742  -27.5866   22.5985 N   0  0  0  0  0  0  0  0  0  0  0  0
  -29.9070  -13.6510   20.4179 N   0  0  0  0  0  0  0  0  0  0  0  0
  -25.3630  -14.8708   19.9363 N   0  0  0  0  0  0  0  0  0  0  0  0
  -21.8442  -12.8971   21.9655 N   0  0  0  0  0  0  0  0  0  0  0  0
  -25.3241  -29.8940   20.1444 N   0  0  0  0  0  0  0  0  0  0  0  0
  -23.9697  -27.7231   25.7591 N   0  0  0  0  0  0  0  0  0  0  0  0
  -30.0070  -15.9944   20.7214 N   0  0  0  0  0  0  0  0  0  0  0  0
  -29.9490  -18.5318   24.1876 N   0  0  3  0  0  0  0  0  0  0  0  0
  -22.6493  -24.6210   27.0636 N   0  3  0  0  0  0  0  0  0  0  0  0
  -22.5574  -14.8076   20.9168 O   0  0  0  0  0  0  0  0  0  0  0  0
  -27.0483  -28.3968   20.6008 O   0  0  0  0  0  0  0  0  0  0  0  0
  -23.5535  -29.1140   23.2891 O   0  0  0  0  0  0  0  0  0  0  0  0
  -25.0966  -25.7630   26.2741 O   0  0  0  0  0  0  0  0  0  0  0  0
  -31.7750  -14.8722   19.7875 O   0  0  0  0  0  0  0  0  0  0  0  0
  -21.7375   -7.7566   24.1102 O   0  0  0  0  0  0  0  0  0  0  0  0
  -29.1353  -22.9741   21.5558 O   0  0  0  0  0  0  0  0  0  1  0  0
  -22.1542   -2.6189   22.1521 F   0  0  0  0  0  0  0  0  0  0  0  0
  -19.5018   -6.3875   23.2330 F   0  0  0  0  0  0  0  0  0  0  0  0
  -29.4666  -16.7096   26.5368 Cl  0  0  0  0  0  0  0  0  0  0  0  0
  1  2  1  0  0  0  0
  1  5  2  0  0  0  0
  2  6  2  0  0  0  0
  3  8  2  0  0  0  0
  3 17  1  0  0  0  0
  4  9  1  0  0  0  0
  4 17  2  0  0  0  0
  5 19  1  0  0  0  0
  6 21  1  0  0  0  0
  7 10  2  0  0  0  0
  7 20  1  0  0  0  0
  8 26  1  0  0  0  0
  9 26  2  0  0  0  0
 10 27  1  0  0  0  0
 11 12  2  0  0  0  0
 11 28  1  0  0  0  0
 12 29  1  0  0  0  0
 13 22  1  0  0  0  0
 13 27  2  0  0  0  0
 14 23  1  0  0  0  0
 14 24  2  0  0  0  0
 15 23  2  0  0  0  0
 15 25  1  0  0  0  0
 16 29  2  0  0  0  0
 16 30  1  0  0  0  0
 17 32  1  0  0  0  0
 18 32  1  0  0  0  0
 18 33  2  0  0  0  0
 18 34  1  0  0  0  0
 19 21  2  0  0  0  0
 19 39  1  0  0  0  0
 20 22  2  0  0  0  0
 20 40  1  0  0  0  0
 21 48  1  0  0  0  0
 22 41  1  0  0  0  0
 23 73  1  0  0  0  0
 24 31  1  0  0  0  0
 24 74  1  0  0  0  0
 25 31  2  0  0  0  0
 25 86  1  0  0  0  0
 26 93  1  0  0  0  0
 27 94  1  0  0  0  0
 28 30  2  0  0  0  0
 28 93  1  0  0  0  0
 29 95  1  0  0  0  0
 30 96  1  0  0  0  0
 31 97  1  0  0  0  0
 32 77  2  0  0  0  0
 33 78  1  0  0  0  0
 33 81  1  0  0  0  0
 34 82  1  0  0  0  0
 34 88  2  0  0  0  0
 35 49  1  0  0  0  0
 35 83  1  0  0  0  0
 35 89  2  0  0  0  0
 36 70  1  0  0  0  0
 36 79  1  0  0  0  0
 36 90  2  0  0  0  0
 37 71  1  0  0  0  0
 37 84  1  0  0  0  0
 37 91  2  0  0  0  0
 38 80  1  0  0  0  0
 38 85  1  0  0  0  0
 38 92  2  0  0  0  0
 39 42  1  0  0  0  0
 40 49  1  0  0  0  0
 41 79  1  0  0  0  0
 42 44  1  0  0  0  0
 43 45  1  0  0  0  0
 43 46  1  0  0  0  0
 44 48  1  0  0  0  0
 45 50  1  0  0  0  0
 46 80  1  0  0  0  0
 47 50  1  0  0  0  0
 47 80  1  0  0  0  0
 48 83  1  0  0  0  0
 49 79  1  0  0  0  0
 50 78  1  0  0  0  0
 51 71  1  0  0  0  0
 52 72  1  0  0  0  0
 53 73  1  0  0  0  0
 54 73  1  0  0  0  0
 55 73  1  0  0  0  0
 56 74  1  0  0  0  0
 57 74  1  0  0  0  0
 58 74  1  0  0  0  0
 59 75  1  0  0  0  0
 60 75  1  0  0  0  0
 61 75  1  0  0  0  0
 62 76  1  0  0  0  0
 63 76  1  0  0  0  0
 64 87  1  0  0  0  0
 65 66  1  0  0  0  0
 65 69  1  0  0  0  0
 66 76  1  0  0  0  0
 67 68  1  0  0  0  0
 67 72  1  0  0  0  0
 68 86  1  0  0  0  0
 69 94  1  0  0  0  0
 70 75  1  0  0  0  0
 70 84  1  0  0  0  0
 71 87  1  0  0  0  0
 72 85  1  0  0  0  0
 76 86  1  0  0  0  0
 77 78  1  0  0  0  0
M  CHG  1  87   1
M  ISO  4  38 100  69 101  85 100  94 101
M  END
> <Batch ID>
0020

> <Smiles>
CNC(C)C(=O)NC(C(=O)N1Cc2cc([101O:1][101CH2:1]CCC(C)(C)N(CCC(C)[100NH:0][100C:0](=O)N3CCCC(n4nc(-c5ccc(Oc6ccc(F)cc6F)cc5)c(C(N)=O)c4N)C3)c3cc(C(C)(C)C)cc(C(C)(C)C)c3Cl)ccc2CC1C(=O)NC1CCCc2ccccc21)C(C)(C)C

> <Shape>
0.227

> <Color>
0.173

> <Negative vol penalty>
0.000

$$$$

  -OEChem-04052316093D

 85 93  0     1  0  0  0  0  0999 V2000
  -26.3542  -33.1456   19.3400 C   0  0  0  0  0  0  0  0  0  0  0  0
  -27.4226  -32.4705   19.9217 C   0  0  0  0  0  0  0  0  0  0  0  0
  -23.0396   -9.8904   19.9639 C   0  0  0  0  0  0  0  0  0  0  0  0
  -23.8012   -9.9017   22.2567 C   0  0  0  0  0  0  0  0  0  0  0  0
  -25.0546  -32.6708   19.5115 C   0  0  0  0  0  0  0  0  0  0  0  0
  -27.1917  -31.3208   20.6763 C   0  0  0  0  0  0  0  0  0  0  0  0
  -30.8042  -26.3916   21.0748 C   0  0  0  0  0  0  0  0  0  0  0  0
  -22.2715   -8.7557   20.2246 C   0  0  0  0  0  0  0  0  0  0  0  0
  -23.0330   -8.7670   22.5174 C   0  0  0  0  0  0  0  0  0  0  0  0
  -31.7445  -25.9921   22.0234 C   0  0  0  0  0  0  0  0  0  0  0  0
  -20.9910   -6.0850   23.8797 C   0  0  0  0  0  0  0  0  0  0  0  0
  -20.2349   -6.0681   25.0516 C   0  0  0  0  0  0  0  0  0  0  0  0
  -30.0710  -24.6276   23.0988 C   0  0  0  0  0  0  0  0  0  0  0  0
  -32.1731  -16.4323   22.4800 C   0  0  0  0  0  0  0  0  0  0  0  0
  -19.0314   -8.0250   24.3034 C   0  0  0  0  0  0  0  0  0  0  0  0
  -23.8046  -10.4634   20.9799 C   0  0  0  0  0  0  0  0  0  0  0  0
  -24.2002  -12.9794   20.8371 C   0  0  0  0  0  0  0  0  0  0  0  0
  -24.8086  -31.5093   20.2605 C   0  0  0  0  0  0  0  0  0  0  0  0
  -29.4851  -25.9198   21.1376 C   0  0  0  0  0  0  0  0  0  0  0  0
  -25.8874  -30.8309   20.8591 C   0  0  0  0  0  0  0  0  0  0  0  0
  -29.1165  -25.0206   22.1483 C   0  0  0  0  0  0  0  0  0  0  0  0
  -32.8151  -17.2958   23.3676 C   0  0  0  0  0  0  0  0  0  0  0  0
  -32.0689  -18.1985   24.1251 C   0  0  0  0  0  0  0  0  0  0  0  0
  -30.6807  -18.2378   23.9951 C   0  0  0  0  0  0  0  0  0  0  0  0
  -30.7848  -16.4716   22.3499 C   0  0  0  0  0  0  0  0  0  0  0  0
  -22.2681   -8.1940   21.5014 C   0  0  0  0  0  0  0  0  0  0  0  0
  -31.3773  -25.1122   23.0373 C   0  0  0  0  0  0  0  0  0  0  0  0
  -20.7675   -7.0720   22.9196 C   0  0  0  0  0  0  0  0  0  0  0  0
  -19.2551   -7.0381   25.2635 C   0  0  0  0  0  0  0  0  0  0  0  0
  -19.7877   -8.0419   23.1314 C   0  0  0  0  0  0  0  0  0  0  0  0
  -30.0386  -17.3743   23.1075 C   0  0  0  0  0  0  0  0  0  0  0  0
  -24.5987  -11.6352   20.7111 C   0  0  0  0  0  0  0  0  0  0  0  0
  -25.3079  -13.7021   20.4665 C   0  0  0  0  0  0  0  0  0  0  0  0
  -22.9414  -13.5260   21.2520 C   0  0  0  0  0  0  0  0  0  0  0  0
  -26.6346  -27.2732   21.5205 C   0  0  0  0  0  0  0  0  0  0  0  0
  -25.5629  -24.2646   20.9530 C   0  0  0  0  0  0  0  0  0  0  0  0
  -26.1894  -20.9100   20.9936 C   0  0  0  0  0  0  0  0  0  0  0  0
  -30.7953  -14.6321   20.6288 C   0  0  0  0  0  0  0  0  0  0  0  0
  -23.3820  -31.0611   20.4575 C   0  0  0  0  0  0  0  0  0  0  0  0
  -28.4895  -26.3394   20.0911 C   0  0  0  0  0  0  0  0  0  0  0  0
  -27.7185  -24.4692   22.2480 C   0  0  0  0  0  0  0  0  0  0  0  0
  -23.2586  -29.6248   20.9594 C   0  0  0  0  0  0  0  0  0  0  0  0
  -29.6278  -12.2215   18.2829 C   0  0  0  0  0  0  0  0  0  0  0  0
  -24.2256  -29.3775   22.1129 C   0  0  0  0  0  0  0  0  0  0  0  0
  -28.1825  -11.9647   18.7158 C   0  0  0  0  0  0  0  0  0  0  0  0
  -30.5485  -12.4415   19.4819 C   0  0  0  0  0  0  0  0  0  0  0  0
  -28.6585  -13.2189   20.8577 C   0  0  0  0  0  0  0  0  0  0  0  0
  -25.6797  -29.5663   21.6640 C   0  0  1  0  0  0  0  0  0  0  0  0
  -27.0423  -26.1986   20.5526 C   0  0  1  0  0  0  0  0  0  0  0  0
  -27.6813  -13.0559   19.6820 C   0  0  2  0  0  0  0  0  0  0  0  0
  -34.3030  -17.2340   23.4873 C   0  0  0  0  0  0  0  0  0  0  0  0
  -29.8980  -19.2157   24.8162 C   0  0  0  0  0  0  0  0  0  0  0  0
  -25.1075  -18.6981   20.5097 C   0  0  0  0  0  0  0  0  0  0  0  0
  -23.9816  -24.4716   23.5543 C   0  0  0  0  0  0  0  0  0  0  0  0
  -23.7083  -21.9834   23.5048 C   0  0  0  0  0  0  0  0  0  0  0  0
  -22.7526  -23.3781   21.6706 C   0  0  0  0  0  0  0  0  0  0  0  0
  -28.1848  -20.2595   18.9070 C   0  0  0  0  0  0  0  0  0  0  0  0
  -32.7641  -19.1272   25.0766 C   0  0  0  0  0  0  0  0  0  0  0  0
  -33.4998  -22.8816   24.9204 C   0  0  0  0  0  0  0  0  0  0  0  0
  -33.4592  -21.4847   25.5214 C   0  0  0  0  0  0  0  0  0  0  0  0
  -32.1290  -23.4220   24.5319 C   0  0  0  0  0  0  0  0  0  1  0  0
  -25.2569  -23.0594   21.8092 C   0  0  1  0  0  0  0  0  0  0  0  0
  -25.9577  -19.8294   19.9530 C   0  0  2  0  0  0  0  0  0  0  0  0
  -23.9508  -23.2349   22.6342 C   0  0  0  0  0  0  0  0  0  0  0  0
  -25.8610  -11.5085   20.2930 N   0  0  0  0  0  0  0  0  0  0  0  0
  -26.2651  -12.7826   20.1529 N   0  0  0  0  0  0  0  0  0  0  0  0
  -26.7795  -24.9143   21.2050 N   0  0  0  0  0  0  0  0  0  0  0  0
  -30.0123  -13.4918   20.3503 N   0  0  0  0  0  0  0  0  0  0  0  0
  -25.5466  -15.0281   20.3814 N   0  0  0  0  0  0  0  0  0  0  0  0
  -21.9105  -12.6418   21.5980 N   0  0  0  0  0  0  0  0  0  0  0  0
  -30.1685  -15.5781   21.4392 N   0  0  0  0  0  0  0  0  0  0  0  0
  -26.1326  -28.4113   20.9188 N   0  0  0  0  0  0  0  0  0  0  0  0
  -25.2453  -21.9115   20.9089 N   0  0  0  0  0  0  0  0  0  0  0  0
  -27.2581  -19.2604   19.4988 N   0  3  0  0  0  0  0  0  0  0  0  0
  -32.8347  -20.5284   24.5775 N   0  3  0  0  0  0  0  0  0  0  0  0
  -22.7315  -14.7619   21.2985 O   0  0  0  0  0  0  0  0  0  0  0  0
  -26.7643  -27.0831   22.7241 O   0  0  0  0  0  0  0  0  0  0  0  0
  -24.7556  -24.6123   20.0876 O   0  0  0  0  0  0  0  0  0  0  0  0
  -27.1130  -20.8680   21.8033 O   0  0  0  0  0  0  0  0  0  0  0  0
  -31.9274  -14.7724   20.1590 O   0  0  0  0  0  0  0  0  0  0  0  0
  -21.5185   -7.0869   21.7562 O   0  0  0  0  0  0  0  0  0  0  0  0
  -32.2931  -24.7212   23.9648 O   0  0  0  0  0  0  0  0  0  1  0  0
  -18.5279   -7.0208   26.3883 F   0  0  0  0  0  0  0  0  0  0  0  0
  -19.5675   -8.9918   22.2122 F   0  0  0  0  0  0  0  0  0  0  0  0
  -28.3122  -17.4236   22.9480 Cl  0  0  0  0  0  0  0  0  0  0  0  0
  1  2  1  0  0  0  0
  1  5  2  0  0  0  0
  2  6  2  0  0  0  0
  3  8  2  0  0  0  0
  3 16  1  0  0  0  0
  4  9  1  0  0  0  0
  4 16  2  0  0  0  0
  5 18  1  0  0  0  0
  6 20  1  0  0  0  0
  7 10  2  0  0  0  0
  7 19  1  0  0  0  0
  8 26  1  0  0  0  0
  9 26  2  0  0  0  0
 10 27  1  0  0  0  0
 11 12  2  0  0  0  0
 11 28  1  0  0  0  0
 12 29  1  0  0  0  0
 13 21  1  0  0  0  0
 13 27  2  0  0  0  0
 14 22  2  0  0  0  0
 14 25  1  0  0  0  0
 15 29  2  0  0  0  0
 15 30  1  0  0  0  0
 16 32  1  0  0  0  0
 17 32  1  0  0  0  0
 17 33  2  0  0  0  0
 17 34  1  0  0  0  0
 18 20  2  0  0  0  0
 18 39  1  0  0  0  0
 19 21  2  0  0  0  0
 19 40  1  0  0  0  0
 20 48  1  0  0  0  0
 21 41  1  0  0  0  0
 22 23  1  0  0  0  0
 22 51  1  0  0  0  0
 23 24  2  0  0  0  0
 23 58  1  0  0  0  0
 24 31  1  0  0  0  0
 24 52  1  0  0  0  0
 25 31  2  0  0  0  0
 25 71  1  0  0  0  0
 26 81  1  0  0  0  0
 27 82  1  0  0  0  0
 28 30  2  0  0  0  0
 28 81  1  0  0  0  0
 29 83  1  0  0  0  0
 30 84  1  0  0  0  0
 31 85  1  0  0  0  0
 32 65  2  0  0  0  0
 33 66  1  0  0  0  0
 33 69  1  0  0  0  0
 34 70  1  0  0  0  0
 34 76  2  0  0  0  0
 35 49  1  0  0  0  0
 35 72  1  0  0  0  0
 35 77  2  0  0  0  0
 36 62  1  0  0  0  0
 36 67  1  0  0  0  0
 36 78  2  0  0  0  0
 37 63  1  0  0  0  0
 37 73  1  0  0  0  0
 37 79  2  0  0  0  0
 38 68  1  0  0  0  0
 38 71  1  0  0  0  0
 38 80  2  0  0  0  0
 39 42  1  0  0  0  0
 40 49  1  0  0  0  0
 41 67  1  0  0  0  0
 42 44  1  0  0  0  0
 43 45  1  0  0  0  0
 43 46  1  0  0  0  0
 44 48  1  0  0  0  0
 45 50  1  0  0  0  0
 46 68  1  0  0  0  0
 47 50  1  0  0  0  0
 47 68  1  0  0  0  0
 48 72  1  0  0  0  0
 49 67  1  0  0  0  0
 50 66  1  0  0  0  0
 53 63  1  0  0  0  0
 54 64  1  0  0  0  0
 55 64  1  0  0  0  0
 56 64  1  0  0  0  0
 57 74  1  0  0  0  0
 58 75  1  0  0  0  0
 59 60  1  0  0  0  0
 59 61  1  0  0  0  0
 60 75  1  0  0  0  0
 61 82  1  0  0  0  0
 62 64  1  0  0  0  0
 62 73  1  0  0  0  0
 63 74  1  0  0  0  0
 65 66  1  0  0  0  0
M  CHG  2  74   1  75   1
M  ISO  4  38 100  61 101  71 100  82 101
M  END
> <Batch ID>
0020

> <Smiles>
CNC(C)C(=O)NC(C(=O)N1Cc2cc([101O:1][101CH2:1]CCNCc3c(C)cc([100NH:0][100C:0](=O)N4CCCC(n5nc(-c6ccc(Oc7ccc(F)cc7F)cc6)c(C(N)=O)c5N)C4)c(Cl)c3C)ccc2CC1C(=O)NC1CCCc2ccccc21)C(C)(C)C

> <Shape>
0.253

> <Color>
0.213

> <Negative vol penalty>
0.000

$$$$

  -OEChem-04052316093D

 88 96  0     1  0  0  0  0  0999 V2000
  -26.8245  -35.1694   24.1278 C   0  0  0  0  0  0  0  0  0  0  0  0
  -27.3122  -33.8673   24.0831 C   0  0  0  0  0  0  0  0  0  0  0  0
  -23.2979   -9.6536   20.9797 C   0  0  0  0  0  0  0  0  0  0  0  0
  -23.9369  -10.4354   23.1746 C   0  0  0  0  0  0  0  0  0  0  0  0
  -25.4491  -35.3972   24.1428 C   0  0  0  0  0  0  0  0  0  0  0  0
  -26.4247  -32.7921   24.0544 C   0  0  0  0  0  0  0  0  0  0  0  0
  -27.7306  -29.2855   20.6422 C   0  0  0  0  0  0  0  0  0  0  0  0
  -22.6186   -8.5820   21.5592 C   0  0  0  0  0  0  0  0  0  0  0  0
  -23.2575   -9.3638   23.7541 C   0  0  0  0  0  0  0  0  0  0  0  0
  -28.7632  -28.4146   20.9874 C   0  0  0  0  0  0  0  0  0  0  0  0
  -19.6576   -8.0516   23.1033 C   0  0  0  0  0  0  0  0  0  0  0  0
  -18.3832   -7.7547   22.6205 C   0  0  0  0  0  0  0  0  0  0  0  0
  -27.1391  -26.7241   21.5564 C   0  0  0  0  0  0  0  0  0  0  0  0
  -19.1350   -5.5456   21.9945 C   0  0  0  0  0  0  0  0  0  0  0  0
  -23.9571  -10.5803   21.7874 C   0  0  0  0  0  0  0  0  0  0  0  0
  -24.1399  -12.9602   20.8873 C   0  0  0  0  0  0  0  0  0  0  0  0
  -24.5442  -34.3246   24.1045 C   0  0  0  0  0  0  0  0  0  0  0  0
  -26.3920  -28.8853   20.7621 C   0  0  0  0  0  0  0  0  0  0  0  0
  -25.0359  -33.0058   24.0703 C   0  0  0  0  0  0  0  0  0  0  0  0
  -26.0914  -27.5909   21.2096 C   0  0  0  0  0  0  0  0  0  0  0  0
  -30.6542  -19.5525   22.1328 C   0  0  0  0  0  0  0  0  0  0  0  0
  -30.9647  -19.5608   19.7369 C   0  0  0  0  0  0  0  0  0  0  0  0
  -31.0059  -20.2252   20.9626 C   0  0  0  0  0  0  0  0  0  0  0  0
  -30.2615  -18.2151   22.0772 C   0  0  0  0  0  0  0  0  0  0  0  0
  -30.5719  -18.2235   19.6813 C   0  0  0  0  0  0  0  0  0  0  0  0
  -30.2203  -17.5507   20.8515 C   0  0  0  0  0  0  0  0  0  0  0  0
  -22.5984   -8.4371   22.9463 C   0  0  0  0  0  0  0  0  0  0  0  0
  -28.4674  -27.1347   21.4473 C   0  0  0  0  0  0  0  0  0  0  0  0
  -20.6709   -7.0956   23.0317 C   0  0  0  0  0  0  0  0  0  0  0  0
  -18.1218   -6.5016   22.0661 C   0  0  0  0  0  0  0  0  0  0  0  0
  -20.4095   -5.8426   22.4773 C   0  0  0  0  0  0  0  0  0  0  0  0
  -24.6594  -11.6872   21.1894 C   0  0  0  0  0  0  0  0  0  0  0  0
  -25.1984  -13.6414   20.3375 C   0  0  0  0  0  0  0  0  0  0  0  0
  -22.8188  -13.4806   21.0861 C   0  0  0  0  0  0  0  0  0  0  0  0
  -23.8964  -29.8813   22.4603 C   0  0  0  0  0  0  0  0  0  0  0  0
  -22.3044  -27.6841   20.6826 C   0  0  0  0  0  0  0  0  0  0  0  0
  -22.4244  -24.8280   18.8185 C   0  0  0  0  0  0  0  0  0  0  0  0
  -30.5689  -15.1111   20.3288 C   0  0  0  0  0  0  0  0  0  0  0  0
  -23.0664  -34.6189   24.1702 C   0  0  0  0  0  0  0  0  0  0  0  0
  -25.2904  -29.8273   20.3603 C   0  0  0  0  0  0  0  0  0  0  0  0
  -24.6713  -27.1056   21.3370 C   0  0  0  0  0  0  0  0  0  0  0  0
  -22.1913  -33.4375   23.7593 C   0  0  0  0  0  0  0  0  0  0  0  0
  -29.7367  -11.9995   18.8114 C   0  0  0  0  0  0  0  0  0  0  0  0
  -22.6711  -32.1571   24.4355 C   0  0  0  0  0  0  0  0  0  0  0  0
  -28.2989  -11.7456   19.2700 C   0  0  0  0  0  0  0  0  0  0  0  0
  -30.5721  -12.6625   19.9051 C   0  0  0  0  0  0  0  0  0  0  0  0
  -28.5537  -13.6314   20.9330 C   0  0  0  0  0  0  0  0  0  0  0  0
  -24.1048  -31.8141   24.0132 C   0  0  1  0  0  0  0  0  0  0  0  0
  -23.9513  -29.4924   21.0099 C   0  0  1  0  0  0  0  0  0  0  0  0
  -27.6560  -13.0239   19.8427 C   0  0  2  0  0  0  0  0  0  0  0  0
  -30.6976  -20.2661   23.4471 C   0  0  0  0  0  0  0  0  0  0  0  0
  -31.3406  -20.2835   18.4814 C   0  0  0  0  0  0  0  0  0  0  0  0
  -29.8850  -17.4970   23.3361 C   0  0  0  0  0  0  0  0  0  0  0  0
  -30.5292  -17.5142   18.3635 C   0  0  0  0  0  0  0  0  0  0  0  0
  -30.4615  -24.6134   18.7780 C   0  0  0  0  0  0  0  0  0  0  0  0
  -20.9560  -23.2554   17.5269 C   0  0  0  0  0  0  0  0  0  0  0  0
  -21.2893  -26.4867   23.2991 C   0  0  0  0  0  0  0  0  0  0  0  0
  -20.6469  -24.4283   22.0269 C   0  0  0  0  0  0  0  0  0  0  0  0
  -19.5798  -26.6153   21.4782 C   0  0  0  0  0  0  0  0  0  0  0  0
  -31.4931  -24.3189   22.5436 C   0  0  0  0  0  0  0  0  0  0  0  0
  -23.8729  -25.3644   16.2940 C   0  0  0  0  0  0  0  0  0  0  0  0
  -31.4292  -21.6730   21.0221 C   0  0  0  0  0  0  0  0  0  0  0  0
  -31.2434  -24.7155   20.0823 C   0  0  0  0  0  0  0  0  0  0  0  0
  -30.2181  -22.6028   21.1820 C   0  0  0  0  0  0  0  0  0  0  0  0
  -29.2289  -24.8877   21.6123 C   0  0  0  0  0  0  0  0  0  1  0  0
  -21.9903  -26.2148   20.8291 C   0  0  1  0  0  0  0  0  0  0  0  0
  -21.8439  -24.4882   17.4576 C   0  0  2  0  0  0  0  0  0  0  0  0
  -20.9034  -25.9458   21.9079 C   0  0  0  0  0  0  0  0  0  0  0  0
  -30.5473  -24.1174   21.3373 C   0  0  1  0  0  0  0  0  0  0  0  0
  -25.9477  -11.5642   20.8587 N   0  0  0  0  0  0  0  0  0  0  0  0
  -26.2465  -12.7687   20.3431 N   0  0  0  0  0  0  0  0  0  0  0  0
  -23.6291  -28.0658   20.9379 N   0  0  0  0  0  0  0  0  0  0  0  0
  -29.9030  -13.8690   20.3967 N   0  0  0  0  0  0  0  0  0  0  0  0
  -25.3253  -14.8956   19.8546 N   0  0  0  0  0  0  0  0  0  0  0  0
  -21.8521  -12.6464   21.6639 N   0  0  0  0  0  0  0  0  0  0  0  0
  -29.8216  -16.1921   20.7952 N   0  0  0  0  0  0  0  0  0  0  0  0
  -24.1152  -31.2261   22.6908 N   0  0  0  0  0  0  0  0  0  0  0  0
  -21.6399  -25.7373   19.4958 N   0  0  0  0  0  0  0  0  0  0  0  0
  -22.9369  -24.2258   16.4791 N   0  3  0  0  0  0  0  0  0  0  0  0
  -22.5005  -14.6453   20.7459 O   0  0  0  0  0  0  0  0  0  0  0  0
  -23.6707  -29.0249   23.3073 O   0  0  0  0  0  0  0  0  0  0  0  0
  -21.4090  -28.4633   20.3469 O   0  0  0  0  0  0  0  0  0  0  0  0
  -23.4675  -24.3332   19.2401 O   0  0  0  0  0  0  0  0  0  0  0  0
  -31.7072  -15.2126   19.8641 O   0  0  0  0  0  0  0  0  0  0  0  0
  -21.9354   -7.3917   23.5121 O   0  0  0  0  0  0  0  0  0  0  0  0
  -29.4734  -26.2829   21.7855 O   0  0  0  0  0  0  0  0  0  1  0  0
  -16.8975   -6.2161   21.6039 F   0  0  0  0  0  0  0  0  0  0  0  0
  -21.3786   -4.9196   22.4068 F   0  0  0  0  0  0  0  0  0  0  0  0
  1  2  1  0  0  0  0
  1  5  2  0  0  0  0
  2  6  2  0  0  0  0
  3  8  2  0  0  0  0
  3 15  1  0  0  0  0
  4  9  1  0  0  0  0
  4 15  2  0  0  0  0
  5 17  1  0  0  0  0
  6 19  1  0  0  0  0
  7 10  2  0  0  0  0
  7 18  1  0  0  0  0
  8 27  1  0  0  0  0
  9 27  2  0  0  0  0
 10 28  1  0  0  0  0
 11 12  2  0  0  0  0
 11 29  1  0  0  0  0
 12 30  1  0  0  0  0
 13 20  1  0  0  0  0
 13 28  2  0  0  0  0
 14 30  2  0  0  0  0
 14 31  1  0  0  0  0
 15 32  1  0  0  0  0
 16 32  1  0  0  0  0
 16 33  2  0  0  0  0
 16 34  1  0  0  0  0
 17 19  2  0  0  0  0
 17 39  1  0  0  0  0
 18 20  2  0  0  0  0
 18 40  1  0  0  0  0
 19 48  1  0  0  0  0
 20 41  1  0  0  0  0
 21 23  1  0  0  0  0
 21 24  2  0  0  0  0
 21 51  1  0  0  0  0
 22 23  2  0  0  0  0
 22 25  1  0  0  0  0
 22 52  1  0  0  0  0
 23 62  1  0  0  0  0
 24 26  1  0  0  0  0
 24 53  1  0  0  0  0
 25 26  2  0  0  0  0
 25 54  1  0  0  0  0
 26 76  1  0  0  0  0
 27 85  1  0  0  0  0
 28 86  1  0  0  0  0
 29 31  2  0  0  0  0
 29 85  1  0  0  0  0
 30 87  1  0  0  0  0
 31 88  1  0  0  0  0
 32 70  2  0  0  0  0
 33 71  1  0  0  0  0
 33 74  1  0  0  0  0
 34 75  1  0  0  0  0
 34 80  2  0  0  0  0
 35 49  1  0  0  0  0
 35 77  1  0  0  0  0
 35 81  2  0  0  0  0
 36 66  1  0  0  0  0
 36 72  1  0  0  0  0
 36 82  2  0  0  0  0
 37 67  1  0  0  0  0
 37 78  1  0  0  0  0
 37 83  2  0  0  0  0
 38 73  1  0  0  0  0
 38 76  1  0  0  0  0
 38 84  2  0  0  0  0
 39 42  1  0  0  0  0
 40 49  1  0  0  0  0
 41 72  1  0  0  0  0
 42 44  1  0  0  0  0
 43 45  1  0  0  0  0
 43 46  1  0  0  0  0
 44 48  1  0  0  0  0
 45 50  1  0  0  0  0
 46 73  1  0  0  0  0
 47 50  1  0  0  0  0
 47 73  1  0  0  0  0
 48 77  1  0  0  0  0
 49 72  1  0  0  0  0
 50 71  1  0  0  0  0
 55 63  1  0  0  0  0
 56 67  1  0  0  0  0
 57 68  1  0  0  0  0
 58 68  1  0  0  0  0
 59 68  1  0  0  0  0
 60 69  1  0  0  0  0
 61 79  1  0  0  0  0
 62 64  1  0  0  0  0
 63 69  1  0  0  0  0
 64 69  1  0  0  0  0
 65 69  1  0  0  0  0
 65 86  1  0  0  0  0
 66 68  1  0  0  0  0
 66 78  1  0  0  0  0
 67 79  1  0  0  0  0
 70 71  1  0  0  0  0
M  CHG  1  79   1
M  ISO  4  38 100  65 101  76 100  86 101
M  END
> <Batch ID>
0020

> <Smiles>
CCC(C)(CCc1c(C)c(C)c([100NH:0][100C:0](=O)N2CCCC(n3nc(-c4ccc(Oc5ccc(F)cc5F)cc4)c(C(N)=O)c3N)C2)c(C)c1C)[101CH2:1][101O:1]c1ccc2c(c1)CN(C(=O)C(NC(=O)C(C)NC)C(C)(C)C)C(C(=O)NC1CCCc3ccccc31)C2

> <Shape>
0.333

> <Color>
0.166

> <Negative vol penalty>
0.000

$$$$

  -OEChem-04052316093D

 87 95  0     1  0  0  0  0  0999 V2000
  -19.5895  -28.8064   26.4765 C   0  0  0  0  0  0  0  0  0  0  0  0
  -20.8777  -28.4297   26.1102 C   0  0  0  0  0  0  0  0  0  0  0  0
  -25.2889  -13.8048   21.4862 C   0  0  0  0  0  0  0  0  0  0  0  0
  -25.6064  -13.9659   19.0965 C   0  0  0  0  0  0  0  0  0  0  0  0
  -18.5609  -28.7742   25.5359 C   0  0  0  0  0  0  0  0  0  0  0  0
  -21.1377  -28.0195   24.8031 C   0  0  0  0  0  0  0  0  0  0  0  0
  -26.2650  -28.9797   21.5945 C   0  0  0  0  0  0  0  0  0  0  0  0
  -25.2144  -12.4158   21.3827 C   0  0  0  0  0  0  0  0  0  0  0  0
  -25.5319  -12.5768   18.9930 C   0  0  0  0  0  0  0  0  0  0  0  0
  -27.3735  -28.1750   21.3347 C   0  0  0  0  0  0  0  0  0  0  0  0
  -22.9214  -10.1060   20.4709 C   0  0  0  0  0  0  0  0  0  0  0  0
  -21.9066   -9.4579   21.1750 C   0  0  0  0  0  0  0  0  0  0  0  0
  -26.3956  -27.5180   19.2296 C   0  0  0  0  0  0  0  0  0  0  0  0
  -24.7678  -21.1149   23.8104 C   0  0  0  0  0  0  0  0  0  0  0  0
  -23.5629   -8.2012   22.4056 C   0  0  0  0  0  0  0  0  0  0  0  0
  -25.4849  -14.5799   20.3431 C   0  0  0  0  0  0  0  0  0  0  0  0
  -26.7173  -16.7915   20.6550 C   0  0  0  0  0  0  0  0  0  0  0  0
  -18.8105  -28.3726   24.2141 C   0  0  0  0  0  0  0  0  0  0  0  0
  -25.2067  -29.0512   20.6772 C   0  0  0  0  0  0  0  0  0  0  0  0
  -20.1112  -27.9806   23.8442 C   0  0  0  0  0  0  0  0  0  0  0  0
  -25.2760  -28.3263   19.4790 C   0  0  0  0  0  0  0  0  0  0  0  0
  -26.1189  -22.9166   22.9353 C   0  0  0  0  0  0  0  0  0  0  0  0
  -24.9636  -23.5908   22.5398 C   0  0  0  0  0  0  0  0  0  0  0  0
  -23.6125  -21.7891   23.4150 C   0  0  0  0  0  0  0  0  0  0  0  0
  -25.3359  -11.8018   20.1361 C   0  0  0  0  0  0  0  0  0  0  0  0
  -27.4376  -27.4417   20.1535 C   0  0  0  0  0  0  0  0  0  0  0  0
  -24.2570   -9.8016   20.7341 C   0  0  0  0  0  0  0  0  0  0  0  0
  -22.2273   -8.5056   22.1424 C   0  0  0  0  0  0  0  0  0  0  0  0
  -26.0210  -21.6787   23.5707 C   0  0  0  0  0  0  0  0  0  0  0  0
  -24.5778   -8.8493   21.7015 C   0  0  0  0  0  0  0  0  0  0  0  0
  -23.7104  -23.0270   22.7797 C   0  0  0  0  0  0  0  0  0  0  0  0
  -25.5614  -16.0148   20.4493 C   0  0  0  0  0  0  0  0  0  0  0  0
  -26.2606  -18.0866   20.6807 C   0  0  0  0  0  0  0  0  0  0  0  0
  -28.0819  -16.3793   20.8089 C   0  0  0  0  0  0  0  0  0  0  0  0
  -22.1149  -28.3179   20.7580 C   0  0  0  0  0  0  0  0  0  0  0  0
  -22.1118  -29.6902   17.8187 C   0  0  0  0  0  0  0  0  0  0  0  0
  -23.8714  -30.5690   15.0298 C   0  0  0  0  0  0  0  0  0  0  0  0
  -21.4158  -20.8353   22.6695 C   0  0  0  0  0  0  0  0  0  0  0  0
  -17.6569  -28.3088   23.2447 C   0  0  0  0  0  0  0  0  0  0  0  0
  -24.0303  -29.9447   20.9601 C   0  0  0  0  0  0  0  0  0  0  0  0
  -24.1755  -28.3843   18.4523 C   0  0  0  0  0  0  0  0  0  0  0  0
  -18.0926  -28.2199   21.7844 C   0  0  0  0  0  0  0  0  0  0  0  0
  -22.2195  -20.4229   19.0811 C   0  0  0  0  0  0  0  0  0  0  0  0
  -19.1927  -27.1763   21.6181 C   0  0  0  0  0  0  0  0  0  0  0  0
  -23.2071  -19.2575   19.0863 C   0  0  0  0  0  0  0  0  0  0  0  0
  -21.2436  -20.3436   20.2511 C   0  0  0  0  0  0  0  0  0  0  0  0
  -22.9058  -19.0825   21.5883 C   0  0  0  0  0  0  0  0  0  0  0  0
  -20.4380  -27.5534   22.4296 C   0  0  1  0  0  0  0  0  0  0  0  0
  -22.7758  -29.5423   20.1908 C   0  0  1  0  0  0  0  0  0  0  0  0
  -23.9255  -19.1615   20.4423 C   0  0  1  0  0  0  0  0  0  0  0  0
  -25.0922  -24.9186   21.8593 C   0  0  0  0  0  0  0  0  0  0  0  0
  -23.5888  -31.6427   12.7793 C   0  0  0  0  0  0  0  0  0  0  0  0
  -30.3088  -23.0209   21.3594 C   0  0  0  0  0  0  0  0  0  0  0  0
  -20.8197  -27.1349   16.7646 C   0  0  0  0  0  0  0  0  0  0  0  0
  -21.4294  -27.8649   14.4487 C   0  0  0  0  0  0  0  0  0  0  0  0
  -19.8726  -29.2486   15.8214 C   0  0  0  0  0  0  0  0  0  0  0  0
  -21.8680  -21.1364   25.0646 C   0  0  0  0  0  0  0  0  0  0  0  0
  -25.7546  -32.7500   15.7049 C   0  0  0  0  0  0  0  0  0  0  0  0
  -27.4783  -23.5015   22.6889 C   0  0  0  0  0  0  0  0  0  0  0  0
  -29.3117  -24.4243   19.5109 C   0  0  0  0  0  0  0  0  0  0  0  0
  -28.2995  -25.4895   19.1038 C   0  0  0  0  0  0  0  0  0  1  0  0
  -22.3312  -29.1976   16.4087 C   0  0  1  0  0  0  0  0  0  0  0  0
  -23.9315  -31.8664   14.2439 C   0  0  2  0  0  0  0  0  0  0  0  0
  -29.2284  -24.0273   20.9862 C   0  0  1  0  0  0  0  0  0  0  0  0
  -21.1332  -28.3587   15.8809 C   0  0  0  0  0  0  0  0  0  0  0  0
  -24.4537  -16.7546   20.3515 N   0  0  0  0  0  0  0  0  0  0  0  0
  -24.9114  -18.0098   20.4964 N   0  0  0  0  0  0  0  0  0  0  0  0
  -23.0433  -29.2673   18.7776 N   0  0  0  0  0  0  0  0  0  0  0  0
  -21.9401  -20.1920   21.5296 N   0  0  0  0  0  0  0  0  0  0  0  0
  -26.8855  -19.2722   20.8429 N   0  0  0  0  0  0  0  0  0  0  0  0
  -28.3761  -15.0099   20.7565 N   0  0  0  0  0  0  0  0  0  0  0  0
  -21.1908  -28.5857   21.7498 N   0  0  0  0  0  0  0  0  0  0  0  0
  -22.6336  -30.3780   15.6064 N   0  0  0  0  0  0  0  0  0  0  0  0
  -22.3353  -21.1735   23.6806 N   0  0  0  0  0  0  0  0  0  0  0  0
  -25.2978  -32.4565   14.3221 N   0  3  0  0  0  0  0  0  0  0  0  0
  -27.9047  -23.4057   21.2687 N   0  3  0  0  0  0  0  0  0  0  0  0
  -29.0105  -17.1997   21.0041 O   0  0  0  0  0  0  0  0  0  0  0  0
  -22.4197  -27.2121   20.3266 O   0  0  0  0  0  0  0  0  0  0  0  0
  -21.1536  -30.4288   18.0591 O   0  0  0  0  0  0  0  0  0  0  0  0
  -24.8259  -29.7999   15.1198 O   0  0  0  0  0  0  0  0  0  0  0  0
  -20.2038  -21.0444   22.8035 O   0  0  0  0  0  0  0  0  0  0  0  0
  -25.2634  -10.4464   20.0348 O   0  0  0  0  0  0  0  0  0  0  0  0
  -28.5181  -26.6549   19.8977 O   0  0  0  0  0  0  0  0  0  1  0  0
  -21.2527   -7.8845   22.8195 F   0  0  0  0  0  0  0  0  0  0  0  0
  -27.1249  -21.0224   23.9548 F   0  0  0  0  0  0  0  0  0  0  0  0
  -25.8591   -8.5536   21.9596 F   0  0  0  0  0  0  0  0  0  0  0  0
  -22.2755  -23.8673   22.2870 Cl  0  0  0  0  0  0  0  0  0  0  0  0
  1  2  1  0  0  0  0
  1  5  2  0  0  0  0
  2  6  2  0  0  0  0
  3  8  2  0  0  0  0
  3 16  1  0  0  0  0
  4  9  1  0  0  0  0
  4 16  2  0  0  0  0
  5 18  1  0  0  0  0
  6 20  1  0  0  0  0
  7 10  2  0  0  0  0
  7 19  1  0  0  0  0
  8 25  1  0  0  0  0
  9 25  2  0  0  0  0
 10 26  1  0  0  0  0
 11 12  2  0  0  0  0
 11 27  1  0  0  0  0
 12 28  1  0  0  0  0
 13 21  1  0  0  0  0
 13 26  2  0  0  0  0
 14 24  1  0  0  0  0
 14 29  2  0  0  0  0
 15 28  2  0  0  0  0
 15 30  1  0  0  0  0
 16 32  1  0  0  0  0
 17 32  1  0  0  0  0
 17 33  2  0  0  0  0
 17 34  1  0  0  0  0
 18 20  2  0  0  0  0
 18 39  1  0  0  0  0
 19 21  2  0  0  0  0
 19 40  1  0  0  0  0
 20 48  1  0  0  0  0
 21 41  1  0  0  0  0
 22 23  2  0  0  0  0
 22 29  1  0  0  0  0
 22 59  1  0  0  0  0
 23 31  1  0  0  0  0
 23 51  1  0  0  0  0
 24 31  2  0  0  0  0
 24 74  1  0  0  0  0
 25 82  1  0  0  0  0
 26 83  1  0  0  0  0
 27 30  2  0  0  0  0
 27 82  1  0  0  0  0
 28 84  1  0  0  0  0
 29 85  1  0  0  0  0
 30 86  1  0  0  0  0
 31 87  1  0  0  0  0
 32 66  2  0  0  0  0
 33 67  1  0  0  0  0
 33 70  1  0  0  0  0
 34 71  1  0  0  0  0
 34 77  2  0  0  0  0
 35 49  1  0  0  0  0
 35 72  1  0  0  0  0
 35 78  2  0  0  0  0
 36 62  1  0  0  0  0
 36 68  1  0  0  0  0
 36 79  2  0  0  0  0
 37 63  1  0  0  0  0
 37 73  1  0  0  0  0
 37 80  2  0  0  0  0
 38 69  1  0  0  0  0
 38 74  1  0  0  0  0
 38 81  2  0  0  0  0
 39 42  1  0  0  0  0
 40 49  1  0  0  0  0
 41 68  1  0  0  0  0
 42 44  1  0  0  0  0
 43 45  1  0  0  0  0
 43 46  1  0  0  0  0
 44 48  1  0  0  0  0
 45 50  1  0  0  0  0
 46 69  1  0  0  0  0
 47 50  1  0  0  0  0
 47 69  1  0  0  0  0
 48 72  1  0  0  0  0
 49 68  1  0  0  0  0
 50 67  1  0  0  0  0
 52 63  1  0  0  0  0
 53 64  1  0  0  0  0
 54 65  1  0  0  0  0
 55 65  1  0  0  0  0
 56 65  1  0  0  0  0
 57 74  1  0  0  0  0
 58 75  1  0  0  0  0
 59 76  1  0  0  0  0
 60 61  1  0  0  0  0
 60 64  1  0  0  0  0
 61 83  1  0  0  0  0
 62 65  1  0  0  0  0
 62 73  1  0  0  0  0
 63 75  1  0  0  0  0
 64 76  1  0  0  0  0
 66 67  1  0  0  0  0
M  CHG  2  75   1  76   1
M  ISO  4  38 100  61 101  74 100  83 101
M  END
> <Batch ID>
0020

> <Smiles>
CNC(C)C(=O)NC(C(=O)N1Cc2cc([101O:1][101CH2:1]CC(C)NCc3c(F)cc([100N:0](C)[100C:0](=O)N4CCCC(n5nc(-c6ccc(Oc7ccc(F)cc7F)cc6)c(C(N)=O)c5N)C4)c(Cl)c3C)ccc2CC1C(=O)NC1CCCc2ccccc21)C(C)(C)C

> <Shape>
0.202

> <Color>
0.095

> <Negative vol penalty>
0.000

$$$$

  -OEChem-04052316093D

 86 94  0     1  0  0  0  0  0999 V2000
  -27.7645  -22.7401   19.4430 C   0  0  0  0  0  0  0  0  0  0  0  0
  -26.5521  -23.2679   19.8754 C   0  0  0  0  0  0  0  0  0  0  0  0
  -26.1109  -13.1554   21.0798 C   0  0  0  0  0  0  0  0  0  0  0  0
  -24.3960  -14.5485   20.1024 C   0  0  0  0  0  0  0  0  0  0  0  0
  -28.9615  -23.2244   19.9690 C   0  0  0  0  0  0  0  0  0  0  0  0
  -26.5360  -24.2796   20.8349 C   0  0  0  0  0  0  0  0  0  0  0  0
  -23.3279  -28.0182   19.6621 C   0  0  0  0  0  0  0  0  0  0  0  0
  -25.4454  -12.0170   20.6251 C   0  0  0  0  0  0  0  0  0  0  0  0
  -23.7304  -13.4101   19.6476 C   0  0  0  0  0  0  0  0  0  0  0  0
  -21.9720  -27.7891   19.8914 C   0  0  0  0  0  0  0  0  0  0  0  0
  -24.0083   -8.7298   20.0311 C   0  0  0  0  0  0  0  0  0  0  0  0
  -23.8664   -7.6622   20.9175 C   0  0  0  0  0  0  0  0  0  0  0  0
  -22.1116  -29.0514   21.9423 C   0  0  0  0  0  0  0  0  0  0  0  0
  -22.6366   -9.0850   22.4343 C   0  0  0  0  0  0  0  0  0  0  0  0
  -25.5862  -14.4211   20.8185 C   0  0  0  0  0  0  0  0  0  0  0  0
  -27.2598  -16.3347   20.6072 C   0  0  0  0  0  0  0  0  0  0  0  0
  -28.9604  -24.2492   20.9283 C   0  0  0  0  0  0  0  0  0  0  0  0
  -24.0897  -28.7577   20.5782 C   0  0  0  0  0  0  0  0  0  0  0  0
  -27.7340  -24.7771   21.3751 C   0  0  0  0  0  0  0  0  0  0  0  0
  -23.4765  -29.2907   21.7210 C   0  0  0  0  0  0  0  0  0  0  0  0
  -20.6707  -22.3627   24.5182 C   0  0  0  0  0  0  0  0  0  0  0  0
  -21.1474  -23.6672   24.6460 C   0  0  0  0  0  0  0  0  0  0  0  0
  -21.5562  -21.2869   24.5834 C   0  0  0  0  0  0  0  0  0  0  0  0
  -22.5098  -23.8961   24.8391 C   0  0  0  0  0  0  0  0  0  0  0  0
  -22.9185  -21.5157   24.7765 C   0  0  0  0  0  0  0  0  0  0  0  0
  -24.2552  -12.1443   19.9090 C   0  0  0  0  0  0  0  0  0  0  0  0
  -21.3642  -28.3032   21.0331 C   0  0  0  0  0  0  0  0  0  0  0  0
  -23.4645   -9.9750   20.3463 C   0  0  0  0  0  0  0  0  0  0  0  0
  -23.1805   -7.8398   22.1191 C   0  0  0  0  0  0  0  0  0  0  0  0
  -22.7786  -10.1526   21.5479 C   0  0  0  0  0  0  0  0  0  0  0  0
  -23.3954  -22.8203   24.9043 C   0  0  0  0  0  0  0  0  0  0  0  0
  -26.2729  -15.5974   21.2885 C   0  0  0  0  0  0  0  0  0  0  0  0
  -27.5893  -17.3490   21.4727 C   0  0  0  0  0  0  0  0  0  0  0  0
  -27.8279  -16.1218   19.3081 C   0  0  0  0  0  0  0  0  0  0  0  0
  -26.6117  -28.1413   22.4121 C   0  0  0  0  0  0  0  0  0  0  0  0
  -26.4362  -31.3174   23.0480 C   0  0  0  0  0  0  0  0  0  0  0  0
  -24.5294  -34.1447   23.1797 C   0  0  0  0  0  0  0  0  0  0  0  0
  -24.6331  -20.0550   25.9048 C   0  0  0  0  0  0  0  0  0  0  0  0
  -30.2776  -24.7075   21.5024 C   0  0  0  0  0  0  0  0  0  0  0  0
  -25.5452  -29.0187   20.3029 C   0  0  0  0  0  0  0  0  0  0  0  0
  -24.2455  -30.1083   22.7253 C   0  0  0  0  0  0  0  0  0  0  0  0
  -30.1894  -26.0408   22.2406 C   0  0  0  0  0  0  0  0  0  0  0  0
  -27.7627  -18.3746   26.1474 C   0  0  0  0  0  0  0  0  0  0  0  0
  -28.9859  -26.0535   23.1778 C   0  0  0  0  0  0  0  0  0  0  0  0
  -27.8284  -17.5435   24.8640 C   0  0  0  0  0  0  0  0  0  0  0  0
  -26.3432  -18.4410   26.7080 C   0  0  0  0  0  0  0  0  0  0  0  0
  -25.3850  -18.0562   24.4713 C   0  0  0  0  0  0  0  0  0  0  0  0
  -27.6764  -25.8926   22.3962 C   0  0  1  0  0  0  0  0  0  0  0  0
  -26.3413  -29.3500   21.5614 C   0  0  1  0  0  0  0  0  0  0  0  0
  -26.7833  -18.0143   23.8336 C   0  0  2  0  0  0  0  0  0  0  0  0
  -19.2090  -22.1189   24.3098 C   0  0  0  0  0  0  0  0  0  0  0  0
  -21.0374  -19.8891   24.4448 C   0  0  0  0  0  0  0  0  0  0  0  0
  -23.0017  -25.3043   24.9746 C   0  0  0  0  0  0  0  0  0  0  0  0
  -24.6553  -36.5797   23.7732 C   0  0  0  0  0  0  0  0  0  0  0  0
  -26.3975  -30.5945   26.0121 C   0  0  0  0  0  0  0  0  0  0  0  0
  -25.5788  -32.9107   26.4948 C   0  0  0  0  0  0  0  0  0  0  0  0
  -27.8140  -32.5745   25.4396 C   0  0  0  0  0  0  0  0  0  0  0  0
  -23.8091  -34.9710   20.4307 C   0  0  0  0  0  0  0  0  0  0  0  0
  -20.1943  -24.8237   24.5750 C   0  0  0  0  0  0  0  0  0  0  0  0
  -18.3345  -26.4393   21.6437 C   0  0  0  0  0  0  0  0  0  0  0  0
  -18.7374  -26.2087   23.0924 C   0  0  0  0  0  0  0  0  0  0  0  0
  -19.4893  -26.8683   20.7470 C   0  0  0  0  0  0  0  0  0  1  0  0
  -25.7251  -32.1642   24.0757 C   0  0  1  0  0  0  0  0  0  0  0  0
  -24.7744  -35.5499   22.6604 C   0  0  2  0  0  0  0  0  0  0  0  0
  -26.3645  -32.0440   25.4878 C   0  0  0  0  0  0  0  0  0  0  0  0
  -25.9937  -16.1004   22.4939 N   0  0  0  0  0  0  0  0  0  0  0  0
  -26.8103  -17.1646   22.5769 N   0  0  0  0  0  0  0  0  0  0  0  0
  -25.6673  -30.3306   22.4148 N   0  0  0  0  0  0  0  0  0  0  0  0
  -25.4089  -18.8987   25.6773 N   0  0  0  0  0  0  0  0  0  0  0  0
  -28.4665  -18.3717   21.3894 N   0  0  0  0  0  0  0  0  0  0  0  0
  -27.3754  -15.0324   18.5513 N   0  0  0  0  0  0  0  0  0  0  0  0
  -23.8051  -20.4123   24.8411 N   0  0  0  0  0  0  0  0  0  0  0  0
  -27.3093  -27.1408   21.7626 N   0  0  0  0  0  0  0  0  0  0  0  0
  -25.7050  -33.5221   23.5425 N   0  0  0  0  0  0  0  0  0  0  0  0
  -23.7858  -35.8893   21.5982 N   0  3  0  0  0  0  0  0  0  0  0  0
  -19.7293  -25.1123   23.1901 N   0  3  0  0  0  0  0  0  0  0  0  0
  -28.7225  -16.8657   18.8392 O   0  0  0  0  0  0  0  0  0  0  0  0
  -26.2180  -28.1188   23.5723 O   0  0  0  0  0  0  0  0  0  0  0  0
  -27.6282  -31.5284   22.8105 O   0  0  0  0  0  0  0  0  0  0  0  0
  -23.4071  -33.6502   23.2594 O   0  0  0  0  0  0  0  0  0  0  0  0
  -24.7185  -20.6977   26.9544 O   0  0  0  0  0  0  0  0  0  0  0  0
  -23.6056  -11.0337   19.4649 O   0  0  0  0  0  0  0  0  0  0  0  0
  -20.0410  -28.0804   21.2596 O   0  0  0  0  0  0  0  0  0  1  0  0
  -23.0430   -6.8141   22.9695 F   0  0  0  0  0  0  0  0  0  0  0  0
  -22.2529  -11.3463   21.8556 F   0  0  0  0  0  0  0  0  0  0  0  0
  -25.0891  -23.1120   25.1425 Cl  0  0  0  0  0  0  0  0  0  0  0  0
  1  2  1  0  0  0  0
  1  5  2  0  0  0  0
  2  6  2  0  0  0  0
  3  8  2  0  0  0  0
  3 15  1  0  0  0  0
  4  9  1  0  0  0  0
  4 15  2  0  0  0  0
  5 17  1  0  0  0  0
  6 19  1  0  0  0  0
  7 10  2  0  0  0  0
  7 18  1  0  0  0  0
  8 26  1  0  0  0  0
  9 26  2  0  0  0  0
 10 27  1  0  0  0  0
 11 12  2  0  0  0  0
 11 28  1  0  0  0  0
 12 29  1  0  0  0  0
 13 20  1  0  0  0  0
 13 27  2  0  0  0  0
 14 29  2  0  0  0  0
 14 30  1  0  0  0  0
 15 32  1  0  0  0  0
 16 32  1  0  0  0  0
 16 33  2  0  0  0  0
 16 34  1  0  0  0  0
 17 19  2  0  0  0  0
 17 39  1  0  0  0  0
 18 20  2  0  0  0  0
 18 40  1  0  0  0  0
 19 48  1  0  0  0  0
 20 41  1  0  0  0  0
 21 22  1  0  0  0  0
 21 23  2  0  0  0  0
 21 51  1  0  0  0  0
 22 24  2  0  0  0  0
 22 59  1  0  0  0  0
 23 25  1  0  0  0  0
 23 52  1  0  0  0  0
 24 31  1  0  0  0  0
 24 53  1  0  0  0  0
 25 31  2  0  0  0  0
 25 72  1  0  0  0  0
 26 82  1  0  0  0  0
 27 83  1  0  0  0  0
 28 30  2  0  0  0  0
 28 82  1  0  0  0  0
 29 84  1  0  0  0  0
 30 85  1  0  0  0  0
 31 86  1  0  0  0  0
 32 66  2  0  0  0  0
 33 67  1  0  0  0  0
 33 70  1  0  0  0  0
 34 71  1  0  0  0  0
 34 77  2  0  0  0  0
 35 49  1  0  0  0  0
 35 73  1  0  0  0  0
 35 78  2  0  0  0  0
 36 63  1  0  0  0  0
 36 68  1  0  0  0  0
 36 79  2  0  0  0  0
 37 64  1  0  0  0  0
 37 74  1  0  0  0  0
 37 80  2  0  0  0  0
 38 69  1  0  0  0  0
 38 72  1  0  0  0  0
 38 81  2  0  0  0  0
 39 42  1  0  0  0  0
 40 49  1  0  0  0  0
 41 68  1  0  0  0  0
 42 44  1  0  0  0  0
 43 45  1  0  0  0  0
 43 46  1  0  0  0  0
 44 48  1  0  0  0  0
 45 50  1  0  0  0  0
 46 69  1  0  0  0  0
 47 50  1  0  0  0  0
 47 69  1  0  0  0  0
 48 73  1  0  0  0  0
 49 68  1  0  0  0  0
 50 67  1  0  0  0  0
 54 64  1  0  0  0  0
 55 65  1  0  0  0  0
 56 65  1  0  0  0  0
 57 65  1  0  0  0  0
 58 75  1  0  0  0  0
 59 76  1  0  0  0  0
 60 61  1  0  0  0  0
 60 62  1  0  0  0  0
 61 76  1  0  0  0  0
 62 83  1  0  0  0  0
 63 65  1  0  0  0  0
 63 74  1  0  0  0  0
 64 75  1  0  0  0  0
 66 67  1  0  0  0  0
M  CHG  2  75   1  76   1
M  ISO  4  38 100  62 101  72 100  83 101
M  END
> <Batch ID>
0020

> <Smiles>
CNC(C)C(=O)NC(C(=O)N1Cc2cc([101O:1][101CH2:1]CCNCc3c(C)c(C)c([100NH:0][100C:0](=O)N4CCCC(n5nc(-c6ccc(Oc7ccc(F)cc7F)cc6)c(C(N)=O)c5N)C4)c(Cl)c3C)ccc2CC1C(=O)NC1CCCc2ccccc21)C(C)(C)C

> <Shape>
0.250

> <Color>
0.059

> <Negative vol penalty>
0.000

$$$$

  -OEChem-04052316093D

 92100  0     1  0  0  0  0  0999 V2000
  -16.7921  -28.9436   19.3897 C   0  0  0  0  0  0  0  0  0  0  0  0
  -17.9898  -28.6688   18.7376 C   0  0  0  0  0  0  0  0  0  0  0  0
  -24.4859   -9.1710   22.0442 C   0  0  0  0  0  0  0  0  0  0  0  0
  -23.8813   -8.9783   19.7131 C   0  0  0  0  0  0  0  0  0  0  0  0
  -16.6706  -30.0955   20.1657 C   0  0  0  0  0  0  0  0  0  0  0  0
  -19.0665  -29.5464   18.8602 C   0  0  0  0  0  0  0  0  0  0  0  0
  -25.3836  -27.3183   21.5099 C   0  0  0  0  0  0  0  0  0  0  0  0
  -23.3506   -8.4425   22.3990 C   0  0  0  0  0  0  0  0  0  0  0  0
  -22.7460   -8.2497   20.0678 C   0  0  0  0  0  0  0  0  0  0  0  0
  -26.6860  -26.9183   21.8100 C   0  0  0  0  0  0  0  0  0  0  0  0
  -20.8027   -6.3240   23.8942 C   0  0  0  0  0  0  0  0  0  0  0  0
  -20.9509   -5.3146   24.8454 C   0  0  0  0  0  0  0  0  0  0  0  0
  -27.4476  -29.2040   21.6011 C   0  0  0  0  0  0  0  0  0  0  0  0
  -22.5345   -4.1918   23.4071 C   0  0  0  0  0  0  0  0  0  0  0  0
  -24.7513   -9.4390   20.7013 C   0  0  0  0  0  0  0  0  0  0  0  0
  -27.2039   -9.6839   20.0440 C   0  0  0  0  0  0  0  0  0  0  0  0
  -17.7494  -30.9827   20.3058 C   0  0  0  0  0  0  0  0  0  0  0  0
  -25.1052  -28.6666   21.2691 C   0  0  0  0  0  0  0  0  0  0  0  0
  -18.9589  -30.7120   19.6378 C   0  0  0  0  0  0  0  0  0  0  0  0
  -26.1428  -29.6124   21.3123 C   0  0  0  0  0  0  0  0  0  0  0  0
  -22.4806   -7.9818   21.4107 C   0  0  0  0  0  0  0  0  0  0  0  0
  -27.7154  -27.8588   21.8552 C   0  0  0  0  0  0  0  0  0  0  0  0
  -21.5204   -6.2673   22.6994 C   0  0  0  0  0  0  0  0  0  0  0  0
  -21.8168   -4.2485   24.6019 C   0  0  0  0  0  0  0  0  0  0  0  0
  -22.3863   -5.2012   22.4559 C   0  0  0  0  0  0  0  0  0  0  0  0
  -25.9236  -10.1920   20.3343 C   0  0  0  0  0  0  0  0  0  0  0  0
  -27.9573  -10.7955   19.7559 C   0  0  0  0  0  0  0  0  0  0  0  0
  -27.6705   -8.3281   20.0356 C   0  0  0  0  0  0  0  0  0  0  0  0
  -22.5210  -31.2608   20.4520 C   0  0  0  0  0  0  0  0  0  0  0  0
  -31.7427  -19.8962   17.7013 C   0  0  0  0  0  0  0  0  0  0  0  0
  -24.3882  -32.4933   22.5508 C   0  0  0  0  0  0  0  0  0  0  0  0
  -26.2235  -18.3771   16.7572 C   0  0  0  0  0  0  0  0  0  0  0  0
  -26.4146  -33.3260   25.1657 C   0  0  0  0  0  0  0  0  0  0  0  0
  -26.1786  -16.2124   17.8090 C   0  0  0  0  0  0  0  0  0  0  0  0
  -17.5553  -32.2393   21.1170 C   0  0  0  0  0  0  0  0  0  0  0  0
  -23.7285  -29.1339   20.8817 C   0  0  0  0  0  0  0  0  0  0  0  0
  -25.8029  -31.0468   21.0124 C   0  0  0  0  0  0  0  0  0  0  0  0
  -18.8640  -32.9260   21.4989 C   0  0  0  0  0  0  0  0  0  0  0  0
  -28.3025  -15.4562   20.7420 C   0  0  0  0  0  0  0  0  0  0  0  0
  -19.7898  -33.0205   20.2902 C   0  0  0  0  0  0  0  0  0  0  0  0
  -27.9997  -13.9740   20.9606 C   0  0  0  0  0  0  0  0  0  0  0  0
  -28.4890  -18.7050   18.8253 C   0  0  0  0  0  0  0  0  0  0  0  0
  -29.2023  -17.5674   16.6887 C   0  0  0  0  0  0  0  0  0  0  0  0
  -27.0900  -16.1900   20.1814 C   0  0  0  0  0  0  0  0  0  0  0  0
  -29.9610  -18.8742   19.1991 C   0  0  0  0  0  0  0  0  0  0  0  0
  -30.6591  -17.7550   17.1064 C   0  0  0  0  0  0  0  0  0  0  0  0
  -26.2483  -14.1154   19.1291 C   0  0  0  0  0  0  0  0  0  0  0  0
  -20.1573  -31.6270   19.7665 C   0  0  1  0  0  0  0  0  0  0  0  0
  -23.3867  -30.5290   21.4350 C   0  0  1  0  0  0  0  0  0  0  0  0
  -27.4496  -13.3260   19.6777 C   0  0  2  0  0  0  0  0  0  0  0  0
  -28.2822  -17.4952   17.9102 C   0  0  0  0  0  0  0  0  0  0  0  0
  -24.7194  -17.4443   14.9686 C   0  0  0  0  0  0  0  0  0  0  0  0
  -24.0024  -19.4278   16.3216 C   0  0  0  0  0  0  0  0  0  0  0  0
  -26.8912  -35.1951   26.7709 C   0  0  0  0  0  0  0  0  0  0  0  0
  -25.8315  -34.0195   20.3392 C   0  0  0  0  0  0  0  0  0  0  0  0
  -27.0463  -35.3012   22.1140 C   0  0  0  0  0  0  0  0  0  0  0  0
  -24.5626  -35.4585   21.9434 C   0  0  0  0  0  0  0  0  0  0  0  0
  -25.7395  -31.6440   27.5054 C   0  0  0  0  0  0  0  0  0  0  0  0
  -31.8772  -21.0214   18.6964 C   0  0  0  0  0  0  0  0  0  0  0  0
  -32.9330  -21.9959   18.2026 C   0  0  0  0  0  0  0  0  0  0  0  0
  -33.1509  -23.1713   19.1589 C   0  0  0  0  0  0  0  0  0  0  0  0
  -31.9405  -24.0843   19.3772 C   0  0  0  0  0  0  0  0  0  0  0  0
  -32.2399  -25.2883   20.2725 C   0  0  0  0  0  0  0  0  0  0  0  0
  -30.9906  -26.1468   20.4825 C   0  0  0  0  0  0  0  0  0  0  0  0
  -31.2788  -27.3311   21.4026 C   0  0  0  0  0  0  0  0  0  0  0  0
  -30.0513  -28.2148   21.5818 C   0  0  0  0  0  0  0  0  0  1  0  0
  -25.6127  -33.3315   22.8181 C   0  0  1  0  0  0  0  0  0  0  0  0
  -24.7720  -18.1086   16.3454 C   0  0  0  0  0  0  0  0  0  0  0  0
  -26.1072  -33.9143   26.5309 C   0  0  2  0  0  0  0  0  0  0  0  0
  -25.7646  -34.4993   21.8029 C   0  0  0  0  0  0  0  0  0  0  0  0
  -25.8634  -11.5229   20.2394 N   0  0  0  0  0  0  0  0  0  0  0  0
  -27.1154  -11.8605   19.8863 N   0  0  0  0  0  0  0  0  0  0  0  0
  -24.5405  -31.4127   21.6735 N   0  0  0  0  0  0  0  0  0  0  0  0
  -30.8086  -18.9043   18.0010 N   0  0  0  0  0  0  0  0  0  0  0  0
  -26.5828  -15.5326   18.9703 N   0  0  0  0  0  0  0  0  0  0  0  0
  -29.2513  -10.9562   19.4062 N   0  0  0  0  0  0  0  0  0  0  0  0
  -26.7646   -7.3078   20.3556 N   0  0  0  0  0  0  0  0  0  0  0  0
  -21.1687  -31.0219   20.6064 N   0  0  0  0  0  0  0  0  0  0  0  0
  -25.5194  -33.7581   24.2101 N   0  0  0  0  0  0  0  0  0  0  0  0
  -26.8784  -17.3904   17.5012 N   0  0  0  0  0  0  0  0  0  0  0  0
  -26.4563  -32.9415   27.6046 N   0  3  0  0  0  0  0  0  0  0  0  0
  -28.8598   -8.0318   19.7685 O   0  0  0  0  0  0  0  0  0  0  0  0
  -23.0403  -31.9903   19.6154 O   0  0  0  0  0  0  0  0  0  0  0  0
  -32.4456  -19.9019   16.6874 O   0  0  0  0  0  0  0  0  0  0  0  0
  -23.3229  -32.7897   23.0992 O   0  0  0  0  0  0  0  0  0  0  0  0
  -26.7644  -19.4431   16.4424 O   0  0  0  0  0  0  0  0  0  0  0  0
  -27.3569  -32.5626   24.9661 O   0  0  0  0  0  0  0  0  0  0  0  0
  -25.3017  -15.7793   17.0520 O   0  0  0  0  0  0  0  0  0  0  0  0
  -21.3728   -7.2706   21.7565 O   0  0  0  0  0  0  0  0  0  0  0  0
  -28.9928  -27.4592   22.1553 O   0  0  0  0  0  0  0  0  0  1  0  0
  -21.9601   -3.2800   25.5160 F   0  0  0  0  0  0  0  0  0  0  0  0
  -23.0793   -5.1419   21.3105 F   0  0  0  0  0  0  0  0  0  0  0  0
  1  2  1  0  0  0  0
  1  5  2  0  0  0  0
  2  6  2  0  0  0  0
  3  8  2  0  0  0  0
  3 15  1  0  0  0  0
  4  9  1  0  0  0  0
  4 15  2  0  0  0  0
  5 17  1  0  0  0  0
  6 19  1  0  0  0  0
  7 10  2  0  0  0  0
  7 18  1  0  0  0  0
  8 21  1  0  0  0  0
  9 21  2  0  0  0  0
 10 22  1  0  0  0  0
 11 12  2  0  0  0  0
 11 23  1  0  0  0  0
 12 24  1  0  0  0  0
 13 20  1  0  0  0  0
 13 22  2  0  0  0  0
 14 24  2  0  0  0  0
 14 25  1  0  0  0  0
 15 26  1  0  0  0  0
 16 26  1  0  0  0  0
 16 27  2  0  0  0  0
 16 28  1  0  0  0  0
 17 19  2  0  0  0  0
 17 35  1  0  0  0  0
 18 20  2  0  0  0  0
 18 36  1  0  0  0  0
 19 48  1  0  0  0  0
 20 37  1  0  0  0  0
 21 89  1  0  0  0  0
 22 90  1  0  0  0  0
 23 25  2  0  0  0  0
 23 89  1  0  0  0  0
 24 91  1  0  0  0  0
 25 92  1  0  0  0  0
 26 71  2  0  0  0  0
 27 72  1  0  0  0  0
 27 76  1  0  0  0  0
 28 77  1  0  0  0  0
 28 82  2  0  0  0  0
 29 49  1  0  0  0  0
 29 78  1  0  0  0  0
 29 83  2  0  0  0  0
 30 59  1  0  0  0  0
 30 74  1  0  0  0  0
 30 84  2  0  0  0  0
 31 67  1  0  0  0  0
 31 73  1  0  0  0  0
 31 85  2  0  0  0  0
 32 68  1  0  0  0  0
 32 80  1  0  0  0  0
 32 86  2  0  0  0  0
 33 69  1  0  0  0  0
 33 79  1  0  0  0  0
 33 87  2  0  0  0  0
 34 75  1  0  0  0  0
 34 80  1  0  0  0  0
 34 88  2  0  0  0  0
 35 38  1  0  0  0  0
 36 49  1  0  0  0  0
 37 73  1  0  0  0  0
 38 40  1  0  0  0  0
 39 41  1  0  0  0  0
 39 44  1  0  0  0  0
 40 48  1  0  0  0  0
 41 50  1  0  0  0  0
 42 45  1  0  0  0  0
 42 51  1  0  0  0  0
 43 46  1  0  0  0  0
 43 51  1  0  0  0  0
 44 75  1  0  0  0  0
 45 74  1  0  0  0  0
 46 74  1  0  0  0  0
 47 50  1  0  0  0  0
 47 75  1  0  0  0  0
 48 78  1  0  0  0  0
 49 73  1  0  0  0  0
 50 72  1  0  0  0  0
 51 80  1  0  0  0  0
 52 68  1  0  0  0  0
 53 68  1  0  0  0  0
 54 69  1  0  0  0  0
 55 70  1  0  0  0  0
 56 70  1  0  0  0  0
 57 70  1  0  0  0  0
 58 81  1  0  0  0  0
 59 60  1  0  0  0  0
 60 61  1  0  0  0  0
 61 62  1  0  0  0  0
 62 63  1  0  0  0  0
 63 64  1  0  0  0  0
 64 65  1  0  0  0  0
 65 66  1  0  0  0  0
 66 90  1  0  0  0  0
 67 70  1  0  0  0  0
 67 79  1  0  0  0  0
 69 81  1  0  0  0  0
 71 72  1  0  0  0  0
M  CHG  1  81   1
M  ISO  4  34 100  66 101  80 100  90 101
M  END
> <Batch ID>
0020

> <Smiles>
CNC(C)C(=O)NC(C(=O)N1Cc2cc([101O:1][101CH2:1]CCCCCCCC(=O)N3CCC([100N:0](C(=O)C(C)C)[100C:0](=O)N4CCCC(n5nc(-c6ccc(Oc7ccc(F)cc7F)cc6)c(C(N)=O)c5N)C4)CC3)ccc2CC1C(=O)NC1CCCc2ccccc21)C(C)(C)C

> <Shape>
0.245

> <Color>
0.112

> <Negative vol penalty>
0.000

$$$$

  -OEChem-04052316093D

 95104  0     1  0  0  0  0  0999 V2000
  -22.0264   -8.5527   21.1544 C   0  0  0  0  0  0  0  0  0  0  0  0
  -22.2246   -9.9003   20.8715 C   0  0  0  0  0  0  0  0  0  0  0  0
  -21.6098  -29.0448   24.0827 C   0  0  0  0  0  0  0  0  0  0  0  0
  -21.2105  -30.2766   22.0431 C   0  0  0  0  0  0  0  0  0  0  0  0
  -23.0441   -7.8099   21.7514 C   0  0  0  0  0  0  0  0  0  0  0  0
  -23.4403  -10.5063   21.1866 C   0  0  0  0  0  0  0  0  0  0  0  0
  -26.2701  -14.9352   18.0430 C   0  0  0  0  0  0  0  0  0  0  0  0
  -22.5190  -30.0196   24.4935 C   0  0  0  0  0  0  0  0  0  0  0  0
  -22.1196  -31.2515   22.4539 C   0  0  0  0  0  0  0  0  0  0  0  0
  -26.3249  -16.3179   18.2130 C   0  0  0  0  0  0  0  0  0  0  0  0
  -22.4088  -33.1136   25.8529 C   0  0  0  0  0  0  0  0  0  0  0  0
  -22.3279  -33.5610   27.1716 C   0  0  0  0  0  0  0  0  0  0  0  0
  -28.4089  -16.0828   19.4049 C   0  0  0  0  0  0  0  0  0  0  0  0
  -28.0327  -26.1860   19.6237 C   0  0  0  0  0  0  0  0  0  0  0  0
  -24.5927  -32.8162   27.5632 C   0  0  0  0  0  0  0  0  0  0  0  0
  -20.9556  -29.1732   22.8575 C   0  0  0  0  0  0  0  0  0  0  0  0
  -18.6321  -28.1346   22.6841 C   0  0  0  0  0  0  0  0  0  0  0  0
  -24.2764   -8.4047   22.0652 C   0  0  0  0  0  0  0  0  0  0  0  0
  -27.2805  -14.1136   18.5630 C   0  0  0  0  0  0  0  0  0  0  0  0
  -24.4750   -9.7711   21.7896 C   0  0  0  0  0  0  0  0  0  0  0  0
  -28.3660  -14.6902   19.2380 C   0  0  0  0  0  0  0  0  0  0  0  0
  -27.1206  -26.8984   20.4022 C   0  0  0  0  0  0  0  0  0  0  0  0
  -27.6408  -25.0025   18.9979 C   0  0  0  0  0  0  0  0  0  0  0  0
  -25.8166  -26.4274   20.5551 C   0  0  0  0  0  0  0  0  0  0  0  0
  -26.3368  -24.5315   19.1507 C   0  0  0  0  0  0  0  0  0  0  0  0
  -25.4247  -25.2439   19.9293 C   0  0  0  0  0  0  0  0  0  0  0  0
  -22.7738  -31.1230   23.6791 C   0  0  0  0  0  0  0  0  0  0  0  0
  -27.3929  -16.8917   18.8966 C   0  0  0  0  0  0  0  0  0  0  0  0
  -23.5817  -32.5175   25.3894 C   0  0  0  0  0  0  0  0  0  0  0  0
  -23.4198  -33.4123   28.0267 C   0  0  0  0  0  0  0  0  0  0  0  0
  -24.6736  -32.3688   26.2445 C   0  0  0  0  0  0  0  0  0  0  0  0
  -20.0168  -28.1663   22.4323 C   0  0  0  0  0  0  0  0  0  0  0  0
  -18.1983  -26.9836   22.0729 C   0  0  0  0  0  0  0  0  0  0  0  0
  -17.8114  -29.0626   23.4058 C   0  0  0  0  0  0  0  0  0  0  0  0
  -27.3860  -11.7777   20.7162 C   0  0  0  0  0  0  0  0  0  0  0  0
  -30.4639  -11.5291   19.7227 C   0  0  0  0  0  0  0  0  0  0  0  0
  -33.1720  -13.0225   18.2796 C   0  0  0  0  0  0  0  0  0  0  0  0
  -22.9103  -25.4073   19.7278 C   0  0  0  0  0  0  0  0  0  0  0  0
  -25.3297   -7.5728   22.7531 C   0  0  0  0  0  0  0  0  0  0  0  0
  -27.2204  -12.6261   18.3479 C   0  0  0  0  0  0  0  0  0  0  0  0
  -29.4865  -13.8539   19.7978 C   0  0  0  0  0  0  0  0  0  0  0  0
  -26.7217   -8.1981   22.7130 C   0  0  0  0  0  0  0  0  0  0  0  0
  -20.3579  -22.8038   20.9819 C   0  0  0  0  0  0  0  0  0  0  0  0
  -26.6545   -9.6751   23.0882 C   0  0  0  0  0  0  0  0  0  0  0  0
  -19.5310  -23.8998   21.6422 C   0  0  0  0  0  0  0  0  0  0  0  0
  -27.1499  -30.8934   18.4186 C   0  0  0  0  0  0  0  0  0  0  0  0
  -26.3602  -31.7667   20.6454 C   0  0  0  0  0  0  0  0  0  0  0  0
  -21.7502  -23.3258   20.6381 C   0  0  0  0  0  0  0  0  0  0  0  0
  -20.4372  -25.1781   19.6002 C   0  0  0  0  0  0  0  0  0  0  0  0
  -27.7986  -29.7083   19.1207 C   0  0  0  0  0  0  0  0  0  0  0  0
  -27.0132  -30.5773   21.3361 C   0  0  0  0  0  0  0  0  0  0  0  0
  -25.7886  -10.4580   22.0938 C   0  0  1  0  0  0  0  0  0  0  0  0
  -28.0422  -11.8415   19.3660 C   0  0  1  0  0  0  0  0  0  0  0  0
  -27.0692  -32.1212   19.3331 C   0  0  0  0  0  0  0  0  0  0  0  0
  -19.3767  -25.1250   20.7190 C   0  0  2  0  0  0  0  0  0  0  0  0
  -24.8433  -27.1979   21.3915 C   0  0  0  0  0  0  0  0  0  0  0  0
  -25.9239  -23.2600   18.4772 C   0  0  0  0  0  0  0  0  0  0  0  0
  -27.0557  -33.6615   17.3644 C   0  0  0  0  0  0  0  0  0  0  0  0
  -35.5568  -12.5785   17.6369 C   0  0  0  0  0  0  0  0  0  0  0  0
  -31.3958  -23.0338   18.2666 C   0  0  0  0  0  0  0  0  0  0  0  0
  -31.2971  -11.7860   22.6466 C   0  0  0  0  0  0  0  0  0  0  0  0
  -33.6227  -12.2888   21.8673 C   0  0  0  0  0  0  0  0  0  0  0  0
  -32.5824  -10.0834   21.3413 C   0  0  0  0  0  0  0  0  0  0  0  0
  -32.6125  -13.5105   15.4146 C   0  0  0  0  0  0  0  0  0  0  0  0
  -27.5666  -28.1620   21.0622 C   0  0  0  0  0  0  0  0  0  0  0  0
  -28.6414  -24.2562   18.1653 C   0  0  0  0  0  0  0  0  0  0  0  0
  -26.3603  -33.2759   18.6287 C   0  0  0  0  0  0  0  0  0  0  0  0
  -28.7032  -20.2462   18.5773 C   0  0  0  0  0  0  0  0  0  0  0  0
  -30.0711  -20.9265   18.6624 C   0  0  0  0  0  0  0  0  0  0  0  0
  -28.7445  -18.8327   19.1443 C   0  0  0  0  0  0  0  0  0  1  0  0
  -31.7745  -12.1539   20.1361 C   0  0  1  0  0  0  0  0  0  0  0  0
  -34.1076  -12.5619   17.1764 C   0  0  2  0  0  0  0  0  0  0  0  0
  -30.0346  -22.3638   18.1352 C   0  0  1  0  0  0  0  0  0  0  0  0
  -32.2972  -11.5939   21.4891 C   0  0  0  0  0  0  0  0  0  0  0  0
  -20.4350  -27.1186   21.7172 N   0  0  0  0  0  0  0  0  0  0  0  0
  -19.3064  -26.4177   21.5143 N   0  0  0  0  0  0  0  0  0  0  0  0
  -29.3792  -12.4038   19.5672 N   0  0  0  0  0  0  0  0  0  0  0  0
  -21.7423  -24.6581   20.0162 N   0  0  0  0  0  0  0  0  0  0  0  0
  -16.9809  -26.4104   21.9643 N   0  0  0  0  0  0  0  0  0  0  0  0
  -18.4184  -30.1927   23.9703 N   0  0  0  0  0  0  0  0  0  0  0  0
  -24.0992  -24.7653   20.0846 N   0  0  0  0  0  0  0  0  0  0  0  0
  -26.5234  -10.7095   20.8726 N   0  0  0  0  0  0  0  0  0  0  0  0
  -32.6896  -11.9615   19.0163 N   0  0  0  0  0  0  0  0  0  0  0  0
  -27.0423  -29.4012   20.3904 N   0  3  0  0  0  0  0  0  0  0  0  0
  -33.9823  -13.4503   15.9864 N   0  3  0  0  0  0  0  0  0  0  0  0
  -16.5790  -28.8862   23.5599 O   0  0  0  0  0  0  0  0  0  0  0  0
  -27.6444  -12.6333   21.5546 O   0  0  0  0  0  0  0  0  0  0  0  0
  -30.4065  -10.3109   19.5373 O   0  0  0  0  0  0  0  0  0  0  0  0
  -32.8996  -14.2056   18.4711 O   0  0  0  0  0  0  0  0  0  0  0  0
  -22.8521  -26.5221   19.2047 O   0  0  0  0  0  0  0  0  0  0  0  0
  -23.6607  -32.0746   24.0797 O   0  0  0  0  0  0  0  0  0  0  0  0
  -27.4484  -18.2410   19.0645 O   0  0  0  0  0  0  0  0  0  1  0  0
  -29.0796  -23.1118   18.8826 O   0  0  0  0  0  0  0  0  0  0  0  0
  -23.3425  -33.8433   29.2926 F   0  0  0  0  0  0  0  0  0  0  0  0
  -25.8034  -31.7980   25.8046 F   0  0  0  0  0  0  0  0  0  0  0  0
  1  2  1  0  0  0  0
  1  5  2  0  0  0  0
  2  6  2  0  0  0  0
  3  8  2  0  0  0  0
  3 16  1  0  0  0  0
  4  9  1  0  0  0  0
  4 16  2  0  0  0  0
  5 18  1  0  0  0  0
  6 20  1  0  0  0  0
  7 10  2  0  0  0  0
  7 19  1  0  0  0  0
  8 27  1  0  0  0  0
  9 27  2  0  0  0  0
 10 28  1  0  0  0  0
 11 12  2  0  0  0  0
 11 29  1  0  0  0  0
 12 30  1  0  0  0  0
 13 21  1  0  0  0  0
 13 28  2  0  0  0  0
 14 22  1  0  0  0  0
 14 23  2  0  0  0  0
 15 30  2  0  0  0  0
 15 31  1  0  0  0  0
 16 32  1  0  0  0  0
 17 32  1  0  0  0  0
 17 33  2  0  0  0  0
 17 34  1  0  0  0  0
 18 20  2  0  0  0  0
 18 39  1  0  0  0  0
 19 21  2  0  0  0  0
 19 40  1  0  0  0  0
 20 52  1  0  0  0  0
 21 41  1  0  0  0  0
 22 24  2  0  0  0  0
 22 65  1  0  0  0  0
 23 25  1  0  0  0  0
 23 66  1  0  0  0  0
 24 26  1  0  0  0  0
 24 56  1  0  0  0  0
 25 26  2  0  0  0  0
 25 57  1  0  0  0  0
 26 81  1  0  0  0  0
 27 91  1  0  0  0  0
 28 92  1  0  0  0  0
 29 31  2  0  0  0  0
 29 91  1  0  0  0  0
 30 94  1  0  0  0  0
 31 95  1  0  0  0  0
 32 75  2  0  0  0  0
 33 76  1  0  0  0  0
 33 79  1  0  0  0  0
 34 80  1  0  0  0  0
 34 86  2  0  0  0  0
 35 53  1  0  0  0  0
 35 82  1  0  0  0  0
 35 87  2  0  0  0  0
 36 71  1  0  0  0  0
 36 77  1  0  0  0  0
 36 88  2  0  0  0  0
 37 72  1  0  0  0  0
 37 83  1  0  0  0  0
 37 89  2  0  0  0  0
 38 78  1  0  0  0  0
 38 81  1  0  0  0  0
 38 90  2  0  0  0  0
 39 42  1  0  0  0  0
 40 53  1  0  0  0  0
 41 77  1  0  0  0  0
 42 44  1  0  0  0  0
 43 45  1  0  0  0  0
 43 48  1  0  0  0  0
 44 52  1  0  0  0  0
 45 55  1  0  0  0  0
 46 50  1  0  0  0  0
 46 54  1  0  0  0  0
 47 51  1  0  0  0  0
 47 54  1  0  0  0  0
 48 78  1  0  0  0  0
 49 55  1  0  0  0  0
 49 78  1  0  0  0  0
 50 84  1  0  0  0  0
 51 84  1  0  0  0  0
 52 82  1  0  0  0  0
 53 77  1  0  0  0  0
 54 67  1  0  0  0  0
 55 76  1  0  0  0  0
 58 67  1  0  0  0  0
 59 72  1  0  0  0  0
 60 73  1  0  0  0  0
 61 74  1  0  0  0  0
 62 74  1  0  0  0  0
 63 74  1  0  0  0  0
 64 85  1  0  0  0  0
 65 84  1  0  0  0  0
 66 93  1  0  0  0  0
 68 69  1  0  0  0  0
 68 70  1  0  0  0  0
 69 73  1  0  0  0  0
 70 92  1  0  0  0  0
 71 74  1  0  0  0  0
 71 83  1  0  0  0  0
 72 85  1  0  0  0  0
 73 93  1  0  0  0  0
 75 76  1  0  0  0  0
M  CHG  2  84   1  85   1
M  ISO  4  38 100  70 101  81 100  92 101
M  END
> <Batch ID>
0020

> <Smiles>
CCC1CCN(Cc2cc(COC(C)CC[101CH2:1][101O:1]c3ccc4c(c3)CN(C(=O)C(NC(=O)C(C)NC)C(C)(C)C)C(C(=O)NC3CCCc5ccccc53)C4)c(C)c([100NH:0][100C:0](=O)N3CCCC(n4nc(-c5ccc(Oc6ccc(F)cc6F)cc5)c(C(N)=O)c4N)C3)c2C)CC1

> <Shape>
0.281

> <Color>
0.071

> <Negative vol penalty>
0.000

$$$$

  -OEChem-04052316093D

 82 90  0     1  0  0  0  0  0999 V2000
  -23.7495  -23.7910   18.8823 C   0  0  0  0  0  0  0  0  0  0  0  0
  -24.8377  -22.9979   19.2317 C   0  0  0  0  0  0  0  0  0  0  0  0
  -22.5182  -28.2223   20.6382 C   0  0  0  0  0  0  0  0  0  0  0  0
  -23.6351  -28.3859   22.7743 C   0  0  0  0  0  0  0  0  0  0  0  0
  -22.4659  -23.4299   19.2895 C   0  0  0  0  0  0  0  0  0  0  0  0
  -24.6430  -21.8437   19.9896 C   0  0  0  0  0  0  0  0  0  0  0  0
  -27.2524  -17.8863   18.2076 C   0  0  0  0  0  0  0  0  0  0  0  0
  -21.2903  -28.1045   21.2893 C   0  0  0  0  0  0  0  0  0  0  0  0
  -22.4072  -28.2681   23.4254 C   0  0  0  0  0  0  0  0  0  0  0  0
  -28.6150  -17.8389   18.4987 C   0  0  0  0  0  0  0  0  0  0  0  0
  -19.5426  -25.6963   22.8927 C   0  0  0  0  0  0  0  0  0  0  0  0
  -18.6622  -24.7133   22.4410 C   0  0  0  0  0  0  0  0  0  0  0  0
  -28.1737  -16.2740   20.2807 C   0  0  0  0  0  0  0  0  0  0  0  0
  -32.4505  -19.3948   20.0361 C   0  0  0  0  0  0  0  0  0  0  0  0
  -31.8229  -19.6923   22.3501 C   0  0  0  0  0  0  0  0  0  0  0  0
  -17.0187  -26.4133   21.9448 C   0  0  0  0  0  0  0  0  0  0  0  0
  -23.6907  -28.3630   21.3807 C   0  0  0  0  0  0  0  0  0  0  0  0
  -25.5891  -29.6712   20.2888 C   0  0  0  0  0  0  0  0  0  0  0  0
  -22.2542  -22.2656   20.0446 C   0  0  0  0  0  0  0  0  0  0  0  0
  -26.3374  -17.1350   18.9592 C   0  0  0  0  0  0  0  0  0  0  0  0
  -23.3555  -21.4674   20.4085 C   0  0  0  0  0  0  0  0  0  0  0  0
  -26.8003  -16.3117   19.9955 C   0  0  0  0  0  0  0  0  0  0  0  0
  -32.1353  -18.8518   21.2816 C   0  0  0  0  0  0  0  0  0  0  0  0
  -32.4533  -20.7785   19.8591 C   0  0  0  0  0  0  0  0  0  0  0  0
  -32.1408  -21.6190   20.9275 C   0  0  0  0  0  0  0  0  0  0  0  0
  -21.2348  -28.1274   22.6828 C   0  0  0  0  0  0  0  0  0  0  0  0
  -29.0756  -17.0349   19.5372 C   0  0  0  0  0  0  0  0  0  0  0  0
  -19.1611  -27.0379   22.8705 C   0  0  0  0  0  0  0  0  0  0  0  0
  -17.4002  -25.0718   21.9671 C   0  0  0  0  0  0  0  0  0  0  0  0
  -17.8992  -27.3963   22.3965 C   0  0  0  0  0  0  0  0  0  0  0  0
  -31.8256  -21.0759   22.1731 C   0  0  0  0  0  0  0  0  0  0  0  0
  -24.9595  -28.4841   20.7087 C   0  0  0  0  0  0  0  0  0  0  0  0
  -26.7613  -29.2515   19.7090 C   0  0  0  0  0  0  0  0  0  0  0  0
  -25.1533  -31.0315   20.4119 C   0  0  0  0  0  0  0  0  0  0  0  0
  -23.8644  -17.8321   20.8306 C   0  0  0  0  0  0  0  0  0  0  0  0
  -23.4901  -14.6103   20.8764 C   0  0  0  0  0  0  0  0  0  0  0  0
  -24.9028  -11.5241   20.5209 C   0  0  0  0  0  0  0  0  0  0  0  0
  -30.0579  -24.4263   20.5489 C   0  0  0  0  0  0  0  0  0  0  0  0
  -20.8540  -21.9414   20.5019 C   0  0  0  0  0  0  0  0  0  0  0  0
  -24.8737  -17.1766   18.6153 C   0  0  0  0  0  0  0  0  0  0  0  0
  -25.8613  -15.4701   20.8192 C   0  0  0  0  0  0  0  0  0  0  0  0
  -20.6887  -20.5027   20.9846 C   0  0  0  0  0  0  0  0  0  0  0  0
  -28.6681  -25.5225   17.3923 C   0  0  0  0  0  0  0  0  0  0  0  0
  -21.8278  -20.1207   21.9244 C   0  0  0  0  0  0  0  0  0  0  0  0
  -27.6121  -26.5269   17.8574 C   0  0  0  0  0  0  0  0  0  0  0  0
  -28.7520  -24.3299   18.3403 C   0  0  0  0  0  0  0  0  0  0  0  0
  -27.9525  -25.6945   20.2304 C   0  0  0  0  0  0  0  0  0  0  0  0
  -23.1819  -20.1947   21.2086 C   0  0  1  0  0  0  0  0  0  0  0  0
  -23.9750  -16.7659   19.7776 C   0  0  1  0  0  0  0  0  0  0  0  0
  -27.8349  -26.9346   19.3258 C   0  0  2  0  0  0  0  0  0  0  0  0
  -32.7961  -21.3323   18.5145 C   0  0  0  0  0  0  0  0  0  0  0  0
  -24.3541   -9.0790   20.6557 C   0  0  0  0  0  0  0  0  0  0  0  0
  -23.5039  -14.7775   23.9230 C   0  0  0  0  0  0  0  0  0  0  0  0
  -23.9108  -12.3079   23.9872 C   0  0  0  0  0  0  0  0  0  0  0  0
  -21.8132  -13.1987   22.9726 C   0  0  0  0  0  0  0  0  0  0  0  0
  -25.6098  -11.0902   17.6800 C   0  0  0  0  0  0  0  0  0  0  0  0
  -32.1314  -17.3545   21.4722 C   0  0  0  0  0  0  0  0  0  0  0  0
  -32.1490  -23.1016   20.7208 C   0  0  0  0  0  0  0  0  0  0  0  0
  -30.7683  -16.7364   21.1809 C   0  0  0  0  0  0  0  0  0  1  0  0
  -24.0039  -13.4865   21.7437 C   0  0  1  0  0  0  0  0  0  0  0  0
  -24.4576  -10.2953   19.7486 C   0  0  2  0  0  0  0  0  0  0  0  0
  -23.3257  -13.4599   23.1425 C   0  0  0  0  0  0  0  0  0  0  0  0
  -25.6726  -27.3923   20.4201 N   0  0  0  0  0  0  0  0  0  0  0  0
  -26.7624  -27.8915   19.8125 N   0  0  0  0  0  0  0  0  0  0  0  0
  -24.4388  -15.5497   20.4484 N   0  0  0  0  0  0  0  0  0  0  0  0
  -28.9835  -24.7855   19.7183 N   0  0  0  0  0  0  0  0  0  0  0  0
  -27.7809  -29.9167   19.1257 N   0  0  0  0  0  0  0  0  0  0  0  0
  -23.9237  -31.2855   21.0346 N   0  0  0  0  0  0  0  0  0  0  0  0
  -23.3709  -19.0352   20.3634 N   0  0  0  0  0  0  0  0  0  0  0  0
  -23.8282  -12.2615   20.9711 N   0  0  0  0  0  0  0  0  0  0  0  0
  -30.9867  -23.5565   19.9907 N   0  0  0  0  0  0  0  0  0  0  0  0
  -25.4275   -9.9884   18.6597 N   0  3  0  0  0  0  0  0  0  0  0  0
  -25.8266  -31.9923   19.9679 O   0  0  0  0  0  0  0  0  0  0  0  0
  -24.2006  -17.5812   21.9820 O   0  0  0  0  0  0  0  0  0  0  0  0
  -22.2925  -14.6490   20.5835 O   0  0  0  0  0  0  0  0  0  0  0  0
  -26.0856  -11.7999   20.7095 O   0  0  0  0  0  0  0  0  0  0  0  0
  -30.1835  -24.8536   21.7016 O   0  0  0  0  0  0  0  0  0  0  0  0
  -20.0367  -28.0127   23.3185 O   0  0  0  0  0  0  0  0  0  0  0  0
  -30.4050  -16.9873   19.8239 O   0  0  0  0  0  0  0  0  0  1  0  0
  -16.5554  -24.1278   21.5320 F   0  0  0  0  0  0  0  0  0  0  0  0
  -17.5275  -28.6836   22.3716 F   0  0  0  0  0  0  0  0  0  0  0  0
  -31.4317  -22.0823   23.5196 Cl  0  0  0  0  0  0  0  0  0  0  0  0
  1  2  1  0  0  0  0
  1  5  2  0  0  0  0
  2  6  2  0  0  0  0
  3  8  2  0  0  0  0
  3 17  1  0  0  0  0
  4  9  1  0  0  0  0
  4 17  2  0  0  0  0
  5 19  1  0  0  0  0
  6 21  1  0  0  0  0
  7 10  2  0  0  0  0
  7 20  1  0  0  0  0
  8 26  1  0  0  0  0
  9 26  2  0  0  0  0
 10 27  1  0  0  0  0
 11 12  2  0  0  0  0
 11 28  1  0  0  0  0
 12 29  1  0  0  0  0
 13 22  1  0  0  0  0
 13 27  2  0  0  0  0
 14 23  1  0  0  0  0
 14 24  2  0  0  0  0
 15 23  2  0  0  0  0
 15 31  1  0  0  0  0
 16 29  2  0  0  0  0
 16 30  1  0  0  0  0
 17 32  1  0  0  0  0
 18 32  1  0  0  0  0
 18 33  2  0  0  0  0
 18 34  1  0  0  0  0
 19 21  2  0  0  0  0
 19 39  1  0  0  0  0
 20 22  2  0  0  0  0
 20 40  1  0  0  0  0
 21 48  1  0  0  0  0
 22 41  1  0  0  0  0
 23 57  1  0  0  0  0
 24 25  1  0  0  0  0
 24 51  1  0  0  0  0
 25 31  2  0  0  0  0
 25 58  1  0  0  0  0
 26 78  1  0  0  0  0
 27 79  1  0  0  0  0
 28 30  2  0  0  0  0
 28 78  1  0  0  0  0
 29 80  1  0  0  0  0
 30 81  1  0  0  0  0
 31 82  1  0  0  0  0
 32 63  2  0  0  0  0
 33 64  1  0  0  0  0
 33 67  1  0  0  0  0
 34 68  1  0  0  0  0
 34 73  2  0  0  0  0
 35 49  1  0  0  0  0
 35 69  1  0  0  0  0
 35 74  2  0  0  0  0
 36 60  1  0  0  0  0
 36 65  1  0  0  0  0
 36 75  2  0  0  0  0
 37 61  1  0  0  0  0
 37 70  1  0  0  0  0
 37 76  2  0  0  0  0
 38 66  1  0  0  0  0
 38 71  1  0  0  0  0
 38 77  2  0  0  0  0
 39 42  1  0  0  0  0
 40 49  1  0  0  0  0
 41 65  1  0  0  0  0
 42 44  1  0  0  0  0
 43 45  1  0  0  0  0
 43 46  1  0  0  0  0
 44 48  1  0  0  0  0
 45 50  1  0  0  0  0
 46 66  1  0  0  0  0
 47 50  1  0  0  0  0
 47 66  1  0  0  0  0
 48 69  1  0  0  0  0
 49 65  1  0  0  0  0
 50 64  1  0  0  0  0
 52 61  1  0  0  0  0
 53 62  1  0  0  0  0
 54 62  1  0  0  0  0
 55 62  1  0  0  0  0
 56 72  1  0  0  0  0
 57 59  1  0  0  0  0
 58 71  1  0  0  0  0
 59 79  1  0  0  0  0
 60 62  1  0  0  0  0
 60 70  1  0  0  0  0
 61 72  1  0  0  0  0
 63 64  1  0  0  0  0
M  CHG  1  72   1
M  ISO  4  38 100  59 101  71 100  79 101
M  END
> <Batch ID>
0020

> <Smiles>
CNC(C)C(=O)NC(C(=O)N1Cc2cc([101O:1][101CH2:1]Cc3cc(C)c(C[100NH:0][100C:0](=O)N4CCCC(n5nc(-c6ccc(Oc7ccc(F)cc7F)cc6)c(C(N)=O)c5N)C4)c(Cl)c3)ccc2CC1C(=O)NC1CCCc2ccccc21)C(C)(C)C

> <Shape>
0.215

> <Color>
0.069

> <Negative vol penalty>
0.000

$$$$

  -OEChem-04052316093D

 86 94  0     1  0  0  0  0  0999 V2000
  -24.6155  -28.9361   22.6735 C   0  0  0  0  0  0  0  0  0  0  0  0
  -24.7457  -27.5528   22.7435 C   0  0  0  0  0  0  0  0  0  0  0  0
  -23.1802   -9.8253   19.9362 C   0  0  0  0  0  0  0  0  0  0  0  0
  -23.5514  -10.0130   22.3161 C   0  0  0  0  0  0  0  0  0  0  0  0
  -24.1096  -29.5299   21.5179 C   0  0  0  0  0  0  0  0  0  0  0  0
  -24.3690  -26.7624   21.6584 C   0  0  0  0  0  0  0  0  0  0  0  0
  -27.7671  -23.1575   20.6083 C   0  0  0  0  0  0  0  0  0  0  0  0
  -26.7051  -15.4690   24.2121 C   0  0  0  0  0  0  0  0  0  0  0  0
  -22.4065   -8.6840   20.1468 C   0  0  0  0  0  0  0  0  0  0  0  0
  -22.7776   -8.8717   22.5268 C   0  0  0  0  0  0  0  0  0  0  0  0
  -27.7675  -22.0261   21.4230 C   0  0  0  0  0  0  0  0  0  0  0  0
  -23.1600   -5.5217   22.2774 C   0  0  0  0  0  0  0  0  0  0  0  0
  -23.6497   -4.5610   23.1621 C   0  0  0  0  0  0  0  0  0  0  0  0
  -25.5080  -16.1569   24.0137 C   0  0  0  0  0  0  0  0  0  0  0  0
  -26.5218  -20.8235   19.7434 C   0  0  0  0  0  0  0  0  0  0  0  0
  -21.6899   -4.8380   24.5477 C   0  0  0  0  0  0  0  0  0  0  0  0
  -23.7527  -10.4898   21.0208 C   0  0  0  0  0  0  0  0  0  0  0  0
  -24.1070  -13.0034   20.7682 C   0  0  0  0  0  0  0  0  0  0  0  0
  -23.7355  -28.7470   20.4144 C   0  0  0  0  0  0  0  0  0  0  0  0
  -27.1335  -23.1336   19.3575 C   0  0  0  0  0  0  0  0  0  0  0  0
  -23.8563  -27.3461   20.4874 C   0  0  0  0  0  0  0  0  0  0  0  0
  -26.5169  -21.9551   18.9136 C   0  0  0  0  0  0  0  0  0  0  0  0
  -27.8312  -15.7967   23.4571 C   0  0  0  0  0  0  0  0  0  0  0  0
  -26.5631  -17.5002   22.3051 C   0  0  0  0  0  0  0  0  0  0  0  0
  -22.2052   -8.2072   21.4421 C   0  0  0  0  0  0  0  0  0  0  0  0
  -27.1423  -20.8598   20.9918 C   0  0  0  0  0  0  0  0  0  0  0  0
  -21.9352   -6.1407   22.5278 C   0  0  0  0  0  0  0  0  0  0  0  0
  -22.9147   -4.2191   24.2973 C   0  0  0  0  0  0  0  0  0  0  0  0
  -21.2002   -5.7988   23.6629 C   0  0  0  0  0  0  0  0  0  0  0  0
  -25.4370  -17.1724   23.0602 C   0  0  0  0  0  0  0  0  0  0  0  0
  -27.7602  -16.8123   22.5035 C   0  0  0  0  0  0  0  0  0  0  0  0
  -24.5525  -11.6685   20.8038 C   0  0  0  0  0  0  0  0  0  0  0  0
  -25.2433  -13.7385   20.5338 C   0  0  0  0  0  0  0  0  0  0  0  0
  -22.7843  -13.5318   20.9324 C   0  0  0  0  0  0  0  0  0  0  0  0
  -24.7080  -24.7110   18.0412 C   0  0  0  0  0  0  0  0  0  0  0  0
  -25.6130  -23.0969   15.3770 C   0  0  0  0  0  0  0  0  0  0  0  0
  -31.0482  -12.5993   21.5908 C   0  0  0  0  0  0  0  0  0  0  0  0
  -27.1842  -20.3853   14.0260 C   0  0  0  0  0  0  0  0  0  0  0  0
  -23.1494  -29.4307   19.2045 C   0  0  0  0  0  0  0  0  0  0  0  0
  -27.1650  -24.3543   18.4792 C   0  0  0  0  0  0  0  0  0  0  0  0
  -25.8402  -21.8715   17.5706 C   0  0  0  0  0  0  0  0  0  0  0  0
  -23.1240  -28.5485   17.9590 C   0  0  0  0  0  0  0  0  0  0  0  0
  -29.5353  -13.4524   18.4566 C   0  0  0  0  0  0  0  0  0  0  0  0
  -22.5849  -27.1623   18.2976 C   0  0  0  0  0  0  0  0  0  0  0  0
  -28.0490  -13.1858   18.6911 C   0  0  0  0  0  0  0  0  0  0  0  0
  -30.4075  -12.4509   19.2072 C   0  0  0  0  0  0  0  0  0  0  0  0
  -28.6447  -12.1172   20.9110 C   0  0  0  0  0  0  0  0  0  0  0  0
  -23.4817  -26.4566   19.3219 C   0  0  1  0  0  0  0  0  0  0  0  0
  -26.0449  -24.3744   17.4437 C   0  0  1  0  0  0  0  0  0  0  0  0
  -27.7288  -13.1256   20.1951 C   0  0  2  0  0  0  0  0  0  0  0  0
  -27.7283  -19.3206   11.8198 C   0  0  0  0  0  0  0  0  0  0  0  0
  -32.2071  -15.2211   22.4997 C   0  0  0  0  0  0  0  0  0  0  0  0
  -31.4153  -14.7588   24.8209 C   0  0  0  0  0  0  0  0  0  0  0  0
  -30.2102  -12.0840   23.8269 C   0  0  0  0  0  0  0  0  0  0  0  0
  -22.7295  -22.1287   15.1359 C   0  0  0  0  0  0  0  0  0  0  0  0
  -23.5266  -20.3708   13.5414 C   0  0  0  0  0  0  0  0  0  0  0  0
  -23.7944  -22.7842   12.9701 C   0  0  0  0  0  0  0  0  0  0  0  0
  -30.0962  -20.5966   14.5107 C   0  0  0  0  0  0  0  0  0  0  0  0
  -29.0918  -15.0321   23.7046 C   0  0  0  0  0  0  0  0  0  0  0  0
  -26.4814  -18.5936   21.2808 C   0  0  0  0  0  0  0  0  0  1  0  0
  -25.2581  -21.7648   14.7619 C   0  0  1  0  0  0  0  0  0  0  0  0
  -28.2070  -20.2659   12.9106 C   0  0  2  0  0  0  0  0  0  0  0  0
  -31.7525  -14.1171   23.4682 C   0  0  0  0  0  0  0  0  0  0  0  0
  -30.6149  -13.2272   22.8916 C   0  0  1  0  0  0  0  0  0  0  0  0
  -23.8381  -21.7639   14.1285 C   0  0  0  0  0  0  0  0  0  0  0  0
  -25.8691  -11.5589   20.6076 N   0  0  0  0  0  0  0  0  0  0  0  0
  -26.2607  -12.8343   20.4463 N   0  0  0  0  0  0  0  0  0  0  0  0
  -25.8926  -23.0933   16.7509 N   0  0  0  0  0  0  0  0  0  0  0  0
  -30.0572  -12.4072   20.6280 N   0  0  0  0  0  0  0  0  0  0  0  0
  -25.4615  -15.0636   20.3960 N   0  0  0  0  0  0  0  0  0  0  0  0
  -21.7315  -12.6366   21.1664 N   0  0  0  0  0  0  0  0  0  0  0  0
  -24.6696  -25.9359   18.6797 N   0  0  0  0  0  0  0  0  0  0  0  0
  -26.3306  -21.4493   13.8246 N   0  0  0  0  0  0  0  0  0  0  0  0
  -29.4990  -19.7507   13.4454 N   0  3  0  0  0  0  0  0  0  0  0  0
  -29.3957  -14.0396   22.6390 N   0  3  0  0  0  0  0  0  0  0  0  0
  -22.5405  -14.7599   20.8570 O   0  0  0  0  0  0  0  0  0  0  0  0
  -23.7797  -23.9189   17.9299 O   0  0  0  0  0  0  0  0  0  0  0  0
  -25.6481  -24.1024   14.6633 O   0  0  0  0  0  0  0  0  0  0  0  0
  -32.2331  -12.2922   21.4358 O   0  0  0  0  0  0  0  0  0  0  0  0
  -27.1441  -19.6099   14.9787 O   0  0  0  0  0  0  0  0  0  0  0  0
  -21.4500   -7.0937   21.6481 O   0  0  0  0  0  0  0  0  0  0  0  0
  -27.1407  -19.7542   21.7854 O   0  0  0  0  0  0  0  0  0  1  0  0
  -23.3843   -3.2954   25.1460 F   0  0  0  0  0  0  0  0  0  0  0  0
  -20.0224   -6.3891   23.9082 F   0  0  0  0  0  0  0  0  0  0  0  0
  -23.9347  -17.9975   22.8481 Cl  0  0  0  0  0  0  0  0  0  0  0  0
  -29.1627  -17.2143   21.5688 Cl  0  0  0  0  0  0  0  0  0  0  0  0
  1  2  1  0  0  0  0
  1  5  2  0  0  0  0
  2  6  2  0  0  0  0
  3  9  2  0  0  0  0
  3 17  1  0  0  0  0
  4 10  1  0  0  0  0
  4 17  2  0  0  0  0
  5 19  1  0  0  0  0
  6 21  1  0  0  0  0
  7 11  2  0  0  0  0
  7 20  1  0  0  0  0
  8 14  1  0  0  0  0
  8 23  2  0  0  0  0
  9 25  1  0  0  0  0
 10 25  2  0  0  0  0
 11 26  1  0  0  0  0
 12 13  2  0  0  0  0
 12 27  1  0  0  0  0
 13 28  1  0  0  0  0
 14 30  2  0  0  0  0
 15 22  1  0  0  0  0
 15 26  2  0  0  0  0
 16 28  2  0  0  0  0
 16 29  1  0  0  0  0
 17 32  1  0  0  0  0
 18 32  1  0  0  0  0
 18 33  2  0  0  0  0
 18 34  1  0  0  0  0
 19 21  2  0  0  0  0
 19 39  1  0  0  0  0
 20 22  2  0  0  0  0
 20 40  1  0  0  0  0
 21 48  1  0  0  0  0
 22 41  1  0  0  0  0
 23 31  1  0  0  0  0
 23 59  1  0  0  0  0
 24 30  1  0  0  0  0
 24 31  2  0  0  0  0
 24 60  1  0  0  0  0
 25 81  1  0  0  0  0
 26 82  1  0  0  0  0
 27 29  2  0  0  0  0
 27 81  1  0  0  0  0
 28 83  1  0  0  0  0
 29 84  1  0  0  0  0
 30 85  1  0  0  0  0
 31 86  1  0  0  0  0
 32 66  2  0  0  0  0
 33 67  1  0  0  0  0
 33 70  1  0  0  0  0
 34 71  1  0  0  0  0
 34 76  2  0  0  0  0
 35 49  1  0  0  0  0
 35 72  1  0  0  0  0
 35 77  2  0  0  0  0
 36 61  1  0  0  0  0
 36 68  1  0  0  0  0
 36 78  2  0  0  0  0
 37 64  1  0  0  0  0
 37 69  1  0  0  0  0
 37 79  2  0  0  0  0
 38 62  1  0  0  0  0
 38 73  1  0  0  0  0
 38 80  2  0  0  0  0
 39 42  1  0  0  0  0
 40 49  1  0  0  0  0
 41 68  1  0  0  0  0
 42 44  1  0  0  0  0
 43 45  1  0  0  0  0
 43 46  1  0  0  0  0
 44 48  1  0  0  0  0
 45 50  1  0  0  0  0
 46 69  1  0  0  0  0
 47 50  1  0  0  0  0
 47 69  1  0  0  0  0
 48 72  1  0  0  0  0
 49 68  1  0  0  0  0
 50 67  1  0  0  0  0
 51 62  1  0  0  0  0
 52 63  1  0  0  0  0
 53 63  1  0  0  0  0
 54 64  1  0  0  0  0
 55 65  1  0  0  0  0
 56 65  1  0  0  0  0
 57 65  1  0  0  0  0
 58 74  1  0  0  0  0
 59 75  1  0  0  0  0
 60 82  1  0  0  0  0
 61 65  1  0  0  0  0
 61 73  1  0  0  0  0
 62 74  1  0  0  0  0
 63 64  1  0  0  0  0
 64 75  1  0  0  0  0
 66 67  1  0  0  0  0
M  CHG  2  74   1  75   1
M  ISO  4  37 100  60 101  64 100  82 101
M  END
> <Batch ID>
0020

> <Smiles>
CNC(C)C(=O)NC(C(=O)N1Cc2cc([101O:1][101CH2:1]c3c(Cl)ccc(CN[100C:0](C)(C(C)C)[100C:0](=O)N4CCCC(n5nc(-c6ccc(Oc7ccc(F)cc7F)cc6)c(C(N)=O)c5N)C4)c3Cl)ccc2CC1C(=O)NC1CCCc2ccccc21)C(C)(C)C

> <Shape>
0.206

> <Color>
0.182

> <Negative vol penalty>
0.000

$$$$

  -OEChem-04052316093D

 87 95  0     1  0  0  0  0  0999 V2000
  -30.1330  -31.7375   15.8256 C   0  0  0  0  0  0  0  0  0  0  0  0
  -29.9890  -30.8901   16.9194 C   0  0  0  0  0  0  0  0  0  0  0  0
  -23.0724   -9.8713   19.9412 C   0  0  0  0  0  0  0  0  0  0  0  0
  -23.8303   -9.8783   22.2352 C   0  0  0  0  0  0  0  0  0  0  0  0
  -29.4622  -31.4581   14.6357 C   0  0  0  0  0  0  0  0  0  0  0  0
  -29.1731  -29.7633   16.8244 C   0  0  0  0  0  0  0  0  0  0  0  0
  -30.0624  -24.3362   19.5190 C   0  0  0  0  0  0  0  0  0  0  0  0
  -22.3264   -8.7195   20.1912 C   0  0  0  0  0  0  0  0  0  0  0  0
  -23.0843   -8.7266   22.4852 C   0  0  0  0  0  0  0  0  0  0  0  0
  -29.5381  -23.7678   20.6791 C   0  0  0  0  0  0  0  0  0  0  0  0
  -19.3756   -7.9286   21.6403 C   0  0  0  0  0  0  0  0  0  0  0  0
  -18.0691   -7.8843   21.1539 C   0  0  0  0  0  0  0  0  0  0  0  0
  -27.8655  -22.6347   19.3608 C   0  0  0  0  0  0  0  0  0  0  0  0
  -30.6029  -19.8606   21.4913 C   0  0  0  0  0  0  0  0  0  0  0  0
  -31.1604  -17.6857   20.5993 C   0  0  0  0  0  0  0  0  0  0  0  0
  -18.6267   -5.9395   19.8333 C   0  0  0  0  0  0  0  0  0  0  0  0
  -23.8244  -10.4507   20.9632 C   0  0  0  0  0  0  0  0  0  0  0  0
  -24.1705  -12.9752   20.8420 C   0  0  0  0  0  0  0  0  0  0  0  0
  -28.6453  -30.3221   14.5229 C   0  0  0  0  0  0  0  0  0  0  0  0
  -29.4845  -24.0663   18.2702 C   0  0  0  0  0  0  0  0  0  0  0  0
  -28.4897  -29.4692   15.6323 C   0  0  0  0  0  0  0  0  0  0  0  0
  -28.3860  -23.1989   18.1861 C   0  0  0  0  0  0  0  0  0  0  0  0
  -31.3327  -19.0699   20.6038 C   0  0  0  0  0  0  0  0  0  0  0  0
  -29.7009  -19.2672   22.3745 C   0  0  0  0  0  0  0  0  0  0  0  0
  -30.2583  -17.0922   21.4824 C   0  0  0  0  0  0  0  0  0  0  0  0
  -22.3323   -8.1472   21.4632 C   0  0  0  0  0  0  0  0  0  0  0  0
  -28.4377  -22.9192   20.6004 C   0  0  0  0  0  0  0  0  0  0  0  0
  -20.3078   -6.9785   21.2231 C   0  0  0  0  0  0  0  0  0  0  0  0
  -17.6946   -6.8897   20.2504 C   0  0  0  0  0  0  0  0  0  0  0  0
  -19.9333   -5.9839   20.3197 C   0  0  0  0  0  0  0  0  0  0  0  0
  -29.5286  -17.8830   22.3700 C   0  0  0  0  0  0  0  0  0  0  0  0
  -24.5957  -11.6401   20.7055 C   0  0  0  0  0  0  0  0  0  0  0  0
  -25.2643  -13.7226   20.4793 C   0  0  0  0  0  0  0  0  0  0  0  0
  -22.9006  -13.4933   21.2595 C   0  0  0  0  0  0  0  0  0  0  0  0
  -28.0712  -25.8192   16.0266 C   0  0  0  0  0  0  0  0  0  0  0  0
  -28.1019  -23.0270   14.3758 C   0  0  0  0  0  0  0  0  0  0  0  0
  -28.2153  -19.6170   14.4526 C   0  0  0  0  0  0  0  0  0  0  0  0
  -30.7320  -14.7593   20.6582 C   0  0  0  0  0  0  0  0  0  0  0  0
  -27.9029  -30.0872   13.2313 C   0  0  0  0  0  0  0  0  0  0  0  0
  -30.0785  -24.6661   17.0253 C   0  0  0  0  0  0  0  0  0  0  0  0
  -27.7415  -22.8610   16.8674 C   0  0  0  0  0  0  0  0  0  0  0  0
  -27.3537  -28.6695   13.0936 C   0  0  0  0  0  0  0  0  0  0  0  0
  -29.6157  -12.3459   18.2904 C   0  0  0  0  0  0  0  0  0  0  0  0
  -26.6546  -28.2406   14.3797 C   0  0  0  0  0  0  0  0  0  0  0  0
  -28.1752  -12.0570   18.7188 C   0  0  0  0  0  0  0  0  0  0  0  0
  -30.5301  -12.5739   19.4927 C   0  0  0  0  0  0  0  0  0  0  0  0
  -28.6232  -13.3023   20.8718 C   0  0  0  0  0  0  0  0  0  0  0  0
  -27.6331  -28.2236   15.5603 C   0  0  1  0  0  0  0  0  0  0  0  0
  -29.0922  -24.7290   15.8630 C   0  0  1  0  0  0  0  0  0  0  0  0
  -27.6511  -13.1300   19.6932 C   0  0  2  0  0  0  0  0  0  0  0  0
  -28.3610  -17.2717   13.5719 C   0  0  0  0  0  0  0  0  0  0  0  0
  -34.4029  -21.3330   19.5574 C   0  0  0  0  0  0  0  0  0  0  0  0
  -34.1562  -19.7764   21.4882 C   0  0  0  0  0  0  0  0  0  0  0  0
  -33.0522  -18.6980   18.7155 C   0  0  0  0  0  0  0  0  0  0  0  0
  -31.5188  -20.6383   18.6645 C   0  0  0  0  0  0  0  0  0  0  0  0
  -25.0991  -23.3811   13.9660 C   0  0  0  0  0  0  0  0  0  0  0  0
  -24.9729  -20.9655   13.3203 C   0  0  0  0  0  0  0  0  0  0  0  0
  -26.3352  -22.5495   11.9573 C   0  0  0  0  0  0  0  0  0  0  0  0
  -31.1742  -19.6589   14.5012 C   0  0  0  0  0  0  0  0  0  0  0  0
  -28.9139  -20.1252   23.3326 C   0  0  0  0  0  0  0  0  0  0  0  0
  -27.4553  -20.3320   22.9186 C   0  0  0  0  0  0  0  0  0  0  0  0
  -27.3023  -21.0854   21.6024 C   0  0  0  0  0  0  0  0  0  1  0  0
  -27.1619  -21.8532   14.2429 C   0  0  1  0  0  0  0  0  0  0  0  0
  -29.0574  -18.6195   13.6779 C   0  0  2  0  0  0  0  0  0  0  0  0
  -33.3841  -20.5881   20.4344 C   0  0  0  0  0  0  0  0  0  0  0  0
  -32.2970  -19.7044   19.6596 C   0  0  0  0  0  0  0  0  0  0  0  0
  -25.9030  -22.1950   13.3968 C   0  0  0  0  0  0  0  0  0  0  0  0
  -25.8608  -11.5419   20.2883 N   0  0  0  0  0  0  0  0  0  0  0  0
  -26.2399  -12.8248   20.1596 N   0  0  0  0  0  0  0  0  0  0  0  0
  -28.3547  -23.4774   15.6793 N   0  0  0  0  0  0  0  0  0  0  0  0
  -29.9721  -13.6062   20.3690 N   0  0  0  0  0  0  0  0  0  0  0  0
  -25.4769  -15.0537   20.4057 N   0  0  0  0  0  0  0  0  0  0  0  0
  -21.8868  -12.5861   21.5964 N   0  0  0  0  0  0  0  0  0  0  0  0
  -30.0855  -15.6859   21.4755 N   0  0  0  0  0  0  0  0  0  0  0  0
  -28.4639  -27.0397   15.5112 N   0  0  0  0  0  0  0  0  0  0  0  0
  -27.9573  -20.7513   13.7123 N   0  0  0  0  0  0  0  0  0  0  0  0
  -30.3716  -18.4178   14.3511 N   0  3  0  0  0  0  0  0  0  0  0  0
  -22.6663  -14.7244   21.3159 O   0  0  0  0  0  0  0  0  0  0  0  0
  -27.0055  -25.5710   16.5781 O   0  0  0  0  0  0  0  0  0  0  0  0
  -28.5993  -23.5213   13.3610 O   0  0  0  0  0  0  0  0  0  0  0  0
  -27.8223  -19.4091   15.5984 O   0  0  0  0  0  0  0  0  0  0  0  0
  -31.8618  -14.9259   20.1915 O   0  0  0  0  0  0  0  0  0  0  0  0
  -21.6043   -7.0234   21.7075 O   0  0  0  0  0  0  0  0  0  0  0  0
  -27.9235  -22.3636   21.7312 O   0  0  0  0  0  0  0  0  0  1  0  0
  -16.4395   -6.8463   19.7846 F   0  0  0  0  0  0  0  0  0  0  0  0
  -20.8241   -5.0677   19.9162 F   0  0  0  0  0  0  0  0  0  0  0  0
  -28.6606  -17.3140   23.2202 F   0  0  0  0  0  0  0  0  0  0  0  0
  1  2  1  0  0  0  0
  1  5  2  0  0  0  0
  2  6  2  0  0  0  0
  3  8  2  0  0  0  0
  3 17  1  0  0  0  0
  4  9  1  0  0  0  0
  4 17  2  0  0  0  0
  5 19  1  0  0  0  0
  6 21  1  0  0  0  0
  7 10  2  0  0  0  0
  7 20  1  0  0  0  0
  8 26  1  0  0  0  0
  9 26  2  0  0  0  0
 10 27  1  0  0  0  0
 11 12  2  0  0  0  0
 11 28  1  0  0  0  0
 12 29  1  0  0  0  0
 13 22  1  0  0  0  0
 13 27  2  0  0  0  0
 14 23  2  0  0  0  0
 14 24  1  0  0  0  0
 15 23  1  0  0  0  0
 15 25  2  0  0  0  0
 16 29  2  0  0  0  0
 16 30  1  0  0  0  0
 17 32  1  0  0  0  0
 18 32  1  0  0  0  0
 18 33  2  0  0  0  0
 18 34  1  0  0  0  0
 19 21  2  0  0  0  0
 19 39  1  0  0  0  0
 20 22  2  0  0  0  0
 20 40  1  0  0  0  0
 21 48  1  0  0  0  0
 22 41  1  0  0  0  0
 23 66  1  0  0  0  0
 24 31  2  0  0  0  0
 24 60  1  0  0  0  0
 25 31  1  0  0  0  0
 25 74  1  0  0  0  0
 26 83  1  0  0  0  0
 27 84  1  0  0  0  0
 28 30  2  0  0  0  0
 28 83  1  0  0  0  0
 29 85  1  0  0  0  0
 30 86  1  0  0  0  0
 31 87  1  0  0  0  0
 32 68  2  0  0  0  0
 33 69  1  0  0  0  0
 33 72  1  0  0  0  0
 34 73  1  0  0  0  0
 34 78  2  0  0  0  0
 35 49  1  0  0  0  0
 35 75  1  0  0  0  0
 35 79  2  0  0  0  0
 36 63  1  0  0  0  0
 36 70  1  0  0  0  0
 36 80  2  0  0  0  0
 37 64  1  0  0  0  0
 37 76  1  0  0  0  0
 37 81  2  0  0  0  0
 38 71  1  0  0  0  0
 38 74  1  0  0  0  0
 38 82  2  0  0  0  0
 39 42  1  0  0  0  0
 40 49  1  0  0  0  0
 41 70  1  0  0  0  0
 42 44  1  0  0  0  0
 43 45  1  0  0  0  0
 43 46  1  0  0  0  0
 44 48  1  0  0  0  0
 45 50  1  0  0  0  0
 46 71  1  0  0  0  0
 47 50  1  0  0  0  0
 47 71  1  0  0  0  0
 48 75  1  0  0  0  0
 49 70  1  0  0  0  0
 50 69  1  0  0  0  0
 51 64  1  0  0  0  0
 52 65  1  0  0  0  0
 53 65  1  0  0  0  0
 54 66  1  0  0  0  0
 55 66  1  0  0  0  0
 56 67  1  0  0  0  0
 57 67  1  0  0  0  0
 58 67  1  0  0  0  0
 59 77  1  0  0  0  0
 60 61  1  0  0  0  0
 61 62  1  0  0  0  0
 62 84  1  0  0  0  0
 63 67  1  0  0  0  0
 63 76  1  0  0  0  0
 64 77  1  0  0  0  0
 65 66  1  0  0  0  0
 68 69  1  0  0  0  0
M  CHG  1  77   1
M  ISO  4  38 100  62 101  74 100  84 101
M  END
> <Batch ID>
0020

> <Smiles>
CNC(C)C(=O)NC(C(=O)N1Cc2cc([101O:1][101CH2:1]CCc3cc(C(C)(C)C(C)C)cc([100NH:0][100C:0](=O)N4CCCC(n5nc(-c6ccc(Oc7ccc(F)cc7F)cc6)c(C(N)=O)c5N)C4)c3F)ccc2CC1C(=O)NC1CCCc2ccccc21)C(C)(C)C

> <Shape>
0.203

> <Color>
0.191

> <Negative vol penalty>
0.000

$$$$

  -OEChem-04052316093D

 86 94  0     1  0  0  0  0  0999 V2000
  -32.2696  -14.6856   20.8431 C   0  0  0  0  0  0  0  0  0  0  0  0
  -31.3158  -15.6732   21.0671 C   0  0  0  0  0  0  0  0  0  0  0  0
  -23.2345  -28.0336   20.3005 C   0  0  0  0  0  0  0  0  0  0  0  0
  -24.3970  -26.4068   21.6567 C   0  0  0  0  0  0  0  0  0  0  0  0
  -31.8898  -13.4646   20.2873 C   0  0  0  0  0  0  0  0  0  0  0  0
  -29.9817  -15.4409   20.7344 C   0  0  0  0  0  0  0  0  0  0  0  0
  -26.7839  -16.9533   24.3581 C   0  0  0  0  0  0  0  0  0  0  0  0
  -27.2757  -19.9259   19.6776 C   0  0  0  0  0  0  0  0  0  0  0  0
  -26.3152  -20.4231   20.5584 C   0  0  0  0  0  0  0  0  0  0  0  0
  -22.0118  -27.5116   20.7225 C   0  0  0  0  0  0  0  0  0  0  0  0
  -23.1742  -25.8849   22.0788 C   0  0  0  0  0  0  0  0  0  0  0  0
  -26.5174  -18.3192   24.4427 C   0  0  0  0  0  0  0  0  0  0  0  0
  -20.0295  -27.7076   23.4547 C   0  0  0  0  0  0  0  0  0  0  0  0
  -19.0362  -28.6099   23.8353 C   0  0  0  0  0  0  0  0  0  0  0  0
  -24.4394  -17.9805   23.2652 C   0  0  0  0  0  0  0  0  0  0  0  0
  -17.5874  -27.7442   22.1065 C   0  0  0  0  0  0  0  0  0  0  0  0
  -24.4272  -27.4811   20.7676 C   0  0  0  0  0  0  0  0  0  0  0  0
  -26.4291  -29.0529   20.9385 C   0  0  0  0  0  0  0  0  0  0  0  0
  -30.5488  -13.2136   19.9565 C   0  0  0  0  0  0  0  0  0  0  0  0
  -25.8838  -16.0910   23.7158 C   0  0  0  0  0  0  0  0  0  0  0  0
  -29.5838  -14.2159   20.1724 C   0  0  0  0  0  0  0  0  0  0  0  0
  -24.6956  -16.6038   23.1760 C   0  0  0  0  0  0  0  0  0  0  0  0
  -28.2957  -20.7579   19.2158 C   0  0  0  0  0  0  0  0  0  0  0  0
  -26.3745  -21.7522   20.9774 C   0  0  0  0  0  0  0  0  0  0  0  0
  -28.3550  -22.0870   19.6348 C   0  0  0  0  0  0  0  0  0  0  0  0
  -21.9816  -26.4373   21.6116 C   0  0  0  0  0  0  0  0  0  0  0  0
  -25.3464  -18.8334   23.8936 C   0  0  0  0  0  0  0  0  0  0  0  0
  -19.8018  -26.8236   22.3999 C   0  0  0  0  0  0  0  0  0  0  0  0
  -17.8152  -28.6282   23.1612 C   0  0  0  0  0  0  0  0  0  0  0  0
  -18.5808  -26.8419   21.7259 C   0  0  0  0  0  0  0  0  0  0  0  0
  -27.3945  -22.5842   20.5156 C   0  0  0  0  0  0  0  0  0  0  0  0
  -25.6906  -28.0195   20.3316 C   0  0  0  0  0  0  0  0  0  0  0  0
  -27.5437  -29.1886   20.1475 C   0  0  0  0  0  0  0  0  0  0  0  0
  -26.1341  -29.8214   22.1124 C   0  0  0  0  0  0  0  0  0  0  0  0
  -26.0282  -14.1838   21.1769 C   0  0  0  0  0  0  0  0  0  0  0  0
  -23.0691  -13.2935   22.1636 C   0  0  0  0  0  0  0  0  0  0  0  0
  -30.3306  -25.3580   16.4500 C   0  0  0  0  0  0  0  0  0  0  0  0
  -20.2377  -14.0742   23.9015 C   0  0  0  0  0  0  0  0  0  0  0  0
  -30.1939  -11.8960   19.3142 C   0  0  0  0  0  0  0  0  0  0  0  0
  -26.1732  -14.6161   23.6565 C   0  0  0  0  0  0  0  0  0  0  0  0
  -23.6871  -15.7172   22.4938 C   0  0  0  0  0  0  0  0  0  0  0  0
  -28.6984  -11.5906   19.3366 C   0  0  0  0  0  0  0  0  0  0  0  0
  -29.0470  -28.6066   15.6508 C   0  0  0  0  0  0  0  0  0  0  0  0
  -27.8976  -12.8116   18.8956 C   0  0  0  0  0  0  0  0  0  0  0  0
  -28.0864  -28.9060   16.8010 C   0  0  0  0  0  0  0  0  0  0  0  0
  -29.0439  -27.1239   15.2923 C   0  0  0  0  0  0  0  0  0  0  0  0
  -28.3778  -26.5170   17.5966 C   0  0  0  0  0  0  0  0  0  0  0  0
  -28.1228  -13.9924   19.8477 C   0  0  1  0  0  0  0  0  0  0  0  0
  -25.4315  -13.9066   22.5278 C   0  0  1  0  0  0  0  0  0  0  0  0
  -28.3731  -27.9991   18.0109 C   0  0  2  0  0  0  0  0  0  0  0  0
  -29.3094  -20.1943   18.2733 C   0  0  0  0  0  0  0  0  0  0  0  0
  -17.9764  -13.1624   24.4954 C   0  0  0  0  0  0  0  0  0  0  0  0
  -30.8417  -25.4900   18.8710 C   0  0  0  0  0  0  0  0  0  0  0  0
  -31.7337  -23.6165   17.4710 C   0  0  0  0  0  0  0  0  0  0  0  0
  -22.0757  -13.9312   19.3499 C   0  0  0  0  0  0  0  0  0  0  0  0
  -19.7390  -13.9249   20.2488 C   0  0  0  0  0  0  0  0  0  0  0  0
  -21.1170  -11.8479   20.3475 C   0  0  0  0  0  0  0  0  0  0  0  0
  -20.8477  -14.1289   26.7970 C   0  0  0  0  0  0  0  0  0  0  0  0
  -25.3136  -22.2447   21.9289 C   0  0  0  0  0  0  0  0  0  0  0  0
  -25.7966  -22.3776   23.3748 C   0  0  0  0  0  0  0  0  0  0  0  0
  -29.2762  -23.6952   17.9643 C   0  0  0  0  0  0  0  0  0  0  0  0
  -26.2055  -21.0486   23.9992 C   0  0  0  0  0  0  0  0  0  1  0  0
  -21.6631  -13.7723   21.8936 C   0  0  1  0  0  0  0  0  0  0  0  0
  -19.4315  -13.2877   24.9194 C   0  0  2  0  0  0  0  0  0  0  0  0
  -30.5331  -24.5447   17.7036 C   0  0  0  0  0  0  0  0  0  0  0  0
  -21.1684  -13.3863   20.4710 C   0  0  0  0  0  0  0  0  0  0  0  0
  -26.2857  -27.5333   19.2392 N   0  0  0  0  0  0  0  0  0  0  0  0
  -27.4100  -28.2645   19.1534 N   0  0  0  0  0  0  0  0  0  0  0  0
  -24.0183  -14.2832   22.4557 N   0  0  0  0  0  0  0  0  0  0  0  0
  -29.2976  -26.2953   16.4722 N   0  0  0  0  0  0  0  0  0  0  0  0
  -28.6152  -30.0072   20.2121 N   0  0  0  0  0  0  0  0  0  0  0  0
  -24.9464  -29.5522   22.8062 N   0  0  0  0  0  0  0  0  0  0  0  0
  -29.3957  -22.9182   19.1557 N   0  0  0  0  0  0  0  0  0  0  0  0
  -27.3552  -13.8162   21.0619 N   0  0  0  0  0  0  0  0  0  0  0  0
  -20.8381  -13.2469   22.9761 N   0  0  0  0  0  0  0  0  0  0  0  0
  -19.4775  -13.9607   26.2483 N   0  3  0  0  0  0  0  0  0  0  0  0
  -26.8930  -30.7314   22.5243 O   0  0  0  0  0  0  0  0  0  0  0  0
  -25.3354  -14.6922   20.3032 O   0  0  0  0  0  0  0  0  0  0  0  0
  -23.3146  -12.0853   22.1239 O   0  0  0  0  0  0  0  0  0  0  0  0
  -31.0712  -25.1666   15.4820 O   0  0  0  0  0  0  0  0  0  0  0  0
  -20.3230  -15.3001   23.9229 O   0  0  0  0  0  0  0  0  0  0  0  0
  -20.7886  -25.9279   22.0238 O   0  0  0  0  0  0  0  0  0  0  0  0
  -25.0842  -20.1663   23.9742 O   0  0  0  0  0  0  0  0  0  1  0  0
  -16.8609  -29.4936   23.5278 F   0  0  0  0  0  0  0  0  0  0  0  0
  -18.3558  -25.9943   20.7125 F   0  0  0  0  0  0  0  0  0  0  0  0
  -27.4604  -24.2353   21.0410 Cl  0  0  0  0  0  0  0  0  0  0  0  0
  1  2  1  0  0  0  0
  1  5  2  0  0  0  0
  2  6  2  0  0  0  0
  3 10  2  0  0  0  0
  3 17  1  0  0  0  0
  4 11  1  0  0  0  0
  4 17  2  0  0  0  0
  5 19  1  0  0  0  0
  6 21  1  0  0  0  0
  7 12  2  0  0  0  0
  7 20  1  0  0  0  0
  8  9  2  0  0  0  0
  8 23  1  0  0  0  0
  9 24  1  0  0  0  0
 10 26  1  0  0  0  0
 11 26  2  0  0  0  0
 12 27  1  0  0  0  0
 13 14  2  0  0  0  0
 13 28  1  0  0  0  0
 14 29  1  0  0  0  0
 15 22  1  0  0  0  0
 15 27  2  0  0  0  0
 16 29  2  0  0  0  0
 16 30  1  0  0  0  0
 17 32  1  0  0  0  0
 18 32  1  0  0  0  0
 18 33  2  0  0  0  0
 18 34  1  0  0  0  0
 19 21  2  0  0  0  0
 19 39  1  0  0  0  0
 20 22  2  0  0  0  0
 20 40  1  0  0  0  0
 21 48  1  0  0  0  0
 22 41  1  0  0  0  0
 23 25  2  0  0  0  0
 23 51  1  0  0  0  0
 24 31  2  0  0  0  0
 24 59  1  0  0  0  0
 25 31  1  0  0  0  0
 25 73  1  0  0  0  0
 26 82  1  0  0  0  0
 27 83  1  0  0  0  0
 28 30  2  0  0  0  0
 28 82  1  0  0  0  0
 29 84  1  0  0  0  0
 30 85  1  0  0  0  0
 31 86  1  0  0  0  0
 32 67  2  0  0  0  0
 33 68  1  0  0  0  0
 33 71  1  0  0  0  0
 34 72  1  0  0  0  0
 34 77  2  0  0  0  0
 35 49  1  0  0  0  0
 35 74  1  0  0  0  0
 35 78  2  0  0  0  0
 36 63  1  0  0  0  0
 36 69  1  0  0  0  0
 36 79  2  0  0  0  0
 37 65  1  0  0  0  0
 37 70  1  0  0  0  0
 37 80  2  0  0  0  0
 38 64  1  0  0  0  0
 38 75  1  0  0  0  0
 38 81  2  0  0  0  0
 39 42  1  0  0  0  0
 40 49  1  0  0  0  0
 41 69  1  0  0  0  0
 42 44  1  0  0  0  0
 43 45  1  0  0  0  0
 43 46  1  0  0  0  0
 44 48  1  0  0  0  0
 45 50  1  0  0  0  0
 46 70  1  0  0  0  0
 47 50  1  0  0  0  0
 47 70  1  0  0  0  0
 48 74  1  0  0  0  0
 49 69  1  0  0  0  0
 50 68  1  0  0  0  0
 52 64  1  0  0  0  0
 53 65  1  0  0  0  0
 54 65  1  0  0  0  0
 55 66  1  0  0  0  0
 56 66  1  0  0  0  0
 57 66  1  0  0  0  0
 58 76  1  0  0  0  0
 59 60  1  0  0  0  0
 60 62  1  0  0  0  0
 61 65  1  0  0  0  0
 61 73  1  0  0  0  0
 62 83  1  0  0  0  0
 63 66  1  0  0  0  0
 63 75  1  0  0  0  0
 64 76  1  0  0  0  0
 67 68  1  0  0  0  0
M  CHG  1  76   1
M  ISO  4  37 100  62 101  65 100  83 101
M  END
> <Batch ID>
0020

> <Smiles>
CNC(C)C(=O)NC(C(=O)N1Cc2cc([101O:1][101CH2:1]CCc3ccc(C)c(NC[100C:0](C)(C)[100C:0](=O)N4CCCC(n5nc(-c6ccc(Oc7ccc(F)cc7F)cc6)c(C(N)=O)c5N)C4)c3Cl)ccc2CC1C(=O)NC1CCCc2ccccc21)C(C)(C)C

> <Shape>
0.261

> <Color>
0.061

> <Negative vol penalty>
0.000

$$$$

  -OEChem-04052316093D

 92100  0     1  0  0  0  0  0999 V2000
  -27.5452  -20.7965   23.5521 C   0  0  0  0  0  0  0  0  0  0  0  0
  -27.1602  -22.1182   23.7528 C   0  0  0  0  0  0  0  0  0  0  0  0
  -24.0660   -9.5406   21.8370 C   0  0  0  0  0  0  0  0  0  0  0  0
  -22.0466  -10.5607   20.9893 C   0  0  0  0  0  0  0  0  0  0  0  0
  -28.3492  -20.4636   22.4628 C   0  0  0  0  0  0  0  0  0  0  0  0
  -27.5801  -23.1080   22.8649 C   0  0  0  0  0  0  0  0  0  0  0  0
  -23.8411  -26.2679   21.5685 C   0  0  0  0  0  0  0  0  0  0  0  0
  -23.4764   -8.2814   21.7261 C   0  0  0  0  0  0  0  0  0  0  0  0
  -21.4570   -9.3015   20.8784 C   0  0  0  0  0  0  0  0  0  0  0  0
  -23.4919  -27.2534   22.4907 C   0  0  0  0  0  0  0  0  0  0  0  0
  -21.2653   -6.4051   23.4625 C   0  0  0  0  0  0  0  0  0  0  0  0
  -21.4150   -5.5237   24.5332 C   0  0  0  0  0  0  0  0  0  0  0  0
  -24.7864  -28.8660   21.2485 C   0  0  0  0  0  0  0  0  0  0  0  0
  -18.6173  -28.5946   23.5919 C   0  0  0  0  0  0  0  0  0  0  0  0
  -22.5244   -3.9454   23.0787 C   0  0  0  0  0  0  0  0  0  0  0  0
  -23.3510  -10.6803   21.4687 C   0  0  0  0  0  0  0  0  0  0  0  0
  -24.7117  -12.6575   20.6045 C   0  0  0  0  0  0  0  0  0  0  0  0
  -28.7712  -21.4483   21.5557 C   0  0  0  0  0  0  0  0  0  0  0  0
  -24.6759  -26.5720   20.4836 C   0  0  0  0  0  0  0  0  0  0  0  0
  -28.3916  -22.7882   21.7632 C   0  0  0  0  0  0  0  0  0  0  0  0
  -25.1427  -27.8831   20.3125 C   0  0  0  0  0  0  0  0  0  0  0  0
  -19.1871  -28.9701   22.3754 C   0  0  0  0  0  0  0  0  0  0  0  0
  -19.7016  -27.9987   21.5168 C   0  0  0  0  0  0  0  0  0  0  0  0
  -19.0765  -26.2760   23.0912 C   0  0  0  0  0  0  0  0  0  0  0  0
  -22.1720   -8.1618   21.2468 C   0  0  0  0  0  0  0  0  0  0  0  0
  -23.9669  -28.5521   22.3325 C   0  0  0  0  0  0  0  0  0  0  0  0
  -21.7451   -6.0567   22.1999 C   0  0  0  0  0  0  0  0  0  0  0  0
  -22.0445   -4.2939   24.3413 C   0  0  0  0  0  0  0  0  0  0  0  0
  -22.3746   -4.8268   22.0081 C   0  0  0  0  0  0  0  0  0  0  0  0
  -18.5620  -27.2475   23.9498 C   0  0  0  0  0  0  0  0  0  0  0  0
  -19.6463  -26.6516   21.8747 C   0  0  0  0  0  0  0  0  0  0  0  0
  -23.9593  -11.9814   21.5836 C   0  0  0  0  0  0  0  0  0  0  0  0
  -25.0610  -13.8452   21.1993 C   0  0  0  0  0  0  0  0  0  0  0  0
  -25.0633  -12.2486   19.2760 C   0  0  0  0  0  0  0  0  0  0  0  0
  -27.5409  -25.5940   19.5145 C   0  0  0  0  0  0  0  0  0  0  0  0
  -26.8599  -27.4261   16.9257 C   0  0  0  0  0  0  0  0  0  0  0  0
  -25.1015  -30.0357   15.6048 C   0  0  0  0  0  0  0  0  0  0  0  0
  -23.0692  -17.8039   24.6052 C   0  0  0  0  0  0  0  0  0  0  0  0
  -29.6786  -21.0477   20.4195 C   0  0  0  0  0  0  0  0  0  0  0  0
  -25.0216  -25.5037   19.4828 C   0  0  0  0  0  0  0  0  0  0  0  0
  -26.0251  -28.2658   19.1536 C   0  0  0  0  0  0  0  0  0  0  0  0
  -29.7713  -22.0972   19.3149 C   0  0  0  0  0  0  0  0  0  0  0  0
  -25.3991  -15.4599   25.8497 C   0  0  0  0  0  0  0  0  0  0  0  0
  -29.9847  -23.4842   19.9129 C   0  0  0  0  0  0  0  0  0  0  0  0
  -25.3369  -14.3729   24.7775 C   0  0  0  0  0  0  0  0  0  0  0  0
  -24.0179  -16.0384   26.1623 C   0  0  0  0  0  0  0  0  0  0  0  0
  -23.2263  -15.4363   23.8965 C   0  0  0  0  0  0  0  0  0  0  0  0
  -28.8063  -23.8863   20.8081 C   0  0  1  0  0  0  0  0  0  0  0  0
  -26.2959  -25.8073   18.7008 C   0  0  1  0  0  0  0  0  0  0  0  0
  -24.6086  -14.8806   23.5210 C   0  0  2  0  0  0  0  0  0  0  0  0
  -20.3087  -28.4250   20.2159 C   0  0  0  0  0  0  0  0  0  0  0  0
  -24.7845  -31.3184   13.4714 C   0  0  0  0  0  0  0  0  0  0  0  0
  -29.5201  -28.8472   17.3878 C   0  0  0  0  0  0  0  0  0  0  0  0
  -28.7244  -30.6787   15.8776 C   0  0  0  0  0  0  0  0  0  0  0  0
  -28.9985  -28.3635   14.9902 C   0  0  0  0  0  0  0  0  0  0  0  0
  -22.2775  -18.3043   26.9564 C   0  0  0  0  0  0  0  0  0  0  0  0
  -22.2349  -29.3140   15.4608 C   0  0  0  0  0  0  0  0  0  0  0  0
  -19.0144  -24.8301   23.4809 C   0  0  0  0  0  0  0  0  0  0  0  0
  -19.2331  -30.4261   22.0163 C   0  0  0  0  0  0  0  0  0  0  0  0
  -20.3533  -24.2514   23.9643 C   0  0  0  0  0  0  0  0  0  0  0  0
  -20.2743  -22.7559   24.2870 C   0  0  0  0  0  0  0  0  0  0  0  0
  -21.6327  -22.2138   24.7390 C   0  0  0  0  0  0  0  0  0  0  0  0
  -21.5629  -20.7106   25.0238 C   0  0  0  0  0  0  0  0  0  0  0  0
  -22.5203  -31.6146   23.5793 C   0  0  0  0  0  0  0  0  0  0  0  0
  -22.9147  -20.1258   25.4195 C   0  0  0  0  0  0  0  0  0  0  0  0
  -21.1275  -31.0041   23.5381 C   0  0  0  0  0  0  0  0  0  0  0  0
  -23.5472  -30.8558   22.7477 C   0  0  0  0  0  0  0  0  0  1  0  0
  -27.0772  -28.8727   16.5527 C   0  0  1  0  0  0  0  0  0  0  0  0
  -24.2927  -30.1608   14.3263 C   0  0  2  0  0  0  0  0  0  0  0  0
  -28.5650  -29.1832   16.2251 C   0  0  0  0  0  0  0  0  0  0  0  0
  -23.8375  -12.6813   22.7146 N   0  0  0  0  0  0  0  0  0  0  0  0
  -24.5180  -13.8096   22.4500 N   0  0  0  0  0  0  0  0  0  0  0  0
  -26.3404  -27.1846   18.2054 N   0  0  0  0  0  0  0  0  0  0  0  0
  -23.3388  -16.4667   24.9318 N   0  0  0  0  0  0  0  0  0  0  0  0
  -25.7765  -14.9061   20.7694 N   0  0  0  0  0  0  0  0  0  0  0  0
  -24.6223  -10.9977   18.8233 N   0  0  0  0  0  0  0  0  0  0  0  0
  -27.6808  -24.3088   20.0024 N   0  0  0  0  0  0  0  0  0  0  0  0
  -26.1530  -29.1557   15.4598 N   0  0  0  0  0  0  0  0  0  0  0  0
  -22.8485  -18.6926   25.6681 N   0  0  0  0  0  0  0  0  0  0  0  0
  -22.8544  -30.3887   14.6434 N   0  3  0  0  0  0  0  0  0  0  0  0
  -20.5918  -31.0190   22.1567 N   0  3  0  0  0  0  0  0  0  0  0  0
  -25.7621  -12.9641   18.5189 O   0  0  0  0  0  0  0  0  0  0  0  0
  -28.3179  -26.5260   19.6857 O   0  0  0  0  0  0  0  0  0  0  0  0
  -27.1341  -26.5432   16.1090 O   0  0  0  0  0  0  0  0  0  0  0  0
  -24.8299  -30.6592   16.6285 O   0  0  0  0  0  0  0  0  0  0  0  0
  -23.0199  -18.1830   23.4280 O   0  0  0  0  0  0  0  0  0  0  0  0
  -21.5964   -6.9331   21.1382 O   0  0  0  0  0  0  0  0  0  0  0  0
  -23.6281  -29.5158   23.2315 O   0  0  0  0  0  0  0  0  0  1  0  0
  -22.1895   -3.4482   25.3699 F   0  0  0  0  0  0  0  0  0  0  0  0
  -22.8387   -4.4870   20.7977 F   0  0  0  0  0  0  0  0  0  0  0  0
  -17.8478  -26.8277   25.4653 Cl  0  0  0  0  0  0  0  0  0  0  0  0
  -20.2864  -25.4464   20.8057 Cl  0  0  0  0  0  0  0  0  0  0  0  0
  1  2  1  0  0  0  0
  1  5  2  0  0  0  0
  2  6  2  0  0  0  0
  3  8  2  0  0  0  0
  3 16  1  0  0  0  0
  4  9  1  0  0  0  0
  4 16  2  0  0  0  0
  5 18  1  0  0  0  0
  6 20  1  0  0  0  0
  7 10  2  0  0  0  0
  7 19  1  0  0  0  0
  8 25  1  0  0  0  0
  9 25  2  0  0  0  0
 10 26  1  0  0  0  0
 11 12  2  0  0  0  0
 11 27  1  0  0  0  0
 12 28  1  0  0  0  0
 13 21  1  0  0  0  0
 13 26  2  0  0  0  0
 14 22  1  0  0  0  0
 14 30  2  0  0  0  0
 15 28  2  0  0  0  0
 15 29  1  0  0  0  0
 16 32  1  0  0  0  0
 17 32  1  0  0  0  0
 17 33  2  0  0  0  0
 17 34  1  0  0  0  0
 18 20  2  0  0  0  0
 18 39  1  0  0  0  0
 19 21  2  0  0  0  0
 19 40  1  0  0  0  0
 20 48  1  0  0  0  0
 21 41  1  0  0  0  0
 22 23  2  0  0  0  0
 22 59  1  0  0  0  0
 23 31  1  0  0  0  0
 23 51  1  0  0  0  0
 24 30  1  0  0  0  0
 24 31  2  0  0  0  0
 24 58  1  0  0  0  0
 25 87  1  0  0  0  0
 26 88  1  0  0  0  0
 27 29  2  0  0  0  0
 27 87  1  0  0  0  0
 28 89  1  0  0  0  0
 29 90  1  0  0  0  0
 30 91  1  0  0  0  0
 31 92  1  0  0  0  0
 32 71  2  0  0  0  0
 33 72  1  0  0  0  0
 33 75  1  0  0  0  0
 34 76  1  0  0  0  0
 34 82  2  0  0  0  0
 35 49  1  0  0  0  0
 35 77  1  0  0  0  0
 35 83  2  0  0  0  0
 36 68  1  0  0  0  0
 36 73  1  0  0  0  0
 36 84  2  0  0  0  0
 37 69  1  0  0  0  0
 37 78  1  0  0  0  0
 37 85  2  0  0  0  0
 38 74  1  0  0  0  0
 38 79  1  0  0  0  0
 38 86  2  0  0  0  0
 39 42  1  0  0  0  0
 40 49  1  0  0  0  0
 41 73  1  0  0  0  0
 42 44  1  0  0  0  0
 43 45  1  0  0  0  0
 43 46  1  0  0  0  0
 44 48  1  0  0  0  0
 45 50  1  0  0  0  0
 46 74  1  0  0  0  0
 47 50  1  0  0  0  0
 47 74  1  0  0  0  0
 48 77  1  0  0  0  0
 49 73  1  0  0  0  0
 50 72  1  0  0  0  0
 52 69  1  0  0  0  0
 53 70  1  0  0  0  0
 54 70  1  0  0  0  0
 55 70  1  0  0  0  0
 56 79  1  0  0  0  0
 57 80  1  0  0  0  0
 58 60  1  0  0  0  0
 59 81  1  0  0  0  0
 60 61  1  0  0  0  0
 61 62  1  0  0  0  0
 62 63  1  0  0  0  0
 63 65  1  0  0  0  0
 64 66  1  0  0  0  0
 64 67  1  0  0  0  0
 65 79  1  0  0  0  0
 66 81  1  0  0  0  0
 67 88  1  0  0  0  0
 68 70  1  0  0  0  0
 68 78  1  0  0  0  0
 69 80  1  0  0  0  0
 71 72  1  0  0  0  0
M  CHG  2  80   1  81   1
M  ISO  4  38 100  67 101  79 100  88 101
M  END
> <Batch ID>
0020

> <Smiles>
CNC(C)C(=O)NC(C(=O)N1Cc2cc([101O:1][101CH2:1]CCNCc3cc(Cl)c(CCCCCC[100N:0](C)[100C:0](=O)N4CCCC(n5nc(-c6ccc(Oc7ccc(F)cc7F)cc6)c(C(N)=O)c5N)C4)c(Cl)c3C)ccc2CC1C(=O)NC1CCCc2ccccc21)C(C)(C)C

> <Shape>
0.226

> <Color>
0.133

> <Negative vol penalty>
0.000

$$$$

  -OEChem-04052316093D

 84 92  0     1  0  0  0  0  0999 V2000
  -27.0048  -18.3013   24.9049 C   0  0  0  0  0  0  0  0  0  0  0  0
  -27.0238  -19.6758   24.6910 C   0  0  0  0  0  0  0  0  0  0  0  0
  -29.5146  -17.3458   19.0955 C   0  0  0  0  0  0  0  0  0  0  0  0
  -28.2817  -18.0038   21.0663 C   0  0  0  0  0  0  0  0  0  0  0  0
  -25.8723  -17.5604   24.5694 C   0  0  0  0  0  0  0  0  0  0  0  0
  -25.9107  -20.3101   24.1405 C   0  0  0  0  0  0  0  0  0  0  0  0
  -23.8661  -25.9366   25.4322 C   0  0  0  0  0  0  0  0  0  0  0  0
  -29.7255  -16.0830   19.6491 C   0  0  0  0  0  0  0  0  0  0  0  0
  -28.4926  -16.7410   21.6199 C   0  0  0  0  0  0  0  0  0  0  0  0
  -24.0231  -27.1626   24.7873 C   0  0  0  0  0  0  0  0  0  0  0  0
  -27.9755  -13.2192   20.0597 C   0  0  0  0  0  0  0  0  0  0  0  0
  -27.7778  -12.1098   19.2377 C   0  0  0  0  0  0  0  0  0  0  0  0
  -21.9042  -26.8442   23.6791 C   0  0  0  0  0  0  0  0  0  0  0  0
  -27.5312  -28.5869   20.5956 C   0  0  0  0  0  0  0  0  0  0  0  0
  -30.0802  -11.4558   19.5666 C   0  0  0  0  0  0  0  0  0  0  0  0
  -28.7927  -18.3063   19.8041 C   0  0  0  0  0  0  0  0  0  0  0  0
  -27.4965  -20.0155   18.4236 C   0  0  0  0  0  0  0  0  0  0  0  0
  -24.7412  -18.1874   24.0235 C   0  0  0  0  0  0  0  0  0  0  0  0
  -22.7302  -25.1488   25.1966 C   0  0  0  0  0  0  0  0  0  0  0  0
  -24.7626  -19.5767   23.7962 C   0  0  0  0  0  0  0  0  0  0  0  0
  -21.7340  -25.6097   24.3242 C   0  0  0  0  0  0  0  0  0  0  0  0
  -24.7874  -28.3395   20.1560 C   0  0  0  0  0  0  0  0  0  0  0  0
  -25.2938  -29.4798   20.7796 C   0  0  0  0  0  0  0  0  0  0  0  0
  -27.0249  -27.4466   19.9719 C   0  0  0  0  0  0  0  0  0  0  0  0
  -29.2146  -15.7806   20.9112 C   0  0  0  0  0  0  0  0  0  0  0  0
  -23.0434  -27.6153   23.9084 C   0  0  0  0  0  0  0  0  0  0  0  0
  -29.2256  -13.4470   20.6351 C   0  0  0  0  0  0  0  0  0  0  0  0
  -28.8301  -11.2281   18.9912 C   0  0  0  0  0  0  0  0  0  0  0  0
  -30.2779  -12.5652   20.3886 C   0  0  0  0  0  0  0  0  0  0  0  0
  -26.6656  -29.6035   20.9995 C   0  0  0  0  0  0  0  0  0  0  0  0
  -25.6530  -27.3229   19.7521 C   0  0  0  0  0  0  0  0  0  0  0  0
  -28.5749  -19.6111   19.2330 C   0  0  0  0  0  0  0  0  0  0  0  0
  -27.7530  -21.3357   18.1443 C   0  0  0  0  0  0  0  0  0  0  0  0
  -26.3640  -19.2651   17.9652 C   0  0  0  0  0  0  0  0  0  0  0  0
  -22.2203  -22.2507   23.9946 C   0  0  0  0  0  0  0  0  0  0  0  0
  -19.1617  -22.8386   24.9013 C   0  0  0  0  0  0  0  0  0  0  0  0
  -16.7477  -25.1374   25.6326 C   0  0  0  0  0  0  0  0  0  0  0  0
  -29.3203  -26.4358   19.7366 C   0  0  0  0  0  0  0  0  0  0  0  0
  -23.5579  -17.3377   23.6328 C   0  0  0  0  0  0  0  0  0  0  0  0
  -22.5632  -23.8409   25.9206 C   0  0  0  0  0  0  0  0  0  0  0  0
  -20.4862  -24.8112   24.0526 C   0  0  0  0  0  0  0  0  0  0  0  0
  -22.2808  -18.1414   23.4016 C   0  0  0  0  0  0  0  0  0  0  0  0
  -31.9045  -24.1226   18.9314 C   0  0  0  0  0  0  0  0  0  0  0  0
  -22.5688  -19.3640   22.5360 C   0  0  0  0  0  0  0  0  0  0  0  0
  -31.1799  -22.7759   18.8715 C   0  0  0  0  0  0  0  0  0  0  0  0
  -31.3418  -25.0210   20.0314 C   0  0  0  0  0  0  0  0  0  0  0  0
  -29.1633  -23.8755   19.9257 C   0  0  0  0  0  0  0  0  0  0  0  0
  -23.5655  -20.3046   23.2240 C   0  0  1  0  0  0  0  0  0  0  0  0
  -21.6093  -22.8837   25.2127 C   0  0  1  0  0  0  0  0  0  0  0  0
  -29.6520  -22.9612   18.7903 C   0  0  2  0  0  0  0  0  0  0  0  0
  -23.3112  -28.2242   19.9282 C   0  0  0  0  0  0  0  0  0  0  0  0
  -24.6333  -31.8772   20.4539 C   0  0  0  0  0  0  0  0  0  0  0  0
  -14.3364  -25.3160   26.3041 C   0  0  0  0  0  0  0  0  0  0  0  0
  -18.3196  -22.1760   22.0444 C   0  0  0  0  0  0  0  0  0  0  0  0
  -16.1164  -23.2683   22.5147 C   0  0  0  0  0  0  0  0  0  0  0  0
  -16.8124  -21.2572   23.8160 C   0  0  0  0  0  0  0  0  0  0  0  0
  -17.4339  -26.5090   28.1638 C   0  0  0  0  0  0  0  0  0  0  0  0
  -24.3685  -30.8338   22.7362 C   0  0  0  0  0  0  0  0  0  0  0  0
  -24.3813  -29.5507   23.5618 C   0  0  0  0  0  0  0  0  0  1  0  0
  -24.3414  -30.5794   21.2166 C   0  0  2  0  0  0  0  0  0  0  0  0
  -17.9558  -23.4702   24.2487 C   0  0  1  0  0  0  0  0  0  0  0  0
  -15.7745  -25.2417   26.7930 C   0  0  2  0  0  0  0  0  0  0  0  0
  -17.3254  -22.5573   23.1594 C   0  0  0  0  0  0  0  0  0  0  0  0
  -29.4513  -20.5946   19.4536 N   0  0  0  0  0  0  0  0  0  0  0  0
  -28.9240  -21.6301   18.7785 N   0  0  0  0  0  0  0  0  0  0  0  0
  -20.3719  -23.5361   24.7797 N   0  0  0  0  0  0  0  0  0  0  0  0
  -29.8904  -25.1540   19.8881 N   0  0  0  0  0  0  0  0  0  0  0  0
  -27.0889  -22.2617   17.4205 N   0  0  0  0  0  0  0  0  0  0  0  0
  -26.2554  -17.9205   18.3452 N   0  0  0  0  0  0  0  0  0  0  0  0
  -27.9351  -26.4354   19.5761 N   0  0  0  0  0  0  0  0  0  0  0  0
  -22.9034  -21.0776   24.2528 N   0  0  0  0  0  0  0  0  0  0  0  0
  -17.0447  -23.8250   25.3315 N   0  0  0  0  0  0  0  0  0  0  0  0
  -16.0600  -26.4612   27.6005 N   0  3  0  0  0  0  0  0  0  0  0  0
  -25.4834  -19.7674   17.2265 O   0  0  0  0  0  0  0  0  0  0  0  0
  -22.0809  -22.7861   22.9011 O   0  0  0  0  0  0  0  0  0  0  0  0
  -19.0332  -21.7695   25.5031 O   0  0  0  0  0  0  0  0  0  0  0  0
  -17.1964  -26.1216   25.0491 O   0  0  0  0  0  0  0  0  0  0  0  0
  -30.0131  -27.4564   19.7210 O   0  0  0  0  0  0  0  0  0  0  0  0
  -29.4200  -14.5484   21.4516 O   0  0  0  0  0  0  0  0  0  0  0  0
  -23.1945  -28.8114   23.2771 O   0  0  0  0  0  0  0  0  0  1  0  0
  -28.6397  -10.1619   18.2030 F   0  0  0  0  0  0  0  0  0  0  0  0
  -31.4808  -12.7781   20.9396 F   0  0  0  0  0  0  0  0  0  0  0  0
  -27.3319  -30.9961   21.7729 Cl  0  0  0  0  0  0  0  0  0  0  0  0
  -25.0216  -25.9054   18.9771 Cl  0  0  0  0  0  0  0  0  0  0  0  0
  1  2  1  0  0  0  0
  1  5  2  0  0  0  0
  2  6  2  0  0  0  0
  3  8  2  0  0  0  0
  3 16  1  0  0  0  0
  4  9  1  0  0  0  0
  4 16  2  0  0  0  0
  5 18  1  0  0  0  0
  6 20  1  0  0  0  0
  7 10  2  0  0  0  0
  7 19  1  0  0  0  0
  8 25  1  0  0  0  0
  9 25  2  0  0  0  0
 10 26  1  0  0  0  0
 11 12  2  0  0  0  0
 11 27  1  0  0  0  0
 12 28  1  0  0  0  0
 13 21  1  0  0  0  0
 13 26  2  0  0  0  0
 14 24  1  0  0  0  0
 14 30  2  0  0  0  0
 15 28  2  0  0  0  0
 15 29  1  0  0  0  0
 16 32  1  0  0  0  0
 17 32  1  0  0  0  0
 17 33  2  0  0  0  0
 17 34  1  0  0  0  0
 18 20  2  0  0  0  0
 18 39  1  0  0  0  0
 19 21  2  0  0  0  0
 19 40  1  0  0  0  0
 20 48  1  0  0  0  0
 21 41  1  0  0  0  0
 22 23  2  0  0  0  0
 22 31  1  0  0  0  0
 22 51  1  0  0  0  0
 23 30  1  0  0  0  0
 23 60  1  0  0  0  0
 24 31  2  0  0  0  0
 24 70  1  0  0  0  0
 25 79  1  0  0  0  0
 26 80  1  0  0  0  0
 27 29  2  0  0  0  0
 27 79  1  0  0  0  0
 28 81  1  0  0  0  0
 29 82  1  0  0  0  0
 30 83  1  0  0  0  0
 31 84  1  0  0  0  0
 32 64  2  0  0  0  0
 33 65  1  0  0  0  0
 33 68  1  0  0  0  0
 34 69  1  0  0  0  0
 34 74  2  0  0  0  0
 35 49  1  0  0  0  0
 35 71  1  0  0  0  0
 35 75  2  0  0  0  0
 36 61  1  0  0  0  0
 36 66  1  0  0  0  0
 36 76  2  0  0  0  0
 37 62  1  0  0  0  0
 37 72  1  0  0  0  0
 37 77  2  0  0  0  0
 38 67  1  0  0  0  0
 38 70  1  0  0  0  0
 38 78  2  0  0  0  0
 39 42  1  0  0  0  0
 40 49  1  0  0  0  0
 41 66  1  0  0  0  0
 42 44  1  0  0  0  0
 43 45  1  0  0  0  0
 43 46  1  0  0  0  0
 44 48  1  0  0  0  0
 45 50  1  0  0  0  0
 46 67  1  0  0  0  0
 47 50  1  0  0  0  0
 47 67  1  0  0  0  0
 48 71  1  0  0  0  0
 49 66  1  0  0  0  0
 50 65  1  0  0  0  0
 52 60  1  0  0  0  0
 53 62  1  0  0  0  0
 54 63  1  0  0  0  0
 55 63  1  0  0  0  0
 56 63  1  0  0  0  0
 57 73  1  0  0  0  0
 58 59  1  0  0  0  0
 58 60  1  0  0  0  0
 59 80  1  0  0  0  0
 61 63  1  0  0  0  0
 61 72  1  0  0  0  0
 62 73  1  0  0  0  0
 64 65  1  0  0  0  0
M  CHG  1  73   1
M  ISO  4  38 100  59 101  70 100  80 101
M  END
> <Batch ID>
0020

> <Smiles>
CNC(C)C(=O)NC(C(=O)N1Cc2cc([101O:1][101CH2:1]CC(C)c3c(Cl)cc([100NH:0][100C:0](=O)N4CCCC(n5nc(-c6ccc(Oc7ccc(F)cc7F)cc6)c(C(N)=O)c5N)C4)c(Cl)c3C)ccc2CC1C(=O)NC1CCCc2ccccc21)C(C)(C)C

> <Shape>
0.207

> <Color>
0.067

> <Negative vol penalty>
0.000

$$$$

  -OEChem-04052316093D

 92100  0     1  0  0  0  0  0999 V2000
  -13.6455  -25.8391   28.4899 C   0  0  0  0  0  0  0  0  0  0  0  0
  -14.7269  -25.3330   27.7758 C   0  0  0  0  0  0  0  0  0  0  0  0
  -23.0632   -9.8095   20.5030 C   0  0  0  0  0  0  0  0  0  0  0  0
  -23.7610  -10.2654   22.7706 C   0  0  0  0  0  0  0  0  0  0  0  0
  -13.2177  -27.1478   28.2705 C   0  0  0  0  0  0  0  0  0  0  0  0
  -15.3805  -26.1352   26.8411 C   0  0  0  0  0  0  0  0  0  0  0  0
  -21.3600  -26.1205   25.5178 C   0  0  0  0  0  0  0  0  0  0  0  0
  -22.3022   -8.7310   20.9539 C   0  0  0  0  0  0  0  0  0  0  0  0
  -22.9999   -9.1869   23.2216 C   0  0  0  0  0  0  0  0  0  0  0  0
  -22.0924  -25.5234   24.4927 C   0  0  0  0  0  0  0  0  0  0  0  0
  -20.4611   -5.6372   21.4658 C   0  0  0  0  0  0  0  0  0  0  0  0
  -20.5401   -4.4419   20.7512 C   0  0  0  0  0  0  0  0  0  0  0  0
  -22.0056  -27.5828   23.2394 C   0  0  0  0  0  0  0  0  0  0  0  0
  -22.9129   -4.3346   21.1930 C   0  0  0  0  0  0  0  0  0  0  0  0
  -23.7927  -10.5766   21.4113 C   0  0  0  0  0  0  0  0  0  0  0  0
  -24.1610  -13.0273   20.8062 C   0  0  0  0  0  0  0  0  0  0  0  0
  -13.8725  -27.9695   27.3396 C   0  0  0  0  0  0  0  0  0  0  0  0
  -20.9349  -27.4522   25.4065 C   0  0  0  0  0  0  0  0  0  0  0  0
  -14.9603  -27.4557   26.6081 C   0  0  0  0  0  0  0  0  0  0  0  0
  -21.2702  -28.1952   24.2656 C   0  0  0  0  0  0  0  0  0  0  0  0
  -29.6778  -17.9944   23.2811 C   0  0  0  0  0  0  0  0  0  0  0  0
  -29.9211  -18.0733   21.9099 C   0  0  0  0  0  0  0  0  0  0  0  0
  -28.5184  -20.0358   21.7740 C   0  0  0  0  0  0  0  0  0  0  0  0
  -22.2705   -8.4198   22.3132 C   0  0  0  0  0  0  0  0  0  0  0  0
  -22.4128  -26.2536   23.3520 C   0  0  0  0  0  0  0  0  0  0  0  0
  -21.6080   -6.1813   22.0439 C   0  0  0  0  0  0  0  0  0  0  0  0
  -21.7660   -3.7906   20.6148 C   0  0  0  0  0  0  0  0  0  0  0  0
  -22.8339   -5.5300   21.9075 C   0  0  0  0  0  0  0  0  0  0  0  0
  -28.2750  -19.9567   23.1452 C   0  0  0  0  0  0  0  0  0  0  0  0
  -28.8547  -18.9360   23.8987 C   0  0  0  0  0  0  0  0  0  0  0  0
  -29.3415  -19.0940   21.1563 C   0  0  0  0  0  0  0  0  0  0  0  0
  -24.5794  -11.6905   20.9460 C   0  0  0  0  0  0  0  0  0  0  0  0
  -25.2695  -13.6864   20.3335 C   0  0  0  0  0  0  0  0  0  0  0  0
  -22.8845  -13.6204   21.0793 C   0  0  0  0  0  0  0  0  0  0  0  0
  -18.1091  -28.9056   25.3291 C   0  0  0  0  0  0  0  0  0  0  0  0
  -19.9258  -31.5921   25.3978 C   0  0  0  0  0  0  0  0  0  0  0  0
  -22.9365  -33.0706   24.7680 C   0  0  0  0  0  0  0  0  0  0  0  0
  -30.7554  -14.7018   20.4725 C   0  0  0  0  0  0  0  0  0  0  0  0
  -13.3442  -29.3622   27.1026 C   0  0  0  0  0  0  0  0  0  0  0  0
  -20.1686  -28.0898   26.5328 C   0  0  0  0  0  0  0  0  0  0  0  0
  -20.8550  -29.6342   24.1062 C   0  0  0  0  0  0  0  0  0  0  0  0
  -14.3262  -30.2688   26.3650 C   0  0  0  0  0  0  0  0  0  0  0  0
  -29.6605  -11.8980   18.5707 C   0  0  0  0  0  0  0  0  0  0  0  0
  -14.9235  -29.5432   25.1635 C   0  0  0  0  0  0  0  0  0  0  0  0
  -28.2092  -11.7008   19.0122 C   0  0  0  0  0  0  0  0  0  0  0  0
  -30.5469  -12.3477   19.7300 C   0  0  0  0  0  0  0  0  0  0  0  0
  -28.6153  -13.3449   20.8913 C   0  0  0  0  0  0  0  0  0  0  0  0
  -15.7107  -28.3030   25.6035 C   0  0  1  0  0  0  0  0  0  0  0  0
  -19.3457  -29.2952   26.0885 C   0  0  1  0  0  0  0  0  0  0  0  0
  -27.6717  -12.9453   19.7440 C   0  0  2  0  0  0  0  0  0  0  0  0
  -30.3054  -16.8932   24.0790 C   0  0  0  0  0  0  0  0  0  0  0  0
  -32.1698  -22.2669   21.2927 C   0  0  0  0  0  0  0  0  0  0  0  0
  -26.3476  -21.1381   21.0919 C   0  0  0  0  0  0  0  0  0  0  0  0
  -24.1068  -35.2870   24.8912 C   0  0  0  0  0  0  0  0  0  0  0  0
  -18.4246  -32.5204   22.9089 C   0  0  0  0  0  0  0  0  0  0  0  0
  -20.2293  -34.2155   22.5377 C   0  0  0  0  0  0  0  0  0  0  0  0
  -18.8380  -34.3102   24.6060 C   0  0  0  0  0  0  0  0  0  0  0  0
  -24.9563  -32.0295   26.6641 C   0  0  0  0  0  0  0  0  0  0  0  0
  -30.8078  -17.0537   21.2631 C   0  0  0  0  0  0  0  0  0  0  0  0
  -30.7427  -21.9912   21.7376 C   0  0  0  0  0  0  0  0  0  0  0  0
  -26.2342  -23.5703   22.0634 C   0  0  0  0  0  0  0  0  0  0  0  0
  -25.1973  -24.6368   21.7189 C   0  0  0  0  0  0  0  0  0  0  0  0
  -29.7459  -22.7941   20.9170 C   0  0  0  0  0  0  0  0  0  0  0  0
  -27.3954  -23.5996   21.0809 C   0  0  0  0  0  0  0  0  0  0  0  0
  -24.0495  -24.6487   22.7185 C   0  0  0  0  0  0  0  0  0  1  0  0
  -27.8710  -21.1569   20.9943 C   0  0  1  0  0  0  0  0  0  0  0  0
  -20.5629  -32.4788   24.3553 C   0  0  1  0  0  0  0  0  0  0  0  0
  -23.8073  -33.9825   25.6132 C   0  0  2  0  0  0  0  0  0  0  0  0
  -19.5200  -33.3536   23.6038 C   0  0  0  0  0  0  0  0  0  0  0  0
  -25.8542  -11.5093   20.5907 N   0  0  0  0  0  0  0  0  0  0  0  0
  -26.2463  -12.7410   20.2229 N   0  0  0  0  0  0  0  0  0  0  0  0
  -20.1019  -30.2111   25.2320 N   0  0  0  0  0  0  0  0  0  0  0  0
  -29.9822  -13.5327   20.3803 N   0  0  0  0  0  0  0  0  0  0  0  0
  -25.4941  -14.9765   20.0058 N   0  0  0  0  0  0  0  0  0  0  0  0
  -21.8555  -12.7993   21.5602 N   0  0  0  0  0  0  0  0  0  0  0  0
  -17.0039  -28.6852   26.1287 N   0  0  0  0  0  0  0  0  0  0  0  0
  -21.5968  -33.2424   25.0455 N   0  0  0  0  0  0  0  0  0  0  0  0
  -30.1424  -15.7806   21.0979 N   0  0  0  0  0  0  0  0  0  0  0  0
  -25.1006  -33.3142   25.9321 N   0  3  0  0  0  0  0  0  0  0  0  0
  -28.3518  -22.5207   21.4270 N   0  3  1  0  0  0  0  0  0  0  0  0
  -22.6583  -14.8390   20.8865 O   0  0  0  0  0  0  0  0  0  0  0  0
  -18.1539  -28.8134   24.1080 O   0  0  0  0  0  0  0  0  0  0  0  0
  -19.3011  -32.1062   26.3290 O   0  0  0  0  0  0  0  0  0  0  0  0
  -23.3982  -32.2870   23.9413 O   0  0  0  0  0  0  0  0  0  0  0  0
  -31.9047  -14.7801   20.0255 O   0  0  0  0  0  0  0  0  0  0  0  0
  -21.5278   -7.3676   22.7537 O   0  0  0  0  0  0  0  0  0  0  0  0
  -23.1270  -25.6731   22.3496 O   0  0  0  0  0  0  0  0  0  1  0  0
  -21.8414   -2.6419   19.9299 F   0  0  0  0  0  0  0  0  0  0  0  0
  -23.9390   -6.0472   22.4617 F   0  0  0  0  0  0  0  0  0  0  0  0
  -27.4813  -20.8653   23.7331 F   0  0  0  0  0  0  0  0  0  0  0  0
  -28.5311  -18.8667   25.5943 Cl  0  0  0  0  0  0  0  0  0  0  0  0
  -29.6417  -19.1955   19.4530 Cl  0  0  0  0  0  0  0  0  0  0  0  0
  1  2  1  0  0  0  0
  1  5  2  0  0  0  0
  2  6  2  0  0  0  0
  3  8  2  0  0  0  0
  3 15  1  0  0  0  0
  4  9  1  0  0  0  0
  4 15  2  0  0  0  0
  5 17  1  0  0  0  0
  6 19  1  0  0  0  0
  7 10  2  0  0  0  0
  7 18  1  0  0  0  0
  8 24  1  0  0  0  0
  9 24  2  0  0  0  0
 10 25  1  0  0  0  0
 11 12  2  0  0  0  0
 11 26  1  0  0  0  0
 12 27  1  0  0  0  0
 13 20  1  0  0  0  0
 13 25  2  0  0  0  0
 14 27  2  0  0  0  0
 14 28  1  0  0  0  0
 15 32  1  0  0  0  0
 16 32  1  0  0  0  0
 16 33  2  0  0  0  0
 16 34  1  0  0  0  0
 17 19  2  0  0  0  0
 17 39  1  0  0  0  0
 18 20  2  0  0  0  0
 18 40  1  0  0  0  0
 19 48  1  0  0  0  0
 20 41  1  0  0  0  0
 21 22  2  0  0  0  0
 21 30  1  0  0  0  0
 21 51  1  0  0  0  0
 22 31  1  0  0  0  0
 22 59  1  0  0  0  0
 23 29  1  0  0  0  0
 23 31  2  0  0  0  0
 23 66  1  0  0  0  0
 24 86  1  0  0  0  0
 25 87  1  0  0  0  0
 26 28  2  0  0  0  0
 26 86  1  0  0  0  0
 27 88  1  0  0  0  0
 28 89  1  0  0  0  0
 29 30  2  0  0  0  0
 29 90  1  0  0  0  0
 30 91  1  0  0  0  0
 31 92  1  0  0  0  0
 32 70  2  0  0  0  0
 33 71  1  0  0  0  0
 33 74  1  0  0  0  0
 34 75  1  0  0  0  0
 34 81  2  0  0  0  0
 35 49  1  0  0  0  0
 35 76  1  0  0  0  0
 35 82  2  0  0  0  0
 36 67  1  0  0  0  0
 36 72  1  0  0  0  0
 36 83  2  0  0  0  0
 37 68  1  0  0  0  0
 37 77  1  0  0  0  0
 37 84  2  0  0  0  0
 38 73  1  0  0  0  0
 38 78  1  0  0  0  0
 38 85  2  0  0  0  0
 39 42  1  0  0  0  0
 40 49  1  0  0  0  0
 41 72  1  0  0  0  0
 42 44  1  0  0  0  0
 43 45  1  0  0  0  0
 43 46  1  0  0  0  0
 44 48  1  0  0  0  0
 45 50  1  0  0  0  0
 46 73  1  0  0  0  0
 47 50  1  0  0  0  0
 47 73  1  0  0  0  0
 48 76  1  0  0  0  0
 49 72  1  0  0  0  0
 50 71  1  0  0  0  0
 52 60  1  0  0  0  0
 53 66  1  0  0  0  0
 54 68  1  0  0  0  0
 55 69  1  0  0  0  0
 56 69  1  0  0  0  0
 57 69  1  0  0  0  0
 58 79  1  0  0  0  0
 59 78  1  0  0  0  0
 60 63  1  0  0  0  0
 61 62  1  0  0  0  0
 61 64  1  0  0  0  0
 62 65  1  0  0  0  0
 63 80  1  0  0  0  0
 64 80  1  0  0  0  0
 65 87  1  0  0  0  0
 66 80  1  0  0  0  0
 67 69  1  0  0  0  0
 67 77  1  0  0  0  0
 68 79  1  0  0  0  0
 70 71  1  0  0  0  0
M  CHG  2  79   1  80   1
M  ISO  4  38 100  65 101  78 100  87 101
M  END
> <Batch ID>
0020

> <Smiles>
CCCN(CCC[101CH2:1][101O:1]c1ccc2c(c1)CN(C(=O)C(NC(=O)C(C)NC)C(C)(C)C)C(C(=O)NC1CCCc3ccccc31)C2)C(C)c1c(F)c(Cl)c(C)c(C[100NH:0][100C:0](=O)N2CCCC(n3nc(-c4ccc(Oc5ccc(F)cc5F)cc4)c(C(N)=O)c3N)C2)c1Cl

> <Shape>
0.250

> <Color>
0.183

> <Negative vol penalty>
0.000

$$$$

  -OEChem-04052316093D

 92100  0     1  0  0  0  0  0999 V2000
  -24.1768  -28.6417   27.4325 C   0  0  0  0  0  0  0  0  0  0  0  0
  -23.5607  -27.4262   27.1524 C   0  0  0  0  0  0  0  0  0  0  0  0
  -27.5287  -25.8280   17.8460 C   0  0  0  0  0  0  0  0  0  0  0  0
  -27.3440  -25.6144   20.2455 C   0  0  0  0  0  0  0  0  0  0  0  0
  -25.3854  -28.9671   26.8183 C   0  0  0  0  0  0  0  0  0  0  0  0
  -24.1523  -26.5359   26.2570 C   0  0  0  0  0  0  0  0  0  0  0  0
  -24.8953  -19.5170   25.0326 C   0  0  0  0  0  0  0  0  0  0  0  0
  -26.4605  -26.7250   17.8436 C   0  0  0  0  0  0  0  0  0  0  0  0
  -26.2758  -26.5114   20.2431 C   0  0  0  0  0  0  0  0  0  0  0  0
  -24.7232  -18.5765   24.0178 C   0  0  0  0  0  0  0  0  0  0  0  0
  -23.7328  -29.0222   20.9118 C   0  0  0  0  0  0  0  0  0  0  0  0
  -23.7257  -30.0259   21.8804 C   0  0  0  0  0  0  0  0  0  0  0  0
  -26.8518  -19.2112   23.0769 C   0  0  0  0  0  0  0  0  0  0  0  0
  -25.8261  -30.8626   21.0289 C   0  0  0  0  0  0  0  0  0  0  0  0
  -24.1029  -13.6221   20.4992 C   0  0  0  0  0  0  0  0  0  0  0  0
  -27.9704  -25.2727   19.0469 C   0  0  0  0  0  0  0  0  0  0  0  0
  -26.3687  -13.4499   19.6787 C   0  0  0  0  0  0  0  0  0  0  0  0
  -30.4410  -24.6519   19.1827 C   0  0  0  0  0  0  0  0  0  0  0  0
  -25.9970  -28.0763   25.9222 C   0  0  0  0  0  0  0  0  0  0  0  0
  -26.0439  -20.3206   25.0710 C   0  0  0  0  0  0  0  0  0  0  0  0
  -25.3695  -26.8504   25.6292 C   0  0  0  0  0  0  0  0  0  0  0  0
  -27.0373  -20.1593   24.0946 C   0  0  0  0  0  0  0  0  0  0  0  0
  -25.3059  -15.6131   19.8466 C   0  0  0  0  0  0  0  0  0  0  0  0
  -25.8341  -27.0667   19.0422 C   0  0  0  0  0  0  0  0  0  0  0  0
  -25.7002  -18.4255   23.0382 C   0  0  0  0  0  0  0  0  0  0  0  0
  -24.7866  -28.9387   20.0018 C   0  0  0  0  0  0  0  0  0  0  0  0
  -24.7723  -30.9461   21.9390 C   0  0  0  0  0  0  0  0  0  0  0  0
  -25.2124  -12.8437   20.1697 C   0  0  0  0  0  0  0  0  0  0  0  0
  -24.1496  -15.0068   20.3376 C   0  0  0  0  0  0  0  0  0  0  0  0
  -25.8332  -29.8589   20.0603 C   0  0  0  0  0  0  0  0  0  0  0  0
  -26.4155  -14.8347   19.5171 C   0  0  0  0  0  0  0  0  0  0  0  0
  -29.0734  -24.3456   19.0500 C   0  0  0  0  0  0  0  0  0  0  0  0
  -31.0730  -23.4339   19.1238 C   0  0  0  0  0  0  0  0  0  0  0  0
  -28.0698  -12.5836   18.0993 C   0  0  0  0  0  0  0  0  0  0  0  0
  -27.5261  -12.6373   19.3364 C   0  0  0  0  0  0  0  0  0  0  0  0
  -31.0827  -25.9238   19.3449 C   0  0  0  0  0  0  0  0  0  0  0  0
  -26.6024  -23.4449   24.8971 C   0  0  0  0  0  0  0  0  0  0  0  0
  -29.6476  -22.5422   25.5564 C   0  0  0  0  0  0  0  0  0  0  0  0
  -32.0238  -20.0937   25.4834 C   0  0  0  0  0  0  0  0  0  0  0  0
  -30.3276  -18.0653   20.8659 C   0  0  0  0  0  0  0  0  0  0  0  0
  -27.2796  -28.4924   25.2467 C   0  0  0  0  0  0  0  0  0  0  0  0
  -26.2269  -21.3118   26.1874 C   0  0  0  0  0  0  0  0  0  0  0  0
  -28.2981  -20.9833   24.1025 C   0  0  0  0  0  0  0  0  0  0  0  0
  -28.0294  -27.3327   24.5962 C   0  0  0  0  0  0  0  0  0  0  0  0
  -29.8679  -18.9622   17.3901 C   0  0  0  0  0  0  0  0  0  0  0  0
  -27.0717  -26.4657   23.7851 C   0  0  0  0  0  0  0  0  0  0  0  0
  -29.7493  -20.4846   17.4819 C   0  0  0  0  0  0  0  0  0  0  0  0
  -29.1885  -18.2824   18.5751 C   0  0  0  0  0  0  0  0  0  0  0  0
  -29.5583  -20.2573   20.0022 C   0  0  0  0  0  0  0  0  0  0  0  0
  -25.9927  -25.8476   24.6824 C   0  0  1  0  0  0  0  0  0  0  0  0
  -27.1982  -22.4346   25.8363 C   0  0  1  0  0  0  0  0  0  0  0  0
  -30.2453  -21.0041   18.8444 C   0  0  2  0  0  0  0  0  0  0  0  0
  -28.2669   -8.0952   20.9534 C   0  0  0  0  0  0  0  0  0  0  0  0
  -34.4290  -19.6652   26.0567 C   0  0  0  0  0  0  0  0  0  0  0  0
  -30.5129  -24.1009   23.0802 C   0  0  0  0  0  0  0  0  0  0  0  0
  -32.6974  -22.8804   23.1609 C   0  0  0  0  0  0  0  0  0  0  0  0
  -32.0252  -24.3572   25.0555 C   0  0  0  0  0  0  0  0  0  0  0  0
  -31.3054  -17.9716   27.4172 C   0  0  0  0  0  0  0  0  0  0  0  0
  -25.3550  -17.1114   19.6709 C   0  0  0  0  0  0  0  0  0  0  0  0
  -28.3105   -9.5843   21.2552 C   0  0  0  0  0  0  0  0  0  0  0  0
  -31.0434  -14.3547   21.1233 C   0  0  0  0  0  0  0  0  0  0  0  0
  -29.6274  -13.8115   20.8984 C   0  0  0  0  0  0  0  0  0  0  0  0
  -31.0430  -15.8049   21.5980 C   0  0  0  0  0  0  0  0  0  0  0  0
  -28.0952  -10.4075   19.9952 C   0  0  0  0  0  0  0  0  0  0  0  0
  -29.6012  -12.3425   20.4927 C   0  0  0  0  0  0  0  0  0  0  0  0
  -26.1352  -17.8006   20.7851 C   0  0  0  0  0  0  0  0  0  1  0  0
  -30.8471  -22.1439   24.7308 C   0  0  1  0  0  0  0  0  0  0  0  0
  -32.9898  -19.5957   26.5432 C   0  0  2  0  0  0  0  0  0  0  0  0
  -31.4961  -23.3563   24.0053 C   0  0  0  0  0  0  0  0  0  0  0  0
  -28.8490  -23.0357   18.9166 N   0  0  0  0  0  0  0  0  0  0  0  0
  -30.0840  -22.5081   18.9651 N   0  0  0  0  0  0  0  0  0  0  0  0
  -28.4278  -21.9434   25.2110 N   0  0  0  0  0  0  0  0  0  0  0  0
  -29.7186  -18.8083   19.8409 N   0  0  0  0  0  0  0  0  0  0  0  0
  -32.3726  -23.0752   19.1926 N   0  0  0  0  0  0  0  0  0  0  0  0
  -30.2840  -27.0748   19.3852 N   0  0  0  0  0  0  0  0  0  0  0  0
  -26.5301  -24.7229   25.4177 N   0  0  0  0  0  0  0  0  0  0  0  0
  -31.7477  -21.4362   25.6344 N   0  0  0  0  0  0  0  0  0  0  0  0
  -30.4346  -16.6988   20.6379 N   0  0  0  0  0  0  0  0  0  0  0  0
  -32.6824  -18.1820   26.9010 N   0  3  0  0  0  0  0  0  0  0  0  0
  -28.1925  -11.8614   20.3370 N   0  3  1  0  0  0  0  0  0  0  0  0
  -32.3287  -26.0376   19.4345 O   0  0  0  0  0  0  0  0  0  0  0  0
  -26.2369  -23.0915   23.7822 O   0  0  0  0  0  0  0  0  0  0  0  0
  -29.7891  -23.3493   26.4785 O   0  0  0  0  0  0  0  0  0  0  0  0
  -31.5632  -19.3656   24.6069 O   0  0  0  0  0  0  0  0  0  0  0  0
  -30.7500  -18.5824   21.9058 O   0  0  0  0  0  0  0  0  0  0  0  0
  -24.7919  -27.9422   19.0402 O   0  0  0  0  0  0  0  0  0  0  0  0
  -25.5344  -17.5088   22.0462 O   0  0  0  0  0  0  0  0  0  1  0  0
  -24.7645  -31.9108   22.8682 F   0  0  0  0  0  0  0  0  0  0  0  0
  -25.1517  -11.5136   20.3310 F   0  0  0  0  0  0  0  0  0  0  0  0
  -23.0784  -15.7464   20.6570 F   0  0  0  0  0  0  0  0  0  0  0  0
  -26.8478  -29.7845   19.1879 F   0  0  0  0  0  0  0  0  0  0  0  0
  -27.5252  -15.4240   19.0453 F   0  0  0  0  0  0  0  0  0  0  0  0
  1  2  1  0  0  0  0
  1  5  2  0  0  0  0
  2  6  2  0  0  0  0
  3  8  2  0  0  0  0
  3 16  1  0  0  0  0
  4  9  1  0  0  0  0
  4 16  2  0  0  0  0
  5 19  1  0  0  0  0
  6 21  1  0  0  0  0
  7 10  2  0  0  0  0
  7 20  1  0  0  0  0
  8 24  1  0  0  0  0
  9 24  2  0  0  0  0
 10 25  1  0  0  0  0
 11 12  2  0  0  0  0
 11 26  1  0  0  0  0
 12 27  1  0  0  0  0
 13 22  1  0  0  0  0
 13 25  2  0  0  0  0
 14 27  2  0  0  0  0
 14 30  1  0  0  0  0
 15 28  2  0  0  0  0
 15 29  1  0  0  0  0
 16 32  1  0  0  0  0
 17 28  1  0  0  0  0
 17 31  2  0  0  0  0
 17 35  1  0  0  0  0
 18 32  1  0  0  0  0
 18 33  2  0  0  0  0
 18 36  1  0  0  0  0
 19 21  2  0  0  0  0
 19 41  1  0  0  0  0
 20 22  2  0  0  0  0
 20 42  1  0  0  0  0
 21 50  1  0  0  0  0
 22 43  1  0  0  0  0
 23 29  2  0  0  0  0
 23 31  1  0  0  0  0
 23 59  1  0  0  0  0
 24 86  1  0  0  0  0
 25 87  1  0  0  0  0
 26 30  2  0  0  0  0
 26 86  1  0  0  0  0
 27 88  1  0  0  0  0
 28 89  1  0  0  0  0
 29 90  1  0  0  0  0
 30 91  1  0  0  0  0
 31 92  1  0  0  0  0
 32 70  2  0  0  0  0
 33 71  1  0  0  0  0
 33 74  1  0  0  0  0
 34 35  2  0  0  0  0
 35 80  1  0  0  0  0
 36 75  1  0  0  0  0
 36 81  2  0  0  0  0
 37 51  1  0  0  0  0
 37 76  1  0  0  0  0
 37 82  2  0  0  0  0
 38 67  1  0  0  0  0
 38 72  1  0  0  0  0
 38 83  2  0  0  0  0
 39 68  1  0  0  0  0
 39 77  1  0  0  0  0
 39 84  2  0  0  0  0
 40 73  1  0  0  0  0
 40 78  1  0  0  0  0
 40 85  2  0  0  0  0
 41 44  1  0  0  0  0
 42 51  1  0  0  0  0
 43 72  1  0  0  0  0
 44 46  1  0  0  0  0
 45 47  1  0  0  0  0
 45 48  1  0  0  0  0
 46 50  1  0  0  0  0
 47 52  1  0  0  0  0
 48 73  1  0  0  0  0
 49 52  1  0  0  0  0
 49 73  1  0  0  0  0
 50 76  1  0  0  0  0
 51 72  1  0  0  0  0
 52 71  1  0  0  0  0
 53 60  1  0  0  0  0
 54 68  1  0  0  0  0
 55 69  1  0  0  0  0
 56 69  1  0  0  0  0
 57 69  1  0  0  0  0
 58 79  1  0  0  0  0
 59 66  1  0  0  0  0
 60 64  1  0  0  0  0
 61 62  1  0  0  0  0
 61 63  1  0  0  0  0
 62 65  1  0  0  0  0
 63 78  1  0  0  0  0
 64 80  1  0  0  0  0
 65 80  1  0  0  0  0
 66 87  1  0  0  0  0
 67 69  1  0  0  0  0
 67 77  1  0  0  0  0
 68 79  1  0  0  0  0
 70 71  1  0  0  0  0
M  CHG  2  79   1  80   1
M  ISO  4  40 100  66 101  78 100  87 101
M  END
> <Batch ID>
0020

> <Smiles>
C=C(c1c(F)cc(F)c(C[101CH2:1][101O:1]c2ccc3c(c2)CN(C(=O)C(NC(=O)C(C)NC)C(C)(C)C)C(C(=O)NC2CCCc4ccccc42)C3)c1F)N(CCC)CCCC[100NH:0][100C:0](=O)N1CCCC(n2nc(-c3ccc(Oc4ccc(F)cc4F)cc3)c(C(N)=O)c2N)C1

> <Shape>
0.229

> <Color>
0.038

> <Negative vol penalty>
0.000

$$$$

  -OEChem-04052316093D

 85 93  0     1  0  0  0  0  0999 V2000
  -27.6692  -28.8781   19.3305 C   0  0  0  0  0  0  0  0  0  0  0  0
  -27.3655  -27.7663   20.1097 C   0  0  0  0  0  0  0  0  0  0  0  0
  -22.4504  -13.4235   21.1351 C   0  0  0  0  0  0  0  0  0  0  0  0
  -23.0923  -15.5560   22.0717 C   0  0  0  0  0  0  0  0  0  0  0  0
  -26.8327  -29.9932   19.3530 C   0  0  0  0  0  0  0  0  0  0  0  0
  -26.2256  -27.7695   20.9128 C   0  0  0  0  0  0  0  0  0  0  0  0
  -23.6129  -23.4431   20.5949 C   0  0  0  0  0  0  0  0  0  0  0  0
  -21.4151  -13.3267   22.0649 C   0  0  0  0  0  0  0  0  0  0  0  0
  -22.0570  -15.4593   23.0015 C   0  0  0  0  0  0  0  0  0  0  0  0
  -24.1030  -22.3495   21.3074 C   0  0  0  0  0  0  0  0  0  0  0  0
  -18.3792  -12.6877   23.9595 C   0  0  0  0  0  0  0  0  0  0  0  0
  -17.1290  -12.2764   23.4976 C   0  0  0  0  0  0  0  0  0  0  0  0
  -22.4861  -22.7668   23.0483 C   0  0  0  0  0  0  0  0  0  0  0  0
  -17.0535  -14.1777   22.0088 C   0  0  0  0  0  0  0  0  0  0  0  0
  -23.2890  -14.5381   21.1386 C   0  0  0  0  0  0  0  0  0  0  0  0
  -24.3001  -15.2190   18.8976 C   0  0  0  0  0  0  0  0  0  0  0  0
  -25.6767  -30.0064   20.1494 C   0  0  0  0  0  0  0  0  0  0  0  0
  -22.5612  -24.2146   21.1097 C   0  0  0  0  0  0  0  0  0  0  0  0
  -25.3735  -28.8865   20.9470 C   0  0  0  0  0  0  0  0  0  0  0  0
  -21.9828  -23.8681   22.3392 C   0  0  0  0  0  0  0  0  0  0  0  0
  -21.2184  -14.3446   22.9981 C   0  0  0  0  0  0  0  0  0  0  0  0
  -23.5415  -22.0130   22.5356 C   0  0  0  0  0  0  0  0  0  0  0  0
  -18.9666  -13.8441   23.4462 C   0  0  0  0  0  0  0  0  0  0  0  0
  -16.4662  -13.0213   22.5222 C   0  0  0  0  0  0  0  0  0  0  0  0
  -18.3038  -14.5891   22.4709 C   0  0  0  0  0  0  0  0  0  0  0  0
  -24.3590  -14.6384   20.1788 C   0  0  0  0  0  0  0  0  0  0  0  0
  -25.5669  -15.0613   18.3907 C   0  0  0  0  0  0  0  0  0  0  0  0
  -23.1989  -15.8450   18.2260 C   0  0  0  0  0  0  0  0  0  0  0  0
  -22.2280  -27.2512   21.9884 C   0  0  0  0  0  0  0  0  0  0  0  0
  -19.1174  -26.4015   22.3408 C   0  0  0  0  0  0  0  0  0  0  0  0
  -27.9507  -19.0142   25.5161 C   0  0  0  0  0  0  0  0  0  0  0  0
  -16.8333  -23.9208   22.8662 C   0  0  0  0  0  0  0  0  0  0  0  0
  -30.9033  -14.4911   20.7591 C   0  0  0  0  0  0  0  0  0  0  0  0
  -24.8284  -31.2530   20.1770 C   0  0  0  0  0  0  0  0  0  0  0  0
  -22.0262  -25.3751   20.3163 C   0  0  0  0  0  0  0  0  0  0  0  0
  -20.8384  -24.6520   22.9261 C   0  0  0  0  0  0  0  0  0  0  0  0
  -23.4389  -31.0312   20.7689 C   0  0  0  0  0  0  0  0  0  0  0  0
  -29.3881  -12.2034   18.6556 C   0  0  0  0  0  0  0  0  0  0  0  0
  -23.5319  -30.2305   22.0639 C   0  0  0  0  0  0  0  0  0  0  0  0
  -27.9162  -12.6154   18.6715 C   0  0  0  0  0  0  0  0  0  0  0  0
  -31.5144  -17.6836   22.5371 C   0  0  0  0  0  0  0  0  0  0  0  0
  -29.5089  -16.5501   23.5580 C   0  0  0  0  0  0  0  0  0  0  0  0
  -29.9966  -12.2983   20.0501 C   0  0  0  0  0  0  0  0  0  0  0  0
  -31.9797  -16.3338   21.9980 C   0  0  0  0  0  0  0  0  0  0  0  0
  -30.0145  -15.2218   23.0048 C   0  0  0  0  0  0  0  0  0  0  0  0
  -28.4034  -14.0761   20.6957 C   0  0  0  0  0  0  0  0  0  0  0  0
  -24.1328  -28.8423   21.8123 C   0  0  1  0  0  0  0  0  0  0  0  0
  -21.2932  -26.3998   21.1766 C   0  0  1  0  0  0  0  0  0  0  0  0
  -30.6668  -17.5263   23.8061 C   0  0  0  0  0  0  0  0  0  0  0  0
  -27.7385  -14.0061   19.3063 C   0  0  2  0  0  0  0  0  0  0  0  0
  -14.3686  -23.5388   23.1435 C   0  0  0  0  0  0  0  0  0  0  0  0
  -31.2807  -19.8238   24.6370 C   0  0  0  0  0  0  0  0  0  0  0  0
  -19.2692  -27.5004   25.1832 C   0  0  0  0  0  0  0  0  0  0  0  0
  -17.1569  -26.2601   25.7011 C   0  0  0  0  0  0  0  0  0  0  0  0
  -17.1562  -28.0502   23.9637 C   0  0  0  0  0  0  0  0  0  0  0  0
  -29.9888  -18.0825   26.6086 C   0  0  0  0  0  0  0  0  0  0  0  0
  -16.7184  -22.1720   20.4814 C   0  0  0  0  0  0  0  0  0  0  0  0
  -27.3975  -19.6223   24.2338 C   0  0  0  0  0  0  0  0  0  0  0  0
  -25.9155  -19.9746   24.3425 C   0  0  0  0  0  0  0  0  0  0  0  0
  -25.3968  -20.6231   23.0671 C   0  0  0  0  0  0  0  0  0  1  0  0
  -18.2830  -25.8420   23.4677 C   0  0  1  0  0  0  0  0  0  0  0  0
  -15.5303  -23.5858   22.1631 C   0  0  2  0  0  0  0  0  0  0  0  0
  -30.1439  -18.8794   24.2824 C   0  0  2  0  0  0  0  0  0  0  0  0
  -17.9892  -26.8994   24.5690 C   0  0  0  0  0  0  0  0  0  0  0  0
  -25.5674  -14.1482   20.4677 N   0  0  0  0  0  0  0  0  0  0  0  0
  -26.2796  -14.4204   19.3610 N   0  0  0  0  0  0  0  0  0  0  0  0
  -20.3547  -25.7817   22.1154 N   0  0  0  0  0  0  0  0  0  0  0  0
  -29.8032  -13.6316   20.6199 N   0  0  0  0  0  0  0  0  0  0  0  0
  -30.8574  -15.4140   21.8172 N   0  0  0  0  0  0  0  0  0  0  0  0
  -26.1294  -15.4095   17.2140 N   0  0  0  0  0  0  0  0  0  0  0  0
  -21.9676  -15.9227   18.8909 N   0  0  0  0  0  0  0  0  0  0  0  0
  -23.1423  -27.9603   21.2330 N   0  0  0  0  0  0  0  0  0  0  0  0
  -17.0892  -25.2756   22.8494 N   0  0  0  0  0  0  0  0  0  0  0  0
  -29.2950  -18.6726   25.4789 N   0  0  0  0  0  0  0  0  0  0  0  0
  -15.6310  -22.2602   21.4897 N   0  3  0  0  0  0  0  0  0  0  0  0
  -23.2993  -16.3066   17.0639 O   0  0  0  0  0  0  0  0  0  0  0  0
  -22.1263  -27.2650   23.2095 O   0  0  0  0  0  0  0  0  0  0  0  0
  -18.6840  -27.3487   21.6802 O   0  0  0  0  0  0  0  0  0  0  0  0
  -27.2207  -18.8535   26.4977 O   0  0  0  0  0  0  0  0  0  0  0  0
  -17.5505  -23.0664   23.3823 O   0  0  0  0  0  0  0  0  0  0  0  0
  -31.8669  -14.4424   19.9844 O   0  0  0  0  0  0  0  0  0  0  0  0
  -20.2082  -14.2507   23.9053 O   0  0  0  0  0  0  0  0  0  0  0  0
  -24.0219  -20.9386   23.2386 O   0  0  0  0  0  0  0  0  0  1  0  0
  -15.2663  -12.6254   22.0776 F   0  0  0  0  0  0  0  0  0  0  0  0
  -18.8635  -15.7002   21.9731 F   0  0  0  0  0  0  0  0  0  0  0  0
  1  2  1  0  0  0  0
  1  5  2  0  0  0  0
  2  6  2  0  0  0  0
  3  8  2  0  0  0  0
  3 15  1  0  0  0  0
  4  9  1  0  0  0  0
  4 15  2  0  0  0  0
  5 17  1  0  0  0  0
  6 19  1  0  0  0  0
  7 10  2  0  0  0  0
  7 18  1  0  0  0  0
  8 21  1  0  0  0  0
  9 21  2  0  0  0  0
 10 22  1  0  0  0  0
 11 12  2  0  0  0  0
 11 23  1  0  0  0  0
 12 24  1  0  0  0  0
 13 20  1  0  0  0  0
 13 22  2  0  0  0  0
 14 24  2  0  0  0  0
 14 25  1  0  0  0  0
 15 26  1  0  0  0  0
 16 26  1  0  0  0  0
 16 27  2  0  0  0  0
 16 28  1  0  0  0  0
 17 19  2  0  0  0  0
 17 34  1  0  0  0  0
 18 20  2  0  0  0  0
 18 35  1  0  0  0  0
 19 47  1  0  0  0  0
 20 36  1  0  0  0  0
 21 82  1  0  0  0  0
 22 83  1  0  0  0  0
 23 25  2  0  0  0  0
 23 82  1  0  0  0  0
 24 84  1  0  0  0  0
 25 85  1  0  0  0  0
 26 65  2  0  0  0  0
 27 66  1  0  0  0  0
 27 70  1  0  0  0  0
 28 71  1  0  0  0  0
 28 76  2  0  0  0  0
 29 48  1  0  0  0  0
 29 72  1  0  0  0  0
 29 77  2  0  0  0  0
 30 61  1  0  0  0  0
 30 67  1  0  0  0  0
 30 78  2  0  0  0  0
 31 58  1  0  0  0  0
 31 74  1  0  0  0  0
 31 79  2  0  0  0  0
 32 62  1  0  0  0  0
 32 73  1  0  0  0  0
 32 80  2  0  0  0  0
 33 68  1  0  0  0  0
 33 69  1  0  0  0  0
 33 81  2  0  0  0  0
 34 37  1  0  0  0  0
 35 48  1  0  0  0  0
 36 67  1  0  0  0  0
 37 39  1  0  0  0  0
 38 40  1  0  0  0  0
 38 43  1  0  0  0  0
 39 47  1  0  0  0  0
 40 50  1  0  0  0  0
 41 44  1  0  0  0  0
 41 49  1  0  0  0  0
 42 45  1  0  0  0  0
 42 49  1  0  0  0  0
 43 68  1  0  0  0  0
 44 69  1  0  0  0  0
 45 69  1  0  0  0  0
 46 50  1  0  0  0  0
 46 68  1  0  0  0  0
 47 72  1  0  0  0  0
 48 67  1  0  0  0  0
 49 63  1  0  0  0  0
 50 66  1  0  0  0  0
 51 62  1  0  0  0  0
 52 63  1  0  0  0  0
 53 64  1  0  0  0  0
 54 64  1  0  0  0  0
 55 64  1  0  0  0  0
 56 74  1  0  0  0  0
 57 75  1  0  0  0  0
 58 59  1  0  0  0  0
 59 60  1  0  0  0  0
 60 83  1  0  0  0  0
 61 64  1  0  0  0  0
 61 73  1  0  0  0  0
 62 75  1  0  0  0  0
 63 74  1  0  0  0  0
 65 66  1  0  0  0  0
M  CHG  1  75   1
M  ISO  4  33 100  60 101  69 100  83 101
M  END
> <Batch ID>
0020

> <Smiles>
CNC(C)C(=O)NC(C(=O)N1Cc2cc([101O:1][101CH2:1]CCC(=O)N(C)C(C)C3CC[100N:0]([100C:0](=O)N4CCCC(n5nc(-c6ccc(Oc7ccc(F)cc7F)cc6)c(C(N)=O)c5N)C4)CC3)ccc2CC1C(=O)NC1CCCc2ccccc21)C(C)(C)C

> <Shape>
0.187

> <Color>
0.072

> <Negative vol penalty>
0.000

$$$$

  -OEChem-04052316093D

 85 93  0     1  0  0  0  0  0999 V2000
  -18.1167  -26.3363   21.8493 C   0  0  0  0  0  0  0  0  0  0  0  0
  -19.1122  -26.9232   22.6238 C   0  0  0  0  0  0  0  0  0  0  0  0
  -24.3857  -13.8251   20.7331 C   0  0  0  0  0  0  0  0  0  0  0  0
  -26.7676  -13.4236   20.6807 C   0  0  0  0  0  0  0  0  0  0  0  0
  -18.4620  -25.4829   20.8022 C   0  0  0  0  0  0  0  0  0  0  0  0
  -20.4537  -26.6562   22.3523 C   0  0  0  0  0  0  0  0  0  0  0  0
  -26.9161  -29.7389   22.5766 C   0  0  0  0  0  0  0  0  0  0  0  0
  -24.1533  -12.4894   20.4055 C   0  0  0  0  0  0  0  0  0  0  0  0
  -26.5352  -12.0879   20.3531 C   0  0  0  0  0  0  0  0  0  0  0  0
  -28.1986  -29.5168   23.0762 C   0  0  0  0  0  0  0  0  0  0  0  0
  -24.1391   -9.5021   21.9895 C   0  0  0  0  0  0  0  0  0  0  0  0
  -23.1557   -8.8205   22.7063 C   0  0  0  0  0  0  0  0  0  0  0  0
  -28.6788  -28.0890   21.1920 C   0  0  0  0  0  0  0  0  0  0  0  0
  -32.1571  -23.9525   21.5942 C   0  0  0  0  0  0  0  0  0  0  0  0
  -21.9422   -8.4161   20.6566 C   0  0  0  0  0  0  0  0  0  0  0  0
  -25.6928  -14.2923   20.8707 C   0  0  0  0  0  0  0  0  0  0  0  0
  -26.0549  -16.2228   22.4985 C   0  0  0  0  0  0  0  0  0  0  0  0
  -19.8086  -25.2128   20.5117 C   0  0  0  0  0  0  0  0  0  0  0  0
  -26.5009  -29.1280   21.3846 C   0  0  0  0  0  0  0  0  0  0  0  0
  -20.8172  -25.7973   21.3012 C   0  0  0  0  0  0  0  0  0  0  0  0
  -27.3913  -28.3070   20.6781 C   0  0  0  0  0  0  0  0  0  0  0  0
  -31.7498  -24.4349   22.8380 C   0  0  0  0  0  0  0  0  0  0  0  0
  -30.5687  -23.9677   23.4145 C   0  0  0  0  0  0  0  0  0  0  0  0
  -30.2022  -22.5358   21.5034 C   0  0  0  0  0  0  0  0  0  0  0  0
  -25.2280  -11.6207   20.2155 C   0  0  0  0  0  0  0  0  0  0  0  0
  -29.0792  -28.6895   22.3854 C   0  0  0  0  0  0  0  0  0  0  0  0
  -24.0241   -9.6409   20.6063 C   0  0  0  0  0  0  0  0  0  0  0  0
  -22.0572   -8.2774   22.0399 C   0  0  0  0  0  0  0  0  0  0  0  0
  -22.9256   -9.0978   19.9399 C   0  0  0  0  0  0  0  0  0  0  0  0
  -31.3833  -23.0030   20.9269 C   0  0  0  0  0  0  0  0  0  0  0  0
  -29.7948  -23.0182   22.7472 C   0  0  0  0  0  0  0  0  0  0  0  0
  -25.9336  -15.6721   21.2086 C   0  0  0  0  0  0  0  0  0  0  0  0
  -26.2765  -17.5608   22.2812 C   0  0  0  0  0  0  0  0  0  0  0  0
  -25.9747  -15.5821   23.7787 C   0  0  0  0  0  0  0  0  0  0  0  0
  -24.2191  -27.0583   20.6013 C   0  0  0  0  0  0  0  0  0  0  0  0
  -25.2338  -27.6781   17.5833 C   0  0  0  0  0  0  0  0  0  0  0  0
  -27.7497  -28.7299   15.5312 C   0  0  0  0  0  0  0  0  0  0  0  0
  -28.8292  -21.6970   19.5649 C   0  0  0  0  0  0  0  0  0  0  0  0
  -20.1316  -24.2465   19.3997 C   0  0  0  0  0  0  0  0  0  0  0  0
  -25.1232  -29.3990   20.8451 C   0  0  0  0  0  0  0  0  0  0  0  0
  -27.0012  -27.6437   19.3834 C   0  0  0  0  0  0  0  0  0  0  0  0
  -21.5860  -24.3105   18.9405 C   0  0  0  0  0  0  0  0  0  0  0  0
  -25.9198  -20.3139   18.0486 C   0  0  0  0  0  0  0  0  0  0  0  0
  -22.5254  -24.3192   20.1423 C   0  0  0  0  0  0  0  0  0  0  0  0
  -25.6740  -19.0283   18.8417 C   0  0  0  0  0  0  0  0  0  0  0  0
  -27.4107  -20.5843   17.8547 C   0  0  0  0  0  0  0  0  0  0  0  0
  -27.9619  -19.2963   19.8812 C   0  0  0  0  0  0  0  0  0  0  0  0
  -22.2842  -25.5517   21.0222 C   0  0  1  0  0  0  0  0  0  0  0  0
  -24.6318  -28.3157   19.8899 C   0  0  1  0  0  0  0  0  0  0  0  0
  -26.4758  -19.0161   20.1579 C   0  0  2  0  0  0  0  0  0  0  0  0
  -30.1511  -24.5012   24.7503 C   0  0  0  0  0  0  0  0  0  0  0  0
  -28.2941  -29.0925   13.1085 C   0  0  0  0  0  0  0  0  0  0  0  0
  -33.1465  -25.0255   24.9334 C   0  0  0  0  0  0  0  0  0  0  0  0
  -33.8745  -25.7507   22.6776 C   0  0  0  0  0  0  0  0  0  0  0  0
  -25.5586  -24.6675   17.2081 C   0  0  0  0  0  0  0  0  0  0  0  0
  -26.9644  -25.1408   15.1912 C   0  0  0  0  0  0  0  0  0  0  0  0
  -24.5774  -25.8637   15.2433 C   0  0  0  0  0  0  0  0  0  0  0  0
  -28.2107  -31.6234   15.9482 C   0  0  0  0  0  0  0  0  0  0  0  0
  -31.8584  -26.8297   23.7262 C   0  0  0  0  0  0  0  0  0  0  0  0
  -30.9333  -27.2118   22.5716 C   0  0  0  0  0  0  0  0  0  1  0  0
  -26.2744  -27.0875   16.6628 C   0  0  1  0  0  0  0  0  0  0  0  0
  -27.7654  -29.7261   14.3859 C   0  0  2  0  0  0  0  0  0  0  0  0
  -32.6232  -25.4832   23.5508 C   0  0  0  0  0  0  0  0  0  0  0  0
  -25.8507  -25.7007   16.1017 C   0  0  0  0  0  0  0  0  0  0  0  0
  -26.0668  -16.5857   20.2433 N   0  0  0  0  0  0  0  0  0  0  0  0
  -26.2742  -17.7239   20.9271 N   0  0  0  0  0  0  0  0  0  0  0  0
  -25.6414  -27.9346   18.9001 N   0  0  0  0  0  0  0  0  0  0  0  0
  -28.1048  -20.5617   19.1442 N   0  0  0  0  0  0  0  0  0  0  0  0
  -26.4712  -18.6019   23.1182 N   0  0  0  0  0  0  0  0  0  0  0  0
  -25.7420  -14.2007   23.8210 N   0  0  0  0  0  0  0  0  0  0  0  0
  -29.4198  -21.5709   20.8219 N   0  0  0  0  0  0  0  0  0  0  0  0
  -22.8897  -26.7238   20.4271 N   0  0  0  0  0  0  0  0  0  0  0  0
  -26.5311  -28.0936   15.6379 N   0  0  0  0  0  0  0  0  0  0  0  0
  -28.6298  -30.8917   14.7251 N   0  3  0  0  0  0  0  0  0  0  0  0
  -26.0890  -16.2187   24.8535 O   0  0  0  0  0  0  0  0  0  0  0  0
  -25.0459  -26.4367   21.2583 O   0  0  0  0  0  0  0  0  0  0  0  0
  -24.1032  -27.9102   17.1480 O   0  0  0  0  0  0  0  0  0  0  0  0
  -28.7224  -28.5330   16.2561 O   0  0  0  0  0  0  0  0  0  0  0  0
  -28.8963  -22.7168   18.8739 O   0  0  0  0  0  0  0  0  0  0  0  0
  -25.0017  -10.3172   19.8960 O   0  0  0  0  0  0  0  0  0  0  0  0
  -30.3314  -28.4705   22.8712 O   0  0  0  0  0  0  0  0  0  1  0  0
  -21.1137   -7.6215   22.7281 F   0  0  0  0  0  0  0  0  0  0  0  0
  -22.8102   -9.2268   18.6110 F   0  0  0  0  0  0  0  0  0  0  0  0
  -31.9305  -22.4365   19.3883 Cl  0  0  0  0  0  0  0  0  0  0  0  0
  -28.3265  -22.4424   23.4714 Cl  0  0  0  0  0  0  0  0  0  0  0  0
  1  2  1  0  0  0  0
  1  5  2  0  0  0  0
  2  6  2  0  0  0  0
  3  8  2  0  0  0  0
  3 16  1  0  0  0  0
  4  9  1  0  0  0  0
  4 16  2  0  0  0  0
  5 18  1  0  0  0  0
  6 20  1  0  0  0  0
  7 10  2  0  0  0  0
  7 19  1  0  0  0  0
  8 25  1  0  0  0  0
  9 25  2  0  0  0  0
 10 26  1  0  0  0  0
 11 12  2  0  0  0  0
 11 27  1  0  0  0  0
 12 28  1  0  0  0  0
 13 21  1  0  0  0  0
 13 26  2  0  0  0  0
 14 22  1  0  0  0  0
 14 30  2  0  0  0  0
 15 28  2  0  0  0  0
 15 29  1  0  0  0  0
 16 32  1  0  0  0  0
 17 32  1  0  0  0  0
 17 33  2  0  0  0  0
 17 34  1  0  0  0  0
 18 20  2  0  0  0  0
 18 39  1  0  0  0  0
 19 21  2  0  0  0  0
 19 40  1  0  0  0  0
 20 48  1  0  0  0  0
 21 41  1  0  0  0  0
 22 23  2  0  0  0  0
 22 63  1  0  0  0  0
 23 31  1  0  0  0  0
 23 51  1  0  0  0  0
 24 30  1  0  0  0  0
 24 31  2  0  0  0  0
 24 71  1  0  0  0  0
 25 80  1  0  0  0  0
 26 81  1  0  0  0  0
 27 29  2  0  0  0  0
 27 80  1  0  0  0  0
 28 82  1  0  0  0  0
 29 83  1  0  0  0  0
 30 84  1  0  0  0  0
 31 85  1  0  0  0  0
 32 65  2  0  0  0  0
 33 66  1  0  0  0  0
 33 69  1  0  0  0  0
 34 70  1  0  0  0  0
 34 75  2  0  0  0  0
 35 49  1  0  0  0  0
 35 72  1  0  0  0  0
 35 76  2  0  0  0  0
 36 61  1  0  0  0  0
 36 67  1  0  0  0  0
 36 77  2  0  0  0  0
 37 62  1  0  0  0  0
 37 73  1  0  0  0  0
 37 78  2  0  0  0  0
 38 68  1  0  0  0  0
 38 71  1  0  0  0  0
 38 79  2  0  0  0  0
 39 42  1  0  0  0  0
 40 49  1  0  0  0  0
 41 67  1  0  0  0  0
 42 44  1  0  0  0  0
 43 45  1  0  0  0  0
 43 46  1  0  0  0  0
 44 48  1  0  0  0  0
 45 50  1  0  0  0  0
 46 68  1  0  0  0  0
 47 50  1  0  0  0  0
 47 68  1  0  0  0  0
 48 72  1  0  0  0  0
 49 67  1  0  0  0  0
 50 66  1  0  0  0  0
 52 62  1  0  0  0  0
 53 63  1  0  0  0  0
 54 63  1  0  0  0  0
 55 64  1  0  0  0  0
 56 64  1  0  0  0  0
 57 64  1  0  0  0  0
 58 74  1  0  0  0  0
 59 60  1  0  0  0  0
 59 63  1  0  0  0  0
 60 81  1  0  0  0  0
 61 64  1  0  0  0  0
 61 73  1  0  0  0  0
 62 74  1  0  0  0  0
 65 66  1  0  0  0  0
M  CHG  1  74   1
M  ISO  4  38 100  60 101  71 100  81 101
M  END
> <Batch ID>
0020

> <Smiles>
CNC(C)C(=O)NC(C(=O)N1Cc2cc([101O:1][101CH2:1]CC(C)(C)c3cc(Cl)c([100NH:0][100C:0](=O)N4CCCC(n5nc(-c6ccc(Oc7ccc(F)cc7F)cc6)c(C(N)=O)c5N)C4)c(Cl)c3C)ccc2CC1C(=O)NC1CCCc2ccccc21)C(C)(C)C

> <Shape>
0.198

> <Color>
0.074

> <Negative vol penalty>
0.000

$$$$

  -OEChem-04052316093D

 84 92  0     1  0  0  0  0  0999 V2000
  -21.6983  -34.3159   20.8360 C   0  0  0  0  0  0  0  0  0  0  0  0
  -22.8329  -33.5124   20.7867 C   0  0  0  0  0  0  0  0  0  0  0  0
  -22.6466  -10.2331   20.4332 C   0  0  0  0  0  0  0  0  0  0  0  0
  -24.3383   -9.4630   21.9766 C   0  0  0  0  0  0  0  0  0  0  0  0
  -20.6093  -33.9351   21.6188 C   0  0  0  0  0  0  0  0  0  0  0  0
  -22.8796  -32.3281   21.5213 C   0  0  0  0  0  0  0  0  0  0  0  0
  -25.6517  -27.1080   19.9174 C   0  0  0  0  0  0  0  0  0  0  0  0
  -22.0814   -8.9580   20.4164 C   0  0  0  0  0  0  0  0  0  0  0  0
  -23.7731   -8.1879   21.9599 C   0  0  0  0  0  0  0  0  0  0  0  0
  -26.8872  -26.5590   20.2579 C   0  0  0  0  0  0  0  0  0  0  0  0
  -21.1346   -6.6160   23.3699 C   0  0  0  0  0  0  0  0  0  0  0  0
  -20.9699   -5.9657   24.5928 C   0  0  0  0  0  0  0  0  0  0  0  0
  -25.8237  -25.2515   21.9838 C   0  0  0  0  0  0  0  0  0  0  0  0
  -31.6818  -17.8645   24.0656 C   0  0  0  0  0  0  0  0  0  0  0  0
  -22.3965   -4.1710   23.8304 C   0  0  0  0  0  0  0  0  0  0  0  0
  -23.7751  -10.4856   21.2132 C   0  0  0  0  0  0  0  0  0  0  0  0
  -24.0452  -12.8608   22.1037 C   0  0  0  0  0  0  0  0  0  0  0  0
  -20.6389  -32.7407   22.3558 C   0  0  0  0  0  0  0  0  0  0  0  0
  -24.4926  -26.7404   20.6159 C   0  0  0  0  0  0  0  0  0  0  0  0
  -21.7905  -31.9316   22.3158 C   0  0  0  0  0  0  0  0  0  0  0  0
  -24.5744  -25.7954   21.6485 C   0  0  0  0  0  0  0  0  0  0  0  0
  -31.6275  -19.1894   23.6327 C   0  0  0  0  0  0  0  0  0  0  0  0
  -31.0228  -16.8680   23.3456 C   0  0  0  0  0  0  0  0  0  0  0  0
  -30.9140  -19.5178   22.4800 C   0  0  0  0  0  0  0  0  0  0  0  0
  -30.3093  -17.1964   22.1929 C   0  0  0  0  0  0  0  0  0  0  0  0
  -22.6446   -7.9354   21.1798 C   0  0  0  0  0  0  0  0  0  0  0  0
  -26.9738  -25.6328   21.2932 C   0  0  0  0  0  0  0  0  0  0  0  0
  -21.9301   -6.0439   22.3772 C   0  0  0  0  0  0  0  0  0  0  0  0
  -21.6009   -4.7432   24.8231 C   0  0  0  0  0  0  0  0  0  0  0  0
  -22.5611   -4.8214   22.6075 C   0  0  0  0  0  0  0  0  0  0  0  0
  -30.2549  -18.5213   21.7601 C   0  0  0  0  0  0  0  0  0  0  0  0
  -24.3598  -11.8024   21.2305 C   0  0  0  0  0  0  0  0  0  0  0  0
  -24.8707  -13.8862   21.7119 C   0  0  0  0  0  0  0  0  0  0  0  0
  -23.0920  -12.9124   23.1735 C   0  0  0  0  0  0  0  0  0  0  0  0
  -22.3706  -28.2836   22.4101 C   0  0  0  0  0  0  0  0  0  0  0  0
  -20.8353  -25.4265   22.3638 C   0  0  0  0  0  0  0  0  0  0  0  0
  -21.0273  -22.0401   21.9867 C   0  0  0  0  0  0  0  0  0  0  0  0
  -29.8625  -15.7943   20.1482 C   0  0  0  0  0  0  0  0  0  0  0  0
  -19.4559  -32.3944   23.2249 C   0  0  0  0  0  0  0  0  0  0  0  0
  -23.1634  -27.3217   20.2187 C   0  0  0  0  0  0  0  0  0  0  0  0
  -23.3566  -25.3521   22.4160 C   0  0  0  0  0  0  0  0  0  0  0  0
  -19.4392  -30.9369   23.6785 C   0  0  0  0  0  0  0  0  0  0  0  0
  -27.8043  -14.3710   17.6154 C   0  0  0  0  0  0  0  0  0  0  0  0
  -20.8154  -30.5205   24.1877 C   0  0  0  0  0  0  0  0  0  0  0  0
  -26.6988  -13.6629   18.4019 C   0  0  0  0  0  0  0  0  0  0  0  0
  -29.1563  -14.2677   18.3191 C   0  0  0  0  0  0  0  0  0  0  0  0
  -28.0564  -13.9984   20.5070 C   0  0  0  0  0  0  0  0  0  0  0  0
  -21.8694  -30.6272   23.0790 C   0  0  1  0  0  0  0  0  0  0  0  0
  -22.1268  -27.2611   21.3364 C   0  0  1  0  0  0  0  0  0  0  0  0
  -26.6635  -14.1309   19.8700 C   0  0  2  0  0  0  0  0  0  0  0  0
  -32.3442  -20.2355   24.4226 C   0  0  0  0  0  0  0  0  0  0  0  0
  -31.1018  -15.4580   23.8360 C   0  0  0  0  0  0  0  0  0  0  0  0
  -19.6120  -19.9686   22.0416 C   0  0  0  0  0  0  0  0  0  0  0  0
  -20.7768  -25.5502   25.4120 C   0  0  0  0  0  0  0  0  0  0  0  0
  -20.2431  -23.1041   25.4315 C   0  0  0  0  0  0  0  0  0  0  0  0
  -18.6669  -24.7143   24.3612 C   0  0  0  0  0  0  0  0  0  0  0  0
  -21.6483  -21.4011   19.1645 C   0  0  0  0  0  0  0  0  0  0  0  0
  -30.8698  -20.9564   22.0304 C   0  0  0  0  0  0  0  0  0  0  0  0
  -29.5431  -21.6603   22.3367 C   0  0  0  0  0  0  0  0  0  0  0  0
  -29.4891  -23.0933   21.8052 C   0  0  0  0  0  0  0  0  0  0  0  0
  -28.1740  -23.7728   22.1624 C   0  0  0  0  0  0  0  0  0  1  0  0
  -20.8612  -24.1850   23.2222 C   0  0  1  0  0  0  0  0  0  0  0  0
  -20.1953  -21.0689   21.1688 C   0  0  2  0  0  0  0  0  0  0  0  0
  -20.1604  -24.3980   24.5937 C   0  0  0  0  0  0  0  0  0  0  0  0
  -25.3109  -12.1256   20.3501 N   0  0  0  0  0  0  0  0  0  0  0  0
  -25.6009  -13.3987   20.6681 N   0  0  0  0  0  0  0  0  0  0  0  0
  -22.0808  -25.9538   21.9944 N   0  0  0  0  0  0  0  0  0  0  0  0
  -29.0470  -14.7321   19.7037 N   0  0  0  0  0  0  0  0  0  0  0  0
  -25.0359  -15.1482   22.1616 N   0  0  0  0  0  0  0  0  0  0  0  0
  -22.3261  -11.7697   23.4417 N   0  0  0  0  0  0  0  0  0  0  0  0
  -29.6472  -16.1707   21.4736 N   0  0  0  0  0  0  0  0  0  0  0  0
  -21.7657  -29.5033   22.1732 N   0  0  0  0  0  0  0  0  0  0  0  0
  -20.2809  -23.1179   22.4141 N   0  0  0  0  0  0  0  0  0  0  0  0
  -21.0308  -20.4355   20.1097 N   0  3  0  0  0  0  0  0  0  0  0  0
  -22.9129  -13.9467   23.8604 O   0  0  0  0  0  0  0  0  0  0  0  0
  -23.0554  -27.9875   23.3822 O   0  0  0  0  0  0  0  0  0  0  0  0
  -19.7499  -25.9066   22.0274 O   0  0  0  0  0  0  0  0  0  0  0  0
  -22.2191  -21.8588   22.2259 O   0  0  0  0  0  0  0  0  0  0  0  0
  -30.6716  -16.3484   19.3997 O   0  0  0  0  0  0  0  0  0  0  0  0
  -22.0932   -6.6911   21.1639 O   0  0  0  0  0  0  0  0  0  0  0  0
  -28.1786  -25.0959   21.6280 O   0  0  0  0  0  0  0  0  0  1  0  0
  -21.4440   -4.1196   25.9981 F   0  0  0  0  0  0  0  0  0  0  0  0
  -23.3275   -4.2673   21.6580 F   0  0  0  0  0  0  0  0  0  0  0  0
  -29.3682  -18.9369   20.3278 Cl  0  0  0  0  0  0  0  0  0  0  0  0
  1  2  1  0  0  0  0
  1  5  2  0  0  0  0
  2  6  2  0  0  0  0
  3  8  2  0  0  0  0
  3 16  1  0  0  0  0
  4  9  1  0  0  0  0
  4 16  2  0  0  0  0
  5 18  1  0  0  0  0
  6 20  1  0  0  0  0
  7 10  2  0  0  0  0
  7 19  1  0  0  0  0
  8 26  1  0  0  0  0
  9 26  2  0  0  0  0
 10 27  1  0  0  0  0
 11 12  2  0  0  0  0
 11 28  1  0  0  0  0
 12 29  1  0  0  0  0
 13 21  1  0  0  0  0
 13 27  2  0  0  0  0
 14 22  2  0  0  0  0
 14 23  1  0  0  0  0
 15 29  2  0  0  0  0
 15 30  1  0  0  0  0
 16 32  1  0  0  0  0
 17 32  1  0  0  0  0
 17 33  2  0  0  0  0
 17 34  1  0  0  0  0
 18 20  2  0  0  0  0
 18 39  1  0  0  0  0
 19 21  2  0  0  0  0
 19 40  1  0  0  0  0
 20 48  1  0  0  0  0
 21 41  1  0  0  0  0
 22 24  1  0  0  0  0
 22 51  1  0  0  0  0
 23 25  2  0  0  0  0
 23 52  1  0  0  0  0
 24 31  2  0  0  0  0
 24 58  1  0  0  0  0
 25 31  1  0  0  0  0
 25 71  1  0  0  0  0
 26 80  1  0  0  0  0
 27 81  1  0  0  0  0
 28 30  2  0  0  0  0
 28 80  1  0  0  0  0
 29 82  1  0  0  0  0
 30 83  1  0  0  0  0
 31 84  1  0  0  0  0
 32 65  2  0  0  0  0
 33 66  1  0  0  0  0
 33 69  1  0  0  0  0
 34 70  1  0  0  0  0
 34 75  2  0  0  0  0
 35 49  1  0  0  0  0
 35 72  1  0  0  0  0
 35 76  2  0  0  0  0
 36 62  1  0  0  0  0
 36 67  1  0  0  0  0
 36 77  2  0  0  0  0
 37 63  1  0  0  0  0
 37 73  1  0  0  0  0
 37 78  2  0  0  0  0
 38 68  1  0  0  0  0
 38 71  1  0  0  0  0
 38 79  2  0  0  0  0
 39 42  1  0  0  0  0
 40 49  1  0  0  0  0
 41 67  1  0  0  0  0
 42 44  1  0  0  0  0
 43 45  1  0  0  0  0
 43 46  1  0  0  0  0
 44 48  1  0  0  0  0
 45 50  1  0  0  0  0
 46 68  1  0  0  0  0
 47 50  1  0  0  0  0
 47 68  1  0  0  0  0
 48 72  1  0  0  0  0
 49 67  1  0  0  0  0
 50 66  1  0  0  0  0
 53 63  1  0  0  0  0
 54 64  1  0  0  0  0
 55 64  1  0  0  0  0
 56 64  1  0  0  0  0
 57 74  1  0  0  0  0
 58 59  1  0  0  0  0
 59 60  1  0  0  0  0
 60 61  1  0  0  0  0
 61 81  1  0  0  0  0
 62 64  1  0  0  0  0
 62 73  1  0  0  0  0
 63 74  1  0  0  0  0
 65 66  1  0  0  0  0
M  CHG  1  74   1
M  ISO  4  38 100  61 101  71 100  81 101
M  END
> <Batch ID>
0020

> <Smiles>
CNC(C)C(=O)NC(C(=O)N1Cc2cc([101O:1][101CH2:1]CCCc3c(C)cc(C)c([100NH:0][100C:0](=O)N4CCCC(n5nc(-c6ccc(Oc7ccc(F)cc7F)cc6)c(C(N)=O)c5N)C4)c3Cl)ccc2CC1C(=O)NC1CCCc2ccccc21)C(C)(C)C

> <Shape>
0.238

> <Color>
0.110

> <Negative vol penalty>
0.000

$$$$

  -OEChem-04052316093D

 86 94  0     1  0  0  0  0  0999 V2000
  -29.0906  -31.0960   26.7424 C   0  0  0  0  0  0  0  0  0  0  0  0
  -28.8503  -30.0233   25.8898 C   0  0  0  0  0  0  0  0  0  0  0  0
  -22.5537  -14.5620   19.8377 C   0  0  0  0  0  0  0  0  0  0  0  0
  -23.9559  -12.7781   20.6674 C   0  0  0  0  0  0  0  0  0  0  0  0
  -28.0335  -31.9037   27.1598 C   0  0  0  0  0  0  0  0  0  0  0  0
  -27.5525  -29.7569   25.4549 C   0  0  0  0  0  0  0  0  0  0  0  0
  -27.3326  -28.7553   20.4957 C   0  0  0  0  0  0  0  0  0  0  0  0
  -21.6860  -13.6217   19.2823 C   0  0  0  0  0  0  0  0  0  0  0  0
  -23.0882  -11.8377   20.1120 C   0  0  0  0  0  0  0  0  0  0  0  0
  -27.7237  -27.4816   20.0855 C   0  0  0  0  0  0  0  0  0  0  0  0
  -20.1029  -10.4496   20.8749 C   0  0  0  0  0  0  0  0  0  0  0  0
  -19.7480   -9.3536   21.6612 C   0  0  0  0  0  0  0  0  0  0  0  0
  -25.4076  -26.8221   19.9451 C   0  0  0  0  0  0  0  0  0  0  0  0
  -31.9065  -19.9620   19.0802 C   0  0  0  0  0  0  0  0  0  0  0  0
  -20.6955   -7.8636   20.0123 C   0  0  0  0  0  0  0  0  0  0  0  0
  -23.6887  -14.1402   20.5302 C   0  0  0  0  0  0  0  0  0  0  0  0
  -24.5254  -15.6647   22.3966 C   0  0  0  0  0  0  0  0  0  0  0  0
  -26.7235  -31.6529   26.7220 C   0  0  0  0  0  0  0  0  0  0  0  0
  -25.9740  -29.0693   20.6445 C   0  0  0  0  0  0  0  0  0  0  0  0
  -26.4767  -30.5612   25.8678 C   0  0  0  0  0  0  0  0  0  0  0  0
  -25.0017  -28.1013   20.3549 C   0  0  0  0  0  0  0  0  0  0  0  0
  -32.0664  -20.8720   20.1543 C   0  0  0  0  0  0  0  0  0  0  0  0
  -21.9532  -12.2596   19.4195 C   0  0  0  0  0  0  0  0  0  0  0  0
  -26.7613  -26.5138   19.8129 C   0  0  0  0  0  0  0  0  0  0  0  0
  -20.7541  -10.2526   19.6571 C   0  0  0  0  0  0  0  0  0  0  0  0
  -20.0443   -8.0606   21.2300 C   0  0  0  0  0  0  0  0  0  0  0  0
  -21.0504   -8.9596   19.2259 C   0  0  0  0  0  0  0  0  0  0  0  0
  -24.5857  -15.1111   21.1037 C   0  0  0  0  0  0  0  0  0  0  0  0
  -31.9787  -18.6903   19.6043 C   0  0  0  0  0  0  0  0  0  0  0  0
  -32.2316  -20.1285   21.3021 C   0  0  0  0  0  0  0  0  0  0  0  0
  -25.5926  -16.5276   22.4507 C   0  0  0  0  0  0  0  0  0  0  0  0
  -23.5885  -15.4208   23.4541 C   0  0  0  0  0  0  0  0  0  0  0  0
  -24.1318  -29.9644   23.0753 C   0  0  0  0  0  0  0  0  0  0  0  0
  -21.8947  -30.2966   20.7499 C   0  0  0  0  0  0  0  0  0  0  0  0
  -30.7248  -16.5641   19.4617 C   0  0  0  0  0  0  0  0  0  0  0  0
  -20.7919  -29.4136   17.6433 C   0  0  0  0  0  0  0  0  0  0  0  0
  -25.6063  -32.5250   27.2378 C   0  0  0  0  0  0  0  0  0  0  0  0
  -25.5677  -30.4559   21.0622 C   0  0  0  0  0  0  0  0  0  0  0  0
  -23.5296  -28.3940   20.4796 C   0  0  0  0  0  0  0  0  0  0  0  0
  -24.3155  -32.4011   26.4325 C   0  0  0  0  0  0  0  0  0  0  0  0
  -28.3281  -19.2912   19.6751 C   0  0  0  0  0  0  0  0  0  0  0  0
  -23.9845  -30.9341   26.1769 C   0  0  0  0  0  0  0  0  0  0  0  0
  -27.0767  -18.5610   20.1608 C   0  0  0  0  0  0  0  0  0  0  0  0
  -29.1531  -18.4227   18.7290 C   0  0  0  0  0  0  0  0  0  0  0  0
  -28.2808  -16.3642   19.7901 C   0  0  0  0  0  0  0  0  0  0  0  0
  -25.0864  -30.2551   25.3546 C   0  0  1  0  0  0  0  0  0  0  0  0
  -24.1721  -30.5102   21.6760 C   0  0  1  0  0  0  0  0  0  0  0  0
  -27.4367  -17.1951   20.7710 C   0  0  2  0  0  0  0  0  0  0  0  0
  -32.4370  -20.5663   22.6993 C   0  0  0  0  0  0  0  0  0  0  0  0
  -33.1384  -22.9132   19.1166 C   0  0  0  0  0  0  0  0  0  0  0  0
  -18.9133  -29.8215   16.0302 C   0  0  0  0  0  0  0  0  0  0  0  0
  -33.1640  -16.5304   19.1323 C   0  0  0  0  0  0  0  0  0  0  0  0
  -31.6080  -17.4095   17.3887 C   0  0  0  0  0  0  0  0  0  0  0  0
  -20.0777  -28.4975   22.4147 C   0  0  0  0  0  0  0  0  0  0  0  0
  -18.6529  -28.1730   20.3818 C   0  0  0  0  0  0  0  0  0  0  0  0
  -18.9278  -30.4515   21.3593 C   0  0  0  0  0  0  0  0  0  0  0  0
  -32.3079  -17.6934   21.8757 C   0  0  0  0  0  0  0  0  0  0  0  0
  -22.6300  -30.5127   15.6007 C   0  0  0  0  0  0  0  0  0  0  0  0
  -28.3323  -23.2692   19.9882 C   0  0  0  0  0  0  0  0  0  0  0  0
  -29.6134  -22.6350   20.5087 C   0  0  0  0  0  0  0  0  0  0  0  0
  -28.3962  -24.7884   19.8901 C   0  0  0  0  0  0  0  0  0  1  0  0
  -32.0556  -22.3797   20.0512 C   0  0  1  0  0  0  0  0  0  0  0  0
  -20.8618  -29.3916   20.1230 C   0  0  1  0  0  0  0  0  0  0  0  0
  -20.3044  -30.2480   16.4726 C   0  0  2  0  0  0  0  0  0  0  0  0
  -31.8749  -17.3807   18.9284 C   0  0  0  0  0  0  0  0  0  0  0  0
  -19.6578  -29.1220   21.0691 C   0  0  0  0  0  0  0  0  0  0  0  0
  -25.6101  -15.5828   20.3880 N   0  0  0  0  0  0  0  0  0  0  0  0
  -32.1768  -18.8037   20.9557 N   0  0  0  0  0  0  0  0  0  0  0  0
  -26.2033  -16.4420   21.2342 N   0  0  0  0  0  0  0  0  0  0  0  0
  -23.1827  -29.7625   20.8974 N   0  0  0  0  0  0  0  0  0  0  0  0
  -29.4516  -17.1203   19.3364 N   0  0  0  0  0  0  0  0  0  0  0  0
  -26.0588  -17.3438   23.4197 N   0  0  0  0  0  0  0  0  0  0  0  0
  -22.5526  -14.5036   23.2307 N   0  0  0  0  0  0  0  0  0  0  0  0
  -24.9707  -30.6172   23.9582 N   0  0  0  0  0  0  0  0  0  0  0  0
  -20.4967  -30.0078   18.8520 N   0  0  0  0  0  0  0  0  0  0  0  0
  -21.2305  -30.1055   15.3137 N   0  3  0  0  0  0  0  0  0  0  0  0
  -30.7438  -22.9150   19.5926 N   0  3  0  0  0  0  0  0  0  0  0  0
  -23.6580  -16.0112   24.5587 O   0  0  0  0  0  0  0  0  0  0  0  0
  -23.3931  -29.0218   23.3351 O   0  0  0  0  0  0  0  0  0  0  0  0
  -21.5726  -31.4379   21.0894 O   0  0  0  0  0  0  0  0  0  0  0  0
  -30.9536  -15.4664   19.9763 O   0  0  0  0  0  0  0  0  0  0  0  0
  -21.3729  -28.3401   17.4999 O   0  0  0  0  0  0  0  0  0  0  0  0
  -21.1066  -11.3417   18.8779 O   0  0  0  0  0  0  0  0  0  0  0  0
  -27.1404  -25.2696   19.4129 O   0  0  0  0  0  0  0  0  0  1  0  0
  -19.7047   -7.0083   21.9860 F   0  0  0  0  0  0  0  0  0  0  0  0
  -21.6769   -8.7640   18.0575 F   0  0  0  0  0  0  0  0  0  0  0  0
  1  2  1  0  0  0  0
  1  5  2  0  0  0  0
  2  6  2  0  0  0  0
  3  8  2  0  0  0  0
  3 16  1  0  0  0  0
  4  9  1  0  0  0  0
  4 16  2  0  0  0  0
  5 18  1  0  0  0  0
  6 20  1  0  0  0  0
  7 10  2  0  0  0  0
  7 19  1  0  0  0  0
  8 23  1  0  0  0  0
  9 23  2  0  0  0  0
 10 24  1  0  0  0  0
 11 12  2  0  0  0  0
 11 25  1  0  0  0  0
 12 26  1  0  0  0  0
 13 21  1  0  0  0  0
 13 24  2  0  0  0  0
 14 22  1  0  0  0  0
 14 29  2  0  0  0  0
 15 26  2  0  0  0  0
 15 27  1  0  0  0  0
 16 28  1  0  0  0  0
 17 28  1  0  0  0  0
 17 31  2  0  0  0  0
 17 32  1  0  0  0  0
 18 20  2  0  0  0  0
 18 37  1  0  0  0  0
 19 21  2  0  0  0  0
 19 38  1  0  0  0  0
 20 46  1  0  0  0  0
 21 39  1  0  0  0  0
 22 30  2  0  0  0  0
 22 62  1  0  0  0  0
 23 83  1  0  0  0  0
 24 84  1  0  0  0  0
 25 27  2  0  0  0  0
 25 83  1  0  0  0  0
 26 85  1  0  0  0  0
 27 86  1  0  0  0  0
 28 67  2  0  0  0  0
 29 65  1  0  0  0  0
 29 68  1  0  0  0  0
 30 49  1  0  0  0  0
 30 68  1  0  0  0  0
 31 69  1  0  0  0  0
 31 72  1  0  0  0  0
 32 73  1  0  0  0  0
 32 78  2  0  0  0  0
 33 47  1  0  0  0  0
 33 74  1  0  0  0  0
 33 79  2  0  0  0  0
 34 63  1  0  0  0  0
 34 70  1  0  0  0  0
 34 80  2  0  0  0  0
 35 65  1  0  0  0  0
 35 71  1  0  0  0  0
 35 81  2  0  0  0  0
 36 64  1  0  0  0  0
 36 75  1  0  0  0  0
 36 82  2  0  0  0  0
 37 40  1  0  0  0  0
 38 47  1  0  0  0  0
 39 70  1  0  0  0  0
 40 42  1  0  0  0  0
 41 43  1  0  0  0  0
 41 44  1  0  0  0  0
 42 46  1  0  0  0  0
 43 48  1  0  0  0  0
 44 71  1  0  0  0  0
 45 48  1  0  0  0  0
 45 71  1  0  0  0  0
 46 74  1  0  0  0  0
 47 70  1  0  0  0  0
 48 69  1  0  0  0  0
 50 62  1  0  0  0  0
 51 64  1  0  0  0  0
 52 65  1  0  0  0  0
 53 65  1  0  0  0  0
 54 66  1  0  0  0  0
 55 66  1  0  0  0  0
 56 66  1  0  0  0  0
 57 68  1  0  0  0  0
 58 76  1  0  0  0  0
 59 60  1  0  0  0  0
 59 61  1  0  0  0  0
 60 77  1  0  0  0  0
 61 84  1  0  0  0  0
 62 77  1  0  0  0  0
 63 66  1  0  0  0  0
 63 75  1  0  0  0  0
 64 76  1  0  0  0  0
 67 69  1  0  0  0  0
M  CHG  2  76   1  77   1
M  ISO  4  35 100  61 101  65 100  84 101
M  END
> <Batch ID>
0020

> <Smiles>
CNC(C)C(=O)NC(C(=O)N1Cc2cc([101O:1][101CH2:1]CCNC(C)c3cc([100C:0](C)(C)[100C:0](=O)N4CCCC(n5nc(-c6ccc(Oc7ccc(F)cc7F)cc6)c(C(N)=O)c5N)C4)n(C)c3C)ccc2CC1C(=O)NC1CCCc2ccccc21)C(C)(C)C

> <Shape>
0.234

> <Color>
0.064

> <Negative vol penalty>
0.000

$$$$

  -OEChem-04052316093D

 93101  0     1  0  0  0  0  0999 V2000
  -19.0662  -25.4081   24.7852 C   0  0  0  0  0  0  0  0  0  0  0  0
  -20.4565  -25.4272   24.7400 C   0  0  0  0  0  0  0  0  0  0  0  0
  -27.2309  -14.8163   20.4187 C   0  0  0  0  0  0  0  0  0  0  0  0
  -25.9456  -14.3813   18.4198 C   0  0  0  0  0  0  0  0  0  0  0  0
  -18.3315  -26.2701   23.9721 C   0  0  0  0  0  0  0  0  0  0  0  0
  -21.1130  -26.3076   23.8807 C   0  0  0  0  0  0  0  0  0  0  0  0
  -26.4427  -29.1502   24.8906 C   0  0  0  0  0  0  0  0  0  0  0  0
  -26.9362  -13.5359   20.8869 C   0  0  0  0  0  0  0  0  0  0  0  0
  -25.6509  -13.1008   18.8880 C   0  0  0  0  0  0  0  0  0  0  0  0
  -27.7468  -28.8700   24.4850 C   0  0  0  0  0  0  0  0  0  0  0  0
  -28.0101  -10.3762   20.3426 C   0  0  0  0  0  0  0  0  0  0  0  0
  -29.0543   -9.6290   20.8874 C   0  0  0  0  0  0  0  0  0  0  0  0
  -27.4923  -30.3952   22.6335 C   0  0  0  0  0  0  0  0  0  0  0  0
  -27.8681   -9.5036   22.9885 C   0  0  0  0  0  0  0  0  0  0  0  0
  -26.7355  -15.2391   19.1852 C   0  0  0  0  0  0  0  0  0  0  0  0
  -28.1385  -16.9462   17.9104 C   0  0  0  0  0  0  0  0  0  0  0  0
  -18.9795  -27.1682   23.1094 C   0  0  0  0  0  0  0  0  0  0  0  0
  -25.6485  -30.0483   24.1632 C   0  0  0  0  0  0  0  0  0  0  0  0
  -20.3863  -27.1814   23.0542 C   0  0  0  0  0  0  0  0  0  0  0  0
  -26.1793  -30.6871   23.0335 C   0  0  0  0  0  0  0  0  0  0  0  0
  -26.1463  -12.6781   20.1216 C   0  0  0  0  0  0  0  0  0  0  0  0
  -28.2708  -29.4903   23.3547 C   0  0  0  0  0  0  0  0  0  0  0  0
  -26.8949  -10.6872   21.1207 C   0  0  0  0  0  0  0  0  0  0  0  0
  -28.9833   -9.1927   22.2104 C   0  0  0  0  0  0  0  0  0  0  0  0
  -26.8240  -10.2509   22.4436 C   0  0  0  0  0  0  0  0  0  0  0  0
  -27.0391  -16.5618   18.7012 C   0  0  0  0  0  0  0  0  0  0  0  0
  -27.9713  -18.2965   17.7230 C   0  0  0  0  0  0  0  0  0  0  0  0
  -29.2146  -16.1535   17.3915 C   0  0  0  0  0  0  0  0  0  0  0  0
  -26.3807  -24.5246   19.3524 C   0  0  0  0  0  0  0  0  0  0  0  0
  -25.7038  -25.3566   20.1762 C   0  0  0  0  0  0  0  0  0  0  0  0
  -26.9325  -23.2504   19.8550 C   0  0  0  0  0  0  0  0  0  0  0  0
  -22.9121  -29.8327   22.5603 C   0  0  0  0  0  0  0  0  0  0  0  0
  -23.2596  -33.0477   22.3046 C   0  0  0  0  0  0  0  0  0  0  0  0
  -25.3498  -35.7454   22.3100 C   0  0  0  0  0  0  0  0  0  0  0  0
  -18.1422  -28.0477   22.2149 C   0  0  0  0  0  0  0  0  0  0  0  0
  -24.2528  -30.3601   24.6292 C   0  0  0  0  0  0  0  0  0  0  0  0
  -25.3748  -31.6745   22.2296 C   0  0  0  0  0  0  0  0  0  0  0  0
  -18.9190  -29.2120   21.6055 C   0  0  0  0  0  0  0  0  0  0  0  0
  -24.0466  -21.3086   18.7005 C   0  0  0  0  0  0  0  0  0  0  0  0
  -20.2532  -28.7288   21.0458 C   0  0  0  0  0  0  0  0  0  0  0  0
  -25.9597  -23.6851   17.0643 C   0  0  0  0  0  0  0  0  0  0  0  0
  -24.6591  -19.9156   18.5804 C   0  0  0  0  0  0  0  0  0  0  0  0
  -26.2152  -23.8619   15.5691 C   0  0  0  0  0  0  0  0  0  0  0  0
  -28.4126  -25.0009   16.0746 C   0  0  0  0  0  0  0  0  0  0  0  0
  -24.6528  -22.1019   19.8571 C   0  0  0  0  0  0  0  0  0  0  0  0
  -26.7532  -20.7987   19.6826 C   0  0  0  0  0  0  0  0  0  0  0  0
  -21.1351  -28.1394   22.1533 C   0  0  1  0  0  0  0  0  0  0  0  0
  -26.6565  -24.7719   17.8983 C   0  0  2  0  0  0  0  0  0  0  0  0
  -23.3587  -30.9011   23.5178 C   0  0  1  0  0  0  0  0  0  0  0  0
  -28.1724  -24.8366   17.5870 C   0  0  2  0  0  0  0  0  0  0  0  0
  -26.1913  -20.0001   18.4960 C   0  0  1  0  0  0  0  0  0  0  0  0
  -27.7110  -23.9033   15.2799 C   0  0  2  0  0  0  0  0  0  0  0  0
  -25.1223  -26.6699   19.7046 C   0  0  0  0  0  0  0  0  0  0  0  0
  -26.5590  -25.6617   22.5342 C   0  0  0  0  0  0  0  0  0  0  0  0
  -25.3470  -38.2401   22.0386 C   0  0  0  0  0  0  0  0  0  0  0  0
  -28.8860  -22.0308   13.0744 C   0  0  0  0  0  0  0  0  0  0  0  0
  -27.3735  -23.3729   11.5628 C   0  0  0  0  0  0  0  0  0  0  0  0
  -22.9388  -32.7167   19.2884 C   0  0  0  0  0  0  0  0  0  0  0  0
  -23.8754  -35.0214   19.0061 C   0  0  0  0  0  0  0  0  0  0  0  0
  -21.7416  -34.6884   20.2547 C   0  0  0  0  0  0  0  0  0  0  0  0
  -26.4091  -36.1601   25.0422 C   0  0  0  0  0  0  0  0  0  0  0  0
  -29.2611  -24.7618   13.5304 C   0  0  0  0  0  0  0  0  0  0  0  0
  -25.4535  -25.0990   21.6517 C   0  0  0  0  0  0  0  0  0  0  0  0
  -28.8637  -25.9669   18.3336 C   0  0  0  0  0  0  0  0  0  0  0  0
  -30.3749  -26.0194   18.0996 C   0  0  0  0  0  0  0  0  0  0  0  0
  -31.0760  -27.1134   18.9082 C   0  0  0  0  0  0  0  0  0  0  0  0
  -30.9004  -26.8887   20.4127 C   0  0  0  0  0  0  0  0  0  0  0  0
  -31.6325  -27.9612   21.2220 C   0  0  0  0  0  0  0  0  0  0  0  0
  -31.4812  -27.7869   22.7374 C   0  0  0  0  0  0  0  0  0  0  0  0
  -30.0520  -27.9178   23.2510 C   0  0  0  0  0  0  0  0  0  1  0  0
  -23.9229  -33.9761   21.3161 C   0  0  1  0  0  0  0  0  0  0  0  0
  -25.2659  -37.0833   23.0224 C   0  0  2  0  0  0  0  0  0  0  0  0
  -27.6636  -22.9303   12.9880 C   0  0  0  0  0  0  0  0  0  0  0  0
  -23.1345  -34.0806   19.9802 C   0  0  0  0  0  0  0  0  0  0  0  0
  -26.2332  -17.5853   18.9961 N   0  0  0  0  0  0  0  0  0  0  0  0
  -26.8267  -18.6261   18.3874 N   0  0  0  0  0  0  0  0  0  0  0  0
  -26.1216  -22.1189   19.7867 N   0  0  0  0  0  0  0  0  0  0  0  0
  -24.0132  -31.9414   22.7218 N   0  0  0  0  0  0  0  0  0  0  0  0
  -28.6932  -19.2223   17.0565 N   0  0  0  0  0  0  0  0  0  0  0  0
  -29.2331  -14.7819   17.6791 N   0  0  0  0  0  0  0  0  0  0  0  0
  -21.7428  -29.1970   22.9320 N   0  0  0  0  0  0  0  0  0  0  0  0
  -24.0997  -35.2489   22.0068 N   0  0  0  0  0  0  0  0  0  0  0  0
  -26.3813  -37.2197   24.0013 N   0  3  0  0  0  0  0  0  0  0  0  0
  -27.9125  -24.1571   13.8283 N   0  3  1  0  0  0  0  0  0  0  0  0
  -30.1414  -16.6498   16.7072 O   0  0  0  0  0  0  0  0  0  0  0  0
  -28.0777  -23.2668   20.3098 O   0  0  0  0  0  0  0  0  0  0  0  0
  -23.5783  -29.6031   21.5577 O   0  0  0  0  0  0  0  0  0  0  0  0
  -22.1177  -33.2988   22.6978 O   0  0  0  0  0  0  0  0  0  0  0  0
  -26.4177  -35.1975   22.0454 O   0  0  0  0  0  0  0  0  0  0  0  0
  -25.8587  -11.4285   20.5780 O   0  0  0  0  0  0  0  0  0  0  0  0
  -29.5432  -29.2181   22.9562 O   0  0  0  0  0  0  0  0  0  1  0  0
  -29.9854   -8.4738   22.7331 F   0  0  0  0  0  0  0  0  0  0  0  0
  -25.7547  -10.5455   23.1957 F   0  0  0  0  0  0  0  0  0  0  0  0
  1  2  1  0  0  0  0
  1  5  2  0  0  0  0
  2  6  2  0  0  0  0
  3  8  2  0  0  0  0
  3 15  1  0  0  0  0
  4  9  1  0  0  0  0
  4 15  2  0  0  0  0
  5 17  1  0  0  0  0
  6 19  1  0  0  0  0
  7 10  2  0  0  0  0
  7 18  1  0  0  0  0
  8 21  1  0  0  0  0
  9 21  2  0  0  0  0
 10 22  1  0  0  0  0
 11 12  2  0  0  0  0
 11 23  1  0  0  0  0
 12 24  1  0  0  0  0
 13 20  1  0  0  0  0
 13 22  2  0  0  0  0
 14 24  2  0  0  0  0
 14 25  1  0  0  0  0
 15 26  1  0  0  0  0
 16 26  1  0  0  0  0
 16 27  2  0  0  0  0
 16 28  1  0  0  0  0
 17 19  2  0  0  0  0
 17 35  1  0  0  0  0
 18 20  2  0  0  0  0
 18 36  1  0  0  0  0
 19 47  1  0  0  0  0
 20 37  1  0  0  0  0
 21 90  1  0  0  0  0
 22 91  1  0  0  0  0
 23 25  2  0  0  0  0
 23 90  1  0  0  0  0
 24 92  1  0  0  0  0
 25 93  1  0  0  0  0
 26 75  2  0  0  0  0
 27 76  1  0  0  0  0
 27 79  1  0  0  0  0
 28 80  1  0  0  0  0
 28 85  2  0  0  0  0
 29 30  2  0  0  0  0
 29 31  1  0  0  0  0
 29 48  1  0  0  0  0
 30 53  1  0  0  0  0
 30 63  1  0  0  0  0
 31 77  1  0  0  0  0
 31 86  2  0  0  0  0
 32 49  1  0  0  0  0
 32 81  1  0  0  0  0
 32 87  2  0  0  0  0
 33 71  1  0  0  0  0
 33 78  1  0  0  0  0
 33 88  2  0  0  0  0
 34 72  1  0  0  0  0
 34 82  1  0  0  0  0
 34 89  2  0  0  0  0
 35 38  1  0  0  0  0
 36 49  1  0  0  0  0
 37 78  1  0  0  0  0
 38 40  1  0  0  0  0
 39 42  1  0  0  0  0
 39 45  1  0  0  0  0
 40 47  1  0  0  0  0
 41 43  1  0  0  0  0
 41 48  1  0  0  0  0
 42 51  1  0  0  0  0
 43 52  1  0  0  0  0
 44 50  1  0  0  0  0
 44 52  1  0  0  0  0
 45 77  1  0  0  0  0
 46 51  1  0  0  0  0
 46 77  1  0  0  0  0
 47 81  1  0  0  0  0
 48 50  1  0  0  0  0
 49 78  1  0  0  0  0
 50 64  1  0  0  0  0
 51 76  1  0  0  0  0
 52 84  1  0  0  0  0
 54 63  1  0  0  0  0
 55 72  1  0  0  0  0
 56 73  1  0  0  0  0
 57 73  1  0  0  0  0
 58 74  1  0  0  0  0
 59 74  1  0  0  0  0
 60 74  1  0  0  0  0
 61 83  1  0  0  0  0
 62 84  1  0  0  0  0
 64 65  1  0  0  0  0
 65 66  1  0  0  0  0
 66 67  1  0  0  0  0
 67 68  1  0  0  0  0
 68 69  1  0  0  0  0
 69 70  1  0  0  0  0
 70 91  1  0  0  0  0
 71 74  1  0  0  0  0
 71 82  1  0  0  0  0
 72 83  1  0  0  0  0
 73 84  1  0  0  0  0
 75 76  1  0  0  0  0
M  CHG  2  83   1  84   1
M  ISO  4  29 100  31 100  70 101  91 101
M  END
> <Batch ID>
0020

> <Smiles>
CCC(C)=[100C:0](C1CCC(N(C)C(C)C)CC1CCCCCC[101CH2:1][101O:1]c1ccc2c(c1)CN(C(=O)C(NC(=O)C(C)NC)C(C)(C)C)C(C(=O)NC1CCCc3ccccc31)C2)[100C:0](=O)N1CCCC(n2nc(-c3ccc(Oc4ccc(F)cc4F)cc3)c(C(N)=O)c2N)C1

> <Shape>
0.212

> <Color>
0.092

> <Negative vol penalty>
0.000

$$$$

  -OEChem-04052316093D

 82 90  0     1  0  0  0  0  0999 V2000
  -29.1976  -11.5296   37.8820 C   0  0  0  0  0  0  0  0  0  0  0  0
  -29.6975  -11.4586   36.5856 C   0  0  0  0  0  0  0  0  0  0  0  0
  -23.2885   -9.8001   19.9134 C   0  0  0  0  0  0  0  0  0  0  0  0
  -23.7425   -9.9401   22.2823 C   0  0  0  0  0  0  0  0  0  0  0  0
  -27.9648  -10.9531   38.1851 C   0  0  0  0  0  0  0  0  0  0  0  0
  -28.9653  -10.8100   35.5918 C   0  0  0  0  0  0  0  0  0  0  0  0
  -28.8213  -13.4314   31.2614 C   0  0  0  0  0  0  0  0  0  0  0  0
  -22.5632   -8.6271   20.1217 C   0  0  0  0  0  0  0  0  0  0  0  0
  -23.0171   -8.7670   22.4906 C   0  0  0  0  0  0  0  0  0  0  0  0
  -29.9535  -13.3821   30.4493 C   0  0  0  0  0  0  0  0  0  0  0  0
  -20.9814   -6.0051   23.6931 C   0  0  0  0  0  0  0  0  0  0  0  0
  -20.0813   -5.9788   24.7583 C   0  0  0  0  0  0  0  0  0  0  0  0
  -28.8754  -11.7338   29.0565 C   0  0  0  0  0  0  0  0  0  0  0  0
  -32.8288  -14.6916   25.1478 C   0  0  0  0  0  0  0  0  0  0  0  0
  -18.8693   -7.8256   23.7797 C   0  0  0  0  0  0  0  0  0  0  0  0
  -23.8783  -10.4566   20.9937 C   0  0  0  0  0  0  0  0  0  0  0  0
  -24.1358  -12.9869   20.7958 C   0  0  0  0  0  0  0  0  0  0  0  0
  -27.2127  -10.3055   37.1923 C   0  0  0  0  0  0  0  0  0  0  0  0
  -27.7099  -12.6228   30.9829 C   0  0  0  0  0  0  0  0  0  0  0  0
  -27.7219  -10.2231   35.8822 C   0  0  0  0  0  0  0  0  0  0  0  0
  -27.7293  -11.7766   29.8651 C   0  0  0  0  0  0  0  0  0  0  0  0
  -32.9986  -13.7052   26.1192 C   0  0  0  0  0  0  0  0  0  0  0  0
  -32.0618  -14.4282   24.0129 C   0  0  0  0  0  0  0  0  0  0  0  0
  -32.4014  -12.4553   25.9558 C   0  0  0  0  0  0  0  0  0  0  0  0
  -31.6344  -12.1918   24.8209 C   0  0  0  0  0  0  0  0  0  0  0  0
  -31.4646  -13.1782   23.8494 C   0  0  0  0  0  0  0  0  0  0  0  0
  -22.4274   -8.1105   21.4103 C   0  0  0  0  0  0  0  0  0  0  0  0
  -29.9818  -12.5311   29.3484 C   0  0  0  0  0  0  0  0  0  0  0  0
  -20.8255   -6.9417   22.6712 C   0  0  0  0  0  0  0  0  0  0  0  0
  -19.0252   -6.8891   24.8016 C   0  0  0  0  0  0  0  0  0  0  0  0
  -19.7694   -7.8519   22.7145 C   0  0  0  0  0  0  0  0  0  0  0  0
  -24.6282  -11.6681   20.7792 C   0  0  0  0  0  0  0  0  0  0  0  0
  -25.2364  -13.7675   20.5396 C   0  0  0  0  0  0  0  0  0  0  0  0
  -22.8028  -13.4636   21.0227 C   0  0  0  0  0  0  0  0  0  0  0  0
  -26.1878  -10.2948   32.5215 C   0  0  0  0  0  0  0  0  0  0  0  0
  -24.1141  -10.5402   30.0392 C   0  0  0  0  0  0  0  0  0  0  0  0
  -23.5692  -11.4662   26.8000 C   0  0  0  0  0  0  0  0  0  0  0  0
  -31.0984  -12.9565   21.3669 C   0  0  0  0  0  0  0  0  0  0  0  0
  -25.9073   -9.6562   37.5783 C   0  0  0  0  0  0  0  0  0  0  0  0
  -26.4860  -12.7074   31.8532 C   0  0  0  0  0  0  0  0  0  0  0  0
  -26.5544  -10.9032   29.5112 C   0  0  0  0  0  0  0  0  0  0  0  0
  -25.0209   -9.3133   36.3837 C   0  0  0  0  0  0  0  0  0  0  0  0
  -29.4602  -13.6612   18.2852 C   0  0  0  0  0  0  0  0  0  0  0  0
  -25.8371   -8.6276   35.2927 C   0  0  0  0  0  0  0  0  0  0  0  0
  -27.9895  -13.3559   18.5783 C   0  0  0  0  0  0  0  0  0  0  0  0
  -30.3950  -12.6863   18.9989 C   0  0  0  0  0  0  0  0  0  0  0  0
  -28.7045  -12.2564   20.7387 C   0  0  0  0  0  0  0  0  0  0  0  0
  -26.9458   -9.5497   34.7712 C   0  0  1  0  0  0  0  0  0  0  0  0
  -25.6087  -11.4619   31.7730 C   0  0  1  0  0  0  0  0  0  0  0  0
  -27.7267  -13.2520   20.0935 C   0  0  2  0  0  0  0  0  0  0  0  0
  -33.8235  -14.0137   27.3257 C   0  0  0  0  0  0  0  0  0  0  0  0
  -31.8973  -15.5058   22.9904 C   0  0  0  0  0  0  0  0  0  0  0  0
  -30.9959  -10.8486   24.6503 C   0  0  0  0  0  0  0  0  0  0  0  0
  -21.7834  -11.5097   25.0374 C   0  0  0  0  0  0  0  0  0  0  0  0
  -24.4684   -7.5402   29.6096 C   0  0  0  0  0  0  0  0  0  0  0  0
  -23.4588   -7.8172   27.3353 C   0  0  0  0  0  0  0  0  0  0  0  0
  -22.1175   -8.3582   29.3678 C   0  0  0  0  0  0  0  0  0  0  0  0
  -23.6857  -14.4160   26.5902 C   0  0  0  0  0  0  0  0  0  0  0  0
  -32.5873  -11.3901   27.0090 C   0  0  0  0  0  0  0  0  0  0  0  0
  -31.3625  -11.2405   27.9048 C   0  0  0  0  0  0  0  0  0  1  0  0
  -23.9974   -9.9010   28.6765 C   0  0  1  0  0  0  0  0  0  0  0  0
  -22.4615  -12.2821   26.1583 C   0  0  2  0  0  0  0  0  0  0  0  0
  -23.5336   -8.4190   28.7548 C   0  0  0  0  0  0  0  0  0  0  0  0
  -25.9394  -11.6104   20.5318 N   0  0  0  0  0  0  0  0  0  0  0  0
  -26.2804  -12.9026   20.3905 N   0  0  0  0  0  0  0  0  0  0  0  0
  -25.3834  -11.0169   30.3963 N   0  0  0  0  0  0  0  0  0  0  0  0
  -30.0902  -12.6436   20.4308 N   0  0  0  0  0  0  0  0  0  0  0  0
  -25.4034  -15.1026   20.4295 N   0  0  0  0  0  0  0  0  0  0  0  0
  -21.7911  -12.5259   21.2712 N   0  0  0  0  0  0  0  0  0  0  0  0
  -30.6831  -12.9141   22.6974 N   0  0  0  0  0  0  0  0  0  0  0  0
  -26.3979  -10.5368   33.8657 N   0  0  0  0  0  0  0  0  0  0  0  0
  -23.1160  -10.7625   27.8958 N   0  0  0  0  0  0  0  0  0  0  0  0
  -23.0108  -13.5465   25.5924 N   0  3  0  0  0  0  0  0  0  0  0  0
  -22.5141  -14.6838   20.9893 O   0  0  0  0  0  0  0  0  0  0  0  0
  -26.4250   -9.2515   31.9241 O   0  0  0  0  0  0  0  0  0  0  0  0
  -23.1144  -10.6201   30.7573 O   0  0  0  0  0  0  0  0  0  0  0  0
  -24.7204  -11.4514   26.3698 O   0  0  0  0  0  0  0  0  0  0  0  0
  -32.2386  -13.2676   21.0130 O   0  0  0  0  0  0  0  0  0  0  0  0
  -21.7195   -6.9660   21.6139 O   0  0  0  0  0  0  0  0  0  0  0  0
  -31.0859  -12.4806   28.5545 O   0  0  0  0  0  0  0  0  0  1  0  0
  -18.1600   -6.8627   25.8238 F   0  0  0  0  0  0  0  0  0  0  0  0
  -19.6138   -8.7532   21.7351 F   0  0  0  0  0  0  0  0  0  0  0  0
  1  2  1  0  0  0  0
  1  5  2  0  0  0  0
  2  6  2  0  0  0  0
  3  8  2  0  0  0  0
  3 16  1  0  0  0  0
  4  9  1  0  0  0  0
  4 16  2  0  0  0  0
  5 18  1  0  0  0  0
  6 20  1  0  0  0  0
  7 10  2  0  0  0  0
  7 19  1  0  0  0  0
  8 27  1  0  0  0  0
  9 27  2  0  0  0  0
 10 28  1  0  0  0  0
 11 12  2  0  0  0  0
 11 29  1  0  0  0  0
 12 30  1  0  0  0  0
 13 21  1  0  0  0  0
 13 28  2  0  0  0  0
 14 22  2  0  0  0  0
 14 23  1  0  0  0  0
 15 30  2  0  0  0  0
 15 31  1  0  0  0  0
 16 32  1  0  0  0  0
 17 32  1  0  0  0  0
 17 33  2  0  0  0  0
 17 34  1  0  0  0  0
 18 20  2  0  0  0  0
 18 39  1  0  0  0  0
 19 21  2  0  0  0  0
 19 40  1  0  0  0  0
 20 48  1  0  0  0  0
 21 41  1  0  0  0  0
 22 24  1  0  0  0  0
 22 51  1  0  0  0  0
 23 26  2  0  0  0  0
 23 52  1  0  0  0  0
 24 25  2  0  0  0  0
 24 59  1  0  0  0  0
 25 26  1  0  0  0  0
 25 53  1  0  0  0  0
 26 70  1  0  0  0  0
 27 79  1  0  0  0  0
 28 80  1  0  0  0  0
 29 31  2  0  0  0  0
 29 79  1  0  0  0  0
 30 81  1  0  0  0  0
 31 82  1  0  0  0  0
 32 64  2  0  0  0  0
 33 65  1  0  0  0  0
 33 68  1  0  0  0  0
 34 69  1  0  0  0  0
 34 74  2  0  0  0  0
 35 49  1  0  0  0  0
 35 71  1  0  0  0  0
 35 75  2  0  0  0  0
 36 61  1  0  0  0  0
 36 66  1  0  0  0  0
 36 76  2  0  0  0  0
 37 62  1  0  0  0  0
 37 72  1  0  0  0  0
 37 77  2  0  0  0  0
 38 67  1  0  0  0  0
 38 70  1  0  0  0  0
 38 78  2  0  0  0  0
 39 42  1  0  0  0  0
 40 49  1  0  0  0  0
 41 66  1  0  0  0  0
 42 44  1  0  0  0  0
 43 45  1  0  0  0  0
 43 46  1  0  0  0  0
 44 48  1  0  0  0  0
 45 50  1  0  0  0  0
 46 67  1  0  0  0  0
 47 50  1  0  0  0  0
 47 67  1  0  0  0  0
 48 71  1  0  0  0  0
 49 66  1  0  0  0  0
 50 65  1  0  0  0  0
 54 62  1  0  0  0  0
 55 63  1  0  0  0  0
 56 63  1  0  0  0  0
 57 63  1  0  0  0  0
 58 73  1  0  0  0  0
 59 60  1  0  0  0  0
 60 80  1  0  0  0  0
 61 63  1  0  0  0  0
 61 72  1  0  0  0  0
 62 73  1  0  0  0  0
 64 65  1  0  0  0  0
M  CHG  1  73   1
M  ISO  4  38 100  60 101  70 100  80 101
M  END
> <Batch ID>
0020

> <Smiles>
CNC(C)C(=O)NC(C(=O)N1Cc2cc([101O:1][101CH2:1]Cc3c(C)cc(C)c([100NH:0][100C:0](=O)N4CCCC(n5nc(-c6ccc(Oc7ccc(F)cc7F)cc6)c(C(N)=O)c5N)C4)c3C)ccc2CC1C(=O)NC1CCCc2ccccc21)C(C)(C)C

> <Shape>
0.132

> <Color>
0.182

> <Negative vol penalty>
0.000

$$$$

  -OEChem-04052316093D

 83 91  0     1  0  0  0  0  0999 V2000
  -28.6593  -11.3518   19.9138 C   0  0  0  0  0  0  0  0  0  0  0  0
  -28.8150  -12.6944   19.5845 C   0  0  0  0  0  0  0  0  0  0  0  0
  -17.1364  -25.5229   20.8660 C   0  0  0  0  0  0  0  0  0  0  0  0
  -17.8676  -24.4604   22.9089 C   0  0  0  0  0  0  0  0  0  0  0  0
  -27.4075  -10.8688   20.2929 C   0  0  0  0  0  0  0  0  0  0  0  0
  -27.7186  -13.5547   19.6331 C   0  0  0  0  0  0  0  0  0  0  0  0
  -28.8079  -17.9656   21.8697 C   0  0  0  0  0  0  0  0  0  0  0  0
  -16.2097  -24.4999   20.6656 C   0  0  0  0  0  0  0  0  0  0  0  0
  -16.9408  -23.4374   22.7086 C   0  0  0  0  0  0  0  0  0  0  0  0
  -29.5045  -18.9077   21.1141 C   0  0  0  0  0  0  0  0  0  0  0  0
  -13.4023  -22.3574   19.8036 C   0  0  0  0  0  0  0  0  0  0  0  0
  -12.1109  -22.7183   19.4195 C   0  0  0  0  0  0  0  0  0  0  0  0
  -27.4376  -20.0682   20.6664 C   0  0  0  0  0  0  0  0  0  0  0  0
  -11.8644  -23.9999   21.4528 C   0  0  0  0  0  0  0  0  0  0  0  0
  -17.9655  -25.5031   21.9877 C   0  0  0  0  0  0  0  0  0  0  0  0
  -18.7221  -27.7644   22.8941 C   0  0  0  0  0  0  0  0  0  0  0  0
  -26.2973  -11.7256   20.3554 C   0  0  0  0  0  0  0  0  0  0  0  0
  -27.4171  -18.0618   22.0205 C   0  0  0  0  0  0  0  0  0  0  0  0
  -26.4505  -13.0825   20.0120 C   0  0  0  0  0  0  0  0  0  0  0  0
  -26.7260  -19.1275   21.4265 C   0  0  0  0  0  0  0  0  0  0  0  0
  -29.5751  -25.8364   20.6260 C   0  0  0  0  0  0  0  0  0  0  0  0
  -30.3870  -24.9186   19.9690 C   0  0  0  0  0  0  0  0  0  0  0  0
  -28.7791  -25.4180   21.6865 C   0  0  0  0  0  0  0  0  0  0  0  0
  -16.1118  -23.4572   21.5869 C   0  0  0  0  0  0  0  0  0  0  0  0
  -28.8190  -19.9576   20.5099 C   0  0  0  0  0  0  0  0  0  0  0  0
  -13.9248  -22.8176   21.0123 C   0  0  0  0  0  0  0  0  0  0  0  0
  -11.3419  -23.5396   20.2441 C   0  0  0  0  0  0  0  0  0  0  0  0
  -13.1559  -23.6388   21.8368 C   0  0  0  0  0  0  0  0  0  0  0  0
  -18.9234  -26.5592   22.1949 C   0  0  0  0  0  0  0  0  0  0  0  0
  -30.3669  -23.6044   20.4075 C   0  0  0  0  0  0  0  0  0  0  0  0
  -28.8308  -24.0814   22.0480 C   0  0  0  0  0  0  0  0  0  0  0  0
  -19.9264  -28.4187   22.8044 C   0  0  0  0  0  0  0  0  0  0  0  0
  -17.5512  -28.2491   23.5647 C   0  0  0  0  0  0  0  0  0  0  0  0
  -24.9434  -16.2268   21.2346 C   0  0  0  0  0  0  0  0  0  0  0  0
  -23.2667  -18.4432   22.9075 C   0  0  0  0  0  0  0  0  0  0  0  0
  -23.0711  -21.6342   24.1015 C   0  0  0  0  0  0  0  0  0  0  0  0
  -25.4394  -26.4305   22.0913 C   0  0  0  0  0  0  0  0  0  0  0  0
  -24.9542  -11.1476   20.7250 C   0  0  0  0  0  0  0  0  0  0  0  0
  -26.6839  -17.0525   22.8609 C   0  0  0  0  0  0  0  0  0  0  0  0
  -25.2357  -19.2871   21.5747 C   0  0  0  0  0  0  0  0  0  0  0  0
  -23.9224  -12.2038   21.1127 C   0  0  0  0  0  0  0  0  0  0  0  0
  -23.7604  -28.8342   19.9698 C   0  0  0  0  0  0  0  0  0  0  0  0
  -23.9275  -13.3499   20.1061 C   0  0  0  0  0  0  0  0  0  0  0  0
  -22.2997  -28.6301   20.3758 C   0  0  0  0  0  0  0  0  0  0  0  0
  -24.5191  -27.5105   19.9513 C   0  0  0  0  0  0  0  0  0  0  0  0
  -23.0052  -26.5458   21.6399 C   0  0  0  0  0  0  0  0  0  0  0  0
  -25.2905  -14.0521   20.0765 C   0  0  1  0  0  0  0  0  0  0  0  0
  -25.1994  -16.9581   22.5219 C   0  0  1  0  0  0  0  0  0  0  0  0
  -22.1897  -27.8503   21.6994 C   0  0  2  0  0  0  0  0  0  0  0  0
  -29.5588  -27.2678   20.1929 C   0  0  0  0  0  0  0  0  0  0  0  0
  -31.2524  -25.3365   18.8277 C   0  0  0  0  0  0  0  0  0  0  0  0
  -21.5632  -23.1623   25.4009 C   0  0  0  0  0  0  0  0  0  0  0  0
  -21.4756  -18.7553   20.4571 C   0  0  0  0  0  0  0  0  0  0  0  0
  -20.6288  -20.8986   21.4355 C   0  0  0  0  0  0  0  0  0  0  0  0
  -20.2607  -18.7471   22.6431 C   0  0  0  0  0  0  0  0  0  0  0  0
  -25.0938  -22.0113   26.2288 C   0  0  0  0  0  0  0  0  0  0  0  0
  -27.9005  -26.3875   22.4050 C   0  0  0  0  0  0  0  0  0  0  0  0
  -31.2266  -22.5625   19.7340 C   0  0  0  0  0  0  0  0  0  0  0  0
  -30.8477  -21.1440   20.1453 C   0  0  0  0  0  0  0  0  0  1  0  0
  -22.5823  -19.7455   22.5691 C   0  0  1  0  0  0  0  0  0  0  0  0
  -22.7182  -22.1759   25.4750 C   0  0  2  0  0  0  0  0  0  0  0  0
  -21.2647  -19.5328   21.7716 C   0  0  0  0  0  0  0  0  0  0  0  0
  -20.1584  -26.4518   21.6976 N   0  0  0  0  0  0  0  0  0  0  0  0
  -29.6070  -23.1606   21.4338 N   0  0  0  0  0  0  0  0  0  0  0  0
  -20.7439  -27.5978   22.0847 N   0  0  0  0  0  0  0  0  0  0  0  0
  -24.5627  -18.2712   22.4010 N   0  0  0  0  0  0  0  0  0  0  0  0
  -24.3898  -26.8273   21.2462 N   0  0  0  0  0  0  0  0  0  0  0  0
  -20.3552  -29.6105   23.2716 N   0  0  0  0  0  0  0  0  0  0  0  0
  -16.3998  -27.4500   23.5603 N   0  0  0  0  0  0  0  0  0  0  0  0
  -25.4297  -14.9335   21.2159 N   0  0  0  0  0  0  0  0  0  0  0  0
  -22.4086  -20.4554   23.8318 N   0  0  0  0  0  0  0  0  0  0  0  0
  -26.7202  -26.7280   21.6421 N   0  0  0  0  0  0  0  0  0  0  0  0
  -23.8921  -22.8710   26.0749 N   0  3  0  0  0  0  0  0  0  0  0  0
  -17.5217  -29.3652   24.1365 O   0  0  0  0  0  0  0  0  0  0  0  0
  -24.3474  -16.7934   20.3260 O   0  0  0  0  0  0  0  0  0  0  0  0
  -22.6760  -17.6121   23.6018 O   0  0  0  0  0  0  0  0  0  0  0  0
  -23.8532  -22.2021   23.3423 O   0  0  0  0  0  0  0  0  0  0  0  0
  -25.2491  -25.8579   23.1697 O   0  0  0  0  0  0  0  0  0  0  0  0
  -15.2074  -22.4589   21.3918 O   0  0  0  0  0  0  0  0  0  0  0  0
  -29.4964  -20.8781   19.7713 O   0  0  0  0  0  0  0  0  0  1  0  0
  -10.1024  -23.8874   19.8744 F   0  0  0  0  0  0  0  0  0  0  0  0
  -13.6528  -24.0850   22.9986 F   0  0  0  0  0  0  0  0  0  0  0  0
  -27.8953  -23.4395   23.3414 Cl  0  0  0  0  0  0  0  0  0  0  0  0
  1  2  1  0  0  0  0
  1  5  2  0  0  0  0
  2  6  2  0  0  0  0
  3  8  2  0  0  0  0
  3 15  1  0  0  0  0
  4  9  1  0  0  0  0
  4 15  2  0  0  0  0
  5 17  1  0  0  0  0
  6 19  1  0  0  0  0
  7 10  2  0  0  0  0
  7 18  1  0  0  0  0
  8 24  1  0  0  0  0
  9 24  2  0  0  0  0
 10 25  1  0  0  0  0
 11 12  2  0  0  0  0
 11 26  1  0  0  0  0
 12 27  1  0  0  0  0
 13 20  1  0  0  0  0
 13 25  2  0  0  0  0
 14 27  2  0  0  0  0
 14 28  1  0  0  0  0
 15 29  1  0  0  0  0
 16 29  1  0  0  0  0
 16 32  2  0  0  0  0
 16 33  1  0  0  0  0
 17 19  2  0  0  0  0
 17 38  1  0  0  0  0
 18 20  2  0  0  0  0
 18 39  1  0  0  0  0
 19 47  1  0  0  0  0
 20 40  1  0  0  0  0
 21 22  1  0  0  0  0
 21 23  2  0  0  0  0
 21 50  1  0  0  0  0
 22 30  2  0  0  0  0
 22 51  1  0  0  0  0
 23 31  1  0  0  0  0
 23 57  1  0  0  0  0
 24 79  1  0  0  0  0
 25 80  1  0  0  0  0
 26 28  2  0  0  0  0
 26 79  1  0  0  0  0
 27 81  1  0  0  0  0
 28 82  1  0  0  0  0
 29 63  2  0  0  0  0
 30 58  1  0  0  0  0
 30 64  1  0  0  0  0
 31 64  2  0  0  0  0
 31 83  1  0  0  0  0
 32 65  1  0  0  0  0
 32 68  1  0  0  0  0
 33 69  1  0  0  0  0
 33 74  2  0  0  0  0
 34 48  1  0  0  0  0
 34 70  1  0  0  0  0
 34 75  2  0  0  0  0
 35 60  1  0  0  0  0
 35 66  1  0  0  0  0
 35 76  2  0  0  0  0
 36 61  1  0  0  0  0
 36 71  1  0  0  0  0
 36 77  2  0  0  0  0
 37 67  1  0  0  0  0
 37 72  1  0  0  0  0
 37 78  2  0  0  0  0
 38 41  1  0  0  0  0
 39 48  1  0  0  0  0
 40 66  1  0  0  0  0
 41 43  1  0  0  0  0
 42 44  1  0  0  0  0
 42 45  1  0  0  0  0
 43 47  1  0  0  0  0
 44 49  1  0  0  0  0
 45 67  1  0  0  0  0
 46 49  1  0  0  0  0
 46 67  1  0  0  0  0
 47 70  1  0  0  0  0
 48 66  1  0  0  0  0
 49 65  1  0  0  0  0
 52 61  1  0  0  0  0
 53 62  1  0  0  0  0
 54 62  1  0  0  0  0
 55 62  1  0  0  0  0
 56 73  1  0  0  0  0
 57 72  1  0  0  0  0
 58 59  1  0  0  0  0
 59 80  1  0  0  0  0
 60 62  1  0  0  0  0
 60 71  1  0  0  0  0
 61 73  1  0  0  0  0
 63 65  1  0  0  0  0
M  CHG  1  73   1
M  ISO  4  37 100  59 101  72 100  80 101
M  END
> <Batch ID>
0020

> <Smiles>
CNC(C)C(=O)NC(C(=O)N1Cc2cc([101O:1][101CH2:1]Cc3nc(Cl)c(C[100NH:0][100C:0](=O)N4CCCC(n5nc(-c6ccc(Oc7ccc(F)cc7F)cc6)c(C(N)=O)c5N)C4)c(C)c3C)ccc2CC1C(=O)NC1CCCc2ccccc21)C(C)(C)C

> <Shape>
0.206

> <Color>
0.062

> <Negative vol penalty>
0.000

$$$$

  -OEChem-04052316093D

 84 92  0     1  0  0  0  0  0999 V2000
  -19.4382  -23.9714   21.9559 C   0  0  0  0  0  0  0  0  0  0  0  0
  -20.6498  -24.3181   21.3667 C   0  0  0  0  0  0  0  0  0  0  0  0
  -26.7572  -13.1322   20.8077 C   0  0  0  0  0  0  0  0  0  0  0  0
  -25.0590  -14.7714   21.3239 C   0  0  0  0  0  0  0  0  0  0  0  0
  -18.5771  -24.9674   22.4144 C   0  0  0  0  0  0  0  0  0  0  0  0
  -21.0006  -25.6612   21.2347 C   0  0  0  0  0  0  0  0  0  0  0  0
  -25.8076  -26.5526   22.5548 C   0  0  0  0  0  0  0  0  0  0  0  0
  -25.8284  -12.1095   20.9998 C   0  0  0  0  0  0  0  0  0  0  0  0
  -24.1302  -13.7486   21.5160 C   0  0  0  0  0  0  0  0  0  0  0  0
  -26.7951  -26.2115   21.6317 C   0  0  0  0  0  0  0  0  0  0  0  0
  -22.2253  -11.7230   19.5953 C   0  0  0  0  0  0  0  0  0  0  0  0
  -20.9623  -11.8812   19.0250 C   0  0  0  0  0  0  0  0  0  0  0  0
  -26.9435  -28.5196   20.9464 C   0  0  0  0  0  0  0  0  0  0  0  0
  -31.2496  -24.4151   20.0583 C   0  0  0  0  0  0  0  0  0  0  0  0
  -19.9556  -11.7455   21.2171 C   0  0  0  0  0  0  0  0  0  0  0  0
  -26.3725  -14.4632   20.9698 C   0  0  0  0  0  0  0  0  0  0  0  0
  -27.6173  -16.1949   19.5701 C   0  0  0  0  0  0  0  0  0  0  0  0
  -18.9218  -26.3232   22.2967 C   0  0  0  0  0  0  0  0  0  0  0  0
  -25.3721  -27.8803   22.6732 C   0  0  0  0  0  0  0  0  0  0  0  0
  -20.1427  -26.6764   21.6908 C   0  0  0  0  0  0  0  0  0  0  0  0
  -25.9521  -28.8754   21.8736 C   0  0  0  0  0  0  0  0  0  0  0  0
  -30.9669  -23.1233   20.5021 C   0  0  0  0  0  0  0  0  0  0  0  0
  -30.1715  -24.0182   22.6006 C   0  0  0  0  0  0  0  0  0  0  0  0
  -30.4278  -22.9249   21.7732 C   0  0  0  0  0  0  0  0  0  0  0  0
  -24.5149  -12.4176   21.3539 C   0  0  0  0  0  0  0  0  0  0  0  0
  -27.3612  -27.1945   20.8253 C   0  0  0  0  0  0  0  0  0  0  0  0
  -22.3536  -11.5760   20.9765 C   0  0  0  0  0  0  0  0  0  0  0  0
  -30.9934  -25.5085   20.8857 C   0  0  0  0  0  0  0  0  0  0  0  0
  -19.8274  -11.8925   19.8359 C   0  0  0  0  0  0  0  0  0  0  0  0
  -21.2187  -11.5873   21.7873 C   0  0  0  0  0  0  0  0  0  0  0  0
  -30.4543  -25.3101   22.1568 C   0  0  0  0  0  0  0  0  0  0  0  0
  -27.3316  -15.5201   20.7721 C   0  0  0  0  0  0  0  0  0  0  0  0
  -28.5930  -17.1005   19.9083 C   0  0  0  0  0  0  0  0  0  0  0  0
  -27.0513  -16.0189   18.2646 C   0  0  0  0  0  0  0  0  0  0  0  0
  -22.6004  -29.3780   22.2508 C   0  0  0  0  0  0  0  0  0  0  0  0
  -24.2365  -31.9159   23.4358 C   0  0  0  0  0  0  0  0  0  0  0  0
  -27.2492  -33.4282   23.9682 C   0  0  0  0  0  0  0  0  0  0  0  0
  -30.6768  -20.9635   23.3344 C   0  0  0  0  0  0  0  0  0  0  0  0
  -17.9373  -27.3657   22.7643 C   0  0  0  0  0  0  0  0  0  0  0  0
  -24.3249  -28.2363   23.6926 C   0  0  0  0  0  0  0  0  0  0  0  0
  -25.5340  -30.3188   21.9761 C   0  0  0  0  0  0  0  0  0  0  0  0
  -18.5512  -28.7540   22.9260 C   0  0  0  0  0  0  0  0  0  0  0  0
  -31.3402  -17.5582   24.1350 C   0  0  0  0  0  0  0  0  0  0  0  0
  -19.4041  -29.1054   21.7111 C   0  0  0  0  0  0  0  0  0  0  0  0
  -30.3799  -16.7799   23.2326 C   0  0  0  0  0  0  0  0  0  0  0  0
  -30.7130  -18.8537   24.6469 C   0  0  0  0  0  0  0  0  0  0  0  0
  -29.2026  -18.9526   22.7032 C   0  0  0  0  0  0  0  0  0  0  0  0
  -20.5696  -28.1216   21.5522 C   0  0  1  0  0  0  0  0  0  0  0  0
  -23.5925  -29.5347   23.3683 C   0  0  1  0  0  0  0  0  0  0  0  0
  -29.8131  -17.6719   22.1108 C   0  0  2  0  0  0  0  0  0  0  0  0
  -31.2525  -21.9722   19.5925 C   0  0  0  0  0  0  0  0  0  0  0  0
  -29.5932  -23.7906   23.9640 C   0  0  0  0  0  0  0  0  0  0  0  0
  -28.2646  -35.5138   24.9256 C   0  0  0  0  0  0  0  0  0  0  0  0
  -31.5252  -28.1134   18.4728 C   0  0  0  0  0  0  0  0  0  0  0  0
  -23.3684  -33.4726   20.9593 C   0  0  0  0  0  0  0  0  0  0  0  0
  -25.1412  -35.1607   21.4845 C   0  0  0  0  0  0  0  0  0  0  0  0
  -23.2755  -34.7721   23.0940 C   0  0  0  0  0  0  0  0  0  0  0  0
  -28.7714  -31.8970   25.9923 C   0  0  0  0  0  0  0  0  0  0  0  0
  -29.2980  -27.8621   19.6174 C   0  0  0  0  0  0  0  0  0  1  0  0
  -25.0784  -33.0181   22.8396 C   0  0  1  0  0  0  0  0  0  0  0  0
  -27.8455  -34.0786   25.2035 C   0  0  2  0  0  0  0  0  0  0  0  0
  -30.6036  -27.1757   19.2352 C   0  0  2  0  0  0  0  0  0  0  0  0
  -24.2226  -34.0785   22.0908 C   0  0  0  0  0  0  0  0  0  0  0  0
  -28.0665  -15.9594   21.7973 N   0  0  0  0  0  0  0  0  0  0  0  0
  -28.8237  -16.9199   21.2403 N   0  0  0  0  0  0  0  0  0  0  0  0
  -24.5021  -30.6157   22.9833 N   0  0  0  0  0  0  0  0  0  0  0  0
  -30.2018  -19.6492   23.5285 N   0  0  0  0  0  0  0  0  0  0  0  0
  -29.2676  -18.0257   19.1932 N   0  0  0  0  0  0  0  0  0  0  0  0
  -26.0591  -15.0441   18.0925 N   0  0  0  0  0  0  0  0  0  0  0  0
  -30.1435  -21.6107   22.2203 N   0  0  0  0  0  0  0  0  0  0  0  0
  -21.6241  -28.4309   22.4939 N   0  0  0  0  0  0  0  0  0  0  0  0
  -25.8770  -33.5592   23.9340 N   0  0  0  0  0  0  0  0  0  0  0  0
  -29.0435  -33.3195   25.6613 N   0  3  0  0  0  0  0  0  0  0  0  0
  -27.4262  -16.6945   17.2764 O   0  0  0  0  0  0  0  0  0  0  0  0
  -22.7117  -30.0665   21.2431 O   0  0  0  0  0  0  0  0  0  0  0  0
  -23.3798  -32.1974   24.2775 O   0  0  0  0  0  0  0  0  0  0  0  0
  -27.9327  -32.8640   23.1167 O   0  0  0  0  0  0  0  0  0  0  0  0
  -31.5167  -21.4674   24.0845 O   0  0  0  0  0  0  0  0  0  0  0  0
  -23.6083  -11.4199   21.5412 O   0  0  0  0  0  0  0  0  0  0  0  0
  -28.3248  -26.8642   19.9230 O   0  0  0  0  0  0  0  0  0  1  0  0
  -31.2815  -26.7625   20.4207 O   0  0  0  0  0  0  0  0  0  0  0  0
  -18.6147  -12.0459   19.2882 F   0  0  0  0  0  0  0  0  0  0  0  0
  -21.3356  -11.4478   23.1150 F   0  0  0  0  0  0  0  0  0  0  0  0
  -30.1402  -26.6762   23.1732 Cl  0  0  0  0  0  0  0  0  0  0  0  0
  1  2  1  0  0  0  0
  1  5  2  0  0  0  0
  2  6  2  0  0  0  0
  3  8  2  0  0  0  0
  3 16  1  0  0  0  0
  4  9  1  0  0  0  0
  4 16  2  0  0  0  0
  5 18  1  0  0  0  0
  6 20  1  0  0  0  0
  7 10  2  0  0  0  0
  7 19  1  0  0  0  0
  8 25  1  0  0  0  0
  9 25  2  0  0  0  0
 10 26  1  0  0  0  0
 11 12  2  0  0  0  0
 11 27  1  0  0  0  0
 12 29  1  0  0  0  0
 13 21  1  0  0  0  0
 13 26  2  0  0  0  0
 14 22  2  0  0  0  0
 14 28  1  0  0  0  0
 15 29  2  0  0  0  0
 15 30  1  0  0  0  0
 16 32  1  0  0  0  0
 17 32  1  0  0  0  0
 17 33  2  0  0  0  0
 17 34  1  0  0  0  0
 18 20  2  0  0  0  0
 18 39  1  0  0  0  0
 19 21  2  0  0  0  0
 19 40  1  0  0  0  0
 20 48  1  0  0  0  0
 21 41  1  0  0  0  0
 22 24  1  0  0  0  0
 22 51  1  0  0  0  0
 23 24  2  0  0  0  0
 23 31  1  0  0  0  0
 23 52  1  0  0  0  0
 24 70  1  0  0  0  0
 25 79  1  0  0  0  0
 26 80  1  0  0  0  0
 27 30  2  0  0  0  0
 27 79  1  0  0  0  0
 28 31  2  0  0  0  0
 28 81  1  0  0  0  0
 29 82  1  0  0  0  0
 30 83  1  0  0  0  0
 31 84  1  0  0  0  0
 32 64  2  0  0  0  0
 33 65  1  0  0  0  0
 33 68  1  0  0  0  0
 34 69  1  0  0  0  0
 34 74  2  0  0  0  0
 35 49  1  0  0  0  0
 35 71  1  0  0  0  0
 35 75  2  0  0  0  0
 36 60  1  0  0  0  0
 36 66  1  0  0  0  0
 36 76  2  0  0  0  0
 37 61  1  0  0  0  0
 37 72  1  0  0  0  0
 37 77  2  0  0  0  0
 38 67  1  0  0  0  0
 38 70  1  0  0  0  0
 38 78  2  0  0  0  0
 39 42  1  0  0  0  0
 40 49  1  0  0  0  0
 41 66  1  0  0  0  0
 42 44  1  0  0  0  0
 43 45  1  0  0  0  0
 43 46  1  0  0  0  0
 44 48  1  0  0  0  0
 45 50  1  0  0  0  0
 46 67  1  0  0  0  0
 47 50  1  0  0  0  0
 47 67  1  0  0  0  0
 48 71  1  0  0  0  0
 49 66  1  0  0  0  0
 50 65  1  0  0  0  0
 53 61  1  0  0  0  0
 54 62  1  0  0  0  0
 55 63  1  0  0  0  0
 56 63  1  0  0  0  0
 57 63  1  0  0  0  0
 58 73  1  0  0  0  0
 59 62  1  0  0  0  0
 59 80  1  0  0  0  0
 60 63  1  0  0  0  0
 60 72  1  0  0  0  0
 61 73  1  0  0  0  0
 62 81  1  0  0  0  0
 64 65  1  0  0  0  0
M  CHG  1  73   1
M  ISO  4  38 100  59 101  70 100  80 101
M  END
> <Batch ID>
0020

> <Smiles>
CNC(C)C(=O)NC(C(=O)N1Cc2cc([101O:1][101CH2:1]C(C)Oc3cc(C)c([100NH:0][100C:0](=O)N4CCCC(n5nc(-c6ccc(Oc7ccc(F)cc7F)cc6)c(C(N)=O)c5N)C4)c(C)c3Cl)ccc2CC1C(=O)NC1CCCc2ccccc21)C(C)(C)C

> <Shape>
0.274

> <Color>
0.087

> <Negative vol penalty>
0.000

$$$$

  -OEChem-04052316093D

 88 96  0     1  0  0  0  0  0999 V2000
  -23.8068  -32.9342   22.7077 C   0  0  0  0  0  0  0  0  0  0  0  0
  -24.3943  -32.1924   23.7275 C   0  0  0  0  0  0  0  0  0  0  0  0
  -23.1396   -9.8229   19.8755 C   0  0  0  0  0  0  0  0  0  0  0  0
  -23.9577   -9.7302   22.1469 C   0  0  0  0  0  0  0  0  0  0  0  0
  -23.8868  -32.4895   21.3888 C   0  0  0  0  0  0  0  0  0  0  0  0
  -25.0613  -31.0048   23.4290 C   0  0  0  0  0  0  0  0  0  0  0  0
  -30.6113  -27.0237   25.5890 C   0  0  0  0  0  0  0  0  0  0  0  0
  -22.4548   -8.6239   20.0731 C   0  0  0  0  0  0  0  0  0  0  0  0
  -23.2728   -8.5312   22.3446 C   0  0  0  0  0  0  0  0  0  0  0  0
  -30.9174  -25.7167   25.9654 C   0  0  0  0  0  0  0  0  0  0  0  0
  -20.1004   -7.5510   22.9731 C   0  0  0  0  0  0  0  0  0  0  0  0
  -19.3766   -7.4073   24.1567 C   0  0  0  0  0  0  0  0  0  0  0  0
  -31.0603  -25.0871   23.6411 C   0  0  0  0  0  0  0  0  0  0  0  0
  -31.8840  -16.7808   22.6449 C   0  0  0  0  0  0  0  0  0  0  0  0
  -20.7222   -5.4894   24.7468 C   0  0  0  0  0  0  0  0  0  0  0  0
  -23.8911  -10.3761   20.9123 C   0  0  0  0  0  0  0  0  0  0  0  0
  -24.1163  -12.9170   20.9359 C   0  0  0  0  0  0  0  0  0  0  0  0
  -24.5634  -31.3008   21.0727 C   0  0  0  0  0  0  0  0  0  0  0  0
  -30.5165  -27.3703   24.2335 C   0  0  0  0  0  0  0  0  0  0  0  0
  -25.1493  -30.5430   22.1047 C   0  0  0  0  0  0  0  0  0  0  0  0
  -30.7553  -26.3998   23.2501 C   0  0  0  0  0  0  0  0  0  0  0  0
  -30.3155  -18.3764   24.3111 C   0  0  0  0  0  0  0  0  0  0  0  0
  -31.7062  -18.4222   24.4088 C   0  0  0  0  0  0  0  0  0  0  0  0
  -30.4934  -16.7350   22.5472 C   0  0  0  0  0  0  0  0  0  0  0  0
  -22.5214   -7.9781   21.3077 C   0  0  0  0  0  0  0  0  0  0  0  0
  -31.1392  -24.7475   24.9915 C   0  0  0  0  0  0  0  0  0  0  0  0
  -21.1350   -6.6638   22.6762 C   0  0  0  0  0  0  0  0  0  0  0  0
  -19.6875   -6.3766   25.0436 C   0  0  0  0  0  0  0  0  0  0  0  0
  -21.4459   -5.6330   23.5630 C   0  0  0  0  0  0  0  0  0  0  0  0
  -32.4905  -17.6244   23.5757 C   0  0  0  0  0  0  0  0  0  0  0  0
  -29.7091  -17.5328   23.3803 C   0  0  0  0  0  0  0  0  0  0  0  0
  -24.5991  -11.6143   20.7086 C   0  0  0  0  0  0  0  0  0  0  0  0
  -25.1640  -13.7362   20.5929 C   0  0  0  0  0  0  0  0  0  0  0  0
  -22.8353  -13.3480   21.4144 C   0  0  0  0  0  0  0  0  0  0  0  0
  -28.2002  -28.4740   22.3571 C   0  0  0  0  0  0  0  0  0  0  0  0
  -30.5932  -28.6695   20.1759 C   0  0  0  0  0  0  0  0  0  0  0  0
  -33.6499  -27.5766   19.1228 C   0  0  0  0  0  0  0  0  0  0  0  0
  -30.5806  -15.0213   20.7028 C   0  0  0  0  0  0  0  0  0  0  0  0
  -24.5828  -30.8359   19.6381 C   0  0  0  0  0  0  0  0  0  0  0  0
  -30.2116  -28.7908   23.8438 C   0  0  0  0  0  0  0  0  0  0  0  0
  -30.6855  -26.7253   21.7812 C   0  0  0  0  0  0  0  0  0  0  0  0
  -25.6300  -29.7605   19.3604 C   0  0  0  0  0  0  0  0  0  0  0  0
  -29.5143  -12.7019   18.2208 C   0  0  0  0  0  0  0  0  0  0  0  0
  -25.5833  -28.6797   20.4358 C   0  0  0  0  0  0  0  0  0  0  0  0
  -28.1008  -12.3194   18.6654 C   0  0  0  0  0  0  0  0  0  0  0  0
  -30.4491  -12.9017   19.4124 C   0  0  0  0  0  0  0  0  0  0  0  0
  -28.5481  -13.4548   20.8785 C   0  0  0  0  0  0  0  0  0  0  0  0
  -25.9028  -29.2624   21.8178 C   0  0  1  0  0  0  0  0  0  0  0  0
  -29.6348  -28.9136   22.4368 C   0  0  1  0  0  0  0  0  0  0  0  0
  -27.5538  -13.3063   19.7153 C   0  0  2  0  0  0  0  0  0  0  0  0
  -29.4895  -19.2405   25.2141 C   0  0  0  0  0  0  0  0  0  0  0  0
  -35.3302  -27.8946   17.2863 C   0  0  0  0  0  0  0  0  0  0  0  0
  -34.8292  -22.6556   23.9715 C   0  0  0  0  0  0  0  0  0  0  0  0
  -28.8409  -27.0295   18.2919 C   0  0  0  0  0  0  0  0  0  0  0  0
  -30.8756  -26.5785   16.9045 C   0  0  0  0  0  0  0  0  0  0  0  0
  -30.0633  -28.9185   17.2001 C   0  0  0  0  0  0  0  0  0  0  0  0
  -33.3573  -24.0711   26.6270 C   0  0  0  0  0  0  0  0  0  0  0  0
  -35.7266  -28.4903   21.0232 C   0  0  0  0  0  0  0  0  0  0  0  0
  -32.3472  -19.3321   25.4148 C   0  0  0  0  0  0  0  0  0  0  0  0
  -32.8817  -21.6962   26.0181 C   0  0  0  0  0  0  0  0  0  0  0  0
  -31.1744  -27.7377   19.1401 C   0  0  1  0  0  0  0  0  0  0  0  0
  -34.8896  -28.3297   18.6753 C   0  0  2  0  0  0  0  0  0  0  0  0
  -33.5194  -23.3983   24.1755 C   0  0  1  0  0  0  0  0  0  0  0  0
  -30.2380  -27.5591   17.9117 C   0  0  0  0  0  0  0  0  0  0  0  0
  -32.8175  -23.1494   25.5256 C   0  0  2  0  0  0  0  0  0  1  0  0
  -25.8557  -11.6018   20.2561 N   0  0  0  0  0  0  0  0  0  0  0  0
  -26.1713  -12.9067   20.1961 N   0  0  0  0  0  0  0  0  0  0  0  0
  -30.3779  -28.1266   21.4506 N   0  0  0  0  0  0  0  0  0  0  0  0
  -29.8675  -13.8523   20.3627 N   0  0  0  0  0  0  0  0  0  0  0  0
  -25.3126  -15.0780   20.5949 N   0  0  0  0  0  0  0  0  0  0  0  0
  -21.8742  -12.3748   21.7200 N   0  0  0  0  0  0  0  0  0  0  0  0
  -29.9139  -15.8657   21.5900 N   0  0  0  0  0  0  0  0  0  0  0  0
  -27.3278  -29.4700   21.9617 N   0  0  0  0  0  0  0  0  0  0  0  0
  -32.4953  -28.2638   18.8131 N   0  0  0  0  0  0  0  0  0  0  0  0
  -36.0139  -28.0861   19.6228 N   0  3  0  0  0  0  0  0  0  0  0  0
  -32.3070  -20.7643   25.0145 N   0  3  0  0  0  0  0  0  0  0  0  0
  -22.5458  -14.5609   21.5508 O   0  0  0  0  0  0  0  0  0  0  0  0
  -27.9068  -27.3166   22.6326 O   0  0  0  0  0  0  0  0  0  0  0  0
  -30.3463  -29.8381   19.8675 O   0  0  0  0  0  0  0  0  0  0  0  0
  -33.7005  -26.4859   19.6870 O   0  0  0  0  0  0  0  0  0  0  0  0
  -31.6885  -15.2692   20.2200 O   0  0  0  0  0  0  0  0  0  0  0  0
  -21.8531   -6.8082   21.5010 O   0  0  0  0  0  0  0  0  0  0  0  0
  -31.4375  -23.4708   25.3562 O   0  0  0  0  0  0  0  0  0  1  0  0
  -18.9934   -6.2397   26.1810 F   0  0  0  0  0  0  0  0  0  0  0  0
  -22.4396   -4.7784   23.2838 F   0  0  0  0  0  0  0  0  0  0  0  0
  -33.7919  -24.7358   24.0794 F   0  0  0  0  0  0  0  0  0  0  0  0
  -34.2145  -17.6474   23.6686 Cl  0  0  0  0  0  0  0  0  0  0  0  0
  -27.9796  -17.4769   23.2605 Cl  0  0  0  0  0  0  0  0  0  0  0  0
  1  2  1  0  0  0  0
  1  5  2  0  0  0  0
  2  6  2  0  0  0  0
  3  8  2  0  0  0  0
  3 16  1  0  0  0  0
  4  9  1  0  0  0  0
  4 16  2  0  0  0  0
  5 18  1  0  0  0  0
  6 20  1  0  0  0  0
  7 10  2  0  0  0  0
  7 19  1  0  0  0  0
  8 25  1  0  0  0  0
  9 25  2  0  0  0  0
 10 26  1  0  0  0  0
 11 12  2  0  0  0  0
 11 27  1  0  0  0  0
 12 28  1  0  0  0  0
 13 21  1  0  0  0  0
 13 26  2  0  0  0  0
 14 24  1  0  0  0  0
 14 30  2  0  0  0  0
 15 28  2  0  0  0  0
 15 29  1  0  0  0  0
 16 32  1  0  0  0  0
 17 32  1  0  0  0  0
 17 33  2  0  0  0  0
 17 34  1  0  0  0  0
 18 20  2  0  0  0  0
 18 39  1  0  0  0  0
 19 21  2  0  0  0  0
 19 40  1  0  0  0  0
 20 48  1  0  0  0  0
 21 41  1  0  0  0  0
 22 23  2  0  0  0  0
 22 31  1  0  0  0  0
 22 51  1  0  0  0  0
 23 30  1  0  0  0  0
 23 59  1  0  0  0  0
 24 31  2  0  0  0  0
 24 72  1  0  0  0  0
 25 82  1  0  0  0  0
 26 83  1  0  0  0  0
 27 29  2  0  0  0  0
 27 82  1  0  0  0  0
 28 84  1  0  0  0  0
 29 85  1  0  0  0  0
 30 87  1  0  0  0  0
 31 88  1  0  0  0  0
 32 66  2  0  0  0  0
 33 67  1  0  0  0  0
 33 70  1  0  0  0  0
 34 71  1  0  0  0  0
 34 77  2  0  0  0  0
 35 49  1  0  0  0  0
 35 73  1  0  0  0  0
 35 78  2  0  0  0  0
 36 61  1  0  0  0  0
 36 68  1  0  0  0  0
 36 79  2  0  0  0  0
 37 62  1  0  0  0  0
 37 74  1  0  0  0  0
 37 80  2  0  0  0  0
 38 69  1  0  0  0  0
 38 72  1  0  0  0  0
 38 81  2  0  0  0  0
 39 42  1  0  0  0  0
 40 49  1  0  0  0  0
 41 68  1  0  0  0  0
 42 44  1  0  0  0  0
 43 45  1  0  0  0  0
 43 46  1  0  0  0  0
 44 48  1  0  0  0  0
 45 50  1  0  0  0  0
 46 69  1  0  0  0  0
 47 50  1  0  0  0  0
 47 69  1  0  0  0  0
 48 73  1  0  0  0  0
 49 68  1  0  0  0  0
 50 67  1  0  0  0  0
 52 62  1  0  0  0  0
 53 63  1  0  0  0  0
 54 64  1  0  0  0  0
 55 64  1  0  0  0  0
 56 64  1  0  0  0  0
 57 65  1  0  0  0  0
 58 75  1  0  0  0  0
 59 76  1  0  0  0  0
 60 65  1  0  0  0  0
 60 76  1  0  0  0  0
 61 64  1  0  0  0  0
 61 74  1  0  0  0  0
 62 75  1  0  0  0  0
 63 65  1  0  0  0  0
 63 86  1  0  0  0  0
 65 83  1  0  0  0  0
 66 67  1  0  0  0  0
M  CHG  2  75   1  76   1
M  ISO  4  38 100  65 101  72 100  83 101
M  END
> <Batch ID>
0020

> <Smiles>
CNC(C)C(=O)NC(C(=O)N1Cc2cc([101O:1][101C:1](C)(CNCc3c(Cl)cc([100NH:0][100C:0](=O)N4CCCC(n5nc(-c6ccc(Oc7ccc(F)cc7F)cc6)c(C(N)=O)c5N)C4)c(Cl)c3C)C(C)F)ccc2CC1C(=O)NC1CCCc2ccccc21)C(C)(C)C

> <Shape>
0.258

> <Color>
0.197

> <Negative vol penalty>
0.000

$$$$

  -OEChem-04052316093D

 92100  0     1  0  0  0  0  0999 V2000
  -23.6836  -33.4514   19.8447 C   0  0  0  0  0  0  0  0  0  0  0  0
  -25.0696  -33.5404   19.7819 C   0  0  0  0  0  0  0  0  0  0  0  0
  -24.0457  -15.2097   22.5501 C   0  0  0  0  0  0  0  0  0  0  0  0
  -24.1784  -15.9477   20.2534 C   0  0  0  0  0  0  0  0  0  0  0  0
  -23.0836  -32.2684   20.2711 C   0  0  0  0  0  0  0  0  0  0  0  0
  -25.8558  -32.4428   20.1341 C   0  0  0  0  0  0  0  0  0  0  0  0
  -31.7104  -26.5651   20.8949 C   0  0  0  0  0  0  0  0  0  0  0  0
  -23.5093  -16.4442   22.9158 C   0  0  0  0  0  0  0  0  0  0  0  0
  -23.6420  -17.1823   20.6191 C   0  0  0  0  0  0  0  0  0  0  0  0
  -31.6953  -25.1888   21.1165 C   0  0  0  0  0  0  0  0  0  0  0  0
  -21.7693  -19.2733   24.3935 C   0  0  0  0  0  0  0  0  0  0  0  0
  -20.6682  -19.2740   25.2498 C   0  0  0  0  0  0  0  0  0  0  0  0
  -29.7972  -24.9784   19.6427 C   0  0  0  0  0  0  0  0  0  0  0  0
  -19.4078  -17.9992   23.6301 C   0  0  0  0  0  0  0  0  0  0  0  0
  -24.3803  -14.9614   21.2188 C   0  0  0  0  0  0  0  0  0  0  0  0
  -24.3362  -12.4211   20.9893 C   0  0  0  0  0  0  0  0  0  0  0  0
  -23.8639  -31.1603   20.6403 C   0  0  0  0  0  0  0  0  0  0  0  0
  -30.7606  -27.1609   20.0526 C   0  0  0  0  0  0  0  0  0  0  0  0
  -25.2685  -31.2322   20.5440 C   0  0  0  0  0  0  0  0  0  0  0  0
  -29.8040  -26.3622   19.4100 C   0  0  0  0  0  0  0  0  0  0  0  0
  -23.3074  -17.4305   21.9503 C   0  0  0  0  0  0  0  0  0  0  0  0
  -30.7368  -24.3955   20.4927 C   0  0  0  0  0  0  0  0  0  0  0  0
  -21.6896  -18.6357   23.1555 C   0  0  0  0  0  0  0  0  0  0  0  0
  -19.4875  -18.6369   24.8682 C   0  0  0  0  0  0  0  0  0  0  0  0
  -20.5088  -17.9986   22.7738 C   0  0  0  0  0  0  0  0  0  0  0  0
  -24.9350  -13.6865   20.8405 C   0  0  0  0  0  0  0  0  0  0  0  0
  -25.2609  -11.5419   20.4809 C   0  0  0  0  0  0  0  0  0  0  0  0
  -27.7763  -19.9283   20.1228 C   0  0  0  0  0  0  0  0  0  0  0  0
  -26.5566  -20.1152   19.5587 C   0  0  0  0  0  0  0  0  0  0  0  0
  -28.8429  -19.2140   19.4405 C   0  0  0  0  0  0  0  0  0  0  0  0
  -28.6284  -18.1170   18.7179 C   0  0  0  0  0  0  0  0  0  0  0  0
  -23.0585  -12.0717   21.5378 C   0  0  0  0  0  0  0  0  0  0  0  0
  -28.4642  -29.3247   20.4380 C   0  0  0  0  0  0  0  0  0  0  0  0
  -28.2100  -29.0585   17.2151 C   0  0  0  0  0  0  0  0  0  0  0  0
  -28.2685  -26.3970   14.7799 C   0  0  0  0  0  0  0  0  0  0  0  0
  -28.7951  -15.1786   18.6090 C   0  0  0  0  0  0  0  0  0  0  0  0
  -23.1622  -29.9020   21.0870 C   0  0  0  0  0  0  0  0  0  0  0  0
  -30.8070  -28.6434   19.8029 C   0  0  0  0  0  0  0  0  0  0  0  0
  -28.7750  -26.9502   18.4805 C   0  0  0  0  0  0  0  0  0  0  0  0
  -25.4128  -20.7839   20.2946 C   0  0  0  0  0  0  0  0  0  0  0  0
  -24.0754  -28.9534   21.8568 C   0  0  0  0  0  0  0  0  0  0  0  0
  -25.6273  -20.9391   21.7926 C   0  0  0  0  0  0  0  0  0  0  0  0
  -29.4640  -12.5430   21.0404 C   0  0  0  0  0  0  0  0  0  0  0  0
  -25.3721  -28.7433   21.0894 C   0  0  0  0  0  0  0  0  0  0  0  0
  -28.6529  -11.3815   20.4772 C   0  0  0  0  0  0  0  0  0  0  0  0
  -27.0384  -21.4268   22.0679 C   0  0  0  0  0  0  0  0  0  0  0  0
  -30.0631  -13.4108   19.9370 C   0  0  0  0  0  0  0  0  0  0  0  0
  -28.2136  -12.7827   18.3986 C   0  0  0  0  0  0  0  0  0  0  0  0
  -26.1446  -30.0613   20.9512 C   0  0  1  0  0  0  0  0  0  0  0  0
  -29.4726  -29.2117   19.3298 C   0  0  1  0  0  0  0  0  0  0  0  0
  -27.6104  -11.8202   19.4368 C   0  0  2  0  0  0  0  0  0  0  0  0
  -28.1151  -20.4375   21.5436 C   0  0  1  0  0  0  0  0  0  0  0  0
  -26.1566  -19.7006   18.1612 C   0  0  0  0  0  0  0  0  0  0  0  0
  -28.5357  -19.6914   23.8920 C   0  0  0  0  0  0  0  0  0  0  0  0
  -33.1120  -16.1367   20.7102 C   0  0  0  0  0  0  0  0  0  0  0  0
  -28.9206  -26.4168   12.3567 C   0  0  0  0  0  0  0  0  0  0  0  0
  -30.6851  -16.4277   15.8029 C   0  0  0  0  0  0  0  0  0  0  0  0
  -29.5195  -18.6411   15.8174 C   0  0  0  0  0  0  0  0  0  0  0  0
  -28.2086  -16.5460   16.1489 C   0  0  0  0  0  0  0  0  0  0  0  0
  -25.2303  -29.4855   16.7158 C   0  0  0  0  0  0  0  0  0  0  0  0
  -25.4193  -27.9798   14.7245 C   0  0  0  0  0  0  0  0  0  0  0  0
  -26.7097  -30.1134   14.7997 C   0  0  0  0  0  0  0  0  0  0  0  0
  -30.2521  -24.2365   15.1762 C   0  0  0  0  0  0  0  0  0  0  0  0
  -28.2107  -19.2378   22.5140 C   0  0  0  0  0  0  0  0  0  0  0  0
  -29.4572  -21.2087   21.5812 C   0  0  0  0  0  0  0  0  0  0  0  0
  -31.6903  -16.4917   20.2976 C   0  0  0  0  0  0  0  0  0  0  0  0
  -31.2217  -15.7170   19.0717 C   0  0  0  0  0  0  0  0  0  0  0  0
  -29.4529  -22.3986   20.6337 C   0  0  0  0  0  0  0  0  0  1  0  0
  -29.7359  -17.3744   18.0098 C   0  0  2  0  0  0  0  0  0  0  0  0
  -27.4164  -28.1848   16.2739 C   0  0  1  0  0  0  0  0  0  0  0  0
  -29.3701  -26.1076   13.7763 C   0  0  2  0  0  0  0  0  0  0  0  0
  -29.5518  -17.2384   16.4626 C   0  0  0  0  0  0  0  0  0  0  0  0
  -26.2017  -28.9317   15.6543 C   0  0  0  0  0  0  0  0  0  0  0  0
  -26.1463  -13.6213   20.2816 N   0  0  0  0  0  0  0  0  0  0  0  0
  -26.3163  -12.3044   20.0747 N   0  0  0  0  0  0  0  0  0  0  0  0
  -28.8576  -28.4055   18.2734 N   0  0  0  0  0  0  0  0  0  0  0  0
  -29.0492  -13.8439   18.9670 N   0  0  0  0  0  0  0  0  0  0  0  0
  -25.2660  -10.1987   20.3463 N   0  0  0  0  0  0  0  0  0  0  0  0
  -22.2330  -13.0988   22.0154 N   0  0  0  0  0  0  0  0  0  0  0  0
  -27.2547  -29.8651   20.0451 N   0  0  0  0  0  0  0  0  0  0  0  0
  -28.3671  -27.6732   15.2926 N   0  0  0  0  0  0  0  0  0  0  0  0
  -29.8657  -16.0820   18.6680 N   0  0  0  0  0  0  0  0  0  0  0  0
  -29.7665  -24.6725   13.8416 N   0  3  0  0  0  0  0  0  0  0  0  0
  -22.6674  -10.8825   21.6176 O   0  0  0  0  0  0  0  0  0  0  0  0
  -28.7611  -28.9480   21.5657 O   0  0  0  0  0  0  0  0  0  0  0  0
  -28.2595  -30.2746   17.0145 O   0  0  0  0  0  0  0  0  0  0  0  0
  -27.4047  -25.5745   15.0764 O   0  0  0  0  0  0  0  0  0  0  0  0
  -27.6673  -15.5505   18.2583 O   0  0  0  0  0  0  0  0  0  0  0  0
  -22.7838  -18.6352   22.3068 O   0  0  0  0  0  0  0  0  0  0  0  0
  -30.7194  -23.0519   20.7078 O   0  0  0  0  0  0  0  0  0  1  0  0
  -18.4307  -18.6363   25.6912 F   0  0  0  0  0  0  0  0  0  0  0  0
  -20.4267  -17.3833   21.5861 F   0  0  0  0  0  0  0  0  0  0  0  0
  1  2  1  0  0  0  0
  1  5  2  0  0  0  0
  2  6  2  0  0  0  0
  3  8  2  0  0  0  0
  3 15  1  0  0  0  0
  4  9  1  0  0  0  0
  4 15  2  0  0  0  0
  5 17  1  0  0  0  0
  6 19  1  0  0  0  0
  7 10  2  0  0  0  0
  7 18  1  0  0  0  0
  8 21  1  0  0  0  0
  9 21  2  0  0  0  0
 10 22  1  0  0  0  0
 11 12  2  0  0  0  0
 11 23  1  0  0  0  0
 12 24  1  0  0  0  0
 13 20  1  0  0  0  0
 13 22  2  0  0  0  0
 14 24  2  0  0  0  0
 14 25  1  0  0  0  0
 15 26  1  0  0  0  0
 16 26  1  0  0  0  0
 16 27  2  0  0  0  0
 16 32  1  0  0  0  0
 17 19  2  0  0  0  0
 17 37  1  0  0  0  0
 18 20  2  0  0  0  0
 18 38  1  0  0  0  0
 19 49  1  0  0  0  0
 20 39  1  0  0  0  0
 21 89  1  0  0  0  0
 22 90  1  0  0  0  0
 23 25  2  0  0  0  0
 23 89  1  0  0  0  0
 24 91  1  0  0  0  0
 25 92  1  0  0  0  0
 26 74  2  0  0  0  0
 27 75  1  0  0  0  0
 27 78  1  0  0  0  0
 28 29  2  0  0  0  0
 28 30  1  0  0  0  0
 28 52  1  0  0  0  0
 29 40  1  0  0  0  0
 29 53  1  0  0  0  0
 30 31  2  0  0  0  0
 31 69  1  0  0  0  0
 32 79  1  0  0  0  0
 32 84  2  0  0  0  0
 33 50  1  0  0  0  0
 33 80  1  0  0  0  0
 33 85  2  0  0  0  0
 34 70  1  0  0  0  0
 34 76  1  0  0  0  0
 34 86  2  0  0  0  0
 35 71  1  0  0  0  0
 35 81  1  0  0  0  0
 35 87  2  0  0  0  0
 36 77  1  0  0  0  0
 36 82  1  0  0  0  0
 36 88  2  0  0  0  0
 37 41  1  0  0  0  0
 38 50  1  0  0  0  0
 39 76  1  0  0  0  0
 40 42  1  0  0  0  0
 41 44  1  0  0  0  0
 42 46  1  0  0  0  0
 43 45  1  0  0  0  0
 43 47  1  0  0  0  0
 44 49  1  0  0  0  0
 45 51  1  0  0  0  0
 46 52  1  0  0  0  0
 47 77  1  0  0  0  0
 48 51  1  0  0  0  0
 48 77  1  0  0  0  0
 49 80  1  0  0  0  0
 50 76  1  0  0  0  0
 51 75  1  0  0  0  0
 52 64  1  0  0  0  0
 52 65  1  0  0  0  0
 54 64  1  0  0  0  0
 55 66  1  0  0  0  0
 56 71  1  0  0  0  0
 57 72  1  0  0  0  0
 58 72  1  0  0  0  0
 59 72  1  0  0  0  0
 60 73  1  0  0  0  0
 61 73  1  0  0  0  0
 62 73  1  0  0  0  0
 63 83  1  0  0  0  0
 65 68  1  0  0  0  0
 66 67  1  0  0  0  0
 67 82  1  0  0  0  0
 68 90  1  0  0  0  0
 69 72  1  0  0  0  0
 69 82  1  0  0  0  0
 70 73  1  0  0  0  0
 70 81  1  0  0  0  0
 71 83  1  0  0  0  0
 74 75  1  0  0  0  0
M  CHG  1  83   1
M  ISO  4  36 100  68 101  82 100  90 101
M  END
> <Batch ID>
0020

> <Smiles>
CCC[100N:0](C(C=CC1=C(C)CCCC1(CC)C[101CH2:1][101O:1]c1ccc2c(c1)CN(C(=O)C(NC(=O)C(C)NC)C(C)(C)C)C(C(=O)NC1CCCc3ccccc31)C2)C(C)(C)C)[100C:0](=O)N1CCCC(n2nc(-c3ccc(Oc4ccc(F)cc4F)cc3)c(C(N)=O)c2N)C1

> <Shape>
0.222

> <Color>
0.075

> <Negative vol penalty>
0.000

$$$$

  -OEChem-04052316093D

 89 97  0     1  0  0  0  0  0999 V2000
  -17.0292  -29.0204   19.7055 C   0  0  0  0  0  0  0  0  0  0  0  0
  -18.3093  -28.8603   19.1849 C   0  0  0  0  0  0  0  0  0  0  0  0
  -27.7344  -12.9940   19.8506 C   0  0  0  0  0  0  0  0  0  0  0  0
  -25.8585  -13.9593   21.0281 C   0  0  0  0  0  0  0  0  0  0  0  0
  -16.8519  -29.6551   20.9342 C   0  0  0  0  0  0  0  0  0  0  0  0
  -19.4129  -29.3359   19.8922 C   0  0  0  0  0  0  0  0  0  0  0  0
  -23.2275  -26.0072   20.0085 C   0  0  0  0  0  0  0  0  0  0  0  0
  -27.3264  -11.7198   20.2452 C   0  0  0  0  0  0  0  0  0  0  0  0
  -25.4505  -12.6851   21.4226 C   0  0  0  0  0  0  0  0  0  0  0  0
  -24.0159  -25.9020   18.8634 C   0  0  0  0  0  0  0  0  0  0  0  0
  -23.8170  -10.0605   20.0574 C   0  0  0  0  0  0  0  0  0  0  0  0
  -22.4616   -9.7514   19.9433 C   0  0  0  0  0  0  0  0  0  0  0  0
  -28.6336  -23.7551   17.8760 C   0  0  0  0  0  0  0  0  0  0  0  0
  -30.4257  -25.3052   17.4042 C   0  0  0  0  0  0  0  0  0  0  0  0
  -25.6911  -27.2972   19.8959 C   0  0  0  0  0  0  0  0  0  0  0  0
  -22.3529   -9.3500   22.3233 C   0  0  0  0  0  0  0  0  0  0  0  0
  -27.0005  -14.1137   20.2421 C   0  0  0  0  0  0  0  0  0  0  0  0
  -29.1398  -24.8304   17.1459 C   0  0  0  0  0  0  0  0  0  0  0  0
  -27.0442  -16.1208   18.6682 C   0  0  0  0  0  0  0  0  0  0  0  0
  -17.9547  -30.1301   21.6615 C   0  0  0  0  0  0  0  0  0  0  0  0
  -23.6609  -26.7684   21.1035 C   0  0  0  0  0  0  0  0  0  0  0  0
  -19.2501  -29.9787   21.1312 C   0  0  0  0  0  0  0  0  0  0  0  0
  -24.9075  -27.4084   21.0547 C   0  0  0  0  0  0  0  0  0  0  0  0
  -29.4133  -23.1545   18.8645 C   0  0  0  0  0  0  0  0  0  0  0  0
  -26.1844  -11.5654   21.0311 C   0  0  0  0  0  0  0  0  0  0  0  0
  -25.2466  -26.5494   18.8059 C   0  0  0  0  0  0  0  0  0  0  0  0
  -24.4404  -10.0143   21.3044 C   0  0  0  0  0  0  0  0  0  0  0  0
  -21.7296   -9.3962   21.0763 C   0  0  0  0  0  0  0  0  0  0  0  0
  -31.2055  -24.7046   18.3927 C   0  0  0  0  0  0  0  0  0  0  0  0
  -23.7083   -9.6591   22.4373 C   0  0  0  0  0  0  0  0  0  0  0  0
  -30.6992  -23.6293   19.1228 C   0  0  0  0  0  0  0  0  0  0  0  0
  -27.4217  -15.4302   19.8354 C   0  0  0  0  0  0  0  0  0  0  0  0
  -27.7100  -17.3195   18.7479 C   0  0  0  0  0  0  0  0  0  0  0  0
  -28.3136  -25.4683   16.0976 C   0  0  0  0  0  0  0  0  0  0  0  0
  -26.1698  -15.7151   17.6068 C   0  0  0  0  0  0  0  0  0  0  0  0
  -27.8620  -24.7633   15.0310 C   0  0  0  0  0  0  0  0  0  0  0  0
  -22.5744  -29.3452   22.6147 C   0  0  0  0  0  0  0  0  0  0  0  0
  -25.0131  -28.6988   24.6536 C   0  0  0  0  0  0  0  0  0  0  0  0
  -28.0528  -27.2332   25.1625 C   0  0  0  0  0  0  0  0  0  0  0  0
  -29.0428  -21.7233   22.0867 C   0  0  0  0  0  0  0  0  0  0  0  0
  -17.7095  -30.8517   22.9630 C   0  0  0  0  0  0  0  0  0  0  0  0
  -22.8107  -26.8501   22.3417 C   0  0  0  0  0  0  0  0  0  0  0  0
  -25.4275  -28.2213   22.2111 C   0  0  0  0  0  0  0  0  0  0  0  0
  -18.9608  -30.9933   23.8259 C   0  0  0  0  0  0  0  0  0  0  0  0
  -31.3834  -18.8657   21.8479 C   0  0  0  0  0  0  0  0  0  0  0  0
  -20.1393  -31.4704   22.9832 C   0  0  0  0  0  0  0  0  0  0  0  0
  -30.5009  -17.7594   21.2725 C   0  0  0  0  0  0  0  0  0  0  0  0
  -30.5737  -19.8736   22.6579 C   0  0  0  0  0  0  0  0  0  0  0  0
  -28.5477  -19.3599   21.3367 C   0  0  0  0  0  0  0  0  0  0  0  0
  -20.4742  -30.4590   21.8803 C   0  0  1  0  0  0  0  0  0  0  0  0
  -23.1202  -28.0732   23.1993 C   0  0  1  0  0  0  0  0  0  0  0  0
  -29.3260  -18.3533   20.4761 C   0  0  2  0  0  0  0  0  0  0  0  0
  -27.0146  -25.3400   13.9195 C   0  0  0  0  0  0  0  0  0  0  0  0
  -28.1526  -23.2965   14.8203 C   0  0  0  0  0  0  0  0  0  0  0  0
  -30.0730  -26.4383   26.4212 C   0  0  0  0  0  0  0  0  0  0  0  0
  -26.0858  -22.4562   21.5584 C   0  0  0  0  0  0  0  0  0  0  0  0
  -27.5742  -24.4368   21.9887 C   0  0  0  0  0  0  0  0  0  0  0  0
  -25.9480  -31.5750   24.2489 C   0  0  0  0  0  0  0  0  0  0  0  0
  -28.1576  -30.9208   25.2276 C   0  0  0  0  0  0  0  0  0  0  0  0
  -26.0861  -30.7553   26.6076 C   0  0  0  0  0  0  0  0  0  0  0  0
  -26.7622  -24.6568   25.8372 C   0  0  0  0  0  0  0  0  0  0  0  0
  -28.8698  -22.0045   19.6432 C   0  0  0  0  0  0  0  0  0  0  0  0
  -27.9884  -26.9280   16.3690 C   0  0  0  0  0  0  0  0  0  0  0  0
  -27.2673  -27.1380   17.6986 C   0  0  0  0  0  0  0  0  0  1  0  0
  -26.4675  -29.0941   24.7402 C   0  0  1  0  0  0  0  0  0  0  0  0
  -28.5633  -26.3318   26.2721 C   0  0  2  0  0  0  0  0  0  0  0  0
  -27.2946  -23.2489   21.0771 C   0  0  0  0  0  0  0  0  0  0  0  0
  -26.6544  -30.5726   25.1833 C   0  0  0  0  0  0  0  0  0  0  0  0
  -28.2623  -16.1317   20.6004 N   0  0  0  0  0  0  0  0  0  0  0  0
  -28.4185  -17.2756   19.9125 N   0  0  0  0  0  0  0  0  0  0  0  0
  -24.5568  -28.2761   23.3970 N   0  0  0  0  0  0  0  0  0  0  0  0
  -29.4385  -20.3897   21.8924 N   0  0  0  0  0  0  0  0  0  0  0  0
  -27.7527  -18.3962   17.9347 N   0  0  0  0  0  0  0  0  0  0  0  0
  -25.5683  -14.4515   17.6829 N   0  0  0  0  0  0  0  0  0  0  0  0
  -21.2052  -29.3368   22.4287 N   0  0  0  0  0  0  0  0  0  0  0  0
  -27.1032  -28.1211   25.6220 N   0  0  0  0  0  0  0  0  0  0  0  0
  -28.4716  -22.3871   20.9904 N   0  0  0  0  0  0  0  0  0  0  0  0
  -28.2185  -24.9107   25.9849 N   0  3  0  0  0  0  0  0  0  0  0  0
  -25.9419  -16.4446   16.6122 O   0  0  0  0  0  0  0  0  0  0  0  0
  -23.3387  -30.2666   22.3531 O   0  0  0  0  0  0  0  0  0  0  0  0
  -24.3096  -28.7560   25.6653 O   0  0  0  0  0  0  0  0  0  0  0  0
  -28.4588  -27.1598   24.0048 O   0  0  0  0  0  0  0  0  0  0  0  0
  -29.2003  -22.2913   23.1750 O   0  0  0  0  0  0  0  0  0  0  0  0
  -25.7859  -10.3222   21.4161 O   0  0  0  0  0  0  0  0  0  0  0  0
  -26.0178  -26.4489   17.6892 O   0  0  0  0  0  0  0  0  0  1  0  0
  -20.4276   -9.1009   20.9668 F   0  0  0  0  0  0  0  0  0  0  0  0
  -32.4399  -25.1608   18.6414 F   0  0  0  0  0  0  0  0  0  0  0  0
  -24.3014   -9.6141   23.6382 F   0  0  0  0  0  0  0  0  0  0  0  0
  -31.4560  -23.0591   20.0709 F   0  0  0  0  0  0  0  0  0  0  0  0
  1  2  1  0  0  0  0
  1  5  2  0  0  0  0
  2  6  2  0  0  0  0
  3  8  2  0  0  0  0
  3 17  1  0  0  0  0
  4  9  1  0  0  0  0
  4 17  2  0  0  0  0
  5 20  1  0  0  0  0
  6 22  1  0  0  0  0
  7 10  2  0  0  0  0
  7 21  1  0  0  0  0
  8 25  1  0  0  0  0
  9 25  2  0  0  0  0
 10 26  1  0  0  0  0
 11 12  2  0  0  0  0
 11 27  1  0  0  0  0
 12 28  1  0  0  0  0
 13 18  2  0  0  0  0
 13 24  1  0  0  0  0
 14 18  1  0  0  0  0
 14 29  2  0  0  0  0
 15 23  1  0  0  0  0
 15 26  2  0  0  0  0
 16 28  2  0  0  0  0
 16 30  1  0  0  0  0
 17 32  1  0  0  0  0
 18 34  1  0  0  0  0
 19 32  1  0  0  0  0
 19 33  2  0  0  0  0
 19 35  1  0  0  0  0
 20 22  2  0  0  0  0
 20 41  1  0  0  0  0
 21 23  2  0  0  0  0
 21 42  1  0  0  0  0
 22 50  1  0  0  0  0
 23 43  1  0  0  0  0
 24 31  2  0  0  0  0
 24 62  1  0  0  0  0
 25 84  1  0  0  0  0
 26 85  1  0  0  0  0
 27 30  2  0  0  0  0
 27 84  1  0  0  0  0
 28 86  1  0  0  0  0
 29 31  1  0  0  0  0
 29 87  1  0  0  0  0
 30 88  1  0  0  0  0
 31 89  1  0  0  0  0
 32 69  2  0  0  0  0
 33 70  1  0  0  0  0
 33 73  1  0  0  0  0
 34 36  2  0  0  0  0
 34 63  1  0  0  0  0
 35 74  1  0  0  0  0
 35 79  2  0  0  0  0
 36 53  1  0  0  0  0
 36 54  1  0  0  0  0
 37 51  1  0  0  0  0
 37 75  1  0  0  0  0
 37 80  2  0  0  0  0
 38 65  1  0  0  0  0
 38 71  1  0  0  0  0
 38 81  2  0  0  0  0
 39 66  1  0  0  0  0
 39 76  1  0  0  0  0
 39 82  2  0  0  0  0
 40 72  1  0  0  0  0
 40 77  1  0  0  0  0
 40 83  2  0  0  0  0
 41 44  1  0  0  0  0
 42 51  1  0  0  0  0
 43 71  1  0  0  0  0
 44 46  1  0  0  0  0
 45 47  1  0  0  0  0
 45 48  1  0  0  0  0
 46 50  1  0  0  0  0
 47 52  1  0  0  0  0
 48 72  1  0  0  0  0
 49 52  1  0  0  0  0
 49 72  1  0  0  0  0
 50 75  1  0  0  0  0
 51 71  1  0  0  0  0
 52 70  1  0  0  0  0
 55 66  1  0  0  0  0
 56 67  1  0  0  0  0
 57 67  1  0  0  0  0
 58 68  1  0  0  0  0
 59 68  1  0  0  0  0
 60 68  1  0  0  0  0
 61 78  1  0  0  0  0
 62 77  1  0  0  0  0
 63 64  1  0  0  0  0
 64 85  1  0  0  0  0
 65 68  1  0  0  0  0
 65 76  1  0  0  0  0
 66 78  1  0  0  0  0
 67 77  1  0  0  0  0
 69 70  1  0  0  0  0
M  CHG  1  78   1
M  ISO  4  40 100  64 101  77 100  85 101
M  END
> <Batch ID>
0020

> <Smiles>
CNC(C)C(=O)NC(C(=O)N1Cc2cc([101O:1][101CH2:1]CC(=C(C)C)c3cc(F)c(F)c(C[100N:0](C(C)C)[100C:0](=O)N4CCCC(n5nc(-c6ccc(Oc7ccc(F)cc7F)cc6)c(C(N)=O)c5N)C4)c3)ccc2CC1C(=O)NC1CCCc2ccccc21)C(C)(C)C

> <Shape>
0.254

> <Color>
0.055

> <Negative vol penalty>
0.000

$$$$

  -OEChem-04052316093D

 83 91  0     1  0  0  0  0  0999 V2000
  -28.4400  -36.1499   24.1456 C   0  0  0  0  0  0  0  0  0  0  0  0
  -28.7965  -35.0354   23.3932 C   0  0  0  0  0  0  0  0  0  0  0  0
  -22.6524  -10.3273   22.2306 C   0  0  0  0  0  0  0  0  0  0  0  0
  -23.9150   -9.7941   20.2410 C   0  0  0  0  0  0  0  0  0  0  0  0
  -27.4408  -36.0463   25.1124 C   0  0  0  0  0  0  0  0  0  0  0  0
  -28.1546  -33.8163   23.6079 C   0  0  0  0  0  0  0  0  0  0  0  0
  -26.8147  -29.5704   19.4028 C   0  0  0  0  0  0  0  0  0  0  0  0
  -22.0907   -9.0507   22.2164 C   0  0  0  0  0  0  0  0  0  0  0  0
  -23.3534   -8.5174   20.2268 C   0  0  0  0  0  0  0  0  0  0  0  0
  -27.4485  -28.3855   19.0311 C   0  0  0  0  0  0  0  0  0  0  0  0
  -23.0068   -5.9163   23.0938 C   0  0  0  0  0  0  0  0  0  0  0  0
  -22.9476   -5.2207   24.3013 C   0  0  0  0  0  0  0  0  0  0  0  0
  -25.9751  -27.1481   20.4862 C   0  0  0  0  0  0  0  0  0  0  0  0
  -20.5408   -5.1115   24.1204 C   0  0  0  0  0  0  0  0  0  0  0  0
  -23.5645  -10.6991   21.2429 C   0  0  0  0  0  0  0  0  0  0  0  0
  -25.3302  -12.4184   21.9016 C   0  0  0  0  0  0  0  0  0  0  0  0
  -26.7796  -34.8277   25.3324 C   0  0  0  0  0  0  0  0  0  0  0  0
  -25.7617  -29.5542   20.3287 C   0  0  0  0  0  0  0  0  0  0  0  0
  -27.1465  -33.6959   24.5795 C   0  0  0  0  0  0  0  0  0  0  0  0
  -25.3279  -28.3339   20.8660 C   0  0  0  0  0  0  0  0  0  0  0  0
  -22.4412   -8.1457   21.2145 C   0  0  0  0  0  0  0  0  0  0  0  0
  -27.0306  -27.1744   19.5751 C   0  0  0  0  0  0  0  0  0  0  0  0
  -21.8330   -6.2097   22.3995 C   0  0  0  0  0  0  0  0  0  0  0  0
  -21.7146   -4.8182   24.8146 C   0  0  0  0  0  0  0  0  0  0  0  0
  -20.6001   -5.8072   22.9128 C   0  0  0  0  0  0  0  0  0  0  0  0
  -24.1447  -12.0179   21.2568 C   0  0  0  0  0  0  0  0  0  0  0  0
  -25.4427  -13.7566   21.6133 C   0  0  0  0  0  0  0  0  0  0  0  0
  -26.2479  -11.6495   22.6906 C   0  0  0  0  0  0  0  0  0  0  0  0
  -25.2893  -30.8098   23.2104 C   0  0  0  0  0  0  0  0  0  0  0  0
  -22.2964  -29.6257   22.8074 C   0  0  0  0  0  0  0  0  0  0  0  0
  -20.2604  -27.3574   21.2723 C   0  0  0  0  0  0  0  0  0  0  0  0
  -25.1766  -17.6900   17.5124 C   0  0  0  0  0  0  0  0  0  0  0  0
  -25.7387  -34.7527   26.4212 C   0  0  0  0  0  0  0  0  0  0  0  0
  -25.0709  -30.8380   20.6989 C   0  0  0  0  0  0  0  0  0  0  0  0
  -24.1888  -28.2602   21.8486 C   0  0  0  0  0  0  0  0  0  0  0  0
  -24.8473  -33.5170   26.3277 C   0  0  0  0  0  0  0  0  0  0  0  0
  -22.1593  -16.9863   19.5474 C   0  0  0  0  0  0  0  0  0  0  0  0
  -25.6898  -32.2677   26.0907 C   0  0  0  0  0  0  0  0  0  0  0  0
  -22.4849  -15.6256   20.1608 C   0  0  0  0  0  0  0  0  0  0  0  0
  -28.3625  -18.8072   16.7132 C   0  0  0  0  0  0  0  0  0  0  0  0
  -28.1769  -18.4303   19.2043 C   0  0  0  0  0  0  0  0  0  0  0  0
  -22.8628  -17.1874   18.2090 C   0  0  0  0  0  0  0  0  0  0  0  0
  -27.4346  -17.6148   16.4968 C   0  0  0  0  0  0  0  0  0  0  0  0
  -27.2281  -17.2578   18.9384 C   0  0  0  0  0  0  0  0  0  0  0  0
  -24.6652  -15.6326   18.8847 C   0  0  0  0  0  0  0  0  0  0  0  0
  -26.4562  -32.3622   24.7659 C   0  0  1  0  0  0  0  0  0  0  0  0
  -24.3480  -30.7623   22.0402 C   0  0  1  0  0  0  0  0  0  0  0  0
  -24.0062  -15.4178   20.2556 C   0  0  2  0  0  0  0  0  0  0  0  0
  -29.1249  -18.6491   18.0271 C   0  0  0  0  0  0  0  0  0  0  0  0
  -17.8674  -26.6086   21.1732 C   0  0  0  0  0  0  0  0  0  0  0  0
  -22.6319  -28.2068   25.4878 C   0  0  0  0  0  0  0  0  0  0  0  0
  -20.6744  -26.7647   24.8904 C   0  0  0  0  0  0  0  0  0  0  0  0
  -20.3794  -29.2307   25.1242 C   0  0  0  0  0  0  0  0  0  0  0  0
  -20.0522  -28.0161   18.3945 C   0  0  0  0  0  0  0  0  0  0  0  0
  -31.2503  -19.8538   17.5454 C   0  0  0  0  0  0  0  0  0  0  0  0
  -29.0879  -23.6137   18.4149 C   0  0  0  0  0  0  0  0  0  0  0  0
  -29.8057  -22.2986   18.7210 C   0  0  0  0  0  0  0  0  0  0  0  0
  -29.7065  -24.7775   19.1863 C   0  0  0  0  0  0  0  0  0  0  0  0
  -29.1613  -21.1387   17.9765 C   0  0  0  0  0  0  0  0  0  0  0  0
  -29.0246  -26.0973   18.8542 C   0  0  0  0  0  0  0  0  0  1  0  0
  -21.6145  -28.3150   23.1173 C   0  0  1  0  0  0  0  0  0  0  0  0
  -18.9256  -27.5172   20.5672 C   0  0  2  0  0  0  0  0  0  0  0  0
  -21.3479  -28.1306   24.6379 C   0  0  0  0  0  0  0  0  0  0  0  0
  -23.5466  -13.0206   20.6079 N   0  0  0  0  0  0  0  0  0  0  0  0
  -24.3597  -14.0644   20.8436 N   0  0  0  0  0  0  0  0  0  0  0  0
  -23.5495  -29.5433   22.1839 N   0  0  0  0  0  0  0  0  0  0  0  0
  -24.3007  -16.9381   18.3132 N   0  0  0  0  0  0  0  0  0  0  0  0
  -26.5473  -17.4210   17.6453 N   0  0  0  0  0  0  0  0  0  0  0  0
  -26.3614  -14.6882   21.9457 N   0  0  0  0  0  0  0  0  0  0  0  0
  -25.9815  -10.2877   22.8874 N   0  0  0  0  0  0  0  0  0  0  0  0
  -25.5746  -32.0880   23.6514 N   0  0  0  0  0  0  0  0  0  0  0  0
  -20.4131  -28.2744   22.2907 N   0  0  0  0  0  0  0  0  0  0  0  0
  -19.0603  -27.1825   19.1212 N   0  3  0  0  0  0  0  0  0  0  0  0
  -29.9288  -19.8744   18.2722 N   0  3  1  0  0  0  0  0  0  0  0  0
  -27.2650  -12.1588   23.2194 O   0  0  0  0  0  0  0  0  0  0  0  0
  -25.7235  -29.7643   23.6795 O   0  0  0  0  0  0  0  0  0  0  0  0
  -21.7345  -30.6839   23.1012 O   0  0  0  0  0  0  0  0  0  0  0  0
  -21.0837  -26.5021   20.9541 O   0  0  0  0  0  0  0  0  0  0  0  0
  -24.7579  -18.5506   16.7281 O   0  0  0  0  0  0  0  0  0  0  0  0
  -21.8935   -6.8997   21.2004 O   0  0  0  0  0  0  0  0  0  0  0  0
  -27.6525  -26.0079   19.2119 O   0  0  0  0  0  0  0  0  0  1  0  0
  -21.6580   -4.1489   25.9734 F   0  0  0  0  0  0  0  0  0  0  0  0
  -19.4691   -6.0851   22.2498 F   0  0  0  0  0  0  0  0  0  0  0  0
  1  2  1  0  0  0  0
  1  5  2  0  0  0  0
  2  6  2  0  0  0  0
  3  8  2  0  0  0  0
  3 15  1  0  0  0  0
  4  9  1  0  0  0  0
  4 15  2  0  0  0  0
  5 17  1  0  0  0  0
  6 19  1  0  0  0  0
  7 10  2  0  0  0  0
  7 18  1  0  0  0  0
  8 21  1  0  0  0  0
  9 21  2  0  0  0  0
 10 22  1  0  0  0  0
 11 12  2  0  0  0  0
 11 23  1  0  0  0  0
 12 24  1  0  0  0  0
 13 20  1  0  0  0  0
 13 22  2  0  0  0  0
 14 24  2  0  0  0  0
 14 25  1  0  0  0  0
 15 26  1  0  0  0  0
 16 26  1  0  0  0  0
 16 27  2  0  0  0  0
 16 28  1  0  0  0  0
 17 19  2  0  0  0  0
 17 33  1  0  0  0  0
 18 20  2  0  0  0  0
 18 34  1  0  0  0  0
 19 46  1  0  0  0  0
 20 35  1  0  0  0  0
 21 80  1  0  0  0  0
 22 81  1  0  0  0  0
 23 25  2  0  0  0  0
 23 80  1  0  0  0  0
 24 82  1  0  0  0  0
 25 83  1  0  0  0  0
 26 64  2  0  0  0  0
 27 65  1  0  0  0  0
 27 69  1  0  0  0  0
 28 70  1  0  0  0  0
 28 75  2  0  0  0  0
 29 47  1  0  0  0  0
 29 71  1  0  0  0  0
 29 76  2  0  0  0  0
 30 61  1  0  0  0  0
 30 66  1  0  0  0  0
 30 77  2  0  0  0  0
 31 62  1  0  0  0  0
 31 72  1  0  0  0  0
 31 78  2  0  0  0  0
 32 67  1  0  0  0  0
 32 68  1  0  0  0  0
 32 79  2  0  0  0  0
 33 36  1  0  0  0  0
 34 47  1  0  0  0  0
 35 66  1  0  0  0  0
 36 38  1  0  0  0  0
 37 39  1  0  0  0  0
 37 42  1  0  0  0  0
 38 46  1  0  0  0  0
 39 48  1  0  0  0  0
 40 43  1  0  0  0  0
 40 49  1  0  0  0  0
 41 44  1  0  0  0  0
 41 49  1  0  0  0  0
 42 67  1  0  0  0  0
 43 68  1  0  0  0  0
 44 68  1  0  0  0  0
 45 48  1  0  0  0  0
 45 67  1  0  0  0  0
 46 71  1  0  0  0  0
 47 66  1  0  0  0  0
 48 65  1  0  0  0  0
 49 74  1  0  0  0  0
 50 62  1  0  0  0  0
 51 63  1  0  0  0  0
 52 63  1  0  0  0  0
 53 63  1  0  0  0  0
 54 73  1  0  0  0  0
 55 74  1  0  0  0  0
 56 57  1  0  0  0  0
 56 58  1  0  0  0  0
 57 59  1  0  0  0  0
 58 60  1  0  0  0  0
 59 74  1  0  0  0  0
 60 81  1  0  0  0  0
 61 63  1  0  0  0  0
 61 72  1  0  0  0  0
 62 73  1  0  0  0  0
 64 65  1  0  0  0  0
M  CHG  2  73   1  74   1
M  ISO  4  32 100  60 101  68 100  81 101
M  END
> <Batch ID>
0020

> <Smiles>
CNC(C)C(=O)NC(C(=O)N1Cc2cc([101O:1][101CH2:1]CCCCN(C)C3CC[100N:0]([100C:0](=O)N4CCCC(n5nc(-c6ccc(Oc7ccc(F)cc7F)cc6)c(C(N)=O)c5N)C4)CC3)ccc2CC1C(=O)NC1CCCc2ccccc21)C(C)(C)C

> <Shape>
0.303

> <Color>
0.100

> <Negative vol penalty>
0.000

$$$$

  -OEChem-04052316093D

 81 89  0     1  0  0  0  0  0999 V2000
  -32.5427  -28.7416   31.9251 C   0  0  0  0  0  0  0  0  0  0  0  0
  -32.2717  -27.5265   31.3042 C   0  0  0  0  0  0  0  0  0  0  0  0
  -23.0001   -9.8943   19.9812 C   0  0  0  0  0  0  0  0  0  0  0  0
  -23.7255   -9.9451   22.2851 C   0  0  0  0  0  0  0  0  0  0  0  0
  -33.1085  -29.7856   31.1945 C   0  0  0  0  0  0  0  0  0  0  0  0
  -32.5654  -27.3551   29.9519 C   0  0  0  0  0  0  0  0  0  0  0  0
  -34.4792  -22.2176   27.2226 C   0  0  0  0  0  0  0  0  0  0  0  0
  -22.2334   -8.7600   20.2476 C   0  0  0  0  0  0  0  0  0  0  0  0
  -22.9587   -8.8108   22.5516 C   0  0  0  0  0  0  0  0  0  0  0  0
  -33.8083  -21.2373   26.4927 C   0  0  0  0  0  0  0  0  0  0  0  0
  -23.2023   -5.4718   22.0796 C   0  0  0  0  0  0  0  0  0  0  0  0
  -23.7897   -4.4545   22.8317 C   0  0  0  0  0  0  0  0  0  0  0  0
  -34.4343  -22.3437   24.4426 C   0  0  0  0  0  0  0  0  0  0  0  0
  -32.4439  -17.1024   23.9354 C   0  0  0  0  0  0  0  0  0  0  0  0
  -22.0660   -4.6978   24.5071 C   0  0  0  0  0  0  0  0  0  0  0  0
  -23.7463  -10.4868   20.9999 C   0  0  0  0  0  0  0  0  0  0  0  0
  -24.1321  -13.0023   20.8239 C   0  0  0  0  0  0  0  0  0  0  0  0
  -33.4182  -29.6237   29.8349 C   0  0  0  0  0  0  0  0  0  0  0  0
  -35.1245  -23.2761   26.5672 C   0  0  0  0  0  0  0  0  0  0  0  0
  -33.1346  -28.3984   29.2020 C   0  0  0  0  0  0  0  0  0  0  0  0
  -35.1148  -23.3348   25.1663 C   0  0  0  0  0  0  0  0  0  0  0  0
  -31.8530  -18.3444   24.1673 C   0  0  0  0  0  0  0  0  0  0  0  0
  -30.6755  -16.5505   22.3845 C   0  0  0  0  0  0  0  0  0  0  0  0
  -22.2126   -8.2182   21.5328 C   0  0  0  0  0  0  0  0  0  0  0  0
  -33.7833  -21.3018   25.1027 C   0  0  0  0  0  0  0  0  0  0  0  0
  -22.0468   -6.1022   22.5413 C   0  0  0  0  0  0  0  0  0  0  0  0
  -23.2215   -4.0674   24.0454 C   0  0  0  0  0  0  0  0  0  0  0  0
  -31.8552  -16.2054   23.0440 C   0  0  0  0  0  0  0  0  0  0  0  0
  -21.4786   -5.7151   23.7550 C   0  0  0  0  0  0  0  0  0  0  0  0
  -30.6733  -18.6895   23.5078 C   0  0  0  0  0  0  0  0  0  0  0  0
  -30.0845  -17.7926   22.6164 C   0  0  0  0  0  0  0  0  0  0  0  0
  -24.5390  -11.6583   20.7252 C   0  0  0  0  0  0  0  0  0  0  0  0
  -25.2420  -13.7247   20.4594 C   0  0  0  0  0  0  0  0  0  0  0  0
  -22.8643  -13.5490   21.2105 C   0  0  0  0  0  0  0  0  0  0  0  0
  -34.7906  -26.4371   26.5443 C   0  0  0  0  0  0  0  0  0  0  0  0
  -37.4680  -26.3162   24.7169 C   0  0  0  0  0  0  0  0  0  0  0  0
  -39.4589  -24.5149   22.6100 C   0  0  0  0  0  0  0  0  0  0  0  0
  -30.7217  -14.6845   20.6927 C   0  0  0  0  0  0  0  0  0  0  0  0
  -33.9853  -30.7965   29.0749 C   0  0  0  0  0  0  0  0  0  0  0  0
  -35.8664  -24.3110   27.3678 C   0  0  0  0  0  0  0  0  0  0  0  0
  -35.8093  -24.4394   24.4140 C   0  0  0  0  0  0  0  0  0  0  0  0
  -34.6123  -30.4102   27.7378 C   0  0  0  0  0  0  0  0  0  0  0  0
  -29.6026  -12.2319   18.3669 C   0  0  0  0  0  0  0  0  0  0  0  0
  -33.6909  -29.4691   26.9682 C   0  0  0  0  0  0  0  0  0  0  0  0
  -28.1520  -11.9746   18.7812 C   0  0  0  0  0  0  0  0  0  0  0  0
  -30.5033  -12.4751   19.5766 C   0  0  0  0  0  0  0  0  0  0  0  0
  -28.5883  -13.2644   20.9103 C   0  0  0  0  0  0  0  0  0  0  0  0
  -33.4618  -28.1657   27.7429 C   0  0  1  0  0  0  0  0  0  0  0  0
  -36.0534  -25.6260   26.6174 C   0  0  1  0  0  0  0  0  0  0  0  0
  -27.6305  -13.0783   19.7222 C   0  0  2  0  0  0  0  0  0  0  0  0
  -41.5585  -24.6967   21.2478 C   0  0  0  0  0  0  0  0  0  0  0  0
  -35.9720  -27.9728   22.6366 C   0  0  0  0  0  0  0  0  0  0  0  0
  -37.7168  -27.3201   20.9639 C   0  0  0  0  0  0  0  0  0  0  0  0
  -38.3577  -28.6392   22.9819 C   0  0  0  0  0  0  0  0  0  0  0  0
  -40.7673  -22.3333   24.1226 C   0  0  0  0  0  0  0  0  0  0  0  0
  -32.4890  -19.3068   25.1268 C   0  0  0  0  0  0  0  0  0  1  0  0
  -37.7488  -26.1988   23.2383 C   0  0  1  0  0  0  0  0  0  0  0  0
  -40.9605  -24.2935   22.5866 C   0  0  2  0  0  0  0  0  0  0  0  0
  -37.4340  -27.5129   22.4691 C   0  0  0  0  0  0  0  0  0  0  0  0
  -25.8082  -11.5315   20.3289 N   0  0  0  0  0  0  0  0  0  0  0  0
  -26.2084  -12.8052   20.1752 N   0  0  0  0  0  0  0  0  0  0  0  0
  -36.5158  -25.4310   25.2418 N   0  0  0  0  0  0  0  0  0  0  0  0
  -29.9486  -13.5362   20.4200 N   0  0  0  0  0  0  0  0  0  0  0  0
  -25.4758  -15.0503   20.3573 N   0  0  0  0  0  0  0  0  0  0  0  0
  -21.8324  -12.6651   21.5542 N   0  0  0  0  0  0  0  0  0  0  0  0
  -30.0777  -15.6399   21.4784 N   0  0  0  0  0  0  0  0  0  0  0  0
  -34.6088  -27.2927   27.6140 N   0  0  0  0  0  0  0  0  0  0  0  0
  -39.1332  -25.7541   23.1197 N   0  0  0  0  0  0  0  0  0  0  0  0
  -41.2762  -22.8574   22.8290 N   0  3  0  0  0  0  0  0  0  0  0  0
  -22.6479  -14.7844   21.2343 O   0  0  0  0  0  0  0  0  0  0  0  0
  -34.0378  -26.2980   25.5874 O   0  0  0  0  0  0  0  0  0  0  0  0
  -38.0766  -27.1574   25.3831 O   0  0  0  0  0  0  0  0  0  0  0  0
  -38.6553  -23.6743   22.2123 O   0  0  0  0  0  0  0  0  0  0  0  0
  -31.8604  -14.8232   20.2386 O   0  0  0  0  0  0  0  0  0  0  0  0
  -21.4644   -7.1115   21.7932 O   0  0  0  0  0  0  0  0  0  0  0  0
  -33.1286  -20.3466   24.3879 O   0  0  0  0  0  0  0  0  0  1  0  0
  -23.7849   -3.0894   24.7667 F   0  0  0  0  0  0  0  0  0  0  0  0
  -32.4313  -15.0139   22.8295 F   0  0  0  0  0  0  0  0  0  0  0  0
  -20.3679   -6.3163   24.2032 F   0  0  0  0  0  0  0  0  0  0  0  0
  -30.0979  -19.8804   23.7247 F   0  0  0  0  0  0  0  0  0  0  0  0
  -28.9508  -18.1348   21.9882 F   0  0  0  0  0  0  0  0  0  0  0  0
  1  2  1  0  0  0  0
  1  5  2  0  0  0  0
  2  6  2  0  0  0  0
  3  8  2  0  0  0  0
  3 16  1  0  0  0  0
  4  9  1  0  0  0  0
  4 16  2  0  0  0  0
  5 18  1  0  0  0  0
  6 20  1  0  0  0  0
  7 10  2  0  0  0  0
  7 19  1  0  0  0  0
  8 24  1  0  0  0  0
  9 24  2  0  0  0  0
 10 25  1  0  0  0  0
 11 12  2  0  0  0  0
 11 26  1  0  0  0  0
 12 27  1  0  0  0  0
 13 21  1  0  0  0  0
 13 25  2  0  0  0  0
 14 22  1  0  0  0  0
 14 28  2  0  0  0  0
 15 27  2  0  0  0  0
 15 29  1  0  0  0  0
 16 32  1  0  0  0  0
 17 32  1  0  0  0  0
 17 33  2  0  0  0  0
 17 34  1  0  0  0  0
 18 20  2  0  0  0  0
 18 39  1  0  0  0  0
 19 21  2  0  0  0  0
 19 40  1  0  0  0  0
 20 48  1  0  0  0  0
 21 41  1  0  0  0  0
 22 30  2  0  0  0  0
 22 56  1  0  0  0  0
 23 28  1  0  0  0  0
 23 31  2  0  0  0  0
 23 66  1  0  0  0  0
 24 75  1  0  0  0  0
 25 76  1  0  0  0  0
 26 29  2  0  0  0  0
 26 75  1  0  0  0  0
 27 77  1  0  0  0  0
 28 78  1  0  0  0  0
 29 79  1  0  0  0  0
 30 31  1  0  0  0  0
 30 80  1  0  0  0  0
 31 81  1  0  0  0  0
 32 60  2  0  0  0  0
 33 61  1  0  0  0  0
 33 64  1  0  0  0  0
 34 65  1  0  0  0  0
 34 70  2  0  0  0  0
 35 49  1  0  0  0  0
 35 67  1  0  0  0  0
 35 71  2  0  0  0  0
 36 57  1  0  0  0  0
 36 62  1  0  0  0  0
 36 72  2  0  0  0  0
 37 58  1  0  0  0  0
 37 68  1  0  0  0  0
 37 73  2  0  0  0  0
 38 63  1  0  0  0  0
 38 66  1  0  0  0  0
 38 74  2  0  0  0  0
 39 42  1  0  0  0  0
 40 49  1  0  0  0  0
 41 62  1  0  0  0  0
 42 44  1  0  0  0  0
 43 45  1  0  0  0  0
 43 46  1  0  0  0  0
 44 48  1  0  0  0  0
 45 50  1  0  0  0  0
 46 63  1  0  0  0  0
 47 50  1  0  0  0  0
 47 63  1  0  0  0  0
 48 67  1  0  0  0  0
 49 62  1  0  0  0  0
 50 61  1  0  0  0  0
 51 58  1  0  0  0  0
 52 59  1  0  0  0  0
 53 59  1  0  0  0  0
 54 59  1  0  0  0  0
 55 69  1  0  0  0  0
 56 76  1  0  0  0  0
 57 59  1  0  0  0  0
 57 68  1  0  0  0  0
 58 69  1  0  0  0  0
 60 61  1  0  0  0  0
M  CHG  1  69   1
M  ISO  4  38 100  56 101  66 100  76 101
M  END
> <Batch ID>
0020

> <Smiles>
CNC(C)C(=O)NC(C(=O)N1Cc2cc([101O:1][101CH2:1]c3cc(F)c([100NH:0][100C:0](=O)N4CCCC(n5nc(-c6ccc(Oc7ccc(F)cc7F)cc6)c(C(N)=O)c5N)C4)c(F)c3F)ccc2CC1C(=O)NC1CCCc2ccccc21)C(C)(C)C

> <Shape>
0.180

> <Color>
0.206

> <Negative vol penalty>
0.000

$$$$

  -OEChem-04052316093D

 84 92  0     1  0  0  0  0  0999 V2000
  -32.4330  -31.9663   17.3562 C   0  0  0  0  0  0  0  0  0  0  0  0
  -31.6641  -30.8978   17.8060 C   0  0  0  0  0  0  0  0  0  0  0  0
  -23.0761   -9.8671   19.9416 C   0  0  0  0  0  0  0  0  0  0  0  0
  -23.8348   -9.8760   22.2354 C   0  0  0  0  0  0  0  0  0  0  0  0
  -33.8243  -31.8772   17.3706 C   0  0  0  0  0  0  0  0  0  0  0  0
  -32.2861  -29.7390   18.2696 C   0  0  0  0  0  0  0  0  0  0  0  0
  -30.3619  -26.0848   22.7917 C   0  0  0  0  0  0  0  0  0  0  0  0
  -22.3321   -8.7142   20.1922 C   0  0  0  0  0  0  0  0  0  0  0  0
  -23.0907   -8.7231   22.4860 C   0  0  0  0  0  0  0  0  0  0  0  0
  -29.6596  -24.8804   22.7900 C   0  0  0  0  0  0  0  0  0  0  0  0
  -19.8623   -7.9259   23.0875 C   0  0  0  0  0  0  0  0  0  0  0  0
  -19.1047   -7.8870   24.2580 C   0  0  0  0  0  0  0  0  0  0  0  0
  -31.7421  -23.6729   22.9456 C   0  0  0  0  0  0  0  0  0  0  0  0
  -32.0639  -16.5941   22.5336 C   0  0  0  0  0  0  0  0  0  0  0  0
  -20.3457   -5.9501   24.9968 C   0  0  0  0  0  0  0  0  0  0  0  0
  -23.8276  -10.4480   20.9632 C   0  0  0  0  0  0  0  0  0  0  0  0
  -24.1695  -12.9730   20.8412 C   0  0  0  0  0  0  0  0  0  0  0  0
  -34.4639  -30.7205   17.8436 C   0  0  0  0  0  0  0  0  0  0  0  0
  -31.7625  -26.0920   22.8596 C   0  0  0  0  0  0  0  0  0  0  0  0
  -33.6873  -29.6339   18.2891 C   0  0  0  0  0  0  0  0  0  0  0  0
  -32.4596  -24.8788   22.9507 C   0  0  0  0  0  0  0  0  0  0  0  0
  -32.6714  -17.4703   23.4329 C   0  0  0  0  0  0  0  0  0  0  0  0
  -31.8913  -18.3450   24.1893 C   0  0  0  0  0  0  0  0  0  0  0  0
  -30.5038  -18.3435   24.0463 C   0  0  0  0  0  0  0  0  0  0  0  0
  -29.8963  -17.4672   23.1469 C   0  0  0  0  0  0  0  0  0  0  0  0
  -30.6764  -16.5926   22.3906 C   0  0  0  0  0  0  0  0  0  0  0  0
  -22.3394   -8.1422   21.4643 C   0  0  0  0  0  0  0  0  0  0  0  0
  -30.3498  -23.6741   22.8640 C   0  0  0  0  0  0  0  0  0  0  0  0
  -20.8615   -6.9769   22.8715 C   0  0  0  0  0  0  0  0  0  0  0  0
  -19.3464   -6.8991   25.2127 C   0  0  0  0  0  0  0  0  0  0  0  0
  -21.1032   -5.9890   23.8262 C   0  0  0  0  0  0  0  0  0  0  0  0
  -24.5968  -11.6386   20.7049 C   0  0  0  0  0  0  0  0  0  0  0  0
  -25.2619  -13.7222   20.4779 C   0  0  0  0  0  0  0  0  0  0  0  0
  -22.8988  -13.4892   21.2590 C   0  0  0  0  0  0  0  0  0  0  0  0
  -34.0954  -27.1075   20.9544 C   0  0  0  0  0  0  0  0  0  0  0  0
  -35.9750  -26.2936   23.4697 C   0  0  0  0  0  0  0  0  0  0  0  0
  -36.3898  -24.4136   26.2876 C   0  0  0  0  0  0  0  0  0  0  0  0
  -30.7280  -14.7678   20.6546 C   0  0  0  0  0  0  0  0  0  0  0  0
  -35.9698  -30.6525   17.7957 C   0  0  0  0  0  0  0  0  0  0  0  0
  -32.5038  -27.4004   22.8875 C   0  0  0  0  0  0  0  0  0  0  0  0
  -33.9621  -24.8327   23.0458 C   0  0  0  0  0  0  0  0  0  0  0  0
  -36.5565  -29.5337   18.6525 C   0  0  0  0  0  0  0  0  0  0  0  0
  -29.6148  -12.3520   18.2878 C   0  0  0  0  0  0  0  0  0  0  0  0
  -35.7988  -28.2303   18.4206 C   0  0  0  0  0  0  0  0  0  0  0  0
  -28.1749  -12.0608   18.7168 C   0  0  0  0  0  0  0  0  0  0  0  0
  -30.5293  -12.5818   19.4897 C   0  0  0  0  0  0  0  0  0  0  0  0
  -28.6216  -13.3075   20.8693 C   0  0  0  0  0  0  0  0  0  0  0  0
  -34.3255  -28.3696   18.8225 C   0  0  1  0  0  0  0  0  0  0  0  0
  -33.9571  -27.2734   22.4413 C   0  0  1  0  0  0  0  0  0  0  0  0
  -27.6494  -13.1332   19.6912 C   0  0  2  0  0  0  0  0  0  0  0  0
  -34.1593  -17.4546   23.5644 C   0  0  0  0  0  0  0  0  0  0  0  0
  -28.4073  -17.4687   22.9940 C   0  0  0  0  0  0  0  0  0  0  0  0
  -32.9833  -18.5835   26.4337 C   0  0  0  0  0  0  0  0  0  0  0  0
  -38.0461  -23.9372   28.1117 C   0  0  0  0  0  0  0  0  0  0  0  0
  -37.6134  -24.5956   21.5352 C   0  0  0  0  0  0  0  0  0  0  0  0
  -38.6168  -23.4347   23.5135 C   0  0  0  0  0  0  0  0  0  0  0  0
  -38.9676  -25.8840   23.1967 C   0  0  0  0  0  0  0  0  0  0  0  0
  -34.5298  -25.3647   28.3840 C   0  0  0  0  0  0  0  0  0  0  0  0
  -32.5463  -19.2844   25.1521 C   0  0  0  0  0  0  0  0  0  0  0  0
  -29.6612  -19.2894   24.8641 C   0  0  0  0  0  0  0  0  0  0  0  0
  -29.1443  -20.4937   24.0742 C   0  0  0  0  0  0  0  0  0  0  0  0
  -30.2560  -21.4030   23.5635 C   0  0  0  0  0  0  0  0  0  1  0  0
  -36.6927  -25.0392   23.9062 C   0  0  1  0  0  0  0  0  0  0  0  0
  -36.8558  -24.7819   27.6847 C   0  0  2  0  0  0  0  0  0  0  0  0
  -37.9444  -24.7388   23.0342 C   0  0  0  0  0  0  0  0  0  0  0  0
  -25.8619  -11.5424   20.2873 N   0  0  0  0  0  0  0  0  0  0  0  0
  -26.2389  -12.8258   20.1581 N   0  0  0  0  0  0  0  0  0  0  0  0
  -34.6421  -26.1384   23.0631 N   0  0  0  0  0  0  0  0  0  0  0  0
  -29.9699  -13.6133   20.3659 N   0  0  0  0  0  0  0  0  0  0  0  0
  -25.4724  -15.0536   20.4038 N   0  0  0  0  0  0  0  0  0  0  0  0
  -21.8867  -12.5804   21.5966 N   0  0  0  0  0  0  0  0  0  0  0  0
  -30.0802  -15.6935   21.4718 N   0  0  0  0  0  0  0  0  0  0  0  0
  -34.1852  -28.2995   20.2612 N   0  0  0  0  0  0  0  0  0  0  0  0
  -36.9803  -25.2068   25.3266 N   0  0  0  0  0  0  0  0  0  0  0  0
  -35.7558  -24.5755   28.6688 N   0  3  0  0  0  0  0  0  0  0  0  0
  -22.6626  -14.7199   21.3152 O   0  0  0  0  0  0  0  0  0  0  0  0
  -34.1203  -25.9814   20.4718 O   0  0  0  0  0  0  0  0  0  0  0  0
  -36.5726  -27.3724   23.4956 O   0  0  0  0  0  0  0  0  0  0  0  0
  -35.5856  -23.5100   26.0703 O   0  0  0  0  0  0  0  0  0  0  0  0
  -31.8574  -14.9361   20.1874 O   0  0  0  0  0  0  0  0  0  0  0  0
  -21.6133   -7.0173   21.7093 O   0  0  0  0  0  0  0  0  0  0  0  0
  -29.6669  -22.4971   22.8618 O   0  0  0  0  0  0  0  0  0  1  0  0
  -18.6199   -6.8628   26.3374 F   0  0  0  0  0  0  0  0  0  0  0  0
  -22.0626   -5.0753   23.6248 F   0  0  0  0  0  0  0  0  0  0  0  0
  1  2  1  0  0  0  0
  1  5  2  0  0  0  0
  2  6  2  0  0  0  0
  3  8  2  0  0  0  0
  3 16  1  0  0  0  0
  4  9  1  0  0  0  0
  4 16  2  0  0  0  0
  5 18  1  0  0  0  0
  6 20  1  0  0  0  0
  7 10  2  0  0  0  0
  7 19  1  0  0  0  0
  8 27  1  0  0  0  0
  9 27  2  0  0  0  0
 10 28  1  0  0  0  0
 11 12  2  0  0  0  0
 11 29  1  0  0  0  0
 12 30  1  0  0  0  0
 13 21  1  0  0  0  0
 13 28  2  0  0  0  0
 14 22  2  0  0  0  0
 14 26  1  0  0  0  0
 15 30  2  0  0  0  0
 15 31  1  0  0  0  0
 16 32  1  0  0  0  0
 17 32  1  0  0  0  0
 17 33  2  0  0  0  0
 17 34  1  0  0  0  0
 18 20  2  0  0  0  0
 18 39  1  0  0  0  0
 19 21  2  0  0  0  0
 19 40  1  0  0  0  0
 20 48  1  0  0  0  0
 21 41  1  0  0  0  0
 22 23  1  0  0  0  0
 22 51  1  0  0  0  0
 23 24  2  0  0  0  0
 23 59  1  0  0  0  0
 24 25  1  0  0  0  0
 24 60  1  0  0  0  0
 25 26  2  0  0  0  0
 25 52  1  0  0  0  0
 26 72  1  0  0  0  0
 27 81  1  0  0  0  0
 28 82  1  0  0  0  0
 29 31  2  0  0  0  0
 29 81  1  0  0  0  0
 30 83  1  0  0  0  0
 31 84  1  0  0  0  0
 32 66  2  0  0  0  0
 33 67  1  0  0  0  0
 33 70  1  0  0  0  0
 34 71  1  0  0  0  0
 34 76  2  0  0  0  0
 35 49  1  0  0  0  0
 35 73  1  0  0  0  0
 35 77  2  0  0  0  0
 36 63  1  0  0  0  0
 36 68  1  0  0  0  0
 36 78  2  0  0  0  0
 37 64  1  0  0  0  0
 37 74  1  0  0  0  0
 37 79  2  0  0  0  0
 38 69  1  0  0  0  0
 38 72  1  0  0  0  0
 38 80  2  0  0  0  0
 39 42  1  0  0  0  0
 40 49  1  0  0  0  0
 41 68  1  0  0  0  0
 42 44  1  0  0  0  0
 43 45  1  0  0  0  0
 43 46  1  0  0  0  0
 44 48  1  0  0  0  0
 45 50  1  0  0  0  0
 46 69  1  0  0  0  0
 47 50  1  0  0  0  0
 47 69  1  0  0  0  0
 48 73  1  0  0  0  0
 49 68  1  0  0  0  0
 50 67  1  0  0  0  0
 53 59  1  0  0  0  0
 54 64  1  0  0  0  0
 55 65  1  0  0  0  0
 56 65  1  0  0  0  0
 57 65  1  0  0  0  0
 58 75  1  0  0  0  0
 60 61  1  0  0  0  0
 61 62  1  0  0  0  0
 62 82  1  0  0  0  0
 63 65  1  0  0  0  0
 63 74  1  0  0  0  0
 64 75  1  0  0  0  0
 66 67  1  0  0  0  0
M  CHG  1  75   1
M  ISO  4  38 100  62 101  72 100  82 101
M  END
> <Batch ID>
0020

> <Smiles>
CCc1c(C)cc([100NH:0][100C:0](=O)N2CCCC(n3nc(-c4ccc(Oc5ccc(F)cc5F)cc4)c(C(N)=O)c3N)C2)c(C)c1CC[101CH2:1][101O:1]c1ccc2c(c1)CN(C(=O)C(NC(=O)C(C)NC)C(C)(C)C)C(C(=O)NC1CCCc3ccccc31)C2

> <Shape>
0.173

> <Color>
0.196

> <Negative vol penalty>
0.000

$$$$

  -OEChem-04052316093D

 90 98  0     1  0  0  0  0  0999 V2000
  -31.4076  -34.1181   15.6427 C   0  0  0  0  0  0  0  0  0  0  0  0
  -31.4410  -32.8902   16.2959 C   0  0  0  0  0  0  0  0  0  0  0  0
  -23.0671   -9.8740   19.9504 C   0  0  0  0  0  0  0  0  0  0  0  0
  -23.8595   -9.8751   22.2327 C   0  0  0  0  0  0  0  0  0  0  0  0
  -32.5115  -34.9677   15.7011 C   0  0  0  0  0  0  0  0  0  0  0  0
  -32.5789  -32.5109   17.0071 C   0  0  0  0  0  0  0  0  0  0  0  0
  -31.4698  -30.5263   21.5322 C   0  0  0  0  0  0  0  0  0  0  0  0
  -22.3293   -8.7185   20.2070 C   0  0  0  0  0  0  0  0  0  0  0  0
  -23.1217   -8.7195   22.4894 C   0  0  0  0  0  0  0  0  0  0  0  0
  -31.0233  -29.2058   21.5562 C   0  0  0  0  0  0  0  0  0  0  0  0
  -19.9041   -7.9127   23.1351 C   0  0  0  0  0  0  0  0  0  0  0  0
  -19.1640   -7.8673   24.3165 C   0  0  0  0  0  0  0  0  0  0  0  0
  -33.2335  -28.4764   22.1903 C   0  0  0  0  0  0  0  0  0  0  0  0
  -29.2104  -21.0586   16.5689 C   0  0  0  0  0  0  0  0  0  0  0  0
  -29.0738  -18.6693   16.8992 C   0  0  0  0  0  0  0  0  0  0  0  0
  -20.4199   -5.9301   25.0288 C   0  0  0  0  0  0  0  0  0  0  0  0
  -23.8323  -10.4523   20.9632 C   0  0  0  0  0  0  0  0  0  0  0  0
  -24.1670  -12.9786   20.8467 C   0  0  0  0  0  0  0  0  0  0  0  0
  -33.6598  -34.6028   16.4214 C   0  0  0  0  0  0  0  0  0  0  0  0
  -32.8064  -30.8312   21.8270 C   0  0  0  0  0  0  0  0  0  0  0  0
  -33.6997  -33.3559   17.0741 C   0  0  0  0  0  0  0  0  0  0  0  0
  -33.6938  -29.8019   22.1719 C   0  0  0  0  0  0  0  0  0  0  0  0
  -29.3997  -19.7608   16.0942 C   0  0  0  0  0  0  0  0  0  0  0  0
  -28.6953  -21.2650   17.8487 C   0  0  0  0  0  0  0  0  0  0  0  0
  -28.5586  -18.8756   18.1789 C   0  0  0  0  0  0  0  0  0  0  0  0
  -22.3565   -8.1412   21.4765 C   0  0  0  0  0  0  0  0  0  0  0  0
  -31.9059  -28.1803   21.8825 C   0  0  0  0  0  0  0  0  0  0  0  0
  -20.9021   -6.9668   22.9005 C   0  0  0  0  0  0  0  0  0  0  0  0
  -19.4219   -6.8760   25.2634 C   0  0  0  0  0  0  0  0  0  0  0  0
  -21.1600   -5.9755   23.8473 C   0  0  0  0  0  0  0  0  0  0  0  0
  -28.3693  -20.1735   18.6537 C   0  0  0  0  0  0  0  0  0  0  0  0
  -24.5951  -11.6457   20.6985 C   0  0  0  0  0  0  0  0  0  0  0  0
  -25.2523  -13.7316   20.4705 C   0  0  0  0  0  0  0  0  0  0  0  0
  -22.9015  -13.4903   21.2854 C   0  0  0  0  0  0  0  0  0  0  0  0
  -35.2117  -32.1532   20.2237 C   0  0  0  0  0  0  0  0  0  0  0  0
  -36.7173  -31.9568   23.0903 C   0  0  0  0  0  0  0  0  0  0  0  0
  -30.7584  -14.6952   20.6806 C   0  0  0  0  0  0  0  0  0  0  0  0
  -36.9588  -30.4403   26.1380 C   0  0  0  0  0  0  0  0  0  0  0  0
  -34.8462  -35.5339   16.4165 C   0  0  0  0  0  0  0  0  0  0  0  0
  -33.2658  -32.2635   21.8228 C   0  0  0  0  0  0  0  0  0  0  0  0
  -35.1338  -30.0784   22.5162 C   0  0  0  0  0  0  0  0  0  0  0  0
  -35.8717  -35.2196   17.5028 C   0  0  0  0  0  0  0  0  0  0  0  0
  -29.5630  -12.4043   18.1980 C   0  0  0  0  0  0  0  0  0  0  0  0
  -36.1681  -33.7237   17.5403 C   0  0  0  0  0  0  0  0  0  0  0  0
  -28.1397  -12.0890   18.6562 C   0  0  0  0  0  0  0  0  0  0  0  0
  -30.5001  -12.6050   19.3849 C   0  0  0  0  0  0  0  0  0  0  0  0
  -28.6153  -13.3310   20.8140 C   0  0  0  0  0  0  0  0  0  0  0  0
  -34.9064  -32.9195   17.8763 C   0  0  1  0  0  0  0  0  0  0  0  0
  -34.7734  -32.4069   21.6383 C   0  0  1  0  0  0  0  0  0  0  0  0
  -27.6295  -13.1513   19.6460 C   0  0  2  0  0  0  0  0  0  0  0  0
  -29.9504  -19.5402   14.7259 C   0  0  0  0  0  0  0  0  0  0  0  0
  -38.3116  -30.4701   28.2514 C   0  0  0  0  0  0  0  0  0  0  0  0
  -27.7822  -16.7361   21.9248 C   0  0  0  0  0  0  0  0  0  0  0  0
  -31.2007  -16.7763   21.8743 C   0  0  0  0  0  0  0  0  0  0  0  0
  -29.8662  -14.9603   22.9623 C   0  0  0  0  0  0  0  0  0  0  0  0
  -38.9773  -30.4869   21.6615 C   0  0  0  0  0  0  0  0  0  0  0  0
  -39.8032  -29.7257   23.8991 C   0  0  0  0  0  0  0  0  0  0  0  0
  -39.7313  -32.1603   23.3602 C   0  0  0  0  0  0  0  0  0  0  0  0
  -34.5982  -31.1493   27.7763 C   0  0  0  0  0  0  0  0  0  0  0  0
  -28.5078  -22.6852   18.3199 C   0  0  0  0  0  0  0  0  0  0  0  0
  -28.2236  -17.6763   19.0064 C   0  0  0  0  0  0  0  0  0  0  0  0
  -29.6094  -23.1740   19.2673 C   0  0  0  0  0  0  0  0  0  0  0  0
  -29.4429  -24.6418   19.6734 C   0  0  0  0  0  0  0  0  0  0  0  0
  -30.5432  -25.0766   20.6399 C   0  0  0  0  0  0  0  0  0  0  0  0
  -30.4113  -26.5453   21.0170 C   0  0  0  0  0  0  0  0  0  1  0  0
  -37.5690  -30.9197   23.7817 C   0  0  1  0  0  0  0  0  0  0  0  0
  -37.0809  -31.0101   27.5398 C   0  0  2  0  0  0  0  0  0  0  0  0
  -28.8685  -16.2603   20.9603 C   0  0  2  0  0  0  0  0  0  0  0  0
  -30.1417  -15.6848   21.6369 C   0  0  0  0  0  0  0  0  0  0  0  0
  -38.9936  -30.8174   23.1673 C   0  0  0  0  0  0  0  0  0  0  0  0
  -25.8540  -11.5540   20.2620 N   0  0  0  0  0  0  0  0  0  0  0  0
  -26.2264  -12.8388   20.1326 N   0  0  0  0  0  0  0  0  0  0  0  0
  -35.5366  -31.4943   22.4920 N   0  0  0  0  0  0  0  0  0  0  0  0
  -29.9693  -13.6051   20.3130 N   0  0  0  0  0  0  0  0  0  0  0  0
  -25.4588  -15.0638   20.3989 N   0  0  0  0  0  0  0  0  0  0  0  0
  -21.8964  -12.5778   21.6340 N   0  0  0  0  0  0  0  0  0  0  0  0
  -34.6247  -32.9902   19.2941 N   0  0  0  0  0  0  0  0  0  0  0  0
  -37.5531  -31.2585   25.2006 N   0  0  0  0  0  0  0  0  0  0  0  0
  -35.8789  -30.6593   28.3479 N   0  3  0  0  0  0  0  0  0  0  0  0
  -29.2106  -17.4148   20.0881 N   0  3  0  0  0  0  0  0  0  0  0  0
  -22.6635  -14.7202   21.3502 O   0  0  0  0  0  0  0  0  0  0  0  0
  -36.0237  -31.2648   19.9929 O   0  0  0  0  0  0  0  0  0  0  0  0
  -37.0824  -33.1351   23.0874 O   0  0  0  0  0  0  0  0  0  0  0  0
  -31.9061  -14.8885   20.2713 O   0  0  0  0  0  0  0  0  0  0  0  0
  -36.3961  -29.3741   25.8990 O   0  0  0  0  0  0  0  0  0  0  0  0
  -21.6365   -7.0137   21.7274 O   0  0  0  0  0  0  0  0  0  0  0  0
  -31.4729  -26.8904   21.9060 O   0  0  0  0  0  0  0  0  0  1  0  0
  -18.7121   -6.8334   26.3985 F   0  0  0  0  0  0  0  0  0  0  0  0
  -22.1182   -5.0648   23.6280 F   0  0  0  0  0  0  0  0  0  0  0  0
  -27.7299  -20.4296   20.2426 Cl  0  0  0  0  0  0  0  0  0  0  0  0
  1  2  1  0  0  0  0
  1  5  2  0  0  0  0
  2  6  2  0  0  0  0
  3  8  2  0  0  0  0
  3 17  1  0  0  0  0
  4  9  1  0  0  0  0
  4 17  2  0  0  0  0
  5 19  1  0  0  0  0
  6 21  1  0  0  0  0
  7 10  2  0  0  0  0
  7 20  1  0  0  0  0
  8 26  1  0  0  0  0
  9 26  2  0  0  0  0
 10 27  1  0  0  0  0
 11 12  2  0  0  0  0
 11 28  1  0  0  0  0
 12 29  1  0  0  0  0
 13 22  1  0  0  0  0
 13 27  2  0  0  0  0
 14 23  2  0  0  0  0
 14 24  1  0  0  0  0
 15 23  1  0  0  0  0
 15 25  2  0  0  0  0
 16 29  2  0  0  0  0
 16 30  1  0  0  0  0
 17 32  1  0  0  0  0
 18 32  1  0  0  0  0
 18 33  2  0  0  0  0
 18 34  1  0  0  0  0
 19 21  2  0  0  0  0
 19 39  1  0  0  0  0
 20 22  2  0  0  0  0
 20 40  1  0  0  0  0
 21 48  1  0  0  0  0
 22 41  1  0  0  0  0
 23 51  1  0  0  0  0
 24 31  2  0  0  0  0
 24 60  1  0  0  0  0
 25 31  1  0  0  0  0
 25 61  1  0  0  0  0
 26 86  1  0  0  0  0
 27 87  1  0  0  0  0
 28 30  2  0  0  0  0
 28 86  1  0  0  0  0
 29 88  1  0  0  0  0
 30 89  1  0  0  0  0
 31 90  1  0  0  0  0
 32 71  2  0  0  0  0
 33 72  1  0  0  0  0
 33 75  1  0  0  0  0
 34 76  1  0  0  0  0
 34 81  2  0  0  0  0
 35 49  1  0  0  0  0
 35 77  1  0  0  0  0
 35 82  2  0  0  0  0
 36 66  1  0  0  0  0
 36 73  1  0  0  0  0
 36 83  2  0  0  0  0
 37 69  1  0  0  0  0
 37 74  1  0  0  0  0
 37 84  2  0  0  0  0
 38 67  1  0  0  0  0
 38 78  1  0  0  0  0
 38 85  2  0  0  0  0
 39 42  1  0  0  0  0
 40 49  1  0  0  0  0
 41 73  1  0  0  0  0
 42 44  1  0  0  0  0
 43 45  1  0  0  0  0
 43 46  1  0  0  0  0
 44 48  1  0  0  0  0
 45 50  1  0  0  0  0
 46 74  1  0  0  0  0
 47 50  1  0  0  0  0
 47 74  1  0  0  0  0
 48 77  1  0  0  0  0
 49 73  1  0  0  0  0
 50 72  1  0  0  0  0
 52 67  1  0  0  0  0
 53 68  1  0  0  0  0
 54 69  1  0  0  0  0
 55 69  1  0  0  0  0
 56 70  1  0  0  0  0
 57 70  1  0  0  0  0
 58 70  1  0  0  0  0
 59 79  1  0  0  0  0
 60 62  1  0  0  0  0
 61 80  1  0  0  0  0
 62 63  1  0  0  0  0
 63 64  1  0  0  0  0
 64 65  1  0  0  0  0
 65 87  1  0  0  0  0
 66 70  1  0  0  0  0
 66 78  1  0  0  0  0
 67 79  1  0  0  0  0
 68 69  1  0  0  0  0
 68 80  1  0  0  0  0
 71 72  1  0  0  0  0
M  CHG  2  79   1  80   1
M  ISO  4  37 100  65 101  69 100  87 101
M  END
> <Batch ID>
0020

> <Smiles>
CNC(C)C(=O)NC(C(=O)N1Cc2cc([101O:1][101CH2:1]CCCCc3cc(C)cc(CNC(C)[100C:0](C)(C)[100C:0](=O)N4CCCC(n5nc(-c6ccc(Oc7ccc(F)cc7F)cc6)c(C(N)=O)c5N)C4)c3Cl)ccc2CC1C(=O)NC1CCCc2ccccc21)C(C)(C)C

> <Shape>
0.226

> <Color>
0.187

> <Negative vol penalty>
0.000

$$$$

  -OEChem-04052316093D

 83 90  0     1  0  0  0  0  0999 V2000
  -27.3632  -24.2244   13.9496 C   0  0  0  0  0  0  0  0  0  0  0  0
  -26.5359  -24.2262   15.0680 C   0  0  0  0  0  0  0  0  0  0  0  0
  -23.8757   -9.7870   22.2320 C   0  0  0  0  0  0  0  0  0  0  0  0
  -22.9662   -9.8817   19.9957 C   0  0  0  0  0  0  0  0  0  0  0  0
  -28.6865  -24.6490   14.0620 C   0  0  0  0  0  0  0  0  0  0  0  0
  -27.0318  -24.6515   16.3000 C   0  0  0  0  0  0  0  0  0  0  0  0
  -23.8339  -27.7454   18.7180 C   0  0  0  0  0  0  0  0  0  0  0  0
  -22.9778   -8.7694   22.5541 C   0  0  0  0  0  0  0  0  0  0  0  0
  -22.0683   -8.8641   20.3178 C   0  0  0  0  0  0  0  0  0  0  0  0
  -22.7479  -27.1585   19.3659 C   0  0  0  0  0  0  0  0  0  0  0  0
  -22.6992   -5.4387   22.0422 C   0  0  0  0  0  0  0  0  0  0  0  0
  -23.1929   -4.3343   22.7364 C   0  0  0  0  0  0  0  0  0  0  0  0
  -23.9183  -27.3281   21.4685 C   0  0  0  0  0  0  0  0  0  0  0  0
  -21.6630   -4.7904   24.5499 C   0  0  0  0  0  0  0  0  0  0  0  0
  -23.8699  -10.3432   20.9528 C   0  0  0  0  0  0  0  0  0  0  0  0
  -26.0917  -11.2493   20.0866 C   0  0  0  0  0  0  0  0  0  0  0  0
  -29.1961  -25.0889   15.2938 C   0  0  0  0  0  0  0  0  0  0  0  0
  -24.9767  -28.1186   19.4400 C   0  0  0  0  0  0  0  0  0  0  0  0
  -28.3635  -25.0811   16.4293 C   0  0  0  0  0  0  0  0  0  0  0  0
  -25.0165  -27.9218   20.8277 C   0  0  0  0  0  0  0  0  0  0  0  0
  -22.0741   -8.3079   21.5970 C   0  0  0  0  0  0  0  0  0  0  0  0
  -22.7911  -26.9472   20.7409 C   0  0  0  0  0  0  0  0  0  0  0  0
  -21.6875   -6.2191   22.6018 C   0  0  0  0  0  0  0  0  0  0  0  0
  -22.6748   -4.0101   23.9903 C   0  0  0  0  0  0  0  0  0  0  0  0
  -21.1694   -5.8949   23.8556 C   0  0  0  0  0  0  0  0  0  0  0  0
  -24.7969  -11.3948   20.6196 C   0  0  0  0  0  0  0  0  0  0  0  0
  -26.5542  -12.5356   19.9522 C   0  0  0  0  0  0  0  0  0  0  0  0
  -26.8120  -10.0580   19.7437 C   0  0  0  0  0  0  0  0  0  0  0  0
  -28.0387  -27.2671   19.3905 C   0  0  0  0  0  0  0  0  0  0  0  0
  -28.3398  -29.6741   21.5441 C   0  0  0  0  0  0  0  0  0  0  0  0
  -26.8672  -31.6516   23.9037 C   0  0  0  0  0  0  0  0  0  0  0  0
  -25.7762  -17.8159   18.7979 C   0  0  0  0  0  0  0  0  0  0  0  0
  -30.6465  -25.4939   15.3764 C   0  0  0  0  0  0  0  0  0  0  0  0
  -26.1291  -28.7749   18.7303 C   0  0  0  0  0  0  0  0  0  0  0  0
  -26.2117  -28.3233   21.6516 C   0  0  0  0  0  0  0  0  0  0  0  0
  -30.9876  -26.2835   16.6376 C   0  0  0  0  0  0  0  0  0  0  0  0
  -23.4389  -16.1126   21.1927 C   0  0  0  0  0  0  0  0  0  0  0  0
  -30.3876  -25.6100   17.8677 C   0  0  0  0  0  0  0  0  0  0  0  0
  -24.7227  -15.4167   21.6451 C   0  0  0  0  0  0  0  0  0  0  0  0
  -23.7199  -17.2188   20.1694 C   0  0  0  0  0  0  0  0  0  0  0  0
  -25.1010  -15.4594   19.1147 C   0  0  0  0  0  0  0  0  0  0  0  0
  -28.8577  -25.5587   17.7775 C   0  0  1  0  0  0  0  0  0  0  0  0
  -27.4480  -28.6454   19.4860 C   0  0  1  0  0  0  0  0  0  0  0  0
  -25.5463  -14.8594   20.4599 C   0  0  2  0  0  0  0  0  0  0  0  0
  -27.3769  -33.5025   25.5198 C   0  0  0  0  0  0  0  0  0  0  0  0
  -27.1927  -20.2219   19.9095 C   0  0  0  0  0  0  0  0  0  0  0  0
  -27.2802  -20.0069   17.4056 C   0  0  0  0  0  0  0  0  0  0  0  0
  -29.7024  -27.6735   23.4018 C   0  0  0  0  0  0  0  0  0  0  0  0
  -29.3270  -29.2757   25.2886 C   0  0  0  0  0  0  0  0  0  0  0  0
  -30.7573  -29.9406   23.3561 C   0  0  0  0  0  0  0  0  0  0  0  0
  -24.9493  -33.4834   22.5902 C   0  0  0  0  0  0  0  0  0  0  0  0
  -19.4962  -23.3611   20.8761 C   0  0  0  0  0  0  0  0  0  0  0  0
  -23.4031  -20.4513   19.4466 C   0  0  0  0  0  0  0  0  0  0  0  0
  -20.3746  -24.4030   21.5699 C   0  0  0  0  0  0  0  0  0  0  0  0
  -20.1732  -22.5542   19.7630 C   0  0  0  0  0  0  0  0  0  0  0  0
  -21.9836  -20.9181   19.1062 C   0  0  0  0  0  0  0  0  0  0  0  0
  -24.0099  -19.5770   18.3540 C   0  0  0  0  0  0  0  0  0  0  0  0
  -20.9460  -25.4511   20.6250 C   0  0  0  0  0  0  0  0  0  1  0  0
  -28.2531  -29.7806   23.0475 C   0  0  1  0  0  0  0  0  0  0  0  0
  -26.8963  -33.1539   24.1197 C   0  0  2  0  0  0  0  0  0  0  0  0
  -26.3812  -20.1987   18.6203 C   0  0  0  0  0  0  0  0  0  0  0  0
  -21.3886  -21.7586   20.2364 C   0  0  2  0  0  0  0  0  0  0  0  0
  -29.4881  -29.1582   23.7580 C   0  0  0  0  0  0  0  0  0  0  0  0
  -24.4586  -12.6727   20.8109 N   0  0  0  0  0  0  0  0  0  0  0  0
  -25.5476  -13.3419   20.3959 N   0  0  0  0  0  0  0  0  0  0  0  0
  -27.3159  -28.9555   20.9110 N   0  0  0  0  0  0  0  0  0  0  0  0
  -24.8289  -16.8880   19.2627 N   0  0  0  0  0  0  0  0  0  0  0  0
  -27.7196  -13.0443   19.4990 N   0  0  0  0  0  0  0  0  0  0  0  0
  -26.1888   -8.8190   19.9454 N   0  0  0  0  0  0  0  0  0  0  0  0
  -28.2890  -26.8507   18.0969 N   0  0  0  0  0  0  0  0  0  0  0  0
  -28.0415  -31.1931   23.3451 N   0  0  0  0  0  0  0  0  0  0  0  0
  -25.3697  -19.1520   18.6717 N   0  0  0  0  0  0  0  0  0  0  0  0
  -25.5349  -33.7306   23.9330 N   0  3  0  0  0  0  0  0  0  0  0  0
  -27.9801  -10.0906   19.2876 O   0  0  0  0  0  0  0  0  0  0  0  0
  -28.2531  -26.6294   20.4147 O   0  0  0  0  0  0  0  0  0  0  0  0
  -29.2776  -30.2148   20.9527 O   0  0  0  0  0  0  0  0  0  0  0  0
  -25.9009  -30.9541   24.2041 O   0  0  0  0  0  0  0  0  0  0  0  0
  -26.9335  -17.4708   18.5243 O   0  0  0  0  0  0  0  0  0  0  0  0
  -21.1978   -7.3148   21.9109 O   0  0  0  0  0  0  0  0  0  0  0  0
  -21.7252  -26.3700   21.3802 O   0  0  0  0  0  0  0  0  0  1  0  0
  -23.1479   -2.9485   24.6562 F   0  0  0  0  0  0  0  0  0  0  0  0
  -20.1965   -6.6401   24.3978 F   0  0  0  0  0  0  0  0  0  0  0  0
  -20.9888  -20.9163   21.2304 F   0  0  0  0  0  0  0  0  0  0  0  0
  1  2  1  0  0  0  0
  1  5  2  0  0  0  0
  2  6  2  0  0  0  0
  3  8  2  0  0  0  0
  3 15  1  0  0  0  0
  4  9  1  0  0  0  0
  4 15  2  0  0  0  0
  5 17  1  0  0  0  0
  6 19  1  0  0  0  0
  7 10  2  0  0  0  0
  7 18  1  0  0  0  0
  8 21  1  0  0  0  0
  9 21  2  0  0  0  0
 10 22  1  0  0  0  0
 11 12  2  0  0  0  0
 11 23  1  0  0  0  0
 12 24  1  0  0  0  0
 13 20  1  0  0  0  0
 13 22  2  0  0  0  0
 14 24  2  0  0  0  0
 14 25  1  0  0  0  0
 15 26  1  0  0  0  0
 16 26  1  0  0  0  0
 16 27  2  0  0  0  0
 16 28  1  0  0  0  0
 17 19  2  0  0  0  0
 17 33  1  0  0  0  0
 18 20  2  0  0  0  0
 18 34  1  0  0  0  0
 19 42  1  0  0  0  0
 20 35  1  0  0  0  0
 21 79  1  0  0  0  0
 22 80  1  0  0  0  0
 23 25  2  0  0  0  0
 23 79  1  0  0  0  0
 24 81  1  0  0  0  0
 25 82  1  0  0  0  0
 26 64  2  0  0  0  0
 27 65  1  0  0  0  0
 27 68  1  0  0  0  0
 28 69  1  0  0  0  0
 28 74  2  0  0  0  0
 29 43  1  0  0  0  0
 29 70  1  0  0  0  0
 29 75  2  0  0  0  0
 30 59  1  0  0  0  0
 30 66  1  0  0  0  0
 30 76  2  0  0  0  0
 31 60  1  0  0  0  0
 31 71  1  0  0  0  0
 31 77  2  0  0  0  0
 32 67  1  0  0  0  0
 32 72  1  0  0  0  0
 32 78  2  0  0  0  0
 33 36  1  0  0  0  0
 34 43  1  0  0  0  0
 35 66  1  0  0  0  0
 36 38  1  0  0  0  0
 37 39  1  0  0  0  0
 37 40  1  0  0  0  0
 38 42  1  0  0  0  0
 39 44  1  0  0  0  0
 40 67  1  0  0  0  0
 41 44  1  0  0  0  0
 41 67  1  0  0  0  0
 42 70  1  0  0  0  0
 43 66  1  0  0  0  0
 44 65  1  0  0  0  0
 45 60  1  0  0  0  0
 46 61  1  0  0  0  0
 47 61  1  0  0  0  0
 48 63  1  0  0  0  0
 49 63  1  0  0  0  0
 50 63  1  0  0  0  0
 51 73  1  0  0  0  0
 52 54  1  0  0  0  0
 52 55  1  0  0  0  0
 53 56  1  0  0  0  0
 53 57  1  0  0  0  0
 54 58  1  0  0  0  0
 55 62  1  0  0  0  0
 56 62  1  0  0  0  0
 57 72  1  0  0  0  0
 58 80  1  0  0  0  0
 59 63  1  0  0  0  0
 59 71  1  0  0  0  0
 60 73  1  0  0  0  0
 61 72  1  0  0  0  0
 62 83  1  0  0  0  0
 64 65  1  0  0  0  0
M  CHG  1  73   1
M  ISO  4  32 100  58 101  72 100  80 101
M  END
> <Batch ID>
0020

> <Smiles>
CNC(C)C(=O)NC(C(=O)N1Cc2cc([101O:1][101CH2:1]CCCC(F)CCC[100N:0](C(C)C)[100C:0](=O)N3CCCC(n4nc(-c5ccc(Oc6ccc(F)cc6F)cc5)c(C(N)=O)c4N)C3)ccc2CC1C(=O)NC1CCCc2ccccc21)C(C)(C)C

> <Shape>
0.241

> <Color>
0.118

> <Negative vol penalty>
0.000

$$$$

  -OEChem-04052316093D

 90 99  0     1  0  0  0  0  0999 V2000
  -28.7438  -28.7585    8.1451 C   0  0  0  0  0  0  0  0  0  0  0  0
  -29.2700  -27.7344    8.9261 C   0  0  0  0  0  0  0  0  0  0  0  0
  -23.0731   -9.8735   19.9355 C   0  0  0  0  0  0  0  0  0  0  0  0
  -23.8381   -9.8680   22.2272 C   0  0  0  0  0  0  0  0  0  0  0  0
  -28.1505  -29.8635    8.7540 C   0  0  0  0  0  0  0  0  0  0  0  0
  -29.2041  -27.8154   10.3166 C   0  0  0  0  0  0  0  0  0  0  0  0
  -28.4478  -23.1766   14.2427 C   0  0  0  0  0  0  0  0  0  0  0  0
  -22.3293   -8.7193   20.1810 C   0  0  0  0  0  0  0  0  0  0  0  0
  -23.0942   -8.7138   22.4727 C   0  0  0  0  0  0  0  0  0  0  0  0
  -29.3487  -22.4465   15.0168 C   0  0  0  0  0  0  0  0  0  0  0  0
  -19.8671   -7.9141   23.0781 C   0  0  0  0  0  0  0  0  0  0  0  0
  -19.1127   -7.8682   24.2505 C   0  0  0  0  0  0  0  0  0  0  0  0
  -30.8648  -19.1135   22.6753 C   0  0  0  0  0  0  0  0  0  0  0  0
  -28.8807  -23.8784   16.9009 C   0  0  0  0  0  0  0  0  0  0  0  0
  -20.3550   -5.9264   24.9739 C   0  0  0  0  0  0  0  0  0  0  0  0
  -23.8275  -10.4478   20.9586 C   0  0  0  0  0  0  0  0  0  0  0  0
  -24.1701  -12.9734   20.8512 C   0  0  0  0  0  0  0  0  0  0  0  0
  -28.0687  -29.9535   10.1525 C   0  0  0  0  0  0  0  0  0  0  0  0
  -27.7636  -24.2715   14.7897 C   0  0  0  0  0  0  0  0  0  0  0  0
  -28.6104  -28.9233   10.9448 C   0  0  0  0  0  0  0  0  0  0  0  0
  -30.5942  -19.8632   21.5307 C   0  0  0  0  0  0  0  0  0  0  0  0
  -27.9698  -24.6191   16.1324 C   0  0  0  0  0  0  0  0  0  0  0  0
  -30.6951  -17.7290   22.6585 C   0  0  0  0  0  0  0  0  0  0  0  0
  -30.1537  -19.2287   20.3693 C   0  0  0  0  0  0  0  0  0  0  0  0
  -29.9839  -17.8442   20.3524 C   0  0  0  0  0  0  0  0  0  0  0  0
  -30.2546  -17.0944   21.4971 C   0  0  0  0  0  0  0  0  0  0  0  0
  -22.3399   -8.1395   21.4496 C   0  0  0  0  0  0  0  0  0  0  0  0
  -29.5675  -22.7992   16.3453 C   0  0  0  0  0  0  0  0  0  0  0  0
  -20.8654   -6.9660   22.8536 C   0  0  0  0  0  0  0  0  0  0  0  0
  -19.3567   -6.8744   25.1984 C   0  0  0  0  0  0  0  0  0  0  0  0
  -21.1094   -5.9723   23.8015 C   0  0  0  0  0  0  0  0  0  0  0  0
  -24.5965  -11.6397   20.7055 C   0  0  0  0  0  0  0  0  0  0  0  0
  -25.2617  -13.7244   20.4895 C   0  0  0  0  0  0  0  0  0  0  0  0
  -22.9007  -13.4875   21.2756 C   0  0  0  0  0  0  0  0  0  0  0  0
  -27.6517  -27.3862   14.1652 C   0  0  0  0  0  0  0  0  0  0  0  0
  -25.3138  -27.3568   16.4138 C   0  0  0  0  0  0  0  0  0  0  0  0
  -23.9243  -25.8253   19.1286 C   0  0  0  0  0  0  0  0  0  0  0  0
  -30.7287  -14.7670   20.6577 C   0  0  0  0  0  0  0  0  0  0  0  0
  -27.4604  -31.1897   10.7660 C   0  0  0  0  0  0  0  0  0  0  0  0
  -26.7751  -25.0323   13.9491 C   0  0  0  0  0  0  0  0  0  0  0  0
  -27.2451  -25.7736   16.7730 C   0  0  0  0  0  0  0  0  0  0  0  0
  -27.0959  -31.0225   12.2390 C   0  0  0  0  0  0  0  0  0  0  0  0
  -32.2761  -23.0344   21.4643 C   0  0  0  0  0  0  0  0  0  0  0  0
  -29.6081  -12.3662   18.2791 C   0  0  0  0  0  0  0  0  0  0  0  0
  -28.2424  -30.3659   13.0014 C   0  0  0  0  0  0  0  0  0  0  0  0
  -28.1693  -12.0729   18.7103 C   0  0  0  0  0  0  0  0  0  0  0  0
  -31.9019  -22.0017   22.5418 C   0  0  0  0  0  0  0  0  0  0  0  0
  -31.6431  -22.0948   20.4231 C   0  0  0  0  0  0  0  0  0  0  0  0
  -30.5260  -12.5883   19.4799 C   0  0  0  0  0  0  0  0  0  0  0  0
  -28.6223  -13.3061   20.8692 C   0  0  0  0  0  0  0  0  0  0  0  0
  -28.5359  -28.9631   12.4558 C   0  0  1  0  0  0  0  0  0  0  0  0
  -26.5179  -26.4459   14.4618 C   0  0  1  0  0  0  0  0  0  0  0  0
  -27.6469  -13.1395   19.6926 C   0  0  2  0  0  0  0  0  0  0  0  0
  -30.7966  -21.4522   21.5755 C   0  0  0  0  0  0  0  0  0  0  0  0
  -29.5115  -17.1673   19.1032 C   0  0  0  0  0  0  0  0  0  0  0  0
  -29.4292  -22.1224   21.7720 C   0  0  0  0  0  0  0  0  0  0  0  0
  -22.0419  -26.0566   20.7719 C   0  0  0  0  0  0  0  0  0  0  0  0
  -31.4678  -17.8929   25.0505 C   0  0  0  0  0  0  0  0  0  0  0  0
  -32.1211  -15.9049   23.6515 C   0  0  0  0  0  0  0  0  0  0  0  0
  -29.7922  -16.1441   24.4884 C   0  0  0  0  0  0  0  0  0  0  0  0
  -26.8513  -29.5592   17.8613 C   0  0  0  0  0  0  0  0  0  0  0  0
  -25.4786  -29.0815   19.8999 C   0  0  0  0  0  0  0  0  0  0  0  0
  -24.3713  -29.8781   17.8113 C   0  0  0  0  0  0  0  0  0  0  0  0
  -22.7270  -23.2499   18.2961 C   0  0  0  0  0  0  0  0  0  0  0  0
  -29.8630  -20.0443   19.1348 C   0  0  0  0  0  0  0  0  0  0  0  0
  -30.9509  -19.9485   18.0630 C   0  0  0  0  0  0  0  0  0  0  0  0
  -30.6086  -20.7068   16.7858 C   0  0  0  0  0  0  0  0  0  1  0  0
  -25.2715  -27.5178   17.9142 C   0  0  1  0  0  0  0  0  0  0  0  0
  -22.4882  -25.4525   19.4495 C   0  0  2  0  0  0  0  0  0  0  0  0
  -30.9940  -16.9531   23.9003 C   0  0  0  0  0  0  0  0  0  0  0  0
  -25.5085  -28.9886   18.3593 C   0  0  0  0  0  0  0  0  0  0  0  0
  -25.8604  -11.5456   20.2839 N   0  0  0  0  0  0  0  0  0  0  0  0
  -26.2375  -12.8297   20.1615 N   0  0  0  0  0  0  0  0  0  0  0  0
  -26.2934  -26.4905   15.9082 N   0  0  0  0  0  0  0  0  0  0  0  0
  -29.9693  -13.6146   20.3640 N   0  0  0  0  0  0  0  0  0  0  0  0
  -25.4725  -15.0562   20.4230 N   0  0  0  0  0  0  0  0  0  0  0  0
  -21.8892  -12.5769   21.6103 N   0  0  0  0  0  0  0  0  0  0  0  0
  -30.0835  -15.6879   21.4824 N   0  0  0  0  0  0  0  0  0  0  0  0
  -27.5536  -28.0169   12.9396 N   0  0  0  0  0  0  0  0  0  0  0  0
  -23.9953  -26.9602   18.3487 N   0  0  0  0  0  0  0  0  0  0  0  0
  -22.3445  -23.9718   19.5370 N   0  3  0  0  0  0  0  0  0  0  0  0
  -22.6651  -14.7179   21.3400 O   0  0  0  0  0  0  0  0  0  0  0  0
  -28.5483  -27.5300   14.9880 O   0  0  0  0  0  0  0  0  0  0  0  0
  -24.5028  -27.9714   15.7165 O   0  0  0  0  0  0  0  0  0  0  0  0
  -24.8870  -25.1769   19.5327 O   0  0  0  0  0  0  0  0  0  0  0  0
  -31.8568  -14.9378   20.1885 O   0  0  0  0  0  0  0  0  0  0  0  0
  -21.6140   -7.0134   21.6896 O   0  0  0  0  0  0  0  0  0  0  0  0
  -30.4467  -22.0887   17.1029 O   0  0  0  0  0  0  0  0  0  1  0  0
  -18.6332   -6.8315   26.3248 F   0  0  0  0  0  0  0  0  0  0  0  0
  -22.0679   -5.0595   23.5919 F   0  0  0  0  0  0  0  0  0  0  0  0
  1  2  1  0  0  0  0
  1  5  2  0  0  0  0
  2  6  2  0  0  0  0
  3  8  2  0  0  0  0
  3 16  1  0  0  0  0
  4  9  1  0  0  0  0
  4 16  2  0  0  0  0
  5 18  1  0  0  0  0
  6 20  1  0  0  0  0
  7 10  2  0  0  0  0
  7 19  1  0  0  0  0
  8 27  1  0  0  0  0
  9 27  2  0  0  0  0
 10 28  1  0  0  0  0
 11 12  2  0  0  0  0
 11 29  1  0  0  0  0
 12 30  1  0  0  0  0
 13 21  2  0  0  0  0
 13 23  1  0  0  0  0
 14 22  1  0  0  0  0
 14 28  2  0  0  0  0
 15 30  2  0  0  0  0
 15 31  1  0  0  0  0
 16 32  1  0  0  0  0
 17 32  1  0  0  0  0
 17 33  2  0  0  0  0
 17 34  1  0  0  0  0
 18 20  2  0  0  0  0
 18 39  1  0  0  0  0
 19 22  2  0  0  0  0
 19 40  1  0  0  0  0
 20 51  1  0  0  0  0
 21 24  1  0  0  0  0
 21 54  1  0  0  0  0
 22 41  1  0  0  0  0
 23 26  2  0  0  0  0
 23 70  1  0  0  0  0
 24 25  2  0  0  0  0
 24 65  1  0  0  0  0
 25 26  1  0  0  0  0
 25 55  1  0  0  0  0
 26 78  1  0  0  0  0
 27 87  1  0  0  0  0
 28 88  1  0  0  0  0
 29 31  2  0  0  0  0
 29 87  1  0  0  0  0
 30 89  1  0  0  0  0
 31 90  1  0  0  0  0
 32 72  2  0  0  0  0
 33 73  1  0  0  0  0
 33 76  1  0  0  0  0
 34 77  1  0  0  0  0
 34 82  2  0  0  0  0
 35 52  1  0  0  0  0
 35 79  1  0  0  0  0
 35 83  2  0  0  0  0
 36 68  1  0  0  0  0
 36 74  1  0  0  0  0
 36 84  2  0  0  0  0
 37 69  1  0  0  0  0
 37 80  1  0  0  0  0
 37 85  2  0  0  0  0
 38 75  1  0  0  0  0
 38 78  1  0  0  0  0
 38 86  2  0  0  0  0
 39 42  1  0  0  0  0
 40 52  1  0  0  0  0
 41 74  1  0  0  0  0
 42 45  1  0  0  0  0
 43 47  1  0  0  0  0
 43 48  1  0  0  0  0
 44 46  1  0  0  0  0
 44 49  1  0  0  0  0
 45 51  1  0  0  0  0
 46 53  1  0  0  0  0
 47 54  1  0  0  0  0
 48 54  1  0  0  0  0
 49 75  1  0  0  0  0
 50 53  1  0  0  0  0
 50 75  1  0  0  0  0
 51 79  1  0  0  0  0
 52 74  1  0  0  0  0
 53 73  1  0  0  0  0
 54 56  1  0  0  0  0
 57 69  1  0  0  0  0
 58 70  1  0  0  0  0
 59 70  1  0  0  0  0
 60 70  1  0  0  0  0
 61 71  1  0  0  0  0
 62 71  1  0  0  0  0
 63 71  1  0  0  0  0
 64 81  1  0  0  0  0
 65 66  1  0  0  0  0
 66 67  1  0  0  0  0
 67 88  1  0  0  0  0
 68 71  1  0  0  0  0
 68 80  1  0  0  0  0
 69 81  1  0  0  0  0
 72 73  1  0  0  0  0
M  CHG  1  81   1
M  ISO  4  38 100  67 101  78 100  88 101
M  END
> <Batch ID>
0020

> <Smiles>
CNC(C)C(=O)NC(C(=O)N1Cc2cc([101O:1][101CH2:1]CCc3c(C4(C)CCC4)cc(C(C)(C)C)c([100NH:0][100C:0](=O)N4CCCC(n5nc(-c6ccc(Oc7ccc(F)cc7F)cc6)c(C(N)=O)c5N)C4)c3C)ccc2CC1C(=O)NC1CCCc2ccccc21)C(C)(C)C

> <Shape>
0.230

> <Color>
0.192

> <Negative vol penalty>
0.000

$$$$

  -OEChem-04052316093D

 79 87  0     1  0  0  0  0  0999 V2000
  -19.3311  -21.6378   23.4865 C   0  0  0  0  0  0  0  0  0  0  0  0
  -20.6828  -21.4896   23.1924 C   0  0  0  0  0  0  0  0  0  0  0  0
  -26.9670  -12.7352   20.9788 C   0  0  0  0  0  0  0  0  0  0  0  0
  -26.8864  -13.0437   18.5840 C   0  0  0  0  0  0  0  0  0  0  0  0
  -18.6610  -22.8016   23.1120 C   0  0  0  0  0  0  0  0  0  0  0  0
  -21.3648  -22.5048   22.5227 C   0  0  0  0  0  0  0  0  0  0  0  0
  -27.2075  -24.1597   23.3166 C   0  0  0  0  0  0  0  0  0  0  0  0
  -26.3888  -11.4739   20.8358 C   0  0  0  0  0  0  0  0  0  0  0  0
  -26.3082  -11.7824   18.4410 C   0  0  0  0  0  0  0  0  0  0  0  0
  -28.3722  -23.8565   22.6128 C   0  0  0  0  0  0  0  0  0  0  0  0
  -24.6031   -8.3199   21.1304 C   0  0  0  0  0  0  0  0  0  0  0  0
  -23.5699   -7.9758   22.0020 C   0  0  0  0  0  0  0  0  0  0  0  0
  -28.1488  -25.9118   21.3697 C   0  0  0  0  0  0  0  0  0  0  0  0
  -22.2685   -9.8457   21.1974 C   0  0  0  0  0  0  0  0  0  0  0  0
  -28.6226  -23.4871   16.6559 C   0  0  0  0  0  0  0  0  0  0  0  0
  -27.2158  -13.5201   19.8529 C   0  0  0  0  0  0  0  0  0  0  0  0
  -29.1853  -15.1353   19.9938 C   0  0  0  0  0  0  0  0  0  0  0  0
  -19.3375  -23.8357   22.4459 C   0  0  0  0  0  0  0  0  0  0  0  0
  -26.4975  -25.3379   23.0441 C   0  0  0  0  0  0  0  0  0  0  0  0
  -20.7028  -23.6830   22.1378 C   0  0  0  0  0  0  0  0  0  0  0  0
  -26.9768  -26.2288   22.0732 C   0  0  0  0  0  0  0  0  0  0  0  0
  -26.0594  -10.9975   19.5669 C   0  0  0  0  0  0  0  0  0  0  0  0
  -28.8414  -24.7312   21.6372 C   0  0  0  0  0  0  0  0  0  0  0  0
  -24.4691   -9.4269   20.2923 C   0  0  0  0  0  0  0  0  0  0  0  0
  -22.4026   -8.7387   22.0355 C   0  0  0  0  0  0  0  0  0  0  0  0
  -23.3018  -10.1897   20.3258 C   0  0  0  0  0  0  0  0  0  0  0  0
  -27.8125  -14.8233   20.0000 C   0  0  0  0  0  0  0  0  0  0  0  0
  -29.3896  -24.6164   16.5992 C   0  0  0  0  0  0  0  0  0  0  0  0
  -29.2286  -16.4972   20.1669 C   0  0  0  0  0  0  0  0  0  0  0  0
  -30.1528  -23.3543   18.2500 C   0  0  0  0  0  0  0  0  0  0  0  0
  -30.3198  -14.2714   19.8447 C   0  0  0  0  0  0  0  0  0  0  0  0
  -23.5755  -26.0017   21.9835 C   0  0  0  0  0  0  0  0  0  0  0  0
  -27.3073  -21.5866   18.8646 C   0  0  0  0  0  0  0  0  0  0  0  0
  -24.4605  -29.0567   22.6209 C   0  0  0  0  0  0  0  0  0  0  0  0
  -26.9851  -31.3164   23.0293 C   0  0  0  0  0  0  0  0  0  0  0  0
  -18.5595  -25.0553   22.0192 C   0  0  0  0  0  0  0  0  0  0  0  0
  -25.2575  -25.6634   23.8308 C   0  0  0  0  0  0  0  0  0  0  0  0
  -26.2626  -27.5166   21.7571 C   0  0  0  0  0  0  0  0  0  0  0  0
  -19.4440  -26.2418   21.6448 C   0  0  0  0  0  0  0  0  0  0  0  0
  -25.6103  -19.7784   21.4512 C   0  0  0  0  0  0  0  0  0  0  0  0
  -20.5804  -25.7932   20.7314 C   0  0  0  0  0  0  0  0  0  0  0  0
  -26.1218  -18.3481   21.2843 C   0  0  0  0  0  0  0  0  0  0  0  0
  -25.4747  -20.4836   20.1054 C   0  0  0  0  0  0  0  0  0  0  0  0
  -27.2415  -19.0567   19.1235 C   0  0  0  0  0  0  0  0  0  0  0  0
  -21.4831  -24.7724   21.4346 C   0  0  1  0  0  0  0  0  0  0  0  0
  -24.3336  -26.6417   23.1120 C   0  0  1  0  0  0  0  0  0  0  0  0
  -27.4222  -18.3186   20.4617 C   0  0  2  0  0  0  0  0  0  0  0  0
  -29.3341  -25.7807   15.7115 C   0  0  0  0  0  0  0  0  0  0  0  0
  -27.3966  -33.7456   23.5057 C   0  0  0  0  0  0  0  0  0  0  0  0
  -23.6791  -29.7489   19.7538 C   0  0  0  0  0  0  0  0  0  0  0  0
  -24.9698  -31.8811   19.9907 C   0  0  0  0  0  0  0  0  0  0  0  0
  -23.0004  -31.4476   21.4591 C   0  0  0  0  0  0  0  0  0  0  0  0
  -28.4626  -30.6975   25.5178 C   0  0  0  0  0  0  0  0  0  0  0  0
  -30.9856  -22.8702   19.4120 C   0  0  0  0  0  0  0  0  0  0  0  0
  -28.5946  -21.4351   18.0940 C   0  0  0  0  0  0  0  0  0  0  0  0
  -30.2782  -23.0565   20.7499 C   0  0  0  0  0  0  0  0  0  1  0  0
  -25.1404  -30.1572   21.8428 C   0  0  1  0  0  0  0  0  0  0  0  0
  -27.2419  -32.3564   24.1049 C   0  0  2  0  0  0  0  0  0  0  0  0
  -24.2100  -30.7836   20.7660 C   0  0  0  0  0  0  0  0  0  0  0  0
  -27.0397  -15.9002   20.1643 N   0  0  0  0  0  0  0  0  0  0  0  0
  -29.1174  -22.7240   17.6859 N   0  0  0  0  0  0  0  0  0  0  0  0
  -27.9299  -16.9023   20.2629 N   0  0  0  0  0  0  0  0  0  0  0  0
  -30.3281  -24.5076   17.5969 N   0  3  0  0  0  0  0  0  0  0  0  0
  -25.0512  -27.7872   22.5489 N   0  0  0  0  0  0  0  0  0  0  0  0
  -26.7239  -20.4140   19.3451 N   0  0  0  0  0  0  0  0  0  0  0  0
  -30.2507  -17.3757   20.2450 N   0  0  0  0  0  0  0  0  0  0  0  0
  -30.0962  -12.8981   19.6761 N   0  0  0  0  0  0  0  0  0  0  0  0
  -22.3720  -25.4383   22.3624 N   0  0  0  0  0  0  0  0  0  0  0  0
  -25.6365  -31.1092   22.8307 N   0  0  0  0  0  0  0  0  0  0  0  0
  -28.4858  -32.0277   24.8568 N   0  3  0  0  0  0  0  0  0  0  0  0
  -31.4974  -14.7023   19.8771 O   0  0  0  0  0  0  0  0  0  0  0  0
  -24.0469  -26.0192   20.8525 O   0  0  0  0  0  0  0  0  0  0  0  0
  -26.8373  -22.7144   19.0359 O   0  0  0  0  0  0  0  0  0  0  0  0
  -23.4469  -29.3155   23.2745 O   0  0  0  0  0  0  0  0  0  0  0  0
  -27.8904  -30.7476   22.4231 O   0  0  0  0  0  0  0  0  0  0  0  0
  -25.4954   -9.7667   19.4270 O   0  0  0  0  0  0  0  0  0  0  0  0
  -29.9776  -24.4373   20.9483 O   0  0  0  0  0  0  0  0  0  1  0  0
  -21.4098   -8.4073   22.8714 F   0  0  0  0  0  0  0  0  0  0  0  0
  -23.1668  -11.2536   19.5223 F   0  0  0  0  0  0  0  0  0  0  0  0
  1  2  1  0  0  0  0
  1  5  2  0  0  0  0
  2  6  2  0  0  0  0
  3  8  2  0  0  0  0
  3 16  1  0  0  0  0
  4  9  1  0  0  0  0
  4 16  2  0  0  0  0
  5 18  1  0  0  0  0
  6 20  1  0  0  0  0
  7 10  2  0  0  0  0
  7 19  1  0  0  0  0
  8 22  1  0  0  0  0
  9 22  2  0  0  0  0
 10 23  1  0  0  0  0
 11 12  2  0  0  0  0
 11 24  1  0  0  0  0
 12 25  1  0  0  0  0
 13 21  1  0  0  0  0
 13 23  2  0  0  0  0
 14 25  2  0  0  0  0
 14 26  1  0  0  0  0
 15 28  2  0  0  0  0
 15 61  1  0  0  0  0
 16 27  1  0  0  0  0
 17 27  1  0  0  0  0
 17 29  2  0  0  0  0
 17 31  1  0  0  0  0
 18 20  2  0  0  0  0
 18 36  1  0  0  0  0
 19 21  2  0  0  0  0
 19 37  1  0  0  0  0
 20 45  1  0  0  0  0
 21 38  1  0  0  0  0
 22 76  1  0  0  0  0
 23 77  1  0  0  0  0
 24 26  2  0  0  0  0
 24 76  1  0  0  0  0
 25 78  1  0  0  0  0
 26 79  1  0  0  0  0
 27 60  2  0  0  0  0
 28 48  1  0  0  0  0
 28 63  1  0  0  0  0
 29 62  1  0  0  0  0
 29 66  1  0  0  0  0
 30 54  1  0  0  0  0
 30 61  1  0  0  0  0
 30 63  2  0  0  0  0
 31 67  1  0  0  0  0
 31 71  2  0  0  0  0
 32 46  1  0  0  0  0
 32 68  1  0  0  0  0
 32 72  2  0  0  0  0
 33 55  1  0  0  0  0
 33 65  1  0  0  0  0
 33 73  2  0  0  0  0
 34 57  1  0  0  0  0
 34 64  1  0  0  0  0
 34 74  2  0  0  0  0
 35 58  1  0  0  0  0
 35 69  1  0  0  0  0
 35 75  2  0  0  0  0
 36 39  1  0  0  0  0
 37 46  1  0  0  0  0
 38 64  1  0  0  0  0
 39 41  1  0  0  0  0
 40 42  1  0  0  0  0
 40 43  1  0  0  0  0
 41 45  1  0  0  0  0
 42 47  1  0  0  0  0
 43 65  1  0  0  0  0
 44 47  1  0  0  0  0
 44 65  1  0  0  0  0
 45 68  1  0  0  0  0
 46 64  1  0  0  0  0
 47 62  1  0  0  0  0
 49 58  1  0  0  0  0
 50 59  1  0  0  0  0
 51 59  1  0  0  0  0
 52 59  1  0  0  0  0
 53 70  1  0  0  0  0
 54 56  1  0  0  0  0
 55 61  1  0  0  0  0
 56 77  1  0  0  0  0
 57 59  1  0  0  0  0
 57 69  1  0  0  0  0
 58 70  1  0  0  0  0
 60 62  1  0  0  0  0
M  CHG  2  63   1  70   1
M  ISO  4  33 100  55 100  56 101  77 101
M  END
> <Batch ID>
0020

> <Smiles>
CNC(C)C(=O)NC(C(=O)N1Cc2cc([101O:1][101CH2:1]Cc3nc(C)cn3[100CH2:0][100C:0](=O)N3CCCC(n4nc(-c5ccc(Oc6ccc(F)cc6F)cc5)c(C(N)=O)c4N)C3)ccc2CC1C(=O)NC1CCCc2ccccc21)C(C)(C)C

> <Shape>
0.246

> <Color>
0.069

> <Negative vol penalty>
0.000

$$$$

  -OEChem-04052316093D

 91 99  0     1  0  0  0  0  0999 V2000
  -18.8435  -24.0960   23.3140 C   0  0  0  0  0  0  0  0  0  0  0  0
  -20.2125  -24.1468   23.0718 C   0  0  0  0  0  0  0  0  0  0  0  0
  -27.5437  -12.7155   18.7264 C   0  0  0  0  0  0  0  0  0  0  0  0
  -28.3993  -13.5145   20.8399 C   0  0  0  0  0  0  0  0  0  0  0  0
  -18.0611  -25.2350   23.1281 C   0  0  0  0  0  0  0  0  0  0  0  0
  -20.7998  -25.3365   22.6426 C   0  0  0  0  0  0  0  0  0  0  0  0
  -25.1072  -26.3722   25.0959 C   0  0  0  0  0  0  0  0  0  0  0  0
  -28.7504  -12.0584   18.4863 C   0  0  0  0  0  0  0  0  0  0  0  0
  -29.6061  -12.8574   20.5998 C   0  0  0  0  0  0  0  0  0  0  0  0
  -26.2482  -25.6750   24.7012 C   0  0  0  0  0  0  0  0  0  0  0  0
  -32.7828  -11.0925   20.7086 C   0  0  0  0  0  0  0  0  0  0  0  0
  -33.3442  -10.3625   21.7562 C   0  0  0  0  0  0  0  0  0  0  0  0
  -26.9593  -27.5830   23.4077 C   0  0  0  0  0  0  0  0  0  0  0  0
  -27.5892  -20.3370   20.2345 C   0  0  0  0  0  0  0  0  0  0  0  0
  -27.5897  -19.1998   22.3660 C   0  0  0  0  0  0  0  0  0  0  0  0
  -31.3698   -8.9729   21.8459 C   0  0  0  0  0  0  0  0  0  0  0  0
  -27.3682  -13.4436   19.9032 C   0  0  0  0  0  0  0  0  0  0  0  0
  -24.9879  -13.6064   20.8063 C   0  0  0  0  0  0  0  0  0  0  0  0
  -18.6406  -26.4418   22.7058 C   0  0  0  0  0  0  0  0  0  0  0  0
  -24.8779  -27.6783   24.6399 C   0  0  0  0  0  0  0  0  0  0  0  0
  -20.0242  -26.4923   22.4497 C   0  0  0  0  0  0  0  0  0  0  0  0
  -25.8159  -28.2955   23.8001 C   0  0  0  0  0  0  0  0  0  0  0  0
  -26.9348  -19.9807   21.4137 C   0  0  0  0  0  0  0  0  0  0  0  0
  -28.8984  -19.9123   20.0076 C   0  0  0  0  0  0  0  0  0  0  0  0
  -29.5532  -19.1314   20.9600 C   0  0  0  0  0  0  0  0  0  0  0  0
  -29.7816  -12.1293   19.4229 C   0  0  0  0  0  0  0  0  0  0  0  0
  -27.1730  -26.2793   23.8547 C   0  0  0  0  0  0  0  0  0  0  0  0
  -31.5148  -10.7628   20.2297 C   0  0  0  0  0  0  0  0  0  0  0  0
  -28.8989  -18.7751   22.1392 C   0  0  0  0  0  0  0  0  0  0  0  0
  -32.6377   -9.3027   22.3248 C   0  0  0  0  0  0  0  0  0  0  0  0
  -30.8084   -9.7030   20.7983 C   0  0  0  0  0  0  0  0  0  0  0  0
  -26.1221  -14.1230   20.1516 C   0  0  0  0  0  0  0  0  0  0  0  0
  -24.0801  -14.6370   20.7852 C   0  0  0  0  0  0  0  0  0  0  0  0
  -24.7741  -12.3109   21.3821 C   0  0  0  0  0  0  0  0  0  0  0  0
  -22.6245  -29.0802   22.8905 C   0  0  0  0  0  0  0  0  0  0  0  0
  -24.2435  -31.7798   23.6738 C   0  0  0  0  0  0  0  0  0  0  0  0
  -24.7775  -20.5906   20.3607 C   0  0  0  0  0  0  0  0  0  0  0  0
  -27.1824  -33.2163   24.6464 C   0  0  0  0  0  0  0  0  0  0  0  0
  -17.7467  -27.6341   22.4733 C   0  0  0  0  0  0  0  0  0  0  0  0
  -23.6555  -28.4265   25.0963 C   0  0  0  0  0  0  0  0  0  0  0  0
  -25.6264  -29.7031   23.2989 C   0  0  0  0  0  0  0  0  0  0  0  0
  -18.5059  -28.9549   22.3770 C   0  0  0  0  0  0  0  0  0  0  0  0
  -22.8178  -18.4738   18.2349 C   0  0  0  0  0  0  0  0  0  0  0  0
  -19.7157  -28.8096   21.4593 C   0  0  0  0  0  0  0  0  0  0  0  0
  -23.3594  -17.0744   18.5240 C   0  0  0  0  0  0  0  0  0  0  0  0
  -23.9220  -19.5243   18.3002 C   0  0  0  0  0  0  0  0  0  0  0  0
  -25.2216  -18.1323   19.8797 C   0  0  0  0  0  0  0  0  0  0  0  0
  -20.7020  -27.7709   22.0070 C   0  0  1  0  0  0  0  0  0  0  0  0
  -23.2675  -29.5657   24.1587 C   0  0  1  0  0  0  0  0  0  0  0  0
  -24.1329  -17.0449   19.8541 C   0  0  2  0  0  0  0  0  0  0  0  0
  -30.9570  -18.6742   20.7223 C   0  0  0  0  0  0  0  0  0  0  0  0
  -30.0013  -15.7844   23.8110 C   0  0  0  0  0  0  0  0  0  0  0  0
  -28.2067  -35.4468   25.1688 C   0  0  0  0  0  0  0  0  0  0  0  0
  -31.5506  -24.1529   18.2995 C   0  0  0  0  0  0  0  0  0  0  0  0
  -25.5120  -21.8099   22.3738 C   0  0  0  0  0  0  0  0  0  0  0  0
  -24.6401  -19.4733   22.4923 C   0  0  0  0  0  0  0  0  0  0  0  0
  -24.3844  -32.4108   20.6919 C   0  0  0  0  0  0  0  0  0  0  0  0
  -26.1830  -34.0765   21.2004 C   0  0  0  0  0  0  0  0  0  0  0  0
  -23.8978  -34.3811   22.1533 C   0  0  0  0  0  0  0  0  0  0  0  0
  -27.7926  -32.4144   27.4291 C   0  0  0  0  0  0  0  0  0  0  0  0
  -29.5800  -20.3082   18.7298 C   0  0  0  0  0  0  0  0  0  0  0  0
  -29.5113  -24.6928   21.5902 C   0  0  0  0  0  0  0  0  0  0  0  0
  -30.1301  -24.9866   20.2172 C   0  0  0  0  0  0  0  0  0  0  0  0
  -30.6089  -21.4215   18.8991 C   0  0  0  0  0  0  0  0  0  0  0  0
  -28.9195  -16.7635   23.4076 C   0  0  0  0  0  0  0  0  0  0  0  0
  -28.8293  -25.9195   22.1864 C   0  0  0  0  0  0  0  0  0  1  0  0
  -25.3881  -32.5542   23.0663 C   0  0  1  0  0  0  0  0  0  0  0  0
  -27.4983  -34.2261   25.7350 C   0  0  2  0  0  0  0  0  0  0  0  0
  -30.8909  -23.7948   19.6247 C   0  0  1  0  0  0  0  0  0  0  0  0
  -25.5346  -20.4338   21.6553 C   0  0  0  0  0  0  0  0  0  0  0  0
  -24.9663  -33.3284   21.7857 C   0  0  0  0  0  0  0  0  0  0  0  0
  -25.9526  -15.3837   19.7441 N   0  0  0  0  0  0  0  0  0  0  0  0
  -24.7014  -15.6679   20.1437 N   0  0  0  0  0  0  0  0  0  0  0  0
  -24.4123  -30.3911   23.7682 N   0  0  0  0  0  0  0  0  0  0  0  0
  -24.6475  -19.4490   19.5695 N   0  0  0  0  0  0  0  0  0  0  0  0
  -22.8190  -14.7527   21.2527 N   0  0  0  0  0  0  0  0  0  0  0  0
  -25.8118  -11.3711   21.3165 N   0  0  0  0  0  0  0  0  0  0  0  0
  -21.4789  -28.3338   23.0905 N   0  0  0  0  0  0  0  0  0  0  0  0
  -25.9175  -33.4014   24.1295 N   0  0  0  0  0  0  0  0  0  0  0  0
  -28.3753  -33.6125   26.7719 N   0  3  0  0  0  0  0  0  0  0  0  0
  -29.9519  -22.6649   19.3788 N   0  3  0  0  0  0  0  0  0  0  0  0
  -23.6890  -11.9906   21.9239 O   0  0  0  0  0  0  0  0  0  0  0  0
  -23.1294  -29.3632   21.8103 O   0  0  0  0  0  0  0  0  0  0  0  0
  -23.2396  -32.3855   24.0572 O   0  0  0  0  0  0  0  0  0  0  0  0
  -24.3137  -21.6948   20.0645 O   0  0  0  0  0  0  0  0  0  0  0  0
  -27.9795  -32.3523   24.2877 O   0  0  0  0  0  0  0  0  0  0  0  0
  -30.9591  -11.4881   19.1891 O   0  0  0  0  0  0  0  0  0  0  0  0
  -28.2872  -25.6007   23.4674 O   0  0  0  0  0  0  0  0  0  1  0  0
  -29.5229  -18.0139   23.0812 O   0  0  0  0  0  0  0  0  0  0  0  0
  -33.1776   -8.6008   23.3298 F   0  0  0  0  0  0  0  0  0  0  0  0
  -29.5904   -9.3808   20.3417 F   0  0  0  0  0  0  0  0  0  0  0  0
  1  2  1  0  0  0  0
  1  5  2  0  0  0  0
  2  6  2  0  0  0  0
  3  8  2  0  0  0  0
  3 17  1  0  0  0  0
  4  9  1  0  0  0  0
  4 17  2  0  0  0  0
  5 19  1  0  0  0  0
  6 21  1  0  0  0  0
  7 10  2  0  0  0  0
  7 20  1  0  0  0  0
  8 26  1  0  0  0  0
  9 26  2  0  0  0  0
 10 27  1  0  0  0  0
 11 12  2  0  0  0  0
 11 28  1  0  0  0  0
 12 30  1  0  0  0  0
 13 22  1  0  0  0  0
 13 27  2  0  0  0  0
 14 23  1  0  0  0  0
 14 24  2  0  0  0  0
 15 23  2  0  0  0  0
 15 29  1  0  0  0  0
 16 30  2  0  0  0  0
 16 31  1  0  0  0  0
 17 32  1  0  0  0  0
 18 32  1  0  0  0  0
 18 33  2  0  0  0  0
 18 34  1  0  0  0  0
 19 21  2  0  0  0  0
 19 39  1  0  0  0  0
 20 22  2  0  0  0  0
 20 40  1  0  0  0  0
 21 48  1  0  0  0  0
 22 41  1  0  0  0  0
 23 70  1  0  0  0  0
 24 25  1  0  0  0  0
 24 61  1  0  0  0  0
 25 29  2  0  0  0  0
 25 51  1  0  0  0  0
 26 87  1  0  0  0  0
 27 88  1  0  0  0  0
 28 31  2  0  0  0  0
 28 87  1  0  0  0  0
 29 89  1  0  0  0  0
 30 90  1  0  0  0  0
 31 91  1  0  0  0  0
 32 72  2  0  0  0  0
 33 73  1  0  0  0  0
 33 76  1  0  0  0  0
 34 77  1  0  0  0  0
 34 82  2  0  0  0  0
 35 49  1  0  0  0  0
 35 78  1  0  0  0  0
 35 83  2  0  0  0  0
 36 67  1  0  0  0  0
 36 74  1  0  0  0  0
 36 84  2  0  0  0  0
 37 70  1  0  0  0  0
 37 75  1  0  0  0  0
 37 85  2  0  0  0  0
 38 68  1  0  0  0  0
 38 79  1  0  0  0  0
 38 86  2  0  0  0  0
 39 42  1  0  0  0  0
 40 49  1  0  0  0  0
 41 74  1  0  0  0  0
 42 44  1  0  0  0  0
 43 45  1  0  0  0  0
 43 46  1  0  0  0  0
 44 48  1  0  0  0  0
 45 50  1  0  0  0  0
 46 75  1  0  0  0  0
 47 50  1  0  0  0  0
 47 75  1  0  0  0  0
 48 78  1  0  0  0  0
 49 74  1  0  0  0  0
 50 73  1  0  0  0  0
 52 65  1  0  0  0  0
 53 68  1  0  0  0  0
 54 69  1  0  0  0  0
 55 70  1  0  0  0  0
 56 70  1  0  0  0  0
 57 71  1  0  0  0  0
 58 71  1  0  0  0  0
 59 71  1  0  0  0  0
 60 80  1  0  0  0  0
 61 64  1  0  0  0  0
 62 63  1  0  0  0  0
 62 66  1  0  0  0  0
 63 69  1  0  0  0  0
 64 81  1  0  0  0  0
 65 89  1  0  0  0  0
 66 88  1  0  0  0  0
 67 71  1  0  0  0  0
 67 79  1  0  0  0  0
 68 80  1  0  0  0  0
 69 81  1  0  0  0  0
 72 73  1  0  0  0  0
M  CHG  2  80   1  81   1
M  ISO  4  37 100  66 101  70 100  88 101
M  END
> <Batch ID>
0020

> <Smiles>
CCOc1cc([100C:0](C)(C)[100C:0](=O)N2CCCC(n3nc(-c4ccc(Oc5ccc(F)cc5F)cc4)c(C(N)=O)c3N)C2)cc(CCNC(C)CC[101CH2:1][101O:1]c2ccc3c(c2)CN(C(=O)C(NC(=O)C(C)NC)C(C)(C)C)C(C(=O)NC2CCCc4ccccc42)C3)c1C

> <Shape>
0.274

> <Color>
0.086

> <Negative vol penalty>
0.000

$$$$

  -OEChem-04052316093D

 82 90  0     1  0  0  0  0  0999 V2000
  -35.5342  -32.0743   16.6190 C   0  0  0  0  0  0  0  0  0  0  0  0
  -35.8139  -30.7288   16.8353 C   0  0  0  0  0  0  0  0  0  0  0  0
  -23.0047   -9.8678   19.9773 C   0  0  0  0  0  0  0  0  0  0  0  0
  -23.7285   -9.9237   22.2816 C   0  0  0  0  0  0  0  0  0  0  0  0
  -34.3385  -32.6201   17.0842 C   0  0  0  0  0  0  0  0  0  0  0  0
  -34.8984  -29.9285   17.5179 C   0  0  0  0  0  0  0  0  0  0  0  0
  -32.4481  -23.2010   17.7490 C   0  0  0  0  0  0  0  0  0  0  0  0
  -22.2449   -8.7288   20.2436 C   0  0  0  0  0  0  0  0  0  0  0  0
  -22.9686   -8.7847   22.5479 C   0  0  0  0  0  0  0  0  0  0  0  0
  -32.2353  -22.1628   18.6548 C   0  0  0  0  0  0  0  0  0  0  0  0
  -23.2332   -5.4472   22.0771 C   0  0  0  0  0  0  0  0  0  0  0  0
  -23.8265   -4.4338   22.8297 C   0  0  0  0  0  0  0  0  0  0  0  0
  -30.1668  -23.1956   19.3433 C   0  0  0  0  0  0  0  0  0  0  0  0
  -22.1005   -4.6668   24.5041 C   0  0  0  0  0  0  0  0  0  0  0  0
  -23.7466  -10.4652   20.9963 C   0  0  0  0  0  0  0  0  0  0  0  0
  -24.1169  -12.9831   20.8197 C   0  0  0  0  0  0  0  0  0  0  0  0
  -33.4036  -31.8238   17.7643 C   0  0  0  0  0  0  0  0  0  0  0  0
  -31.5258  -24.2518   17.6411 C   0  0  0  0  0  0  0  0  0  0  0  0
  -33.6897  -30.4645   17.9938 C   0  0  0  0  0  0  0  0  0  0  0  0
  -30.3690  -24.2447   18.4335 C   0  0  0  0  0  0  0  0  0  0  0  0
  -31.5595  -19.3644   22.7671 C   0  0  0  0  0  0  0  0  0  0  0  0
  -31.1662  -18.4078   23.7029 C   0  0  0  0  0  0  0  0  0  0  0  0
  -31.4510  -19.0920   21.4034 C   0  0  0  0  0  0  0  0  0  0  0  0
  -30.6645  -17.1786   23.2750 C   0  0  0  0  0  0  0  0  0  0  0  0
  -30.9493  -17.8628   20.9755 C   0  0  0  0  0  0  0  0  0  0  0  0
  -30.5560  -16.9061   21.9112 C   0  0  0  0  0  0  0  0  0  0  0  0
  -22.2268   -8.1873   21.5289 C   0  0  0  0  0  0  0  0  0  0  0  0
  -31.0959  -22.1615   19.4542 C   0  0  0  0  0  0  0  0  0  0  0  0
  -22.0736   -6.0705   22.5380 C   0  0  0  0  0  0  0  0  0  0  0  0
  -23.2601   -4.0435   24.0432 C   0  0  0  0  0  0  0  0  0  0  0  0
  -21.5072   -5.6803   23.7514 C   0  0  0  0  0  0  0  0  0  0  0  0
  -24.5321  -11.6415   20.7217 C   0  0  0  0  0  0  0  0  0  0  0  0
  -25.2224  -13.7122   20.4556 C   0  0  0  0  0  0  0  0  0  0  0  0
  -22.8455  -13.5219   21.2055 C   0  0  0  0  0  0  0  0  0  0  0  0
  -31.6389  -27.3931   18.1130 C   0  0  0  0  0  0  0  0  0  0  0  0
  -28.6292  -27.2898   16.9075 C   0  0  0  0  0  0  0  0  0  0  0  0
  -25.8008  -25.4698   16.3292 C   0  0  0  0  0  0  0  0  0  0  0  0
  -30.6959  -14.7062   20.6918 C   0  0  0  0  0  0  0  0  0  0  0  0
  -32.1460  -32.4695   18.2898 C   0  0  0  0  0  0  0  0  0  0  0  0
  -31.7567  -25.3505   16.6401 C   0  0  0  0  0  0  0  0  0  0  0  0
  -29.3381  -25.3388   18.3416 C   0  0  0  0  0  0  0  0  0  0  0  0
  -31.0619  -31.4665   18.6758 C   0  0  0  0  0  0  0  0  0  0  0  0
  -29.5934  -12.2460   18.3660 C   0  0  0  0  0  0  0  0  0  0  0  0
  -31.6548  -30.3327   19.5063 C   0  0  0  0  0  0  0  0  0  0  0  0
  -28.1442  -11.9798   18.7796 C   0  0  0  0  0  0  0  0  0  0  0  0
  -30.4919  -12.4952   19.5761 C   0  0  0  0  0  0  0  0  0  0  0  0
  -28.5713  -13.2729   20.9086 C   0  0  0  0  0  0  0  0  0  0  0  0
  -32.7108  -29.5582   18.7083 C   0  0  1  0  0  0  0  0  0  0  0  0
  -31.0075  -26.6353   16.9796 C   0  0  1  0  0  0  0  0  0  0  0  0
  -27.6153  -13.0804   19.7200 C   0  0  2  0  0  0  0  0  0  0  0  0
  -32.0976  -20.6830   23.2262 C   0  0  0  0  0  0  0  0  0  0  0  0
  -31.2825  -18.7007   25.1657 C   0  0  0  0  0  0  0  0  0  0  0  0
  -30.2434  -16.1548   24.2832 C   0  0  0  0  0  0  0  0  0  0  0  0
  -30.8337  -17.5750   19.5106 C   0  0  0  0  0  0  0  0  0  0  0  0
  -23.4944  -25.6682   15.3604 C   0  0  0  0  0  0  0  0  0  0  0  0
  -27.7129  -28.7892   19.4019 C   0  0  0  0  0  0  0  0  0  0  0  0
  -25.3621  -28.1265   18.8518 C   0  0  0  0  0  0  0  0  0  0  0  0
  -26.6536  -29.5618   17.2723 C   0  0  0  0  0  0  0  0  0  0  0  0
  -26.3605  -23.4128   14.2764 C   0  0  0  0  0  0  0  0  0  0  0  0
  -31.8741  -20.1217   20.3973 C   0  0  0  0  0  0  0  0  0  1  0  0
  -27.2487  -27.1145   17.4925 C   0  0  1  0  0  0  0  0  0  0  0  0
  -24.9455  -25.3052   15.0859 C   0  0  2  0  0  0  0  0  0  0  0  0
  -26.7645  -28.3782   18.2579 C   0  0  0  0  0  0  0  0  0  0  0  0
  -25.8023  -11.5225   20.3261 N   0  0  0  0  0  0  0  0  0  0  0  0
  -26.1947  -12.7986   20.1723 N   0  0  0  0  0  0  0  0  0  0  0  0
  -29.6120  -26.3942   17.3523 N   0  0  0  0  0  0  0  0  0  0  0  0
  -29.9301  -13.5530   20.4189 N   0  0  0  0  0  0  0  0  0  0  0  0
  -25.4480  -15.0392   20.3533 N   0  0  0  0  0  0  0  0  0  0  0  0
  -21.8188  -12.6317   21.5488 N   0  0  0  0  0  0  0  0  0  0  0  0
  -30.0456  -15.6577   21.4768 N   0  0  0  0  0  0  0  0  0  0  0  0
  -32.0755  -28.6584   17.7696 N   0  0  0  0  0  0  0  0  0  0  0  0
  -26.3839  -26.7180   16.3864 N   0  0  0  0  0  0  0  0  0  0  0  0
  -24.9946  -23.8951   14.6064 N   0  3  0  0  0  0  0  0  0  0  0  0
  -22.6213  -14.7559   21.2288 O   0  0  0  0  0  0  0  0  0  0  0  0
  -31.7225  -26.8693   19.2177 O   0  0  0  0  0  0  0  0  0  0  0  0
  -28.8266  -28.1838   16.0807 O   0  0  0  0  0  0  0  0  0  0  0  0
  -25.9349  -24.5815   17.1679 O   0  0  0  0  0  0  0  0  0  0  0  0
  -31.8339  -14.8518   20.2382 O   0  0  0  0  0  0  0  0  0  0  0  0
  -21.4853   -7.0760   21.7892 O   0  0  0  0  0  0  0  0  0  0  0  0
  -30.8861  -21.1496   20.3396 O   0  0  0  0  0  0  0  0  0  1  0  0
  -23.8291   -3.0692   24.7651 F   0  0  0  0  0  0  0  0  0  0  0  0
  -20.3925   -6.2746   24.1988 F   0  0  0  0  0  0  0  0  0  0  0  0
  1  2  1  0  0  0  0
  1  5  2  0  0  0  0
  2  6  2  0  0  0  0
  3  8  2  0  0  0  0
  3 15  1  0  0  0  0
  4  9  1  0  0  0  0
  4 15  2  0  0  0  0
  5 17  1  0  0  0  0
  6 19  1  0  0  0  0
  7 10  2  0  0  0  0
  7 18  1  0  0  0  0
  8 27  1  0  0  0  0
  9 27  2  0  0  0  0
 10 28  1  0  0  0  0
 11 12  2  0  0  0  0
 11 29  1  0  0  0  0
 12 30  1  0  0  0  0
 13 20  1  0  0  0  0
 13 28  2  0  0  0  0
 14 30  2  0  0  0  0
 14 31  1  0  0  0  0
 15 32  1  0  0  0  0
 16 32  1  0  0  0  0
 16 33  2  0  0  0  0
 16 34  1  0  0  0  0
 17 19  2  0  0  0  0
 17 39  1  0  0  0  0
 18 20  2  0  0  0  0
 18 40  1  0  0  0  0
 19 48  1  0  0  0  0
 20 41  1  0  0  0  0
 21 22  2  0  0  0  0
 21 23  1  0  0  0  0
 21 51  1  0  0  0  0
 22 24  1  0  0  0  0
 22 52  1  0  0  0  0
 23 25  2  0  0  0  0
 23 60  1  0  0  0  0
 24 26  2  0  0  0  0
 24 53  1  0  0  0  0
 25 26  1  0  0  0  0
 25 54  1  0  0  0  0
 26 70  1  0  0  0  0
 27 79  1  0  0  0  0
 28 80  1  0  0  0  0
 29 31  2  0  0  0  0
 29 79  1  0  0  0  0
 30 81  1  0  0  0  0
 31 82  1  0  0  0  0
 32 64  2  0  0  0  0
 33 65  1  0  0  0  0
 33 68  1  0  0  0  0
 34 69  1  0  0  0  0
 34 74  2  0  0  0  0
 35 49  1  0  0  0  0
 35 71  1  0  0  0  0
 35 75  2  0  0  0  0
 36 61  1  0  0  0  0
 36 66  1  0  0  0  0
 36 76  2  0  0  0  0
 37 62  1  0  0  0  0
 37 72  1  0  0  0  0
 37 77  2  0  0  0  0
 38 67  1  0  0  0  0
 38 70  1  0  0  0  0
 38 78  2  0  0  0  0
 39 42  1  0  0  0  0
 40 49  1  0  0  0  0
 41 66  1  0  0  0  0
 42 44  1  0  0  0  0
 43 45  1  0  0  0  0
 43 46  1  0  0  0  0
 44 48  1  0  0  0  0
 45 50  1  0  0  0  0
 46 67  1  0  0  0  0
 47 50  1  0  0  0  0
 47 67  1  0  0  0  0
 48 71  1  0  0  0  0
 49 66  1  0  0  0  0
 50 65  1  0  0  0  0
 55 62  1  0  0  0  0
 56 63  1  0  0  0  0
 57 63  1  0  0  0  0
 58 63  1  0  0  0  0
 59 73  1  0  0  0  0
 60 80  1  0  0  0  0
 61 63  1  0  0  0  0
 61 72  1  0  0  0  0
 62 73  1  0  0  0  0
 64 65  1  0  0  0  0
M  CHG  1  73   1
M  ISO  4  38 100  60 101  70 100  80 101
M  END
> <Batch ID>
0020

> <Smiles>
CNC(C)C(=O)NC(C(=O)N1Cc2cc([101O:1][101CH2:1]c3c(C)c(C)c(C)c([100NH:0][100C:0](=O)N4CCCC(n5nc(-c6ccc(Oc7ccc(F)cc7F)cc6)c(C(N)=O)c5N)C4)c3C)ccc2CC1C(=O)NC1CCCc2ccccc21)C(C)(C)C

> <Shape>
0.247

> <Color>
0.208

> <Negative vol penalty>
0.000

$$$$

  -OEChem-04052316093D

 89 97  0     1  0  0  0  0  0999 V2000
  -30.2522  -33.9338   24.2611 C   0  0  0  0  0  0  0  0  0  0  0  0
  -29.7946  -32.7860   23.6219 C   0  0  0  0  0  0  0  0  0  0  0  0
  -22.8074  -10.0832   20.1366 C   0  0  0  0  0  0  0  0  0  0  0  0
  -24.2020   -9.8836   22.0993 C   0  0  0  0  0  0  0  0  0  0  0  0
  -29.6340  -34.3721   25.4314 C   0  0  0  0  0  0  0  0  0  0  0  0
  -28.7192  -32.0751   24.1534 C   0  0  0  0  0  0  0  0  0  0  0  0
  -25.3526  -30.7176   20.6223 C   0  0  0  0  0  0  0  0  0  0  0  0
  -21.6715   -9.9004   20.9251 C   0  0  0  0  0  0  0  0  0  0  0  0
  -23.0660   -9.7008   22.8878 C   0  0  0  0  0  0  0  0  0  0  0  0
  -25.6742  -29.6205   19.8244 C   0  0  0  0  0  0  0  0  0  0  0  0
  -20.9130   -7.1968   23.6125 C   0  0  0  0  0  0  0  0  0  0  0  0
  -20.9409   -6.1757   24.5624 C   0  0  0  0  0  0  0  0  0  0  0  0
  -24.2559  -28.2224   21.1857 C   0  0  0  0  0  0  0  0  0  0  0  0
  -20.5841   -7.7981   26.3168 C   0  0  0  0  0  0  0  0  0  0  0  0
  -24.0727  -10.0748   20.7237 C   0  0  0  0  0  0  0  0  0  0  0  0
  -25.6734   -9.4602   18.8348 C   0  0  0  0  0  0  0  0  0  0  0  0
  -28.5442  -33.6716   25.9722 C   0  0  0  0  0  0  0  0  0  0  0  0
  -24.4874  -30.5728   21.7163 C   0  0  0  0  0  0  0  0  0  0  0  0
  -28.0866  -32.5037   25.3328 C   0  0  0  0  0  0  0  0  0  0  0  0
  -23.9229  -29.3197   21.9944 C   0  0  0  0  0  0  0  0  0  0  0  0
  -21.8008   -9.7092   22.3007 C   0  0  0  0  0  0  0  0  0  0  0  0
  -25.1281  -28.3720   20.1077 C   0  0  0  0  0  0  0  0  0  0  0  0
  -20.7207   -8.5185   24.0148 C   0  0  0  0  0  0  0  0  0  0  0  0
  -20.7764   -6.4764   25.9145 C   0  0  0  0  0  0  0  0  0  0  0  0
  -20.5563   -8.8191   25.3669 C   0  0  0  0  0  0  0  0  0  0  0  0
  -25.2466  -10.2630   19.9096 C   0  0  0  0  0  0  0  0  0  0  0  0
  -26.8312  -10.0570   18.3991 C   0  0  0  0  0  0  0  0  0  0  0  0
  -25.0766   -8.2806   18.2798 C   0  0  0  0  0  0  0  0  0  0  0  0
  -24.7577  -30.9721   24.8582 C   0  0  0  0  0  0  0  0  0  0  0  0
  -21.5682  -30.3825   24.8147 C   0  0  0  0  0  0  0  0  0  0  0  0
  -19.3327  -28.1129   23.1210 C   0  0  0  0  0  0  0  0  0  0  0  0
  -28.5653  -15.8277   19.1802 C   0  0  0  0  0  0  0  0  0  0  0  0
  -27.9385  -34.1574   27.2652 C   0  0  0  0  0  0  0  0  0  0  0  0
  -24.1295  -31.7717   22.5512 C   0  0  0  0  0  0  0  0  0  0  0  0
  -22.9729  -29.1157   23.1451 C   0  0  0  0  0  0  0  0  0  0  0  0
  -26.5658  -33.5573   27.5580 C   0  0  0  0  0  0  0  0  0  0  0  0
  -30.4939  -12.7111   19.9280 C   0  0  0  0  0  0  0  0  0  0  0  0
  -26.5819  -32.0496   27.3266 C   0  0  0  0  0  0  0  0  0  0  0  0
  -33.2410  -16.3155   20.1080 C   0  0  0  0  0  0  0  0  0  0  0  0
  -32.2422  -17.3228   22.1997 C   0  0  0  0  0  0  0  0  0  0  0  0
  -29.3696  -11.6778   19.9794 C   0  0  0  0  0  0  0  0  0  0  0  0
  -31.8684  -16.1159   19.4548 C   0  0  0  0  0  0  0  0  0  0  0  0
  -31.0572  -17.6582   21.2868 C   0  0  0  0  0  0  0  0  0  0  0  0
  -29.9931  -14.0921   20.3334 C   0  0  0  0  0  0  0  0  0  0  0  0
  -27.7039  -13.5472   19.5725 C   0  0  0  0  0  0  0  0  0  0  0  0
  -26.9069  -31.7193   25.8649 C   0  0  1  0  0  0  0  0  0  0  0  0
  -23.6417  -31.4024   23.9488 C   0  0  1  0  0  0  0  0  0  0  0  0
  -33.1711  -16.2344   21.6344 C   0  0  0  0  0  0  0  0  0  0  0  0
  -28.1590  -12.1402   19.1507 C   0  0  2  0  0  0  0  0  0  0  0  0
  -30.6962  -16.4926   20.3704 C   0  0  0  0  0  0  0  0  0  0  0  0
  -16.9025  -28.3464   22.5403 C   0  0  0  0  0  0  0  0  0  0  0  0
  -35.4491  -15.1984   21.7197 C   0  0  0  0  0  0  0  0  0  0  0  0
  -34.4505  -16.2069   23.7865 C   0  0  0  0  0  0  0  0  0  0  0  0
  -35.1936  -17.6859   21.9033 C   0  0  0  0  0  0  0  0  0  0  0  0
  -21.0959  -28.9217   27.4516 C   0  0  0  0  0  0  0  0  0  0  0  0
  -19.2163  -27.6874   26.3508 C   0  0  0  0  0  0  0  0  0  0  0  0
  -19.1113  -30.1692   26.5800 C   0  0  0  0  0  0  0  0  0  0  0  0
  -19.8475  -27.5853   20.2547 C   0  0  0  0  0  0  0  0  0  0  0  0
  -27.5596  -21.4397   19.8192 C   0  0  0  0  0  0  0  0  0  0  0  0
  -27.4786  -22.8156   19.1541 C   0  0  0  0  0  0  0  0  0  0  0  0
  -28.5032  -20.4696   19.1014 C   0  0  0  0  0  0  0  0  0  0  0  0
  -26.5005  -23.7311   19.8940 C   0  0  0  0  0  0  0  0  0  0  0  0
  -28.5586  -19.0830   19.7513 C   0  0  0  0  0  0  0  0  0  0  0  0
  -26.4418  -25.1160   19.2527 C   0  0  0  0  0  0  0  0  0  0  0  0
  -29.4595  -18.1173   18.9858 C   0  0  0  0  0  0  0  0  0  0  0  0
  -25.4393  -26.0190   19.9575 C   0  0  0  0  0  0  0  0  0  1  0  0
  -20.7083  -29.1452   24.9088 C   0  0  1  0  0  0  0  0  0  0  0  0
  -18.3320  -28.4644   22.0349 C   0  0  2  0  0  0  0  0  0  0  0  0
  -34.5614  -16.3310   22.2589 C   0  0  0  0  0  0  0  0  0  0  0  0
  -20.0592  -28.9800   26.3119 C   0  0  0  0  0  0  0  0  0  0  0  0
  -26.0666  -11.2912   20.1426 N   0  0  0  0  0  0  0  0  0  0  0  0
  -27.0204  -11.1386   19.2082 N   0  0  0  0  0  0  0  0  0  0  0  0
  -22.6588  -30.3171   23.9359 N   0  0  0  0  0  0  0  0  0  0  0  0
  -28.8196  -14.4959   19.5475 N   0  0  0  0  0  0  0  0  0  0  0  0
  -27.6958   -9.7568   17.4068 N   0  0  0  0  0  0  0  0  0  0  0  0
  -23.8876   -7.8029   18.8477 N   0  0  0  0  0  0  0  0  0  0  0  0
  -25.7433  -31.9253   25.0294 N   0  0  0  0  0  0  0  0  0  0  0  0
  -19.7491  -29.2305   23.8129 N   0  0  0  0  0  0  0  0  0  0  0  0
  -29.4994  -16.7921   19.5876 N   0  0  0  0  0  0  0  0  0  0  0  0
  -18.4942  -27.5535   20.8666 N   0  3  0  0  0  0  0  0  0  0  0  0
  -25.5914   -7.6591   17.3195 O   0  0  0  0  0  0  0  0  0  0  0  0
  -24.7262  -29.8582   25.3680 O   0  0  0  0  0  0  0  0  0  0  0  0
  -21.2787  -31.3730   25.4905 O   0  0  0  0  0  0  0  0  0  0  0  0
  -19.7047  -26.9615   23.3366 O   0  0  0  0  0  0  0  0  0  0  0  0
  -27.5666  -16.1352   18.5170 O   0  0  0  0  0  0  0  0  0  0  0  0
  -20.6925   -9.5310   23.0705 O   0  0  0  0  0  0  0  0  0  0  0  0
  -25.4431  -27.2915   19.3252 O   0  0  0  0  0  0  0  0  0  1  0  0
  -20.8017   -5.4955   26.8264 F   0  0  0  0  0  0  0  0  0  0  0  0
  -20.3700  -10.0869   25.7593 F   0  0  0  0  0  0  0  0  0  0  0  0
  1  2  1  0  0  0  0
  1  5  2  0  0  0  0
  2  6  2  0  0  0  0
  3  8  2  0  0  0  0
  3 15  1  0  0  0  0
  4  9  1  0  0  0  0
  4 15  2  0  0  0  0
  5 17  1  0  0  0  0
  6 19  1  0  0  0  0
  7 10  2  0  0  0  0
  7 18  1  0  0  0  0
  8 21  1  0  0  0  0
  9 21  2  0  0  0  0
 10 22  1  0  0  0  0
 11 12  2  0  0  0  0
 11 23  1  0  0  0  0
 12 24  1  0  0  0  0
 13 20  1  0  0  0  0
 13 22  2  0  0  0  0
 14 24  2  0  0  0  0
 14 25  1  0  0  0  0
 15 26  1  0  0  0  0
 16 26  1  0  0  0  0
 16 27  2  0  0  0  0
 16 28  1  0  0  0  0
 17 19  2  0  0  0  0
 17 33  1  0  0  0  0
 18 20  2  0  0  0  0
 18 34  1  0  0  0  0
 19 46  1  0  0  0  0
 20 35  1  0  0  0  0
 21 86  1  0  0  0  0
 22 87  1  0  0  0  0
 23 25  2  0  0  0  0
 23 86  1  0  0  0  0
 24 88  1  0  0  0  0
 25 89  1  0  0  0  0
 26 71  2  0  0  0  0
 27 72  1  0  0  0  0
 27 75  1  0  0  0  0
 28 76  1  0  0  0  0
 28 81  2  0  0  0  0
 29 47  1  0  0  0  0
 29 77  1  0  0  0  0
 29 82  2  0  0  0  0
 30 67  1  0  0  0  0
 30 73  1  0  0  0  0
 30 83  2  0  0  0  0
 31 68  1  0  0  0  0
 31 78  1  0  0  0  0
 31 84  2  0  0  0  0
 32 74  1  0  0  0  0
 32 79  1  0  0  0  0
 32 85  2  0  0  0  0
 33 36  1  0  0  0  0
 34 47  1  0  0  0  0
 35 73  1  0  0  0  0
 36 38  1  0  0  0  0
 37 41  1  0  0  0  0
 37 44  1  0  0  0  0
 38 46  1  0  0  0  0
 39 42  1  0  0  0  0
 39 48  1  0  0  0  0
 40 43  1  0  0  0  0
 40 48  1  0  0  0  0
 41 49  1  0  0  0  0
 42 50  1  0  0  0  0
 43 50  1  0  0  0  0
 44 74  1  0  0  0  0
 45 49  1  0  0  0  0
 45 74  1  0  0  0  0
 46 77  1  0  0  0  0
 47 73  1  0  0  0  0
 48 69  1  0  0  0  0
 49 72  1  0  0  0  0
 50 79  1  0  0  0  0
 51 68  1  0  0  0  0
 52 69  1  0  0  0  0
 53 69  1  0  0  0  0
 54 69  1  0  0  0  0
 55 70  1  0  0  0  0
 56 70  1  0  0  0  0
 57 70  1  0  0  0  0
 58 80  1  0  0  0  0
 59 60  1  0  0  0  0
 59 61  1  0  0  0  0
 60 62  1  0  0  0  0
 61 63  1  0  0  0  0
 62 64  1  0  0  0  0
 63 65  1  0  0  0  0
 64 66  1  0  0  0  0
 65 79  1  0  0  0  0
 66 87  1  0  0  0  0
 67 70  1  0  0  0  0
 67 78  1  0  0  0  0
 68 80  1  0  0  0  0
 71 72  1  0  0  0  0
M  CHG  1  80   1
M  ISO  4  32 100  66 101  79 100  87 101
M  END
> <Batch ID>
0020

> <Smiles>
CNC(C)C(=O)NC(C(=O)N1Cc2cc([101O:1][101CH2:1]CCCCCCC[100N:0](C3CCC(C(C)(C)C)CC3)[100C:0](=O)N3CCCC(n4nc(-c5ccc(Oc6ccc(F)cc6F)cc5)c(C(N)=O)c4N)C3)ccc2CC1C(=O)NC1CCCc2ccccc21)C(C)(C)C

> <Shape>
0.287

> <Color>
0.053

> <Negative vol penalty>
0.000

$$$$

  -OEChem-04052316093D

 87 95  0     1  0  0  0  0  0999 V2000
  -25.1220  -25.9517   21.1774 C   0  0  0  0  0  0  0  0  0  0  0  0
  -26.3319  -25.3054   21.4093 C   0  0  0  0  0  0  0  0  0  0  0  0
  -23.0034   -9.9009   19.9708 C   0  0  0  0  0  0  0  0  0  0  0  0
  -23.7362   -9.9305   22.2728 C   0  0  0  0  0  0  0  0  0  0  0  0
  -24.4987  -25.8373   19.9355 C   0  0  0  0  0  0  0  0  0  0  0  0
  -26.9188  -24.5434   20.3997 C   0  0  0  0  0  0  0  0  0  0  0  0
  -31.8896  -25.4037   19.9566 C   0  0  0  0  0  0  0  0  0  0  0  0
  -22.2388   -8.7632   20.2288 C   0  0  0  0  0  0  0  0  0  0  0  0
  -22.9716   -8.7928   22.5308 C   0  0  0  0  0  0  0  0  0  0  0  0
  -32.7267  -24.7964   20.8916 C   0  0  0  0  0  0  0  0  0  0  0  0
  -23.2173   -5.4587   22.0261 C   0  0  0  0  0  0  0  0  0  0  0  0
  -23.8083   -4.4349   22.7664 C   0  0  0  0  0  0  0  0  0  0  0  0
  -33.2573  -23.0736   19.2886 C   0  0  0  0  0  0  0  0  0  0  0  0
  -22.0898   -4.6601   24.4496 C   0  0  0  0  0  0  0  0  0  0  0  0
  -23.7522  -10.4845   20.9928 C   0  0  0  0  0  0  0  0  0  0  0  0
  -24.1346  -13.0020   20.8396 C   0  0  0  0  0  0  0  0  0  0  0  0
  -25.0831  -25.0814   18.9070 C   0  0  0  0  0  0  0  0  0  0  0  0
  -31.7213  -24.8435   18.6821 C   0  0  0  0  0  0  0  0  0  0  0  0
  -26.3021  -24.4177   19.1433 C   0  0  0  0  0  0  0  0  0  0  0  0
  -32.4195  -23.6771   18.3384 C   0  0  0  0  0  0  0  0  0  0  0  0
  -31.5030  -19.0672   21.4549 C   0  0  0  0  0  0  0  0  0  0  0  0
  -31.2225  -18.3626   23.7487 C   0  0  0  0  0  0  0  0  0  0  0  0
  -31.6178  -19.3261   22.8207 C   0  0  0  0  0  0  0  0  0  0  0  0
  -30.9930  -17.8449   21.0171 C   0  0  0  0  0  0  0  0  0  0  0  0
  -30.7125  -17.1403   23.3110 C   0  0  0  0  0  0  0  0  0  0  0  0
  -30.5977  -16.8815   21.9451 C   0  0  0  0  0  0  0  0  0  0  0  0
  -22.2228   -8.2091   21.5088 C   0  0  0  0  0  0  0  0  0  0  0  0
  -33.4085  -23.6296   20.5587 C   0  0  0  0  0  0  0  0  0  0  0  0
  -22.0626   -6.0833   22.4975 C   0  0  0  0  0  0  0  0  0  0  0  0
  -23.2445   -4.0356   23.9782 C   0  0  0  0  0  0  0  0  0  0  0  0
  -21.4988   -5.6840   23.7093 C   0  0  0  0  0  0  0  0  0  0  0  0
  -24.5427  -11.6595   20.7268 C   0  0  0  0  0  0  0  0  0  0  0  0
  -25.2425  -13.7291   20.4785 C   0  0  0  0  0  0  0  0  0  0  0  0
  -22.8675  -13.5435   21.2356 C   0  0  0  0  0  0  0  0  0  0  0  0
  -29.2580  -23.6576   17.0605 C   0  0  0  0  0  0  0  0  0  0  0  0
  -31.4229  -23.4973   14.6502 C   0  0  0  0  0  0  0  0  0  0  0  0
  -34.6966  -23.3124   13.7038 C   0  0  0  0  0  0  0  0  0  0  0  0
  -30.7219  -14.6931   20.7035 C   0  0  0  0  0  0  0  0  0  0  0  0
  -24.3484  -24.9483   17.5965 C   0  0  0  0  0  0  0  0  0  0  0  0
  -30.8354  -25.5255   17.6759 C   0  0  0  0  0  0  0  0  0  0  0  0
  -32.2889  -23.0469   16.9767 C   0  0  0  0  0  0  0  0  0  0  0  0
  -25.2225  -24.4281   16.4583 C   0  0  0  0  0  0  0  0  0  0  0  0
  -29.5981  -12.2616   18.3579 C   0  0  0  0  0  0  0  0  0  0  0  0
  -26.0372  -23.2235   16.9185 C   0  0  0  0  0  0  0  0  0  0  0  0
  -28.1491  -11.9986   18.7744 C   0  0  0  0  0  0  0  0  0  0  0  0
  -30.5024  -12.4942   19.5670 C   0  0  0  0  0  0  0  0  0  0  0  0
  -28.5908  -13.2684   20.9143 C   0  0  0  0  0  0  0  0  0  0  0  0
  -26.9824  -23.6022   18.0652 C   0  0  1  0  0  0  0  0  0  0  0  0
  -30.3392  -24.5849   16.5821 C   0  0  1  0  0  0  0  0  0  0  0  0
  -27.6293  -13.0926   19.7276 C   0  0  2  0  0  0  0  0  0  0  0  0
  -31.9281  -20.1007   20.4600 C   0  0  0  0  0  0  0  0  0  0  0  0
  -31.3473  -18.6402   25.2141 C   0  0  0  0  0  0  0  0  0  0  0  0
  -30.8715  -17.5717   19.5499 C   0  0  0  0  0  0  0  0  0  0  0  0
  -30.2895  -16.1091   24.3106 C   0  0  0  0  0  0  0  0  0  0  0  0
  -36.1521  -23.1565   11.6655 C   0  0  0  0  0  0  0  0  0  0  0  0
  -30.6884  -20.5507   14.3542 C   0  0  0  0  0  0  0  0  0  0  0  0
  -32.7802  -20.2357   13.0149 C   0  0  0  0  0  0  0  0  0  0  0  0
  -30.9946  -21.7716   12.1932 C   0  0  0  0  0  0  0  0  0  0  0  0
  -35.9153  -21.8811   23.5593 C   0  0  0  0  0  0  0  0  0  0  0  0
  -34.0196  -22.2552   25.1575 C   0  0  0  0  0  0  0  0  0  0  0  0
  -36.0442  -25.8724   14.3279 C   0  0  0  0  0  0  0  0  0  0  0  0
  -32.1715  -20.6481   23.2949 C   0  0  0  0  0  0  0  0  0  0  0  0
  -33.7006  -20.6919   23.1670 C   0  0  0  0  0  0  0  0  0  0  0  0
  -33.8865  -23.1917   22.8468 C   0  0  0  0  0  0  0  0  0  1  0  0
  -32.4123  -22.4637   14.1688 C   0  0  1  0  0  0  0  0  0  0  0  0
  -35.4914  -24.0886   12.6692 C   0  0  2  0  0  0  0  0  0  0  0  0
  -31.7201  -21.2660   13.4592 C   0  0  0  0  0  0  0  0  0  0  0  0
  -34.3842  -21.9892   23.6861 C   0  0  0  0  0  0  0  0  0  0  0  0
  -25.8107  -11.5379   20.3252 N   0  0  0  0  0  0  0  0  0  0  0  0
  -26.2090  -12.8135   20.1825 N   0  0  0  0  0  0  0  0  0  0  0  0
  -31.4060  -23.7477   16.0296 N   0  0  0  0  0  0  0  0  0  0  0  0
  -29.9492  -13.5465   20.4222 N   0  0  0  0  0  0  0  0  0  0  0  0
  -25.4744  -15.0560   20.3884 N   0  0  0  0  0  0  0  0  0  0  0  0
  -21.8376  -12.6552   21.5740 N   0  0  0  0  0  0  0  0  0  0  0  0
  -30.0793  -15.6401   21.5003 N   0  0  0  0  0  0  0  0  0  0  0  0
  -28.1408  -24.3035   17.5546 N   0  0  0  0  0  0  0  0  0  0  0  0
  -33.3747  -23.1767   13.3358 N   0  0  0  0  0  0  0  0  0  0  0  0
  -36.5547  -24.8958   13.3316 N   0  3  0  0  0  0  0  0  0  0  0  0
  -22.6497  -14.7784   21.2719 O   0  0  0  0  0  0  0  0  0  0  0  0
  -29.4244  -22.4458   16.9856 O   0  0  0  0  0  0  0  0  0  0  0  0
  -30.6969  -24.0669   13.8316 O   0  0  0  0  0  0  0  0  0  0  0  0
  -35.1990  -22.8676   14.7335 O   0  0  0  0  0  0  0  0  0  0  0  0
  -31.8589  -14.8374   20.2471 O   0  0  0  0  0  0  0  0  0  0  0  0
  -21.4767   -7.0991   21.7609 O   0  0  0  0  0  0  0  0  0  0  0  0
  -34.2257  -23.0345   21.4697 O   0  0  0  0  0  0  0  0  0  1  0  0
  -23.8112   -3.0514   24.6883 F   0  0  0  0  0  0  0  0  0  0  0  0
  -20.3889   -6.2795   24.1667 F   0  0  0  0  0  0  0  0  0  0  0  0
  1  2  1  0  0  0  0
  1  5  2  0  0  0  0
  2  6  2  0  0  0  0
  3  8  2  0  0  0  0
  3 15  1  0  0  0  0
  4  9  1  0  0  0  0
  4 15  2  0  0  0  0
  5 17  1  0  0  0  0
  6 19  1  0  0  0  0
  7 10  2  0  0  0  0
  7 18  1  0  0  0  0
  8 27  1  0  0  0  0
  9 27  2  0  0  0  0
 10 28  1  0  0  0  0
 11 12  2  0  0  0  0
 11 29  1  0  0  0  0
 12 30  1  0  0  0  0
 13 20  1  0  0  0  0
 13 28  2  0  0  0  0
 14 30  2  0  0  0  0
 14 31  1  0  0  0  0
 15 32  1  0  0  0  0
 16 32  1  0  0  0  0
 16 33  2  0  0  0  0
 16 34  1  0  0  0  0
 17 19  2  0  0  0  0
 17 39  1  0  0  0  0
 18 20  2  0  0  0  0
 18 40  1  0  0  0  0
 19 48  1  0  0  0  0
 20 41  1  0  0  0  0
 21 23  1  0  0  0  0
 21 24  2  0  0  0  0
 21 51  1  0  0  0  0
 22 23  2  0  0  0  0
 22 25  1  0  0  0  0
 22 52  1  0  0  0  0
 23 62  1  0  0  0  0
 24 26  1  0  0  0  0
 24 53  1  0  0  0  0
 25 26  2  0  0  0  0
 25 54  1  0  0  0  0
 26 75  1  0  0  0  0
 27 84  1  0  0  0  0
 28 85  1  0  0  0  0
 29 31  2  0  0  0  0
 29 84  1  0  0  0  0
 30 86  1  0  0  0  0
 31 87  1  0  0  0  0
 32 69  2  0  0  0  0
 33 70  1  0  0  0  0
 33 73  1  0  0  0  0
 34 74  1  0  0  0  0
 34 79  2  0  0  0  0
 35 49  1  0  0  0  0
 35 76  1  0  0  0  0
 35 80  2  0  0  0  0
 36 65  1  0  0  0  0
 36 71  1  0  0  0  0
 36 81  2  0  0  0  0
 37 66  1  0  0  0  0
 37 77  1  0  0  0  0
 37 82  2  0  0  0  0
 38 72  1  0  0  0  0
 38 75  1  0  0  0  0
 38 83  2  0  0  0  0
 39 42  1  0  0  0  0
 40 49  1  0  0  0  0
 41 71  1  0  0  0  0
 42 44  1  0  0  0  0
 43 45  1  0  0  0  0
 43 46  1  0  0  0  0
 44 48  1  0  0  0  0
 45 50  1  0  0  0  0
 46 72  1  0  0  0  0
 47 50  1  0  0  0  0
 47 72  1  0  0  0  0
 48 76  1  0  0  0  0
 49 71  1  0  0  0  0
 50 70  1  0  0  0  0
 55 66  1  0  0  0  0
 56 67  1  0  0  0  0
 57 67  1  0  0  0  0
 58 67  1  0  0  0  0
 59 68  1  0  0  0  0
 60 68  1  0  0  0  0
 61 78  1  0  0  0  0
 62 63  1  0  0  0  0
 63 68  1  0  0  0  0
 64 68  1  0  0  0  0
 64 85  1  0  0  0  0
 65 67  1  0  0  0  0
 65 77  1  0  0  0  0
 66 78  1  0  0  0  0
 69 70  1  0  0  0  0
M  CHG  1  78   1
M  ISO  4  38 100  64 101  75 100  85 101
M  END
> <Batch ID>
0020

> <Smiles>
CNC(C)C(=O)NC(C(=O)N1Cc2cc([101O:1][101CH2:1]C(C)(C)CCc3c(C)c(C)c([100NH:0][100C:0](=O)N4CCCC(n5nc(-c6ccc(Oc7ccc(F)cc7F)cc6)c(C(N)=O)c5N)C4)c(C)c3C)ccc2CC1C(=O)NC1CCCc2ccccc21)C(C)(C)C

> <Shape>
0.221

> <Color>
0.202

> <Negative vol penalty>
0.000

$$$$

  -OEChem-04052316093D

 98105  0     1  0  0  0  0  0999 V2000
  -33.2885  -25.0314   18.4713 C   0  0  0  0  0  0  0  0  0  0  0  0
  -31.9286  -24.8878   18.2202 C   0  0  0  0  0  0  0  0  0  0  0  0
  -28.2290  -16.8455   19.0590 C   0  0  0  0  0  0  0  0  0  0  0  0
  -27.5610  -17.5024   21.2859 C   0  0  0  0  0  0  0  0  0  0  0  0
  -33.7166  -25.8033   19.5492 C   0  0  0  0  0  0  0  0  0  0  0  0
  -30.9968  -25.5257   19.0397 C   0  0  0  0  0  0  0  0  0  0  0  0
  -24.9077  -25.3008   19.0356 C   0  0  0  0  0  0  0  0  0  0  0  0
  -28.9957  -18.0053   18.9468 C   0  0  0  0  0  0  0  0  0  0  0  0
  -28.3277  -18.6623   21.1738 C   0  0  0  0  0  0  0  0  0  0  0  0
  -23.9052  -24.5525   19.6510 C   0  0  0  0  0  0  0  0  0  0  0  0
  -29.8216  -21.9716   21.3375 C   0  0  0  0  0  0  0  0  0  0  0  0
  -29.2488  -23.1709   21.7608 C   0  0  0  0  0  0  0  0  0  0  0  0
  -23.6606  -26.2700   21.3272 C   0  0  0  0  0  0  0  0  0  0  0  0
  -27.4805  -22.8996   20.1370 C   0  0  0  0  0  0  0  0  0  0  0  0
  -27.5116  -16.5941   20.2286 C   0  0  0  0  0  0  0  0  0  0  0  0
  -27.1721  -14.0660   20.2648 C   0  0  0  0  0  0  0  0  0  0  0  0
  -32.7886  -26.4405   20.3893 C   0  0  0  0  0  0  0  0  0  0  0  0
  -25.3025  -26.5363   19.5685 C   0  0  0  0  0  0  0  0  0  0  0  0
  -31.4097  -26.3286   20.1183 C   0  0  0  0  0  0  0  0  0  0  0  0
  -24.6666  -27.0332   20.7152 C   0  0  0  0  0  0  0  0  0  0  0  0
  -29.0451  -18.9137   20.0042 C   0  0  0  0  0  0  0  0  0  0  0  0
  -23.2834  -25.0357   20.7986 C   0  0  0  0  0  0  0  0  0  0  0  0
  -29.2239  -21.2363   20.3138 C   0  0  0  0  0  0  0  0  0  0  0  0
  -28.0783  -23.6349   21.1606 C   0  0  0  0  0  0  0  0  0  0  0  0
  -28.0534  -21.7003   19.7136 C   0  0  0  0  0  0  0  0  0  0  0  0
  -26.7190  -15.3965   20.3448 C   0  0  0  0  0  0  0  0  0  0  0  0
  -26.0405  -13.3069   20.4373 C   0  0  0  0  0  0  0  0  0  0  0  0
  -28.4974  -13.5615   20.0535 C   0  0  0  0  0  0  0  0  0  0  0  0
  -19.4475  -23.7770   25.2696 C   0  0  0  0  0  0  0  0  0  0  0  0
  -20.6783  -24.1554   24.8401 C   0  0  0  0  0  0  0  0  0  0  0  0
  -28.0095  -27.7053   20.7556 C   0  0  0  0  0  0  0  0  0  0  0  0
  -26.3262  -30.4773   20.8249 C   0  0  0  0  0  0  0  0  0  0  0  0
  -20.7981  -14.4743   23.1328 C   0  0  0  0  0  0  0  0  0  0  0  0
  -23.2823  -32.0165   20.9351 C   0  0  0  0  0  0  0  0  0  0  0  0
  -33.3073  -27.2703   21.5372 C   0  0  0  0  0  0  0  0  0  0  0  0
  -26.3670  -27.3437   18.8775 C   0  0  0  0  0  0  0  0  0  0  0  0
  -25.0396  -28.3632   21.3154 C   0  0  0  0  0  0  0  0  0  0  0  0
  -32.2492  -27.5388   22.6024 C   0  0  0  0  0  0  0  0  0  0  0  0
  -21.3143  -13.4071   19.7513 C   0  0  0  0  0  0  0  0  0  0  0  0
  -30.9725  -28.0480   21.9501 C   0  0  0  0  0  0  0  0  0  0  0  0
  -22.7931  -13.7018   19.5037 C   0  0  0  0  0  0  0  0  0  0  0  0
  -20.6814  -14.4538   20.6629 C   0  0  0  0  0  0  0  0  0  0  0  0
  -22.8670  -14.9245   21.7228 C   0  0  0  0  0  0  0  0  0  0  0  0
  -30.3771  -26.9882   21.0145 C   0  0  1  0  0  0  0  0  0  0  0  0
  -27.0462  -28.3510   19.8002 C   0  0  1  0  0  0  0  0  0  0  0  0
  -23.5523  -13.8739   20.8312 C   0  0  2  0  0  0  0  0  0  0  0  0
  -18.5193  -22.8927   24.4701 C   0  0  0  0  0  0  0  0  0  0  0  0
  -18.8385  -24.1908   26.5874 C   0  0  0  0  0  0  0  0  0  0  0  0
  -21.5818  -25.0433   25.6692 C   0  0  0  0  0  0  0  0  0  0  0  0
  -22.2273  -34.2918   21.0201 C   0  0  0  0  0  0  0  0  0  0  0  0
  -21.3467  -17.4152   26.4196 C   0  0  0  0  0  0  0  0  0  0  0  0
  -20.5635  -25.7698   22.1307 C   0  0  0  0  0  0  0  0  0  0  0  0
  -20.6573  -14.4368   25.5272 C   0  0  0  0  0  0  0  0  0  0  0  0
  -22.6621  -13.4817   24.3863 C   0  0  0  0  0  0  0  0  0  0  0  0
  -27.0690  -30.7088   23.7752 C   0  0  0  0  0  0  0  0  0  0  0  0
  -25.2577  -32.4190   24.0253 C   0  0  0  0  0  0  0  0  0  0  0  0
  -27.1819  -32.8568   22.4994 C   0  0  0  0  0  0  0  0  0  0  0  0
  -21.8719  -31.5859   18.3691 C   0  0  0  0  0  0  0  0  0  0  0  0
  -24.9417  -22.9049   23.9888 C   0  0  0  0  0  0  0  0  0  0  0  0
  -21.0211  -20.8061   23.6355 C   0  0  0  0  0  0  0  0  0  0  0  0
  -26.1801  -23.5584   24.5930 C   0  0  0  0  0  0  0  0  0  0  0  0
  -20.5757  -19.4836   24.2504 C   0  0  0  0  0  0  0  0  0  0  0  0
  -23.6070  -23.5489   24.3488 C   0  0  0  0  0  0  0  0  0  0  0  0
  -22.1211  -21.5510   24.3846 C   0  0  0  0  0  0  0  0  0  0  0  0
  -24.4127  -17.5151   24.8472 C   0  0  0  0  0  0  0  0  0  0  0  0
  -21.2713  -23.7187   23.5016 C   0  0  1  0  0  0  0  0  0  0  0  0
  -25.4312  -31.1597   21.8309 C   0  0  1  0  0  0  0  0  0  0  0  0
  -22.7015  -33.1596   20.1224 C   0  0  2  0  0  0  0  0  0  0  0  0
  -22.2920  -16.0863   24.3480 C   0  0  2  0  0  0  0  0  0  0  0  0
  -21.3470  -17.2020   24.9123 C   0  0  2  0  0  0  0  0  0  0  0  0
  -21.7147  -24.8741   22.5787 C   0  0  1  0  0  0  0  0  0  1  0  0
  -21.6507  -14.6379   24.3658 C   0  0  0  0  0  0  0  0  0  0  0  0
  -26.2290  -31.7601   23.0228 C   0  0  0  0  0  0  0  0  0  0  0  0
  -23.7305  -16.1641   24.9422 C   0  0  0  0  0  0  0  0  0  0  0  0
  -25.4022  -15.4811   20.5519 N   0  0  0  0  0  0  0  0  0  0  0  0
  -25.0182  -14.1942   20.6034 N   0  0  0  0  0  0  0  0  0  0  0  0
  -26.0904  -29.1125   20.6070 N   0  0  0  0  0  0  0  0  0  0  0  0
  -21.4444  -14.6036   21.9034 N   0  0  0  0  0  0  0  0  0  0  0  0
  -25.8303  -11.9736   20.4616 N   0  0  0  0  0  0  0  0  0  0  0  0
  -29.3060  -13.3182   21.1721 N   0  0  0  0  0  0  0  0  0  0  0  0
  -29.2935  -27.5793   20.2607 N   0  0  0  0  0  0  0  0  0  0  0  0
  -24.6478  -32.1374   21.0834 N   0  0  0  0  0  0  0  0  0  0  0  0
  -26.0909  -23.5810   26.0715 N   0  3  0  0  0  0  0  0  0  0  0  0
  -21.5433  -32.6842   19.3139 N   0  3  0  0  0  0  0  0  0  0  0  0
  -21.6983  -18.5171   24.2824 N   0  3  0  0  0  0  0  0  0  0  0  0
  -22.4650  -22.8133   23.6895 N   0  3  1  0  0  0  0  0  0  0  0  0
  -28.9570  -13.3487   18.9058 O   0  0  0  0  0  0  0  0  0  0  0  0
  -27.6173  -27.3492   21.8606 O   0  0  0  0  0  0  0  0  0  0  0  0
  -27.1976  -31.1328   20.2481 O   0  0  0  0  0  0  0  0  0  0  0  0
  -19.5943  -14.2357   23.2606 O   0  0  0  0  0  0  0  0  0  0  0  0
  -22.5929  -31.1091   21.3957 O   0  0  0  0  0  0  0  0  0  0  0  0
  -29.7933  -20.0454   19.8952 O   0  0  0  0  0  0  0  0  0  0  0  0
  -22.3012  -24.3042   21.4040 O   0  0  0  0  0  0  0  0  0  1  0  0
  -27.5275  -24.7858   21.5683 F   0  0  0  0  0  0  0  0  0  0  0  0
  -27.4739  -20.9976   18.7305 F   0  0  0  0  0  0  0  0  0  0  0  0
  -25.7507  -17.3248   25.0312 F   0  0  0  0  0  0  0  0  0  0  0  0
  -24.5332  -15.2342   24.3658 F   0  0  0  0  0  0  0  0  0  0  0  0
  -23.6856  -15.8520   26.2686 F   0  0  0  0  0  0  0  0  0  0  0  0
  1  2  1  0  0  0  0
  1  5  2  0  0  0  0
  2  6  2  0  0  0  0
  3  8  2  0  0  0  0
  3 15  1  0  0  0  0
  4  9  1  0  0  0  0
  4 15  2  0  0  0  0
  5 17  1  0  0  0  0
  6 19  1  0  0  0  0
  7 10  2  0  0  0  0
  7 18  1  0  0  0  0
  8 21  1  0  0  0  0
  9 21  2  0  0  0  0
 10 22  1  0  0  0  0
 11 12  2  0  0  0  0
 11 23  1  0  0  0  0
 12 24  1  0  0  0  0
 13 20  1  0  0  0  0
 13 22  2  0  0  0  0
 14 24  2  0  0  0  0
 14 25  1  0  0  0  0
 15 26  1  0  0  0  0
 16 26  1  0  0  0  0
 16 27  2  0  0  0  0
 16 28  1  0  0  0  0
 17 19  2  0  0  0  0
 17 35  1  0  0  0  0
 18 20  2  0  0  0  0
 18 36  1  0  0  0  0
 19 44  1  0  0  0  0
 20 37  1  0  0  0  0
 21 92  1  0  0  0  0
 22 93  1  0  0  0  0
 23 25  2  0  0  0  0
 23 92  1  0  0  0  0
 24 94  1  0  0  0  0
 25 95  1  0  0  0  0
 26 75  2  0  0  0  0
 27 76  1  0  0  0  0
 27 79  1  0  0  0  0
 28 80  1  0  0  0  0
 28 87  2  0  0  0  0
 29 30  2  0  0  0  0
 29 47  1  0  0  0  0
 29 48  1  0  0  0  0
 30 49  1  0  0  0  0
 30 66  1  0  0  0  0
 31 45  1  0  0  0  0
 31 81  1  0  0  0  0
 31 88  2  0  0  0  0
 32 67  1  0  0  0  0
 32 77  1  0  0  0  0
 32 89  2  0  0  0  0
 33 72  1  0  0  0  0
 33 78  1  0  0  0  0
 33 90  2  0  0  0  0
 34 68  1  0  0  0  0
 34 82  1  0  0  0  0
 34 91  2  0  0  0  0
 35 38  1  0  0  0  0
 36 45  1  0  0  0  0
 37 77  1  0  0  0  0
 38 40  1  0  0  0  0
 39 41  1  0  0  0  0
 39 42  1  0  0  0  0
 40 44  1  0  0  0  0
 41 46  1  0  0  0  0
 42 78  1  0  0  0  0
 43 46  1  0  0  0  0
 43 78  1  0  0  0  0
 44 81  1  0  0  0  0
 45 77  1  0  0  0  0
 46 76  1  0  0  0  0
 50 68  1  0  0  0  0
 51 70  1  0  0  0  0
 52 71  1  0  0  0  0
 53 72  1  0  0  0  0
 54 72  1  0  0  0  0
 55 73  1  0  0  0  0
 56 73  1  0  0  0  0
 57 73  1  0  0  0  0
 58 84  1  0  0  0  0
 59 61  1  0  0  0  0
 59 63  1  0  0  0  0
 60 62  1  0  0  0  0
 60 64  1  0  0  0  0
 61 83  1  0  0  0  0
 62 85  1  0  0  0  0
 63 86  1  0  0  0  0
 64 86  1  0  0  0  0
 65 74  1  0  0  0  0
 65 96  1  0  0  0  0
 66 71  1  0  0  0  0
 66 86  1  0  0  0  0
 67 73  1  0  0  0  0
 67 82  1  0  0  0  0
 68 84  1  0  0  0  0
 69 70  1  0  0  0  0
 69 72  1  0  0  0  0
 69 74  1  0  0  0  0
 70 85  1  0  0  0  0
 71 93  1  0  0  0  0
 74 97  1  0  0  0  0
 74 98  1  0  0  0  0
 75 76  1  0  0  0  0
M  CHG  4  83   1  84   1  85   1  86   1
M  ISO  4  33 100  71 101  72 100  93 101
M  END
> <Batch ID>
0020

> <Smiles>
CNC(C)C(=O)NC(C(=O)N1Cc2cc([101O:1][101CH:1](C)C(C(C)=C(C)C)N(CCCN)CCCNC(C)C(C(F)(F)CF)[100C:0](C)(C)[100C:0](=O)N3CCCC(n4nc(-c5ccc(Oc6ccc(F)cc6F)cc5)c(C(N)=O)c4N)C3)ccc2CC1C(=O)NC1CCCc2ccccc21)C(C)(C)C

> <Shape>
0.242

> <Color>
0.057

> <Negative vol penalty>
0.000

$$$$

  -OEChem-04052316093D

 85 93  0     1  0  0  0  0  0999 V2000
  -29.3120   -2.0149   33.9177 C   0  0  0  0  0  0  0  0  0  0  0  0
  -29.1227   -3.0375   32.9936 C   0  0  0  0  0  0  0  0  0  0  0  0
  -23.2203   -9.9166   19.8906 C   0  0  0  0  0  0  0  0  0  0  0  0
  -23.9834   -9.9309   22.1829 C   0  0  0  0  0  0  0  0  0  0  0  0
  -28.2207   -1.4917   34.6100 C   0  0  0  0  0  0  0  0  0  0  0  0
  -27.8418   -3.5367   32.7605 C   0  0  0  0  0  0  0  0  0  0  0  0
  -27.7308   -8.5966   32.5868 C   0  0  0  0  0  0  0  0  0  0  0  0
  -22.5282   -8.7291   20.1284 C   0  0  0  0  0  0  0  0  0  0  0  0
  -23.2912   -8.7435   22.4207 C   0  0  0  0  0  0  0  0  0  0  0  0
  -28.1732   -9.2032   31.4121 C   0  0  0  0  0  0  0  0  0  0  0  0
  -21.4307   -5.9070   23.7287 C   0  0  0  0  0  0  0  0  0  0  0  0
  -20.6792   -5.8170   24.9003 C   0  0  0  0  0  0  0  0  0  0  0  0
  -25.8844   -9.4976   30.7092 C   0  0  0  0  0  0  0  0  0  0  0  0
  -19.3495   -7.7059   24.1926 C   0  0  0  0  0  0  0  0  0  0  0  0
  -23.9480  -10.5174   20.9179 C   0  0  0  0  0  0  0  0  0  0  0  0
  -24.1785  -13.0564   20.8262 C   0  0  0  0  0  0  0  0  0  0  0  0
  -26.9270   -1.9914   34.3923 C   0  0  0  0  0  0  0  0  0  0  0  0
  -26.3598   -8.4258   32.8270 C   0  0  0  0  0  0  0  0  0  0  0  0
  -26.7320   -3.0188   33.4495 C   0  0  0  0  0  0  0  0  0  0  0  0
  -25.4271   -8.8908   31.8889 C   0  0  0  0  0  0  0  0  0  0  0  0
  -22.5636   -8.1426   21.3935 C   0  0  0  0  0  0  0  0  0  0  0  0
  -27.2501   -9.6513   30.4717 C   0  0  0  0  0  0  0  0  0  0  0  0
  -21.1416   -6.8965   22.7890 C   0  0  0  0  0  0  0  0  0  0  0  0
  -19.6386   -6.7164   25.1323 C   0  0  0  0  0  0  0  0  0  0  0  0
  -20.1011   -7.7959   23.0209 C   0  0  0  0  0  0  0  0  0  0  0  0
  -24.6636  -11.7438   20.6727 C   0  0  0  0  0  0  0  0  0  0  0  0
  -25.2361  -13.8571   20.4700 C   0  0  0  0  0  0  0  0  0  0  0  0
  -22.8874  -13.5112   21.2526 C   0  0  0  0  0  0  0  0  0  0  0  0
  -24.4512   -5.9188   33.2465 C   0  0  0  0  0  0  0  0  0  0  0  0
  -22.2381   -8.2028   33.8853 C   0  0  0  0  0  0  0  0  0  0  0  0
  -21.2133  -11.4343   33.4929 C   0  0  0  0  0  0  0  0  0  0  0  0
  -29.4532  -12.0373   22.6306 C   0  0  0  0  0  0  0  0  0  0  0  0
  -25.7719   -1.3618   35.1298 C   0  0  0  0  0  0  0  0  0  0  0  0
  -25.8980   -7.7936   34.1113 C   0  0  0  0  0  0  0  0  0  0  0  0
  -23.9438   -8.7497   32.1084 C   0  0  0  0  0  0  0  0  0  0  0  0
  -24.4983   -2.2027   35.0986 C   0  0  0  0  0  0  0  0  0  0  0  0
  -28.7767  -11.1415   19.2384 C   0  0  0  0  0  0  0  0  0  0  0  0
  -30.9720  -14.6434   24.6433 C   0  0  0  0  0  0  0  0  0  0  0  0
  -24.2237   -2.7034   33.6841 C   0  0  0  0  0  0  0  0  0  0  0  0
  -28.1754  -12.3965   18.6153 C   0  0  0  0  0  0  0  0  0  0  0  0
  -30.0563  -14.0334   25.6952 C   0  0  0  0  0  0  0  0  0  0  0  0
  -29.8496  -11.5078   20.2522 C   0  0  0  0  0  0  0  0  0  0  0  0
  -30.2300  -14.3527   23.3480 C   0  0  0  0  0  0  0  0  0  0  0  0
  -28.6767  -13.6314   20.8005 C   0  0  0  0  0  0  0  0  0  0  0  0
  -25.3612   -3.6038   33.1871 C   0  0  1  0  0  0  0  0  0  0  0  0
  -24.4925   -7.2079   34.0174 C   0  0  1  0  0  0  0  0  0  0  0  0
  -27.6516  -13.3849   19.6696 C   0  0  2  0  0  0  0  0  0  0  0  0
  -29.5385  -12.7625   25.0161 C   0  0  1  0  0  0  0  0  0  0  0  0
  -19.3453  -12.9960   34.1003 C   0  0  0  0  0  0  0  0  0  0  0  0
  -26.0060  -10.7006   27.0502 C   0  0  0  0  0  0  0  0  0  0  0  0
  -20.4624   -6.8948   31.7768 C   0  0  0  0  0  0  0  0  0  0  0  0
  -19.0801   -8.9821   31.7466 C   0  0  0  0  0  0  0  0  0  0  0  0
  -19.2589   -7.6368   33.8396 C   0  0  0  0  0  0  0  0  0  0  0  0
  -27.8189  -12.8093   31.2781 C   0  0  0  0  0  0  0  0  0  0  0  0
  -28.2723  -13.9767   29.1003 C   0  0  0  0  0  0  0  0  0  0  0  0
  -29.6418  -12.0237   29.7751 C   0  0  0  0  0  0  0  0  0  0  0  0
  -23.0408  -13.2297   34.9747 C   0  0  0  0  0  0  0  0  0  0  0  0
  -28.6742  -10.2459   26.6114 C   0  0  0  0  0  0  0  0  0  0  0  0
  -28.1348  -12.3992   25.4832 C   0  0  0  0  0  0  0  0  0  0  0  0
  -21.2475   -8.9912   33.0631 C   0  0  1  0  0  0  0  0  0  0  0  0
  -20.7136  -12.4610   34.4932 C   0  0  2  0  0  0  0  0  0  0  0  0
  -26.9609  -11.7676   27.5865 C   0  0  1  0  0  0  0  0  0  0  0  0
  -27.2455  -11.5901   29.0944 C   0  0  2  0  0  0  0  0  0  1  0  0
  -20.0402   -8.1273   32.6012 C   0  0  0  0  0  0  0  0  0  0  0  0
  -28.2061  -12.6062   29.8025 C   0  0  0  0  0  0  0  0  0  0  0  0
  -25.9307  -11.7083   20.2517 N   0  0  0  0  0  0  0  0  0  0  0  0
  -26.2507  -13.0085   20.1375 N   0  0  0  0  0  0  0  0  0  0  0  0
  -23.5421   -8.1191   33.3767 N   0  0  0  0  0  0  0  0  0  0  0  0
  -29.3417  -12.4127   21.2836 N   0  0  0  0  0  0  0  0  0  0  0  0
  -29.5973  -13.0530   23.5785 N   0  0  0  0  0  0  0  0  0  0  0  0
  -25.3877  -15.1973   20.4119 N   0  0  0  0  0  0  0  0  0  0  0  0
  -21.9169  -12.5547   21.5809 N   0  0  0  0  0  0  0  0  0  0  0  0
  -25.2532   -4.9234   33.7713 N   0  0  0  0  0  0  0  0  0  0  0  0
  -20.8793  -10.1504   33.8688 N   0  0  0  0  0  0  0  0  0  0  0  0
  -21.6611  -13.6084   34.5749 N   0  3  0  0  0  0  0  0  0  0  0  0
  -28.2309  -11.6816   26.7720 N   0  3  1  0  0  0  0  0  0  0  0  0
  -22.5975  -14.7295   21.3243 O   0  0  0  0  0  0  0  0  0  0  0  0
  -23.7430   -5.8331   32.2501 O   0  0  0  0  0  0  0  0  0  0  0  0
  -21.8704   -7.6863   34.9434 O   0  0  0  0  0  0  0  0  0  0  0  0
  -21.8344  -11.7408   32.4776 O   0  0  0  0  0  0  0  0  0  0  0  0
  -29.4351  -10.8469   22.9709 O   0  0  0  0  0  0  0  0  0  0  0  0
  -21.8881   -6.9840   21.6259 O   0  0  0  0  0  0  0  0  0  0  0  0
  -27.6810  -10.2455   29.3194 O   0  0  0  0  0  0  0  0  0  1  0  0
  -18.9160   -6.6289   26.2567 F   0  0  0  0  0  0  0  0  0  0  0  0
  -19.8179   -8.7479   22.1213 F   0  0  0  0  0  0  0  0  0  0  0  0
  1  2  1  0  0  0  0
  1  5  2  0  0  0  0
  2  6  2  0  0  0  0
  3  8  2  0  0  0  0
  3 15  1  0  0  0  0
  4  9  1  0  0  0  0
  4 15  2  0  0  0  0
  5 17  1  0  0  0  0
  6 19  1  0  0  0  0
  7 10  2  0  0  0  0
  7 18  1  0  0  0  0
  8 21  1  0  0  0  0
  9 21  2  0  0  0  0
 10 22  1  0  0  0  0
 11 12  2  0  0  0  0
 11 23  1  0  0  0  0
 12 24  1  0  0  0  0
 13 20  1  0  0  0  0
 13 22  2  0  0  0  0
 14 24  2  0  0  0  0
 14 25  1  0  0  0  0
 15 26  1  0  0  0  0
 16 26  1  0  0  0  0
 16 27  2  0  0  0  0
 16 28  1  0  0  0  0
 17 19  2  0  0  0  0
 17 33  1  0  0  0  0
 18 20  2  0  0  0  0
 18 34  1  0  0  0  0
 19 45  1  0  0  0  0
 20 35  1  0  0  0  0
 21 82  1  0  0  0  0
 22 83  1  0  0  0  0
 23 25  2  0  0  0  0
 23 82  1  0  0  0  0
 24 84  1  0  0  0  0
 25 85  1  0  0  0  0
 26 66  2  0  0  0  0
 27 67  1  0  0  0  0
 27 71  1  0  0  0  0
 28 72  1  0  0  0  0
 28 77  2  0  0  0  0
 29 46  1  0  0  0  0
 29 73  1  0  0  0  0
 29 78  2  0  0  0  0
 30 60  1  0  0  0  0
 30 68  1  0  0  0  0
 30 79  2  0  0  0  0
 31 61  1  0  0  0  0
 31 74  1  0  0  0  0
 31 80  2  0  0  0  0
 32 69  1  0  0  0  0
 32 70  1  0  0  0  0
 32 81  2  0  0  0  0
 33 36  1  0  0  0  0
 34 46  1  0  0  0  0
 35 68  1  0  0  0  0
 36 39  1  0  0  0  0
 37 40  1  0  0  0  0
 37 42  1  0  0  0  0
 38 41  1  0  0  0  0
 38 43  1  0  0  0  0
 39 45  1  0  0  0  0
 40 47  1  0  0  0  0
 41 48  1  0  0  0  0
 42 69  1  0  0  0  0
 43 70  1  0  0  0  0
 44 47  1  0  0  0  0
 44 69  1  0  0  0  0
 45 73  1  0  0  0  0
 46 68  1  0  0  0  0
 47 67  1  0  0  0  0
 48 59  1  0  0  0  0
 48 70  1  0  0  0  0
 49 61  1  0  0  0  0
 50 62  1  0  0  0  0
 51 64  1  0  0  0  0
 52 64  1  0  0  0  0
 53 64  1  0  0  0  0
 54 65  1  0  0  0  0
 55 65  1  0  0  0  0
 56 65  1  0  0  0  0
 57 75  1  0  0  0  0
 58 76  1  0  0  0  0
 59 76  1  0  0  0  0
 60 64  1  0  0  0  0
 60 74  1  0  0  0  0
 61 75  1  0  0  0  0
 62 63  1  0  0  0  0
 62 76  1  0  0  0  0
 63 65  1  0  0  0  0
 63 83  1  0  0  0  0
 66 67  1  0  0  0  0
M  CHG  2  75   1  76   1
M  ISO  4  32 100  63 101  70 100  83 101
M  END
> <Batch ID>
0020

> <Smiles>
CNC(C)C(=O)NC(C(=O)N1Cc2cc([101O:1][101CH:1](C(C)N(C)CC3CCC[100N:0]3[100C:0](=O)N3CCCC(n4nc(-c5ccc(Oc6ccc(F)cc6F)cc5)c(C(N)=O)c4N)C3)C(C)(C)C)ccc2CC1C(=O)NC1CCCc2ccccc21)C(C)(C)C

> <Shape>
0.131

> <Color>
0.163

> <Negative vol penalty>
0.000

$$$$
